=
 OpenBabel11072415123D

 39 41  0  0  1  0  0  0  0  0999 V2000
  160.0720  208.9310  154.4410 C   0  0  2  0  0  3  0  0  0  0  0  0
  159.9260  211.8610  152.4680 C   0  0  0  0  0  0  0  0  0  0  0  0
  161.1690  209.0970  150.7640 C   0  0  0  0  0  2  0  0  0  0  0  0
  160.7170  210.3060  154.2880 C   0  0  2  0  0  3  0  0  0  0  0  0
  160.1250  214.0100  148.8530 N   0  0  0  0  0  1  0  0  0  0  0  0
  163.1630  210.5170  151.3130 C   0  0  0  0  0  1  0  0  0  0  0  0
  160.8440  211.4590  151.4650 C   0  0  0  0  0  0  0  0  0  0  0  0
  160.8960  212.1740  150.2590 C   0  0  0  0  0  3  0  0  0  0  0  0
  160.7680  210.4430  155.8180 C   0  0  2  0  0  3  0  0  0  0  0  0
  158.1760  213.4130  153.2060 N   0  0  0  0  0  1  0  0  0  0  0  0
  160.5140  207.3990  152.4600 C   0  0  0  0  0  2  0  0  0  0  0  0
  161.5400  207.7510  151.3790 C   0  0  1  0  0  3  0  0  0  0  0  0
  159.1940  213.6470  151.0420 N   0  0  0  0  0  0  0  0  0  0  0  0
  159.7770  211.2090  153.7050 O   0  0  0  0  0  0  0  0  0  0  0  0
  162.3100  208.0230  153.9950 O   0  0  0  0  0  1  0  0  0  0  0  0
  160.0920  209.0870  155.9700 C   0  0  2  0  0  3  0  0  0  0  0  0
  160.0640  213.2750  150.0680 C   0  0  0  0  0  0  0  0  0  0  0  0
  159.1040  212.9720  152.2180 C   0  0  0  0  0  0  0  0  0  0  0  0
  160.9330  207.7820  153.8820 C   0  0  1  0  0  3  0  0  0  0  0  0
  161.6990  210.2370  151.6180 C   0  0  1  0  0  3  0  0  0  0  0  0
  159.9330  211.5720  156.3640 C   0  0  0  0  0  0  0  0  0  0  0  0
  160.3600  212.7600  156.3530 O   0  0  0  0  0  0  0  0  0  0  0  0
  158.6930  211.2860  156.9270 O   0  0  0  0  0  0  0  0  0  0  0  0
  157.5680  211.4510  156.2190 O   0  0  0  0  0  1  0  0  0  0  0  0
  161.5850  206.6530  150.3010 C   0  0  1  0  0  3  0  0  0  0  0  0
  161.6910  204.3410  151.3500 C   0  0  0  0  0  1  0  0  0  0  0  0
  160.8030  205.3990  150.7090 C   0  0  0  0  0  2  0  0  0  0  0  0
  161.0740  207.1530  148.9510 C   0  0  0  0  0  2  0  0  0  0  0  0
  160.5390  206.0980  148.2060 O   0  0  0  0  0  0  0  0  0  0  0  0
  161.4250  205.9370  147.1410 C   0  0  0  0  0  2  0  0  0  0  0  0
  161.1710  204.6080  146.4490 C   0  0  1  0  0  3  0  0  0  0  0  0
  160.2690  203.9010  144.3380 O   0  0  0  0  0  0  0  0  0  0  0  0
  160.7080  204.8480  145.0440 C   0  0  0  0  0  0  0  0  0  0  0  0
  160.7560  206.1330  144.5120 O   0  0  0  0  0  1  0  0  0  0  0  0
  162.3370  203.8340  146.4670 O   0  0  0  0  0  0  0  0  0  0  0  0
  163.3530  204.7090  146.0750 C   0  0  0  0  0  1  0  0  0  0  0  0
  160.9980  208.1160  156.7230 C   0  0  0  0  0  2  0  0  0  0  0  0
  160.1990  206.9400  157.2610 C   0  0  0  0  0  2  0  0  0  0  0  0
  159.0210  206.7880  156.5280 O   0  0  0  0  0  1  0  0  0  0  0  0
  1 16  1  0  0  0  0
  2 14  1  0  0  0  0
  3 12  1  0  0  0  0
  3 20  1  0  0  0  0
  4  1  1  0  0  0  0
  4  9  1  0  0  0  0
  5 17  1  0  0  0  0
  6 20  1  0  0  0  0
  7 20  1  0  0  0  0
  7  2  2  0  0  0  0
  8  7  1  0  0  0  0
  9 16  1  0  0  0  0
  9 21  1  0  0  0  0
 11 19  1  0  0  0  0
 12 11  1  0  0  0  0
 13 18  2  0  0  0  0
 14  4  1  0  0  0  0
 16 37  1  0  0  0  0
 17  8  2  0  0  0  0
 17 13  1  0  0  0  0
 18  2  1  0  0  0  0
 18 10  1  0  0  0  0
 19 15  1  0  0  0  0
 19  1  1  0  0  0  0
 21 23  1  0  0  0  0
 22 21  2  0  0  0  0
 24 23  1  0  0  0  0
 25 27  1  0  0  0  0
 25 12  1  0  0  0  0
 27 26  1  0  0  0  0
 28 25  1  0  0  0  0
 29 28  1  0  0  0  0
 30 29  1  0  0  0  0
 31 35  1  0  0  0  0
 31 30  1  0  0  0  0
 32 33  2  0  0  0  0
 33 31  1  0  0  0  0
 34 33  1  0  0  0  0
 36 35  1  0  0  0  0
 37 38  1  0  0  0  0
 39 38  1  0  0  0  0
M  END
>  <MODEL>
1

>  <REMARK>
 VINA RESULT:      -4.5      0.000      0.000
  Name = 
  12 active torsions:
  status: ('A' for Active; 'I' for Inactive)
    1  A    between atoms: C_1  and  C_34
    2  A    between atoms: O_5  and  C_9
    3  A    between atoms: O_5  and  C_18
    4  A    between atoms: C_7  and  O_10
    5  A    between atoms: C_7  and  C_20
    6  A    between atoms: C_9  and  C_12
    7  A    between atoms: C_12  and  C_24
    8  A    between atoms: C_12  and  C_29
    9  A    between atoms: C_13  and  C_38
   10  A    between atoms: O_17  and  C_38
   11  A    between atoms: C_18  and  C_38
   12  A    between atoms: C_28  and  C_34
                            x       y       z     vdW  Elec       q    Type
                         _______ _______ _______ _____ _____    ______ ____

>  <TORSDO>
F 12

$$$$
=
 OpenBabel11072415123D

 39 41  0  0  1  0  0  0  0  0999 V2000
  161.8900  207.3830  152.5970 C   0  0  2  0  0  3  0  0  0  0  0  0
  161.1780  210.3270  150.7740 C   0  0  0  0  0  0  0  0  0  0  0  0
  160.9230  210.7280  154.2170 C   0  0  0  0  0  2  0  0  0  0  0  0
  160.8520  207.9880  151.6550 C   0  0  2  0  0  3  0  0  0  0  0  0
  160.4380  214.4530  150.3740 N   0  0  0  0  0  1  0  0  0  0  0  0
  158.5670  210.5790  153.3690 C   0  0  0  0  0  1  0  0  0  0  0  0
  160.4670  211.0120  151.7920 C   0  0  0  0  0  0  0  0  0  0  0  0
  160.2350  212.3890  151.6550 C   0  0  0  0  0  3  0  0  0  0  0  0
  160.7080  206.6280  150.9540 C   0  0  2  0  0  3  0  0  0  0  0  0
  162.3260  210.4010  148.6070 N   0  0  0  0  0  1  0  0  0  0  0  0
  162.0190  208.5830  154.8360 C   0  0  0  0  0  2  0  0  0  0  0  0
  160.9720  209.6160  155.2610 C   0  0  1  0  0  3  0  0  0  0  0  0
  161.3610  212.3870  149.5560 N   0  0  0  0  0  0  0  0  0  0  0  0
  161.4810  208.9540  150.8140 O   0  0  0  0  0  0  0  0  0  0  0  0
  160.0660  207.2410  154.2360 O   0  0  0  0  0  1  0  0  0  0  0  0
  161.7700  206.0350  151.8710 C   0  0  2  0  0  3  0  0  0  0  0  0
  160.6850  213.0610  150.5210 C   0  0  0  0  0  0  0  0  0  0  0  0
  161.6170  211.0560  149.6570 C   0  0  0  0  0  0  0  0  0  0  0  0
  161.4520  207.3810  154.0750 C   0  0  1  0  0  3  0  0  0  0  0  0
  160.0340  210.3280  153.0530 C   0  0  1  0  0  3  0  0  0  0  0  0
  161.1280  206.6320  149.5080 C   0  0  0  0  0  0  0  0  0  0  0  0
  160.2750  206.5290  148.5830 O   0  0  0  0  0  0  0  0  0  0  0  0
  162.4820  206.7060  149.1960 O   0  0  0  0  0  0  0  0  0  0  0  0
  162.8970  207.3660  148.1070 O   0  0  0  0  0  1  0  0  0  0  0  0
  161.3110  210.1860  156.6500 C   0  0  1  0  0  3  0  0  0  0  0  0
  163.6300  211.1000  157.1430 C   0  0  0  0  0  1  0  0  0  0  0  0
  162.7460  209.8620  157.0820 C   0  0  0  0  0  2  0  0  0  0  0  0
  161.0890  211.6970  156.7210 C   0  0  0  0  0  2  0  0  0  0  0  0
  159.7890  211.9830  157.1470 O   0  0  0  0  0  0  0  0  0  0  0  0
  159.4620  213.1720  156.4950 C   0  0  0  0  0  2  0  0  0  0  0  0
  157.9600  213.2490  156.2770 C   0  0  1  0  0  3  0  0  0  0  0  0
  156.4850  214.1060  154.5840 O   0  0  0  0  0  1  0  0  0  0  0  0
  157.6700  213.9360  154.9760 C   0  0  0  0  0  0  0  0  0  0  0  0
  158.7230  214.4020  154.1940 O   0  0  0  0  0  0  0  0  0  0  0  0
  157.4110  211.9620  156.2960 O   0  0  0  0  0  0  0  0  0  0  0  0
  156.4030  212.0170  157.2610 C   0  0  0  0  0  1  0  0  0  0  0  0
  161.1890  204.8880  152.6960 C   0  0  0  0  0  2  0  0  0  0  0  0
  161.5130  203.5470  152.0570 C   0  0  0  0  0  2  0  0  0  0  0  0
  160.7870  203.3920  150.8760 O   0  0  0  0  0  1  0  0  0  0  0  0
  1 19  1  0  0  0  0
  2 14  1  0  0  0  0
  2  7  1  0  0  0  0
  3 12  1  0  0  0  0
  4  1  1  0  0  0  0
  5 17  1  0  0  0  0
  7 20  1  0  0  0  0
  8  7  2  0  0  0  0
  9  4  1  0  0  0  0
  9 16  1  0  0  0  0
 10 18  1  0  0  0  0
 11 12  1  0  0  0  0
 12 25  1  0  0  0  0
 13 18  1  0  0  0  0
 13 17  2  0  0  0  0
 14  4  1  0  0  0  0
 16  1  1  0  0  0  0
 16 37  1  0  0  0  0
 17  8  1  0  0  0  0
 18  2  2  0  0  0  0
 19 15  1  0  0  0  0
 19 11  1  0  0  0  0
 20  6  1  0  0  0  0
 20  3  1  0  0  0  0
 21  9  1  0  0  0  0
 22 21  2  0  0  0  0
 23 21  1  0  0  0  0
 24 23  1  0  0  0  0
 25 28  1  0  0  0  0
 25 27  1  0  0  0  0
 27 26  1  0  0  0  0
 28 29  1  0  0  0  0
 30 29  1  0  0  0  0
 31 35  1  0  0  0  0
 31 30  1  0  0  0  0
 32 33  1  0  0  0  0
 33 31  1  0  0  0  0
 34 33  2  0  0  0  0
 35 36  1  0  0  0  0
 38 37  1  0  0  0  0
 39 38  1  0  0  0  0
M  END
>  <MODEL>
2

>  <REMARK>
 VINA RESULT:      -4.5      2.312      7.969
  Name = 
  12 active torsions:
  status: ('A' for Active; 'I' for Inactive)
    1  A    between atoms: C_1  and  C_34
    2  A    between atoms: O_5  and  C_9
    3  A    between atoms: O_5  and  C_18
    4  A    between atoms: C_7  and  O_10
    5  A    between atoms: C_7  and  C_20
    6  A    between atoms: C_9  and  C_12
    7  A    between atoms: C_12  and  C_24
    8  A    between atoms: C_12  and  C_29
    9  A    between atoms: C_13  and  C_38
   10  A    between atoms: O_17  and  C_38
   11  A    between atoms: C_18  and  C_38
   12  A    between atoms: C_28  and  C_34
                            x       y       z     vdW  Elec       q    Type
                         _______ _______ _______ _____ _____    ______ ____

>  <TORSDO>
F 12

$$$$
=
 OpenBabel11072415123D

 39 41  0  0  1  0  0  0  0  0999 V2000
  161.0440  207.9310  149.5730 C   0  0  2  0  0  3  0  0  0  0  0  0
  161.1740  204.4040  149.7730 C   0  0  0  0  0  0  0  0  0  0  0  0
  161.0480  205.9690  152.8740 C   0  0  0  0  0  2  0  0  0  0  0  0
  161.9780  206.7500  149.3240 C   0  0  2  0  0  3  0  0  0  0  0  0
  160.9330  200.7090  151.7790 N   0  0  0  0  0  1  0  0  0  0  0  0
  163.4320  205.2500  152.5660 C   0  0  0  0  0  1  0  0  0  0  0  0
  161.6160  204.3070  151.1170 C   0  0  0  0  0  0  0  0  0  0  0  0
  161.5220  203.0740  151.7810 C   0  0  0  0  0  3  0  0  0  0  0  0
  162.5000  207.4410  148.0540 C   0  0  2  0  0  3  0  0  0  0  0  0
  160.2180  203.3060  147.7980 N   0  0  0  0  0  1  0  0  0  0  0  0
  160.4520  208.2300  152.0280 C   0  0  0  0  0  2  0  0  0  0  0  0
  161.1840  207.4660  153.1350 C   0  0  1  0  0  3  0  0  0  0  0  0
  160.6010  202.0740  149.8250 N   0  0  0  0  0  0  0  0  0  0  0  0
  161.2050  205.5890  149.0170 O   0  0  0  0  0  0  0  0  0  0  0  0
  162.7110  208.6820  151.2120 O   0  0  0  0  0  1  0  0  0  0  0  0
  161.5410  208.6020  148.2830 C   0  0  2  0  0  3  0  0  0  0  0  0
  161.0160  201.9620  151.1120 C   0  0  0  0  0  0  0  0  0  0  0  0
  160.6630  203.2520  149.1520 C   0  0  0  0  0  0  0  0  0  0  0  0
  161.3490  208.6930  150.8760 C   0  0  1  0  0  3  0  0  0  0  0  0
  162.0980  205.5040  151.8800 C   0  0  1  0  0  3  0  0  0  0  0  0
  162.2080  206.6910  146.7800 C   0  0  0  0  0  0  0  0  0  0  0  0
  163.0680  205.9220  146.2680 O   0  0  0  0  0  0  0  0  0  0  0  0
  160.9870  206.8890  146.1420 O   0  0  0  0  0  0  0  0  0  0  0  0
  160.5010  205.9690  145.2990 O   0  0  0  0  0  1  0  0  0  0  0  0
  160.6090  207.8340  154.5150 C   0  0  1  0  0  3  0  0  0  0  0  0
  160.1440  207.0340  156.8810 C   0  0  0  0  0  1  0  0  0  0  0  0
  160.8130  206.7210  155.5500 C   0  0  0  0  0  2  0  0  0  0  0  0
  161.1940  209.1400  155.0510 C   0  0  0  0  0  2  0  0  0  0  0  0
  160.1850  210.0850  155.2530 O   0  0  0  0  0  0  0  0  0  0  0  0
  160.5750  211.1810  154.4830 C   0  0  0  0  0  2  0  0  0  0  0  0
  159.3510  211.9630  154.0340 C   0  0  1  0  0  3  0  0  0  0  0  0
  160.3950  211.7970  151.8760 O   0  0  0  0  0  0  0  0  0  0  0  0
  159.3960  212.1680  152.5500 C   0  0  0  0  0  0  0  0  0  0  0  0
  158.3200  212.7680  151.9040 O   0  0  0  0  0  1  0  0  0  0  0  0
  158.1890  211.2810  154.4100 O   0  0  0  0  0  0  0  0  0  0  0  0
  157.4620  212.2030  155.1670 C   0  0  0  0  0  1  0  0  0  0  0  0
  162.3120  209.9070  148.4710 C   0  0  0  0  0  2  0  0  0  0  0  0
  161.4540  211.1000  148.0810 C   0  0  0  0  0  2  0  0  0  0  0  0
  161.8070  212.2130  148.8460 O   0  0  0  0  0  1  0  0  0  0  0  0
  1 19  1  0  0  0  0
  2  7  1  0  0  0  0
  3 12  1  0  0  0  0
  4  1  1  0  0  0  0
  7  8  2  0  0  0  0
  7 20  1  0  0  0  0
  9 16  1  0  0  0  0
  9  4  1  0  0  0  0
 10 18  1  0  0  0  0
 11 12  1  0  0  0  0
 12 25  1  0  0  0  0
 13 17  2  0  0  0  0
 14  4  1  0  0  0  0
 14  2  1  0  0  0  0
 16 37  1  0  0  0  0
 16  1  1  0  0  0  0
 17  5  1  0  0  0  0
 17  8  1  0  0  0  0
 18  2  2  0  0  0  0
 18 13  1  0  0  0  0
 19 15  1  0  0  0  0
 19 11  1  0  0  0  0
 20  6  1  0  0  0  0
 20  3  1  0  0  0  0
 21  9  1  0  0  0  0
 22 21  2  0  0  0  0
 23 21  1  0  0  0  0
 24 23  1  0  0  0  0
 25 28  1  0  0  0  0
 25 27  1  0  0  0  0
 27 26  1  0  0  0  0
 28 29  1  0  0  0  0
 30 29  1  0  0  0  0
 31 35  1  0  0  0  0
 31 30  1  0  0  0  0
 32 33  2  0  0  0  0
 33 31  1  0  0  0  0
 34 33  1  0  0  0  0
 35 36  1  0  0  0  0
 38 37  1  0  0  0  0
 38 39  1  0  0  0  0
M  END
>  <MODEL>
3

>  <REMARK>
 VINA RESULT:      -4.1      3.785      8.947
  Name = 
  12 active torsions:
  status: ('A' for Active; 'I' for Inactive)
    1  A    between atoms: C_1  and  C_34
    2  A    between atoms: O_5  and  C_9
    3  A    between atoms: O_5  and  C_18
    4  A    between atoms: C_7  and  O_10
    5  A    between atoms: C_7  and  C_20
    6  A    between atoms: C_9  and  C_12
    7  A    between atoms: C_12  and  C_24
    8  A    between atoms: C_12  and  C_29
    9  A    between atoms: C_13  and  C_38
   10  A    between atoms: O_17  and  C_38
   11  A    between atoms: C_18  and  C_38
   12  A    between atoms: C_28  and  C_34
                            x       y       z     vdW  Elec       q    Type
                         _______ _______ _______ _____ _____    ______ ____

>  <TORSDO>
F 12

$$$$
=
 OpenBabel11072415123D

 39 41  0  0  1  0  0  0  0  0999 V2000
  160.5710  208.0840  152.0400 C   0  0  2  0  0  3  0  0  0  0  0  0
  161.1240  211.1150  150.3060 C   0  0  0  0  0  0  0  0  0  0  0  0
  161.2770  208.3000  148.2710 C   0  0  0  0  0  2  0  0  0  0  0  0
  161.5860  209.2160  151.8970 C   0  0  2  0  0  3  0  0  0  0  0  0
  161.5950  213.4720  146.8480 N   0  0  0  0  0  1  0  0  0  0  0  0
  163.6560  209.0020  148.6500 C   0  0  0  0  0  1  0  0  0  0  0  0
  161.7660  210.5660  149.1670 C   0  0  0  0  0  0  0  0  0  0  0  0
  161.9090  211.3550  148.0150 C   0  0  0  0  0  3  0  0  0  0  0  0
  161.8360  209.1720  153.4130 C   0  0  2  0  0  3  0  0  0  0  0  0
  160.0200  213.0300  151.3680 N   0  0  0  0  0  1  0  0  0  0  0  0
  160.3140  206.7050  149.9190 C   0  0  0  0  0  2  0  0  0  0  0  0
  161.2800  206.8480  148.7400 C   0  0  1  0  0  3  0  0  0  0  0  0
  160.8310  213.1750  149.1100 N   0  0  0  0  0  0  0  0  0  0  0  0
  160.9120  210.4110  151.5050 O   0  0  0  0  0  0  0  0  0  0  0  0
  162.3640  206.6070  151.2450 O   0  0  0  0  0  1  0  0  0  0  0  0
  160.7960  208.0680  153.5600 C   0  0  2  0  0  3  0  0  0  0  0  0
  161.4390  212.6670  148.0090 C   0  0  0  0  0  0  0  0  0  0  0  0
  160.6610  212.4390  150.2400 C   0  0  0  0  0  0  0  0  0  0  0  0
  160.9760  206.7970  151.2970 C   0  0  1  0  0  3  0  0  0  0  0  0
  162.2160  209.1370  149.1230 C   0  0  1  0  0  3  0  0  0  0  0  0
  161.4470  210.4340  154.1380 C   0  0  0  0  0  0  0  0  0  0  0  0
  162.2720  211.0380  154.8790 O   0  0  0  0  0  0  0  0  0  0  0  0
  160.1450  210.9100  154.0200 O   0  0  0  0  0  0  0  0  0  0  0  0
  159.2950  210.8360  155.0530 O   0  0  0  0  0  1  0  0  0  0  0  0
  160.8750  205.9040  147.5930 C   0  0  1  0  0  3  0  0  0  0  0  0
  160.4350  205.7040  145.0990 C   0  0  0  0  0  1  0  0  0  0  0  0
  160.6510  206.6500  146.2730 C   0  0  0  0  0  2  0  0  0  0  0  0
  161.8980  204.7890  147.3790 C   0  0  0  0  0  2  0  0  0  0  0  0
  161.6240  203.7040  148.2160 O   0  0  0  0  0  0  0  0  0  0  0  0
  161.1970  202.6950  147.3520 C   0  0  0  0  0  2  0  0  0  0  0  0
  161.4010  201.3350  147.9990 C   0  0  1  0  0  3  0  0  0  0  0  0
  159.3190  201.4180  149.1960 O   0  0  0  0  0  0  0  0  0  0  0  0
  160.5650  201.2320  149.2390 C   0  0  0  0  0  0  0  0  0  0  0  0
  161.1690  200.9210  150.4530 O   0  0  0  0  0  1  0  0  0  0  0  0
  161.0730  200.3240  147.0890 O   0  0  0  0  0  0  0  0  0  0  0  0
  160.7530  200.9960  145.9070 C   0  0  0  0  0  1  0  0  0  0  0  0
  161.4340  206.7990  154.1210 C   0  0  0  0  0  2  0  0  0  0  0  0
  160.9960  206.5670  155.5580 C   0  0  0  0  0  2  0  0  0  0  0  0
  159.8600  207.3260  155.8410 O   0  0  0  0  0  1  0  0  0  0  0  0
  1 16  1  0  0  0  0
  2 14  1  0  0  0  0
  3 12  1  0  0  0  0
  3 20  1  0  0  0  0
  4  1  1  0  0  0  0
  4  9  1  0  0  0  0
  5 17  1  0  0  0  0
  6 20  1  0  0  0  0
  7  2  2  0  0  0  0
  8  7  1  0  0  0  0
  9 16  1  0  0  0  0
  9 21  1  0  0  0  0
 11 19  1  0  0  0  0
 12 11  1  0  0  0  0
 13 18  2  0  0  0  0
 14  4  1  0  0  0  0
 15 19  1  0  0  0  0
 16 37  1  0  0  0  0
 17  8  2  0  0  0  0
 17 13  1  0  0  0  0
 18  2  1  0  0  0  0
 18 10  1  0  0  0  0
 19  1  1  0  0  0  0
 20  7  1  0  0  0  0
 21 22  2  0  0  0  0
 23 21  1  0  0  0  0
 23 24  1  0  0  0  0
 25 12  1  0  0  0  0
 26 27  1  0  0  0  0
 27 25  1  0  0  0  0
 28 25  1  0  0  0  0
 28 29  1  0  0  0  0
 30 31  1  0  0  0  0
 30 29  1  0  0  0  0
 31 33  1  0  0  0  0
 32 33  2  0  0  0  0
 33 34  1  0  0  0  0
 35 31  1  0  0  0  0
 36 35  1  0  0  0  0
 37 38  1  0  0  0  0
 38 39  1  0  0  0  0
M  END
>  <MODEL>
4

>  <REMARK>
 VINA RESULT:      -4.0      2.270      3.449
  Name = 
  12 active torsions:
  status: ('A' for Active; 'I' for Inactive)
    1  A    between atoms: C_1  and  C_34
    2  A    between atoms: O_5  and  C_9
    3  A    between atoms: O_5  and  C_18
    4  A    between atoms: C_7  and  O_10
    5  A    between atoms: C_7  and  C_20
    6  A    between atoms: C_9  and  C_12
    7  A    between atoms: C_12  and  C_24
    8  A    between atoms: C_12  and  C_29
    9  A    between atoms: C_13  and  C_38
   10  A    between atoms: O_17  and  C_38
   11  A    between atoms: C_18  and  C_38
   12  A    between atoms: C_28  and  C_34
                            x       y       z     vdW  Elec       q    Type
                         _______ _______ _______ _____ _____    ______ ____

>  <TORSDO>
F 12

$$$$
=
 OpenBabel11072415123D

 39 41  0  0  1  0  0  0  0  0999 V2000
  160.9340  207.2650  150.1560 C   0  0  2  0  0  3  0  0  0  0  0  0
  160.9280  208.6080  153.4260 C   0  0  0  0  0  0  0  0  0  0  0  0
  161.6320  210.9550  150.9590 C   0  0  0  0  0  2  0  0  0  0  0  0
  161.7200  207.2380  151.4650 C   0  0  2  0  0  3  0  0  0  0  0  0
  160.9880  211.7440  156.2360 N   0  0  0  0  0  1  0  0  0  0  0  0
  163.8310  210.4130  152.0380 C   0  0  0  0  0  1  0  0  0  0  0  0
  161.6750  209.7810  153.1490 C   0  0  0  0  0  0  0  0  0  0  0  0
  161.6800  210.8260  154.0870 C   0  0  0  0  0  3  0  0  0  0  0  0
  161.9550  205.7290  151.2830 C   0  0  2  0  0  3  0  0  0  0  0  0
  159.4700  207.3660  154.9590 N   0  0  0  0  0  1  0  0  0  0  0  0
  160.9660  209.5420  149.0240 C   0  0  0  0  0  2  0  0  0  0  0  0
  161.9020  210.6610  149.4870 C   0  0  1  0  0  3  0  0  0  0  0  0
  160.2660  209.5610  155.5270 N   0  0  0  0  0  0  0  0  0  0  0  0
  160.8370  207.5090  152.5540 O   0  0  0  0  0  0  0  0  0  0  0  0
  162.9820  208.1650  149.1450 O   0  0  0  0  0  1  0  0  0  0  0  0
  161.1390  205.7500  149.9960 C   0  0  2  0  0  3  0  0  0  0  0  0
  160.9720  210.6930  155.2790 C   0  0  0  0  0  0  0  0  0  0  0  0
  160.2240  208.5330  154.6400 C   0  0  0  0  0  0  0  0  0  0  0  0
  161.5820  208.1400  149.0670 C   0  0  1  0  0  3  0  0  0  0  0  0
  162.3870  209.9780  151.8450 C   0  0  1  0  0  3  0  0  0  0  0  0
  161.3270  204.8740  152.3520 C   0  0  0  0  0  0  0  0  0  0  0  0
  161.5010  205.1320  153.5750 O   0  0  0  0  0  0  0  0  0  0  0  0
  160.5830  203.7590  151.9790 O   0  0  0  0  0  0  0  0  0  0  0  0
  161.1920  202.6230  151.6160 O   0  0  0  0  0  1  0  0  0  0  0  0
  161.6950  211.9250  148.6320 C   0  0  1  0  0  3  0  0  0  0  0  0
  159.7140  213.4870  148.9270 C   0  0  0  0  0  1  0  0  0  0  0  0
  161.0910  213.0820  149.4350 C   0  0  0  0  0  2  0  0  0  0  0  0
  162.9930  212.3880  147.9710 C   0  0  0  0  0  2  0  0  0  0  0  0
  162.7270  213.3390  146.9810 O   0  0  0  0  0  0  0  0  0  0  0  0
  161.8390  212.7020  146.1140 C   0  0  0  0  0  2  0  0  0  0  0  0
  161.6190  213.5550  144.8760 C   0  0  1  0  0  3  0  0  0  0  0  0
  162.4540  212.3780  142.9550 O   0  0  0  0  0  0  0  0  0  0  0  0
  162.6650  213.2400  143.8500 C   0  0  0  0  0  0  0  0  0  0  0  0
  163.8830  213.9130  143.8790 O   0  0  0  0  0  1  0  0  0  0  0  0
  160.3350  213.3300  144.3670 O   0  0  0  0  0  0  0  0  0  0  0  0
  159.7960  212.3330  145.1840 C   0  0  0  0  0  1  0  0  0  0  0  0
  161.9990  205.3210  148.8080 C   0  0  0  0  0  2  0  0  0  0  0  0
  161.4680  204.0330  148.1980 C   0  0  0  0  0  2  0  0  0  0  0  0
  161.6550  204.0480  146.8150 O   0  0  0  0  0  1  0  0  0  0  0  0
  1  4  1  0  0  0  0
  2 18  1  0  0  0  0
  3 20  1  0  0  0  0
  4 14  1  0  0  0  0
  7  2  2  0  0  0  0
  7  8  1  0  0  0  0
  8 17  2  0  0  0  0
  9  4  1  0  0  0  0
  9 21  1  0  0  0  0
 11 19  1  0  0  0  0
 11 12  1  0  0  0  0
 12  3  1  0  0  0  0
 14  2  1  0  0  0  0
 16  1  1  0  0  0  0
 16  9  1  0  0  0  0
 17 13  1  0  0  0  0
 17  5  1  0  0  0  0
 18 10  1  0  0  0  0
 18 13  2  0  0  0  0
 19 15  1  0  0  0  0
 19  1  1  0  0  0  0
 20  6  1  0  0  0  0
 20  7  1  0  0  0  0
 21 22  2  0  0  0  0
 23 21  1  0  0  0  0
 24 23  1  0  0  0  0
 25 27  1  0  0  0  0
 25 12  1  0  0  0  0
 26 27  1  0  0  0  0
 28 25  1  0  0  0  0
 29 28  1  0  0  0  0
 30 29  1  0  0  0  0
 31 30  1  0  0  0  0
 32 33  2  0  0  0  0
 33 34  1  0  0  0  0
 33 31  1  0  0  0  0
 35 31  1  0  0  0  0
 35 36  1  0  0  0  0
 37 16  1  0  0  0  0
 38 37  1  0  0  0  0
 39 38  1  0  0  0  0
M  END
>  <MODEL>
5

>  <REMARK>
 VINA RESULT:      -3.5      3.730      6.919
  Name = 
  12 active torsions:
  status: ('A' for Active; 'I' for Inactive)
    1  A    between atoms: C_1  and  C_34
    2  A    between atoms: O_5  and  C_9
    3  A    between atoms: O_5  and  C_18
    4  A    between atoms: C_7  and  O_10
    5  A    between atoms: C_7  and  C_20
    6  A    between atoms: C_9  and  C_12
    7  A    between atoms: C_12  and  C_24
    8  A    between atoms: C_12  and  C_29
    9  A    between atoms: C_13  and  C_38
   10  A    between atoms: O_17  and  C_38
   11  A    between atoms: C_18  and  C_38
   12  A    between atoms: C_28  and  C_34
                            x       y       z     vdW  Elec       q    Type
                         _______ _______ _______ _____ _____    ______ ____

>  <TORSDO>
F 12

$$$$
=
 OpenBabel11072415123D

 39 41  0  0  1  0  0  0  0  0999 V2000
  160.9070  207.2180  150.3450 C   0  0  2  0  0  3  0  0  0  0  0  0
  160.8490  208.6340  153.5840 C   0  0  0  0  0  0  0  0  0  0  0  0
  161.6710  210.9080  151.0860 C   0  0  0  0  0  2  0  0  0  0  0  0
  161.6580  207.2020  151.6750 C   0  0  2  0  0  3  0  0  0  0  0  0
  160.9110  211.8310  156.3250 N   0  0  0  0  0  1  0  0  0  0  0  0
  163.8290  210.3400  152.2330 C   0  0  0  0  0  1  0  0  0  0  0  0
  161.6300  209.7830  153.3010 C   0  0  0  0  0  0  0  0  0  0  0  0
  161.6360  210.8480  154.2150 C   0  0  0  0  0  3  0  0  0  0  0  0
  161.8630  205.6850  151.5320 C   0  0  2  0  0  3  0  0  0  0  0  0
  159.3240  207.4610  155.1050 N   0  0  0  0  0  1  0  0  0  0  0  0
  161.0230  209.4670  149.1650 C   0  0  0  0  0  2  0  0  0  0  0  0
  161.9730  210.5750  149.6280 C   0  0  1  0  0  3  0  0  0  0  0  0
  160.1560  209.6490  155.6450 N   0  0  0  0  0  0  0  0  0  0  0  0
  160.7550  207.5180  152.7340 O   0  0  0  0  0  0  0  0  0  0  0  0
  163.0020  208.0480  149.3690 O   0  0  0  0  0  1  0  0  0  0  0  0
  161.0810  205.6960  150.2240 C   0  0  2  0  0  3  0  0  0  0  0  0
  160.8940  210.7590  155.3910 C   0  0  0  0  0  0  0  0  0  0  0  0
  160.1130  208.6030  154.7800 C   0  0  0  0  0  0  0  0  0  0  0  0
  161.6040  208.0530  149.2550 C   0  0  1  0  0  3  0  0  0  0  0  0
  162.3800  209.9340  152.0120 C   0  0  1  0  0  3  0  0  0  0  0  0
  161.1880  204.8690  152.6030 C   0  0  0  0  0  0  0  0  0  0  0  0
  161.2250  205.2270  153.8130 O   0  0  0  0  0  0  0  0  0  0  0  0
  160.5550  203.6800  152.2520 O   0  0  0  0  0  0  0  0  0  0  0  0
  161.2520  202.6670  151.7220 O   0  0  0  0  0  1  0  0  0  0  0  0
  161.8180  211.8230  148.7400 C   0  0  1  0  0  3  0  0  0  0  0  0
  163.1280  213.8310  147.8990 C   0  0  0  0  0  1  0  0  0  0  0  0
  163.1640  212.3440  148.2220 C   0  0  0  0  0  2  0  0  0  0  0  0
  160.8810  211.5740  147.5580 C   0  0  0  0  0  2  0  0  0  0  0  0
  160.0960  212.7030  147.3070 O   0  0  0  0  0  0  0  0  0  0  0  0
  160.2500  212.9380  145.9410 C   0  0  0  0  0  2  0  0  0  0  0  0
  159.1270  212.2650  145.1680 C   0  0  1  0  0  3  0  0  0  0  0  0
  157.0230  212.2020  146.3260 O   0  0  0  0  0  1  0  0  0  0  0  0
  157.8080  212.8450  145.5790 C   0  0  0  0  0  0  0  0  0  0  0  0
  157.4460  214.1150  145.1380 O   0  0  0  0  0  0  0  0  0  0  0  0
  159.3370  212.4230  143.7930 O   0  0  0  0  0  0  0  0  0  0  0  0
  160.7190  212.5790  143.6580 C   0  0  0  0  0  1  0  0  0  0  0  0
  161.9610  205.2200  149.0690 C   0  0  0  0  0  2  0  0  0  0  0  0
  161.2060  204.2390  148.1860 C   0  0  0  0  0  2  0  0  0  0  0  0
  162.0660  203.6950  147.2320 O   0  0  0  0  0  1  0  0  0  0  0  0
  1  4  1  0  0  0  0
  2 18  1  0  0  0  0
  3 20  1  0  0  0  0
  4 14  1  0  0  0  0
  7  2  2  0  0  0  0
  7  8  1  0  0  0  0
  8 17  2  0  0  0  0
  9  4  1  0  0  0  0
  9 21  1  0  0  0  0
 11 19  1  0  0  0  0
 11 12  1  0  0  0  0
 12  3  1  0  0  0  0
 14  2  1  0  0  0  0
 16  1  1  0  0  0  0
 16  9  1  0  0  0  0
 17 13  1  0  0  0  0
 17  5  1  0  0  0  0
 18 10  1  0  0  0  0
 18 13  2  0  0  0  0
 19 15  1  0  0  0  0
 19  1  1  0  0  0  0
 20  6  1  0  0  0  0
 20  7  1  0  0  0  0
 21 22  2  0  0  0  0
 23 21  1  0  0  0  0
 24 23  1  0  0  0  0
 25 12  1  0  0  0  0
 26 27  1  0  0  0  0
 27 25  1  0  0  0  0
 28 25  1  0  0  0  0
 29 28  1  0  0  0  0
 30 29  1  0  0  0  0
 31 33  1  0  0  0  0
 31 30  1  0  0  0  0
 33 32  1  0  0  0  0
 34 33  2  0  0  0  0
 35 31  1  0  0  0  0
 36 35  1  0  0  0  0
 37 16  1  0  0  0  0
 38 37  1  0  0  0  0
 39 38  1  0  0  0  0
M  END
>  <MODEL>
6

>  <REMARK>
 VINA RESULT:      -3.3      3.726      6.812
  Name = 
  12 active torsions:
  status: ('A' for Active; 'I' for Inactive)
    1  A    between atoms: C_1  and  C_34
    2  A    between atoms: O_5  and  C_9
    3  A    between atoms: O_5  and  C_18
    4  A    between atoms: C_7  and  O_10
    5  A    between atoms: C_7  and  C_20
    6  A    between atoms: C_9  and  C_12
    7  A    between atoms: C_12  and  C_24
    8  A    between atoms: C_12  and  C_29
    9  A    between atoms: C_13  and  C_38
   10  A    between atoms: O_17  and  C_38
   11  A    between atoms: C_18  and  C_38
   12  A    between atoms: C_28  and  C_34
                            x       y       z     vdW  Elec       q    Type
                         _______ _______ _______ _____ _____    ______ ____

>  <TORSDO>
F 12

$$$$
=
 OpenBabel11072415123D

 39 41  0  0  1  0  0  0  0  0999 V2000
  160.9470  207.2350  150.0970 C   0  0  2  0  0  3  0  0  0  0  0  0
  160.9020  208.5750  153.3680 C   0  0  0  0  0  0  0  0  0  0  0  0
  161.6640  210.9180  150.9150 C   0  0  0  0  0  2  0  0  0  0  0  0
  161.7130  207.2000  151.4170 C   0  0  2  0  0  3  0  0  0  0  0  0
  160.9450  211.7080  156.1820 N   0  0  0  0  0  1  0  0  0  0  0  0
  163.8420  210.3570  152.0260 C   0  0  0  0  0  1  0  0  0  0  0  0
  161.6630  209.7420  153.1040 C   0  0  0  0  0  0  0  0  0  0  0  0
  161.6630  210.7850  154.0420 C   0  0  0  0  0  3  0  0  0  0  0  0
  161.9380  205.6900  151.2370 C   0  0  2  0  0  3  0  0  0  0  0  0
  159.4110  207.3430  154.8760 N   0  0  0  0  0  1  0  0  0  0  0  0
  161.0170  209.5130  148.9680 C   0  0  0  0  0  2  0  0  0  0  0  0
  161.9550  210.6240  149.4460 C   0  0  1  0  0  3  0  0  0  0  0  0
  160.2160  209.5310  155.4590 N   0  0  0  0  0  0  0  0  0  0  0  0
  160.8160  207.4780  152.4930 O   0  0  0  0  0  0  0  0  0  0  0  0
  163.0190  208.1200  149.1190 O   0  0  0  0  0  1  0  0  0  0  0  0
  161.1430  205.7190  149.9380 C   0  0  2  0  0  3  0  0  0  0  0  0
  160.9350  210.6580  155.2230 C   0  0  0  0  0  0  0  0  0  0  0  0
  160.1800  208.5050  154.5700 C   0  0  0  0  0  0  0  0  0  0  0  0
  161.6200  208.1060  149.0180 C   0  0  1  0  0  3  0  0  0  0  0  0
  162.3970  209.9340  151.8100 C   0  0  1  0  0  3  0  0  0  0  0  0
  161.2870  204.8390  152.2960 C   0  0  0  0  0  0  0  0  0  0  0  0
  161.4670  205.0770  153.5220 O   0  0  0  0  0  0  0  0  0  0  0  0
  160.5140  203.7490  151.9080 O   0  0  0  0  0  0  0  0  0  0  0  0
  161.0890  202.5790  151.6020 O   0  0  0  0  0  1  0  0  0  0  0  0
  161.7710  211.8900  148.5900 C   0  0  1  0  0  3  0  0  0  0  0  0
  163.2120  213.8620  147.8890 C   0  0  0  0  0  1  0  0  0  0  0  0
  163.0800  212.3460  147.9320 C   0  0  0  0  0  2  0  0  0  0  0  0
  160.7010  211.7060  147.5150 C   0  0  0  0  0  2  0  0  0  0  0  0
  160.2480  212.9460  147.0550 O   0  0  0  0  0  0  0  0  0  0  0  0
  159.4990  213.4590  148.1150 C   0  0  0  0  0  2  0  0  0  0  0  0
  158.0540  213.0050  147.9980 C   0  0  1  0  0  3  0  0  0  0  0  0
  157.8850  213.2240  150.3850 O   0  0  0  0  0  1  0  0  0  0  0  0
  157.3170  213.3250  149.2640 C   0  0  0  0  0  0  0  0  0  0  0  0
  155.9920  213.7450  149.2030 O   0  0  0  0  0  0  0  0  0  0  0  0
  157.4500  213.6240  146.8980 O   0  0  0  0  0  0  0  0  0  0  0  0
  157.0820  212.5740  146.0540 C   0  0  0  0  0  1  0  0  0  0  0  0
  162.0170  205.2840  148.7630 C   0  0  0  0  0  2  0  0  0  0  0  0
  161.2050  204.4870  147.7540 C   0  0  0  0  0  2  0  0  0  0  0  0
  161.5800  203.1430  147.7950 O   0  0  0  0  0  1  0  0  0  0  0  0
  1  4  1  0  0  0  0
  2 18  1  0  0  0  0
  3 20  1  0  0  0  0
  4 14  1  0  0  0  0
  7  2  2  0  0  0  0
  7  8  1  0  0  0  0
  8 17  2  0  0  0  0
  9  4  1  0  0  0  0
  9 21  1  0  0  0  0
 11 19  1  0  0  0  0
 11 12  1  0  0  0  0
 12  3  1  0  0  0  0
 14  2  1  0  0  0  0
 16  1  1  0  0  0  0
 16  9  1  0  0  0  0
 17 13  1  0  0  0  0
 17  5  1  0  0  0  0
 18 10  1  0  0  0  0
 18 13  2  0  0  0  0
 19 15  1  0  0  0  0
 19  1  1  0  0  0  0
 20  6  1  0  0  0  0
 20  7  1  0  0  0  0
 21 22  2  0  0  0  0
 23 21  1  0  0  0  0
 24 23  1  0  0  0  0
 25 12  1  0  0  0  0
 26 27  1  0  0  0  0
 27 25  1  0  0  0  0
 28 25  1  0  0  0  0
 29 28  1  0  0  0  0
 29 30  1  0  0  0  0
 31 30  1  0  0  0  0
 31 33  1  0  0  0  0
 33 32  1  0  0  0  0
 34 33  2  0  0  0  0
 35 31  1  0  0  0  0
 36 35  1  0  0  0  0
 37 16  1  0  0  0  0
 38 39  1  0  0  0  0
 38 37  1  0  0  0  0
M  END
>  <MODEL>
7

>  <REMARK>
 VINA RESULT:      -3.2      3.319      7.216
  Name = 
  12 active torsions:
  status: ('A' for Active; 'I' for Inactive)
    1  A    between atoms: C_1  and  C_34
    2  A    between atoms: O_5  and  C_9
    3  A    between atoms: O_5  and  C_18
    4  A    between atoms: C_7  and  O_10
    5  A    between atoms: C_7  and  C_20
    6  A    between atoms: C_9  and  C_12
    7  A    between atoms: C_12  and  C_24
    8  A    between atoms: C_12  and  C_29
    9  A    between atoms: C_13  and  C_38
   10  A    between atoms: O_17  and  C_38
   11  A    between atoms: C_18  and  C_38
   12  A    between atoms: C_28  and  C_34
                            x       y       z     vdW  Elec       q    Type
                         _______ _______ _______ _____ _____    ______ ____

>  <TORSDO>
F 12

$$$$
=
 OpenBabel11072415123D

 39 41  0  0  1  0  0  0  0  0999 V2000
  160.9040  207.3810  150.2290 C   0  0  2  0  0  3  0  0  0  0  0  0
  160.8640  208.5110  153.5780 C   0  0  0  0  0  0  0  0  0  0  0  0
  161.6620  210.9960  151.2820 C   0  0  0  0  0  2  0  0  0  0  0  0
  161.6640  207.2530  151.5460 C   0  0  2  0  0  3  0  0  0  0  0  0
  160.9350  211.4570  156.5860 N   0  0  0  0  0  1  0  0  0  0  0  0
  163.8290  210.3390  152.3610 C   0  0  0  0  0  1  0  0  0  0  0  0
  161.6400  209.6830  153.3910 C   0  0  0  0  0  0  0  0  0  0  0  0
  161.6480  210.6640  154.3940 C   0  0  0  0  0  3  0  0  0  0  0  0
  161.8720  205.7550  151.2710 C   0  0  2  0  0  3  0  0  0  0  0  0
  159.3520  207.2040  155.0010 N   0  0  0  0  0  1  0  0  0  0  0  0
  161.0050  209.7250  149.2480 C   0  0  0  0  0  2  0  0  0  0  0  0
  161.9540  210.7920  149.7980 C   0  0  1  0  0  3  0  0  0  0  0  0
  160.1820  209.3400  155.7250 N   0  0  0  0  0  0  0  0  0  0  0  0
  160.7670  207.4730  152.6350 O   0  0  0  0  0  0  0  0  0  0  0  0
  162.9900  208.3010  149.3150 O   0  0  0  0  0  1  0  0  0  0  0  0
  161.0820  205.8760  149.9740 C   0  0  2  0  0  3  0  0  0  0  0  0
  160.9150  210.4710  155.5630 C   0  0  0  0  0  0  0  0  0  0  0  0
  160.1360  208.3730  154.7720 C   0  0  0  0  0  0  0  0  0  0  0  0
  161.5910  208.3110  149.2100 C   0  0  1  0  0  3  0  0  0  0  0  0
  162.3800  209.9480  152.1150 C   0  0  1  0  0  3  0  0  0  0  0  0
  161.2070  204.8460  152.2720 C   0  0  0  0  0  0  0  0  0  0  0  0
  161.2690  205.0870  153.5090 O   0  0  0  0  0  0  0  0  0  0  0  0
  160.5550  203.7030  151.8200 O   0  0  0  0  0  0  0  0  0  0  0  0
  161.2160  202.5440  151.6960 O   0  0  0  0  0  1  0  0  0  0  0  0
  161.7900  212.1120  149.0230 C   0  0  1  0  0  3  0  0  0  0  0  0
  160.8960  212.6050  146.6960 C   0  0  0  0  0  1  0  0  0  0  0  0
  161.9910  211.9330  147.5140 C   0  0  0  0  0  2  0  0  0  0  0  0
  160.4310  212.7630  149.2810 C   0  0  0  0  0  2  0  0  0  0  0  0
  160.5720  213.8890  150.0960 O   0  0  0  0  0  0  0  0  0  0  0  0
  159.2970  214.4530  150.1360 C   0  0  0  0  0  2  0  0  0  0  0  0
  158.2870  213.4230  150.6120 C   0  0  1  0  0  3  0  0  0  0  0  0
  157.1590  213.7080  152.7150 O   0  0  0  0  0  0  0  0  0  0  0  0
  158.2270  213.4250  152.1100 C   0  0  0  0  0  0  0  0  0  0  0  0
  159.3640  213.1020  152.8450 O   0  0  0  0  0  1  0  0  0  0  0  0
  157.0310  213.7000  150.0610 O   0  0  0  0  0  0  0  0  0  0  0  0
  157.0880  213.1850  148.7640 C   0  0  0  0  0  1  0  0  0  0  0  0
  161.9550  205.5060  148.7770 C   0  0  0  0  0  2  0  0  0  0  0  0
  161.2340  204.5210  147.8690 C   0  0  0  0  0  2  0  0  0  0  0  0
  161.2230  203.2540  148.4530 O   0  0  0  0  0  1  0  0  0  0  0  0
  1  4  1  0  0  0  0
  2 18  1  0  0  0  0
  3 20  1  0  0  0  0
  4 14  1  0  0  0  0
  7  2  2  0  0  0  0
  7  8  1  0  0  0  0
  8 17  2  0  0  0  0
  9  4  1  0  0  0  0
  9 21  1  0  0  0  0
 11 12  1  0  0  0  0
 12  3  1  0  0  0  0
 14  2  1  0  0  0  0
 16  1  1  0  0  0  0
 16  9  1  0  0  0  0
 17 13  1  0  0  0  0
 17  5  1  0  0  0  0
 18 10  1  0  0  0  0
 18 13  2  0  0  0  0
 19 11  1  0  0  0  0
 19 15  1  0  0  0  0
 19  1  1  0  0  0  0
 20  6  1  0  0  0  0
 20  7  1  0  0  0  0
 21 22  2  0  0  0  0
 23 21  1  0  0  0  0
 24 23  1  0  0  0  0
 25 28  1  0  0  0  0
 25 12  1  0  0  0  0
 26 27  1  0  0  0  0
 27 25  1  0  0  0  0
 28 29  1  0  0  0  0
 29 30  1  0  0  0  0
 30 31  1  0  0  0  0
 31 33  1  0  0  0  0
 33 32  2  0  0  0  0
 33 34  1  0  0  0  0
 35 31  1  0  0  0  0
 36 35  1  0  0  0  0
 37 16  1  0  0  0  0
 38 39  1  0  0  0  0
 38 37  1  0  0  0  0
M  END
>  <MODEL>
8

>  <REMARK>
 VINA RESULT:      -2.8      2.884      7.527
  Name = 
  12 active torsions:
  status: ('A' for Active; 'I' for Inactive)
    1  A    between atoms: C_1  and  C_34
    2  A    between atoms: O_5  and  C_9
    3  A    between atoms: O_5  and  C_18
    4  A    between atoms: C_7  and  O_10
    5  A    between atoms: C_7  and  C_20
    6  A    between atoms: C_9  and  C_12
    7  A    between atoms: C_12  and  C_24
    8  A    between atoms: C_12  and  C_29
    9  A    between atoms: C_13  and  C_38
   10  A    between atoms: O_17  and  C_38
   11  A    between atoms: C_18  and  C_38
   12  A    between atoms: C_28  and  C_34
                            x       y       z     vdW  Elec       q    Type
                         _______ _______ _______ _____ _____    ______ ____

>  <TORSDO>
F 12

$$$$
=
 OpenBabel11072415123D

 39 41  0  0  1  0  0  0  0  0999 V2000
  162.4190  209.1940  149.8830 C   0  0  2  0  0  3  0  0  0  0  0  0
  161.3090  206.4980  151.8820 C   0  0  0  0  0  0  0  0  0  0  0  0
  161.8010  205.6470  148.5480 C   0  0  0  0  0  2  0  0  0  0  0  0
  161.1980  208.6950  150.6510 C   0  0  2  0  0  3  0  0  0  0  0  0
  160.4720  202.4440  152.6530 N   0  0  0  0  0  1  0  0  0  0  0  0
  159.3190  205.8540  148.8430 C   0  0  0  0  0  1  0  0  0  0  0  0
  160.8300  205.6710  150.8350 C   0  0  0  0  0  0  0  0  0  0  0  0
  160.5640  204.3190  151.0980 C   0  0  0  0  0  3  0  0  0  0  0  0
  160.9150  210.1310  151.1200 C   0  0  2  0  0  3  0  0  0  0  0  0
  161.9620  206.7310  154.2350 N   0  0  0  0  0  1  0  0  0  0  0  0
  163.0190  207.7160  147.9020 C   0  0  0  0  0  2  0  0  0  0  0  0
  162.0820  206.6140  147.4020 C   0  0  1  0  0  3  0  0  0  0  0  0
  161.2100  204.6180  153.3710 N   0  0  0  0  0  0  0  0  0  0  0  0
  161.6240  207.8600  151.7280 O   0  0  0  0  0  0  0  0  0  0  0  0
  160.9930  209.0820  147.8870 O   0  0  0  0  0  1  0  0  0  0  0  0
  162.1540  210.6230  150.3820 C   0  0  2  0  0  3  0  0  0  0  0  0
  160.7540  203.8100  152.3810 C   0  0  0  0  0  0  0  0  0  0  0  0
  161.4920  205.9290  153.1540 C   0  0  0  0  0  0  0  0  0  0  0  0
  162.3100  208.9950  148.3590 C   0  0  1  0  0  3  0  0  0  0  0  0
  160.6840  206.1760  149.4310 C   0  0  1  0  0  3  0  0  0  0  0  0
  161.0130  210.3240  152.6100 C   0  0  0  0  0  0  0  0  0  0  0  0
  159.9810  210.5300  153.3080 O   0  0  0  0  0  0  0  0  0  0  0  0
  162.2670  210.3190  153.2130 O   0  0  0  0  0  0  0  0  0  0  0  0
  162.3930  210.5330  154.5290 O   0  0  0  0  0  1  0  0  0  0  0  0
  162.7080  205.8760  146.2050 C   0  0  1  0  0  3  0  0  0  0  0  0
  164.1940  203.9540  145.4600 C   0  0  0  0  0  1  0  0  0  0  0  0
  163.5030  204.6360  146.6340 C   0  0  0  0  0  2  0  0  0  0  0  0
  161.6610  205.4740  145.1670 C   0  0  0  0  0  2  0  0  0  0  0  0
  160.6700  204.6810  145.7510 O   0  0  0  0  0  0  0  0  0  0  0  0
  160.8630  203.4150  145.1960 C   0  0  0  0  0  2  0  0  0  0  0  0
  160.4990  202.3420  146.2090 C   0  0  1  0  0  3  0  0  0  0  0  0
  159.7530  200.8170  144.5070 O   0  0  0  0  0  0  0  0  0  0  0  0
  160.4570  201.0030  145.5360 C   0  0  0  0  0  0  0  0  0  0  0  0
  161.2100  199.9510  146.0490 O   0  0  0  0  0  1  0  0  0  0  0  0
  161.4230  202.3470  147.2590 O   0  0  0  0  0  0  0  0  0  0  0  0
  160.6640  202.1030  148.4050 C   0  0  0  0  0  1  0  0  0  0  0  0
  161.7730  211.6400  149.3080 C   0  0  0  0  0  2  0  0  0  0  0  0
  163.0120  212.3050  148.7320 C   0  0  0  0  0  2  0  0  0  0  0  0
  162.8590  212.4910  147.3570 O   0  0  0  0  0  1  0  0  0  0  0  0
  1 16  1  0  0  0  0
  1  4  1  0  0  0  0
  2 18  1  0  0  0  0
  3 20  1  0  0  0  0
  4  9  1  0  0  0  0
  4 14  1  0  0  0  0
  6 20  1  0  0  0  0
  7  8  1  0  0  0  0
  7  2  2  0  0  0  0
  8 17  2  0  0  0  0
  9 21  1  0  0  0  0
 11 19  1  0  0  0  0
 12 11  1  0  0  0  0
 12  3  1  0  0  0  0
 14  2  1  0  0  0  0
 15 19  1  0  0  0  0
 16  9  1  0  0  0  0
 17  5  1  0  0  0  0
 17 13  1  0  0  0  0
 18 13  2  0  0  0  0
 18 10  1  0  0  0  0
 19  1  1  0  0  0  0
 20  7  1  0  0  0  0
 21 23  1  0  0  0  0
 21 22  2  0  0  0  0
 23 24  1  0  0  0  0
 25 27  1  0  0  0  0
 25 12  1  0  0  0  0
 26 27  1  0  0  0  0
 28 29  1  0  0  0  0
 28 25  1  0  0  0  0
 30 29  1  0  0  0  0
 30 31  1  0  0  0  0
 31 35  1  0  0  0  0
 32 33  2  0  0  0  0
 33 34  1  0  0  0  0
 33 31  1  0  0  0  0
 35 36  1  0  0  0  0
 37 16  1  0  0  0  0
 38 37  1  0  0  0  0
 39 38  1  0  0  0  0
M  END
>  <MODEL>
9

>  <REMARK>
 VINA RESULT:      -2.0      3.442      6.221
  Name = 
  12 active torsions:
  status: ('A' for Active; 'I' for Inactive)
    1  A    between atoms: C_1  and  C_34
    2  A    between atoms: O_5  and  C_9
    3  A    between atoms: O_5  and  C_18
    4  A    between atoms: C_7  and  O_10
    5  A    between atoms: C_7  and  C_20
    6  A    between atoms: C_9  and  C_12
    7  A    between atoms: C_12  and  C_24
    8  A    between atoms: C_12  and  C_29
    9  A    between atoms: C_13  and  C_38
   10  A    between atoms: O_17  and  C_38
   11  A    between atoms: C_18  and  C_38
   12  A    between atoms: C_28  and  C_34
                            x       y       z     vdW  Elec       q    Type
                         _______ _______ _______ _____ _____    ______ ____

>  <TORSDO>
F 12

$$$$
