=
 OpenBabel11072411203D

 42 47  0  0  1  0  0  0  0  0999 V2000
  161.3680  207.1080  150.3910 C   0  0  0  0  0  0  0  0  0  0  0  0
  161.8000  205.3500  148.9090 C   0  0  0  0  0  3  0  0  0  0  0  0
  161.1910  206.7880  152.7440 C   0  0  0  0  0  0  0  0  0  0  0  0
  161.4260  205.4130  152.5680 C   0  0  0  0  0  3  0  0  0  0  0  0
  160.8490  209.0500  151.9760 C   0  0  0  0  0  2  0  0  0  0  0  0
  160.2770  209.0530  153.4000 C   0  0  1  0  0  3  0  0  0  0  0  0
  161.3780  207.8660  148.8940 S   0  0  0  0  0  0  0  0  0  0  0  0
  161.6090  205.7520  150.2320 C   0  0  0  0  0  0  0  0  0  0  0  0
  161.6990  206.4410  148.0390 C   0  0  0  0  0  0  0  0  0  0  0  0
  161.1480  207.6360  151.6570 C   0  0  0  0  0  0  0  0  0  0  0  0
  160.8870  207.5720  154.3070 S   0  0  0  0  0  0  0  0  0  0  0  0
  161.6350  204.9180  151.3090 N   0  0  0  0  0  0  0  0  0  0  0  0
  159.0690  211.7820  154.8760 C   0  0  0  0  0  0  0  0  0  0  0  0
  158.0420  212.3220  155.7090 N   0  0  0  0  0  2  0  0  0  0  0  0
  160.6480  210.3370  154.1410 C   0  0  1  0  0  3  0  0  0  0  0  0
  159.5700  212.4700  153.6650 C   0  0  1  0  0  3  0  0  0  0  0  0
  160.6680  211.5330  153.1830 C   0  0  0  0  0  2  0  0  0  0  0  0
  159.6340  210.6550  155.1300 N   0  0  0  0  0  0  0  0  0  0  0  0
  158.5430  212.5340  152.6810 O   0  0  0  0  0  0  0  0  0  0  0  0
  160.0640  213.2930  150.9740 C   0  0  0  0  0  3  0  0  0  0  0  0
  158.7570  213.0070  151.3830 C   0  0  0  0  0  0  0  0  0  0  0  0
  160.3110  213.7730  149.6850 C   0  0  0  0  0  3  0  0  0  0  0  0
  157.6930  213.2100  150.4870 C   0  0  0  0  0  3  0  0  0  0  0  0
  157.9410  213.6900  149.1980 C   0  0  0  0  0  3  0  0  0  0  0  0
  159.4940  214.4520  147.5190 O   0  0  0  0  0  1  0  0  0  0  0  0
  159.2490  213.9720  148.7970 C   0  0  0  0  0  0  0  0  0  0  0  0
  157.5980  211.6550  156.8030 O   0  0  0  0  0  0  0  0  0  0  0  0
  156.3010  211.8910  156.8410 O   0  0  0  0  0  0  0  0  0  0  0  0
  155.2890  210.2750  155.4200 C   0  0  0  0  0  1  0  0  0  0  0  0
  155.8590  211.6750  155.5340 C   0  0  0  0  0  2  0  0  0  0  0  0
  161.7810  205.3620  144.5350 O   0  0  0  0  0  0  0  0  0  0  0  0
  161.6390  205.2460  145.7810 C   0  0  0  0  0  0  0  0  0  0  0  0
  161.8320  206.3960  146.6130 N   0  0  0  0  0  2  0  0  0  0  0  0
  161.2900  203.9770  146.3470 N   0  0  0  0  0  2  0  0  0  0  0  0
  161.1160  202.7770  145.5420 C   0  0  0  0  0  2  0  0  0  0  0  0
  160.8130  201.5890  146.4420 C   0  0  0  0  0  2  0  0  0  0  0  0
  160.7200  202.0230  147.8250 N   0  0  0  0  0  0  0  0  0  0  0  0
  159.5690  201.2230  149.7600 C   0  0  0  0  0  2  0  0  0  0  0  0
  161.6720  201.2250  148.5860 C   0  0  0  0  0  2  0  0  0  0  0  0
  159.4080  201.6330  148.3160 C   0  0  0  0  0  2  0  0  0  0  0  0
  161.6040  201.4480  150.9540 O   0  0  0  0  0  1  0  0  0  0  0  0
  161.0090  200.7910  149.8780 C   0  0  1  0  0  3  0  0  0  0  0  0
  1 10  1  0  0  0  0
  2  8  1  0  0  0  0
  3 11  1  0  0  0  0
  4  3  1  0  0  0  0
  6  5  1  6  0  0  0
  6 15  1  0  0  0  0
  6 11  1  0  0  0  0
  7  1  1  0  0  0  0
  8  1  2  0  0  0  0
  8 12  1  0  0  0  0
  9  7  1  0  0  0  0
  9  2  2  0  0  0  0
 10  5  1  0  0  0  0
 10  3  2  0  0  0  0
 12  4  2  0  0  0  0
 13 18  2  0  0  0  0
 13 14  1  0  0  0  0
 14 27  1  0  0  0  0
 15 17  1  6  0  0  0
 15 18  1  0  0  0  0
 16 19  1  6  0  0  0
 16 13  1  0  0  0  0
 17 16  1  0  0  0  0
 20 21  1  0  0  0  0
 21 19  1  0  0  0  0
 22 20  2  0  0  0  0
 23 21  2  0  0  0  0
 24 23  1  0  0  0  0
 25 26  1  0  0  0  0
 26 24  2  0  0  0  0
 26 22  1  0  0  0  0
 27 28  1  0  0  0  0
 29 30  1  0  0  0  0
 30 28  1  0  0  0  0
 31 32  2  0  0  0  0
 32 34  1  0  0  0  0
 32 33  1  0  0  0  0
 33  9  1  0  0  0  0
 35 34  1  0  0  0  0
 35 36  1  0  0  0  0
 36 37  1  0  0  0  0
 37 40  1  0  0  0  0
 37 39  1  0  0  0  0
 38 42  1  0  0  0  0
 39 42  1  0  0  0  0
 40 38  1  0  0  0  0
 42 41  1  1  0  0  0
M  END
>  <MODEL>
1

>  <REMARK>
 VINA RESULT:      -7.2      0.000      0.000
  Name = 
  10 active torsions:
  status: ('A' for Active; 'I' for Inactive)
    1  A    between atoms: N_3  and  C_15
    2  A    between atoms: C_10  and  C_15
    3  A    between atoms: C_10  and  N_42
    4  A    between atoms: N_11  and  O_17
    5  A    between atoms: C_12  and  O_14
    6  A    between atoms: O_14  and  C_19
    7  A    between atoms: C_16  and  C_32
    8  A    between atoms: O_17  and  O_26
    9  A    between atoms: C_23  and  O_26
   10  A    between atoms: N_28  and  C_36
                            x       y       z     vdW  Elec       q    Type
                         _______ _______ _______ _____ _____    ______ ____

>  <TORSDO>
F 10

$$$$
=
 OpenBabel11072411203D

 42 47  0  0  1  0  0  0  0  0999 V2000
  160.4550  213.1410  149.0010 C   0  0  0  0  0  0  0  0  0  0  0  0
  160.5400  214.0020  146.8270 C   0  0  0  0  0  3  0  0  0  0  0  0
  158.6110  213.5210  150.4610 C   0  0  0  0  0  0  0  0  0  0  0  0
  157.9850  214.2840  149.4600 C   0  0  0  0  0  3  0  0  0  0  0  0
  160.4190  212.2180  151.3890 C   0  0  0  0  0  2  0  0  0  0  0  0
  159.6090  212.6550  152.6170 C   0  0  1  0  0  3  0  0  0  0  0  0
  161.9360  212.5960  148.4330 S   0  0  0  0  0  0  0  0  0  0  0  0
  159.8210  213.8870  148.0180 C   0  0  0  0  0  0  0  0  0  0  0  0
  161.7580  213.3200  146.9140 C   0  0  0  0  0  0  0  0  0  0  0  0
  159.8520  212.9590  150.2400 C   0  0  0  0  0  0  0  0  0  0  0  0
  157.9450  213.2310  152.0790 S   0  0  0  0  0  0  0  0  0  0  0  0
  158.6030  214.4510  148.2490 N   0  0  0  0  0  0  0  0  0  0  0  0
  161.3180  210.5600  154.5600 C   0  0  0  0  0  0  0  0  0  0  0  0
  162.4430  210.3980  155.4250 N   0  0  0  0  0  2  0  0  0  0  0  0
  159.4900  211.5180  153.6310 C   0  0  1  0  0  3  0  0  0  0  0  0
  160.9240  209.5500  153.5520 C   0  0  1  0  0  3  0  0  0  0  0  0
  159.6660  210.1570  152.9500 C   0  0  0  0  0  2  0  0  0  0  0  0
  160.5660  211.6010  154.6040 N   0  0  0  0  0  0  0  0  0  0  0  0
  161.9250  209.4510  152.5440 O   0  0  0  0  0  0  0  0  0  0  0  0
  162.0330  209.2570  150.1450 C   0  0  0  0  0  3  0  0  0  0  0  0
  161.7740  208.6750  151.3910 C   0  0  0  0  0  0  0  0  0  0  0  0
  161.8840  208.5090  148.9740 C   0  0  0  0  0  3  0  0  0  0  0  0
  161.3600  207.3330  151.4540 C   0  0  0  0  0  3  0  0  0  0  0  0
  161.2120  206.5860  150.2820 C   0  0  0  0  0  3  0  0  0  0  0  0
  161.3230  206.4340  147.8780 O   0  0  0  0  0  1  0  0  0  0  0  0
  161.4730  207.1740  149.0420 C   0  0  0  0  0  0  0  0  0  0  0  0
  162.7820  211.3530  156.3260 O   0  0  0  0  0  0  0  0  0  0  0  0
  163.9530  210.9720  156.8000 O   0  0  0  0  0  0  0  0  0  0  0  0
  166.0070  212.1710  156.8290 C   0  0  0  0  0  1  0  0  0  0  0  0
  164.5530  212.1460  157.2600 C   0  0  0  0  0  2  0  0  0  0  0  0
  163.4870  213.1950  143.6820 O   0  0  0  0  0  0  0  0  0  0  0  0
  162.5080  213.2710  144.4720 C   0  0  0  0  0  0  0  0  0  0  0  0
  162.7500  213.2340  145.8830 N   0  0  0  0  0  2  0  0  0  0  0  0
  161.1790  213.3930  143.9540 N   0  0  0  0  0  2  0  0  0  0  0  0
  160.8860  213.4030  142.5290 C   0  0  0  0  0  2  0  0  0  0  0  0
  160.5980  211.9900  142.0480 C   0  0  0  0  0  2  0  0  0  0  0  0
  161.7510  211.4590  141.3420 N   0  0  0  0  0  0  0  0  0  0  0  0
  162.0650  210.2910  139.2820 C   0  0  0  0  0  2  0  0  0  0  0  0
  162.1320  212.4520  140.3450 C   0  0  0  0  0  2  0  0  0  0  0  0
  161.3040  210.3010  140.5850 C   0  0  0  0  0  2  0  0  0  0  0  0
  163.8150  211.8120  138.7890 O   0  0  0  0  0  1  0  0  0  0  0  0
  162.4470  211.7310  139.0490 C   0  0  1  0  0  3  0  0  0  0  0  0
  1 10  1  0  0  0  0
  2  9  2  0  0  0  0
  2  8  1  0  0  0  0
  3 11  1  0  0  0  0
  4  3  1  0  0  0  0
  6  5  1  6  0  0  0
  6 15  1  0  0  0  0
  7  1  1  0  0  0  0
  8 12  1  0  0  0  0
  8  1  2  0  0  0  0
  9  7  1  0  0  0  0
 10  3  2  0  0  0  0
 10  5  1  0  0  0  0
 11  6  1  0  0  0  0
 12  4  2  0  0  0  0
 13 18  2  0  0  0  0
 13 14  1  0  0  0  0
 14 27  1  0  0  0  0
 15 17  1  6  0  0  0
 15 18  1  0  0  0  0
 16 19  1  6  0  0  0
 16 13  1  0  0  0  0
 17 16  1  0  0  0  0
 20 21  1  0  0  0  0
 21 23  2  0  0  0  0
 21 19  1  0  0  0  0
 22 26  1  0  0  0  0
 22 20  2  0  0  0  0
 24 23  1  0  0  0  0
 25 26  1  0  0  0  0
 26 24  2  0  0  0  0
 27 28  1  0  0  0  0
 28 30  1  0  0  0  0
 29 30  1  0  0  0  0
 31 32  2  0  0  0  0
 32 33  1  0  0  0  0
 33  9  1  0  0  0  0
 34 32  1  0  0  0  0
 35 34  1  0  0  0  0
 36 35  1  0  0  0  0
 37 36  1  0  0  0  0
 38 40  1  0  0  0  0
 39 37  1  0  0  0  0
 40 37  1  0  0  0  0
 42 41  1  1  0  0  0
 42 38  1  0  0  0  0
 42 39  1  0  0  0  0
M  END
>  <MODEL>
2

>  <REMARK>
 VINA RESULT:      -7.1      4.951      8.431
  Name = 
  10 active torsions:
  status: ('A' for Active; 'I' for Inactive)
    1  A    between atoms: N_3  and  C_15
    2  A    between atoms: C_10  and  C_15
    3  A    between atoms: C_10  and  N_42
    4  A    between atoms: N_11  and  O_17
    5  A    between atoms: C_12  and  O_14
    6  A    between atoms: O_14  and  C_19
    7  A    between atoms: C_16  and  C_32
    8  A    between atoms: O_17  and  O_26
    9  A    between atoms: C_23  and  O_26
   10  A    between atoms: N_28  and  C_36
                            x       y       z     vdW  Elec       q    Type
                         _______ _______ _______ _____ _____    ______ ____

>  <TORSDO>
F 10

$$$$
=
 OpenBabel11072411203D

 42 47  0  0  1  0  0  0  0  0999 V2000
  161.0470  203.7190  150.1800 C   0  0  0  0  0  0  0  0  0  0  0  0
  160.7350  201.4490  149.7050 C   0  0  0  0  0  3  0  0  0  0  0  0
  161.1610  204.5610  152.4050 C   0  0  0  0  0  0  0  0  0  0  0  0
  160.9730  203.2580  152.9000 C   0  0  0  0  0  3  0  0  0  0  0  0
  161.3450  206.2160  150.6580 C   0  0  0  0  0  2  0  0  0  0  0  0
  161.0280  207.0380  151.9150 C   0  0  1  0  0  3  0  0  0  0  0  0
  161.0330  203.6790  148.5020 S   0  0  0  0  0  0  0  0  0  0  0  0
  160.8730  202.4370  150.6810 C   0  0  0  0  0  0  0  0  0  0  0  0
  160.8060  202.0040  148.4230 C   0  0  0  0  0  0  0  0  0  0  0  0
  161.1850  204.7970  151.0460 C   0  0  0  0  0  0  0  0  0  0  0  0
  161.3360  206.0110  153.4110 S   0  0  0  0  0  0  0  0  0  0  0  0
  160.8350  202.2140  152.0240 N   0  0  0  0  0  0  0  0  0  0  0  0
  161.4870  209.9200  153.5170 C   0  0  0  0  0  0  0  0  0  0  0  0
  161.5260  210.5780  154.7840 N   0  0  0  0  0  2  0  0  0  0  0  0
  161.8530  208.3230  151.9560 C   0  0  1  0  0  3  0  0  0  0  0  0
  160.8390  210.5090  152.3230 C   0  0  1  0  0  3  0  0  0  0  0  0
  161.1180  209.4670  151.2490 C   0  0  0  0  0  2  0  0  0  0  0  0
  162.0220  208.7660  153.3280 N   0  0  0  0  0  0  0  0  0  0  0  0
  159.4340  210.6050  152.5290 O   0  0  0  0  0  0  0  0  0  0  0  0
  158.0570  211.1870  154.4190 C   0  0  0  0  0  3  0  0  0  0  0  0
  158.8460  211.5850  153.3340 C   0  0  0  0  0  0  0  0  0  0  0  0
  157.4500  212.1430  155.2380 C   0  0  0  0  0  3  0  0  0  0  0  0
  159.0200  212.9560  153.0730 C   0  0  0  0  0  3  0  0  0  0  0  0
  158.4130  213.9110  153.8930 C   0  0  0  0  0  3  0  0  0  0  0  0
  157.0230  214.4530  155.7870 O   0  0  0  0  0  1  0  0  0  0  0  0
  157.6280  213.5050  154.9750 C   0  0  0  0  0  0  0  0  0  0  0  0
  162.1160  210.0000  155.8600 O   0  0  0  0  0  0  0  0  0  0  0  0
  161.1160  209.5700  156.6060 O   0  0  0  0  0  0  0  0  0  0  0  0
  160.1130  207.4140  156.6270 C   0  0  0  0  0  1  0  0  0  0  0  0
  161.3850  208.2160  156.8200 C   0  0  0  0  0  2  0  0  0  0  0  0
  160.4880  201.1000  144.8830 O   0  0  0  0  0  0  0  0  0  0  0  0
  160.5650  201.8620  145.8830 C   0  0  0  0  0  0  0  0  0  0  0  0
  160.6950  201.2850  147.1880 N   0  0  0  0  0  2  0  0  0  0  0  0
  160.5200  203.2830  145.7060 N   0  0  0  0  0  2  0  0  0  0  0  0
  160.3570  203.9090  144.4020 C   0  0  0  0  0  2  0  0  0  0  0  0
  161.5900  204.7310  144.0630 C   0  0  0  0  0  2  0  0  0  0  0  0
  161.5840  205.9720  144.8190 N   0  0  0  0  0  0  0  0  0  0  0  0
  160.4570  206.7330  146.7830 C   0  0  0  0  0  2  0  0  0  0  0  0
  162.5060  205.7940  145.9330 C   0  0  0  0  0  2  0  0  0  0  0  0
  160.2680  206.1080  145.4230 C   0  0  0  0  0  2  0  0  0  0  0  0
  162.5490  207.5210  147.5710 O   0  0  0  0  0  1  0  0  0  0  0  0
  161.8650  206.3700  147.1810 C   0  0  1  0  0  3  0  0  0  0  0  0
  1  8  2  0  0  0  0
  1 10  1  0  0  0  0
  2  8  1  0  0  0  0
  3  4  1  0  0  0  0
  3 11  1  0  0  0  0
  5 10  1  0  0  0  0
  6  5  1  6  0  0  0
  6 15  1  0  0  0  0
  6 11  1  0  0  0  0
  7  1  1  0  0  0  0
  8 12  1  0  0  0  0
  9  7  1  0  0  0  0
  9  2  2  0  0  0  0
 10  3  2  0  0  0  0
 12  4  2  0  0  0  0
 13 14  1  0  0  0  0
 14 27  1  0  0  0  0
 15 17  1  6  0  0  0
 15 18  1  0  0  0  0
 16 19  1  1  0  0  0
 16 13  1  0  0  0  0
 17 16  1  0  0  0  0
 18 13  2  0  0  0  0
 19 21  1  0  0  0  0
 20 22  1  0  0  0  0
 21 20  2  0  0  0  0
 23 21  1  0  0  0  0
 23 24  2  0  0  0  0
 24 26  1  0  0  0  0
 26 22  2  0  0  0  0
 26 25  1  0  0  0  0
 27 28  1  0  0  0  0
 28 30  1  0  0  0  0
 29 30  1  0  0  0  0
 31 32  2  0  0  0  0
 32 33  1  0  0  0  0
 33  9  1  0  0  0  0
 34 32  1  0  0  0  0
 35 34  1  0  0  0  0
 36 35  1  0  0  0  0
 36 37  1  0  0  0  0
 37 40  1  0  0  0  0
 37 39  1  0  0  0  0
 38 42  1  0  0  0  0
 39 42  1  0  0  0  0
 40 38  1  0  0  0  0
 42 41  1  6  0  0  0
M  END
>  <MODEL>
3

>  <REMARK>
 VINA RESULT:      -7.0      2.549      4.452
  Name = 
  10 active torsions:
  status: ('A' for Active; 'I' for Inactive)
    1  A    between atoms: N_3  and  C_15
    2  A    between atoms: C_10  and  C_15
    3  A    between atoms: C_10  and  N_42
    4  A    between atoms: N_11  and  O_17
    5  A    between atoms: C_12  and  O_14
    6  A    between atoms: O_14  and  C_19
    7  A    between atoms: C_16  and  C_32
    8  A    between atoms: O_17  and  O_26
    9  A    between atoms: C_23  and  O_26
   10  A    between atoms: N_28  and  C_36
                            x       y       z     vdW  Elec       q    Type
                         _______ _______ _______ _____ _____    ______ ____

>  <TORSDO>
F 10

$$$$
=
 OpenBabel11072411203D

 42 47  0  0  1  0  0  0  0  0999 V2000
  160.1810  209.3510  154.0430 C   0  0  0  0  0  0  0  0  0  0  0  0
  160.9560  207.3550  154.9870 C   0  0  0  0  0  3  0  0  0  0  0  0
  159.1590  211.0700  155.3370 C   0  0  0  0  0  0  0  0  0  0  0  0
  159.3230  210.2870  156.4930 C   0  0  0  0  0  3  0  0  0  0  0  0
  159.3030  211.5010  152.9670 C   0  0  0  0  0  2  0  0  0  0  0  0
  158.2690  212.5190  153.4660 C   0  0  1  0  0  3  0  0  0  0  0  0
  160.7830  208.5120  152.7200 S   0  0  0  0  0  0  0  0  0  0  0  0
  160.3460  208.5930  155.1930 C   0  0  0  0  0  0  0  0  0  0  0  0
  161.2620  207.1710  153.6340 C   0  0  0  0  0  0  0  0  0  0  0  0
  159.5740  210.5990  154.1080 C   0  0  0  0  0  0  0  0  0  0  0  0
  158.3910  212.6680  155.2960 S   0  0  0  0  0  0  0  0  0  0  0  0
  159.9190  209.0580  156.4000 N   0  0  0  0  0  0  0  0  0  0  0  0
  158.0170  214.1890  150.5960 C   0  0  0  0  0  0  0  0  0  0  0  0
  157.2510  214.3950  149.4090 N   0  0  0  0  0  2  0  0  0  0  0  0
  158.4630  213.8770  152.7930 C   0  0  1  0  0  3  0  0  0  0  0  0
  159.4960  214.1060  150.5980 C   0  0  1  0  0  3  0  0  0  0  0  0
  159.8150  213.9430  152.0760 C   0  0  0  0  0  2  0  0  0  0  0  0
  157.4680  214.0670  151.7520 N   0  0  0  0  0  0  0  0  0  0  0  0
  159.9180  212.9410  149.8960 O   0  0  0  0  0  0  0  0  0  0  0  0
  159.9240  212.7130  147.4980 C   0  0  0  0  0  3  0  0  0  0  0  0
  160.6120  212.9900  148.6840 C   0  0  0  0  0  0  0  0  0  0  0  0
  160.5920  212.7480  146.2700 C   0  0  0  0  0  3  0  0  0  0  0  0
  161.9830  213.3010  148.6300 C   0  0  0  0  0  3  0  0  0  0  0  0
  162.6490  213.3360  147.4020 C   0  0  0  0  0  3  0  0  0  0  0  0
  162.6160  213.0900  145.0040 O   0  0  0  0  0  1  0  0  0  0  0  0
  161.9540  213.0580  146.2230 C   0  0  0  0  0  0  0  0  0  0  0  0
  155.8970  214.4510  149.4450 O   0  0  0  0  0  0  0  0  0  0  0  0
  155.5200  214.3590  148.1830 O   0  0  0  0  0  0  0  0  0  0  0  0
  156.4190  214.1290  145.9940 C   0  0  0  0  0  1  0  0  0  0  0  0
  156.7040  214.4490  147.4480 C   0  0  0  0  0  2  0  0  0  0  0  0
  162.3690  204.5300  151.3440 O   0  0  0  0  0  0  0  0  0  0  0  0
  161.7480  205.5640  151.7090 C   0  0  0  0  0  0  0  0  0  0  0  0
  161.8850  206.0150  153.0610 N   0  0  0  0  0  2  0  0  0  0  0  0
  160.9210  206.2680  150.7760 N   0  0  0  0  0  2  0  0  0  0  0  0
  160.7300  205.8260  149.4030 C   0  0  0  0  0  2  0  0  0  0  0  0
  161.7270  206.5230  148.4900 C   0  0  0  0  0  2  0  0  0  0  0  0
  162.1310  205.6270  147.4200 N   0  0  0  0  0  0  0  0  0  0  0  0
  160.9790  204.1140  145.9740 C   0  0  0  0  0  2  0  0  0  0  0  0
  161.8990  206.3320  146.1660 C   0  0  0  0  0  2  0  0  0  0  0  0
  161.2020  204.5080  147.4130 C   0  0  0  0  0  2  0  0  0  0  0  0
  162.1720  205.0740  144.1650 O   0  0  0  0  0  1  0  0  0  0  0  0
  161.2660  205.3660  145.1840 C   0  0  1  0  0  3  0  0  0  0  0  0
  1 10  2  0  0  0  0
  1  8  1  0  0  0  0
  2  8  1  0  0  0  0
  3  4  2  0  0  0  0
  5 10  1  0  0  0  0
  6  5  1  6  0  0  0
  6 11  1  0  0  0  0
  7  9  1  0  0  0  0
  7  1  1  0  0  0  0
  8 12  2  0  0  0  0
  9  2  2  0  0  0  0
 10  3  1  0  0  0  0
 11  3  1  0  0  0  0
 12  4  1  0  0  0  0
 13 16  1  0  0  0  0
 13 18  2  0  0  0  0
 14 27  1  0  0  0  0
 14 13  1  0  0  0  0
 15 17  1  6  0  0  0
 15  6  1  0  0  0  0
 16 19  1  6  0  0  0
 16 17  1  0  0  0  0
 18 15  1  0  0  0  0
 20 21  1  0  0  0  0
 21 19  1  0  0  0  0
 22 20  2  0  0  0  0
 23 21  2  0  0  0  0
 24 23  1  0  0  0  0
 25 26  1  0  0  0  0
 26 22  1  0  0  0  0
 26 24  2  0  0  0  0
 28 27  1  0  0  0  0
 29 30  1  0  0  0  0
 30 28  1  0  0  0  0
 31 32  2  0  0  0  0
 32 33  1  0  0  0  0
 33  9  1  0  0  0  0
 34 32  1  0  0  0  0
 35 34  1  0  0  0  0
 36 35  1  0  0  0  0
 37 36  1  0  0  0  0
 38 40  1  0  0  0  0
 39 37  1  0  0  0  0
 40 37  1  0  0  0  0
 42 41  1  6  0  0  0
 42 38  1  0  0  0  0
 42 39  1  0  0  0  0
M  END
>  <MODEL>
4

>  <REMARK>
 VINA RESULT:      -6.9      2.842      5.596
  Name = 
  10 active torsions:
  status: ('A' for Active; 'I' for Inactive)
    1  A    between atoms: N_3  and  C_15
    2  A    between atoms: C_10  and  C_15
    3  A    between atoms: C_10  and  N_42
    4  A    between atoms: N_11  and  O_17
    5  A    between atoms: C_12  and  O_14
    6  A    between atoms: O_14  and  C_19
    7  A    between atoms: C_16  and  C_32
    8  A    between atoms: O_17  and  O_26
    9  A    between atoms: C_23  and  O_26
   10  A    between atoms: N_28  and  C_36
                            x       y       z     vdW  Elec       q    Type
                         _______ _______ _______ _____ _____    ______ ____

>  <TORSDO>
F 10

$$$$
=
 OpenBabel11072411203D

 42 47  0  0  1  0  0  0  0  0999 V2000
  161.3560  208.7330  151.4950 C   0  0  0  0  0  0  0  0  0  0  0  0
  161.2700  206.5500  152.3330 C   0  0  0  0  0  3  0  0  0  0  0  0
  161.9560  209.2200  149.2420 C   0  0  0  0  0  0  0  0  0  0  0  0
  162.1270  207.8460  148.9980 C   0  0  0  0  0  3  0  0  0  0  0  0
  161.4810  211.1380  150.6270 C   0  0  0  0  0  2  0  0  0  0  0  0
  162.2230  211.7280  149.4200 C   0  0  1  0  0  3  0  0  0  0  0  0
  160.9020  208.9570  153.0950 S   0  0  0  0  0  0  0  0  0  0  0  0
  161.5180  207.3800  151.2380 C   0  0  0  0  0  0  0  0  0  0  0  0
  160.9100  207.3030  153.4550 C   0  0  0  0  0  0  0  0  0  0  0  0
  161.5840  209.6680  150.4920 C   0  0  0  0  0  0  0  0  0  0  0  0
  162.2280  210.5020  148.0470 S   0  0  0  0  0  0  0  0  0  0  0  0
  161.9010  206.9460  150.0050 N   0  0  0  0  0  0  0  0  0  0  0  0
  159.9940  213.1110  147.3690 C   0  0  0  0  0  0  0  0  0  0  0  0
  158.7050  212.9920  146.7670 N   0  0  0  0  0  2  0  0  0  0  0  0
  161.5890  213.0450  148.9740 C   0  0  1  0  0  3  0  0  0  0  0  0
  161.1920  213.5660  146.6260 C   0  0  1  0  0  3  0  0  0  0  0  0
  162.2660  213.5730  147.7040 C   0  0  0  0  0  2  0  0  0  0  0  0
  160.2000  212.8330  148.6070 N   0  0  0  0  0  0  0  0  0  0  0  0
  161.5370  212.6130  145.6270 O   0  0  0  0  0  0  0  0  0  0  0  0
  160.7660  212.6090  143.3450 C   0  0  0  0  0  3  0  0  0  0  0  0
  161.7420  212.9520  144.2860 C   0  0  0  0  0  0  0  0  0  0  0  0
  160.9450  212.9290  141.9950 C   0  0  0  0  0  3  0  0  0  0  0  0
  162.9050  213.6190  143.8640 C   0  0  0  0  0  3  0  0  0  0  0  0
  163.0830  213.9390  142.5150 C   0  0  0  0  0  3  0  0  0  0  0  0
  162.2810  213.9070  140.2410 O   0  0  0  0  0  1  0  0  0  0  0  0
  162.1030  213.5930  141.5810 C   0  0  0  0  0  0  0  0  0  0  0  0
  157.6340  212.5560  147.4760 O   0  0  0  0  0  0  0  0  0  0  0  0
  157.0740  213.6520  147.9530 O   0  0  0  0  0  0  0  0  0  0  0  0
  155.5560  214.2080  149.6970 C   0  0  0  0  0  1  0  0  0  0  0  0
  156.7120  213.3280  149.2620 C   0  0  0  0  0  2  0  0  0  0  0  0
  160.0810  206.9520  157.0110 O   0  0  0  0  0  0  0  0  0  0  0  0
  160.3610  207.5520  155.9380 C   0  0  0  0  0  0  0  0  0  0  0  0
  160.5940  206.7830  154.7530 N   0  0  0  0  0  2  0  0  0  0  0  0
  160.4420  208.9820  155.9180 N   0  0  0  0  0  2  0  0  0  0  0  0
  160.2440  209.7980  157.1060 C   0  0  0  0  0  2  0  0  0  0  0  0
  159.5050  211.0760  156.7400 C   0  0  0  0  0  2  0  0  0  0  0  0
  158.9780  210.9760  155.3900 N   0  0  0  0  0  0  0  0  0  0  0  0
  157.0870  211.8950  154.2560 C   0  0  0  0  0  2  0  0  0  0  0  0
  159.4480  212.1490  154.6630 C   0  0  0  0  0  2  0  0  0  0  0  0
  157.5340  211.1250  155.4730 C   0  0  0  0  0  2  0  0  0  0  0  0
  158.5480  212.4880  152.4860 O   0  0  0  0  0  1  0  0  0  0  0  0
  158.2960  212.6950  153.8420 C   0  0  1  0  0  3  0  0  0  0  0  0
  1  7  1  0  0  0  0
  2  9  2  0  0  0  0
  3 10  1  0  0  0  0
  4  3  2  0  0  0  0
  4 12  1  0  0  0  0
  6  5  1  1  0  0  0
  7  9  1  0  0  0  0
  8  1  1  0  0  0  0
  8  2  1  0  0  0  0
  9 33  1  0  0  0  0
 10  5  1  0  0  0  0
 10  1  2  0  0  0  0
 11  3  1  0  0  0  0
 11  6  1  0  0  0  0
 12  8  2  0  0  0  0
 13 18  2  0  0  0  0
 14 13  1  0  0  0  0
 14 27  1  0  0  0  0
 15 17  1  6  0  0  0
 15  6  1  0  0  0  0
 16 19  1  6  0  0  0
 16 13  1  0  0  0  0
 16 17  1  0  0  0  0
 18 15  1  0  0  0  0
 20 21  1  0  0  0  0
 21 19  1  0  0  0  0
 22 20  2  0  0  0  0
 23 21  2  0  0  0  0
 24 23  1  0  0  0  0
 25 26  1  0  0  0  0
 26 22  1  0  0  0  0
 26 24  2  0  0  0  0
 27 28  1  0  0  0  0
 28 30  1  0  0  0  0
 30 29  1  0  0  0  0
 32 31  2  0  0  0  0
 33 32  1  0  0  0  0
 34 32  1  0  0  0  0
 34 35  1  0  0  0  0
 36 35  1  0  0  0  0
 37 40  1  0  0  0  0
 37 36  1  0  0  0  0
 38 40  1  0  0  0  0
 39 37  1  0  0  0  0
 42 41  1  6  0  0  0
 42 38  1  0  0  0  0
 42 39  1  0  0  0  0
M  END
>  <MODEL>
5

>  <REMARK>
 VINA RESULT:      -6.4      3.802      8.454
  Name = 
  10 active torsions:
  status: ('A' for Active; 'I' for Inactive)
    1  A    between atoms: N_3  and  C_15
    2  A    between atoms: C_10  and  C_15
    3  A    between atoms: C_10  and  N_42
    4  A    between atoms: N_11  and  O_17
    5  A    between atoms: C_12  and  O_14
    6  A    between atoms: O_14  and  C_19
    7  A    between atoms: C_16  and  C_32
    8  A    between atoms: O_17  and  O_26
    9  A    between atoms: C_23  and  O_26
   10  A    between atoms: N_28  and  C_36
                            x       y       z     vdW  Elec       q    Type
                         _______ _______ _______ _____ _____    ______ ____

>  <TORSDO>
F 10

$$$$
=
 OpenBabel11072411203D

 42 47  0  0  1  0  0  0  0  0999 V2000
  161.3490  205.7610  151.2300 C   0  0  0  0  0  0  0  0  0  0  0  0
  160.9830  203.6080  152.0700 C   0  0  0  0  0  3  0  0  0  0  0  0
  161.2230  207.7090  152.5940 C   0  0  0  0  0  0  0  0  0  0  0  0
  160.9070  206.9040  153.7020 C   0  0  0  0  0  3  0  0  0  0  0  0
  161.7120  208.1030  150.2640 C   0  0  0  0  0  2  0  0  0  0  0  0
  161.2810  209.4790  150.7890 C   0  0  1  0  0  3  0  0  0  0  0  0
  161.5460  204.7860  149.8780 S   0  0  0  0  0  0  0  0  0  0  0  0
  161.0470  204.9770  152.3340 C   0  0  0  0  0  0  0  0  0  0  0  0
  161.2450  203.3490  150.7200 C   0  0  0  0  0  0  0  0  0  0  0  0
  161.4310  207.1420  151.3540 C   0  0  0  0  0  0  0  0  0  0  0  0
  161.3430  209.4790  152.6290 S   0  0  0  0  0  0  0  0  0  0  0  0
  160.8270  205.5450  153.5520 N   0  0  0  0  0  0  0  0  0  0  0  0
  161.2680  212.4760  149.3370 C   0  0  0  0  0  0  0  0  0  0  0  0
  160.6640  213.7690  149.2960 N   0  0  0  0  0  2  0  0  0  0  0  0
  162.1600  210.5890  150.2140 C   0  0  1  0  0  3  0  0  0  0  0  0
  161.6280  211.7150  148.1190 C   0  0  1  0  0  3  0  0  0  0  0  0
  162.2730  210.4620  148.6910 C   0  0  0  0  0  2  0  0  0  0  0  0
  161.5450  211.8840  150.4450 N   0  0  0  0  0  0  0  0  0  0  0  0
  160.4500  211.3520  147.4060 O   0  0  0  0  0  0  0  0  0  0  0  0
  158.5100  212.2710  146.3130 C   0  0  0  0  0  3  0  0  0  0  0  0
  159.9000  212.1370  146.3890 C   0  0  0  0  0  0  0  0  0  0  0  0
  157.9300  213.0450  145.3040 C   0  0  0  0  0  3  0  0  0  0  0  0
  160.7090  212.7850  145.4390 C   0  0  0  0  0  3  0  0  0  0  0  0
  160.1280  213.5590  144.4300 C   0  0  0  0  0  3  0  0  0  0  0  0
  158.1620  214.4530  143.3590 O   0  0  0  0  0  1  0  0  0  0  0  0
  158.7390  213.6880  144.3620 C   0  0  0  0  0  0  0  0  0  0  0  0
  160.3340  214.4300  150.4340 O   0  0  0  0  0  0  0  0  0  0  0  0
  159.0730  214.1140  150.6560 O   0  0  0  0  0  0  0  0  0  0  0  0
  159.2850  212.7280  152.5770 C   0  0  0  0  0  1  0  0  0  0  0  0
  158.9440  214.1070  152.0470 C   0  0  0  0  0  2  0  0  0  0  0  0
  161.2400  200.6060  148.2860 O   0  0  0  0  0  0  0  0  0  0  0  0
  161.2130  201.8000  148.6890 C   0  0  0  0  0  0  0  0  0  0  0  0
  161.2550  202.0590  150.0970 N   0  0  0  0  0  2  0  0  0  0  0  0
  161.1420  202.8730  147.7430 N   0  0  0  0  0  2  0  0  0  0  0  0
  161.0650  202.6530  146.3070 C   0  0  0  0  0  2  0  0  0  0  0  0
  162.2740  203.2710  145.6220 C   0  0  0  0  0  2  0  0  0  0  0  0
  162.0420  204.6850  145.3820 N   0  0  0  0  0  0  0  0  0  0  0  0
  160.1120  206.0920  145.3960 C   0  0  0  0  0  2  0  0  0  0  0  0
  162.0000  205.3350  146.6850 C   0  0  0  0  0  2  0  0  0  0  0  0
  160.7000  204.8190  144.8380 C   0  0  0  0  0  2  0  0  0  0  0  0
  161.3480  207.6230  146.7180 O   0  0  0  0  0  1  0  0  0  0  0  0
  160.8490  206.3210  146.6910 C   0  0  1  0  0  3  0  0  0  0  0  0
  1 10  2  0  0  0  0
  1  8  1  0  0  0  0
  2  8  1  0  0  0  0
  3 11  1  0  0  0  0
  3  4  2  0  0  0  0
  5 10  1  0  0  0  0
  6  5  1  6  0  0  0
  6 11  1  0  0  0  0
  7  9  1  0  0  0  0
  7  1  1  0  0  0  0
  8 12  2  0  0  0  0
  9  2  2  0  0  0  0
 10  3  1  0  0  0  0
 12  4  1  0  0  0  0
 13 18  2  0  0  0  0
 14 13  1  0  0  0  0
 14 27  1  0  0  0  0
 15 17  1  6  0  0  0
 15 18  1  0  0  0  0
 15  6  1  0  0  0  0
 16 19  1  1  0  0  0
 16 17  1  0  0  0  0
 16 13  1  0  0  0  0
 20 21  1  0  0  0  0
 21 19  1  0  0  0  0
 22 20  2  0  0  0  0
 23 21  2  0  0  0  0
 24 23  1  0  0  0  0
 25 26  1  0  0  0  0
 26 24  2  0  0  0  0
 26 22  1  0  0  0  0
 27 28  1  0  0  0  0
 28 30  1  0  0  0  0
 30 29  1  0  0  0  0
 31 32  2  0  0  0  0
 32 33  1  0  0  0  0
 33  9  1  0  0  0  0
 34 32  1  0  0  0  0
 35 34  1  0  0  0  0
 36 35  1  0  0  0  0
 37 36  1  0  0  0  0
 37 39  1  0  0  0  0
 38 42  1  0  0  0  0
 39 42  1  0  0  0  0
 40 37  1  0  0  0  0
 40 38  1  0  0  0  0
 42 41  1  6  0  0  0
M  END
>  <MODEL>
6

>  <REMARK>
 VINA RESULT:      -6.3      2.925      4.739
  Name = 
  10 active torsions:
  status: ('A' for Active; 'I' for Inactive)
    1  A    between atoms: N_3  and  C_15
    2  A    between atoms: C_10  and  C_15
    3  A    between atoms: C_10  and  N_42
    4  A    between atoms: N_11  and  O_17
    5  A    between atoms: C_12  and  O_14
    6  A    between atoms: O_14  and  C_19
    7  A    between atoms: C_16  and  C_32
    8  A    between atoms: O_17  and  O_26
    9  A    between atoms: C_23  and  O_26
   10  A    between atoms: N_28  and  C_36
                            x       y       z     vdW  Elec       q    Type
                         _______ _______ _______ _____ _____    ______ ____

>  <TORSDO>
F 10

$$$$
=
 OpenBabel11072411203D

 42 47  0  0  1  0  0  0  0  0999 V2000
  158.8730  213.5460  148.7980 C   0  0  0  0  0  0  0  0  0  0  0  0
  158.0510  213.3350  150.9790 C   0  0  0  0  0  3  0  0  0  0  0  0
  157.4620  213.9990  146.9340 C   0  0  0  0  0  0  0  0  0  0  0  0
  156.3470  214.0120  147.7890 C   0  0  0  0  0  3  0  0  0  0  0  0
  159.8050  213.7250  146.4210 C   0  0  0  0  0  2  0  0  0  0  0  0
  159.1090  213.5800  145.0610 C   0  0  1  0  0  3  0  0  0  0  0  0
  160.2540  213.2260  149.6970 S   0  0  0  0  0  0  0  0  0  0  0  0
  157.7660  213.5710  149.6330 C   0  0  0  0  0  0  0  0  0  0  0  0
  159.4210  213.1240  151.1660 C   0  0  0  0  0  0  0  0  0  0  0  0
  158.7250  213.7540  147.4320 C   0  0  0  0  0  0  0  0  0  0  0  0
  157.3950  214.2400  145.1770 S   0  0  0  0  0  0  0  0  0  0  0  0
  156.5200  213.7990  149.1310 N   0  0  0  0  0  0  0  0  0  0  0  0
  159.5780  213.8080  141.7720 C   0  0  0  0  0  0  0  0  0  0  0  0
  158.9610  213.8040  140.4850 N   0  0  0  0  0  2  0  0  0  0  0  0
  159.8940  214.2920  143.9610 C   0  0  1  0  0  3  0  0  0  0  0  0
  160.8460  213.0990  142.0610 C   0  0  1  0  0  3  0  0  0  0  0  0
  161.0980  213.4530  143.5190 C   0  0  0  0  0  2  0  0  0  0  0  0
  159.0720  214.4370  142.7720 N   0  0  0  0  0  0  0  0  0  0  0  0
  160.6530  211.6930  141.9470 O   0  0  0  0  0  0  0  0  0  0  0  0
  159.9830  210.6040  139.9050 C   0  0  0  0  0  3  0  0  0  0  0  0
  160.9930  210.9650  140.8030 C   0  0  0  0  0  0  0  0  0  0  0  0
  160.2900  209.8720  138.7550 C   0  0  0  0  0  3  0  0  0  0  0  0
  162.3200  210.5820  140.5390 C   0  0  0  0  0  3  0  0  0  0  0  0
  162.6270  209.8510  139.3880 C   0  0  0  0  0  3  0  0  0  0  0  0
  161.9150  208.7650  137.3560 O   0  0  0  0  0  1  0  0  0  0  0  0
  161.6110  209.4950  138.4970 C   0  0  0  0  0  0  0  0  0  0  0  0
  157.7910  214.4530  140.2620 O   0  0  0  0  0  0  0  0  0  0  0  0
  156.9410  213.5080  139.9080 O   0  0  0  0  0  0  0  0  0  0  0  0
  154.6280  212.9850  140.1010 C   0  0  0  0  0  1  0  0  0  0  0  0
  155.6780  214.0790  140.0820 C   0  0  0  0  0  2  0  0  0  0  0  0
  161.0370  211.4670  154.0110 O   0  0  0  0  0  0  0  0  0  0  0  0
  160.4660  211.5550  152.8920 C   0  0  0  0  0  0  0  0  0  0  0  0
  160.0670  212.8460  152.4150 N   0  0  0  0  0  2  0  0  0  0  0  0
  160.2230  210.3750  152.1170 N   0  0  0  0  0  2  0  0  0  0  0  0
  160.5820  209.0430  152.5770 C   0  0  0  0  0  2  0  0  0  0  0  0
  161.3400  208.3030  151.4860 C   0  0  0  0  0  2  0  0  0  0  0  0
  161.9010  207.0730  152.0160 N   0  0  0  0  0  0  0  0  0  0  0  0
  160.9910  205.1300  153.0680 C   0  0  0  0  0  2  0  0  0  0  0  0
  161.7550  206.0580  150.9810 C   0  0  0  0  0  2  0  0  0  0  0  0
  161.0450  206.6380  153.1090 C   0  0  0  0  0  2  0  0  0  0  0  0
  162.3020  203.8230  151.5880 O   0  0  0  0  0  1  0  0  0  0  0  0
  161.2820  204.7740  151.6330 C   0  0  1  0  0  3  0  0  0  0  0  0
  1  8  1  0  0  0  0
  1  7  1  0  0  0  0
  2  9  2  0  0  0  0
  3 10  1  0  0  0  0
  3  4  2  0  0  0  0
  4 12  1  0  0  0  0
  5 10  1  0  0  0  0
  6 11  1  0  0  0  0
  6  5  1  1  0  0  0
  7  9  1  0  0  0  0
  8  2  1  0  0  0  0
  9 33  1  0  0  0  0
 10  1  2  0  0  0  0
 11  3  1  0  0  0  0
 12  8  2  0  0  0  0
 13 16  1  0  0  0  0
 13 18  2  0  0  0  0
 14 13  1  0  0  0  0
 15 17  1  6  0  0  0
 15  6  1  0  0  0  0
 16 19  1  1  0  0  0
 16 17  1  0  0  0  0
 18 15  1  0  0  0  0
 20 21  1  0  0  0  0
 21 19  1  0  0  0  0
 22 20  2  0  0  0  0
 23 21  2  0  0  0  0
 24 23  1  0  0  0  0
 25 26  1  0  0  0  0
 26 22  1  0  0  0  0
 26 24  2  0  0  0  0
 27 14  1  0  0  0  0
 28 30  1  0  0  0  0
 28 27  1  0  0  0  0
 30 29  1  0  0  0  0
 32 31  2  0  0  0  0
 33 32  1  0  0  0  0
 34 35  1  0  0  0  0
 34 32  1  0  0  0  0
 36 37  1  0  0  0  0
 36 35  1  0  0  0  0
 37 40  1  0  0  0  0
 38 40  1  0  0  0  0
 39 42  1  0  0  0  0
 39 37  1  0  0  0  0
 42 41  1  1  0  0  0
 42 38  1  0  0  0  0
M  END
>  <MODEL>
7

>  <REMARK>
 VINA RESULT:      -5.9      5.699     10.599
  Name = 
  10 active torsions:
  status: ('A' for Active; 'I' for Inactive)
    1  A    between atoms: N_3  and  C_15
    2  A    between atoms: C_10  and  C_15
    3  A    between atoms: C_10  and  N_42
    4  A    between atoms: N_11  and  O_17
    5  A    between atoms: C_12  and  O_14
    6  A    between atoms: O_14  and  C_19
    7  A    between atoms: C_16  and  C_32
    8  A    between atoms: O_17  and  O_26
    9  A    between atoms: C_23  and  O_26
   10  A    between atoms: N_28  and  C_36
                            x       y       z     vdW  Elec       q    Type
                         _______ _______ _______ _____ _____    ______ ____

>  <TORSDO>
F 10

$$$$
=
 OpenBabel11072411203D

 42 47  0  0  1  0  0  0  0  0999 V2000
  156.5870  214.1250  151.5220 C   0  0  0  0  0  0  0  0  0  0  0  0
  154.5280  214.3270  152.6150 C   0  0  0  0  0  3  0  0  0  0  0  0
  156.7990  214.2360  149.1520 C   0  0  0  0  0  0  0  0  0  0  0  0
  155.4090  214.4150  149.0440 C   0  0  0  0  0  3  0  0  0  0  0  0
  158.8520  213.8530  150.3610 C   0  0  0  0  0  2  0  0  0  0  0  0
  159.1950  213.4640  148.9160 C   0  0  1  0  0  3  0  0  0  0  0  0
  156.9980  213.9650  153.1410 S   0  0  0  0  0  0  0  0  0  0  0  0
  155.2180  214.3120  151.4010 C   0  0  0  0  0  0  0  0  0  0  0  0
  155.4060  214.1440  153.6880 C   0  0  0  0  0  0  0  0  0  0  0  0
  157.3900  214.0770  150.3890 C   0  0  0  0  0  0  0  0  0  0  0  0
  157.9190  214.1480  147.7800 S   0  0  0  0  0  0  0  0  0  0  0  0
  154.6400  214.4530  150.1770 N   0  0  0  0  0  0  0  0  0  0  0  0
  161.6730  213.1430  146.7160 C   0  0  0  0  0  0  0  0  0  0  0  0
  162.0220  212.9620  145.3430 N   0  0  0  0  0  2  0  0  0  0  0  0
  160.5890  213.9550  148.5290 C   0  0  1  0  0  3  0  0  0  0  0  0
  162.3540  212.4300  147.8210 C   0  0  1  0  0  3  0  0  0  0  0  0
  161.6690  213.0010  149.0530 C   0  0  0  0  0  2  0  0  0  0  0  0
  160.7400  213.9460  147.0850 N   0  0  0  0  0  0  0  0  0  0  0  0
  162.0860  211.0350  147.7400 O   0  0  0  0  0  0  0  0  0  0  0  0
  162.1140  210.7710  150.1340 C   0  0  0  0  0  3  0  0  0  0  0  0
  162.0450  210.1990  148.8600 C   0  0  0  0  0  0  0  0  0  0  0  0
  162.0820  209.9610  151.2730 C   0  0  0  0  0  3  0  0  0  0  0  0
  161.9470  208.8020  148.7340 C   0  0  0  0  0  3  0  0  0  0  0  0
  161.9150  207.9930  149.8730 C   0  0  0  0  0  3  0  0  0  0  0  0
  161.9560  207.7690  152.2740 O   0  0  0  0  0  1  0  0  0  0  0  0
  161.9840  208.5730  151.1430 C   0  0  0  0  0  0  0  0  0  0  0  0
  161.3650  213.6210  144.3560 O   0  0  0  0  0  0  0  0  0  0  0  0
  160.8840  212.6710  143.5760 O   0  0  0  0  0  0  0  0  0  0  0  0
  161.5980  211.4890  141.6400 C   0  0  0  0  0  1  0  0  0  0  0  0
  161.5690  212.8190  142.3680 C   0  0  0  0  0  2  0  0  0  0  0  0
  155.2170  213.3340  157.2600 O   0  0  0  0  0  0  0  0  0  0  0  0
  155.6350  213.2580  156.0740 C   0  0  0  0  0  0  0  0  0  0  0  0
  155.0440  214.0960  155.0740 N   0  0  0  0  0  2  0  0  0  0  0  0
  156.6840  212.3410  155.7420 N   0  0  0  0  0  2  0  0  0  0  0  0
  157.2890  211.4500  156.7200 C   0  0  0  0  0  2  0  0  0  0  0  0
  158.6600  211.9710  157.1200 C   0  0  0  0  0  2  0  0  0  0  0  0
  159.6900  211.0370  156.6980 N   0  0  0  0  0  0  0  0  0  0  0  0
  160.1670  209.8730  154.6670 C   0  0  0  0  0  2  0  0  0  0  0  0
  160.7020  211.8120  155.9920 C   0  0  0  0  0  2  0  0  0  0  0  0
  159.1020  210.1630  155.6950 C   0  0  0  0  0  2  0  0  0  0  0  0
  162.4180  210.5820  154.8930 O   0  0  0  0  0  1  0  0  0  0  0  0
  161.1100  211.0460  154.7490 C   0  0  1  0  0  3  0  0  0  0  0  0
  1  7  1  0  0  0  0
  2  9  2  0  0  0  0
  3 10  1  0  0  0  0
  4  3  2  0  0  0  0
  4 12  1  0  0  0  0
  5 10  1  0  0  0  0
  6  5  1  1  0  0  0
  7  9  1  0  0  0  0
  8  1  1  0  0  0  0
  8  2  1  0  0  0  0
  9 33  1  0  0  0  0
 10  1  2  0  0  0  0
 11  6  1  0  0  0  0
 11  3  1  0  0  0  0
 12  8  2  0  0  0  0
 13 18  2  0  0  0  0
 13 16  1  0  0  0  0
 14 13  1  0  0  0  0
 15  6  1  0  0  0  0
 15 17  1  1  0  0  0
 16 19  1  6  0  0  0
 16 17  1  0  0  0  0
 18 15  1  0  0  0  0
 19 21  1  0  0  0  0
 20 22  1  0  0  0  0
 21 20  2  0  0  0  0
 23 21  1  0  0  0  0
 23 24  2  0  0  0  0
 24 26  1  0  0  0  0
 26 22  2  0  0  0  0
 26 25  1  0  0  0  0
 27 14  1  0  0  0  0
 28 27  1  0  0  0  0
 29 30  1  0  0  0  0
 30 28  1  0  0  0  0
 32 31  2  0  0  0  0
 33 32  1  0  0  0  0
 34 32  1  0  0  0  0
 34 35  1  0  0  0  0
 35 36  1  0  0  0  0
 37 36  1  0  0  0  0
 38 42  1  0  0  0  0
 38 40  1  0  0  0  0
 39 37  1  0  0  0  0
 40 37  1  0  0  0  0
 42 41  1  1  0  0  0
 42 39  1  0  0  0  0
M  END
>  <MODEL>
8

>  <REMARK>
 VINA RESULT:      -5.9      4.812     10.545
  Name = 
  10 active torsions:
  status: ('A' for Active; 'I' for Inactive)
    1  A    between atoms: N_3  and  C_15
    2  A    between atoms: C_10  and  C_15
    3  A    between atoms: C_10  and  N_42
    4  A    between atoms: N_11  and  O_17
    5  A    between atoms: C_12  and  O_14
    6  A    between atoms: O_14  and  C_19
    7  A    between atoms: C_16  and  C_32
    8  A    between atoms: O_17  and  O_26
    9  A    between atoms: C_23  and  O_26
   10  A    between atoms: N_28  and  C_36
                            x       y       z     vdW  Elec       q    Type
                         _______ _______ _______ _____ _____    ______ ____

>  <TORSDO>
F 10

$$$$
=
 OpenBabel11072411203D

 42 47  0  0  1  0  0  0  0  0999 V2000
  161.0210  203.9140  150.3250 C   0  0  0  0  0  0  0  0  0  0  0  0
  160.5190  201.6840  149.8280 C   0  0  0  0  0  3  0  0  0  0  0  0
  160.8810  204.8010  152.5310 C   0  0  0  0  0  0  0  0  0  0  0  0
  160.4650  203.5440  153.0020 C   0  0  0  0  0  3  0  0  0  0  0  0
  161.5350  206.3730  150.8200 C   0  0  0  0  0  2  0  0  0  0  0  0
  161.1230  207.2620  152.0020 C   0  0  1  0  0  3  0  0  0  0  0  0
  161.2660  203.8290  148.6670 S   0  0  0  0  0  0  0  0  0  0  0  0
  160.6190  202.6770  150.8040 C   0  0  0  0  0  0  0  0  0  0  0  0
  160.8570  202.1900  148.5680 C   0  0  0  0  0  0  0  0  0  0  0  0
  161.1470  204.9940  151.1910 C   0  0  0  0  0  0  0  0  0  0  0  0
  161.0670  206.2490  153.5380 S   0  0  0  0  0  0  0  0  0  0  0  0
  160.3430  202.4980  152.1260 N   0  0  0  0  0  0  0  0  0  0  0  0
  161.4570  210.5540  151.6340 C   0  0  0  0  0  0  0  0  0  0  0  0
  160.8290  211.8300  151.7660 N   0  0  0  0  0  2  0  0  0  0  0  0
  162.0790  208.4430  152.1620 C   0  0  1  0  0  3  0  0  0  0  0  0
  162.2910  210.1830  150.4680 C   0  0  1  0  0  3  0  0  0  0  0  0
  162.7580  208.7800  150.8300 C   0  0  0  0  0  2  0  0  0  0  0  0
  161.3400  209.6380  152.5290 N   0  0  0  0  0  0  0  0  0  0  0  0
  161.4880  210.1210  149.2940 O   0  0  0  0  0  0  0  0  0  0  0  0
  162.6590  211.9070  148.1790 C   0  0  0  0  0  3  0  0  0  0  0  0
  161.5260  211.0940  148.2920 C   0  0  0  0  0  0  0  0  0  0  0  0
  162.7240  212.8930  147.1910 C   0  0  0  0  0  3  0  0  0  0  0  0
  160.4510  211.2820  147.4040 C   0  0  0  0  0  3  0  0  0  0  0  0
  160.5180  212.2680  146.4170 C   0  0  0  0  0  3  0  0  0  0  0  0
  161.7180  214.0560  145.3320 O   0  0  0  0  0  1  0  0  0  0  0  0
  161.6530  213.0740  146.3110 C   0  0  0  0  0  0  0  0  0  0  0  0
  160.0590  212.1290  152.8410 O   0  0  0  0  0  0  0  0  0  0  0  0
  158.8330  212.2300  152.3630 O   0  0  0  0  0  0  0  0  0  0  0  0
  157.8360  213.3320  150.5060 C   0  0  0  0  0  1  0  0  0  0  0  0
  158.8240  213.4320  151.6530 C   0  0  0  0  0  2  0  0  0  0  0  0
  160.7440  201.2310  145.0300 O   0  0  0  0  0  0  0  0  0  0  0  0
  160.7120  202.0050  146.0240 C   0  0  0  0  0  0  0  0  0  0  0  0
  160.8580  201.4540  147.3380 N   0  0  0  0  0  2  0  0  0  0  0  0
  160.5320  203.4120  145.8300 N   0  0  0  0  0  2  0  0  0  0  0  0
  160.3490  204.0090  144.5150 C   0  0  0  0  0  2  0  0  0  0  0  0
  161.5800  204.8170  144.1360 C   0  0  0  0  0  2  0  0  0  0  0  0
  161.6270  206.0450  144.9100 N   0  0  0  0  0  0  0  0  0  0  0  0
  160.5720  206.8050  146.9140 C   0  0  0  0  0  2  0  0  0  0  0  0
  162.5730  205.8260  145.9960 C   0  0  0  0  0  2  0  0  0  0  0  0
  160.3310  206.2070  145.5500 C   0  0  0  0  0  2  0  0  0  0  0  0
  162.7050  207.5250  147.6570 O   0  0  0  0  0  1  0  0  0  0  0  0
  161.9800  206.3990  147.2690 C   0  0  1  0  0  3  0  0  0  0  0  0
  1  8  2  0  0  0  0
  1 10  1  0  0  0  0
  2  8  1  0  0  0  0
  3  4  1  0  0  0  0
  3 11  1  0  0  0  0
  5 10  1  0  0  0  0
  6  5  1  6  0  0  0
  6 15  1  0  0  0  0
  6 11  1  0  0  0  0
  7  1  1  0  0  0  0
  8 12  1  0  0  0  0
  9  7  1  0  0  0  0
  9  2  2  0  0  0  0
 10  3  2  0  0  0  0
 12  4  2  0  0  0  0
 13 14  1  0  0  0  0
 13 18  2  0  0  0  0
 14 27  1  0  0  0  0
 15 17  1  6  0  0  0
 15 18  1  0  0  0  0
 16 19  1  6  0  0  0
 16 17  1  0  0  0  0
 16 13  1  0  0  0  0
 20 21  1  0  0  0  0
 21 19  1  0  0  0  0
 22 20  2  0  0  0  0
 23 21  2  0  0  0  0
 24 23  1  0  0  0  0
 25 26  1  0  0  0  0
 26 24  2  0  0  0  0
 26 22  1  0  0  0  0
 28 27  1  0  0  0  0
 29 30  1  0  0  0  0
 30 28  1  0  0  0  0
 31 32  2  0  0  0  0
 32 33  1  0  0  0  0
 33  9  1  0  0  0  0
 34 32  1  0  0  0  0
 35 34  1  0  0  0  0
 36 35  1  0  0  0  0
 36 37  1  0  0  0  0
 37 40  1  0  0  0  0
 37 39  1  0  0  0  0
 38 42  1  0  0  0  0
 39 42  1  0  0  0  0
 40 38  1  0  0  0  0
 42 41  1  6  0  0  0
M  END
>  <MODEL>
9

>  <REMARK>
 VINA RESULT:      -5.7      2.708      4.241
  Name = 
  10 active torsions:
  status: ('A' for Active; 'I' for Inactive)
    1  A    between atoms: N_3  and  C_15
    2  A    between atoms: C_10  and  C_15
    3  A    between atoms: C_10  and  N_42
    4  A    between atoms: N_11  and  O_17
    5  A    between atoms: C_12  and  O_14
    6  A    between atoms: O_14  and  C_19
    7  A    between atoms: C_16  and  C_32
    8  A    between atoms: O_17  and  O_26
    9  A    between atoms: C_23  and  O_26
   10  A    between atoms: N_28  and  C_36
                            x       y       z     vdW  Elec       q    Type
                         _______ _______ _______ _____ _____    ______ ____

>  <TORSDO>
F 10

$$$$
