=
 OpenBabel11072413513D

 67 72  0  0  1  0  0  0  0  0999 V2000
  159.1920  211.3300  153.5540 N   0  0  0  0  0  0  0  0  0  0  0  0
  159.3880  212.5770  154.2300 C   0  0  0  0  0  3  0  0  0  0  0  0
  159.8550  212.6210  155.4370 N   0  0  0  0  0  2  0  0  0  0  0  0
  158.7120  211.3370  152.2830 O   0  0  0  0  0  0  0  0  0  0  0  0
  159.8390  211.2610  151.4570 C   0  0  1  0  0  3  0  0  0  0  0  0
  160.3830  209.8440  151.4610 C   0  0  0  0  0  2  0  0  0  0  0  0
  161.1320  209.6210  150.2970 O   0  0  0  0  0  0  0  0  0  0  0  0
  161.8290  210.8130  150.0780 C   0  0  0  0  0  2  0  0  0  0  0  0
  160.9010  212.0020  150.2580 C   0  0  2  0  0  3  0  0  0  0  0  0
  161.5050  213.1520  149.7440 O   0  0  0  0  0  0  0  0  0  0  0  0
  161.5600  212.9390  148.3640 C   0  0  0  0  0  2  0  0  0  0  0  0
  160.3670  213.5940  147.6860 C   0  0  0  0  0  2  0  0  0  0  0  0
  159.4450  214.0270  148.6410 O   0  0  0  0  0  0  0  0  0  0  0  0
  158.1910  213.6940  148.1170 C   0  0  0  0  0  2  0  0  0  0  0  0
  157.9760  214.3670  146.7660 C   0  0  0  0  0  2  0  0  0  0  0  0
  158.5680  213.5570  145.6050 C   0  0  2  0  0  3  0  0  0  0  0  0
  158.3870  212.1650  145.7740 O   0  0  0  0  0  0  0  0  0  0  0  0
  157.0130  211.8840  145.8750 C   0  0  0  0  0  2  0  0  0  0  0  0
  156.3660  212.8510  146.8460 C   0  0  0  0  0  1  0  0  0  0  0  0
  160.0160  213.9550  145.2910 C   0  0  0  0  0  2  0  0  0  0  0  0
  160.7070  212.9130  144.4180 C   0  0  0  0  0  2  0  0  0  0  0  0
  160.4970  213.2040  142.9340 C   0  0  2  0  0  3  0  0  0  0  0  0
  159.5710  212.2910  142.3940 O   0  0  0  0  0  0  0  0  0  0  0  0
  157.4390  212.5370  139.2830 C   0  0  0  0  0  2  0  0  0  0  0  0
  158.4350  212.7950  138.3300 O   0  0  0  0  0  0  0  0  0  0  0  0
  158.0500  211.8650  140.5100 C   0  0  0  0  0  2  0  0  0  0  0  0
  160.1520  213.0620  140.2700 O   0  0  0  0  0  0  0  0  0  0  0  0
  158.8130  214.1350  138.5220 C   0  0  0  0  0  2  0  0  0  0  0  0
  159.8330  214.2900  139.6710 C   0  0  0  0  0  2  0  0  0  0  0  0
  159.0970  212.7820  141.1570 C   0  0  2  0  0  3  0  0  0  0  0  0
  161.7980  213.1680  142.1240 C   0  0  0  0  0  2  0  0  0  0  0  0
  162.1100  211.7790  141.5810 C   0  0  0  0  0  2  0  0  0  0  0  0
  162.6000  211.8770  140.1520 C   0  0  0  0  0  2  0  0  0  0  0  0
  163.0190  213.1840  138.4230 C   0  0  0  0  0  1  0  0  0  0  0  0
  162.6000  213.2140  139.7510 O   0  0  0  0  0  0  0  0  0  0  0  0
  159.3820  210.0540  154.2440 C   0  0  0  0  0  2  0  0  0  0  0  0
  159.2630  208.8720  153.2830 C   0  0  0  0  0  2  0  0  0  0  0  0
  160.0570  207.6480  153.7310 C   0  0  0  0  0  2  0  0  0  0  0  0
  160.7090  205.9550  152.0430 C   0  0  0  0  0  0  0  0  0  0  0  0
  162.3550  207.4700  150.1670 O   0  0  0  0  0  0  0  0  0  0  0  0
  161.4450  205.4520  150.9450 N   0  0  0  0  0  0  0  0  0  0  0  0
  159.8310  203.9880  151.2560 C   0  0  2  0  0  3  0  0  0  0  0  0
  160.9340  207.1270  152.6350 C   0  0  0  0  0  3  0  0  0  0  0  0
  161.1140  204.1600  150.6750 O   0  0  0  0  0  0  0  0  0  0  0  0
  159.6420  205.0120  152.3760 C   0  0  0  0  0  2  0  0  0  0  0  0
  161.9970  206.2880  149.9140 C   0  0  0  0  0  0  0  0  0  0  0  0
  162.8980  206.6120  147.7280 O   0  0  0  0  0  0  0  0  0  0  0  0
  160.7040  205.6570  147.9080 C   0  0  0  0  0  2  0  0  0  0  0  0
  162.4970  204.6690  144.7130 C   0  0  2  0  0  3  0  0  0  0  0  0
  161.8950  205.6480  145.6820 C   0  0  1  0  0  3  0  0  0  0  0  0
  161.5760  203.7240  144.2470 O   0  0  0  0  0  1  0  0  0  0  0  0
  162.0930  205.7670  148.5170 C   0  0  2  0  0  3  0  0  0  0  0  0
  160.8410  204.9590  146.5680 C   0  0  0  0  0  2  0  0  0  0  0  0
  163.6030  204.0050  145.5170 C   0  0  0  0  0  2  0  0  0  0  0  0
  163.1490  205.9880  146.4810 C   0  0  2  0  0  3  0  0  0  0  0  0
  163.9470  204.8340  146.6080 O   0  0  0  0  0  0  0  0  0  0  0  0
  159.7310  202.7010  151.7850 O   0  0  0  0  0  0  0  0  0  0  0  0
  159.2560  201.9420  150.7680 N   0  0  0  0  0  2  0  0  0  0  0  0
  159.3780  202.7440  149.5600 C   0  0  0  0  0  2  0  0  0  0  0  0
  160.4300  200.8990  148.2290 C   0  0  0  0  0  2  0  0  0  0  0  0
  160.4420  202.0580  147.2480 C   0  0  0  0  0  2  0  0  0  0  0  0
  160.5900  202.3160  148.7350 C   0  0  0  0  0  0  0  0  0  0  0  0
  161.9910  202.5540  149.2840 C   0  0  0  0  0  2  0  0  0  0  0  0
  162.5620  201.2910  149.9210 C   0  0  0  0  0  2  0  0  0  0  0  0
  162.1530  201.1710  151.3840 C   0  0  0  0  0  2  0  0  0  0  0  0
  163.3270  200.7520  152.2550 C   0  0  0  0  0  2  0  0  0  0  0  0
  163.1650  199.3710  152.6830 N   0  0  0  0  0  1  0  0  0  0  0  0
  1  2  1  0  0  0  0
  1 36  1  0  0  0  0
  2  3  2  0  0  0  0
  4  1  1  0  0  0  0
  5  6  1  0  0  0  0
  5  4  1  6  0  0  0
  7  6  1  0  0  0  0
  8  9  1  0  0  0  0
  8  7  1  0  0  0  0
  9 10  1  1  0  0  0
  9  5  1  0  0  0  0
 11 10  1  0  0  0  0
 12 11  1  0  0  0  0
 12 13  1  0  0  0  0
 14 13  1  0  0  0  0
 15 14  1  0  0  0  0
 16 20  1  1  0  0  0
 16 17  1  0  0  0  0
 16 15  1  0  0  0  0
 17 18  1  0  0  0  0
 18 19  1  0  0  0  0
 21 20  1  0  0  0  0
 22 31  1  6  0  0  0
 22 21  1  0  0  0  0
 23 22  1  0  0  0  0
 24 26  1  0  0  0  0
 25 28  1  0  0  0  0
 25 24  1  0  0  0  0
 26 30  1  0  0  0  0
 27 30  1  0  0  0  0
 28 29  1  0  0  0  0
 29 27  1  0  0  0  0
 30 23  1  1  0  0  0
 32 31  1  0  0  0  0
 33 32  1  0  0  0  0
 34 35  1  0  0  0  0
 35 33  1  0  0  0  0
 37 38  1  0  0  0  0
 37 36  1  0  0  0  0
 39 45  1  0  0  0  0
 39 43  2  0  0  0  0
 41 39  1  0  0  0  0
 42 57  1  1  0  0  0
 42 45  1  0  0  0  0
 43 38  1  0  0  0  0
 44 41  1  0  0  0  0
 44 42  1  0  0  0  0
 46 40  2  0  0  0  0
 46 41  1  0  0  0  0
 47 52  1  0  0  0  0
 48 52  1  0  0  0  0
 49 51  1  1  0  0  0
 49 54  1  0  0  0  0
 49 50  1  0  0  0  0
 50 55  1  0  0  0  0
 50 53  1  1  0  0  0
 52 46  1  1  0  0  0
 53 48  1  0  0  0  0
 54 56  1  0  0  0  0
 55 56  1  1  0  0  0
 55 47  1  0  0  0  0
 58 57  1  0  0  0  0
 59 58  1  0  0  0  0
 60 62  1  0  0  0  0
 61 60  1  0  0  0  0
 61 62  1  0  0  0  0
 62 63  1  0  0  0  0
 62 59  1  0  0  0  0
 63 64  1  0  0  0  0
 64 65  1  0  0  0  0
 65 66  1  0  0  0  0
 66 67  1  0  0  0  0
M  END
>  <MODEL>
1

>  <REMARK>
 VINA RESULT:       6.2      0.000      0.000
  Name = 
  37 active torsions:
  status: ('A' for Active; 'I' for Inactive)
    1  A    between atoms: C_1  and  C_15
    2  A    between atoms: C_1  and  C_36
    3  A    between atoms: N_7  and  C_11
    4  A    between atoms: N_7  and  O_32
    5  A    between atoms: C_8  and  C_19
    6  A    between atoms: C_10  and  O_64
    7  A    between atoms: C_11  and  C_37
    8  A    between atoms: O_13  and  C_57
    9  A    between atoms: O_13  and  C_61
   10  A    between atoms: C_14  and  O_42
   11  A    between atoms: C_14  and  C_44
   12  A    between atoms: C_15  and  C_31
   13  A    between atoms: C_17  and  C_53
   14  A    between atoms: C_17  and  C_54
   15  A    between atoms: C_19  and  C_36
   16  A    between atoms: C_21  and  C_30
   17  A    between atoms: C_21  and  O_50
   18  A    between atoms: O_23  and  C_24
   19  A    between atoms: O_23  and  N_63
   20  A    between atoms: C_26  and  C_33
   21  A    between atoms: C_27  and  O_32
   22  A    between atoms: C_27  and  C_57
   23  A    between atoms: C_29  and  C_35
   24  A    between atoms: C_29  and  O_42
   25  A    between atoms: C_30  and  C_41
   26  A    between atoms: C_31  and  N_63
   27  A    between atoms: C_33  and  C_37
   28  A    between atoms: C_35  and  O_52
   29  A    between atoms: O_38  and  C_39
   30  A    between atoms: O_38  and  C_56
   31  A    between atoms: C_39  and  C_41
   32  A    between atoms: C_39  and  C_54
   33  A    between atoms: C_44  and  C_53
   34  A    between atoms: C_46  and  O_52
   35  A    between atoms: C_46  and  C_61
   36  A    between atoms: C_53  and  O_64
   37  A    between atoms: C_55  and  C_65
                            x       y       z     vdW  Elec       q    Type
                         _______ _______ _______ _____ _____    ______ ____

>  <TORSDO>
F 37

$$$$
