=
 OpenBabel11072411103D

 46 50  0  0  1  0  0  0  0  0999 V2000
  161.8840  211.5410  149.3300 C   0  0  2  0  0  3  0  0  0  0  0  0
  161.4860  211.6670  147.9110 C   0  0  2  0  0  3  0  0  0  0  0  0
  162.8240  211.8360  148.3280 O   0  0  0  0  0  0  0  0  0  0  0  0
  159.8310  213.3630  148.4610 C   0  0  0  0  0  0  0  0  0  0  0  0
  158.8300  213.7370  149.2180 C   0  0  0  0  0  3  0  0  0  0  0  0
  160.8230  212.9930  147.6970 C   0  0  0  0  0  0  0  0  0  0  0  0
  158.7620  213.4380  150.6190 N   0  0  0  0  0  0  0  0  0  0  0  0
  159.7960  213.1410  151.3390 C   0  0  0  0  0  3  0  0  0  0  0  0
  159.6430  212.8680  152.6920 O   0  0  0  0  0  1  0  0  0  0  0  0
  161.5210  214.0400  146.8880 C   0  0  0  0  0  2  0  0  0  0  0  0
  160.5060  213.3150  144.5980 C   0  0  0  0  0  2  0  0  0  0  0  0
  161.7550  213.2070  142.6680 C   0  0  1  0  0  3  0  0  0  0  0  0
  160.6980  213.8890  143.3260 O   0  0  0  0  0  0  0  0  0  0  0  0
  161.6920  213.6160  145.4640 C   0  0  0  0  0  0  0  0  0  0  0  0
  162.9070  213.5670  144.9130 C   0  0  0  0  0  3  0  0  0  0  0  0
  163.0840  213.2090  143.4570 C   0  0  0  0  0  2  0  0  0  0  0  0
  161.3730  211.8430  142.3050 N   0  0  0  0  0  2  0  0  0  0  0  0
  160.6550  210.2950  138.6040 S   0  0  0  0  0  0  0  0  0  0  0  0
  160.8420  211.4820  141.0240 C   0  0  0  0  0  0  0  0  0  0  0  0
  159.2740  211.3260  139.2400 C   0  0  0  0  0  2  0  0  0  0  0  0
  159.6340  211.8210  140.6060 C   0  0  0  0  0  3  0  0  0  0  0  0
  161.5790  210.6880  140.0700 C   0  0  0  0  0  0  0  0  0  0  0  0
  162.7780  210.3380  140.2360 O   0  0  0  0  0  0  0  0  0  0  0  0
  161.9740  210.0740  149.7060 C   0  0  0  0  0  2  0  0  0  0  0  0
  162.2420  209.9070  151.1940 C   0  0  0  0  0  2  0  0  0  0  0  0
  161.1520  209.7730  153.4100 C   0  0  0  0  0  1  0  0  0  0  0  0
  160.9800  209.4880  151.9300 C   0  0  2  0  0  3  0  0  0  0  0  0
  160.7340  208.0130  151.7150 C   0  0  0  0  0  2  0  0  0  0  0  0
  161.5430  207.1930  152.7020 C   0  0  0  0  0  2  0  0  0  0  0  0
  162.1910  206.0380  151.9710 C   0  0  0  0  0  2  0  0  0  0  0  0
  161.4590  205.7850  150.6620 C   0  0  0  0  0  2  0  0  0  0  0  0
  160.5800  204.5320  150.7030 C   0  0  2  0  0  3  0  0  0  0  0  0
  160.7020  203.7710  152.0140 C   0  0  0  0  0  1  0  0  0  0  0  0
  162.0220  203.6790  148.8590 O   0  0  0  0  0  0  0  0  0  0  0  0
  160.7620  203.6100  149.4870 C   0  0  2  0  0  0  0  0  0  0  0  0
  160.9310  204.2140  148.1370 C   0  0  1  0  0  3  0  0  0  0  0  0
  160.9860  205.6700  148.1820 N   0  0  0  0  0  2  0  0  0  0  0  0
  160.0430  205.9150  145.9460 C   0  0  0  0  0  2  0  0  0  0  0  0
  162.7000  205.7480  144.8610 N   0  0  0  0  0  2  0  0  0  0  0  0
  160.3570  205.0620  144.8010 N   0  0  0  0  0  2  0  0  0  0  0  0
  161.2710  206.1400  146.8360 C   0  0  0  0  0  3  0  0  0  0  0  0
  161.4610  205.6780  144.0640 C   0  0  0  0  0  2  0  0  0  0  0  0
  162.4960  205.4160  146.2740 C   0  0  0  0  0  2  0  0  0  0  0  0
  160.1460  202.3430  149.4540 O   0  0  0  0  0  0  0  0  0  0  0  0
  161.1400  201.3730  149.6470 C   0  0  0  0  0  2  0  0  0  0  0  0
  161.3520  200.6040  148.3600 C   0  0  0  0  0  1  0  0  0  0  0  0
  1 24  1  6  0  0  0
  2  6  1  1  0  0  0
  2  3  1  0  0  0  0
  2  1  1  0  0  0  0
  3  1  1  0  0  0  0
  4  5  2  0  0  0  0
  5  7  1  0  0  0  0
  6  4  2  0  0  0  0
  7  8  2  0  0  0  0
  8  9  1  0  0  0  0
 10  6  1  0  0  0  0
 11 14  1  0  0  0  0
 12 17  1  1  0  0  0
 12 13  1  0  0  0  0
 12 16  1  0  0  0  0
 13 11  1  0  0  0  0
 14 10  1  0  0  0  0
 15 14  2  0  0  0  0
 16 15  1  0  0  0  0
 18 20  1  0  0  0  0
 18 22  1  0  0  0  0
 19 17  1  0  0  0  0
 20 21  1  0  0  0  0
 21 19  2  0  0  0  0
 22 23  2  0  0  0  0
 22 19  1  0  0  0  0
 24 25  1  0  0  0  0
 25 27  1  0  0  0  0
 27 26  1  1  0  0  0
 28 27  1  0  0  0  0
 28 29  1  0  0  0  0
 30 29  1  0  0  0  0
 31 32  1  0  0  0  0
 31 30  1  0  0  0  0
 32 33  1  1  0  0  0
 34 35  1  0  0  0  0
 35 44  1  1  0  0  0
 35 32  1  0  0  0  0
 36 37  1  1  0  0  0
 36 34  1  0  0  0  0
 36 35  1  0  0  0  0
 38 41  1  0  0  0  0
 39 43  1  0  0  0  0
 40 38  1  0  0  0  0
 41 37  1  0  0  0  0
 42 40  1  0  0  0  0
 42 39  1  0  0  0  0
 43 41  1  0  0  0  0
 44 45  1  0  0  0  0
 46 45  1  0  0  0  0
M  END
>  <MODEL>
1

>  <REMARK>
 VINA RESULT:      -7.3      0.000      0.000
  Name = 
  19 active torsions:
  status: ('A' for Active; 'I' for Inactive)
    1  A    between atoms: C_1  and  C_17
    2  A    between atoms: C_1  and  C_21
    3  A    between atoms: C_2  and  C_46
    4  A    between atoms: C_8  and  O_32
    5  A    between atoms: C_9  and  C_21
    6  A    between atoms: C_9  and  O_32
    7  A    between atoms: C_11  and  C_15
    8  A    between atoms: C_11  and  C_38
    9  A    between atoms: C_12  and  N_44
   10  A    between atoms: C_13  and  C_38
   11  A    between atoms: C_16  and  N_18
   12  A    between atoms: C_17  and  C_30
   13  A    between atoms: C_19  and  N_44
   14  A    between atoms: C_27  and  N_36
   15  A    between atoms: C_29  and  C_33
   16  A    between atoms: C_29  and  C_45
   17  A    between atoms: C_30  and  C_33
   18  A    between atoms: C_35  and  N_36
   19  A    between atoms: C_45  and  C_46
                            x       y       z     vdW  Elec       q    Type
                         _______ _______ _______ _____ _____    ______ ____

>  <TORSDO>
F 19

$$$$
=
 OpenBabel11072411103D

 46 50  0  0  1  0  0  0  0  0999 V2000
  162.0260  211.6250  149.3810 C   0  0  2  0  0  3  0  0  0  0  0  0
  161.5070  211.5440  147.9990 C   0  0  2  0  0  3  0  0  0  0  0  0
  162.8890  211.6280  148.2720 O   0  0  0  0  0  0  0  0  0  0  0  0
  159.9260  213.3800  148.2110 C   0  0  0  0  0  0  0  0  0  0  0  0
  158.8810  213.8850  148.8190 C   0  0  0  0  0  3  0  0  0  0  0  0
  160.9620  212.8790  147.5940 C   0  0  0  0  0  0  0  0  0  0  0  0
  158.6520  213.7310  150.2260 N   0  0  0  0  0  0  0  0  0  0  0  0
  159.5640  213.3510  151.0620 C   0  0  0  0  0  3  0  0  0  0  0  0
  159.2600  213.2290  152.4120 O   0  0  0  0  0  1  0  0  0  0  0  0
  161.8090  213.7990  146.7720 C   0  0  0  0  0  2  0  0  0  0  0  0
  160.5360  213.1040  144.6050 C   0  0  0  0  0  2  0  0  0  0  0  0
  161.5480  213.0480  142.5380 C   0  0  1  0  0  3  0  0  0  0  0  0
  160.5690  213.7050  143.3300 O   0  0  0  0  0  0  0  0  0  0  0  0
  161.8130  213.4030  145.3290 C   0  0  0  0  0  0  0  0  0  0  0  0
  162.9550  213.3800  144.6380 C   0  0  0  0  0  3  0  0  0  0  0  0
  162.9610  213.0520  143.1640 C   0  0  0  0  0  2  0  0  0  0  0  0
  161.1390  211.6860  142.1950 N   0  0  0  0  0  2  0  0  0  0  0  0
  161.0170  210.1190  138.4350 S   0  0  0  0  0  0  0  0  0  0  0  0
  160.7920  211.2720  140.8680 C   0  0  0  0  0  0  0  0  0  0  0  0
  159.4390  210.9100  138.9440 C   0  0  0  0  0  2  0  0  0  0  0  0
  159.5890  211.4270  140.3400 C   0  0  0  0  0  3  0  0  0  0  0  0
  161.7290  210.6230  139.9840 C   0  0  0  0  0  0  0  0  0  0  0  0
  162.9480  210.4610  140.2600 O   0  0  0  0  0  0  0  0  0  0  0  0
  162.0060  210.2460  150.0160 C   0  0  0  0  0  2  0  0  0  0  0  0
  162.4010  210.3150  151.4830 C   0  0  0  0  0  2  0  0  0  0  0  0
  161.5460  210.5450  153.7920 C   0  0  0  0  0  1  0  0  0  0  0  0
  161.1900  210.1180  152.3810 C   0  0  2  0  0  3  0  0  0  0  0  0
  160.7820  208.6630  152.3710 C   0  0  0  0  0  2  0  0  0  0  0  0
  160.8350  208.0900  153.7740 C   0  0  0  0  0  2  0  0  0  0  0  0
  161.4710  206.7180  153.7230 C   0  0  0  0  0  2  0  0  0  0  0  0
  160.7370  205.8500  152.7130 C   0  0  0  0  0  2  0  0  0  0  0  0
  161.6700  205.2360  151.6660 C   0  0  2  0  0  3  0  0  0  0  0  0
  163.1390  205.4110  152.0130 C   0  0  0  0  0  1  0  0  0  0  0  0
  160.0320  205.4980  149.8070 O   0  0  0  0  0  0  0  0  0  0  0  0
  161.3640  205.6850  150.2280 C   0  0  2  0  0  0  0  0  0  0  0  0
  161.0020  204.6630  149.2090 C   0  0  1  0  0  3  0  0  0  0  0  0
  160.9050  203.3230  149.7760 N   0  0  0  0  0  2  0  0  0  0  0  0
  161.2640  202.9040  147.4000 C   0  0  0  0  0  2  0  0  0  0  0  0
  161.3930  200.0880  147.9670 N   0  0  0  0  0  2  0  0  0  0  0  0
  160.5360  201.9200  146.5990 N   0  0  0  0  0  2  0  0  0  0  0  0
  161.5060  202.4000  148.8280 C   0  0  0  0  0  3  0  0  0  0  0  0
  161.2950  200.6690  146.6160 C   0  0  0  0  0  2  0  0  0  0  0  0
  160.9280  200.9960  149.0200 C   0  0  0  0  0  2  0  0  0  0  0  0
  162.0130  206.8090  149.6780 O   0  0  0  0  0  0  0  0  0  0  0  0
  161.2060  207.3140  148.6480 C   0  0  0  0  0  2  0  0  0  0  0  0
  161.8460  207.0080  147.3100 C   0  0  0  0  0  1  0  0  0  0  0  0
  1 24  1  1  0  0  0
  2  6  1  6  0  0  0
  2  3  1  0  0  0  0
  2  1  1  0  0  0  0
  3  1  1  0  0  0  0
  4  5  2  0  0  0  0
  5  7  1  0  0  0  0
  6  4  2  0  0  0  0
  7  8  2  0  0  0  0
  8  9  1  0  0  0  0
 10  6  1  0  0  0  0
 11 14  1  0  0  0  0
 12 17  1  1  0  0  0
 12 16  1  0  0  0  0
 12 13  1  0  0  0  0
 13 11  1  0  0  0  0
 14 10  1  0  0  0  0
 15 14  2  0  0  0  0
 16 15  1  0  0  0  0
 18 20  1  0  0  0  0
 18 22  1  0  0  0  0
 19 17  1  0  0  0  0
 20 21  1  0  0  0  0
 21 19  2  0  0  0  0
 22 23  2  0  0  0  0
 22 19  1  0  0  0  0
 24 25  1  0  0  0  0
 25 27  1  0  0  0  0
 27 26  1  1  0  0  0
 28 27  1  0  0  0  0
 28 29  1  0  0  0  0
 30 29  1  0  0  0  0
 31 30  1  0  0  0  0
 32 33  1  1  0  0  0
 32 31  1  0  0  0  0
 34 35  1  0  0  0  0
 35 44  1  6  0  0  0
 35 32  1  0  0  0  0
 36 37  1  1  0  0  0
 36 34  1  0  0  0  0
 36 35  1  0  0  0  0
 38 41  1  0  0  0  0
 39 43  1  0  0  0  0
 40 42  1  0  0  0  0
 40 38  1  0  0  0  0
 41 43  1  0  0  0  0
 41 37  1  0  0  0  0
 42 39  1  0  0  0  0
 45 44  1  0  0  0  0
 46 45  1  0  0  0  0
M  END
>  <MODEL>
2

>  <REMARK>
 VINA RESULT:      -6.7      1.499      2.560
  Name = 
  19 active torsions:
  status: ('A' for Active; 'I' for Inactive)
    1  A    between atoms: C_1  and  C_17
    2  A    between atoms: C_1  and  C_21
    3  A    between atoms: C_2  and  C_46
    4  A    between atoms: C_8  and  O_32
    5  A    between atoms: C_9  and  C_21
    6  A    between atoms: C_9  and  O_32
    7  A    between atoms: C_11  and  C_15
    8  A    between atoms: C_11  and  C_38
    9  A    between atoms: C_12  and  N_44
   10  A    between atoms: C_13  and  C_38
   11  A    between atoms: C_16  and  N_18
   12  A    between atoms: C_17  and  C_30
   13  A    between atoms: C_19  and  N_44
   14  A    between atoms: C_27  and  N_36
   15  A    between atoms: C_29  and  C_33
   16  A    between atoms: C_29  and  C_45
   17  A    between atoms: C_30  and  C_33
   18  A    between atoms: C_35  and  N_36
   19  A    between atoms: C_45  and  C_46
                            x       y       z     vdW  Elec       q    Type
                         _______ _______ _______ _____ _____    ______ ____

>  <TORSDO>
F 19

$$$$
=
 OpenBabel11072411103D

 46 50  0  0  1  0  0  0  0  0999 V2000
  161.3460  205.0940  149.8560 C   0  0  2  0  0  3  0  0  0  0  0  0
  160.9200  206.0140  150.9320 C   0  0  2  0  0  3  0  0  0  0  0  0
  162.1810  206.1310  150.3070 O   0  0  0  0  0  0  0  0  0  0  0  0
  160.9150  204.0260  152.3330 C   0  0  0  0  0  0  0  0  0  0  0  0
  160.7780  202.7260  152.4200 C   0  0  0  0  0  3  0  0  0  0  0  0
  161.0440  205.3230  152.2550 C   0  0  0  0  0  0  0  0  0  0  0  0
  161.2580  201.8250  151.4130 N   0  0  0  0  0  0  0  0  0  0  0  0
  160.7540  201.7480  150.2230 C   0  0  0  0  0  3  0  0  0  0  0  0
  161.2800  200.8490  149.3050 O   0  0  0  0  0  1  0  0  0  0  0  0
  161.6860  206.0400  153.4010 C   0  0  0  0  0  2  0  0  0  0  0  0
  161.0000  208.0870  154.8630 C   0  0  0  0  0  2  0  0  0  0  0  0
  160.6600  210.1840  153.9770 C   0  0  1  0  0  3  0  0  0  0  0  0
  161.4940  209.4060  154.8230 O   0  0  0  0  0  0  0  0  0  0  0  0
  161.1860  207.4450  153.5230 C   0  0  0  0  0  0  0  0  0  0  0  0
  160.9640  208.1800  152.4310 C   0  0  0  0  0  3  0  0  0  0  0  0
  160.5290  209.6210  152.5440 C   0  0  0  0  0  2  0  0  0  0  0  0
  159.3400  210.3980  154.5700 N   0  0  0  0  0  2  0  0  0  0  0  0
  156.5260  213.3460  154.5940 S   0  0  0  0  0  0  0  0  0  0  0  0
  158.5800  211.6000  154.4010 C   0  0  0  0  0  0  0  0  0  0  0  0
  158.1030  213.8530  153.7990 C   0  0  0  0  0  2  0  0  0  0  0  0
  159.0650  212.7090  153.8660 C   0  0  0  0  0  3  0  0  0  0  0  0
  157.2050  211.7190  154.8230 C   0  0  0  0  0  0  0  0  0  0  0  0
  156.5310  210.7550  155.2750 O   0  0  0  0  0  0  0  0  0  0  0  0
  160.6840  205.4950  148.5500 C   0  0  0  0  0  2  0  0  0  0  0  0
  160.5500  207.0070  148.4480 C   0  0  0  0  0  2  0  0  0  0  0  0
  162.2210  206.4290  146.7190 C   0  0  0  0  0  1  0  0  0  0  0  0
  161.5410  207.5740  147.4440 C   0  0  2  0  0  3  0  0  0  0  0  0
  162.5710  208.4100  148.1680 C   0  0  0  0  0  2  0  0  0  0  0  0
  161.8930  209.5040  148.9710 C   0  0  0  0  0  2  0  0  0  0  0  0
  162.3550  210.8500  148.4580 C   0  0  0  0  0  2  0  0  0  0  0  0
  161.4480  211.9440  149.0000 C   0  0  0  0  0  2  0  0  0  0  0  0
  161.3760  213.1670  148.0820 C   0  0  2  0  0  3  0  0  0  0  0  0
  161.8100  214.4490  148.7740 C   0  0  0  0  0  1  0  0  0  0  0  0
  159.5120  212.1610  146.7690 O   0  0  0  0  0  0  0  0  0  0  0  0
  160.0200  213.3280  147.3750 C   0  0  2  0  0  0  0  0  0  0  0  0
  159.9500  213.1830  145.8960 C   0  0  1  0  0  3  0  0  0  0  0  0
  161.2330  212.8060  145.3130 N   0  0  0  0  0  2  0  0  0  0  0  0
  160.0170  212.2790  143.2650 C   0  0  0  0  0  2  0  0  0  0  0  0
  162.4010  212.8480  141.7630 N   0  0  0  0  0  2  0  0  0  0  0  0
  160.4930  211.3900  142.2070 N   0  0  0  0  0  2  0  0  0  0  0  0
  161.1650  213.0820  143.8880 C   0  0  0  0  0  3  0  0  0  0  0  0
  161.1950  212.2010  141.2120 C   0  0  0  0  0  2  0  0  0  0  0  0
  162.4990  212.7380  143.2210 C   0  0  0  0  0  2  0  0  0  0  0  0
  159.0460  214.2070  147.8920 O   0  0  0  0  0  0  0  0  0  0  0  0
  158.0820  213.4390  148.5610 C   0  0  0  0  0  2  0  0  0  0  0  0
  158.2490  213.6100  150.0560 C   0  0  0  0  0  1  0  0  0  0  0  0
  1 24  1  6  0  0  0
  1  3  1  0  0  0  0
  1  2  1  0  0  0  0
  2  6  1  1  0  0  0
  3  2  1  0  0  0  0
  4  5  2  0  0  0  0
  6  4  2  0  0  0  0
  6 10  1  0  0  0  0
  7  5  1  0  0  0  0
  8  7  2  0  0  0  0
  9  8  1  0  0  0  0
 10 14  1  0  0  0  0
 12 17  1  1  0  0  0
 12 13  1  0  0  0  0
 13 11  1  0  0  0  0
 14 11  1  0  0  0  0
 15 16  1  0  0  0  0
 15 14  2  0  0  0  0
 16 12  1  0  0  0  0
 18 22  1  0  0  0  0
 19 17  1  0  0  0  0
 19 22  1  0  0  0  0
 20 21  1  0  0  0  0
 20 18  1  0  0  0  0
 21 19  2  0  0  0  0
 22 23  2  0  0  0  0
 25 24  1  0  0  0  0
 27 26  1  1  0  0  0
 27 28  1  0  0  0  0
 27 25  1  0  0  0  0
 28 29  1  0  0  0  0
 30 29  1  0  0  0  0
 30 31  1  0  0  0  0
 32 33  1  1  0  0  0
 32 31  1  0  0  0  0
 34 35  1  0  0  0  0
 35 44  1  1  0  0  0
 35 32  1  0  0  0  0
 36 37  1  6  0  0  0
 36 34  1  0  0  0  0
 36 35  1  0  0  0  0
 38 41  1  0  0  0  0
 39 43  1  0  0  0  0
 40 38  1  0  0  0  0
 41 37  1  0  0  0  0
 42 39  1  0  0  0  0
 42 40  1  0  0  0  0
 43 41  1  0  0  0  0
 44 45  1  0  0  0  0
 45 46  1  0  0  0  0
M  END
>  <MODEL>
3

>  <REMARK>
 VINA RESULT:      -6.3      3.663     10.212
  Name = 
  19 active torsions:
  status: ('A' for Active; 'I' for Inactive)
    1  A    between atoms: C_1  and  C_17
    2  A    between atoms: C_1  and  C_21
    3  A    between atoms: C_2  and  C_46
    4  A    between atoms: C_8  and  O_32
    5  A    between atoms: C_9  and  C_21
    6  A    between atoms: C_9  and  O_32
    7  A    between atoms: C_11  and  C_15
    8  A    between atoms: C_11  and  C_38
    9  A    between atoms: C_12  and  N_44
   10  A    between atoms: C_13  and  C_38
   11  A    between atoms: C_16  and  N_18
   12  A    between atoms: C_17  and  C_30
   13  A    between atoms: C_19  and  N_44
   14  A    between atoms: C_27  and  N_36
   15  A    between atoms: C_29  and  C_33
   16  A    between atoms: C_29  and  C_45
   17  A    between atoms: C_30  and  C_33
   18  A    between atoms: C_35  and  N_36
   19  A    between atoms: C_45  and  C_46
                            x       y       z     vdW  Elec       q    Type
                         _______ _______ _______ _____ _____    ______ ____

>  <TORSDO>
F 19

$$$$
=
 OpenBabel11072411103D

 46 50  0  0  1  0  0  0  0  0999 V2000
  161.6840  206.2060  152.8030 C   0  0  2  0  0  3  0  0  0  0  0  0
  160.4600  205.5690  152.2740 C   0  0  2  0  0  3  0  0  0  0  0  0
  161.1360  205.0600  153.4040 O   0  0  0  0  0  0  0  0  0  0  0  0
  160.9010  205.3730  149.8900 C   0  0  0  0  0  0  0  0  0  0  0  0
  160.9960  205.9610  148.7240 C   0  0  0  0  0  3  0  0  0  0  0  0
  160.8000  204.7780  151.0490 C   0  0  0  0  0  0  0  0  0  0  0  0
  161.5430  207.2760  148.5580 N   0  0  0  0  0  0  0  0  0  0  0  0
  161.7020  208.1120  149.5330 C   0  0  0  0  0  3  0  0  0  0  0  0
  162.2430  209.3670  149.2880 O   0  0  0  0  0  1  0  0  0  0  0  0
  161.3960  203.4140  151.1970 C   0  0  0  0  0  2  0  0  0  0  0  0
  162.1930  201.7230  149.3800 C   0  0  0  0  0  2  0  0  0  0  0  0
  160.7250  200.5700  148.0320 C   0  0  1  0  0  3  0  0  0  0  0  0
  161.6790  200.4460  149.0760 O   0  0  0  0  0  0  0  0  0  0  0  0
  161.1160  202.5560  150.0040 C   0  0  0  0  0  0  0  0  0  0  0  0
  159.8770  202.4620  149.5160 C   0  0  0  0  0  3  0  0  0  0  0  0
  159.5700  201.5440  148.3570 C   0  0  0  0  0  2  0  0  0  0  0  0
  161.3580  200.9260  146.7630 N   0  0  0  0  0  2  0  0  0  0  0  0
  160.1250  204.0830  144.4990 S   0  0  0  0  0  0  0  0  0  0  0  0
  161.1800  202.1910  146.1150 C   0  0  0  0  0  0  0  0  0  0  0  0
  161.5060  204.5010  145.6370 C   0  0  0  0  0  2  0  0  0  0  0  0
  161.8600  203.2820  146.4300 C   0  0  0  0  0  3  0  0  0  0  0  0
  160.2180  202.3990  145.0600 C   0  0  0  0  0  0  0  0  0  0  0  0
  159.5330  201.4710  144.5510 O   0  0  0  0  0  0  0  0  0  0  0  0
  161.3130  207.4380  153.6070 C   0  0  0  0  0  2  0  0  0  0  0  0
  160.6550  207.0540  154.9240 C   0  0  0  0  0  2  0  0  0  0  0  0
  160.2010  207.7240  157.2610 C   0  0  0  0  0  1  0  0  0  0  0  0
  161.0070  208.0490  156.0180 C   0  0  2  0  0  3  0  0  0  0  0  0
  160.6870  209.4500  155.5490 C   0  0  0  0  0  2  0  0  0  0  0  0
  160.4790  210.3700  156.7380 C   0  0  0  0  0  2  0  0  0  0  0  0
  160.6540  211.8030  156.2890 C   0  0  0  0  0  2  0  0  0  0  0  0
  160.3740  211.9120  154.7980 C   0  0  0  0  0  2  0  0  0  0  0  0
  159.4520  213.0830  154.4490 C   0  0  2  0  0  3  0  0  0  0  0  0
  159.0640  213.9090  155.6640 C   0  0  0  0  0  1  0  0  0  0  0  0
  158.4830  211.7850  152.5550 O   0  0  0  0  0  0  0  0  0  0  0  0
  158.2250  212.6750  153.6180 C   0  0  2  0  0  0  0  0  0  0  0  0
  158.1340  213.1070  152.1970 C   0  0  1  0  0  3  0  0  0  0  0  0
  159.3260  213.8210  151.7540 N   0  0  0  0  0  2  0  0  0  0  0  0
  157.5960  214.0610  150.0520 C   0  0  0  0  0  2  0  0  0  0  0  0
  159.6530  214.1530  148.0460 N   0  0  0  0  0  2  0  0  0  0  0  0
  157.5100  213.2760  148.8220 N   0  0  0  0  0  2  0  0  0  0  0  0
  159.0510  214.3580  150.4320 C   0  0  0  0  0  3  0  0  0  0  0  0
  158.2130  214.0060  147.7660 C   0  0  0  0  0  2  0  0  0  0  0  0
  160.0180  213.7580  149.4090 C   0  0  0  0  0  2  0  0  0  0  0  0
  156.9650  212.5230  154.2320 O   0  0  0  0  0  0  0  0  0  0  0  0
  156.8680  211.2050  154.7000 C   0  0  0  0  0  2  0  0  0  0  0  0
  155.7690  211.1190  155.7390 C   0  0  0  0  0  1  0  0  0  0  0  0
  1  3  1  0  0  0  0
  1 24  1  1  0  0  0
  2  6  1  6  0  0  0
  2  1  1  0  0  0  0
  2  3  1  0  0  0  0
  4  6  2  0  0  0  0
  5  4  2  0  0  0  0
  6 10  1  0  0  0  0
  7  5  1  0  0  0  0
  7  8  2  0  0  0  0
  9  8  1  0  0  0  0
 11 14  1  0  0  0  0
 12 17  1  6  0  0  0
 12 16  1  0  0  0  0
 12 13  1  0  0  0  0
 13 11  1  0  0  0  0
 14 10  1  0  0  0  0
 15 14  2  0  0  0  0
 16 15  1  0  0  0  0
 18 22  1  0  0  0  0
 18 20  1  0  0  0  0
 19 21  2  0  0  0  0
 19 17  1  0  0  0  0
 20 21  1  0  0  0  0
 22 19  1  0  0  0  0
 23 22  2  0  0  0  0
 24 25  1  0  0  0  0
 25 27  1  0  0  0  0
 27 26  1  1  0  0  0
 28 27  1  0  0  0  0
 28 29  1  0  0  0  0
 30 29  1  0  0  0  0
 31 30  1  0  0  0  0
 32 31  1  0  0  0  0
 32 33  1  1  0  0  0
 34 35  1  0  0  0  0
 35 44  1  1  0  0  0
 35 32  1  0  0  0  0
 36 37  1  1  0  0  0
 36 34  1  0  0  0  0
 36 35  1  0  0  0  0
 38 41  1  0  0  0  0
 39 43  1  0  0  0  0
 40 38  1  0  0  0  0
 41 37  1  0  0  0  0
 42 39  1  0  0  0  0
 42 40  1  0  0  0  0
 43 41  1  0  0  0  0
 44 45  1  0  0  0  0
 45 46  1  0  0  0  0
M  END
>  <MODEL>
4

>  <REMARK>
 VINA RESULT:      -5.9      4.232      9.593
  Name = 
  19 active torsions:
  status: ('A' for Active; 'I' for Inactive)
    1  A    between atoms: C_1  and  C_17
    2  A    between atoms: C_1  and  C_21
    3  A    between atoms: C_2  and  C_46
    4  A    between atoms: C_8  and  O_32
    5  A    between atoms: C_9  and  C_21
    6  A    between atoms: C_9  and  O_32
    7  A    between atoms: C_11  and  C_15
    8  A    between atoms: C_11  and  C_38
    9  A    between atoms: C_12  and  N_44
   10  A    between atoms: C_13  and  C_38
   11  A    between atoms: C_16  and  N_18
   12  A    between atoms: C_17  and  C_30
   13  A    between atoms: C_19  and  N_44
   14  A    between atoms: C_27  and  N_36
   15  A    between atoms: C_29  and  C_33
   16  A    between atoms: C_29  and  C_45
   17  A    between atoms: C_30  and  C_33
   18  A    between atoms: C_35  and  N_36
   19  A    between atoms: C_45  and  C_46
                            x       y       z     vdW  Elec       q    Type
                         _______ _______ _______ _____ _____    ______ ____

>  <TORSDO>
F 19

$$$$
=
 OpenBabel11072411103D

 46 50  0  0  1  0  0  0  0  0999 V2000
  161.2310  207.0660  147.4610 C   0  0  2  0  0  3  0  0  0  0  0  0
  162.0310  205.8310  147.6040 C   0  0  2  0  0  3  0  0  0  0  0  0
  162.4030  206.8610  146.7140 O   0  0  0  0  0  0  0  0  0  0  0  0
  161.1110  204.8180  145.5930 C   0  0  0  0  0  0  0  0  0  0  0  0
  160.8550  204.9200  144.3130 C   0  0  0  0  0  3  0  0  0  0  0  0
  161.3560  204.7130  146.8720 C   0  0  0  0  0  0  0  0  0  0  0  0
  161.7430  205.5690  143.3920 N   0  0  0  0  0  0  0  0  0  0  0  0
  161.4100  205.8910  142.1830 C   0  0  0  0  0  3  0  0  0  0  0  0
  162.3310  206.5210  141.3560 O   0  0  0  0  0  1  0  0  0  0  0  0
  161.3110  203.3510  147.4900 C   0  0  0  0  0  2  0  0  0  0  0  0
  160.9660  204.7370  149.6720 C   0  0  0  0  0  2  0  0  0  0  0  0
  160.4730  203.7590  151.6960 C   0  0  1  0  0  3  0  0  0  0  0  0
  159.9730  204.5930  150.6610 O   0  0  0  0  0  0  0  0  0  0  0  0
  161.1710  203.4250  148.9780 C   0  0  0  0  0  0  0  0  0  0  0  0
  161.1520  202.3100  149.7120 C   0  0  0  0  0  3  0  0  0  0  0  0
  160.9390  202.3700  151.2050 C   0  0  0  0  0  2  0  0  0  0  0  0
  161.5330  204.4190  152.4570 N   0  0  0  0  0  2  0  0  0  0  0  0
  161.3960  208.3260  153.6090 S   0  0  0  0  0  0  0  0  0  0  0  0
  161.3600  205.6640  153.1440 C   0  0  0  0  0  0  0  0  0  0  0  0
  160.6640  207.1780  154.8440 C   0  0  0  0  0  2  0  0  0  0  0  0
  160.7470  205.7830  154.3100 C   0  0  0  0  0  3  0  0  0  0  0  0
  161.8280  206.9210  152.6100 C   0  0  0  0  0  0  0  0  0  0  0  0
  162.5130  207.0160  151.5570 O   0  0  0  0  0  0  0  0  0  0  0  0
  161.5160  207.9970  148.6240 C   0  0  0  0  0  2  0  0  0  0  0  0
  161.5890  209.4440  148.1610 C   0  0  0  0  0  2  0  0  0  0  0  0
  161.7620  209.9680  150.5720 C   0  0  0  0  0  1  0  0  0  0  0  0
  162.2940  210.3100  149.1930 C   0  0  2  0  0  3  0  0  0  0  0  0
  162.0370  211.7680  148.8900 C   0  0  0  0  0  2  0  0  0  0  0  0
  162.9770  212.2550  147.8040 C   0  0  0  0  0  2  0  0  0  0  0  0
  162.5810  213.6580  147.4010 C   0  0  0  0  0  2  0  0  0  0  0  0
  161.2360  213.6280  146.6920 C   0  0  0  0  0  2  0  0  0  0  0  0
  161.3610  213.3830  145.1860 C   0  0  2  0  0  3  0  0  0  0  0  0
  162.2170  214.4280  144.4900 C   0  0  0  0  0  1  0  0  0  0  0  0
  159.5760  211.8500  144.3660 O   0  0  0  0  0  0  0  0  0  0  0  0
  160.0100  213.1860  144.4790 C   0  0  2  0  0  0  0  0  0  0  0  0
  159.9730  212.4850  143.1680 C   0  0  1  0  0  3  0  0  0  0  0  0
  161.2830  211.9870  142.7650 N   0  0  0  0  0  2  0  0  0  0  0  0
  160.0190  211.7940  140.6890 C   0  0  0  0  0  2  0  0  0  0  0  0
  162.4660  211.1770  139.3140 N   0  0  0  0  0  2  0  0  0  0  0  0
  160.1140  210.6830  139.7440 N   0  0  0  0  0  2  0  0  0  0  0  0
  161.3780  212.1170  141.3210 C   0  0  0  0  0  3  0  0  0  0  0  0
  161.1180  211.0270  138.7360 C   0  0  0  0  0  2  0  0  0  0  0  0
  162.4680  211.1900  140.7790 C   0  0  0  0  0  2  0  0  0  0  0  0
  158.9820  214.1390  144.6270 O   0  0  0  0  0  0  0  0  0  0  0  0
  157.8540  213.4820  145.1390 C   0  0  0  0  0  2  0  0  0  0  0  0
  157.0350  214.4530  145.9630 C   0  0  0  0  0  1  0  0  0  0  0  0
  1  2  1  0  0  0  0
  1 24  1  1  0  0  0
  2  6  1  6  0  0  0
  3  1  1  0  0  0  0
  3  2  1  0  0  0  0
  4  6  2  0  0  0  0
  5  4  2  0  0  0  0
  6 10  1  0  0  0  0
  7  5  1  0  0  0  0
  8  7  2  0  0  0  0
  9  8  1  0  0  0  0
 10 14  1  0  0  0  0
 11 13  1  0  0  0  0
 12 17  1  6  0  0  0
 13 12  1  0  0  0  0
 14 11  1  0  0  0  0
 14 15  2  0  0  0  0
 15 16  1  0  0  0  0
 16 12  1  0  0  0  0
 17 19  1  0  0  0  0
 18 20  1  0  0  0  0
 19 21  2  0  0  0  0
 21 20  1  0  0  0  0
 22 19  1  0  0  0  0
 22 18  1  0  0  0  0
 23 22  2  0  0  0  0
 25 24  1  0  0  0  0
 25 27  1  0  0  0  0
 27 26  1  1  0  0  0
 28 27  1  0  0  0  0
 29 28  1  0  0  0  0
 30 29  1  0  0  0  0
 31 30  1  0  0  0  0
 32 33  1  6  0  0  0
 32 31  1  0  0  0  0
 34 35  1  0  0  0  0
 35 44  1  1  0  0  0
 35 32  1  0  0  0  0
 36 37  1  1  0  0  0
 36 34  1  0  0  0  0
 36 35  1  0  0  0  0
 38 41  1  0  0  0  0
 39 43  1  0  0  0  0
 40 38  1  0  0  0  0
 41 37  1  0  0  0  0
 42 39  1  0  0  0  0
 42 40  1  0  0  0  0
 43 41  1  0  0  0  0
 44 45  1  0  0  0  0
 45 46  1  0  0  0  0
M  END
>  <MODEL>
5

>  <REMARK>
 VINA RESULT:      -5.5      3.347     10.399
  Name = 
  19 active torsions:
  status: ('A' for Active; 'I' for Inactive)
    1  A    between atoms: C_1  and  C_17
    2  A    between atoms: C_1  and  C_21
    3  A    between atoms: C_2  and  C_46
    4  A    between atoms: C_8  and  O_32
    5  A    between atoms: C_9  and  C_21
    6  A    between atoms: C_9  and  O_32
    7  A    between atoms: C_11  and  C_15
    8  A    between atoms: C_11  and  C_38
    9  A    between atoms: C_12  and  N_44
   10  A    between atoms: C_13  and  C_38
   11  A    between atoms: C_16  and  N_18
   12  A    between atoms: C_17  and  C_30
   13  A    between atoms: C_19  and  N_44
   14  A    between atoms: C_27  and  N_36
   15  A    between atoms: C_29  and  C_33
   16  A    between atoms: C_29  and  C_45
   17  A    between atoms: C_30  and  C_33
   18  A    between atoms: C_35  and  N_36
   19  A    between atoms: C_45  and  C_46
                            x       y       z     vdW  Elec       q    Type
                         _______ _______ _______ _____ _____    ______ ____

>  <TORSDO>
F 19

$$$$
=
 OpenBabel11072411103D

 46 50  0  0  1  0  0  0  0  0999 V2000
  158.8140  213.8410  152.1840 C   0  0  2  0  0  3  0  0  0  0  0  0
  157.9010  213.0020  152.9890 C   0  0  2  0  0  3  0  0  0  0  0  0
  157.4730  214.2070  152.3910 O   0  0  0  0  0  0  0  0  0  0  0  0
  157.2330  213.1210  155.3240 C   0  0  0  0  0  0  0  0  0  0  0  0
  156.2730  213.0490  156.2120 C   0  0  0  0  0  3  0  0  0  0  0  0
  158.1940  213.2030  154.4440 C   0  0  0  0  0  0  0  0  0  0  0  0
  155.1910  212.1130  156.1120 N   0  0  0  0  0  0  0  0  0  0  0  0
  155.2060  210.9400  156.6590 C   0  0  0  0  0  3  0  0  0  0  0  0
  154.1140  210.0940  156.5150 O   0  0  0  0  0  1  0  0  0  0  0  0
  159.6070  213.1130  154.9280 C   0  0  0  0  0  2  0  0  0  0  0  0
  161.2980  211.4070  155.9420 C   0  0  0  0  0  2  0  0  0  0  0  0
  160.6700  209.3060  156.6420 C   0  0  1  0  0  3  0  0  0  0  0  0
  161.1440  210.5750  157.0690 O   0  0  0  0  0  0  0  0  0  0  0  0
  159.9500  211.7260  155.3710 C   0  0  0  0  0  0  0  0  0  0  0  0
  159.0320  210.7570  155.3330 C   0  0  0  0  0  3  0  0  0  0  0  0
  159.3470  209.3720  155.8450 C   0  0  0  0  0  2  0  0  0  0  0  0
  161.6880  208.5740  155.8900 N   0  0  0  0  0  2  0  0  0  0  0  0
  161.2050  207.3470  152.0340 S   0  0  0  0  0  0  0  0  0  0  0  0
  161.4190  207.8590  154.6790 C   0  0  0  0  0  0  0  0  0  0  0  0
  160.8830  206.0210  153.2640 C   0  0  0  0  0  2  0  0  0  0  0  0
  161.1110  206.5720  154.6360 C   0  0  0  0  0  3  0  0  0  0  0  0
  161.4800  208.4780  153.3770 C   0  0  0  0  0  0  0  0  0  0  0  0
  161.6700  209.7120  153.2030 O   0  0  0  0  0  0  0  0  0  0  0  0
  158.9760  213.2380  150.8010 C   0  0  0  0  0  2  0  0  0  0  0  0
  160.4390  212.9530  150.4970 C   0  0  0  0  0  2  0  0  0  0  0  0
  159.5340  213.8350  148.3720 C   0  0  0  0  0  1  0  0  0  0  0  0
  160.7550  213.2280  149.0360 C   0  0  2  0  0  3  0  0  0  0  0  0
  161.1260  211.9360  148.3460 C   0  0  0  0  0  2  0  0  0  0  0  0
  162.3250  211.3000  149.0250 C   0  0  0  0  0  2  0  0  0  0  0  0
  161.9510  209.9080  149.4840 C   0  0  0  0  0  2  0  0  0  0  0  0
  161.6380  209.0370  148.2770 C   0  0  0  0  0  2  0  0  0  0  0  0
  161.9660  207.5600  148.5070 C   0  0  2  0  0  3  0  0  0  0  0  0
  163.4560  207.3090  148.6780 C   0  0  0  0  0  1  0  0  0  0  0  0
  159.9650  206.3670  147.6240 O   0  0  0  0  0  0  0  0  0  0  0  0
  161.3430  206.6190  147.4640 C   0  0  2  0  0  0  0  0  0  0  0  0
  160.8370  205.2880  147.8960 C   0  0  1  0  0  3  0  0  0  0  0  0
  160.9370  205.0970  149.3380 N   0  0  0  0  0  2  0  0  0  0  0  0
  161.5810  203.0240  148.2260 C   0  0  0  0  0  2  0  0  0  0  0  0
  160.8320  201.5790  150.5960 N   0  0  0  0  0  2  0  0  0  0  0  0
  160.7650  201.8120  148.1660 N   0  0  0  0  0  2  0  0  0  0  0  0
  161.4200  203.7460  149.5690 C   0  0  0  0  0  3  0  0  0  0  0  0
  161.1370  200.9570  149.2950 C   0  0  0  0  0  2  0  0  0  0  0  0
  160.4550  202.9910  150.4860 C   0  0  0  0  0  2  0  0  0  0  0  0
  161.7970  206.6320  146.1290 O   0  0  0  0  0  0  0  0  0  0  0  0
  161.6180  205.3470  145.5990 C   0  0  0  0  0  2  0  0  0  0  0  0
  161.2290  205.4530  144.1390 C   0  0  0  0  0  1  0  0  0  0  0  0
  1 24  1  6  0  0  0
  1  3  1  0  0  0  0
  1  2  1  0  0  0  0
  2  6  1  1  0  0  0
  3  2  1  0  0  0  0
  4  5  2  0  0  0  0
  6 10  1  0  0  0  0
  6  4  2  0  0  0  0
  7  5  1  0  0  0  0
  7  8  2  0  0  0  0
  9  8  1  0  0  0  0
 10 14  1  0  0  0  0
 11 13  1  0  0  0  0
 12 17  1  6  0  0  0
 12 13  1  0  0  0  0
 14 11  1  0  0  0  0
 15 14  2  0  0  0  0
 15 16  1  0  0  0  0
 16 12  1  0  0  0  0
 18 20  1  0  0  0  0
 18 22  1  0  0  0  0
 19 17  1  0  0  0  0
 20 21  1  0  0  0  0
 21 19  2  0  0  0  0
 22 19  1  0  0  0  0
 23 22  2  0  0  0  0
 25 24  1  0  0  0  0
 27 26  1  6  0  0  0
 27 25  1  0  0  0  0
 28 29  1  0  0  0  0
 28 27  1  0  0  0  0
 29 30  1  0  0  0  0
 31 32  1  0  0  0  0
 31 30  1  0  0  0  0
 32 33  1  6  0  0  0
 34 36  1  0  0  0  0
 35 44  1  6  0  0  0
 35 34  1  0  0  0  0
 35 36  1  0  0  0  0
 35 32  1  0  0  0  0
 36 37  1  1  0  0  0
 37 41  1  0  0  0  0
 38 41  1  0  0  0  0
 40 38  1  0  0  0  0
 40 42  1  0  0  0  0
 41 43  1  0  0  0  0
 42 39  1  0  0  0  0
 43 39  1  0  0  0  0
 45 44  1  0  0  0  0
 46 45  1  0  0  0  0
M  END
>  <MODEL>
6

>  <REMARK>
 VINA RESULT:      -4.9      4.468      8.611
  Name = 
  19 active torsions:
  status: ('A' for Active; 'I' for Inactive)
    1  A    between atoms: C_1  and  C_17
    2  A    between atoms: C_1  and  C_21
    3  A    between atoms: C_2  and  C_46
    4  A    between atoms: C_8  and  O_32
    5  A    between atoms: C_9  and  C_21
    6  A    between atoms: C_9  and  O_32
    7  A    between atoms: C_11  and  C_15
    8  A    between atoms: C_11  and  C_38
    9  A    between atoms: C_12  and  N_44
   10  A    between atoms: C_13  and  C_38
   11  A    between atoms: C_16  and  N_18
   12  A    between atoms: C_17  and  C_30
   13  A    between atoms: C_19  and  N_44
   14  A    between atoms: C_27  and  N_36
   15  A    between atoms: C_29  and  C_33
   16  A    between atoms: C_29  and  C_45
   17  A    between atoms: C_30  and  C_33
   18  A    between atoms: C_35  and  N_36
   19  A    between atoms: C_45  and  C_46
                            x       y       z     vdW  Elec       q    Type
                         _______ _______ _______ _____ _____    ______ ____

>  <TORSDO>
F 19

$$$$
=
 OpenBabel11072411103D

 46 50  0  0  1  0  0  0  0  0999 V2000
  162.3640  208.8420  150.5110 C   0  0  2  0  0  3  0  0  0  0  0  0
  161.1870  209.5600  149.9760 C   0  0  2  0  0  3  0  0  0  0  0  0
  162.3100  209.2670  149.1730 O   0  0  0  0  0  0  0  0  0  0  0  0
  160.7970  211.2950  151.6350 C   0  0  0  0  0  0  0  0  0  0  0  0
  160.3660  211.6170  152.8300 C   0  0  0  0  0  3  0  0  0  0  0  0
  161.2210  210.9840  150.4400 C   0  0  0  0  0  0  0  0  0  0  0  0
  160.5630  210.7800  153.9780 N   0  0  0  0  0  0  0  0  0  0  0  0
  161.3920  209.7870  154.0060 C   0  0  0  0  0  3  0  0  0  0  0  0
  161.5250  209.0280  155.1610 O   0  0  0  0  0  1  0  0  0  0  0  0
  162.0770  211.9730  149.7130 C   0  0  0  0  0  2  0  0  0  0  0  0
  161.2580  212.1090  147.2410 C   0  0  0  0  0  2  0  0  0  0  0  0
  159.6220  213.5760  146.5570 C   0  0  1  0  0  3  0  0  0  0  0  0
  159.9400  212.2060  146.7520 O   0  0  0  0  0  0  0  0  0  0  0  0
  161.3160  212.6690  148.6300 C   0  0  0  0  0  0  0  0  0  0  0  0
  160.6110  213.7700  148.8990 C   0  0  0  0  0  3  0  0  0  0  0  0
  159.7820  214.4390  147.8290 C   0  0  0  0  0  2  0  0  0  0  0  0
  160.3770  214.1530  145.4450 N   0  0  0  0  0  2  0  0  0  0  0  0
  161.7710  212.2100  142.1440 S   0  0  0  0  0  0  0  0  0  0  0  0
  160.5510  213.5010  144.1810 C   0  0  0  0  0  0  0  0  0  0  0  0
  159.9580  212.5100  142.1000 C   0  0  0  0  0  2  0  0  0  0  0  0
  159.5550  213.2040  143.3630 C   0  0  0  0  0  3  0  0  0  0  0  0
  161.8430  213.0880  143.6880 C   0  0  0  0  0  0  0  0  0  0  0  0
  162.9280  213.3550  144.2720 O   0  0  0  0  0  0  0  0  0  0  0  0
  162.0610  207.3570  150.5930 C   0  0  0  0  0  2  0  0  0  0  0  0
  160.9750  207.0760  151.6190 C   0  0  0  0  0  2  0  0  0  0  0  0
  162.7290  205.7720  152.7760 C   0  0  0  0  0  1  0  0  0  0  0  0
  161.2650  205.7930  152.3810 C   0  0  2  0  0  3  0  0  0  0  0  0
  160.9520  204.6020  151.5040 C   0  0  0  0  0  2  0  0  0  0  0  0
  160.4570  203.4420  152.3460 C   0  0  0  0  0  2  0  0  0  0  0  0
  160.9940  202.1500  151.7710 C   0  0  0  0  0  2  0  0  0  0  0  0
  161.4680  202.3820  150.3440 C   0  0  0  0  0  2  0  0  0  0  0  0
  160.4090  202.0230  149.2990 C   0  0  2  0  0  3  0  0  0  0  0  0
  159.3830  201.0290  149.8180 C   0  0  0  0  0  1  0  0  0  0  0  0
  162.3880  201.7700  147.8070 O   0  0  0  0  0  0  0  0  0  0  0  0
  160.9980  201.5850  147.9490 C   0  0  2  0  0  0  0  0  0  0  0  0
  161.5600  202.6150  147.0330 C   0  0  1  0  0  3  0  0  0  0  0  0
  161.5450  203.9500  147.6200 N   0  0  0  0  0  2  0  0  0  0  0  0
  161.0040  206.1930  146.8300 C   0  0  0  0  0  2  0  0  0  0  0  0
  161.4500  205.2970  144.1350 N   0  0  0  0  0  2  0  0  0  0  0  0
  160.0700  206.5020  145.7480 N   0  0  0  0  0  2  0  0  0  0  0  0
  161.7840  204.9030  146.5500 C   0  0  0  0  0  3  0  0  0  0  0  0
  160.8300  206.5830  144.5000 C   0  0  0  0  0  2  0  0  0  0  0  0
  161.3780  204.2970  145.2050 C   0  0  0  0  0  2  0  0  0  0  0  0
  160.4710  200.4690  147.2690 O   0  0  0  0  0  0  0  0  0  0  0  0
  161.5050  199.5380  147.0980 C   0  0  0  0  0  2  0  0  0  0  0  0
  161.3980  198.9110  145.7230 C   0  0  0  0  0  1  0  0  0  0  0  0
  1 24  1  6  0  0  0
  2  6  1  1  0  0  0
  2  1  1  0  0  0  0
  3  2  1  0  0  0  0
  3  1  1  0  0  0  0
  4  5  2  0  0  0  0
  5  7  1  0  0  0  0
  6  4  2  0  0  0  0
  7  8  2  0  0  0  0
  8  9  1  0  0  0  0
 10  6  1  0  0  0  0
 11 14  1  0  0  0  0
 12 17  1  6  0  0  0
 12 13  1  0  0  0  0
 12 16  1  0  0  0  0
 13 11  1  0  0  0  0
 14 15  2  0  0  0  0
 14 10  1  0  0  0  0
 16 15  1  0  0  0  0
 18 22  1  0  0  0  0
 19 17  1  0  0  0  0
 20 18  1  0  0  0  0
 20 21  1  0  0  0  0
 21 19  2  0  0  0  0
 22 19  1  0  0  0  0
 22 23  2  0  0  0  0
 24 25  1  0  0  0  0
 25 27  1  0  0  0  0
 27 26  1  6  0  0  0
 28 29  1  0  0  0  0
 28 27  1  0  0  0  0
 30 29  1  0  0  0  0
 31 30  1  0  0  0  0
 32 33  1  1  0  0  0
 32 31  1  0  0  0  0
 34 35  1  0  0  0  0
 35 44  1  6  0  0  0
 35 32  1  0  0  0  0
 36 37  1  1  0  0  0
 36 34  1  0  0  0  0
 36 35  1  0  0  0  0
 39 42  1  0  0  0  0
 39 43  1  0  0  0  0
 40 38  1  0  0  0  0
 41 38  1  0  0  0  0
 41 37  1  0  0  0  0
 42 40  1  0  0  0  0
 43 41  1  0  0  0  0
 45 44  1  0  0  0  0
 46 45  1  0  0  0  0
M  END
>  <MODEL>
7

>  <REMARK>
 VINA RESULT:      -4.6      2.162      3.492
  Name = 
  19 active torsions:
  status: ('A' for Active; 'I' for Inactive)
    1  A    between atoms: C_1  and  C_17
    2  A    between atoms: C_1  and  C_21
    3  A    between atoms: C_2  and  C_46
    4  A    between atoms: C_8  and  O_32
    5  A    between atoms: C_9  and  C_21
    6  A    between atoms: C_9  and  O_32
    7  A    between atoms: C_11  and  C_15
    8  A    between atoms: C_11  and  C_38
    9  A    between atoms: C_12  and  N_44
   10  A    between atoms: C_13  and  C_38
   11  A    between atoms: C_16  and  N_18
   12  A    between atoms: C_17  and  C_30
   13  A    between atoms: C_19  and  N_44
   14  A    between atoms: C_27  and  N_36
   15  A    between atoms: C_29  and  C_33
   16  A    between atoms: C_29  and  C_45
   17  A    between atoms: C_30  and  C_33
   18  A    between atoms: C_35  and  N_36
   19  A    between atoms: C_45  and  C_46
                            x       y       z     vdW  Elec       q    Type
                         _______ _______ _______ _____ _____    ______ ____

>  <TORSDO>
F 19

$$$$
=
 OpenBabel11072411103D

 46 50  0  0  1  0  0  0  0  0999 V2000
  162.3430  206.8920  141.0830 C   0  0  2  0  0  3  0  0  0  0  0  0
  161.4110  207.4150  140.0610 C   0  0  2  0  0  3  0  0  0  0  0  0
  162.3170  206.3700  139.7790 O   0  0  0  0  0  0  0  0  0  0  0  0
  161.4240  209.2390  138.4520 C   0  0  0  0  0  0  0  0  0  0  0  0
  160.9310  209.7590  137.3560 C   0  0  0  0  0  3  0  0  0  0  0  0
  161.9260  208.7220  139.5410 C   0  0  0  0  0  0  0  0  0  0  0  0
  159.5410  209.6710  137.0110 N   0  0  0  0  0  0  0  0  0  0  0  0
  158.6160  209.3260  137.8480 C   0  0  0  0  0  3  0  0  0  0  0  0
  157.2930  209.2680  137.4330 O   0  0  0  0  0  1  0  0  0  0  0  0
  162.7200  209.6110  140.4450 C   0  0  0  0  0  2  0  0  0  0  0  0
  162.6850  212.2140  140.5960 C   0  0  0  0  0  2  0  0  0  0  0  0
  160.7350  213.4170  140.8160 C   0  0  1  0  0  3  0  0  0  0  0  0
  161.8230  213.1250  139.9520 O   0  0  0  0  0  0  0  0  0  0  0  0
  161.9980  210.8900  140.7330 C   0  0  0  0  0  0  0  0  0  0  0  0
  160.7010  210.8790  141.0480 C   0  0  0  0  0  3  0  0  0  0  0  0
  159.9470  212.1670  141.2690 C   0  0  0  0  0  2  0  0  0  0  0  0
  161.1610  214.2050  141.9730 N   0  0  0  0  0  2  0  0  0  0  0  0
  161.3360  213.0060  145.8640 S   0  0  0  0  0  0  0  0  0  0  0  0
  160.8930  213.8310  143.3290 C   0  0  0  0  0  0  0  0  0  0  0  0
  159.6540  213.5250  145.3390 C   0  0  0  0  0  2  0  0  0  0  0  0
  159.7110  213.9640  143.9100 C   0  0  0  0  0  3  0  0  0  0  0  0
  161.9040  213.2880  144.2030 C   0  0  0  0  0  0  0  0  0  0  0  0
  163.0700  213.0000  143.8220 O   0  0  0  0  0  0  0  0  0  0  0  0
  161.5990  205.9640  142.0260 C   0  0  0  0  0  2  0  0  0  0  0  0
  162.2830  205.9010  143.3820 C   0  0  0  0  0  2  0  0  0  0  0  0
  160.1910  206.0960  144.6870 C   0  0  0  0  0  1  0  0  0  0  0  0
  161.3940  205.2160  144.4080 C   0  0  2  0  0  3  0  0  0  0  0  0
  162.1740  204.9900  145.6830 C   0  0  0  0  0  2  0  0  0  0  0  0
  161.2330  204.9220  146.8710 C   0  0  0  0  0  2  0  0  0  0  0  0
  161.4130  206.1660  147.7140 C   0  0  0  0  0  2  0  0  0  0  0  0
  161.1200  205.8450  149.1710 C   0  0  0  0  0  2  0  0  0  0  0  0
  161.3120  207.0490  150.0960 C   0  0  2  0  0  3  0  0  0  0  0  0
  162.3460  208.0340  149.5740 C   0  0  0  0  0  1  0  0  0  0  0  0
  160.4520  206.7160  152.4110 O   0  0  0  0  0  0  0  0  0  0  0  0
  161.5760  206.6660  151.5610 C   0  0  2  0  0  0  0  0  0  0  0  0
  161.4420  207.7040  152.6190 C   0  0  1  0  0  3  0  0  0  0  0  0
  160.9720  208.9800  152.0910 N   0  0  0  0  0  2  0  0  0  0  0  0
  159.5530  210.8770  152.6680 C   0  0  0  0  0  2  0  0  0  0  0  0
  161.0710  211.2140  155.0850 N   0  0  0  0  0  2  0  0  0  0  0  0
  160.0340  212.1880  153.1010 N   0  0  0  0  0  2  0  0  0  0  0  0
  160.4370  209.7460  153.2040 C   0  0  0  0  0  3  0  0  0  0  0  0
  160.0960  212.1890  154.5630 C   0  0  0  0  0  2  0  0  0  0  0  0
  161.5790  210.3010  154.0580 C   0  0  0  0  0  2  0  0  0  0  0  0
  162.5220  205.6710  151.8790 O   0  0  0  0  0  0  0  0  0  0  0  0
  162.0010  204.4330  151.4760 C   0  0  0  0  0  2  0  0  0  0  0  0
  160.8550  204.0470  152.3870 C   0  0  0  0  0  1  0  0  0  0  0  0
  1 24  1  1  0  0  0
  2  6  1  6  0  0  0
  2  1  1  0  0  0  0
  3  2  1  0  0  0  0
  3  1  1  0  0  0  0
  4  6  2  0  0  0  0
  5  4  2  0  0  0  0
  6 10  1  0  0  0  0
  7  5  1  0  0  0  0
  7  8  2  0  0  0  0
  9  8  1  0  0  0  0
 10 14  1  0  0  0  0
 11 14  1  0  0  0  0
 12 16  1  0  0  0  0
 12 17  1  1  0  0  0
 13 11  1  0  0  0  0
 13 12  1  0  0  0  0
 14 15  2  0  0  0  0
 15 16  1  0  0  0  0
 17 19  1  0  0  0  0
 19 21  2  0  0  0  0
 19 22  1  0  0  0  0
 20 18  1  0  0  0  0
 21 20  1  0  0  0  0
 22 18  1  0  0  0  0
 23 22  2  0  0  0  0
 24 25  1  0  0  0  0
 25 27  1  0  0  0  0
 27 26  1  1  0  0  0
 27 28  1  0  0  0  0
 28 29  1  0  0  0  0
 29 30  1  0  0  0  0
 30 31  1  0  0  0  0
 31 32  1  0  0  0  0
 32 33  1  6  0  0  0
 32 35  1  0  0  0  0
 34 36  1  0  0  0  0
 35 44  1  1  0  0  0
 35 34  1  0  0  0  0
 35 36  1  0  0  0  0
 36 37  1  6  0  0  0
 37 41  1  0  0  0  0
 38 40  1  0  0  0  0
 38 41  1  0  0  0  0
 40 42  1  0  0  0  0
 41 43  1  0  0  0  0
 42 39  1  0  0  0  0
 43 39  1  0  0  0  0
 45 44  1  0  0  0  0
 45 46  1  0  0  0  0
M  END
>  <MODEL>
8

>  <REMARK>
 VINA RESULT:      -4.6      3.298      7.920
  Name = 
  19 active torsions:
  status: ('A' for Active; 'I' for Inactive)
    1  A    between atoms: C_1  and  C_17
    2  A    between atoms: C_1  and  C_21
    3  A    between atoms: C_2  and  C_46
    4  A    between atoms: C_8  and  O_32
    5  A    between atoms: C_9  and  C_21
    6  A    between atoms: C_9  and  O_32
    7  A    between atoms: C_11  and  C_15
    8  A    between atoms: C_11  and  C_38
    9  A    between atoms: C_12  and  N_44
   10  A    between atoms: C_13  and  C_38
   11  A    between atoms: C_16  and  N_18
   12  A    between atoms: C_17  and  C_30
   13  A    between atoms: C_19  and  N_44
   14  A    between atoms: C_27  and  N_36
   15  A    between atoms: C_29  and  C_33
   16  A    between atoms: C_29  and  C_45
   17  A    between atoms: C_30  and  C_33
   18  A    between atoms: C_35  and  N_36
   19  A    between atoms: C_45  and  C_46
                            x       y       z     vdW  Elec       q    Type
                         _______ _______ _______ _____ _____    ______ ____

>  <TORSDO>
F 19

$$$$
