=
 OpenBabel11072410273D

 68 75  0  0  1  0  0  0  0  0999 V2000
  162.0380  209.1390  152.0950 C   0  0  0  0  0  2  0  0  0  0  0  0
  162.5970  211.0510  148.6540 C   0  0  1  0  0  3  0  0  0  0  0  0
  160.4300  207.4530  151.0390 N   0  0  2  0  0  0  0  0  0  0  0  0
  162.0760  209.0650  147.1570 N   0  0  0  0  0  2  0  0  0  0  0  0
  159.0670  211.4940  152.2980 C   0  0  0  0  0  0  0  0  0  0  0  0
  161.4150  207.7240  152.1090 C   0  0  2  0  0  3  0  0  0  0  0  0
  161.4490  211.2910  150.8750 C   0  0  0  0  0  0  0  0  0  0  0  0
  159.8980  210.4030  152.5430 C   0  0  0  0  0  3  0  0  0  0  0  0
  157.3580  213.1090  152.3670 N   0  0  0  0  0  0  0  0  0  0  0  0
  159.3930  212.4460  151.3860 C   0  0  0  0  0  0  0  0  0  0  0  0
  158.3790  213.5230  151.3880 C   0  0  1  0  0  3  0  0  0  0  0  0
  162.8320  209.6240  148.2340 C   0  0  0  0  0  0  0  0  0  0  0  0
  157.8080  211.8440  152.9770 C   0  0  0  0  0  2  0  0  0  0  0  0
  162.7680  211.2760  150.1640 C   0  0  0  0  0  2  0  0  0  0  0  0
  161.0940  210.2780  151.8070 C   0  0  0  0  0  0  0  0  0  0  0  0
  163.6750  208.9110  148.8440 O   0  0  0  0  0  0  0  0  0  0  0  0
  162.1700  205.9490  149.2640 C   0  0  2  0  0  3  0  0  0  0  0  0
  161.6780  205.3550  150.5910 C   0  0  0  0  0  2  0  0  0  0  0  0
  160.8810  207.2120  147.3240 C   0  0  2  0  0  3  0  0  0  0  0  0
  162.1220  207.7310  146.9040 O   0  0  0  0  0  0  0  0  0  0  0  0
  160.2880  206.0050  150.7730 C   0  0  2  0  0  3  0  0  0  0  0  0
  160.8730  207.9790  149.7410 C   0  0  0  0  0  2  0  0  0  0  0  0
  160.5910  212.3860  150.6720 C   0  0  0  0  0  3  0  0  0  0  0  0
  159.7910  205.9780  149.3520 C   0  0  0  0  0  2  0  0  0  0  0  0
  160.9480  206.7750  148.8150 C   0  0  2  0  0  0  0  0  0  0  0  0
  159.9140  205.5270  144.1690 C   0  0  0  0  0  2  0  0  0  0  0  0
  162.1880  205.6550  144.8060 O   0  0  0  0  0  1  0  0  0  0  0  0
  160.4610  206.0640  146.3930 C   0  0  1  0  0  3  0  0  0  0  0  0
  158.7480  205.3510  145.1170 C   0  0  2  0  0  3  0  0  0  0  0  0
  159.0620  205.9250  146.3640 O   0  0  0  0  0  0  0  0  0  0  0  0
  160.9380  206.2600  144.9740 C   0  0  2  0  0  3  0  0  0  0  0  0
  158.4410  203.9000  145.2810 C   0  0  0  0  0  3  0  0  0  0  0  0
  159.0230  202.9880  144.5000 C   0  0  0  0  0  3  0  0  0  0  0  0
  159.8790  200.7790  144.5810 O   0  0  0  0  0  1  0  0  0  0  0  0
  158.7090  201.5390  144.6660 C   0  0  0  0  0  2  0  0  0  0  0  0
  160.5260  208.4010  154.3930 N   0  0  0  0  0  1  0  0  0  0  0  0
  160.6980  206.1730  153.7760 O   0  0  0  0  0  0  0  0  0  0  0  0
  160.8650  207.3800  153.4610 C   0  0  0  0  0  0  0  0  0  0  0  0
  161.6250  203.9200  147.8120 N   0  0  0  0  0  0  0  0  0  0  0  0
  163.7730  204.8380  147.8950 O   0  0  0  0  0  0  0  0  0  0  0  0
  162.5800  204.8720  148.2960 C   0  0  0  0  0  0  0  0  0  0  0  0
  161.8810  202.9350  146.7670 C   0  0  2  0  0  3  0  0  0  0  0  0
  161.4280  200.2990  146.4340 O   0  0  0  0  0  0  0  0  0  0  0  0
  161.7970  201.3020  147.4930 S   0  0  0  0  0  0  0  0  0  0  0  0
  163.1510  200.9590  148.0650 O   0  0  0  0  0  0  0  0  0  0  0  0
  160.5970  201.2870  148.7480 N   0  0  0  0  0  2  0  0  0  0  0  0
  161.2810  201.0570  150.0100 C   0  0  0  0  0  2  0  0  0  0  0  0
  160.5050  201.7230  151.1330 C   0  0  0  0  0  1  0  0  0  0  0  0
  164.0180  204.0000  146.9650 O   0  0  0  0  0  0  0  0  0  0  0  0
  163.2670  203.1460  146.1610 C   0  0  0  0  0  2  0  0  0  0  0  0
  163.2960  211.9890  147.8630 O   0  0  0  0  0  0  0  0  0  0  0  0
  163.7270  213.0480  148.6780 C   0  0  0  0  0  1  0  0  0  0  0  0
  157.7610  213.6470  150.0740 N   0  0  0  0  0  2  0  0  0  0  0  0
  159.4070  212.2670  148.5360 O   0  0  0  0  0  0  0  0  0  0  0  0
  158.9970  213.6780  148.8550 S   0  0  0  0  0  0  0  0  0  0  0  0
  160.1980  214.4520  149.3330 O   0  0  0  0  0  0  0  0  0  0  0  0
  158.3610  214.4520  147.4400 N   0  0  0  0  0  2  0  0  0  0  0  0
  159.3980  214.4520  146.4210 C   0  0  0  0  0  2  0  0  0  0  0  0
  159.6870  213.0280  145.9610 C   0  0  0  0  0  2  0  0  0  0  0  0
  161.6630  213.0800  144.4200 C   0  0  0  0  0  2  0  0  0  0  0  0
  162.0920  212.8700  142.9930 C   0  0  0  0  0  3  0  0  0  0  0  0
  160.2090  213.0040  144.6010 N   0  0  0  0  0  0  0  0  0  0  0  0
  159.3040  212.9840  143.4850 C   0  0  0  0  0  3  0  0  0  0  0  0
  161.2150  212.8100  141.9900 C   0  0  0  0  0  3  0  0  0  0  0  0
  159.7690  212.9020  142.2390 C   0  0  0  0  0  3  0  0  0  0  0  0
  157.3340  214.1120  153.4210 C   0  0  0  0  0  2  0  0  0  0  0  0
  155.1890  213.8810  154.5450 N   0  0  0  0  0  1  0  0  0  0  0  0
  156.6080  213.5650  154.6340 C   0  0  0  0  0  2  0  0  0  0  0  0
  1  6  1  0  0  0  0
  2 51  1  6  0  0  0
  2 14  1  0  0  0  0
  3 22  1  6  0  0  0
  3  6  1  0  0  0  0
  4 12  1  0  0  0  0
  5  8  1  0  0  0  0
  5 13  1  0  0  0  0
  6 38  1  1  0  0  0
  7 15  1  0  0  0  0
  9 13  1  0  0  0  0
  9 66  1  0  0  0  0
 10 11  1  0  0  0  0
 10  5  2  0  0  0  0
 11 53  1  6  0  0  0
 11  9  1  0  0  0  0
 12  2  1  0  0  0  0
 12 16  2  0  0  0  0
 14  7  1  0  0  0  0
 15  1  1  0  0  0  0
 15  8  2  0  0  0  0
 17 41  1  6  0  0  0
 17 18  1  0  0  0  0
 18 21  1  0  0  0  0
 19 20  1  6  0  0  0
 19 25  1  0  0  0  0
 20  4  1  0  0  0  0
 21 24  1  6  0  0  0
 21  3  1  0  0  0  0
 23  7  2  0  0  0  0
 23 10  1  0  0  0  0
 25 17  1  0  0  0  0
 25 24  1  1  0  0  0
 25 22  1  0  0  0  0
 26 31  1  0  0  0  0
 26 29  1  0  0  0  0
 28 30  1  6  0  0  0
 28 19  1  0  0  0  0
 29 32  1  1  0  0  0
 29 30  1  0  0  0  0
 31 27  1  1  0  0  0
 31 28  1  0  0  0  0
 33 35  1  0  0  0  0
 33 32  2  0  0  0  0
 34 35  1  0  0  0  0
 38 37  2  0  0  0  0
 38 36  1  0  0  0  0
 39 41  2  0  0  0  0
 40 41  1  0  0  0  0
 42 44  1  1  0  0  0
 42 39  1  0  0  0  0
 43 44  2  0  0  0  0
 44 45  2  0  0  0  0
 44 46  1  0  0  0  0
 46 47  1  0  0  0  0
 47 48  1  0  0  0  0
 49 40  1  0  0  0  0
 50 42  1  0  0  0  0
 50 49  1  0  0  0  0
 51 52  1  0  0  0  0
 54 55  2  0  0  0  0
 55 56  2  0  0  0  0
 55 53  1  0  0  0  0
 57 55  1  0  0  0  0
 58 57  1  0  0  0  0
 59 58  1  0  0  0  0
 60 62  1  0  0  0  0
 61 60  1  0  0  0  0
 62 59  1  0  0  0  0
 63 62  1  0  0  0  0
 64 65  1  0  0  0  0
 64 61  2  0  0  0  0
 65 63  2  0  0  0  0
 66 68  1  0  0  0  0
 67 68  1  0  0  0  0
M  END
>  <MODEL>
1

>  <REMARK>
 VINA RESULT:      11.0      0.000      0.000
  Name = 
  19 active torsions:
  status: ('A' for Active; 'I' for Inactive)
    1  A    between atoms: N_1  and  C_51
    2  A    between atoms: C_2  and  C_21
    3  A    between atoms: C_3  and  C_37
    4  A    between atoms: C_9  and  O_40
    5  A    between atoms: C_16  and  C_44
    6  A    between atoms: C_20  and  C_57
    7  A    between atoms: C_22  and  N_54
    8  A    between atoms: N_23  and  C_24
    9  A    between atoms: N_23  and  S_50
   10  A    between atoms: C_24  and  C_31
   11  A    between atoms: C_26  and  C_45
   12  A    between atoms: N_27  and  C_45
   13  A    between atoms: C_30  and  N_33
   14  A    between atoms: C_31  and  N_34
   15  A    between atoms: C_32  and  C_51
   16  A    between atoms: N_33  and  S_50
   17  A    between atoms: C_51  and  S_65
   18  A    between atoms: C_52  and  C_63
   19  A    between atoms: N_54  and  S_65
                            x       y       z     vdW  Elec       q    Type
                         _______ _______ _______ _____ _____    ______ ____

>  <TORSDO>
F 19

$$$$
=
 OpenBabel11072410273D

 68 74  0  0  1  0  0  0  0  0999 V2000
  162.3440  209.2260  152.3400 C   0  0  0  0  0  2  0  0  0  0  0  0
  162.4900  211.0300  148.8000 C   0  0  1  0  0  3  0  0  0  0  0  0
  160.8180  207.3680  151.4680 N   0  0  2  0  0  0  0  0  0  0  0  0
  162.0400  208.9450  147.4190 N   0  0  0  0  0  2  0  0  0  0  0  0
  159.2010  211.3290  152.6760 C   0  0  0  0  0  0  0  0  0  0  0  0
  161.8490  207.7650  152.4510 C   0  0  2  0  0  3  0  0  0  0  0  0
  161.4850  211.2670  151.0890 C   0  0  0  0  0  0  0  0  0  0  0  0
  160.1390  210.3230  152.8980 C   0  0  0  0  0  3  0  0  0  0  0  0
  157.3670  212.7960  152.8130 N   0  0  0  0  0  0  0  0  0  0  0  0
  159.3780  212.2660  151.7080 C   0  0  0  0  0  0  0  0  0  0  0  0
  158.2760  213.2530  151.7470 C   0  0  1  0  0  3  0  0  0  0  0  0
  162.8180  209.6120  148.4160 C   0  0  0  0  0  0  0  0  0  0  0  0
  157.9670  211.6000  153.4330 C   0  0  0  0  0  2  0  0  0  0  0  0
  162.7470  211.3330  150.2840 C   0  0  0  0  0  2  0  0  0  0  0  0
  161.2860  210.2680  152.0810 C   0  0  0  0  0  0  0  0  0  0  0  0
  163.7610  208.9980  148.9870 O   0  0  0  0  0  0  0  0  0  0  0  0
  162.5530  205.9410  149.6250 C   0  0  2  0  0  3  0  0  0  0  0  0
  162.2090  205.3640  151.0050 C   0  0  0  0  0  2  0  0  0  0  0  0
  161.0250  207.0070  147.7410 C   0  0  2  0  0  3  0  0  0  0  0  0
  162.1830  207.6100  147.2120 O   0  0  0  0  0  0  0  0  0  0  0  0
  160.7840  205.9020  151.2660 C   0  0  2  0  0  3  0  0  0  0  0  0
  161.1210  207.8730  150.1230 C   0  0  0  0  0  2  0  0  0  0  0  0
  160.5240  212.2760  150.9110 C   0  0  0  0  0  3  0  0  0  0  0  0
  160.1920  205.7740  149.8880 C   0  0  0  0  0  2  0  0  0  0  0  0
  161.2340  206.6420  149.2380 C   0  0  2  0  0  0  0  0  0  0  0  0
  160.0750  205.1010  144.7090 C   0  0  0  0  0  2  0  0  0  0  0  0
  162.3520  205.3730  145.2830 O   0  0  0  0  0  1  0  0  0  0  0  0
  160.6410  205.7890  146.8850 C   0  0  1  0  0  3  0  0  0  0  0  0
  158.9390  204.9250  145.6930 C   0  0  2  0  0  3  0  0  0  0  0  0
  159.2510  205.5820  146.8980 O   0  0  0  0  0  0  0  0  0  0  0  0
  161.0790  205.9260  145.4470 C   0  0  2  0  0  3  0  0  0  0  0  0
  158.7060  203.4720  145.9460 C   0  0  0  0  0  3  0  0  0  0  0  0
  159.0970  202.5550  145.0580 C   0  0  0  0  0  3  0  0  0  0  0  0
  159.9650  200.3550  144.9070 O   0  0  0  0  0  1  0  0  0  0  0  0
  158.8580  201.1050  145.3140 C   0  0  0  0  0  2  0  0  0  0  0  0
  160.8030  206.1910  154.1540 N   0  0  0  0  0  1  0  0  0  0  0  0
  161.6330  208.2660  154.7750 O   0  0  0  0  0  0  0  0  0  0  0  0
  161.4280  207.4350  153.8520 C   0  0  0  0  0  0  0  0  0  0  0  0
  162.0330  203.9400  148.1250 N   0  0  0  0  0  2  0  0  0  0  0  0
  164.1970  204.8000  148.3310 O   0  0  0  0  0  0  0  0  0  0  0  0
  162.9860  204.8620  148.6690 C   0  0  0  0  0  0  0  0  0  0  0  0
  162.3190  202.9570  147.0860 C   0  0  2  0  0  3  0  0  0  0  0  0
  163.1350  200.7890  148.4630 O   0  0  0  0  0  0  0  0  0  0  0  0
  161.9410  201.3290  147.7230 S   0  0  0  0  0  0  0  0  0  0  0  0
  160.7690  201.4420  148.6680 O   0  0  0  0  0  0  0  0  0  0  0  0
  161.5480  200.2680  146.4060 N   0  0  0  0  0  2  0  0  0  0  0  0
  161.9750  198.9280  146.7760 C   0  0  0  0  0  2  0  0  0  0  0  0
  162.0970  198.0740  145.5270 C   0  0  0  0  0  1  0  0  0  0  0  0
  163.9300  203.6290  145.4440 O   0  0  0  0  0  1  0  0  0  0  0  0
  163.7920  203.0130  146.6870 C   0  0  0  0  0  2  0  0  0  0  0  0
  163.0480  211.9890  147.9250 O   0  0  0  0  0  0  0  0  0  0  0  0
  162.2490  213.1440  147.9400 C   0  0  0  0  0  1  0  0  0  0  0  0
  157.5590  213.2680  150.4780 N   0  0  0  0  0  2  0  0  0  0  0  0
  159.2160  212.2140  148.7110 O   0  0  0  0  0  0  0  0  0  0  0  0
  158.6830  213.5390  149.1820 S   0  0  0  0  0  0  0  0  0  0  0  0
  159.8270  214.4040  149.6400 O   0  0  0  0  0  0  0  0  0  0  0  0
  157.8540  214.3450  147.8900 N   0  0  0  0  0  2  0  0  0  0  0  0
  156.8320  213.4450  147.3790 C   0  0  0  0  0  2  0  0  0  0  0  0
  156.9980  213.2580  145.8750 C   0  0  0  0  0  2  0  0  0  0  0  0
  159.0830  211.8680  145.8810 C   0  0  0  0  0  2  0  0  0  0  0  0
  160.4670  211.7570  145.3010 C   0  0  0  0  0  3  0  0  0  0  0  0
  158.4000  213.1120  145.5090 N   0  0  0  0  0  0  0  0  0  0  0  0
  159.0920  214.1970  144.8700 C   0  0  0  0  0  3  0  0  0  0  0  0
  161.0560  212.7760  144.6730 C   0  0  0  0  0  3  0  0  0  0  0  0
  160.3560  214.0540  144.4770 C   0  0  0  0  0  3  0  0  0  0  0  0
  157.3310  213.8370  153.8290 C   0  0  0  0  0  2  0  0  0  0  0  0
  157.2210  214.0030  156.2530 N   0  0  0  0  0  1  0  0  0  0  0  0
  156.6920  213.2990  155.0930 C   0  0  0  0  0  2  0  0  0  0  0  0
  1  6  1  0  0  0  0
  2 51  1  6  0  0  0
  2 14  1  0  0  0  0
  3 22  1  6  0  0  0
  3  6  1  0  0  0  0
  4 12  1  0  0  0  0
  5  8  1  0  0  0  0
  5 13  1  0  0  0  0
  6 38  1  1  0  0  0
  7 15  1  0  0  0  0
  9 13  1  0  0  0  0
  9 66  1  0  0  0  0
 10 11  1  0  0  0  0
 10  5  2  0  0  0  0
 11 53  1  6  0  0  0
 11  9  1  0  0  0  0
 12  2  1  0  0  0  0
 12 16  2  0  0  0  0
 14  7  1  0  0  0  0
 15  1  1  0  0  0  0
 15  8  2  0  0  0  0
 17 41  1  6  0  0  0
 17 18  1  0  0  0  0
 18 21  1  0  0  0  0
 19 20  1  6  0  0  0
 19 25  1  0  0  0  0
 20  4  1  0  0  0  0
 21 24  1  6  0  0  0
 21  3  1  0  0  0  0
 23  7  2  0  0  0  0
 23 10  1  0  0  0  0
 25 17  1  0  0  0  0
 25 24  1  1  0  0  0
 25 22  1  0  0  0  0
 26 31  1  0  0  0  0
 26 29  1  0  0  0  0
 28 30  1  6  0  0  0
 28 19  1  0  0  0  0
 29 32  1  1  0  0  0
 29 30  1  0  0  0  0
 31 27  1  1  0  0  0
 31 28  1  0  0  0  0
 33 35  1  0  0  0  0
 33 32  2  0  0  0  0
 34 35  1  0  0  0  0
 38 36  1  0  0  0  0
 38 37  2  0  0  0  0
 39 41  1  0  0  0  0
 40 41  2  0  0  0  0
 42 50  1  1  0  0  0
 42 44  1  0  0  0  0
 42 39  1  0  0  0  0
 44 43  2  0  0  0  0
 44 45  2  0  0  0  0
 46 47  1  0  0  0  0
 46 44  1  0  0  0  0
 48 47  1  0  0  0  0
 49 50  1  0  0  0  0
 51 52  1  0  0  0  0
 54 55  2  0  0  0  0
 55 56  2  0  0  0  0
 55 53  1  0  0  0  0
 57 55  1  0  0  0  0
 58 57  1  0  0  0  0
 59 58  1  0  0  0  0
 61 60  1  0  0  0  0
 62 59  1  0  0  0  0
 62 60  1  0  0  0  0
 63 62  1  0  0  0  0
 64 61  2  0  0  0  0
 65 64  1  0  0  0  0
 65 63  2  0  0  0  0
 66 68  1  0  0  0  0
 68 67  1  0  0  0  0
M  END
>  <MODEL>
2

>  <REMARK>
 VINA RESULT:      14.0      1.335      1.618
  Name = 
  19 active torsions:
  status: ('A' for Active; 'I' for Inactive)
    1  A    between atoms: N_1  and  C_51
    2  A    between atoms: C_2  and  C_21
    3  A    between atoms: C_3  and  C_37
    4  A    between atoms: C_9  and  O_40
    5  A    between atoms: C_16  and  C_44
    6  A    between atoms: C_20  and  C_57
    7  A    between atoms: C_22  and  N_54
    8  A    between atoms: N_23  and  C_24
    9  A    between atoms: N_23  and  S_50
   10  A    between atoms: C_24  and  C_31
   11  A    between atoms: C_26  and  C_45
   12  A    between atoms: N_27  and  C_45
   13  A    between atoms: C_30  and  N_33
   14  A    between atoms: C_31  and  N_34
   15  A    between atoms: C_32  and  C_51
   16  A    between atoms: N_33  and  S_50
   17  A    between atoms: C_51  and  S_65
   18  A    between atoms: C_52  and  C_63
   19  A    between atoms: N_54  and  S_65
                            x       y       z     vdW  Elec       q    Type
                         _______ _______ _______ _____ _____    ______ ____

>  <TORSDO>
F 19

$$$$
