=
 OpenBabel11072410493D

 38 44  0  0  1  0  0  0  0  0999 V2000
  160.8930  207.5510  149.5710 C   0  0  0  0  0  2  0  0  0  0  0  0
  161.1220  207.5250  152.9430 C   0  0  0  0  0  0  0  0  0  0  0  0
  162.0700  205.2540  152.9080 O   0  0  0  0  0  0  0  0  0  0  0  0
  162.3530  207.6150  150.0170 C   0  0  2  0  0  3  0  0  0  0  0  0
  162.5360  206.9800  151.3590 N   0  0  0  0  0  0  0  0  0  0  0  0
  160.3470  207.4710  153.9360 O   0  0  0  0  0  0  0  0  0  0  0  0
  161.8750  206.4000  152.4250 C   0  0  0  0  0  0  0  0  0  0  0  0
  162.5670  208.4340  151.1030 C   0  0  2  0  0  3  0  0  0  0  0  0
  161.3960  208.7940  152.1010 C   0  0  2  0  0  3  0  0  0  0  0  0
  161.9000  210.1680  153.1820 S   0  0  0  0  0  0  0  0  0  0  0  0
  160.2080  210.7190  153.4430 C   0  0  0  0  0  0  0  0  0  0  0  0
  158.3990  212.2390  152.8810 C   0  0  0  0  0  0  0  0  0  0  0  0
  159.6180  210.4980  154.6350 C   0  0  0  0  0  3  0  0  0  0  0  0
  159.3890  211.3120  152.3160 C   0  0  1  0  0  3  0  0  0  0  0  0
  160.1460  212.2740  151.3970 C   0  0  0  0  0  2  0  0  0  0  0  0
  158.1620  210.8760  154.8270 C   0  0  1  0  0  3  0  0  0  0  0  0
  157.9030  211.1060  156.1640 F   0  0  0  0  0  0  0  0  0  0  0  0
  158.3280  213.3920  152.1480 O   0  0  0  0  0  0  0  0  0  0  0  0
  157.8360  212.0690  154.0390 N   0  0  0  0  0  0  0  0  0  0  0  0
  159.2770  213.4400  151.1490 N   0  0  0  0  0  2  0  0  0  0  0  0
  160.4090  206.1100  149.5060 C   0  0  0  0  0  2  0  0  0  0  0  0
  161.2360  205.0140  145.3890 C   0  0  0  0  0  2  0  0  0  0  0  0
  160.8130  203.2960  147.2220 C   0  0  1  0  0  3  0  0  0  0  0  0
  163.2450  205.0150  146.8800 C   0  0  0  0  0  2  0  0  0  0  0  0
  162.1550  205.5620  147.8120 C   0  0  2  0  0  0  0  0  0  0  0  0
  161.4260  204.2600  148.2610 C   0  0  1  0  0  3  0  0  0  0  0  0
  162.3160  202.8930  145.3800 F   0  0  0  0  0  0  0  0  0  0  0  0
  161.1260  203.5200  145.7240 C   0  0  2  0  0  0  0  0  0  0  0  0
  162.1770  205.8560  146.2860 C   0  0  2  0  0  3  0  0  0  0  0  0
  160.6560  205.5200  148.1290 C   0  0  1  0  0  3  0  0  0  0  0  0
  159.2220  203.6880  144.2720 O   0  0  0  0  0  0  0  0  0  0  0  0
  160.0170  202.9330  144.8970 C   0  0  0  0  0  0  0  0  0  0  0  0
  159.8410  201.5570  144.8370 O   0  0  0  0  0  1  0  0  0  0  0  0
  161.5670  201.0470  146.9020 O   0  0  0  0  0  0  0  0  0  0  0  0
  160.9790  201.8670  147.6550 C   0  0  0  0  0  0  0  0  0  0  0  0
  161.3210  200.9270  149.9180 O   0  0  0  0  0  1  0  0  0  0  0  0
  160.4540  201.4160  148.9500 C   0  0  0  0  0  0  0  0  0  0  0  0
  159.2200  201.4770  149.1960 O   0  0  0  0  0  0  0  0  0  0  0  0
  2  6  2  0  0  0  0
  4  1  1  1  0  0  0
  4  8  1  0  0  0  0
  4  5  1  0  0  0  0
  5  7  1  0  0  0  0
  7  3  2  0  0  0  0
  7  2  1  0  0  0  0
  8  5  1  1  0  0  0
  8  9  1  0  0  0  0
  9  2  1  0  0  0  0
  9 10  1  1  0  0  0
 10 11  1  0  0  0  0
 11 13  2  0  0  0  0
 12 19  2  0  0  0  0
 13 16  1  0  0  0  0
 14 15  1  6  0  0  0
 14 12  1  0  0  0  0
 14 11  1  0  0  0  0
 16 17  1  1  0  0  0
 18 12  1  0  0  0  0
 19 16  1  0  0  0  0
 20 15  1  0  0  0  0
 20 18  1  0  0  0  0
 21  1  1  0  0  0  0
 22 28  1  0  0  0  0
 22 29  1  0  0  0  0
 23 35  1  1  0  0  0
 23 26  1  0  0  0  0
 25 24  1  1  0  0  0
 25 30  1  0  0  0  0
 25 26  1  0  0  0  0
 27 28  1  0  0  0  0
 28 23  1  0  0  0  0
 29 24  1  0  0  0  0
 29 25  1  0  0  0  0
 30 26  1  0  0  0  0
 30 21  1  0  0  0  0
 31 32  2  0  0  0  0
 32 28  1  0  0  0  0
 33 32  1  0  0  0  0
 34 35  2  0  0  0  0
 35 37  1  0  0  0  0
 37 38  2  0  0  0  0
 37 36  1  0  0  0  0
M  END
>  <MODEL>
1

>  <REMARK>
 VINA RESULT:      -7.9      0.000      0.000
  Name = 
  8 active torsions:
  status: ('A' for Active; 'I' for Inactive)
    1  A    between atoms: C_3  and  C_6
    2  A    between atoms: C_3  and  C_15
    3  A    between atoms: C_5  and  S_19
    4  A    between atoms: C_6  and  C_36
    5  A    between atoms: C_8  and  C_38
    6  A    between atoms: C_12  and  C_38
    7  A    between atoms: S_19  and  C_37
    8  A    between atoms: C_26  and  C_28
                            x       y       z     vdW  Elec       q    Type
                         _______ _______ _______ _____ _____    ______ ____

>  <TORSDO>
F 8

$$$$
=
 OpenBabel11072410493D

 38 44  0  0  1  0  0  0  0  0999 V2000
  160.6810  206.3800  149.7180 C   0  0  0  0  0  2  0  0  0  0  0  0
  160.9600  207.9190  152.7140 C   0  0  0  0  0  0  0  0  0  0  0  0
  161.0260  205.7500  153.8750 O   0  0  0  0  0  0  0  0  0  0  0  0
  162.0750  206.1730  150.3070 C   0  0  2  0  0  3  0  0  0  0  0  0
  162.0470  206.2500  151.8010 N   0  0  0  0  0  0  0  0  0  0  0  0
  160.2390  208.6090  153.4850 O   0  0  0  0  0  0  0  0  0  0  0  0
  161.2460  206.5100  152.8960 C   0  0  0  0  0  0  0  0  0  0  0  0
  162.5930  207.2960  150.9130 C   0  0  2  0  0  3  0  0  0  0  0  0
  161.6530  208.4520  151.4360 C   0  0  2  0  0  3  0  0  0  0  0  0
  162.6410  209.9290  151.8290 S   0  0  0  0  0  0  0  0  0  0  0  0
  161.3610  211.0610  151.2720 C   0  0  0  0  0  0  0  0  0  0  0  0
  160.5840  212.7010  149.6580 C   0  0  0  0  0  0  0  0  0  0  0  0
  160.4960  211.5740  152.1710 C   0  0  0  0  0  3  0  0  0  0  0  0
  161.1520  211.3540  149.8010 C   0  0  1  0  0  3  0  0  0  0  0  0
  162.4340  211.5270  148.9830 C   0  0  0  0  0  2  0  0  0  0  0  0
  159.3580  212.4530  151.6910 C   0  0  1  0  0  3  0  0  0  0  0  0
  158.9510  213.2990  152.7050 F   0  0  0  0  0  0  0  0  0  0  0  0
  161.1920  213.3870  148.6420 O   0  0  0  0  0  0  0  0  0  0  0  0
  159.7730  213.2340  150.5210 N   0  0  0  0  0  0  0  0  0  0  0  0
  162.2500  212.6930  148.0970 N   0  0  0  0  0  2  0  0  0  0  0  0
  160.7630  207.0550  148.3560 C   0  0  0  0  0  2  0  0  0  0  0  0
  161.3360  204.5950  144.8270 C   0  0  0  0  0  2  0  0  0  0  0  0
  160.9140  203.6190  147.1430 C   0  0  1  0  0  3  0  0  0  0  0  0
  163.4120  204.9660  146.1750 C   0  0  0  0  0  2  0  0  0  0  0  0
  162.3960  205.8620  146.8970 C   0  0  2  0  0  0  0  0  0  0  0  0
  161.6250  204.8350  147.7790 C   0  0  1  0  0  3  0  0  0  0  0  0
  162.3060  202.5290  145.5030 F   0  0  0  0  0  0  0  0  0  0  0  0
  161.1670  203.3090  145.6490 C   0  0  2  0  0  0  0  0  0  0  0  0
  162.3600  205.6270  145.3610 C   0  0  2  0  0  3  0  0  0  0  0  0
  160.9140  206.0250  147.2520 C   0  0  1  0  0  3  0  0  0  0  0  0
  159.8940  201.3070  145.2840 O   0  0  0  0  0  1  0  0  0  0  0  0
  159.9910  202.5510  145.1000 C   0  0  0  0  0  0  0  0  0  0  0  0
  159.0160  203.2100  144.3620 O   0  0  0  0  0  0  0  0  0  0  0  0
  161.8510  201.5000  147.7430 O   0  0  0  0  0  0  0  0  0  0  0  0
  161.0280  202.4110  148.0280 C   0  0  0  0  0  0  0  0  0  0  0  0
  160.4450  203.0450  150.3470 O   0  0  0  0  0  1  0  0  0  0  0  0
  160.1820  202.2780  149.2190 C   0  0  0  0  0  0  0  0  0  0  0  0
  159.2090  201.4780  149.2260 O   0  0  0  0  0  0  0  0  0  0  0  0
  2  7  1  0  0  0  0
  2  6  2  0  0  0  0
  4  1  1  6  0  0  0
  4  8  1  0  0  0  0
  4  5  1  0  0  0  0
  5  7  1  0  0  0  0
  7  3  2  0  0  0  0
  8  9  1  0  0  0  0
  8  5  1  1  0  0  0
  9 10  1  1  0  0  0
  9  2  1  0  0  0  0
 11 10  1  0  0  0  0
 11 13  2  0  0  0  0
 12 14  1  0  0  0  0
 12 19  2  0  0  0  0
 14 15  1  6  0  0  0
 14 11  1  0  0  0  0
 16 13  1  0  0  0  0
 16 17  1  1  0  0  0
 18 12  1  0  0  0  0
 19 16  1  0  0  0  0
 20 18  1  0  0  0  0
 20 15  1  0  0  0  0
 21  1  1  0  0  0  0
 22 29  1  0  0  0  0
 22 28  1  0  0  0  0
 23 26  1  0  0  0  0
 23 35  1  1  0  0  0
 25 24  1  1  0  0  0
 25 30  1  0  0  0  0
 25 26  1  0  0  0  0
 27 28  1  0  0  0  0
 28 23  1  0  0  0  0
 29 24  1  0  0  0  0
 29 25  1  0  0  0  0
 30 26  1  0  0  0  0
 30 21  1  0  0  0  0
 32 31  1  0  0  0  0
 32 28  1  0  0  0  0
 33 32  2  0  0  0  0
 34 35  2  0  0  0  0
 35 37  1  0  0  0  0
 37 38  2  0  0  0  0
 37 36  1  0  0  0  0
M  END
>  <MODEL>
2

>  <REMARK>
 VINA RESULT:      -7.8      1.695      2.168
  Name = 
  8 active torsions:
  status: ('A' for Active; 'I' for Inactive)
    1  A    between atoms: C_3  and  C_6
    2  A    between atoms: C_3  and  C_15
    3  A    between atoms: C_5  and  S_19
    4  A    between atoms: C_6  and  C_36
    5  A    between atoms: C_8  and  C_38
    6  A    between atoms: C_12  and  C_38
    7  A    between atoms: S_19  and  C_37
    8  A    between atoms: C_26  and  C_28
                            x       y       z     vdW  Elec       q    Type
                         _______ _______ _______ _____ _____    ______ ____

>  <TORSDO>
F 8

$$$$
=
 OpenBabel11072410493D

 38 44  0  0  1  0  0  0  0  0999 V2000
  160.8860  206.7030  152.3440 C   0  0  0  0  0  2  0  0  0  0  0  0
  161.5860  208.4960  149.5660 C   0  0  0  0  0  0  0  0  0  0  0  0
  162.8190  210.1610  150.8940 O   0  0  0  0  0  0  0  0  0  0  0  0
  162.3710  206.6130  152.0000 C   0  0  2  0  0  3  0  0  0  0  0  0
  162.8250  207.8210  151.2430 N   0  0  0  0  0  0  0  0  0  0  0  0
  160.9720  209.2220  148.7380 O   0  0  0  0  0  0  0  0  0  0  0  0
  162.4050  208.9970  150.6520 C   0  0  0  0  0  0  0  0  0  0  0  0
  162.6210  206.4830  150.6520 C   0  0  2  0  0  3  0  0  0  0  0  0
  161.5640  206.9480  149.5740 C   0  0  2  0  0  3  0  0  0  0  0  0
  162.0230  206.3050  147.9350 S   0  0  0  0  0  0  0  0  0  0  0  0
  161.5880  204.6140  148.3620 C   0  0  0  0  0  0  0  0  0  0  0  0
  160.9030  202.3940  147.6520 C   0  0  0  0  0  0  0  0  0  0  0  0
  161.0880  204.3490  149.5860 C   0  0  0  0  0  3  0  0  0  0  0  0
  161.8850  203.4620  147.4230 C   0  0  1  0  0  3  0  0  0  0  0  0
  161.6190  203.7430  145.9430 C   0  0  0  0  0  2  0  0  0  0  0  0
  160.8100  202.9120  149.9810 C   0  0  1  0  0  3  0  0  0  0  0  0
  159.8360  202.8690  150.9610 F   0  0  0  0  0  0  0  0  0  0  0  0
  160.4500  201.8790  146.4680 O   0  0  0  0  0  0  0  0  0  0  0  0
  160.3820  202.1340  148.8130 N   0  0  0  0  0  0  0  0  0  0  0  0
  160.9330  202.5660  145.3760 N   0  0  0  0  0  2  0  0  0  0  0  0
  160.6210  206.1640  153.7430 C   0  0  0  0  0  2  0  0  0  0  0  0
  159.5530  208.9370  156.9050 C   0  0  0  0  0  2  0  0  0  0  0  0
  160.2240  209.6940  154.5670 C   0  0  1  0  0  3  0  0  0  0  0  0
  162.0110  208.5320  156.6750 C   0  0  0  0  0  2  0  0  0  0  0  0
  161.4260  207.5390  155.6610 C   0  0  2  0  0  0  0  0  0  0  0  0
  161.1390  208.4570  154.4350 C   0  0  1  0  0  3  0  0  0  0  0  0
  160.7320  210.9740  156.5470 F   0  0  0  0  0  0  0  0  0  0  0  0
  159.7770  210.1410  155.9790 C   0  0  2  0  0  0  0  0  0  0  0  0
  160.7030  207.9040  156.9870 C   0  0  2  0  0  3  0  0  0  0  0  0
  160.2620  207.2900  154.6960 C   0  0  1  0  0  3  0  0  0  0  0  0
  157.4220  210.2970  155.5460 O   0  0  0  0  0  0  0  0  0  0  0  0
  158.4840  210.8970  155.8680 C   0  0  0  0  0  0  0  0  0  0  0  0
  158.4520  212.2670  156.0920 O   0  0  0  0  0  1  0  0  0  0  0  0
  161.9270  211.2040  153.8260 O   0  0  0  0  0  0  0  0  0  0  0  0
  160.7300  210.8260  153.7190 C   0  0  0  0  0  0  0  0  0  0  0  0
  160.2870  212.6100  152.0620 O   0  0  0  0  0  0  0  0  0  0  0  0
  159.8380  211.5020  152.7700 C   0  0  0  0  0  0  0  0  0  0  0  0
  158.6660  211.0790  152.5820 O   0  0  0  0  0  1  0  0  0  0  0  0
  1 21  1  0  0  0  0
  2  9  1  0  0  0  0
  2  7  1  0  0  0  0
  4  1  1  6  0  0  0
  5  4  1  0  0  0  0
  6  2  2  0  0  0  0
  7  3  2  0  0  0  0
  7  5  1  0  0  0  0
  8  5  1  6  0  0  0
  8  4  1  0  0  0  0
  9 10  1  6  0  0  0
  9  8  1  0  0  0  0
 10 11  1  0  0  0  0
 11 13  2  0  0  0  0
 12 19  2  0  0  0  0
 13 16  1  0  0  0  0
 14 15  1  6  0  0  0
 14 12  1  0  0  0  0
 14 11  1  0  0  0  0
 16 17  1  1  0  0  0
 18 12  1  0  0  0  0
 19 16  1  0  0  0  0
 20 15  1  0  0  0  0
 20 18  1  0  0  0  0
 21 30  1  0  0  0  0
 22 29  1  0  0  0  0
 23 35  1  1  0  0  0
 23 28  1  0  0  0  0
 24 29  1  0  0  0  0
 25 24  1  1  0  0  0
 25 29  1  0  0  0  0
 26 23  1  0  0  0  0
 26 30  1  0  0  0  0
 26 25  1  0  0  0  0
 28 27  1  0  0  0  0
 28 22  1  0  0  0  0
 30 25  1  0  0  0  0
 31 32  2  0  0  0  0
 32 28  1  0  0  0  0
 32 33  1  0  0  0  0
 35 34  2  0  0  0  0
 36 37  2  0  0  0  0
 37 35  1  0  0  0  0
 38 37  1  0  0  0  0
M  END
>  <MODEL>
3

>  <REMARK>
 VINA RESULT:      -7.7      3.117      9.597
  Name = 
  8 active torsions:
  status: ('A' for Active; 'I' for Inactive)
    1  A    between atoms: C_3  and  C_6
    2  A    between atoms: C_3  and  C_15
    3  A    between atoms: C_5  and  S_19
    4  A    between atoms: C_6  and  C_36
    5  A    between atoms: C_8  and  C_38
    6  A    between atoms: C_12  and  C_38
    7  A    between atoms: S_19  and  C_37
    8  A    between atoms: C_26  and  C_28
                            x       y       z     vdW  Elec       q    Type
                         _______ _______ _______ _____ _____    ______ ____

>  <TORSDO>
F 8

$$$$
=
 OpenBabel11072410493D

 38 44  0  0  1  0  0  0  0  0999 V2000
  160.8860  207.2670  151.6070 C   0  0  0  0  0  2  0  0  0  0  0  0
  161.2800  207.5260  148.2600 C   0  0  0  0  0  0  0  0  0  0  0  0
  161.5290  209.9690  148.4320 O   0  0  0  0  0  0  0  0  0  0  0  0
  162.3230  207.6460  151.2580 C   0  0  2  0  0  3  0  0  0  0  0  0
  162.3880  208.3720  149.9510 N   0  0  0  0  0  0  0  0  0  0  0  0
  160.5770  207.4060  147.2200 O   0  0  0  0  0  0  0  0  0  0  0  0
  161.6470  208.7920  148.8630 C   0  0  0  0  0  0  0  0  0  0  0  0
  162.8230  206.9770  150.1630 C   0  0  2  0  0  3  0  0  0  0  0  0
  161.8620  206.3480  149.0780 C   0  0  2  0  0  3  0  0  0  0  0  0
  162.7990  205.2310  147.9890 S   0  0  0  0  0  0  0  0  0  0  0  0
  161.5990  203.9020  148.1490 C   0  0  0  0  0  0  0  0  0  0  0  0
  160.4560  202.2810  149.5520 C   0  0  0  0  0  0  0  0  0  0  0  0
  161.3140  203.1350  147.0760 C   0  0  0  0  0  3  0  0  0  0  0  0
  160.8090  203.7010  149.4260 C   0  0  1  0  0  3  0  0  0  0  0  0
  161.6060  203.8830  150.7200 C   0  0  0  0  0  2  0  0  0  0  0  0
  160.2350  202.0770  147.1830 C   0  0  1  0  0  3  0  0  0  0  0  0
  160.4580  201.0760  146.2560 F   0  0  0  0  0  0  0  0  0  0  0  0
  160.6500  201.8350  150.8310 O   0  0  0  0  0  0  0  0  0  0  0  0
  160.2060  201.5110  148.5360 N   0  0  0  0  0  0  0  0  0  0  0  0
  161.2340  202.7880  151.6370 N   0  0  0  0  0  2  0  0  0  0  0  0
  160.8390  206.4480  152.8890 C   0  0  0  0  0  2  0  0  0  0  0  0
  159.3300  208.3180  156.5030 C   0  0  0  0  0  2  0  0  0  0  0  0
  160.3140  209.6460  154.5630 C   0  0  1  0  0  3  0  0  0  0  0  0
  161.7990  207.9110  156.5060 C   0  0  0  0  0  2  0  0  0  0  0  0
  161.3640  207.2410  155.1950 C   0  0  2  0  0  0  0  0  0  0  0  0
  161.2450  208.4590  154.2310 C   0  0  1  0  0  3  0  0  0  0  0  0
  160.5370  210.3390  156.8620 F   0  0  0  0  0  0  0  0  0  0  0  0
  159.6740  209.7170  155.9700 C   0  0  2  0  0  0  0  0  0  0  0  0
  160.4630  207.2640  156.4610 C   0  0  2  0  0  3  0  0  0  0  0  0
  160.3460  207.2930  154.0510 C   0  0  1  0  0  3  0  0  0  0  0  0
  157.5940  210.3310  154.9430 O   0  0  0  0  0  0  0  0  0  0  0  0
  158.4040  210.5160  155.8920 C   0  0  0  0  0  0  0  0  0  0  0  0
  158.1260  211.4830  156.8480 O   0  0  0  0  0  1  0  0  0  0  0  0
  161.8450  211.4690  154.8070 O   0  0  0  0  0  0  0  0  0  0  0  0
  160.9260  210.9450  154.1230 C   0  0  0  0  0  0  0  0  0  0  0  0
  160.8290  211.1290  151.6580 O   0  0  0  0  0  0  0  0  0  0  0  0
  160.4560  211.6140  152.9050 C   0  0  0  0  0  0  0  0  0  0  0  0
  159.7060  212.6240  152.9790 O   0  0  0  0  0  1  0  0  0  0  0  0
  1 21  1  0  0  0  0
  2  7  1  0  0  0  0
  2  9  1  0  0  0  0
  3  7  2  0  0  0  0
  4  1  1  6  0  0  0
  5  4  1  0  0  0  0
  6  2  2  0  0  0  0
  7  5  1  0  0  0  0
  8  5  1  6  0  0  0
  8  4  1  0  0  0  0
  9 10  1  6  0  0  0
  9  8  1  0  0  0  0
 10 11  1  0  0  0  0
 11 14  1  0  0  0  0
 12 18  1  0  0  0  0
 13 16  1  0  0  0  0
 13 11  2  0  0  0  0
 14 12  1  0  0  0  0
 14 15  1  1  0  0  0
 15 20  1  0  0  0  0
 16 17  1  6  0  0  0
 16 19  1  0  0  0  0
 18 20  1  0  0  0  0
 19 12  2  0  0  0  0
 21 30  1  0  0  0  0
 23 35  1  1  0  0  0
 23 28  1  0  0  0  0
 25 29  1  0  0  0  0
 25 24  1  6  0  0  0
 26 23  1  0  0  0  0
 26 25  1  0  0  0  0
 28 22  1  0  0  0  0
 28 27  1  0  0  0  0
 29 22  1  0  0  0  0
 29 24  1  0  0  0  0
 30 26  1  0  0  0  0
 30 25  1  0  0  0  0
 31 32  2  0  0  0  0
 32 28  1  0  0  0  0
 32 33  1  0  0  0  0
 35 34  2  0  0  0  0
 36 37  2  0  0  0  0
 37 38  1  0  0  0  0
 37 35  1  0  0  0  0
M  END
>  <MODEL>
4

>  <REMARK>
 VINA RESULT:      -6.8      3.018      9.728
  Name = 
  8 active torsions:
  status: ('A' for Active; 'I' for Inactive)
    1  A    between atoms: C_3  and  C_6
    2  A    between atoms: C_3  and  C_15
    3  A    between atoms: C_5  and  S_19
    4  A    between atoms: C_6  and  C_36
    5  A    between atoms: C_8  and  C_38
    6  A    between atoms: C_12  and  C_38
    7  A    between atoms: S_19  and  C_37
    8  A    between atoms: C_26  and  C_28
                            x       y       z     vdW  Elec       q    Type
                         _______ _______ _______ _____ _____    ______ ____

>  <TORSDO>
F 8

$$$$
=
 OpenBabel11072410493D

 38 44  0  0  1  0  0  0  0  0999 V2000
  160.5020  207.0460  152.3640 C   0  0  0  0  0  2  0  0  0  0  0  0
  159.8490  208.7010  155.2380 C   0  0  0  0  0  0  0  0  0  0  0  0
  159.5840  206.5780  156.4550 O   0  0  0  0  0  0  0  0  0  0  0  0
  161.6550  206.8930  153.3530 C   0  0  2  0  0  3  0  0  0  0  0  0
  161.1780  207.0240  154.7650 N   0  0  0  0  0  0  0  0  0  0  0  0
  158.9230  209.4020  155.7280 O   0  0  0  0  0  0  0  0  0  0  0  0
  160.0810  207.3060  155.5560 C   0  0  0  0  0  0  0  0  0  0  0  0
  161.9560  208.0480  154.0400 C   0  0  2  0  0  3  0  0  0  0  0  0
  160.8900  209.2020  154.2080 C   0  0  2  0  0  3  0  0  0  0  0  0
  161.6990  210.7130  154.8170 S   0  0  0  0  0  0  0  0  0  0  0  0
  160.3640  211.7780  154.2570 C   0  0  0  0  0  0  0  0  0  0  0  0
  158.3470  213.0350  154.7600 C   0  0  0  0  0  0  0  0  0  0  0  0
  159.9850  211.7390  152.9630 C   0  0  0  0  0  3  0  0  0  0  0  0
  159.7370  212.8080  155.1750 C   0  0  1  0  0  3  0  0  0  0  0  0
  159.5040  212.3400  156.6130 C   0  0  0  0  0  2  0  0  0  0  0  0
  158.9260  212.7030  152.4670 C   0  0  1  0  0  3  0  0  0  0  0  0
  158.2900  212.1800  151.3580 F   0  0  0  0  0  0  0  0  0  0  0  0
  157.5110  213.0850  155.8420 O   0  0  0  0  0  0  0  0  0  0  0  0
  157.9470  212.9740  153.5260 N   0  0  0  0  0  0  0  0  0  0  0  0
  158.1600  212.7940  157.0220 N   0  0  0  0  0  2  0  0  0  0  0  0
  160.4490  205.8650  151.4060 C   0  0  0  0  0  2  0  0  0  0  0  0
  161.1170  207.7410  147.5500 C   0  0  0  0  0  2  0  0  0  0  0  0
  161.3440  205.2320  147.9280 C   0  0  1  0  0  3  0  0  0  0  0  0
  163.1950  207.3810  148.8970 C   0  0  0  0  0  2  0  0  0  0  0  0
  162.0990  206.9410  149.8760 C   0  0  2  0  0  0  0  0  0  0  0  0
  161.7850  205.4960  149.3840 C   0  0  1  0  0  3  0  0  0  0  0  0
  162.7080  206.4400  146.3490 F   0  0  0  0  0  0  0  0  0  0  0  0
  161.4370  206.3860  146.9020 C   0  0  2  0  0  0  0  0  0  0  0  0
  161.8900  208.0870  148.8470 C   0  0  2  0  0  3  0  0  0  0  0  0
  160.7020  206.3170  149.9790 C   0  0  1  0  0  3  0  0  0  0  0  0
  159.2040  206.2040  146.0390 O   0  0  0  0  0  1  0  0  0  0  0  0
  160.4430  206.1460  145.8020 C   0  0  0  0  0  0  0  0  0  0  0  0
  160.8780  205.8310  144.5210 O   0  0  0  0  0  0  0  0  0  0  0  0
  163.0230  203.9420  146.8110 O   0  0  0  0  0  0  0  0  0  0  0  0
  161.9210  203.9410  147.4210 C   0  0  0  0  0  0  0  0  0  0  0  0
  160.8990  202.2490  148.9100 O   0  0  0  0  0  1  0  0  0  0  0  0
  161.2060  202.6750  147.6230 C   0  0  0  0  0  0  0  0  0  0  0  0
  160.8570  201.9730  146.6370 O   0  0  0  0  0  0  0  0  0  0  0  0
  2  7  1  0  0  0  0
  2  6  2  0  0  0  0
  4  1  1  6  0  0  0
  4  8  1  0  0  0  0
  4  5  1  0  0  0  0
  5  7  1  0  0  0  0
  7  3  2  0  0  0  0
  8  9  1  0  0  0  0
  8  5  1  1  0  0  0
  9 10  1  1  0  0  0
  9  2  1  0  0  0  0
 11 10  1  0  0  0  0
 11 14  1  0  0  0  0
 12 14  1  0  0  0  0
 12 18  1  0  0  0  0
 13 11  2  0  0  0  0
 14 15  1  1  0  0  0
 15 20  1  0  0  0  0
 16 17  1  6  0  0  0
 16 13  1  0  0  0  0
 16 19  1  0  0  0  0
 18 20  1  0  0  0  0
 19 12  2  0  0  0  0
 21  1  1  0  0  0  0
 22 29  1  0  0  0  0
 23 35  1  6  0  0  0
 23 26  1  0  0  0  0
 25 24  1  1  0  0  0
 25 30  1  0  0  0  0
 26 25  1  0  0  0  0
 26 30  1  0  0  0  0
 27 28  1  0  0  0  0
 28 22  1  0  0  0  0
 28 23  1  0  0  0  0
 29 24  1  0  0  0  0
 29 25  1  0  0  0  0
 30 21  1  0  0  0  0
 32 31  1  0  0  0  0
 32 28  1  0  0  0  0
 33 32  2  0  0  0  0
 34 35  2  0  0  0  0
 35 37  1  0  0  0  0
 37 36  1  0  0  0  0
 38 37  2  0  0  0  0
M  END
>  <MODEL>
5

>  <REMARK>
 VINA RESULT:      -6.3      2.221      3.191
  Name = 
  8 active torsions:
  status: ('A' for Active; 'I' for Inactive)
    1  A    between atoms: C_3  and  C_6
    2  A    between atoms: C_3  and  C_15
    3  A    between atoms: C_5  and  S_19
    4  A    between atoms: C_6  and  C_36
    5  A    between atoms: C_8  and  C_38
    6  A    between atoms: C_12  and  C_38
    7  A    between atoms: S_19  and  C_37
    8  A    between atoms: C_26  and  C_28
                            x       y       z     vdW  Elec       q    Type
                         _______ _______ _______ _____ _____    ______ ____

>  <TORSDO>
F 8

$$$$
=
 OpenBabel11072410493D

 38 44  0  0  1  0  0  0  0  0999 V2000
  162.2120  208.6410  149.6830 C   0  0  0  0  0  2  0  0  0  0  0  0
  161.9520  206.7290  152.4580 C   0  0  0  0  0  0  0  0  0  0  0  0
  161.0080  208.6150  153.7270 O   0  0  0  0  0  0  0  0  0  0  0  0
  160.7490  208.3430  150.0020 C   0  0  2  0  0  3  0  0  0  0  0  0
  160.5540  208.0930  151.4640 N   0  0  0  0  0  0  0  0  0  0  0  0
  162.7180  206.1980  153.3080 O   0  0  0  0  0  0  0  0  0  0  0  0
  161.2050  207.9520  152.6750 C   0  0  0  0  0  0  0  0  0  0  0  0
  160.5230  207.0500  150.4200 C   0  0  2  0  0  3  0  0  0  0  0  0
  161.6840  206.1750  151.0380 C   0  0  2  0  0  3  0  0  0  0  0  0
  161.1680  204.4330  151.1310 S   0  0  0  0  0  0  0  0  0  0  0  0
  161.1530  204.2340  149.3450 C   0  0  0  0  0  0  0  0  0  0  0  0
  161.2130  202.7680  147.4080 C   0  0  0  0  0  0  0  0  0  0  0  0
  161.5940  205.2410  148.5640 C   0  0  0  0  0  3  0  0  0  0  0  0
  160.5410  203.0110  148.6920 C   0  0  1  0  0  3  0  0  0  0  0  0
  160.8360  201.6830  149.3920 C   0  0  0  0  0  2  0  0  0  0  0  0
  161.4940  205.1140  147.0570 C   0  0  1  0  0  3  0  0  0  0  0  0
  162.4450  205.9100  146.4480 F   0  0  0  0  0  0  0  0  0  0  0  0
  161.4860  201.4390  147.2390 O   0  0  0  0  0  0  0  0  0  0  0  0
  161.6740  203.7160  146.6490 N   0  0  0  0  0  0  0  0  0  0  0  0
  161.1750  200.6910  148.3530 N   0  0  0  0  0  2  0  0  0  0  0  0
  162.3320  209.4580  148.4050 C   0  0  0  0  0  2  0  0  0  0  0  0
  159.9520  212.9970  149.2080 C   0  0  0  0  0  2  0  0  0  0  0  0
  160.3510  212.1000  146.8570 C   0  0  1  0  0  3  0  0  0  0  0  0
  162.3410  213.4690  148.6330 C   0  0  0  0  0  2  0  0  0  0  0  0
  162.3230  211.9350  148.6930 C   0  0  2  0  0  0  0  0  0  0  0  0
  161.7290  211.5620  147.3020 C   0  0  1  0  0  3  0  0  0  0  0  0
  160.1150  214.4530  147.3310 F   0  0  0  0  0  0  0  0  0  0  0  0
  159.6690  213.1950  147.7120 C   0  0  2  0  0  0  0  0  0  0  0  0
  161.4360  212.8190  149.6140 C   0  0  2  0  0  3  0  0  0  0  0  0
  161.4520  210.6940  148.4710 C   0  0  1  0  0  3  0  0  0  0  0  0
  157.4590  212.4560  148.2880 O   0  0  0  0  0  1  0  0  0  0  0  0
  158.1830  213.1270  147.5010 C   0  0  0  0  0  0  0  0  0  0  0  0
  157.5980  213.7800  146.4250 O   0  0  0  0  0  0  0  0  0  0  0  0
  159.3780  212.0370  144.6710 O   0  0  0  0  0  0  0  0  0  0  0  0
  160.3460  212.4070  145.3870 C   0  0  0  0  0  0  0  0  0  0  0  0
  162.1440  212.5750  143.6940 O   0  0  0  0  0  0  0  0  0  0  0  0
  161.4660  213.1300  144.7730 C   0  0  0  0  0  0  0  0  0  0  0  0
  161.8160  214.2580  145.2110 O   0  0  0  0  0  1  0  0  0  0  0  0
  2  7  1  0  0  0  0
  2  6  2  0  0  0  0
  4  1  1  1  0  0  0
  4  8  1  0  0  0  0
  4  5  1  0  0  0  0
  5  7  1  0  0  0  0
  7  3  2  0  0  0  0
  8  9  1  0  0  0  0
  8  5  1  1  0  0  0
  9 10  1  1  0  0  0
  9  2  1  0  0  0  0
 11 10  1  0  0  0  0
 12 14  1  0  0  0  0
 13 11  2  0  0  0  0
 14 11  1  0  0  0  0
 14 15  1  1  0  0  0
 16 17  1  6  0  0  0
 16 13  1  0  0  0  0
 18 12  1  0  0  0  0
 18 20  1  0  0  0  0
 19 16  1  0  0  0  0
 19 12  2  0  0  0  0
 20 15  1  0  0  0  0
 21 30  1  0  0  0  0
 21  1  1  0  0  0  0
 22 29  1  0  0  0  0
 23 35  1  6  0  0  0
 23 26  1  0  0  0  0
 23 28  1  0  0  0  0
 24 29  1  0  0  0  0
 25 24  1  1  0  0  0
 25 29  1  0  0  0  0
 26 30  1  0  0  0  0
 26 25  1  0  0  0  0
 27 28  1  0  0  0  0
 28 22  1  0  0  0  0
 30 25  1  0  0  0  0
 32 28  1  0  0  0  0
 32 31  1  0  0  0  0
 33 32  2  0  0  0  0
 34 35  2  0  0  0  0
 36 37  2  0  0  0  0
 37 38  1  0  0  0  0
 37 35  1  0  0  0  0
M  END
>  <MODEL>
6

>  <REMARK>
 VINA RESULT:      -6.3      4.337      9.013
  Name = 
  8 active torsions:
  status: ('A' for Active; 'I' for Inactive)
    1  A    between atoms: C_3  and  C_6
    2  A    between atoms: C_3  and  C_15
    3  A    between atoms: C_5  and  S_19
    4  A    between atoms: C_6  and  C_36
    5  A    between atoms: C_8  and  C_38
    6  A    between atoms: C_12  and  C_38
    7  A    between atoms: S_19  and  C_37
    8  A    between atoms: C_26  and  C_28
                            x       y       z     vdW  Elec       q    Type
                         _______ _______ _______ _____ _____    ______ ____

>  <TORSDO>
F 8

$$$$
=
 OpenBabel11072410493D

 38 44  0  0  1  0  0  0  0  0999 V2000
  160.8130  208.2930  151.7800 C   0  0  0  0  0  2  0  0  0  0  0  0
  161.3620  208.1770  148.4470 C   0  0  0  0  0  0  0  0  0  0  0  0
  162.4960  210.3600  148.5110 O   0  0  0  0  0  0  0  0  0  0  0  0
  162.2970  208.0910  151.4810 C   0  0  2  0  0  3  0  0  0  0  0  0
  162.6610  208.6580  150.1450 N   0  0  0  0  0  0  0  0  0  0  0  0
  160.6920  208.2590  147.3820 O   0  0  0  0  0  0  0  0  0  0  0  0
  162.1580  209.2530  149.0040 C   0  0  0  0  0  0  0  0  0  0  0  0
  162.5410  207.2170  150.4450 C   0  0  2  0  0  3  0  0  0  0  0  0
  161.4430  206.9210  149.3480 C   0  0  2  0  0  3  0  0  0  0  0  0
  161.9250  205.4710  148.3600 S   0  0  0  0  0  0  0  0  0  0  0  0
  161.5650  204.3160  149.6900 C   0  0  0  0  0  0  0  0  0  0  0  0
  160.6530  202.1830  150.4110 C   0  0  0  0  0  0  0  0  0  0  0  0
  161.3930  204.7830  150.9430 C   0  0  0  0  0  3  0  0  0  0  0  0
  161.5730  202.8190  149.4590 C   0  0  1  0  0  3  0  0  0  0  0  0
  160.9400  202.3600  148.1430 C   0  0  0  0  0  2  0  0  0  0  0  0
  161.1840  203.8040  152.0810 C   0  0  1  0  0  3  0  0  0  0  0  0
  160.4980  204.4150  153.1140 F   0  0  0  0  0  0  0  0  0  0  0  0
  159.8920  201.2260  149.7970 O   0  0  0  0  0  0  0  0  0  0  0  0
  160.4440  202.6270  151.6130 N   0  0  0  0  0  0  0  0  0  0  0  0
  160.0950  201.1860  148.4350 N   0  0  0  0  0  2  0  0  0  0  0  0
  160.4870  209.7720  151.9260 C   0  0  0  0  0  2  0  0  0  0  0  0
  159.1050  210.0800  156.0290 C   0  0  0  0  0  2  0  0  0  0  0  0
  158.6630  211.8790  154.2790 C   0  0  1  0  0  3  0  0  0  0  0  0
  161.2830  211.2300  155.5840 C   0  0  0  0  0  2  0  0  0  0  0  0
  161.0050  210.5390  154.2420 C   0  0  2  0  0  0  0  0  0  0  0  0
  159.9890  211.5140  153.5760 C   0  0  1  0  0  3  0  0  0  0  0  0
  158.9970  212.3860  156.6130 F   0  0  0  0  0  0  0  0  0  0  0  0
  158.4560  211.4430  155.7490 C   0  0  2  0  0  0  0  0  0  0  0  0
  160.5860  209.9200  155.6040 C   0  0  2  0  0  3  0  0  0  0  0  0
  159.8980  210.0610  153.2960 C   0  0  1  0  0  3  0  0  0  0  0  0
  156.2290  210.7260  155.2110 O   0  0  0  0  0  0  0  0  0  0  0  0
  156.9840  211.3280  156.0250 C   0  0  0  0  0  0  0  0  0  0  0  0
  156.4360  211.9060  157.1620 O   0  0  0  0  0  1  0  0  0  0  0  0
  158.9760  214.2340  154.5690 O   0  0  0  0  0  0  0  0  0  0  0  0
  158.3030  213.3150  154.0300 C   0  0  0  0  0  0  0  0  0  0  0  0
  155.9010  213.8220  153.7180 O   0  0  0  0  0  1  0  0  0  0  0  0
  157.1660  213.6600  153.1670 C   0  0  0  0  0  0  0  0  0  0  0  0
  157.3290  213.8190  151.9290 O   0  0  0  0  0  0  0  0  0  0  0  0
  1 21  1  0  0  0  0
  2  7  1  0  0  0  0
  2  9  1  0  0  0  0
  3  7  2  0  0  0  0
  4  1  1  6  0  0  0
  5  4  1  0  0  0  0
  6  2  2  0  0  0  0
  7  5  1  0  0  0  0
  8  5  1  6  0  0  0
  8  4  1  0  0  0  0
  9 10  1  6  0  0  0
  9  8  1  0  0  0  0
 10 11  1  0  0  0  0
 11 13  2  0  0  0  0
 12 19  2  0  0  0  0
 13 16  1  0  0  0  0
 14 15  1  6  0  0  0
 14 11  1  0  0  0  0
 14 12  1  0  0  0  0
 15 20  1  0  0  0  0
 16 17  1  1  0  0  0
 18 12  1  0  0  0  0
 19 16  1  0  0  0  0
 20 18  1  0  0  0  0
 21 30  1  0  0  0  0
 23 35  1  1  0  0  0
 23 28  1  0  0  0  0
 24 29  1  0  0  0  0
 25 24  1  6  0  0  0
 25 29  1  0  0  0  0
 26 25  1  0  0  0  0
 26 23  1  0  0  0  0
 28 32  1  0  0  0  0
 28 22  1  0  0  0  0
 28 27  1  0  0  0  0
 29 22  1  0  0  0  0
 30 26  1  0  0  0  0
 30 25  1  0  0  0  0
 31 32  2  0  0  0  0
 32 33  1  0  0  0  0
 35 34  2  0  0  0  0
 37 36  1  0  0  0  0
 37 35  1  0  0  0  0
 38 37  2  0  0  0  0
M  END
>  <MODEL>
7

>  <REMARK>
 VINA RESULT:      -6.2      3.364     10.118
  Name = 
  8 active torsions:
  status: ('A' for Active; 'I' for Inactive)
    1  A    between atoms: C_3  and  C_6
    2  A    between atoms: C_3  and  C_15
    3  A    between atoms: C_5  and  S_19
    4  A    between atoms: C_6  and  C_36
    5  A    between atoms: C_8  and  C_38
    6  A    between atoms: C_12  and  C_38
    7  A    between atoms: S_19  and  C_37
    8  A    between atoms: C_26  and  C_28
                            x       y       z     vdW  Elec       q    Type
                         _______ _______ _______ _____ _____    ______ ____

>  <TORSDO>
F 8

$$$$
=
 OpenBabel11072410493D

 38 44  0  0  1  0  0  0  0  0999 V2000
  160.6500  209.4350  151.9170 C   0  0  0  0  0  2  0  0  0  0  0  0
  161.5860  208.8440  148.7230 C   0  0  0  0  0  0  0  0  0  0  0  0
  161.8160  211.2570  148.2950 O   0  0  0  0  0  0  0  0  0  0  0  0
  162.1270  209.7660  151.7140 C   0  0  2  0  0  3  0  0  0  0  0  0
  162.4080  210.1360  150.2920 N   0  0  0  0  0  0  0  0  0  0  0  0
  161.0620  208.4350  147.6520 O   0  0  0  0  0  0  0  0  0  0  0  0
  161.8570  210.2350  149.0290 C   0  0  0  0  0  0  0  0  0  0  0  0
  162.7960  208.8580  150.9230 C   0  0  2  0  0  3  0  0  0  0  0  0
  162.0210  207.9370  149.8990 C   0  0  2  0  0  3  0  0  0  0  0  0
  163.1180  206.6150  149.2990 S   0  0  0  0  0  0  0  0  0  0  0  0
  161.8780  205.3350  149.5420 C   0  0  0  0  0  0  0  0  0  0  0  0
  160.5880  203.9410  151.0560 C   0  0  0  0  0  0  0  0  0  0  0  0
  161.6630  204.4300  148.5650 C   0  0  0  0  0  3  0  0  0  0  0  0
  160.9840  205.3250  150.7640 C   0  0  1  0  0  3  0  0  0  0  0  0
  161.6780  205.6770  152.0820 C   0  0  0  0  0  2  0  0  0  0  0  0
  160.5540  203.4100  148.7280 C   0  0  1  0  0  3  0  0  0  0  0  0
  160.8270  202.2870  147.9700 F   0  0  0  0  0  0  0  0  0  0  0  0
  160.6690  203.6760  152.3950 O   0  0  0  0  0  0  0  0  0  0  0  0
  160.4030  203.0390  150.1390 N   0  0  0  0  0  0  0  0  0  0  0  0
  161.2090  204.7250  153.1080 N   0  0  0  0  0  2  0  0  0  0  0  0
  160.4130  208.8450  153.3000 C   0  0  0  0  0  2  0  0  0  0  0  0
  158.2070  211.1650  156.2300 C   0  0  0  0  0  2  0  0  0  0  0  0
  158.7350  212.0290  153.8920 C   0  0  1  0  0  3  0  0  0  0  0  0
  160.6600  211.6550  156.1600 C   0  0  0  0  0  2  0  0  0  0  0  0
  160.5380  210.4840  155.1750 C   0  0  2  0  0  0  0  0  0  0  0  0
  160.0350  211.1950  153.8840 C   0  0  1  0  0  3  0  0  0  0  0  0
  158.6130  213.4750  155.8180 F   0  0  0  0  0  0  0  0  0  0  0  0
  158.0580  212.3370  155.2480 C   0  0  2  0  0  0  0  0  0  0  0  0
  159.6390  210.6130  156.4360 C   0  0  2  0  0  3  0  0  0  0  0  0
  159.6100  209.8030  154.1630 C   0  0  1  0  0  3  0  0  0  0  0  0
  155.8170  211.6090  154.7930 O   0  0  0  0  0  0  0  0  0  0  0  0
  156.5930  212.5780  155.0220 C   0  0  0  0  0  0  0  0  0  0  0  0
  156.0850  213.8700  155.0360 O   0  0  0  0  0  1  0  0  0  0  0  0
  158.9700  214.3820  153.5220 O   0  0  0  0  0  0  0  0  0  0  0  0
  158.8680  213.2360  153.0080 C   0  0  0  0  0  0  0  0  0  0  0  0
  160.0710  212.8830  150.8740 O   0  0  0  0  0  0  0  0  0  0  0  0
  158.8740  213.0930  151.5480 C   0  0  0  0  0  0  0  0  0  0  0  0
  157.7970  213.1500  150.8960 O   0  0  0  0  0  1  0  0  0  0  0  0
  1 21  1  0  0  0  0
  2  7  1  0  0  0  0
  2  9  1  0  0  0  0
  3  7  2  0  0  0  0
  4  1  1  6  0  0  0
  5  4  1  0  0  0  0
  6  2  2  0  0  0  0
  7  5  1  0  0  0  0
  8  5  1  6  0  0  0
  8  4  1  0  0  0  0
  9 10  1  6  0  0  0
  9  8  1  0  0  0  0
 10 11  1  0  0  0  0
 11 14  1  0  0  0  0
 12 18  1  0  0  0  0
 13 16  1  0  0  0  0
 13 11  2  0  0  0  0
 14 12  1  0  0  0  0
 14 15  1  1  0  0  0
 15 20  1  0  0  0  0
 16 17  1  6  0  0  0
 16 19  1  0  0  0  0
 18 20  1  0  0  0  0
 19 12  2  0  0  0  0
 21 30  1  0  0  0  0
 22 29  1  0  0  0  0
 23 35  1  1  0  0  0
 23 28  1  0  0  0  0
 24 29  1  0  0  0  0
 25 24  1  1  0  0  0
 25 29  1  0  0  0  0
 26 23  1  0  0  0  0
 26 30  1  0  0  0  0
 26 25  1  0  0  0  0
 28 27  1  0  0  0  0
 28 22  1  0  0  0  0
 30 25  1  0  0  0  0
 31 32  2  0  0  0  0
 32 33  1  0  0  0  0
 32 28  1  0  0  0  0
 35 34  2  0  0  0  0
 36 37  2  0  0  0  0
 37 35  1  0  0  0  0
 38 37  1  0  0  0  0
M  END
>  <MODEL>
8

>  <REMARK>
 VINA RESULT:      -6.2      3.173      9.910
  Name = 
  8 active torsions:
  status: ('A' for Active; 'I' for Inactive)
    1  A    between atoms: C_3  and  C_6
    2  A    between atoms: C_3  and  C_15
    3  A    between atoms: C_5  and  S_19
    4  A    between atoms: C_6  and  C_36
    5  A    between atoms: C_8  and  C_38
    6  A    between atoms: C_12  and  C_38
    7  A    between atoms: S_19  and  C_37
    8  A    between atoms: C_26  and  C_28
                            x       y       z     vdW  Elec       q    Type
                         _______ _______ _______ _____ _____    ______ ____

>  <TORSDO>
F 8

$$$$
=
 OpenBabel11072410493D

 38 44  0  0  1  0  0  0  0  0999 V2000
  161.3460  208.9230  150.7640 C   0  0  0  0  0  2  0  0  0  0  0  0
  159.5410  210.8620  152.8640 C   0  0  0  0  0  0  0  0  0  0  0  0
  160.2780  209.5320  154.7990 O   0  0  0  0  0  0  0  0  0  0  0  0
  162.2620  209.7790  151.6360 C   0  0  2  0  0  3  0  0  0  0  0  0
  161.6050  210.1270  152.9340 N   0  0  0  0  0  0  0  0  0  0  0  0
  158.3280  211.0740  153.1360 O   0  0  0  0  0  0  0  0  0  0  0  0
  160.4300  210.0350  153.6550 C   0  0  0  0  0  0  0  0  0  0  0  0
  161.8120  211.0690  151.8150 C   0  0  2  0  0  3  0  0  0  0  0  0
  160.2870  211.4360  151.6350 C   0  0  2  0  0  3  0  0  0  0  0  0
  160.0850  213.2430  151.5670 S   0  0  0  0  0  0  0  0  0  0  0  0
  160.0950  213.2810  149.7700 C   0  0  0  0  0  0  0  0  0  0  0  0
  158.8740  213.1380  147.6740 C   0  0  0  0  0  0  0  0  0  0  0  0
  161.2210  212.9460  149.1070 C   0  0  0  0  0  3  0  0  0  0  0  0
  158.9070  213.7990  148.9850 C   0  0  1  0  0  3  0  0  0  0  0  0
  157.5370  213.3740  149.5210 C   0  0  0  0  0  2  0  0  0  0  0  0
  161.2600  213.0680  147.5970 C   0  0  1  0  0  3  0  0  0  0  0  0
  162.2030  212.2040  147.0750 F   0  0  0  0  0  0  0  0  0  0  0  0
  157.6030  212.7540  147.3470 O   0  0  0  0  0  0  0  0  0  0  0  0
  159.9400  212.7770  147.0260 N   0  0  0  0  0  0  0  0  0  0  0  0
  156.7060  212.9740  148.3690 N   0  0  0  0  0  2  0  0  0  0  0  0
  161.9590  208.7030  149.3880 C   0  0  0  0  0  2  0  0  0  0  0  0
  162.2180  204.3900  148.9830 C   0  0  0  0  0  2  0  0  0  0  0  0
  161.2700  205.8980  147.1610 C   0  0  1  0  0  3  0  0  0  0  0  0
  159.9990  205.2190  149.7890 C   0  0  0  0  0  2  0  0  0  0  0  0
  160.8290  206.5100  149.7520 C   0  0  2  0  0  0  0  0  0  0  0  0
  160.7790  206.8860  148.2410 C   0  0  1  0  0  3  0  0  0  0  0  0
  160.4550  203.6630  147.5560 F   0  0  0  0  0  0  0  0  0  0  0  0
  161.6020  204.4460  147.5770 C   0  0  2  0  0  0  0  0  0  0  0  0
  161.4460  205.1280  150.1050 C   0  0  2  0  0  3  0  0  0  0  0  0
  161.9820  207.2250  149.0390 C   0  0  1  0  0  3  0  0  0  0  0  0
  162.3430  202.7910  146.0040 O   0  0  0  0  0  0  0  0  0  0  0  0
  162.5940  203.8710  146.6060 C   0  0  0  0  0  0  0  0  0  0  0  0
  163.8070  204.5100  146.3830 O   0  0  0  0  0  1  0  0  0  0  0  0
  159.3040  206.5790  145.9780 O   0  0  0  0  0  0  0  0  0  0  0  0
  160.4130  205.9820  145.9310 C   0  0  0  0  0  0  0  0  0  0  0  0
  160.1690  204.2710  144.1590 O   0  0  0  0  0  1  0  0  0  0  0  0
  160.8520  205.3660  144.6730 C   0  0  0  0  0  0  0  0  0  0  0  0
  161.8420  205.8290  144.0460 O   0  0  0  0  0  0  0  0  0  0  0  0
  2  6  2  0  0  0  0
  2  7  1  0  0  0  0
  4  1  1  6  0  0  0
  4  8  1  0  0  0  0
  4  5  1  0  0  0  0
  5  7  1  0  0  0  0
  7  3  2  0  0  0  0
  8  5  1  1  0  0  0
  9 10  1  1  0  0  0
  9  8  1  0  0  0  0
  9  2  1  0  0  0  0
 11 10  1  0  0  0  0
 12 14  1  0  0  0  0
 13 11  2  0  0  0  0
 14 15  1  1  0  0  0
 14 11  1  0  0  0  0
 16 17  1  6  0  0  0
 16 13  1  0  0  0  0
 18 12  1  0  0  0  0
 18 20  1  0  0  0  0
 19 16  1  0  0  0  0
 19 12  2  0  0  0  0
 20 15  1  0  0  0  0
 21  1  1  0  0  0  0
 22 29  1  0  0  0  0
 23 35  1  6  0  0  0
 23 28  1  0  0  0  0
 23 26  1  0  0  0  0
 24 29  1  0  0  0  0
 25 24  1  1  0  0  0
 25 29  1  0  0  0  0
 26 30  1  0  0  0  0
 26 25  1  0  0  0  0
 27 28  1  0  0  0  0
 28 22  1  0  0  0  0
 30 21  1  0  0  0  0
 30 25  1  0  0  0  0
 31 32  2  0  0  0  0
 32 28  1  0  0  0  0
 33 32  1  0  0  0  0
 35 34  2  0  0  0  0
 36 37  1  0  0  0  0
 37 35  1  0  0  0  0
 38 37  2  0  0  0  0
M  END
>  <MODEL>
9

>  <REMARK>
 VINA RESULT:      -5.8      2.975      4.714
  Name = 
  8 active torsions:
  status: ('A' for Active; 'I' for Inactive)
    1  A    between atoms: C_3  and  C_6
    2  A    between atoms: C_3  and  C_15
    3  A    between atoms: C_5  and  S_19
    4  A    between atoms: C_6  and  C_36
    5  A    between atoms: C_8  and  C_38
    6  A    between atoms: C_12  and  C_38
    7  A    between atoms: S_19  and  C_37
    8  A    between atoms: C_26  and  C_28
                            x       y       z     vdW  Elec       q    Type
                         _______ _______ _______ _____ _____    ______ ____

>  <TORSDO>
F 8

$$$$
