=
 OpenBabel11072410263D

 68 77  0  0  1  0  0  0  0  0999 V2000
  161.1470  211.5420  146.9550 C   0  0  0  0  0  2  0  0  0  0  0  0
  158.5760  214.2160  146.7320 C   0  0  0  0  0  2  0  0  0  0  0  0
  161.7790  212.9700  142.2180 C   0  0  1  0  0  3  0  0  0  0  0  0
  161.7810  212.3120  143.5960 C   0  0  0  0  0  2  0  0  0  0  0  0
  161.3340  213.5270  139.4310 C   0  0  1  0  0  3  0  0  0  0  0  0
  159.6450  213.5120  147.5630 C   0  0  1  0  0  3  0  0  0  0  0  0
  157.9730  213.8920  144.1860 C   0  0  0  0  0  0  0  0  0  0  0  0
  158.4980  213.5300  142.9020 N   0  0  0  0  0  0  0  0  0  0  0  0
  158.8570  213.4700  139.8140 C   0  0  0  0  0  1  0  0  0  0  0  0
  161.8010  213.7920  146.4820 O   0  0  0  0  0  1  0  0  0  0  0  0
  162.8500  212.5210  141.2500 C   0  0  0  0  0  2  0  0  0  0  0  0
  160.6860  212.9540  146.5680 C   0  0  1  0  0  0  0  0  0  0  0  0
  158.8170  213.6760  145.3710 C   0  0  0  0  0  0  0  0  0  0  0  0
  162.7700  213.4330  140.0190 C   0  0  0  0  0  2  0  0  0  0  0  0
  156.8510  214.4520  144.2800 O   0  0  0  0  0  0  0  0  0  0  0  0
  160.4220  212.7050  141.6090 C   0  0  2  0  0  3  0  0  0  0  0  0
  160.2030  213.7130  140.4800 C   0  0  1  0  0  3  0  0  0  0  0  0
  159.5710  212.7960  142.8120 C   0  0  0  0  0  0  0  0  0  0  0  0
  159.9540  213.0040  145.2680 C   0  0  0  0  0  0  0  0  0  0  0  0
  160.3060  212.2530  144.0050 C   0  0  2  0  0  3  0  0  0  0  0  0
  161.2570  214.4530  138.3670 O   0  0  0  0  0  0  0  0  0  0  0  0
  162.2470  214.1380  137.4200 C   0  0  0  0  0  1  0  0  0  0  0  0
  160.2130  214.3940  148.6660 C   0  0  0  0  0  2  0  0  0  0  0  0
  158.0290  214.3020  149.7700 C   0  0  0  0  0  3  0  0  0  0  0  0
  157.1710  214.0190  150.9280 C   0  0  0  0  0  0  0  0  0  0  0  0
  160.0350  214.0830  151.2240 C   0  0  0  0  0  2  0  0  0  0  0  0
  159.7670  213.2650  153.5650 C   0  0  0  0  0  3  0  0  0  0  0  0
  158.5270  213.4490  154.4450 C   0  0  0  0  0  3  0  0  0  0  0  0
  157.8160  213.3820  152.1280 C   0  0  2  0  0  0  0  0  0  0  0  0
  159.3630  214.2570  149.8820 C   0  0  0  0  0  0  0  0  0  0  0  0
  157.0270  212.3940  152.7550 O   0  0  0  0  0  0  0  0  0  0  0  0
  155.9330  214.2420  150.8770 O   0  0  0  0  0  0  0  0  0  0  0  0
  157.3500  213.5460  153.5000 C   0  0  1  0  0  0  0  0  0  0  0  0
  156.2950  214.4380  153.7100 O   0  0  0  0  0  1  0  0  0  0  0  0
  159.3020  213.0810  152.1210 C   0  0  1  0  0  3  0  0  0  0  0  0
  162.0720  211.4920  148.1710 C   0  0  1  0  0  3  0  0  0  0  0  0
  162.3600  212.7860  148.6180 O   0  0  0  0  0  1  0  0  0  0  0  0
  161.4420  210.6610  149.2830 C   0  0  2  0  0  3  0  0  0  0  0  0
  161.6860  211.2450  150.5310 O   0  0  0  0  0  1  0  0  0  0  0  0
  161.9920  209.2470  149.2460 C   0  0  0  0  0  2  0  0  0  0  0  0
  161.5450  208.5320  147.9800 C   0  0  0  0  0  2  0  0  0  0  0  0
  160.5580  205.1830  146.3800 F   0  0  0  0  0  0  0  0  0  0  0  0
  161.4550  206.4880  150.5840 C   0  0  1  0  0  3  0  0  0  0  0  0
  161.6650  207.0890  148.1700 N   0  0  0  0  0  0  0  0  0  0  0  0
  160.0290  205.4480  150.1070 S   0  0  0  0  0  0  0  0  0  0  0  0
  162.3920  206.7460  149.3990 C   0  0  1  0  0  3  0  0  0  0  0  0
  161.0600  203.9660  149.7900 C   0  0  2  0  0  3  0  0  0  0  0  0
  161.9130  205.1450  146.7040 C   0  0  1  0  0  3  0  0  0  0  0  0
  162.4170  206.5420  147.0490 C   0  0  0  0  0  2  0  0  0  0  0  0
  161.1170  203.6590  148.2970 C   0  0  0  0  0  2  0  0  0  0  0  0
  162.2700  204.2250  147.7240 O   0  0  0  0  0  0  0  0  0  0  0  0
  161.3830  202.6500  151.9850 C   0  0  0  0  0  2  0  0  0  0  0  0
  160.7220  202.7090  150.6120 C   0  0  0  0  0  3  0  0  0  0  0  0
  159.9300  203.0640  151.8630 C   0  0  0  0  0  2  0  0  0  0  0  0
  160.9810  207.7870  151.2320 C   0  0  1  0  0  3  0  0  0  0  0  0
  161.0550  207.8670  152.7280 C   0  0  2  0  0  3  0  0  0  0  0  0
  162.0710  208.3790  151.8980 O   0  0  0  0  0  0  0  0  0  0  0  0
  161.5120  206.6140  153.4380 C   0  0  0  0  0  0  0  0  0  0  0  0
  161.7530  205.5870  152.8230 O   0  0  0  0  0  0  0  0  0  0  0  0
  161.6090  206.6330  154.9350 C   0  0  0  0  0  2  0  0  0  0  0  0
  159.3510  206.9150  156.0330 C   0  0  0  0  0  1  0  0  0  0  0  0
  160.6290  207.6070  155.6040 C   0  0  2  0  0  3  0  0  0  0  0  0
  160.3030  208.8150  154.7280 C   0  0  0  0  0  2  0  0  0  0  0  0
  160.6920  210.1100  155.4190 C   0  0  2  0  0  3  0  0  0  0  0  0
  162.1560  210.4010  155.1520 C   0  0  0  0  0  1  0  0  0  0  0  0
  160.4860  209.9880  156.7960 O   0  0  0  0  0  1  0  0  0  0  0  0
  163.4070  207.6630  149.7090 O   0  0  0  0  0  0  0  0  0  0  0  0
  164.5060  207.1170  149.2270 O   0  0  0  0  0  1  0  0  0  0  0  0
  1 36  1  0  0  0  0
  2  6  1  0  0  0  0
  3 11  1  6  0  0  0
  3  4  1  0  0  0  0
  5 21  1  6  0  0  0
  5 14  1  0  0  0  0
  5 17  1  0  0  0  0
  6 23  1  1  0  0  0
  7 15  2  0  0  0  0
  7 13  1  0  0  0  0
  8  7  1  0  0  0  0
 12 10  1  6  0  0  0
 12  1  1  0  0  0  0
 12  6  1  0  0  0  0
 13  2  1  0  0  0  0
 14 11  1  0  0  0  0
 16  3  1  0  0  0  0
 16 18  1  1  0  0  0
 17  9  1  6  0  0  0
 17 16  1  0  0  0  0
 18  8  2  0  0  0  0
 18 20  1  0  0  0  0
 19 13  2  0  0  0  0
 19 12  1  0  0  0  0
 20  4  1  6  0  0  0
 20 19  1  0  0  0  0
 22 21  1  0  0  0  0
 23 30  1  0  0  0  0
 24 30  2  0  0  0  0
 24 25  1  0  0  0  0
 27 28  2  0  0  0  0
 29 25  1  6  0  0  0
 29 31  1  0  0  0  0
 29 33  1  0  0  0  0
 30 26  1  0  0  0  0
 31 33  1  0  0  0  0
 32 25  2  0  0  0  0
 33 34  1  1  0  0  0
 33 28  1  0  0  0  0
 35 26  1  6  0  0  0
 35 29  1  0  0  0  0
 35 27  1  0  0  0  0
 36 37  1  1  0  0  0
 36 38  1  0  0  0  0
 38 39  1  1  0  0  0
 40 38  1  0  0  0  0
 41 44  1  0  0  0  0
 41 40  1  0  0  0  0
 43 45  1  6  0  0  0
 43 55  1  0  0  0  0
 44 46  1  0  0  0  0
 46 67  1  1  0  0  0
 46 43  1  0  0  0  0
 47 45  1  0  0  0  0
 47 53  1  1  0  0  0
 48 42  1  1  0  0  0
 48 49  1  0  0  0  0
 48 51  1  0  0  0  0
 49 44  1  0  0  0  0
 50 47  1  0  0  0  0
 51 50  1  0  0  0  0
 53 54  1  0  0  0  0
 53 52  1  0  0  0  0
 54 52  1  0  0  0  0
 55 57  1  6  0  0  0
 55 56  1  0  0  0  0
 56 58  1  1  0  0  0
 57 56  1  0  0  0  0
 58 60  1  0  0  0  0
 59 58  2  0  0  0  0
 60 62  1  0  0  0  0
 62 61  1  6  0  0  0
 63 64  1  0  0  0  0
 63 62  1  0  0  0  0
 64 65  1  1  0  0  0
 64 66  1  0  0  0  0
 68 67  1  0  0  0  0
M  END
>  <MODEL>
1

>  <REMARK>
 VINA RESULT:      -3.4      0.000      0.000
  Name = 
  17 active torsions:
  status: ('A' for Active; 'I' for Inactive)
    1  A    between atoms: C_4  and  O_15
    2  A    between atoms: C_5  and  C_31
    3  A    between atoms: C_6  and  C_47
    4  A    between atoms: C_8  and  C_13
    5  A    between atoms: C_8  and  C_26
    6  A    between atoms: C_12  and  C_21
    7  A    between atoms: C_12  and  C_36
    8  A    between atoms: C_13  and  C_37
    9  A    between atoms: C_18  and  C_34
   10  A    between atoms: C_21  and  C_22
   11  A    between atoms: C_22  and  C_31
   12  A    between atoms: N_24  and  C_45
   13  A    between atoms: C_26  and  C_32
   14  A    between atoms: C_30  and  O_39
   15  A    between atoms: C_37  and  C_45
   16  A    between atoms: C_40  and  C_50
   17  A    between atoms: C_47  and  C_49
                            x       y       z     vdW  Elec       q    Type
                         _______ _______ _______ _____ _____    ______ ____

>  <TORSDO>
F 17

$$$$
=
 OpenBabel11072410263D

 68 77  0  0  1  0  0  0  0  0999 V2000
  161.6360  212.7660  148.0610 C   0  0  0  0  0  2  0  0  0  0  0  0
  158.0220  213.1790  147.2990 C   0  0  0  0  0  2  0  0  0  0  0  0
  159.6640  211.4840  152.4590 C   0  0  1  0  0  3  0  0  0  0  0  0
  160.5330  211.8570  151.2600 C   0  0  0  0  0  2  0  0  0  0  0  0
  158.2440  211.5490  154.9590 C   0  0  1  0  0  3  0  0  0  0  0  0
  159.4060  212.7440  146.8230 C   0  0  1  0  0  3  0  0  0  0  0  0
  157.2500  213.9020  149.7140 C   0  0  0  0  0  0  0  0  0  0  0  0
  157.4980  213.7300  151.1160 N   0  0  0  0  0  0  0  0  0  0  0  0
  156.9430  213.5400  154.1690 C   0  0  0  0  0  1  0  0  0  0  0  0
  160.1660  210.8850  148.1870 O   0  0  0  0  0  1  0  0  0  0  0  0
  160.3800  210.9260  153.6680 C   0  0  0  0  0  2  0  0  0  0  0  0
  160.1800  212.2780  148.0750 C   0  0  1  0  0  0  0  0  0  0  0  0
  158.2210  213.3420  148.7610 C   0  0  0  0  0  0  0  0  0  0  0  0
  159.3100  210.4570  154.6610 C   0  0  0  0  0  2  0  0  0  0  0  0
  156.1890  214.4480  149.3170 O   0  0  0  0  0  0  0  0  0  0  0  0
  158.9150  212.7320  152.8620 C   0  0  2  0  0  3  0  0  0  0  0  0
  157.7170  212.3120  153.7140 C   0  0  1  0  0  3  0  0  0  0  0  0
  158.6640  213.3290  151.5350 C   0  0  0  0  0  0  0  0  0  0  0  0
  159.3740  212.8520  149.1910 C   0  0  0  0  0  0  0  0  0  0  0  0
  159.8240  213.0550  150.6190 C   0  0  2  0  0  3  0  0  0  0  0  0
  157.2090  211.0660  155.7910 O   0  0  0  0  0  0  0  0  0  0  0  0
  156.0770  210.8040  154.9990 C   0  0  0  0  0  1  0  0  0  0  0  0
  159.3500  211.7360  145.6840 C   0  0  0  0  0  2  0  0  0  0  0  0
  161.4410  212.6810  144.8300 C   0  0  0  0  0  3  0  0  0  0  0  0
  162.3620  213.0180  143.7370 C   0  0  0  0  0  0  0  0  0  0  0  0
  159.6690  212.1790  143.1600 C   0  0  0  0  0  2  0  0  0  0  0  0
  160.2480  212.1390  140.7340 C   0  0  0  0  0  3  0  0  0  0  0  0
  161.3560  212.9550  140.0600 C   0  0  0  0  0  3  0  0  0  0  0  0
  162.0060  212.5340  142.3590 C   0  0  2  0  0  0  0  0  0  0  0  0
  160.2120  212.2170  144.5690 C   0  0  0  0  0  0  0  0  0  0  0  0
  163.1050  212.0720  141.6030 O   0  0  0  0  0  0  0  0  0  0  0  0
  163.4390  213.6260  143.9720 O   0  0  0  0  0  0  0  0  0  0  0  0
  162.4050  213.1970  141.1230 C   0  0  1  0  0  0  0  0  0  0  0  0
  163.0780  214.4170  141.2440 O   0  0  0  0  0  1  0  0  0  0  0  0
  160.7240  211.7550  142.1350 C   0  0  1  0  0  3  0  0  0  0  0  0
  162.6700  211.6590  147.8460 C   0  0  1  0  0  3  0  0  0  0  0  0
  163.9600  212.1420  148.0930 O   0  0  0  0  0  1  0  0  0  0  0  0
  162.3580  210.4630  148.7370 C   0  0  2  0  0  3  0  0  0  0  0  0
  163.4030  210.2380  149.6400 O   0  0  0  0  0  1  0  0  0  0  0  0
  162.1250  209.2300  147.8840 C   0  0  0  0  0  2  0  0  0  0  0  0
  162.9390  208.0560  148.4080 C   0  0  0  0  0  2  0  0  0  0  0  0
  162.0840  206.8010  151.9350 F   0  0  0  0  0  0  0  0  0  0  0  0
  161.7710  205.0130  147.8260 C   0  0  1  0  0  3  0  0  0  0  0  0
  162.0570  207.1310  149.1150 N   0  0  0  0  0  0  0  0  0  0  0  0
  162.4490  204.1410  149.2830 S   0  0  0  0  0  0  0  0  0  0  0  0
  161.1890  206.3790  148.2010 C   0  0  1  0  0  3  0  0  0  0  0  0
  160.8080  203.9270  150.0710 C   0  0  2  0  0  3  0  0  0  0  0  0
  160.9000  207.1190  151.2710 C   0  0  1  0  0  3  0  0  0  0  0  0
  161.1980  207.9060  150.0000 C   0  0  0  0  0  2  0  0  0  0  0  0
  160.6850  204.8090  151.3080 C   0  0  0  0  0  2  0  0  0  0  0  0
  160.0470  206.0210  150.9850 O   0  0  0  0  0  0  0  0  0  0  0  0
  160.3250  201.5690  149.1430 C   0  0  0  0  0  2  0  0  0  0  0  0
  160.3740  202.4790  150.3660 C   0  0  0  0  0  3  0  0  0  0  0  0
  161.5050  201.4970  150.0910 C   0  0  0  0  0  2  0  0  0  0  0  0
  162.8240  205.1220  146.7250 C   0  0  1  0  0  3  0  0  0  0  0  0
  162.4400  204.6210  145.3650 C   0  0  2  0  0  3  0  0  0  0  0  0
  162.3360  205.9790  145.7210 O   0  0  0  0  0  0  0  0  0  0  0  0
  161.0770  203.9800  145.2540 C   0  0  0  0  0  0  0  0  0  0  0  0
  160.1710  204.5160  144.6350 O   0  0  0  0  0  0  0  0  0  0  0  0
  160.8310  202.6870  145.9750 C   0  0  0  0  0  2  0  0  0  0  0  0
  158.9140  201.0830  145.6160 C   0  0  0  0  0  1  0  0  0  0  0  0
  160.2410  201.5860  145.0840 C   0  0  2  0  0  3  0  0  0  0  0  0
  161.1990  200.4160  144.8720 C   0  0  0  0  0  2  0  0  0  0  0  0
  160.9400  199.3100  145.8800 C   0  0  2  0  0  3  0  0  0  0  0  0
  161.8130  199.5280  147.1000 C   0  0  0  0  0  1  0  0  0  0  0  0
  161.2430  198.0730  145.3060 O   0  0  0  0  0  1  0  0  0  0  0  0
  160.8010  207.1230  147.0770 O   0  0  0  0  0  0  0  0  0  0  0  0
  159.6600  206.5830  146.6980 O   0  0  0  0  0  1  0  0  0  0  0  0
  1 12  1  0  0  0  0
  2 13  1  0  0  0  0
  3  4  1  6  0  0  0
  3 16  1  0  0  0  0
  3 11  1  0  0  0  0
  5 21  1  6  0  0  0
  6 23  1  6  0  0  0
  6  2  1  0  0  0  0
  6 12  1  0  0  0  0
  7  8  1  0  0  0  0
  8 18  2  0  0  0  0
 11 14  1  0  0  0  0
 12 10  1  1  0  0  0
 12 19  1  0  0  0  0
 13 19  2  0  0  0  0
 13  7  1  0  0  0  0
 14  5  1  0  0  0  0
 15  7  2  0  0  0  0
 16 18  1  6  0  0  0
 16 17  1  0  0  0  0
 17  9  1  1  0  0  0
 17  5  1  0  0  0  0
 19 20  1  0  0  0  0
 20  4  1  1  0  0  0
 20 18  1  0  0  0  0
 22 21  1  0  0  0  0
 25 32  2  0  0  0  0
 25 24  1  0  0  0  0
 26 30  1  0  0  0  0
 28 27  2  0  0  0  0
 28 33  1  0  0  0  0
 29 31  1  6  0  0  0
 29 25  1  0  0  0  0
 30 24  2  0  0  0  0
 30 23  1  0  0  0  0
 33 34  1  1  0  0  0
 33 31  1  0  0  0  0
 33 29  1  0  0  0  0
 35 27  1  6  0  0  0
 35 29  1  0  0  0  0
 35 26  1  0  0  0  0
 36  1  1  0  0  0  0
 36 37  1  1  0  0  0
 36 38  1  0  0  0  0
 38 39  1  1  0  0  0
 40 41  1  0  0  0  0
 40 38  1  0  0  0  0
 41 44  1  0  0  0  0
 43 46  1  0  0  0  0
 43 45  1  1  0  0  0
 44 49  1  0  0  0  0
 45 47  1  0  0  0  0
 46 67  1  6  0  0  0
 46 44  1  0  0  0  0
 47 53  1  1  0  0  0
 47 50  1  0  0  0  0
 48 42  1  6  0  0  0
 49 48  1  0  0  0  0
 51 48  1  0  0  0  0
 51 50  1  0  0  0  0
 52 54  1  0  0  0  0
 52 53  1  0  0  0  0
 54 53  1  0  0  0  0
 55 57  1  6  0  0  0
 55 43  1  0  0  0  0
 56 58  1  1  0  0  0
 56 57  1  0  0  0  0
 56 55  1  0  0  0  0
 58 60  1  0  0  0  0
 59 58  2  0  0  0  0
 62 61  1  1  0  0  0
 62 60  1  0  0  0  0
 63 62  1  0  0  0  0
 63 64  1  0  0  0  0
 64 65  1  1  0  0  0
 66 64  1  0  0  0  0
 68 67  1  0  0  0  0
M  END
>  <MODEL>
2

>  <REMARK>
 VINA RESULT:      -2.9      2.628      9.013
  Name = 
  17 active torsions:
  status: ('A' for Active; 'I' for Inactive)
    1  A    between atoms: C_4  and  O_15
    2  A    between atoms: C_5  and  C_31
    3  A    between atoms: C_6  and  C_47
    4  A    between atoms: C_8  and  C_13
    5  A    between atoms: C_8  and  C_26
    6  A    between atoms: C_12  and  C_21
    7  A    between atoms: C_12  and  C_36
    8  A    between atoms: C_13  and  C_37
    9  A    between atoms: C_18  and  C_34
   10  A    between atoms: C_21  and  C_22
   11  A    between atoms: C_22  and  C_31
   12  A    between atoms: N_24  and  C_45
   13  A    between atoms: C_26  and  C_32
   14  A    between atoms: C_30  and  O_39
   15  A    between atoms: C_37  and  C_45
   16  A    between atoms: C_40  and  C_50
   17  A    between atoms: C_47  and  C_49
                            x       y       z     vdW  Elec       q    Type
                         _______ _______ _______ _____ _____    ______ ____

>  <TORSDO>
F 17

$$$$
=
 OpenBabel11072410263D

 68 77  0  0  1  0  0  0  0  0999 V2000
  161.9170  212.1890  149.2110 C   0  0  0  0  0  2  0  0  0  0  0  0
  158.4560  213.3960  148.5900 C   0  0  0  0  0  2  0  0  0  0  0  0
  162.2640  213.3890  144.3820 C   0  0  1  0  0  3  0  0  0  0  0  0
  162.4360  212.9080  145.8210 C   0  0  0  0  0  2  0  0  0  0  0  0
  161.8650  213.4760  141.5350 C   0  0  1  0  0  3  0  0  0  0  0  0
  159.6500  213.3130  149.5380 C   0  0  1  0  0  3  0  0  0  0  0  0
  158.2870  212.6450  146.0680 C   0  0  0  0  0  0  0  0  0  0  0  0
  159.0290  212.4630  144.8550 N   0  0  0  0  0  0  0  0  0  0  0  0
  159.6470  212.3390  141.8100 C   0  0  0  0  0  1  0  0  0  0  0  0
  161.5440  214.4510  148.5310 O   0  0  0  0  0  1  0  0  0  0  0  0
  163.5030  213.3990  143.5170 C   0  0  0  0  0  2  0  0  0  0  0  0
  160.9130  213.2090  148.6550 C   0  0  1  0  0  0  0  0  0  0  0  0
  159.0320  212.9210  147.3060 C   0  0  0  0  0  0  0  0  0  0  0  0
  163.1360  214.0820  142.1940 C   0  0  0  0  0  2  0  0  0  0  0  0
  157.0290  212.6460  146.0510 O   0  0  0  0  0  0  0  0  0  0  0  0
  161.2240  212.4970  143.7440 C   0  0  2  0  0  3  0  0  0  0  0  0
  160.6810  213.2120  142.5060 C   0  0  1  0  0  3  0  0  0  0  0  0
  160.3190  212.2850  144.8910 C   0  0  0  0  0  0  0  0  0  0  0  0
  160.3530  212.8280  147.3270 C   0  0  0  0  0  0  0  0  0  0  0  0
  161.1100  212.2220  146.1680 C   0  0  2  0  0  3  0  0  0  0  0  0
  161.4790  214.1850  140.3750 O   0  0  0  0  0  0  0  0  0  0  0  0
  161.6010  213.3350  139.2630 C   0  0  0  0  0  1  0  0  0  0  0  0
  159.6680  214.4360  150.5650 C   0  0  0  0  0  2  0  0  0  0  0  0
  159.5040  213.6990  152.8950 C   0  0  0  0  0  3  0  0  0  0  0  0
  158.7410  213.4310  154.1210 C   0  0  0  0  0  0  0  0  0  0  0  0
  157.3710  213.9480  151.6410 C   0  0  0  0  0  2  0  0  0  0  0  0
  155.2120  213.9730  152.8900 C   0  0  0  0  0  3  0  0  0  0  0  0
  154.9340  213.2630  154.2180 C   0  0  0  0  0  3  0  0  0  0  0  0
  157.2900  213.8270  154.1330 C   0  0  2  0  0  0  0  0  0  0  0  0
  158.8760  214.0170  151.7550 C   0  0  0  0  0  0  0  0  0  0  0  0
  156.8500  214.3830  155.3540 O   0  0  0  0  0  0  0  0  0  0  0  0
  159.3090  212.9520  155.1360 O   0  0  0  0  0  0  0  0  0  0  0  0
  156.2630  213.1720  154.9340 C   0  0  1  0  0  0  0  0  0  0  0  0
  156.6470  212.0380  155.6570 O   0  0  0  0  0  1  0  0  0  0  0  0
  156.6630  214.4520  152.9020 C   0  0  1  0  0  3  0  0  0  0  0  0
  161.3010  210.8400  149.5870 C   0  0  1  0  0  3  0  0  0  0  0  0
  159.9760  210.7690  149.1450 O   0  0  0  0  0  1  0  0  0  0  0  0
  162.1290  209.7000  149.0070 C   0  0  2  0  0  3  0  0  0  0  0  0
  162.9630  210.1690  147.9850 O   0  0  0  0  0  1  0  0  0  0  0  0
  161.2120  208.6120  148.4790 C   0  0  0  0  0  2  0  0  0  0  0  0
  161.8520  207.9000  147.2970 C   0  0  0  0  0  2  0  0  0  0  0  0
  160.5330  204.5560  145.9440 F   0  0  0  0  0  0  0  0  0  0  0  0
  161.7960  205.9980  150.0060 C   0  0  1  0  0  3  0  0  0  0  0  0
  161.8850  206.4630  147.5560 N   0  0  0  0  0  0  0  0  0  0  0  0
  160.2740  205.0410  149.6780 S   0  0  0  0  0  0  0  0  0  0  0  0
  162.6670  206.1300  148.7530 C   0  0  1  0  0  3  0  0  0  0  0  0
  161.1770  203.4750  149.3760 C   0  0  2  0  0  3  0  0  0  0  0  0
  161.9010  204.4360  146.1830 C   0  0  1  0  0  3  0  0  0  0  0  0
  162.5220  205.8090  146.4200 C   0  0  0  0  0  2  0  0  0  0  0  0
  161.1130  203.0910  147.9010 C   0  0  0  0  0  2  0  0  0  0  0  0
  162.2620  203.5440  147.2270 O   0  0  0  0  0  0  0  0  0  0  0  0
  159.6900  201.4010  149.7500 C   0  0  0  0  0  2  0  0  0  0  0  0
  160.8090  202.2870  150.2840 C   0  0  0  0  0  3  0  0  0  0  0  0
  161.1330  200.9590  149.6150 C   0  0  0  0  0  2  0  0  0  0  0  0
  161.4570  207.3580  150.6130 C   0  0  1  0  0  3  0  0  0  0  0  0
  161.3750  207.4340  152.1090 C   0  0  2  0  0  3  0  0  0  0  0  0
  162.5430  207.7800  151.4020 O   0  0  0  0  0  0  0  0  0  0  0  0
  161.5530  206.1310  152.8500 C   0  0  0  0  0  0  0  0  0  0  0  0
  161.6290  205.0670  152.2570 O   0  0  0  0  0  0  0  0  0  0  0  0
  161.5760  206.1570  154.3510 C   0  0  0  0  0  2  0  0  0  0  0  0
  161.9520  207.6200  156.3750 C   0  0  0  0  0  1  0  0  0  0  0  0
  161.4540  207.5670  154.9450 C   0  0  2  0  0  3  0  0  0  0  0  0
  160.0350  208.1250  154.8620 C   0  0  0  0  0  2  0  0  0  0  0  0
  159.9490  209.4940  155.5140 C   0  0  2  0  0  3  0  0  0  0  0  0
  159.8730  209.3290  157.0190 C   0  0  0  0  0  1  0  0  0  0  0  0
  158.8070  210.1580  155.0610 O   0  0  0  0  0  1  0  0  0  0  0  0
  163.7620  206.9850  148.9480 O   0  0  0  0  0  0  0  0  0  0  0  0
  164.8010  206.3000  148.5140 O   0  0  0  0  0  1  0  0  0  0  0  0
  1 36  1  0  0  0  0
  2  6  1  0  0  0  0
  3 11  1  6  0  0  0
  3  4  1  0  0  0  0
  5 21  1  6  0  0  0
  5 14  1  0  0  0  0
  5 17  1  0  0  0  0
  6 23  1  6  0  0  0
  7 13  1  0  0  0  0
  8 18  2  0  0  0  0
  8  7  1  0  0  0  0
 12 10  1  6  0  0  0
 12  1  1  0  0  0  0
 12  6  1  0  0  0  0
 13 19  2  0  0  0  0
 13  2  1  0  0  0  0
 14 11  1  0  0  0  0
 15  7  2  0  0  0  0
 16  3  1  0  0  0  0
 16 18  1  1  0  0  0
 17  9  1  6  0  0  0
 17 16  1  0  0  0  0
 18 20  1  0  0  0  0
 19 12  1  0  0  0  0
 20  4  1  6  0  0  0
 20 19  1  0  0  0  0
 22 21  1  0  0  0  0
 23 30  1  0  0  0  0
 24 25  1  0  0  0  0
 25 32  2  0  0  0  0
 26 30  1  0  0  0  0
 27 35  1  0  0  0  0
 27 28  2  0  0  0  0
 28 33  1  0  0  0  0
 29 25  1  6  0  0  0
 29 33  1  0  0  0  0
 29 31  1  0  0  0  0
 30 24  2  0  0  0  0
 33 31  1  0  0  0  0
 33 34  1  1  0  0  0
 35 26  1  6  0  0  0
 35 29  1  0  0  0  0
 36 37  1  6  0  0  0
 38 39  1  6  0  0  0
 38 36  1  0  0  0  0
 40 38  1  0  0  0  0
 41 44  1  0  0  0  0
 41 40  1  0  0  0  0
 43 45  1  6  0  0  0
 43 55  1  0  0  0  0
 44 46  1  0  0  0  0
 46 67  1  1  0  0  0
 46 43  1  0  0  0  0
 47 45  1  0  0  0  0
 47 53  1  1  0  0  0
 48 42  1  1  0  0  0
 48 49  1  0  0  0  0
 48 51  1  0  0  0  0
 49 44  1  0  0  0  0
 50 47  1  0  0  0  0
 51 50  1  0  0  0  0
 52 53  1  0  0  0  0
 54 52  1  0  0  0  0
 54 53  1  0  0  0  0
 55 57  1  1  0  0  0
 55 56  1  0  0  0  0
 56 58  1  1  0  0  0
 57 56  1  0  0  0  0
 58 60  1  0  0  0  0
 59 58  2  0  0  0  0
 60 62  1  0  0  0  0
 62 61  1  1  0  0  0
 63 62  1  0  0  0  0
 63 64  1  0  0  0  0
 64 65  1  1  0  0  0
 66 64  1  0  0  0  0
 68 67  1  0  0  0  0
M  END
>  <MODEL>
3

>  <REMARK>
 VINA RESULT:      -0.4      1.462      2.239
  Name = 
  17 active torsions:
  status: ('A' for Active; 'I' for Inactive)
    1  A    between atoms: C_4  and  O_15
    2  A    between atoms: C_5  and  C_31
    3  A    between atoms: C_6  and  C_47
    4  A    between atoms: C_8  and  C_13
    5  A    between atoms: C_8  and  C_26
    6  A    between atoms: C_12  and  C_21
    7  A    between atoms: C_12  and  C_36
    8  A    between atoms: C_13  and  C_37
    9  A    between atoms: C_18  and  C_34
   10  A    between atoms: C_21  and  C_22
   11  A    between atoms: C_22  and  C_31
   12  A    between atoms: N_24  and  C_45
   13  A    between atoms: C_26  and  C_32
   14  A    between atoms: C_30  and  O_39
   15  A    between atoms: C_37  and  C_45
   16  A    between atoms: C_40  and  C_50
   17  A    between atoms: C_47  and  C_49
                            x       y       z     vdW  Elec       q    Type
                         _______ _______ _______ _____ _____    ______ ____

>  <TORSDO>
F 17

$$$$
