=
 OpenBabel11072413023D

 37 42  0  0  1  0  0  0  0  0999 V2000
  160.8610  208.6230  155.1900 C   0  0  0  0  0  3  0  0  0  0  0  0
  161.1710  205.7340  151.0830 C   0  0  0  0  0  0  0  0  0  0  0  0
  161.0670  206.7790  153.6940 C   0  0  0  0  0  0  0  0  0  0  0  0
  160.5920  210.9550  154.1630 C   0  0  0  0  0  3  0  0  0  0  0  0
  161.2610  204.8880  152.1990 C   0  0  0  0  0  3  0  0  0  0  0  0
  160.9820  207.6450  152.5750 C   0  0  0  0  0  0  0  0  0  0  0  0
  160.4820  211.3720  152.6900 C   0  0  0  0  0  3  0  0  0  0  0  0
  160.7750  209.4900  154.1040 C   0  0  0  0  0  0  0  0  0  0  0  0
  161.0070  207.2870  154.9590 N   0  0  0  0  0  0  0  0  0  0  0  0
  161.0330  207.1160  151.2810 C   0  0  0  0  0  3  0  0  0  0  0  0
  160.7170  210.1210  151.8290 C   0  0  2  0  0  3  0  0  0  0  0  0
  160.8440  209.0170  152.8200 C   0  0  0  0  0  0  0  0  0  0  0  0
  161.2080  205.4050  153.4960 C   0  0  0  0  0  3  0  0  0  0  0  0
  161.5410  205.8780  148.6250 N   0  0  0  0  0  2  0  0  0  0  0  0
  161.0580  202.5520  147.1670 C   0  0  0  0  0  2  0  0  0  0  0  0
  161.2070  203.7340  148.0170 N   0  0  0  0  0  0  0  0  0  0  0  0
  160.7490  202.6510  150.2390 C   0  0  0  0  0  2  0  0  0  0  0  0
  159.7050  201.4270  149.3790 S   0  0  0  0  0  0  0  0  0  0  0  0
  160.8470  201.3290  148.0020 C   0  0  0  0  0  0  0  0  0  0  0  0
  161.5070  204.9820  147.6170 C   0  0  0  0  0  0  0  0  0  0  0  0
  161.0210  203.8300  149.3490 C   0  0  0  0  0  0  0  0  0  0  0  0
  161.2380  205.1500  149.7240 C   0  0  0  0  0  0  0  0  0  0  0  0
  161.6690  200.2900  147.8860 C   0  0  0  0  0  2  0  0  0  0  0  0
  161.7360  205.2920  146.4170 O   0  0  0  0  0  0  0  0  0  0  0  0
  163.0640  210.3220  151.5430 O   0  0  0  0  0  0  0  0  0  0  0  0
  161.9650  210.2800  151.0100 C   0  0  0  0  0  0  0  0  0  0  0  0
  161.8520  210.3690  149.5280 C   0  0  0  0  0  2  0  0  0  0  0  0
  162.5880  211.5900  149.0110 C   0  0  0  0  0  2  0  0  0  0  0  0
  161.6130  212.4980  148.2940 C   0  0  2  0  0  3  0  0  0  0  0  0
  162.1360  212.7970  146.9030 C   0  0  2  0  0  3  0  0  0  0  0  0
  162.2840  213.8250  148.0060 C   0  0  0  0  0  2  0  0  0  0  0  0
  160.9760  213.1880  146.0000 C   0  0  1  0  0  3  0  0  0  0  0  0
  161.4830  213.5960  144.6540 C   0  0  0  0  0  0  0  0  0  0  0  0
  160.7210  214.4420  143.8590 O   0  0  0  0  0  0  0  0  0  0  0  0
  162.6130  213.2110  144.2510 O   0  0  0  0  0  1  0  0  0  0  0  0
  160.0840  212.1170  145.8750 O   0  0  0  0  0  0  0  0  0  0  0  0
  158.8190  212.6860  146.0370 C   0  0  0  0  0  1  0  0  0  0  0  0
  2 10  2  0  0  0  0
  2  5  1  0  0  0  0
  3  9  2  0  0  0  0
  5 13  2  0  0  0  0
  6 12  2  0  0  0  0
  6  3  1  0  0  0  0
  7  4  2  0  0  0  0
  8  4  1  0  0  0  0
  8  1  2  0  0  0  0
  9  1  1  0  0  0  0
 10  6  1  0  0  0  0
 11 26  1  1  0  0  0
 11  7  1  0  0  0  0
 11 12  1  0  0  0  0
 12  8  1  0  0  0  0
 13  3  1  0  0  0  0
 14 22  1  0  0  0  0
 15 19  1  0  0  0  0
 15 16  1  0  0  0  0
 16 21  1  0  0  0  0
 18 17  1  0  0  0  0
 19 18  1  0  0  0  0
 20 16  1  0  0  0  0
 20 14  1  0  0  0  0
 21 22  2  0  0  0  0
 21 17  1  0  0  0  0
 22  2  1  0  0  0  0
 23 19  2  0  0  0  0
 24 20  2  0  0  0  0
 26 25  2  0  0  0  0
 27 26  1  0  0  0  0
 28 27  1  0  0  0  0
 29 28  1  1  0  0  0
 30 32  1  6  0  0  0
 30 31  1  0  0  0  0
 30 29  1  0  0  0  0
 31 29  1  0  0  0  0
 32 33  1  6  0  0  0
 34 33  2  0  0  0  0
 35 33  1  0  0  0  0
 36 32  1  0  0  0  0
 36 37  1  0  0  0  0
M  END
>  <MODEL>
1

>  <REMARK>
 VINA RESULT:      -9.1      0.000      0.000
  Name = 
  8 active torsions:
  status: ('A' for Active; 'I' for Inactive)
    1  A    between atoms: C_1  and  C_8
    2  A    between atoms: C_2  and  C_31
    3  A    between atoms: C_4  and  C_30
    4  A    between atoms: C_8  and  O_10
    5  A    between atoms: C_8  and  C_12
    6  A    between atoms: C_21  and  C_31
    7  A    between atoms: C_21  and  C_36
    8  A    between atoms: C_26  and  C_36
                            x       y       z     vdW  Elec       q    Type
                         _______ _______ _______ _____ _____    ______ ____

>  <TORSDO>
F 8

$$$$
=
 OpenBabel11072413023D

 37 42  0  0  1  0  0  0  0  0999 V2000
  160.8960  208.8670  155.2190 C   0  0  0  0  0  3  0  0  0  0  0  0
  161.1010  205.4890  151.4970 C   0  0  0  0  0  0  0  0  0  0  0  0
  161.0510  206.8500  153.9610 C   0  0  0  0  0  0  0  0  0  0  0  0
  160.6510  211.0590  153.9160 C   0  0  0  0  0  3  0  0  0  0  0  0
  161.1920  204.7860  152.7080 C   0  0  0  0  0  3  0  0  0  0  0  0
  160.9640  207.5720  152.7450 C   0  0  0  0  0  0  0  0  0  0  0  0
  160.5270  211.2930  152.4040 C   0  0  0  0  0  3  0  0  0  0  0  0
  160.8100  209.5960  154.0360 C   0  0  0  0  0  0  0  0  0  0  0  0
  161.0170  207.5110  155.1530 N   0  0  0  0  0  0  0  0  0  0  0  0
  160.9880  206.8870  151.5250 C   0  0  0  0  0  3  0  0  0  0  0  0
  160.7300  209.9420  151.7010 C   0  0  2  0  0  3  0  0  0  0  0  0
  160.8530  208.9670  152.8200 C   0  0  0  0  0  0  0  0  0  0  0  0
  161.1660  205.4590  153.9320 C   0  0  0  0  0  3  0  0  0  0  0  0
  161.1090  203.3900  150.1590 N   0  0  0  0  0  2  0  0  0  0  0  0
  161.2870  204.2640  146.6050 C   0  0  0  0  0  2  0  0  0  0  0  0
  161.1990  204.2190  148.0650 N   0  0  0  0  0  0  0  0  0  0  0  0
  161.1680  206.6950  148.5080 C   0  0  0  0  0  2  0  0  0  0  0  0
  162.1270  206.9370  146.9750 S   0  0  0  0  0  0  0  0  0  0  0  0
  161.1910  205.6740  146.1160 C   0  0  0  0  0  0  0  0  0  0  0  0
  161.1510  203.1210  148.8370 C   0  0  0  0  0  0  0  0  0  0  0  0
  161.2060  205.2540  148.9310 C   0  0  0  0  0  0  0  0  0  0  0  0
  161.1390  204.7410  150.2210 C   0  0  0  0  0  0  0  0  0  0  0  0
  160.2460  206.0170  145.2450 C   0  0  0  0  0  2  0  0  0  0  0  0
  161.1430  201.9470  148.3770 O   0  0  0  0  0  0  0  0  0  0  0  0
  163.0790  209.9240  151.3630 O   0  0  0  0  0  0  0  0  0  0  0  0
  161.9680  209.9760  150.8540 C   0  0  0  0  0  0  0  0  0  0  0  0
  161.8300  210.0570  149.3730 C   0  0  0  0  0  2  0  0  0  0  0  0
  162.4460  211.3410  148.8520 C   0  0  0  0  0  2  0  0  0  0  0  0
  161.3820  212.1600  148.1520 C   0  0  2  0  0  3  0  0  0  0  0  0
  161.9810  212.8160  146.9240 C   0  0  2  0  0  3  0  0  0  0  0  0
  161.7710  213.6230  148.1900 C   0  0  0  0  0  2  0  0  0  0  0  0
  160.8730  213.1370  145.9320 C   0  0  1  0  0  3  0  0  0  0  0  0
  161.4550  213.4300  144.5860 C   0  0  0  0  0  0  0  0  0  0  0  0
  160.9160  214.4490  143.8110 O   0  0  0  0  0  0  0  0  0  0  0  0
  162.4530  212.7870  144.1650 O   0  0  0  0  0  1  0  0  0  0  0  0
  159.9800  212.0630  145.8490 O   0  0  0  0  0  0  0  0  0  0  0  0
  158.7270  212.6540  145.6800 C   0  0  0  0  0  1  0  0  0  0  0  0
  2 10  2  0  0  0  0
  2  5  1  0  0  0  0
  3  9  2  0  0  0  0
  4  8  1  0  0  0  0
  5 13  2  0  0  0  0
  6 12  2  0  0  0  0
  6  3  1  0  0  0  0
  7  4  2  0  0  0  0
  8  1  2  0  0  0  0
  9  1  1  0  0  0  0
 10  6  1  0  0  0  0
 11 26  1  1  0  0  0
 11  7  1  0  0  0  0
 11 12  1  0  0  0  0
 12  8  1  0  0  0  0
 13  3  1  0  0  0  0
 14 22  1  0  0  0  0
 15 16  1  0  0  0  0
 16 20  1  0  0  0  0
 16 21  1  0  0  0  0
 17 21  1  0  0  0  0
 18 17  1  0  0  0  0
 19 15  1  0  0  0  0
 19 18  1  0  0  0  0
 20 14  1  0  0  0  0
 21 22  2  0  0  0  0
 22  2  1  0  0  0  0
 23 19  2  0  0  0  0
 24 20  2  0  0  0  0
 26 25  2  0  0  0  0
 27 26  1  0  0  0  0
 28 27  1  0  0  0  0
 29 31  1  0  0  0  0
 29 28  1  1  0  0  0
 30 32  1  6  0  0  0
 30 29  1  0  0  0  0
 30 31  1  0  0  0  0
 32 33  1  6  0  0  0
 34 33  2  0  0  0  0
 35 33  1  0  0  0  0
 36 32  1  0  0  0  0
 37 36  1  0  0  0  0
M  END
>  <MODEL>
2

>  <REMARK>
 VINA RESULT:      -8.8      1.517      2.106
  Name = 
  8 active torsions:
  status: ('A' for Active; 'I' for Inactive)
    1  A    between atoms: C_1  and  C_8
    2  A    between atoms: C_2  and  C_31
    3  A    between atoms: C_4  and  C_30
    4  A    between atoms: C_8  and  O_10
    5  A    between atoms: C_8  and  C_12
    6  A    between atoms: C_21  and  C_31
    7  A    between atoms: C_21  and  C_36
    8  A    between atoms: C_26  and  C_36
                            x       y       z     vdW  Elec       q    Type
                         _______ _______ _______ _____ _____    ______ ____

>  <TORSDO>
F 8

$$$$
=
 OpenBabel11072413023D

 37 42  0  0  1  0  0  0  0  0999 V2000
  161.0770  206.9860  154.3640 C   0  0  0  0  0  3  0  0  0  0  0  0
  161.1060  204.0720  150.2640 C   0  0  0  0  0  0  0  0  0  0  0  0
  161.1580  205.1310  152.8710 C   0  0  0  0  0  0  0  0  0  0  0  0
  160.8290  209.3210  153.3380 C   0  0  0  0  0  3  0  0  0  0  0  0
  161.2230  203.2280  151.3790 C   0  0  0  0  0  3  0  0  0  0  0  0
  161.0450  205.9940  151.7530 C   0  0  0  0  0  0  0  0  0  0  0  0
  160.6620  209.7340  151.8690 C   0  0  0  0  0  3  0  0  0  0  0  0
  160.9660  207.8510  153.2790 C   0  0  0  0  0  0  0  0  0  0  0  0
  161.1720  205.6460  154.1340 N   0  0  0  0  0  0  0  0  0  0  0  0
  161.0190  205.4580  150.4600 C   0  0  0  0  0  3  0  0  0  0  0  0
  160.8190  208.4730  151.0050 C   0  0  2  0  0  3  0  0  0  0  0  0
  160.9600  207.3710  151.9960 C   0  0  0  0  0  0  0  0  0  0  0  0
  161.2480  203.7520  152.6740 C   0  0  0  0  0  3  0  0  0  0  0  0
  160.7850  202.1830  148.6730 N   0  0  0  0  0  2  0  0  0  0  0  0
  161.4310  203.3890  145.2740 C   0  0  0  0  0  2  0  0  0  0  0  0
  161.2170  203.2020  146.7100 N   0  0  0  0  0  0  0  0  0  0  0  0
  161.6680  205.5590  147.4590 C   0  0  0  0  0  2  0  0  0  0  0  0
  162.7780  205.7570  146.0250 S   0  0  0  0  0  0  0  0  0  0  0  0
  161.6720  204.8310  144.9630 C   0  0  0  0  0  0  0  0  0  0  0  0
  160.8780  202.0600  147.3330 C   0  0  0  0  0  0  0  0  0  0  0  0
  161.3690  204.1070  147.6980 C   0  0  0  0  0  0  0  0  0  0  0  0
  161.0920  203.4800  148.9070 C   0  0  0  0  0  0  0  0  0  0  0  0
  160.8940  205.4660  144.0900 C   0  0  0  0  0  2  0  0  0  0  0  0
  160.6630  200.9750  146.7280 O   0  0  0  0  0  0  0  0  0  0  0  0
  163.1140  208.1560  150.4910 O   0  0  0  0  0  0  0  0  0  0  0  0
  162.0310  208.5910  150.1280 C   0  0  0  0  0  0  0  0  0  0  0  0
  161.8960  209.2330  148.7900 C   0  0  0  0  0  2  0  0  0  0  0  0
  162.5250  210.6130  148.7970 C   0  0  0  0  0  2  0  0  0  0  0  0
  161.4660  211.6480  148.4830 C   0  0  2  0  0  3  0  0  0  0  0  0
  161.8110  212.3380  147.1780 C   0  0  2  0  0  3  0  0  0  0  0  0
  162.0930  213.0260  148.4990 C   0  0  0  0  0  2  0  0  0  0  0  0
  160.5460  212.9220  146.5660 C   0  0  1  0  0  3  0  0  0  0  0  0
  160.7800  213.2690  145.1300 C   0  0  0  0  0  0  0  0  0  0  0  0
  160.6630  212.2850  144.1570 O   0  0  0  0  0  0  0  0  0  0  0  0
  161.0450  214.4530  144.7920 O   0  0  0  0  0  1  0  0  0  0  0  0
  159.4950  212.0050  146.6760 O   0  0  0  0  0  0  0  0  0  0  0  0
  158.3640  212.7870  146.9160 C   0  0  0  0  0  1  0  0  0  0  0  0
  2 10  2  0  0  0  0
  2  5  1  0  0  0  0
  3  9  2  0  0  0  0
  5 13  2  0  0  0  0
  6 12  2  0  0  0  0
  6  3  1  0  0  0  0
  7  4  2  0  0  0  0
  8  4  1  0  0  0  0
  8  1  2  0  0  0  0
  9  1  1  0  0  0  0
 10  6  1  0  0  0  0
 11 26  1  6  0  0  0
 11  7  1  0  0  0  0
 11 12  1  0  0  0  0
 12  8  1  0  0  0  0
 13  3  1  0  0  0  0
 14 22  1  0  0  0  0
 15 16  1  0  0  0  0
 16 20  1  0  0  0  0
 16 21  1  0  0  0  0
 17 21  1  0  0  0  0
 18 17  1  0  0  0  0
 19 15  1  0  0  0  0
 19 18  1  0  0  0  0
 20 14  1  0  0  0  0
 21 22  2  0  0  0  0
 22  2  1  0  0  0  0
 23 19  2  0  0  0  0
 24 20  2  0  0  0  0
 26 25  2  0  0  0  0
 27 28  1  0  0  0  0
 27 26  1  0  0  0  0
 29 31  1  0  0  0  0
 29 28  1  1  0  0  0
 30 32  1  6  0  0  0
 30 29  1  0  0  0  0
 30 31  1  0  0  0  0
 32 33  1  6  0  0  0
 32 36  1  0  0  0  0
 34 33  2  0  0  0  0
 35 33  1  0  0  0  0
 36 37  1  0  0  0  0
M  END
>  <MODEL>
3

>  <REMARK>
 VINA RESULT:      -8.5      1.841      2.586
  Name = 
  8 active torsions:
  status: ('A' for Active; 'I' for Inactive)
    1  A    between atoms: C_1  and  C_8
    2  A    between atoms: C_2  and  C_31
    3  A    between atoms: C_4  and  C_30
    4  A    between atoms: C_8  and  O_10
    5  A    between atoms: C_8  and  C_12
    6  A    between atoms: C_21  and  C_31
    7  A    between atoms: C_21  and  C_36
    8  A    between atoms: C_26  and  C_36
                            x       y       z     vdW  Elec       q    Type
                         _______ _______ _______ _____ _____    ______ ____

>  <TORSDO>
F 8

$$$$
=
 OpenBabel11072413023D

 37 42  0  0  1  0  0  0  0  0999 V2000
  160.7890  201.9850  148.8150 C   0  0  0  0  0  3  0  0  0  0  0  0
  161.2430  205.9290  151.9050 C   0  0  0  0  0  0  0  0  0  0  0  0
  160.7800  203.4190  150.7180 C   0  0  0  0  0  0  0  0  0  0  0  0
  161.5600  202.9830  146.5850 C   0  0  0  0  0  3  0  0  0  0  0  0
  160.7790  204.8470  152.6690 C   0  0  0  0  0  3  0  0  0  0  0  0
  161.2430  204.5040  149.9330 C   0  0  0  0  0  0  0  0  0  0  0  0
  162.0900  204.3890  146.2700 C   0  0  0  0  0  3  0  0  0  0  0  0
  161.2430  203.0380  148.0260 C   0  0  0  0  0  0  0  0  0  0  0  0
  160.5660  202.2010  150.1430 N   0  0  0  0  0  0  0  0  0  0  0  0
  161.4720  205.7480  150.5330 C   0  0  0  0  0  3  0  0  0  0  0  0
  161.9530  205.2380  147.5430 C   0  0  2  0  0  3  0  0  0  0  0  0
  161.4580  204.2790  148.5670 C   0  0  0  0  0  0  0  0  0  0  0  0
  160.5500  203.6010  152.0830 C   0  0  0  0  0  3  0  0  0  0  0  0
  162.1040  208.2650  151.9540 N   0  0  0  0  0  2  0  0  0  0  0  0
  161.3150  209.7380  155.2150 C   0  0  0  0  0  2  0  0  0  0  0  0
  161.4700  208.9090  154.0180 N   0  0  0  0  0  0  0  0  0  0  0  0
  160.2760  206.8530  154.8380 C   0  0  0  0  0  2  0  0  0  0  0  0
  160.7580  207.3040  156.5380 S   0  0  0  0  0  0  0  0  0  0  0  0
  160.4620  209.0430  156.2280 C   0  0  0  0  0  0  0  0  0  0  0  0
  162.0850  209.2510  152.8740 C   0  0  0  0  0  0  0  0  0  0  0  0
  161.0850  207.6290  153.8380 C   0  0  0  0  0  0  0  0  0  0  0  0
  161.4670  207.2370  152.5600 C   0  0  0  0  0  0  0  0  0  0  0  0
  159.3590  209.6280  156.6860 C   0  0  0  0  0  2  0  0  0  0  0  0
  162.5970  210.3860  152.6710 O   0  0  0  0  0  0  0  0  0  0  0  0
  160.3260  206.4260  146.2870 O   0  0  0  0  0  0  0  0  0  0  0  0
  160.9830  206.3610  147.3170 C   0  0  0  0  0  0  0  0  0  0  0  0
  160.8120  207.3950  148.3760 C   0  0  0  0  0  2  0  0  0  0  0  0
  161.8960  208.4490  148.2680 C   0  0  0  0  0  2  0  0  0  0  0  0
  161.3370  209.7890  148.6950 C   0  0  2  0  0  3  0  0  0  0  0  0
  162.0480  210.8940  147.9370 C   0  0  2  0  0  3  0  0  0  0  0  0
  162.4260  210.5930  149.3740 C   0  0  0  0  0  2  0  0  0  0  0  0
  161.1610  212.1300  147.8970 C   0  0  1  0  0  3  0  0  0  0  0  0
  161.9270  213.3290  148.3570 C   0  0  0  0  0  0  0  0  0  0  0  0
  163.1570  213.6220  147.7830 O   0  0  0  0  0  0  0  0  0  0  0  0
  161.4480  214.0980  149.2330 O   0  0  0  0  0  1  0  0  0  0  0  0
  160.6810  212.3320  146.5990 O   0  0  0  0  0  0  0  0  0  0  0  0
  159.3490  212.7150  146.7670 C   0  0  0  0  0  1  0  0  0  0  0  0
  1  9  1  0  0  0  0
  2 22  1  0  0  0  0
  2  5  1  0  0  0  0
  3 13  1  0  0  0  0
  4  8  1  0  0  0  0
  6 10  1  0  0  0  0
  6  3  1  0  0  0  0
  7  4  2  0  0  0  0
  7 11  1  0  0  0  0
  8 12  1  0  0  0  0
  8  1  2  0  0  0  0
  9  3  2  0  0  0  0
 10  2  2  0  0  0  0
 11 26  1  6  0  0  0
 11 12  1  0  0  0  0
 12  6  2  0  0  0  0
 13  5  2  0  0  0  0
 14 22  1  0  0  0  0
 14 20  1  0  0  0  0
 15 19  1  0  0  0  0
 16 15  1  0  0  0  0
 17 18  1  0  0  0  0
 19 18  1  0  0  0  0
 19 23  2  0  0  0  0
 20 16  1  0  0  0  0
 21 16  1  0  0  0  0
 21 17  1  0  0  0  0
 22 21  2  0  0  0  0
 24 20  2  0  0  0  0
 25 26  2  0  0  0  0
 26 27  1  0  0  0  0
 28 27  1  0  0  0  0
 29 28  1  6  0  0  0
 29 31  1  0  0  0  0
 30 32  1  1  0  0  0
 30 29  1  0  0  0  0
 30 31  1  0  0  0  0
 32 36  1  6  0  0  0
 32 33  1  0  0  0  0
 33 35  1  0  0  0  0
 34 33  2  0  0  0  0
 36 37  1  0  0  0  0
M  END
>  <MODEL>
4

>  <REMARK>
 VINA RESULT:      -7.9      2.306      6.438
  Name = 
  8 active torsions:
  status: ('A' for Active; 'I' for Inactive)
    1  A    between atoms: C_1  and  C_8
    2  A    between atoms: C_2  and  C_31
    3  A    between atoms: C_4  and  C_30
    4  A    between atoms: C_8  and  O_10
    5  A    between atoms: C_8  and  C_12
    6  A    between atoms: C_21  and  C_31
    7  A    between atoms: C_21  and  C_36
    8  A    between atoms: C_26  and  C_36
                            x       y       z     vdW  Elec       q    Type
                         _______ _______ _______ _____ _____    ______ ____

>  <TORSDO>
F 8

$$$$
=
 OpenBabel11072413023D

 37 42  0  0  1  0  0  0  0  0999 V2000
  160.8660  206.9810  154.0710 C   0  0  0  0  0  3  0  0  0  0  0  0
  161.6010  210.6160  150.6720 C   0  0  0  0  0  0  0  0  0  0  0  0
  161.0430  209.0850  152.9670 C   0  0  0  0  0  0  0  0  0  0  0  0
  161.3840  204.8790  152.7020 C   0  0  0  0  0  3  0  0  0  0  0  0
  161.2330  211.2350  151.8760 C   0  0  0  0  0  3  0  0  0  0  0  0
  161.4070  208.4470  151.7560 C   0  0  0  0  0  0  0  0  0  0  0  0
  161.8610  204.7470  151.2490 C   0  0  0  0  0  3  0  0  0  0  0  0
  161.2220  206.3350  152.8910 C   0  0  0  0  0  0  0  0  0  0  0  0
  160.7830  208.3420  154.0810 N   0  0  0  0  0  0  0  0  0  0  0  0
  161.6840  209.2170  150.6200 C   0  0  0  0  0  3  0  0  0  0  0  0
  161.8500  206.1500  150.6220 C   0  0  2  0  0  3  0  0  0  0  0  0
  161.4780  207.0480  151.7500 C   0  0  0  0  0  0  0  0  0  0  0  0
  160.9580  210.4770  153.0170 C   0  0  0  0  0  3  0  0  0  0  0  0
  163.0460  211.4010  148.8030 N   0  0  0  0  0  2  0  0  0  0  0  0
  161.2170  213.9330  146.8870 C   0  0  0  0  0  2  0  0  0  0  0  0
  161.6840  212.8970  147.8100 N   0  0  0  0  0  0  0  0  0  0  0  0
  159.6170  212.7080  149.2290 C   0  0  0  0  0  2  0  0  0  0  0  0
  159.2460  214.4520  148.8450 S   0  0  0  0  0  0  0  0  0  0  0  0
  159.7800  214.2570  147.1460 C   0  0  0  0  0  0  0  0  0  0  0  0
  162.8850  212.2940  147.8040 C   0  0  0  0  0  0  0  0  0  0  0  0
  161.0400  212.3820  148.8770 C   0  0  0  0  0  0  0  0  0  0  0  0
  161.8770  211.4520  149.4820 C   0  0  0  0  0  0  0  0  0  0  0  0
  158.8830  214.1450  146.1700 C   0  0  0  0  0  2  0  0  0  0  0  0
  163.7800  212.5320  146.9490 O   0  0  0  0  0  0  0  0  0  0  0  0
  159.6960  205.8440  149.6750 O   0  0  0  0  0  0  0  0  0  0  0  0
  160.8490  206.2130  149.5060 C   0  0  0  0  0  0  0  0  0  0  0  0
  161.2720  206.7540  148.1840 C   0  0  0  0  0  2  0  0  0  0  0  0
  162.0880  205.7250  147.4260 C   0  0  0  0  0  2  0  0  0  0  0  0
  161.1930  204.5730  147.0230 C   0  0  2  0  0  3  0  0  0  0  0  0
  161.8740  203.2630  147.3700 C   0  0  2  0  0  3  0  0  0  0  0  0
  161.8760  203.7640  145.9390 C   0  0  0  0  0  2  0  0  0  0  0  0
  160.8240  202.1730  147.5210 C   0  0  1  0  0  3  0  0  0  0  0  0
  160.8130  201.2940  146.3110 C   0  0  0  0  0  0  0  0  0  0  0  0
  161.3870  200.0310  146.3730 O   0  0  0  0  0  1  0  0  0  0  0  0
  160.2550  201.6740  145.2480 O   0  0  0  0  0  0  0  0  0  0  0  0
  161.0850  201.4130  148.6670 O   0  0  0  0  0  0  0  0  0  0  0  0
  160.1710  201.8750  149.6170 C   0  0  0  0  0  1  0  0  0  0  0  0
  1  9  1  0  0  0  0
  2  5  1  0  0  0  0
  3 13  1  0  0  0  0
  3  9  2  0  0  0  0
  4  8  1  0  0  0  0
  5 13  2  0  0  0  0
  6  3  1  0  0  0  0
  7  4  2  0  0  0  0
  8  1  2  0  0  0  0
 10  2  2  0  0  0  0
 10  6  1  0  0  0  0
 11 26  1  6  0  0  0
 11  7  1  0  0  0  0
 11 12  1  0  0  0  0
 12  6  2  0  0  0  0
 12  8  1  0  0  0  0
 14 22  1  0  0  0  0
 15 19  1  0  0  0  0
 15 16  1  0  0  0  0
 16 21  1  0  0  0  0
 18 17  1  0  0  0  0
 19 18  1  0  0  0  0
 20 16  1  0  0  0  0
 20 14  1  0  0  0  0
 21 17  1  0  0  0  0
 21 22  2  0  0  0  0
 22  2  1  0  0  0  0
 23 19  2  0  0  0  0
 24 20  2  0  0  0  0
 26 25  2  0  0  0  0
 27 26  1  0  0  0  0
 28 27  1  0  0  0  0
 29 30  1  0  0  0  0
 29 28  1  1  0  0  0
 30 32  1  6  0  0  0
 31 29  1  0  0  0  0
 31 30  1  0  0  0  0
 32 33  1  6  0  0  0
 32 36  1  0  0  0  0
 33 34  1  0  0  0  0
 35 33  2  0  0  0  0
 36 37  1  0  0  0  0
M  END
>  <MODEL>
5

>  <REMARK>
 VINA RESULT:      -7.7      3.264      8.392
  Name = 
  8 active torsions:
  status: ('A' for Active; 'I' for Inactive)
    1  A    between atoms: C_1  and  C_8
    2  A    between atoms: C_2  and  C_31
    3  A    between atoms: C_4  and  C_30
    4  A    between atoms: C_8  and  O_10
    5  A    between atoms: C_8  and  C_12
    6  A    between atoms: C_21  and  C_31
    7  A    between atoms: C_21  and  C_36
    8  A    between atoms: C_26  and  C_36
                            x       y       z     vdW  Elec       q    Type
                         _______ _______ _______ _____ _____    ______ ____

>  <TORSDO>
F 8

$$$$
=
 OpenBabel11072413023D

 37 42  0  0  1  0  0  0  0  0999 V2000
  159.4480  212.5570  156.2740 C   0  0  0  0  0  3  0  0  0  0  0  0
  158.5140  213.2750  151.3830 C   0  0  0  0  0  0  0  0  0  0  0  0
  158.5190  213.2680  154.1980 C   0  0  0  0  0  0  0  0  0  0  0  0
  161.4770  210.9950  156.1900 C   0  0  0  0  0  3  0  0  0  0  0  0
  157.5670  214.0190  152.1050 C   0  0  0  0  0  3  0  0  0  0  0  0
  159.4760  212.5080  153.4810 C   0  0  0  0  0  0  0  0  0  0  0  0
  162.2570  210.4640  154.9790 C   0  0  0  0  0  3  0  0  0  0  0  0
  160.3970  211.8040  155.5880 C   0  0  0  0  0  0  0  0  0  0  0  0
  158.5290  213.2700  155.5620 N   0  0  0  0  0  0  0  0  0  0  0  0
  159.4670  212.5200  152.0810 C   0  0  0  0  0  3  0  0  0  0  0  0
  161.5160  210.9130  153.7090 C   0  0  2  0  0  3  0  0  0  0  0  0
  160.4090  211.7680  154.2190 C   0  0  0  0  0  0  0  0  0  0  0  0
  157.5690  214.0170  153.5020 C   0  0  0  0  0  3  0  0  0  0  0  0
  157.3210  213.3190  149.1980 N   0  0  0  0  0  2  0  0  0  0  0  0
  159.8050  213.3290  146.5050 C   0  0  0  0  0  2  0  0  0  0  0  0
  159.0590  213.3420  147.7640 N   0  0  0  0  0  0  0  0  0  0  0  0
  161.0120  213.3700  149.3480 C   0  0  0  0  0  2  0  0  0  0  0  0
  161.9930  212.4920  148.0850 S   0  0  0  0  0  0  0  0  0  0  0  0
  161.2720  213.4610  146.7620 C   0  0  0  0  0  0  0  0  0  0  0  0
  157.7230  213.3420  147.9110 C   0  0  0  0  0  0  0  0  0  0  0  0
  159.5480  213.2990  149.0200 C   0  0  0  0  0  0  0  0  0  0  0  0
  158.4750  213.2960  149.9040 C   0  0  0  0  0  0  0  0  0  0  0  0
  161.9620  214.4520  146.2040 C   0  0  0  0  0  2  0  0  0  0  0  0
  156.9170  213.3640  146.9420 O   0  0  0  0  0  0  0  0  0  0  0  0
  160.1670  208.9760  153.4620 O   0  0  0  0  0  0  0  0  0  0  0  0
  160.9980  209.7200  152.9610 C   0  0  0  0  0  0  0  0  0  0  0  0
  161.4960  209.4590  151.5810 C   0  0  0  0  0  2  0  0  0  0  0  0
  161.7140  207.9730  151.3670 C   0  0  0  0  0  2  0  0  0  0  0  0
  161.0370  207.5470  150.0820 C   0  0  2  0  0  3  0  0  0  0  0  0
  161.8610  206.4620  149.4170 C   0  0  2  0  0  3  0  0  0  0  0  0
  161.9320  207.8880  148.9080 C   0  0  0  0  0  2  0  0  0  0  0  0
  160.9680  205.6420  148.4980 C   0  0  1  0  0  3  0  0  0  0  0  0
  161.3890  205.8230  147.0740 C   0  0  0  0  0  0  0  0  0  0  0  0
  160.4520  206.2080  146.1240 O   0  0  0  0  0  0  0  0  0  0  0  0
  162.5920  205.6680  146.7370 O   0  0  0  0  0  1  0  0  0  0  0  0
  161.0310  204.2900  148.8520 O   0  0  0  0  0  0  0  0  0  0  0  0
  160.9790  204.2840  150.2470 C   0  0  0  0  0  1  0  0  0  0  0  0
  2 10  2  0  0  0  0
  2  5  1  0  0  0  0
  3  9  1  0  0  0  0
  5 13  2  0  0  0  0
  6  3  2  0  0  0  0
  6 12  1  0  0  0  0
  7  4  2  0  0  0  0
  8  4  1  0  0  0  0
  8  1  1  0  0  0  0
  9  1  2  0  0  0  0
 10  6  1  0  0  0  0
 11 26  1  1  0  0  0
 11 12  1  0  0  0  0
 11  7  1  0  0  0  0
 12  8  2  0  0  0  0
 13  3  1  0  0  0  0
 14 22  1  0  0  0  0
 15 19  1  0  0  0  0
 15 16  1  0  0  0  0
 16 20  1  0  0  0  0
 16 21  1  0  0  0  0
 18 17  1  0  0  0  0
 19 18  1  0  0  0  0
 20 14  1  0  0  0  0
 21 17  1  0  0  0  0
 21 22  2  0  0  0  0
 22  2  1  0  0  0  0
 23 19  2  0  0  0  0
 24 20  2  0  0  0  0
 26 25  2  0  0  0  0
 27 26  1  0  0  0  0
 28 27  1  0  0  0  0
 29 28  1  1  0  0  0
 30 32  1  6  0  0  0
 30 29  1  0  0  0  0
 31 30  1  0  0  0  0
 31 29  1  0  0  0  0
 32 33  1  6  0  0  0
 32 36  1  0  0  0  0
 34 33  2  0  0  0  0
 35 33  1  0  0  0  0
 36 37  1  0  0  0  0
M  END
>  <MODEL>
6

>  <REMARK>
 VINA RESULT:      -7.3      3.822      7.820
  Name = 
  8 active torsions:
  status: ('A' for Active; 'I' for Inactive)
    1  A    between atoms: C_1  and  C_8
    2  A    between atoms: C_2  and  C_31
    3  A    between atoms: C_4  and  C_30
    4  A    between atoms: C_8  and  O_10
    5  A    between atoms: C_8  and  C_12
    6  A    between atoms: C_21  and  C_31
    7  A    between atoms: C_21  and  C_36
    8  A    between atoms: C_26  and  C_36
                            x       y       z     vdW  Elec       q    Type
                         _______ _______ _______ _____ _____    ______ ____

>  <TORSDO>
F 8

$$$$
=
 OpenBabel11072413023D

 37 42  0  0  1  0  0  0  0  0999 V2000
  160.9210  208.6040  155.1310 C   0  0  0  0  0  3  0  0  0  0  0  0
  161.1740  205.3380  151.3130 C   0  0  0  0  0  0  0  0  0  0  0  0
  161.1200  206.6280  153.8140 C   0  0  0  0  0  0  0  0  0  0  0  0
  160.5860  210.8220  153.8930 C   0  0  0  0  0  3  0  0  0  0  0  0
  161.3070  204.6050  152.5030 C   0  0  0  0  0  3  0  0  0  0  0  0
  160.9910  207.3800  152.6200 C   0  0  0  0  0  0  0  0  0  0  0  0
  160.4300  211.0930  152.3900 C   0  0  0  0  0  3  0  0  0  0  0  0
  160.7920  209.3620  153.9700 C   0  0  0  0  0  0  0  0  0  0  0  0
  161.0840  207.2550  155.0250 N   0  0  0  0  0  0  0  0  0  0  0  0
  161.0170  206.7300  151.3820 C   0  0  0  0  0  3  0  0  0  0  0  0
  160.6650  209.7690  151.6470 C   0  0  2  0  0  3  0  0  0  0  0  0
  160.8360  208.7680  152.7360 C   0  0  0  0  0  0  0  0  0  0  0  0
  161.2790  205.2430  153.7450 C   0  0  0  0  0  3  0  0  0  0  0  0
  161.1370  203.2800  149.9120 N   0  0  0  0  0  2  0  0  0  0  0  0
  161.4340  204.2510  146.3920 C   0  0  0  0  0  2  0  0  0  0  0  0
  161.3090  204.1670  147.8480 N   0  0  0  0  0  0  0  0  0  0  0  0
  161.3590  206.6270  148.3640 C   0  0  0  0  0  2  0  0  0  0  0  0
  162.3630  206.8780  146.8630 S   0  0  0  0  0  0  0  0  0  0  0  0
  161.4020  205.6770  145.9440 C   0  0  0  0  0  0  0  0  0  0  0  0
  161.2010  203.0480  148.5850 C   0  0  0  0  0  0  0  0  0  0  0  0
  161.3330  205.1740  148.7440 C   0  0  0  0  0  0  0  0  0  0  0  0
  161.2160  204.6270  150.0160 C   0  0  0  0  0  0  0  0  0  0  0  0
  160.4920  206.0810  145.0620 C   0  0  0  0  0  2  0  0  0  0  0  0
  161.1610  201.8900  148.0900 O   0  0  0  0  0  0  0  0  0  0  0  0
  163.0010  209.9650  151.2790 O   0  0  0  0  0  0  0  0  0  0  0  0
  161.8880  209.8670  150.7830 C   0  0  0  0  0  0  0  0  0  0  0  0
  161.7330  209.8230  149.3020 C   0  0  0  0  0  2  0  0  0  0  0  0
  162.6190  210.8640  148.6450 C   0  0  0  0  0  2  0  0  0  0  0  0
  161.9860  212.2300  148.8010 C   0  0  2  0  0  3  0  0  0  0  0  0
  160.6520  212.2500  148.0810 C   0  0  2  0  0  3  0  0  0  0  0  0
  161.8690  212.8850  147.4400 C   0  0  0  0  0  2  0  0  0  0  0  0
  159.7720  213.3370  148.6790 C   0  0  1  0  0  3  0  0  0  0  0  0
  158.3720  213.2080  148.1680 C   0  0  0  0  0  0  0  0  0  0  0  0
  158.1170  212.4180  147.0550 O   0  0  0  0  0  0  0  0  0  0  0  0
  157.4180  213.7780  148.7610 O   0  0  0  0  0  1  0  0  0  0  0  0
  159.7850  213.2500  150.0750 O   0  0  0  0  0  0  0  0  0  0  0  0
  160.4950  214.3760  150.4960 C   0  0  0  0  0  1  0  0  0  0  0  0
  2 10  2  0  0  0  0
  2  5  1  0  0  0  0
  3  9  2  0  0  0  0
  4  8  1  0  0  0  0
  5 13  2  0  0  0  0
  6 12  2  0  0  0  0
  6  3  1  0  0  0  0
  7  4  2  0  0  0  0
  8  1  2  0  0  0  0
  9  1  1  0  0  0  0
 10  6  1  0  0  0  0
 11 26  1  1  0  0  0
 11  7  1  0  0  0  0
 11 12  1  0  0  0  0
 12  8  1  0  0  0  0
 13  3  1  0  0  0  0
 14 22  1  0  0  0  0
 15 16  1  0  0  0  0
 16 20  1  0  0  0  0
 16 21  1  0  0  0  0
 17 21  1  0  0  0  0
 18 17  1  0  0  0  0
 19 15  1  0  0  0  0
 19 18  1  0  0  0  0
 20 14  1  0  0  0  0
 21 22  2  0  0  0  0
 22  2  1  0  0  0  0
 23 19  2  0  0  0  0
 24 20  2  0  0  0  0
 26 25  2  0  0  0  0
 27 26  1  0  0  0  0
 28 27  1  0  0  0  0
 29 28  1  6  0  0  0
 30 32  1  1  0  0  0
 30 29  1  0  0  0  0
 31 30  1  0  0  0  0
 31 29  1  0  0  0  0
 32 33  1  6  0  0  0
 32 36  1  0  0  0  0
 33 35  1  0  0  0  0
 34 33  2  0  0  0  0
 36 37  1  0  0  0  0
M  END
>  <MODEL>
7

>  <REMARK>
 VINA RESULT:      -7.3      2.067      2.924
  Name = 
  8 active torsions:
  status: ('A' for Active; 'I' for Inactive)
    1  A    between atoms: C_1  and  C_8
    2  A    between atoms: C_2  and  C_31
    3  A    between atoms: C_4  and  C_30
    4  A    between atoms: C_8  and  O_10
    5  A    between atoms: C_8  and  C_12
    6  A    between atoms: C_21  and  C_31
    7  A    between atoms: C_21  and  C_36
    8  A    between atoms: C_26  and  C_36
                            x       y       z     vdW  Elec       q    Type
                         _______ _______ _______ _____ _____    ______ ____

>  <TORSDO>
F 8

$$$$
=
 OpenBabel11072413023D

 37 42  0  0  1  0  0  0  0  0999 V2000
  158.1300  211.6230  155.4370 C   0  0  0  0  0  3  0  0  0  0  0  0
  159.4980  213.2560  150.8800 C   0  0  0  0  0  0  0  0  0  0  0  0
  158.2100  212.7230  153.3250 C   0  0  0  0  0  0  0  0  0  0  0  0
  160.0780  210.0720  156.0380 C   0  0  0  0  0  3  0  0  0  0  0  0
  158.2740  213.8660  151.1950 C   0  0  0  0  0  3  0  0  0  0  0  0
  159.4420  212.0960  153.0170 C   0  0  0  0  0  0  0  0  0  0  0  0
  161.3640  209.7650  155.2590 C   0  0  0  0  0  3  0  0  0  0  0  0
  159.3400  210.9960  155.1540 C   0  0  0  0  0  0  0  0  0  0  0  0
  157.5920  212.4710  154.5150 N   0  0  0  0  0  0  0  0  0  0  0  0
  160.0760  212.3680  151.7990 C   0  0  0  0  0  3  0  0  0  0  0  0
  161.2590  210.4540  153.8890 C   0  0  2  0  0  3  0  0  0  0  0  0
  159.9830  211.2170  153.9640 C   0  0  0  0  0  0  0  0  0  0  0  0
  157.6340  213.6040  152.4090 C   0  0  0  0  0  3  0  0  0  0  0  0
  161.4480  213.8900  149.4680 N   0  0  0  0  0  2  0  0  0  0  0  0
  160.3780  213.9880  145.9650 C   0  0  0  0  0  2  0  0  0  0  0  0
  160.5190  213.8490  147.4150 N   0  0  0  0  0  0  0  0  0  0  0  0
  158.1670  213.1320  147.9460 C   0  0  0  0  0  2  0  0  0  0  0  0
  157.6000  214.0590  146.4810 S   0  0  0  0  0  0  0  0  0  0  0  0
  159.0210  213.5380  145.5240 C   0  0  0  0  0  0  0  0  0  0  0  0
  161.6290  214.0630  148.1420 C   0  0  0  0  0  0  0  0  0  0  0  0
  159.5660  213.5370  148.3170 C   0  0  0  0  0  0  0  0  0  0  0  0
  160.1430  213.5530  149.5810 C   0  0  0  0  0  0  0  0  0  0  0  0
  158.9000  212.5760  144.6130 C   0  0  0  0  0  2  0  0  0  0  0  0
  162.7370  214.3930  147.6390 O   0  0  0  0  0  0  0  0  0  0  0  0
  160.3550  208.5790  152.7490 O   0  0  0  0  0  0  0  0  0  0  0  0
  161.2320  209.4300  152.7930 C   0  0  0  0  0  0  0  0  0  0  0  0
  162.2830  209.4710  151.7370 C   0  0  0  0  0  2  0  0  0  0  0  0
  161.6630  209.3020  150.3640 C   0  0  0  0  0  2  0  0  0  0  0  0
  162.2070  208.0450  149.7200 C   0  0  2  0  0  3  0  0  0  0  0  0
  161.1810  206.9350  149.8410 C   0  0  2  0  0  3  0  0  0  0  0  0
  162.3720  206.9720  150.7770 C   0  0  0  0  0  2  0  0  0  0  0  0
  161.4270  205.9000  148.7530 C   0  0  1  0  0  3  0  0  0  0  0  0
  161.1880  204.5240  149.2870 C   0  0  0  0  0  0  0  0  0  0  0  0
  161.2060  203.4370  148.4220 O   0  0  0  0  0  0  0  0  0  0  0  0
  161.0090  204.3360  150.5200 O   0  0  0  0  0  1  0  0  0  0  0  0
  160.5880  206.1460  147.6610 O   0  0  0  0  0  0  0  0  0  0  0  0
  161.4470  206.2270  146.5630 C   0  0  0  0  0  1  0  0  0  0  0  0
  2  5  2  0  0  0  0
  2 10  1  0  0  0  0
  3  9  1  0  0  0  0
  5 13  1  0  0  0  0
  6  3  1  0  0  0  0
  6 12  1  0  0  0  0
  7  4  2  0  0  0  0
  8  1  1  0  0  0  0
  8  4  1  0  0  0  0
  9  1  2  0  0  0  0
 10  6  2  0  0  0  0
 11 26  1  6  0  0  0
 11 12  1  0  0  0  0
 11  7  1  0  0  0  0
 12  8  2  0  0  0  0
 13  3  2  0  0  0  0
 14 22  1  0  0  0  0
 15 16  1  0  0  0  0
 16 20  1  0  0  0  0
 16 21  1  0  0  0  0
 17 21  1  0  0  0  0
 18 17  1  0  0  0  0
 19 15  1  0  0  0  0
 19 18  1  0  0  0  0
 20 14  1  0  0  0  0
 21 22  2  0  0  0  0
 22  2  1  0  0  0  0
 23 19  2  0  0  0  0
 24 20  2  0  0  0  0
 25 26  2  0  0  0  0
 27 26  1  0  0  0  0
 28 27  1  0  0  0  0
 29 30  1  0  0  0  0
 29 28  1  1  0  0  0
 29 31  1  0  0  0  0
 30 32  1  6  0  0  0
 30 31  1  0  0  0  0
 32 36  1  6  0  0  0
 32 33  1  0  0  0  0
 33 35  1  0  0  0  0
 34 33  2  0  0  0  0
 37 36  1  0  0  0  0
M  END
>  <MODEL>
8

>  <REMARK>
 VINA RESULT:      -7.3      3.869      7.951
  Name = 
  8 active torsions:
  status: ('A' for Active; 'I' for Inactive)
    1  A    between atoms: C_1  and  C_8
    2  A    between atoms: C_2  and  C_31
    3  A    between atoms: C_4  and  C_30
    4  A    between atoms: C_8  and  O_10
    5  A    between atoms: C_8  and  C_12
    6  A    between atoms: C_21  and  C_31
    7  A    between atoms: C_21  and  C_36
    8  A    between atoms: C_26  and  C_36
                            x       y       z     vdW  Elec       q    Type
                         _______ _______ _______ _____ _____    ______ ____

>  <TORSDO>
F 8

$$$$
=
 OpenBabel11072413023D

 37 42  0  0  1  0  0  0  0  0999 V2000
  162.1630  208.2960  147.8770 C   0  0  0  0  0  3  0  0  0  0  0  0
  161.1100  209.2230  152.7080 C   0  0  0  0  0  0  0  0  0  0  0  0
  161.9430  209.3120  150.0210 C   0  0  0  0  0  0  0  0  0  0  0  0
  161.2800  205.9070  147.6030 C   0  0  0  0  0  3  0  0  0  0  0  0
  161.7170  210.3740  152.1820 C   0  0  0  0  0  3  0  0  0  0  0  0
  161.3370  208.1420  150.5410 C   0  0  0  0  0  0  0  0  0  0  0  0
  160.5560  205.0060  148.6140 C   0  0  0  0  0  3  0  0  0  0  0  0
  161.5690  207.1360  148.3680 C   0  0  0  0  0  0  0  0  0  0  0  0
  162.3380  209.3560  148.7160 N   0  0  0  0  0  0  0  0  0  0  0  0
  160.9240  208.1070  151.8780 C   0  0  0  0  0  3  0  0  0  0  0  0
  160.5550  205.7290  149.9700 C   0  0  2  0  0  3  0  0  0  0  0  0
  161.1720  207.0520  149.6760 C   0  0  0  0  0  0  0  0  0  0  0  0
  162.1300  210.4200  150.8480 C   0  0  0  0  0  3  0  0  0  0  0  0
  161.1690  208.3160  155.0260 N   0  0  0  0  0  2  0  0  0  0  0  0
  158.8920  210.2830  157.1150 C   0  0  0  0  0  2  0  0  0  0  0  0
  159.7260  209.7020  156.0630 N   0  0  0  0  0  0  0  0  0  0  0  0
  159.0890  211.2520  154.1880 C   0  0  0  0  0  2  0  0  0  0  0  0
  157.4680  211.4860  154.9910 S   0  0  0  0  0  0  0  0  0  0  0  0
  158.2090  211.5190  156.6210 C   0  0  0  0  0  0  0  0  0  0  0  0
  160.5550  208.6500  156.1790 C   0  0  0  0  0  0  0  0  0  0  0  0
  159.7940  210.0570  154.7640 C   0  0  0  0  0  0  0  0  0  0  0  0
  160.6930  209.2080  154.1280 C   0  0  0  0  0  0  0  0  0  0  0  0
  158.3760  212.6750  157.2590 C   0  0  0  0  0  2  0  0  0  0  0  0
  160.7460  208.0310  157.2610 O   0  0  0  0  0  0  0  0  0  0  0  0
  162.3580  205.4310  151.4840 O   0  0  0  0  0  0  0  0  0  0  0  0
  161.3550  204.9520  150.9740 C   0  0  0  0  0  0  0  0  0  0  0  0
  160.9000  203.5880  151.3630 C   0  0  0  0  0  2  0  0  0  0  0  0
  160.1410  202.9360  150.2230 C   0  0  0  0  0  2  0  0  0  0  0  0
  161.1250  202.4140  149.1990 C   0  0  2  0  0  3  0  0  0  0  0  0
  160.3710  201.6850  148.1040 C   0  0  2  0  0  3  0  0  0  0  0  0
  161.0810  200.9000  149.1880 C   0  0  0  0  0  2  0  0  0  0  0  0
  161.2120  201.6680  146.8360 C   0  0  1  0  0  3  0  0  0  0  0  0
  160.8730  200.4700  146.0080 C   0  0  0  0  0  0  0  0  0  0  0  0
  161.4020  199.2310  146.3420 O   0  0  0  0  0  1  0  0  0  0  0  0
  160.0810  200.5690  145.0330 O   0  0  0  0  0  0  0  0  0  0  0  0
  160.9940  202.8400  146.1030 O   0  0  0  0  0  0  0  0  0  0  0  0
  162.2620  203.4040  145.9480 C   0  0  0  0  0  1  0  0  0  0  0  0
  1  8  2  0  0  0  0
  1  9  1  0  0  0  0
  2 22  1  0  0  0  0
  3  6  1  0  0  0  0
  3 13  1  0  0  0  0
  4  8  1  0  0  0  0
  4  7  2  0  0  0  0
  5  2  1  0  0  0  0
  6 10  1  0  0  0  0
  7 11  1  0  0  0  0
  8 12  1  0  0  0  0
  9  3  2  0  0  0  0
 10  2  2  0  0  0  0
 11 26  1  1  0  0  0
 12 11  1  0  0  0  0
 12  6  2  0  0  0  0
 13  5  2  0  0  0  0
 14 20  1  0  0  0  0
 16 20  1  0  0  0  0
 16 15  1  0  0  0  0
 17 21  1  0  0  0  0
 17 18  1  0  0  0  0
 18 19  1  0  0  0  0
 19 15  1  0  0  0  0
 19 23  2  0  0  0  0
 20 24  2  0  0  0  0
 21 16  1  0  0  0  0
 22 21  2  0  0  0  0
 22 14  1  0  0  0  0
 26 27  1  0  0  0  0
 26 25  2  0  0  0  0
 28 27  1  0  0  0  0
 29 28  1  1  0  0  0
 30 32  1  6  0  0  0
 30 31  1  0  0  0  0
 30 29  1  0  0  0  0
 31 29  1  0  0  0  0
 32 33  1  6  0  0  0
 33 34  1  0  0  0  0
 35 33  2  0  0  0  0
 36 32  1  0  0  0  0
 37 36  1  0  0  0  0
M  END
>  <MODEL>
9

>  <REMARK>
 VINA RESULT:      -6.7      4.475      9.286
  Name = 
  8 active torsions:
  status: ('A' for Active; 'I' for Inactive)
    1  A    between atoms: C_1  and  C_8
    2  A    between atoms: C_2  and  C_31
    3  A    between atoms: C_4  and  C_30
    4  A    between atoms: C_8  and  O_10
    5  A    between atoms: C_8  and  C_12
    6  A    between atoms: C_21  and  C_31
    7  A    between atoms: C_21  and  C_36
    8  A    between atoms: C_26  and  C_36
                            x       y       z     vdW  Elec       q    Type
                         _______ _______ _______ _____ _____    ______ ____

>  <TORSDO>
F 8

$$$$
