=
 OpenBabel11072414253D

 26 28  0  0  1  0  0  0  0  0999 V2000
  160.9440  202.8050  150.3530 N   0  0  0  0  0  0  0  0  0  0  0  0
  161.1220  204.5670  151.9850 C   0  0  0  0  0  3  0  0  0  0  0  0
  161.0810  206.8720  150.9510 N   0  0  0  0  0  0  0  0  0  0  0  0
  160.9050  205.0630  149.6540 C   0  0  0  0  0  0  0  0  0  0  0  0
  160.9150  207.3990  149.6960 O   0  0  0  0  0  0  0  0  0  0  0  0
  160.8650  203.7100  149.3320 C   0  0  0  0  0  3  0  0  0  0  0  0
  161.0200  205.4680  150.9240 C   0  0  0  0  0  0  0  0  0  0  0  0
  160.9060  206.2800  148.8050 C   0  0  1  0  0  3  0  0  0  0  0  0
  161.0720  203.2000  151.6580 C   0  0  0  0  0  3  0  0  0  0  0  0
  161.8820  207.5610  151.9550 C   0  0  0  0  0  2  0  0  0  0  0  0
  161.1400  208.7690  152.5080 C   0  0  0  0  0  2  0  0  0  0  0  0
  160.4290  207.1140  155.8450 C   0  0  0  0  0  3  0  0  0  0  0  0
  160.7890  207.2940  154.5060 C   0  0  0  0  0  3  0  0  0  0  0  0
  160.0430  208.2130  156.6180 C   0  0  0  0  0  3  0  0  0  0  0  0
  160.0190  209.4920  156.0530 C   0  0  0  0  0  3  0  0  0  0  0  0
  160.7670  208.5740  153.9390 C   0  0  0  0  0  0  0  0  0  0  0  0
  160.3790  209.6720  154.7150 C   0  0  0  0  0  3  0  0  0  0  0  0
  162.1040  206.3060  147.9830 N   0  0  0  0  0  2  0  0  0  0  0  0
  161.6780  206.1840  146.5960 C   0  0  2  0  0  3  0  0  0  0  0  0
  160.2950  206.3560  146.5150 O   0  0  0  0  0  1  0  0  0  0  0  0
  162.0610  204.8220  146.0250 C   0  0  2  0  0  3  0  0  0  0  0  0
  163.4390  204.7350  145.8090 O   0  0  0  0  0  1  0  0  0  0  0  0
  161.4210  205.2920  143.7670 O   0  0  0  0  0  0  0  0  0  0  0  0
  161.3110  204.5280  144.7660 C   0  0  0  0  0  0  0  0  0  0  0  0
  160.4790  203.4100  144.7210 O   0  0  0  0  0  0  0  0  0  0  0  0
  160.7170  202.2650  145.5250 C   0  0  0  0  0  1  0  0  0  0  0  0
  1  9  1  0  0  0  0
  3 10  1  0  0  0  0
  4  7  2  0  0  0  0
  5  3  1  0  0  0  0
  6  4  1  0  0  0  0
  6  1  2  0  0  0  0
  7  3  1  0  0  0  0
  7  2  1  0  0  0  0
  8 18  1  6  0  0  0
  8  4  1  0  0  0  0
  8  5  1  0  0  0  0
  9  2  2  0  0  0  0
 10 11  1  0  0  0  0
 11 16  1  0  0  0  0
 12 14  1  0  0  0  0
 13 12  2  0  0  0  0
 15 14  2  0  0  0  0
 16 13  1  0  0  0  0
 16 17  2  0  0  0  0
 17 15  1  0  0  0  0
 19 20  1  1  0  0  0
 19 18  1  0  0  0  0
 21 22  1  6  0  0  0
 21 19  1  0  0  0  0
 23 24  2  0  0  0  0
 24 21  1  0  0  0  0
 25 24  1  0  0  0  0
 25 26  1  0  0  0  0
M  END
>  <MODEL>
1

>  <REMARK>
 VINA RESULT:      -8.3      0.000      0.000
  Name = 
  8 active torsions:
  status: ('A' for Active; 'I' for Inactive)
    1  A    between atoms: O_2  and  C_17
    2  A    between atoms: C_7  and  C_15
    3  A    between atoms: C_7  and  C_24
    4  A    between atoms: C_8  and  C_12
    5  A    between atoms: C_8  and  C_17
    6  A    between atoms: N_10  and  C_15
    7  A    between atoms: C_12  and  N_21
    8  A    between atoms: N_21  and  C_22
                            x       y       z     vdW  Elec       q    Type
                         _______ _______ _______ _____ _____    ______ ____

>  <TORSDO>
F 8

$$$$
=
 OpenBabel11072414253D

 26 28  0  0  1  0  0  0  0  0999 V2000
  160.7050  203.2080  151.9420 N   0  0  0  0  0  0  0  0  0  0  0  0
  161.0490  204.3560  149.8530 C   0  0  0  0  0  3  0  0  0  0  0  0
  161.8210  206.7420  150.1580 N   0  0  0  0  0  0  0  0  0  0  0  0
  161.4540  205.4500  151.9420 C   0  0  0  0  0  0  0  0  0  0  0  0
  162.1660  207.5510  151.2100 O   0  0  0  0  0  0  0  0  0  0  0  0
  161.0800  204.3140  152.6520 C   0  0  0  0  0  3  0  0  0  0  0  0
  161.4450  205.4630  150.6040 C   0  0  0  0  0  0  0  0  0  0  0  0
  161.8460  206.8090  152.3910 C   0  0  1  0  0  3  0  0  0  0  0  0
  160.6800  203.2060  150.5720 C   0  0  0  0  0  3  0  0  0  0  0  0
  161.2520  207.2990  148.9370 C   0  0  0  0  0  2  0  0  0  0  0  0
  162.2570  207.2430  147.7950 C   0  0  0  0  0  2  0  0  0  0  0  0
  162.3120  204.2010  145.5300 C   0  0  0  0  0  3  0  0  0  0  0  0
  162.6830  205.1360  146.5010 C   0  0  0  0  0  3  0  0  0  0  0  0
  161.1180  204.3680  144.8200 C   0  0  0  0  0  3  0  0  0  0  0  0
  160.2960  205.4680  145.0830 C   0  0  0  0  0  3  0  0  0  0  0  0
  161.8590  206.2370  146.7660 C   0  0  0  0  0  0  0  0  0  0  0  0
  160.6670  206.4020  146.0540 C   0  0  0  0  0  3  0  0  0  0  0  0
  160.7310  207.4430  153.0740 N   0  0  0  0  0  2  0  0  0  0  0  0
  161.1550  207.7020  154.4420 C   0  0  2  0  0  3  0  0  0  0  0  0
  160.4480  206.8740  155.3150 O   0  0  0  0  0  1  0  0  0  0  0  0
  160.9250  209.1620  154.8190 C   0  0  2  0  0  3  0  0  0  0  0  0
  159.6870  209.3320  155.4450 O   0  0  0  0  0  1  0  0  0  0  0  0
  162.1720  210.3250  153.1390 O   0  0  0  0  0  0  0  0  0  0  0  0
  161.0390  210.0580  153.6280 C   0  0  0  0  0  0  0  0  0  0  0  0
  159.8790  210.6030  153.0790 O   0  0  0  0  0  0  0  0  0  0  0  0
  159.8340  211.9350  152.5900 C   0  0  0  0  0  1  0  0  0  0  0  0
  1  6  1  0  0  0  0
  2  9  1  0  0  0  0
  2  7  2  0  0  0  0
  3  7  1  0  0  0  0
  3  5  1  0  0  0  0
  4  8  1  0  0  0  0
  4  6  2  0  0  0  0
  5  8  1  0  0  0  0
  7  4  1  0  0  0  0
  8 18  1  6  0  0  0
  9  1  2  0  0  0  0
 10  3  1  0  0  0  0
 11 10  1  0  0  0  0
 12 13  1  0  0  0  0
 13 16  2  0  0  0  0
 14 15  1  0  0  0  0
 14 12  2  0  0  0  0
 15 17  2  0  0  0  0
 16 11  1  0  0  0  0
 17 16  1  0  0  0  0
 18 19  1  0  0  0  0
 19 21  1  0  0  0  0
 19 20  1  1  0  0  0
 21 22  1  6  0  0  0
 23 24  2  0  0  0  0
 24 21  1  0  0  0  0
 25 24  1  0  0  0  0
 26 25  1  0  0  0  0
M  END
>  <MODEL>
2

>  <REMARK>
 VINA RESULT:      -7.7      2.962      7.826
  Name = 
  8 active torsions:
  status: ('A' for Active; 'I' for Inactive)
    1  A    between atoms: O_2  and  C_17
    2  A    between atoms: C_7  and  C_15
    3  A    between atoms: C_7  and  C_24
    4  A    between atoms: C_8  and  C_12
    5  A    between atoms: C_8  and  C_17
    6  A    between atoms: N_10  and  C_15
    7  A    between atoms: C_12  and  N_21
    8  A    between atoms: N_21  and  C_22
                            x       y       z     vdW  Elec       q    Type
                         _______ _______ _______ _____ _____    ______ ____

>  <TORSDO>
F 8

$$$$
=
 OpenBabel11072414253D

 26 28  0  0  1  0  0  0  0  0999 V2000
  160.9250  202.2500  150.3200 N   0  0  0  0  0  0  0  0  0  0  0  0
  161.3490  204.1720  151.7090 C   0  0  0  0  0  3  0  0  0  0  0  0
  161.2610  206.3480  150.4280 N   0  0  0  0  0  0  0  0  0  0  0  0
  160.8770  204.4170  149.3750 C   0  0  0  0  0  0  0  0  0  0  0  0
  160.9670  206.7400  149.1480 O   0  0  0  0  0  0  0  0  0  0  0  0
  160.7560  203.0390  149.2170 C   0  0  0  0  0  3  0  0  0  0  0  0
  161.1530  204.9530  150.5700 C   0  0  0  0  0  0  0  0  0  0  0  0
  160.8170  205.5310  148.3980 C   0  0  1  0  0  3  0  0  0  0  0  0
  161.2180  202.7810  151.5490 C   0  0  0  0  0  3  0  0  0  0  0  0
  162.1960  207.1060  151.2500 C   0  0  0  0  0  2  0  0  0  0  0  0
  161.9680  208.6030  151.0920 C   0  0  0  0  0  2  0  0  0  0  0  0
  160.2810  211.0660  153.4300 C   0  0  0  0  0  3  0  0  0  0  0  0
  160.8870  210.5210  152.2940 C   0  0  0  0  0  3  0  0  0  0  0  0
  160.1000  210.2790  154.5710 C   0  0  0  0  0  3  0  0  0  0  0  0
  160.5240  208.9470  154.5760 C   0  0  0  0  0  3  0  0  0  0  0  0
  161.3110  209.1860  152.2980 C   0  0  0  0  0  0  0  0  0  0  0  0
  161.1300  208.4010  153.4410 C   0  0  0  0  0  3  0  0  0  0  0  0
  161.9120  205.4120  147.4480 N   0  0  0  0  0  2  0  0  0  0  0  0
  161.4520  205.9790  146.1880 C   0  0  2  0  0  3  0  0  0  0  0  0
  160.0720  206.1800  146.2420 O   0  0  0  0  0  1  0  0  0  0  0  0
  161.7920  205.0600  145.0190 C   0  0  2  0  0  3  0  0  0  0  0  0
  161.6710  205.7300  143.7990 O   0  0  0  0  0  1  0  0  0  0  0  0
  159.9020  203.7680  144.3220 O   0  0  0  0  0  0  0  0  0  0  0  0
  160.9460  203.8280  145.0290 C   0  0  0  0  0  0  0  0  0  0  0  0
  161.3190  202.7580  145.8420 O   0  0  0  0  0  0  0  0  0  0  0  0
  160.6100  201.5290  145.8380 C   0  0  0  0  0  1  0  0  0  0  0  0
  1  9  1  0  0  0  0
  3  7  1  0  0  0  0
  3 10  1  0  0  0  0
  4  7  2  0  0  0  0
  5  3  1  0  0  0  0
  6  4  1  0  0  0  0
  6  1  2  0  0  0  0
  7  2  1  0  0  0  0
  8 18  1  6  0  0  0
  8  5  1  0  0  0  0
  8  4  1  0  0  0  0
  9  2  2  0  0  0  0
 11 10  1  0  0  0  0
 11 16  1  0  0  0  0
 12 14  1  0  0  0  0
 13 16  1  0  0  0  0
 13 12  2  0  0  0  0
 14 15  2  0  0  0  0
 16 17  2  0  0  0  0
 17 15  1  0  0  0  0
 19 20  1  1  0  0  0
 19 18  1  0  0  0  0
 21 22  1  6  0  0  0
 21 24  1  0  0  0  0
 21 19  1  0  0  0  0
 23 24  2  0  0  0  0
 24 25  1  0  0  0  0
 26 25  1  0  0  0  0
M  END
>  <MODEL>
3

>  <REMARK>
 VINA RESULT:      -7.7      1.147      1.780
  Name = 
  8 active torsions:
  status: ('A' for Active; 'I' for Inactive)
    1  A    between atoms: O_2  and  C_17
    2  A    between atoms: C_7  and  C_15
    3  A    between atoms: C_7  and  C_24
    4  A    between atoms: C_8  and  C_12
    5  A    between atoms: C_8  and  C_17
    6  A    between atoms: N_10  and  C_15
    7  A    between atoms: C_12  and  N_21
    8  A    between atoms: N_21  and  C_22
                            x       y       z     vdW  Elec       q    Type
                         _______ _______ _______ _____ _____    ______ ____

>  <TORSDO>
F 8

$$$$
=
 OpenBabel11072414253D

 26 28  0  0  1  0  0  0  0  0999 V2000
  162.0860  209.8080  149.1910 N   0  0  0  0  0  0  0  0  0  0  0  0
  162.0780  207.4130  149.4520 C   0  0  0  0  0  3  0  0  0  0  0  0
  161.1670  206.6720  151.6890 N   0  0  0  0  0  0  0  0  0  0  0  0
  161.2590  208.8450  151.1860 C   0  0  0  0  0  0  0  0  0  0  0  0
  160.6060  207.2730  152.7860 O   0  0  0  0  0  0  0  0  0  0  0  0
  161.5440  209.9810  150.4340 C   0  0  0  0  0  3  0  0  0  0  0  0
  161.5080  207.6200  150.7090 C   0  0  0  0  0  0  0  0  0  0  0  0
  160.7380  208.6810  152.5650 C   0  0  1  0  0  3  0  0  0  0  0  0
  162.3570  208.5620  148.6900 C   0  0  0  0  0  3  0  0  0  0  0  0
  161.9240  205.4320  151.8170 C   0  0  0  0  0  2  0  0  0  0  0  0
  160.9910  204.2320  151.9000 C   0  0  0  0  0  2  0  0  0  0  0  0
  161.1760  203.3090  148.2260 C   0  0  0  0  0  3  0  0  0  0  0  0
  161.1600  204.0650  149.4030 C   0  0  0  0  0  3  0  0  0  0  0  0
  161.0480  201.9180  148.2880 C   0  0  0  0  0  3  0  0  0  0  0  0
  160.9060  201.2830  149.5250 C   0  0  0  0  0  3  0  0  0  0  0  0
  161.0190  203.4290  150.6430 C   0  0  0  0  0  0  0  0  0  0  0  0
  160.8900  202.0380  150.7010 C   0  0  0  0  0  3  0  0  0  0  0  0
  161.6860  209.2340  153.5190 N   0  0  0  0  0  2  0  0  0  0  0  0
  160.9730  210.2310  154.3050 C   0  0  2  0  0  3  0  0  0  0  0  0
  160.9350  211.4380  153.6050 O   0  0  0  0  0  1  0  0  0  0  0  0
  161.6460  210.4420  155.6580 C   0  0  2  0  0  3  0  0  0  0  0  0
  162.9970  210.7650  155.5050 O   0  0  0  0  0  1  0  0  0  0  0  0
  162.4910  208.7510  157.1270 O   0  0  0  0  0  0  0  0  0  0  0  0
  161.4890  209.2440  156.5390 C   0  0  0  0  0  0  0  0  0  0  0  0
  160.2240  208.6750  156.6850 O   0  0  0  0  0  0  0  0  0  0  0  0
  159.9750  207.3120  156.3790 C   0  0  0  0  0  1  0  0  0  0  0  0
  1  6  1  0  0  0  0
  2  7  2  0  0  0  0
  3 10  1  0  0  0  0
  3  5  1  0  0  0  0
  4  8  1  0  0  0  0
  6  4  2  0  0  0  0
  7  4  1  0  0  0  0
  7  3  1  0  0  0  0
  8  5  1  0  0  0  0
  8 18  1  1  0  0  0
  9  1  2  0  0  0  0
  9  2  1  0  0  0  0
 10 11  1  0  0  0  0
 12 14  2  0  0  0  0
 12 13  1  0  0  0  0
 13 16  2  0  0  0  0
 14 15  1  0  0  0  0
 15 17  2  0  0  0  0
 16 17  1  0  0  0  0
 16 11  1  0  0  0  0
 18 19  1  0  0  0  0
 19 20  1  6  0  0  0
 19 21  1  0  0  0  0
 21 22  1  6  0  0  0
 21 24  1  0  0  0  0
 24 25  1  0  0  0  0
 24 23  2  0  0  0  0
 26 25  1  0  0  0  0
M  END
>  <MODEL>
4

>  <REMARK>
 VINA RESULT:      -7.6      3.768      8.279
  Name = 
  8 active torsions:
  status: ('A' for Active; 'I' for Inactive)
    1  A    between atoms: O_2  and  C_17
    2  A    between atoms: C_7  and  C_15
    3  A    between atoms: C_7  and  C_24
    4  A    between atoms: C_8  and  C_12
    5  A    between atoms: C_8  and  C_17
    6  A    between atoms: N_10  and  C_15
    7  A    between atoms: C_12  and  N_21
    8  A    between atoms: N_21  and  C_22
                            x       y       z     vdW  Elec       q    Type
                         _______ _______ _______ _____ _____    ______ ____

>  <TORSDO>
F 8

$$$$
=
 OpenBabel11072414253D

 26 28  0  0  1  0  0  0  0  0999 V2000
  161.1710  204.9000  153.2150 N   0  0  0  0  0  0  0  0  0  0  0  0
  161.2540  204.8670  150.8080 C   0  0  0  0  0  3  0  0  0  0  0  0
  161.6980  207.1450  149.8090 N   0  0  0  0  0  0  0  0  0  0  0  0
  161.5980  206.8980  152.0260 C   0  0  0  0  0  0  0  0  0  0  0  0
  161.9740  208.4030  150.2790 O   0  0  0  0  0  0  0  0  0  0  0  0
  161.4190  206.2440  153.2410 C   0  0  0  0  0  3  0  0  0  0  0  0
  161.5260  206.2340  150.8660 C   0  0  0  0  0  0  0  0  0  0  0  0
  161.8160  208.3290  151.6990 C   0  0  1  0  0  3  0  0  0  0  0  0
  161.0840  204.2060  152.0370 C   0  0  0  0  0  3  0  0  0  0  0  0
  161.0020  206.9520  148.5430 C   0  0  0  0  0  2  0  0  0  0  0  0
  161.9870  206.6540  147.4210 C   0  0  0  0  0  2  0  0  0  0  0  0
  161.4100  202.9990  146.5910 C   0  0  0  0  0  3  0  0  0  0  0  0
  161.7510  204.1600  147.2910 C   0  0  0  0  0  3  0  0  0  0  0  0
  160.9350  203.0890  145.2790 C   0  0  0  0  0  3  0  0  0  0  0  0
  160.7990  204.3390  144.6690 C   0  0  0  0  0  3  0  0  0  0  0  0
  161.6140  205.4130  146.6810 C   0  0  0  0  0  0  0  0  0  0  0  0
  161.1390  205.5000  145.3680 C   0  0  0  0  0  3  0  0  0  0  0  0
  160.6550  209.1080  152.0980 N   0  0  0  0  0  2  0  0  0  0  0  0
  161.1470  210.3470  152.6810 C   0  0  2  0  0  3  0  0  0  0  0  0
  162.5350  210.2790  152.8200 O   0  0  0  0  0  1  0  0  0  0  0  0
  160.5070  210.6030  154.0420 C   0  0  2  0  0  3  0  0  0  0  0  0
  160.2320  211.9610  154.2230 O   0  0  0  0  0  1  0  0  0  0  0  0
  161.3180  208.8670  155.4770 O   0  0  0  0  0  0  0  0  0  0  0  0
  161.3620  210.0860  155.1540 C   0  0  0  0  0  0  0  0  0  0  0  0
  162.1930  210.9750  155.8350 O   0  0  0  0  0  0  0  0  0  0  0  0
  163.1000  210.5380  156.8350 C   0  0  0  0  0  1  0  0  0  0  0  0
  1  6  1  0  0  0  0
  2  7  2  0  0  0  0
  2  9  1  0  0  0  0
  3  5  1  0  0  0  0
  3  7  1  0  0  0  0
  4  6  2  0  0  0  0
  5  8  1  0  0  0  0
  7  4  1  0  0  0  0
  8  4  1  0  0  0  0
  8 18  1  6  0  0  0
  9  1  2  0  0  0  0
 10  3  1  0  0  0  0
 11 10  1  0  0  0  0
 12 13  1  0  0  0  0
 14 12  2  0  0  0  0
 15 14  1  0  0  0  0
 15 17  2  0  0  0  0
 16 13  2  0  0  0  0
 16 11  1  0  0  0  0
 17 16  1  0  0  0  0
 18 19  1  0  0  0  0
 19 20  1  1  0  0  0
 19 21  1  0  0  0  0
 21 22  1  1  0  0  0
 21 24  1  0  0  0  0
 24 23  2  0  0  0  0
 24 25  1  0  0  0  0
 25 26  1  0  0  0  0
M  END
>  <MODEL>
5

>  <REMARK>
 VINA RESULT:      -7.5      2.959      8.335
  Name = 
  8 active torsions:
  status: ('A' for Active; 'I' for Inactive)
    1  A    between atoms: O_2  and  C_17
    2  A    between atoms: C_7  and  C_15
    3  A    between atoms: C_7  and  C_24
    4  A    between atoms: C_8  and  C_12
    5  A    between atoms: C_8  and  C_17
    6  A    between atoms: N_10  and  C_15
    7  A    between atoms: C_12  and  N_21
    8  A    between atoms: N_21  and  C_22
                            x       y       z     vdW  Elec       q    Type
                         _______ _______ _______ _____ _____    ______ ____

>  <TORSDO>
F 8

$$$$
=
 OpenBabel11072414253D

 26 28  0  0  1  0  0  0  0  0999 V2000
  161.9500  209.6290  150.3520 N   0  0  0  0  0  0  0  0  0  0  0  0
  161.8510  207.2310  150.1440 C   0  0  0  0  0  3  0  0  0  0  0  0
  161.0500  206.0930  152.2520 N   0  0  0  0  0  0  0  0  0  0  0  0
  161.2070  208.3190  152.1750 C   0  0  0  0  0  0  0  0  0  0  0  0
  160.5860  206.4850  153.4820 O   0  0  0  0  0  0  0  0  0  0  0  0
  161.4960  209.5710  151.6400 C   0  0  0  0  0  3  0  0  0  0  0  0
  161.3710  207.2050  151.4540 C   0  0  0  0  0  0  0  0  0  0  0  0
  160.7670  207.9040  153.5300 C   0  0  1  0  0  3  0  0  0  0  0  0
  162.1330  208.4980  149.6020 C   0  0  0  0  0  3  0  0  0  0  0  0
  161.7570  204.8300  152.0840 C   0  0  0  0  0  2  0  0  0  0  0  0
  160.7770  203.6820  151.8850 C   0  0  0  0  0  2  0  0  0  0  0  0
  160.9360  201.1580  149.0580 C   0  0  0  0  0  3  0  0  0  0  0  0
  160.8140  201.7060  150.3390 C   0  0  0  0  0  3  0  0  0  0  0  0
  161.1410  201.9950  147.9570 C   0  0  0  0  0  3  0  0  0  0  0  0
  161.2230  203.3790  148.1360 C   0  0  0  0  0  3  0  0  0  0  0  0
  160.8950  203.0930  150.5190 C   0  0  0  0  0  0  0  0  0  0  0  0
  161.1010  203.9270  149.4150 C   0  0  0  0  0  3  0  0  0  0  0  0
  161.7960  208.2280  154.5040 N   0  0  0  0  0  2  0  0  0  0  0  0
  161.2140  209.1710  155.4480 C   0  0  2  0  0  3  0  0  0  0  0  0
  159.8210  209.1120  155.3680 O   0  0  0  0  0  1  0  0  0  0  0  0
  161.6850  210.5930  155.1600 C   0  0  2  0  0  3  0  0  0  0  0  0
  163.0190  210.7680  155.5370 O   0  0  0  0  0  1  0  0  0  0  0  0
  160.7690  211.6730  157.0890 O   0  0  0  0  0  0  0  0  0  0  0  0
  160.8120  211.6040  155.8300 C   0  0  0  0  0  0  0  0  0  0  0  0
  160.0370  212.4550  155.0420 O   0  0  0  0  0  0  0  0  0  0  0  0
  159.8620  212.2370  153.6500 C   0  0  0  0  0  1  0  0  0  0  0  0
  1  6  1  0  0  0  0
  2  7  2  0  0  0  0
  3  5  1  0  0  0  0
  4  8  1  0  0  0  0
  5  8  1  0  0  0  0
  6  4  2  0  0  0  0
  7  4  1  0  0  0  0
  7  3  1  0  0  0  0
  8 18  1  1  0  0  0
  9  2  1  0  0  0  0
  9  1  2  0  0  0  0
 10  3  1  0  0  0  0
 11 10  1  0  0  0  0
 12 13  1  0  0  0  0
 13 16  2  0  0  0  0
 14 15  1  0  0  0  0
 14 12  2  0  0  0  0
 15 17  2  0  0  0  0
 16 11  1  0  0  0  0
 17 16  1  0  0  0  0
 18 19  1  0  0  0  0
 19 20  1  6  0  0  0
 21 19  1  0  0  0  0
 21 22  1  1  0  0  0
 21 24  1  0  0  0  0
 24 23  2  0  0  0  0
 25 24  1  0  0  0  0
 26 25  1  0  0  0  0
M  END
>  <MODEL>
6

>  <REMARK>
 VINA RESULT:      -7.5      3.970      8.534
  Name = 
  8 active torsions:
  status: ('A' for Active; 'I' for Inactive)
    1  A    between atoms: O_2  and  C_17
    2  A    between atoms: C_7  and  C_15
    3  A    between atoms: C_7  and  C_24
    4  A    between atoms: C_8  and  C_12
    5  A    between atoms: C_8  and  C_17
    6  A    between atoms: N_10  and  C_15
    7  A    between atoms: C_12  and  N_21
    8  A    between atoms: N_21  and  C_22
                            x       y       z     vdW  Elec       q    Type
                         _______ _______ _______ _____ _____    ______ ____

>  <TORSDO>
F 8

$$$$
=
 OpenBabel11072414253D

 26 28  0  0  1  0  0  0  0  0999 V2000
  161.2070  205.0960  153.4390 N   0  0  0  0  0  0  0  0  0  0  0  0
  161.3010  205.0290  151.0330 C   0  0  0  0  0  3  0  0  0  0  0  0
  161.6380  207.3090  149.9990 N   0  0  0  0  0  0  0  0  0  0  0  0
  161.5410  207.0930  152.2190 C   0  0  0  0  0  0  0  0  0  0  0  0
  161.8510  208.5860  150.4490 O   0  0  0  0  0  0  0  0  0  0  0  0
  161.3900  206.4510  153.4440 C   0  0  0  0  0  3  0  0  0  0  0  0
  161.5060  206.4080  151.0700 C   0  0  0  0  0  0  0  0  0  0  0  0
  161.6910  208.5270  151.8700 C   0  0  1  0  0  3  0  0  0  0  0  0
  161.1580  204.3800  152.2720 C   0  0  0  0  0  3  0  0  0  0  0  0
  160.9570  207.0620  148.7340 C   0  0  0  0  0  2  0  0  0  0  0  0
  161.9600  206.8460  147.6090 C   0  0  0  0  0  2  0  0  0  0  0  0
  161.2780  204.3410  144.8450 C   0  0  0  0  0  3  0  0  0  0  0  0
  161.5200  205.5480  145.5080 C   0  0  0  0  0  3  0  0  0  0  0  0
  161.2240  203.1450  145.5670 C   0  0  0  0  0  3  0  0  0  0  0  0
  161.4150  203.1560  146.9520 C   0  0  0  0  0  3  0  0  0  0  0  0
  161.7120  205.5590  146.8950 C   0  0  0  0  0  0  0  0  0  0  0  0
  161.6570  204.3620  147.6160 C   0  0  0  0  0  3  0  0  0  0  0  0
  160.4920  209.2560  152.2520 N   0  0  0  0  0  2  0  0  0  0  0  0
  160.9240  210.5130  152.8450 C   0  0  2  0  0  3  0  0  0  0  0  0
  162.2250  210.3790  153.3320 O   0  0  0  0  0  1  0  0  0  0  0  0
  159.9910  210.9310  153.9780 C   0  0  2  0  0  3  0  0  0  0  0  0
  159.7570  209.8690  154.8550 O   0  0  0  0  0  1  0  0  0  0  0  0
  158.6430  211.9570  152.2880 O   0  0  0  0  0  0  0  0  0  0  0  0
  158.7020  211.4730  153.4530 C   0  0  0  0  0  0  0  0  0  0  0  0
  157.5750  211.4500  154.2740 O   0  0  0  0  0  0  0  0  0  0  0  0
  157.3870  212.3940  155.3170 C   0  0  0  0  0  1  0  0  0  0  0  0
  1  6  1  0  0  0  0
  2  7  2  0  0  0  0
  2  9  1  0  0  0  0
  3  5  1  0  0  0  0
  3  7  1  0  0  0  0
  4  6  2  0  0  0  0
  5  8  1  0  0  0  0
  7  4  1  0  0  0  0
  8  4  1  0  0  0  0
  8 18  1  6  0  0  0
  9  1  2  0  0  0  0
 10  3  1  0  0  0  0
 11 10  1  0  0  0  0
 12 13  2  0  0  0  0
 12 14  1  0  0  0  0
 13 16  1  0  0  0  0
 14 15  2  0  0  0  0
 15 17  1  0  0  0  0
 16 11  1  0  0  0  0
 16 17  2  0  0  0  0
 18 19  1  0  0  0  0
 19 20  1  1  0  0  0
 19 21  1  0  0  0  0
 21 22  1  1  0  0  0
 23 24  2  0  0  0  0
 24 21  1  0  0  0  0
 24 25  1  0  0  0  0
 25 26  1  0  0  0  0
M  END
>  <MODEL>
7

>  <REMARK>
 VINA RESULT:      -7.4      3.121      8.209
  Name = 
  8 active torsions:
  status: ('A' for Active; 'I' for Inactive)
    1  A    between atoms: O_2  and  C_17
    2  A    between atoms: C_7  and  C_15
    3  A    between atoms: C_7  and  C_24
    4  A    between atoms: C_8  and  C_12
    5  A    between atoms: C_8  and  C_17
    6  A    between atoms: N_10  and  C_15
    7  A    between atoms: C_12  and  N_21
    8  A    between atoms: N_21  and  C_22
                            x       y       z     vdW  Elec       q    Type
                         _______ _______ _______ _____ _____    ______ ____

>  <TORSDO>
F 8

$$$$
=
 OpenBabel11072414253D

 26 28  0  0  1  0  0  0  0  0999 V2000
  162.1190  210.6180  149.1640 N   0  0  0  0  0  0  0  0  0  0  0  0
  161.7330  209.5670  151.2970 C   0  0  0  0  0  3  0  0  0  0  0  0
  161.6270  207.0480  151.1460 N   0  0  0  0  0  0  0  0  0  0  0  0
  162.0020  208.2610  149.3090 C   0  0  0  0  0  0  0  0  0  0  0  0
  161.7990  206.0990  150.1700 O   0  0  0  0  0  0  0  0  0  0  0  0
  162.1650  209.4060  148.5350 C   0  0  0  0  0  3  0  0  0  0  0  0
  161.8030  208.3440  150.6300 C   0  0  0  0  0  0  0  0  0  0  0  0
  161.9350  206.8250  148.9450 C   0  0  1  0  0  3  0  0  0  0  0  0
  161.9070  210.7220  150.5140 C   0  0  0  0  0  3  0  0  0  0  0  0
  160.7320  206.8130  152.2720 C   0  0  0  0  0  2  0  0  0  0  0  0
  161.5200  206.6150  153.5600 C   0  0  0  0  0  2  0  0  0  0  0  0
  160.6430  209.7270  155.5420 C   0  0  0  0  0  3  0  0  0  0  0  0
  161.1020  208.8970  154.5150 C   0  0  0  0  0  3  0  0  0  0  0  0
  160.1040  209.1670  156.7050 C   0  0  0  0  0  3  0  0  0  0  0  0
  160.0240  207.7780  156.8390 C   0  0  0  0  0  3  0  0  0  0  0  0
  161.0210  207.5050  154.6480 C   0  0  0  0  0  0  0  0  0  0  0  0
  160.4830  206.9480  155.8130 C   0  0  0  0  0  3  0  0  0  0  0  0
  160.7720  206.5820  148.1070 N   0  0  0  0  0  2  0  0  0  0  0  0
  161.2600  206.2940  146.7660 C   0  0  2  0  0  3  0  0  0  0  0  0
  160.1850  205.9710  145.9370 O   0  0  0  0  0  1  0  0  0  0  0  0
  162.2600  205.1410  146.7850 C   0  0  2  0  0  3  0  0  0  0  0  0
  163.0870  205.1730  145.6590 O   0  0  0  0  0  1  0  0  0  0  0  0
  161.2940  203.1600  145.8530 O   0  0  0  0  0  0  0  0  0  0  0  0
  161.5680  203.8210  146.8930 C   0  0  0  0  0  0  0  0  0  0  0  0
  161.2190  203.3420  148.1550 O   0  0  0  0  0  0  0  0  0  0  0  0
  160.8130  201.9980  148.3620 C   0  0  0  0  0  1  0  0  0  0  0  0
  1  9  1  0  0  0  0
  3 10  1  0  0  0  0
  4  7  2  0  0  0  0
  5  3  1  0  0  0  0
  6  1  2  0  0  0  0
  6  4  1  0  0  0  0
  7  3  1  0  0  0  0
  7  2  1  0  0  0  0
  8 18  1  6  0  0  0
  8  4  1  0  0  0  0
  8  5  1  0  0  0  0
  9  2  2  0  0  0  0
 10 11  1  0  0  0  0
 11 16  1  0  0  0  0
 12 14  1  0  0  0  0
 13 16  1  0  0  0  0
 13 12  2  0  0  0  0
 14 15  2  0  0  0  0
 16 17  2  0  0  0  0
 17 15  1  0  0  0  0
 19 20  1  6  0  0  0
 19 21  1  0  0  0  0
 19 18  1  0  0  0  0
 21 22  1  6  0  0  0
 21 24  1  0  0  0  0
 23 24  2  0  0  0  0
 24 25  1  0  0  0  0
 25 26  1  0  0  0  0
M  END
>  <MODEL>
8

>  <REMARK>
 VINA RESULT:      -6.7      1.783      3.273
  Name = 
  8 active torsions:
  status: ('A' for Active; 'I' for Inactive)
    1  A    between atoms: O_2  and  C_17
    2  A    between atoms: C_7  and  C_15
    3  A    between atoms: C_7  and  C_24
    4  A    between atoms: C_8  and  C_12
    5  A    between atoms: C_8  and  C_17
    6  A    between atoms: N_10  and  C_15
    7  A    between atoms: C_12  and  N_21
    8  A    between atoms: N_21  and  C_22
                            x       y       z     vdW  Elec       q    Type
                         _______ _______ _______ _____ _____    ______ ____

>  <TORSDO>
F 8

$$$$
=
 OpenBabel11072414253D

 26 28  0  0  1  0  0  0  0  0999 V2000
  160.8310  204.9120  144.1900 N   0  0  0  0  0  0  0  0  0  0  0  0
  160.8590  206.5360  145.9690 C   0  0  0  0  0  3  0  0  0  0  0  0
  161.5470  205.5490  148.1900 N   0  0  0  0  0  0  0  0  0  0  0  0
  161.4650  204.2560  146.3720 C   0  0  0  0  0  0  0  0  0  0  0  0
  161.9780  204.3320  148.6490 O   0  0  0  0  0  0  0  0  0  0  0  0
  161.2370  203.9210  145.0410 C   0  0  0  0  0  3  0  0  0  0  0  0
  161.2910  205.5090  146.8080 C   0  0  0  0  0  0  0  0  0  0  0  0
  161.8430  203.4310  147.5460 C   0  0  1  0  0  3  0  0  0  0  0  0
  160.6380  206.1970  144.6220 C   0  0  0  0  0  3  0  0  0  0  0  0
  160.8060  206.4580  149.0560 C   0  0  0  0  0  2  0  0  0  0  0  0
  161.5680  207.7610  149.2550 C   0  0  0  0  0  2  0  0  0  0  0  0
  160.8330  207.8620  152.9750 C   0  0  0  0  0  3  0  0  0  0  0  0
  160.9180  207.4130  151.6530 C   0  0  0  0  0  3  0  0  0  0  0  0
  161.3110  209.1320  153.3130 C   0  0  0  0  0  3  0  0  0  0  0  0
  161.8760  209.9510  152.3300 C   0  0  0  0  0  3  0  0  0  0  0  0
  161.4850  208.2320  150.6690 C   0  0  0  0  0  0  0  0  0  0  0  0
  161.9620  209.5020  151.0100 C   0  0  0  0  0  3  0  0  0  0  0  0
  160.7900  202.4700  147.8320 N   0  0  0  0  0  2  0  0  0  0  0  0
  161.3920  201.3890  148.5990 C   0  0  2  0  0  3  0  0  0  0  0  0
  161.3900  200.2190  147.8380 O   0  0  0  0  0  1  0  0  0  0  0  0
  160.6330  201.1560  149.9010 C   0  0  2  0  0  3  0  0  0  0  0  0
  159.2590  201.3330  149.7230 O   0  0  0  0  0  1  0  0  0  0  0  0
  162.1550  201.7030  151.6650 O   0  0  0  0  0  0  0  0  0  0  0  0
  161.1400  202.0400  150.9950 C   0  0  0  0  0  0  0  0  0  0  0  0
  160.4650  203.2280  151.2700 O   0  0  0  0  0  0  0  0  0  0  0  0
  160.9810  204.1930  152.1740 C   0  0  0  0  0  1  0  0  0  0  0  0
  1  9  2  0  0  0  0
  1  6  1  0  0  0  0
  2  7  2  0  0  0  0
  3  5  1  0  0  0  0
  3 10  1  0  0  0  0
  4  7  1  0  0  0  0
  4  8  1  0  0  0  0
  6  4  2  0  0  0  0
  7  3  1  0  0  0  0
  8 18  1  1  0  0  0
  8  5  1  0  0  0  0
  9  2  1  0  0  0  0
 10 11  1  0  0  0  0
 11 16  1  0  0  0  0
 12 14  1  0  0  0  0
 13 12  2  0  0  0  0
 15 14  2  0  0  0  0
 16 17  2  0  0  0  0
 16 13  1  0  0  0  0
 17 15  1  0  0  0  0
 18 19  1  0  0  0  0
 19 20  1  6  0  0  0
 19 21  1  0  0  0  0
 21 22  1  6  0  0  0
 21 24  1  0  0  0  0
 24 25  1  0  0  0  0
 24 23  2  0  0  0  0
 25 26  1  0  0  0  0
M  END
>  <MODEL>
9

>  <REMARK>
 VINA RESULT:      -6.7      2.664      5.149
  Name = 
  8 active torsions:
  status: ('A' for Active; 'I' for Inactive)
    1  A    between atoms: O_2  and  C_17
    2  A    between atoms: C_7  and  C_15
    3  A    between atoms: C_7  and  C_24
    4  A    between atoms: C_8  and  C_12
    5  A    between atoms: C_8  and  C_17
    6  A    between atoms: N_10  and  C_15
    7  A    between atoms: C_12  and  N_21
    8  A    between atoms: N_21  and  C_22
                            x       y       z     vdW  Elec       q    Type
                         _______ _______ _______ _____ _____    ______ ____

>  <TORSDO>
F 8

$$$$
