=
 OpenBabel11072412483D

 52 57  0  0  1  0  0  0  0  0999 V2000
  163.7930  204.7980  146.6590 O   0  0  0  0  0  1  0  0  0  0  0  0
  161.1890  205.9710  143.3970 N   0  0  0  0  0  2  0  0  0  0  0  0
  162.4110  204.6130  146.5030 C   0  0  1  0  0  0  0  0  0  0  0  0
  161.6330  205.8880  146.9080 C   0  0  2  0  0  3  0  0  0  0  0  0
  162.0990  204.3950  145.0180 C   0  0  0  0  0  2  0  0  0  0  0  0
  161.3210  206.5890  145.6760 N   0  0  0  0  0  2  0  0  0  0  0  0
  161.5660  205.7080  144.6010 C   0  0  0  0  0  0  0  0  0  0  0  0
  162.3700  206.8090  147.8760 C   0  0  0  0  0  2  0  0  0  0  0  0
  161.6220  208.1230  148.0240 C   0  0  0  0  0  2  0  0  0  0  0  0
  162.5790  209.3000  148.0570 C   0  0  0  0  0  2  0  0  0  0  0  0
  161.8630  210.6300  148.3140 C   0  0  2  0  0  3  0  0  0  0  0  0
  160.6620  210.6870  147.6050 O   0  0  0  0  0  1  0  0  0  0  0  0
  162.6810  211.7130  147.9520 O   0  0  0  0  0  0  0  0  0  0  0  0
  161.8710  212.7760  147.4850 C   0  0  2  0  0  3  0  0  0  0  0  0
  160.9100  213.1260  145.0740 C   0  0  1  0  0  0  0  0  0  0  0  0
  162.0420  212.8860  142.7510 C   0  0  0  0  0  3  0  0  0  0  0  0
  160.5050  212.5970  140.8940 C   0  0  0  0  0  3  0  0  0  0  0  0
  163.3190  212.7710  145.4200 O   0  0  0  0  0  1  0  0  0  0  0  0
  162.1080  213.1440  146.0090 C   0  0  2  0  0  0  0  0  0  0  0  0
  159.4660  213.0830  145.4400 C   0  0  0  0  0  0  0  0  0  0  0  0
  159.4100  212.6640  141.7660 C   0  0  0  0  0  3  0  0  0  0  0  0
  161.5350  214.4530  145.5090 C   0  0  0  0  0  2  0  0  0  0  0  0
  160.9430  212.9700  143.6050 C   0  0  0  0  0  0  0  0  0  0  0  0
  158.6130  212.9170  144.2120 C   0  0  2  0  0  3  0  0  0  0  0  0
  159.6500  212.8550  143.1260 C   0  0  0  0  0  0  0  0  0  0  0  0
  157.8190  214.0510  144.0420 O   0  0  0  0  0  1  0  0  0  0  0  0
  159.0290  213.1500  146.5770 O   0  0  0  0  0  0  0  0  0  0  0  0
  161.8240  212.7070  141.3800 C   0  0  0  0  0  0  0  0  0  0  0  0
  162.9280  212.6380  140.5260 O   0  0  0  0  0  0  0  0  0  0  0  0
  163.6680  213.7810  140.1370 C   0  0  0  0  0  1  0  0  0  0  0  0
  161.2140  213.6210  149.7220 C   0  0  0  0  0  2  0  0  0  0  0  0
  161.8930  213.9820  148.4190 C   0  0  0  0  0  3  0  0  0  0  0  0
  160.4770  214.4400  148.6860 C   0  0  0  0  0  2  0  0  0  0  0  0
  161.9430  203.4860  147.3120 N   0  0  0  0  0  2  0  0  0  0  0  0
  160.6510  203.0110  146.8390 C   0  0  0  0  0  2  0  0  0  0  0  0
  160.2690  201.7560  147.6020 C   0  0  0  0  0  2  0  0  0  0  0  0
  161.6460  200.3020  148.8520 C   0  0  0  0  0  1  0  0  0  0  0  0
  161.0850  201.6430  148.8050 N   0  0  0  0  0  0  0  0  0  0  0  0
  160.2800  201.9000  150.0100 C   0  0  0  0  0  2  0  0  0  0  0  0
  161.6970  202.3100  151.9290 N   0  0  0  0  0  2  0  0  0  0  0  0
  160.9370  202.8130  151.0130 C   0  0  0  0  0  0  0  0  0  0  0  0
  160.1730  204.7710  149.9190 O   0  0  0  0  0  0  0  0  0  0  0  0
  161.2590  205.1250  151.9560 N   0  0  0  0  0  2  0  0  0  0  0  0
  160.7630  204.2740  150.9170 C   0  0  0  0  0  0  0  0  0  0  0  0
  160.7810  207.1700  153.2560 C   0  0  1  0  0  3  0  0  0  0  0  0
  161.6730  209.3650  152.2240 C   0  0  0  0  0  3  0  0  0  0  0  0
  161.6770  206.6660  154.3790 C   0  0  0  0  0  1  0  0  0  0  0  0
  160.8210  208.6730  153.2040 C   0  0  0  0  0  0  0  0  0  0  0  0
  160.1250  209.3400  154.0120 O   0  0  0  0  0  0  0  0  0  0  0  0
  162.4930  207.1770  151.3980 C   0  0  0  0  0  2  0  0  0  0  0  0
  162.4270  208.6760  151.3620 C   0  0  0  0  0  3  0  0  0  0  0  0
  161.1710  206.5800  151.8910 C   0  0  1  0  0  3  0  0  0  0  0  0
  2  7  2  0  0  0  0
  3  1  1  1  0  0  0
  3  4  1  0  0  0  0
  3 34  1  0  0  0  0
  4  8  1  1  0  0  0
  5  3  1  0  0  0  0
  6  4  1  0  0  0  0
  7  5  1  0  0  0  0
  7  6  1  0  0  0  0
  8  9  1  0  0  0  0
  9 10  1  0  0  0  0
 10 11  1  0  0  0  0
 11 12  1  6  0  0  0
 13 11  1  0  0  0  0
 14 13  1  1  0  0  0
 14 32  1  0  0  0  0
 15 20  1  0  0  0  0
 15 22  1  6  0  0  0
 15 19  1  0  0  0  0
 16 23  1  0  0  0  0
 17 28  1  0  0  0  0
 17 21  2  0  0  0  0
 19 18  1  6  0  0  0
 19 14  1  0  0  0  0
 20 27  2  0  0  0  0
 21 25  1  0  0  0  0
 22 19  1  0  0  0  0
 23 15  1  0  0  0  0
 24 26  1  6  0  0  0
 24 20  1  0  0  0  0
 25 23  2  0  0  0  0
 25 24  1  0  0  0  0
 28 16  2  0  0  0  0
 29 28  1  0  0  0  0
 30 29  1  0  0  0  0
 32 33  1  0  0  0  0
 32 31  1  0  0  0  0
 33 31  1  0  0  0  0
 35 34  1  0  0  0  0
 35 36  1  0  0  0  0
 36 38  1  0  0  0  0
 38 37  1  0  0  0  0
 38 39  1  0  0  0  0
 39 41  1  0  0  0  0
 41 40  2  0  0  0  0
 42 44  2  0  0  0  0
 44 41  1  0  0  0  0
 44 43  1  0  0  0  0
 45 47  1  1  0  0  0
 46 48  1  0  0  0  0
 48 45  1  0  0  0  0
 48 49  2  0  0  0  0
 50 52  1  0  0  0  0
 51 50  1  0  0  0  0
 51 46  2  0  0  0  0
 52 43  1  1  0  0  0
 52 45  1  0  0  0  0
M  END
>  <MODEL>
1

>  <REMARK>
 VINA RESULT:      -5.1      0.000      0.000
  Name = 
  17 active torsions:
  status: ('A' for Active; 'I' for Inactive)
    1  A    between atoms: C_1  and  C_5
    2  A    between atoms: C_1  and  N_26
    3  A    between atoms: C_3  and  C_24
    4  A    between atoms: C_3  and  O_51
    5  A    between atoms: C_5  and  C_31
    6  A    between atoms: C_13  and  C_17
    7  A    between atoms: C_13  and  C_18
    8  A    between atoms: C_13  and  O_51
    9  A    between atoms: C_15  and  N_22
   10  A    between atoms: C_15  and  C_27
   11  A    between atoms: C_16  and  N_22
   12  A    between atoms: C_23  and  C_35
   13  A    between atoms: C_24  and  C_28
   14  A    between atoms: N_25  and  C_50
   15  A    between atoms: N_26  and  C_27
   16  A    between atoms: C_28  and  C_35
   17  A    between atoms: O_34  and  C_52
                            x       y       z     vdW  Elec       q    Type
                         _______ _______ _______ _____ _____    ______ ____

>  <TORSDO>
F 17

$$$$
=
 OpenBabel11072412483D

 52 57  0  0  1  0  0  0  0  0999 V2000
  163.6140  204.9080  146.7010 O   0  0  0  0  0  1  0  0  0  0  0  0
  160.1600  204.7710  144.0850 N   0  0  0  0  0  2  0  0  0  0  0  0
  162.2640  204.6810  147.0080 C   0  0  1  0  0  0  0  0  0  0  0  0
  161.4900  206.0170  147.1190 C   0  0  2  0  0  3  0  0  0  0  0  0
  161.6070  203.9200  145.8510 C   0  0  0  0  0  2  0  0  0  0  0  0
  160.8050  206.2020  145.8530 N   0  0  0  0  0  2  0  0  0  0  0  0
  160.8560  204.9810  145.1490 C   0  0  0  0  0  0  0  0  0  0  0  0
  162.3520  207.2330  147.4440 C   0  0  0  0  0  2  0  0  0  0  0  0
  161.6290  208.1460  148.4190 C   0  0  0  0  0  2  0  0  0  0  0  0
  162.4160  209.4190  148.6690 C   0  0  0  0  0  2  0  0  0  0  0  0
  161.5660  210.6800  148.4830 C   0  0  2  0  0  3  0  0  0  0  0  0
  160.7240  210.5460  147.3780 O   0  0  0  0  0  1  0  0  0  0  0  0
  162.3840  211.8100  148.3250 O   0  0  0  0  0  0  0  0  0  0  0  0
  161.6300  212.8550  147.7370 C   0  0  2  0  0  3  0  0  0  0  0  0
  160.8620  213.1420  145.2490 C   0  0  1  0  0  0  0  0  0  0  0  0
  162.1390  212.7320  143.0280 C   0  0  0  0  0  3  0  0  0  0  0  0
  160.7210  212.4380  141.0780 C   0  0  0  0  0  3  0  0  0  0  0  0
  163.2160  212.6750  145.7860 O   0  0  0  0  0  1  0  0  0  0  0  0
  161.9900  213.1390  146.2680 C   0  0  2  0  0  0  0  0  0  0  0  0
  159.3950  213.1930  145.5110 C   0  0  0  0  0  0  0  0  0  0  0  0
  159.5730  212.6050  141.8650 C   0  0  0  0  0  3  0  0  0  0  0  0
  161.5290  214.4520  145.6710 C   0  0  0  0  0  2  0  0  0  0  0  0
  160.9890  212.9140  143.7950 C   0  0  0  0  0  0  0  0  0  0  0  0
  158.6220  213.0150  144.2340 C   0  0  2  0  0  3  0  0  0  0  0  0
  159.7280  212.8460  143.2290 C   0  0  0  0  0  0  0  0  0  0  0  0
  157.9080  214.1800  143.9570 O   0  0  0  0  0  1  0  0  0  0  0  0
  158.8840  213.3370  146.6100 O   0  0  0  0  0  0  0  0  0  0  0  0
  162.0070  212.5010  141.6530 C   0  0  0  0  0  0  0  0  0  0  0  0
  163.1620  212.3320  140.8860 O   0  0  0  0  0  0  0  0  0  0  0  0
  163.1850  212.5240  139.4830 C   0  0  0  0  0  1  0  0  0  0  0  0
  161.0290  213.7650  149.9640 C   0  0  0  0  0  2  0  0  0  0  0  0
  161.5930  214.1100  148.6040 C   0  0  0  0  0  3  0  0  0  0  0  0
  160.1600  214.4530  148.9360 C   0  0  0  0  0  2  0  0  0  0  0  0
  162.1340  203.9430  148.2670 N   0  0  0  0  0  2  0  0  0  0  0  0
  160.7560  203.9540  148.7330 C   0  0  0  0  0  2  0  0  0  0  0  0
  160.6240  203.0310  149.9300 C   0  0  0  0  0  2  0  0  0  0  0  0
  161.3280  202.6370  152.1490 C   0  0  0  0  0  1  0  0  0  0  0  0
  161.2790  203.6300  151.0870 N   0  0  0  0  0  0  0  0  0  0  0  0
  160.5490  204.8240  151.5420 C   0  0  0  0  0  2  0  0  0  0  0  0
  162.3150  206.4510  151.2380 N   0  0  0  0  0  2  0  0  0  0  0  0
  161.4320  205.9430  152.0330 C   0  0  0  0  0  0  0  0  0  0  0  0
  160.9030  205.7380  154.3340 O   0  0  0  0  0  0  0  0  0  0  0  0
  161.4770  207.8880  153.6290 N   0  0  0  0  0  2  0  0  0  0  0  0
  161.2510  206.4960  153.3880 C   0  0  0  0  0  0  0  0  0  0  0  0
  161.9040  209.9010  154.9970 C   0  0  1  0  0  3  0  0  0  0  0  0
  160.3460  210.1980  157.0360 C   0  0  0  0  0  3  0  0  0  0  0  0
  161.4850  210.7840  153.8290 C   0  0  0  0  0  1  0  0  0  0  0  0
  161.5610  210.5750  156.2980 C   0  0  0  0  0  0  0  0  0  0  0  0
  162.3180  211.4720  156.7500 O   0  0  0  0  0  0  0  0  0  0  0  0
  159.7620  208.5860  155.2470 C   0  0  0  0  0  2  0  0  0  0  0  0
  159.5240  209.2530  156.5700 C   0  0  0  0  0  3  0  0  0  0  0  0
  161.2590  208.5070  154.9330 C   0  0  1  0  0  3  0  0  0  0  0  0
  2  7  2  0  0  0  0
  3  1  1  6  0  0  0
  3  4  1  0  0  0  0
  3 34  1  0  0  0  0
  4  8  1  6  0  0  0
  5  3  1  0  0  0  0
  6  4  1  0  0  0  0
  7  5  1  0  0  0  0
  7  6  1  0  0  0  0
  8  9  1  0  0  0  0
  9 10  1  0  0  0  0
 11 12  1  6  0  0  0
 11 10  1  0  0  0  0
 13 11  1  0  0  0  0
 14 13  1  1  0  0  0
 14 32  1  0  0  0  0
 15 20  1  0  0  0  0
 15 22  1  6  0  0  0
 15 19  1  0  0  0  0
 16 23  1  0  0  0  0
 17 28  1  0  0  0  0
 17 21  2  0  0  0  0
 19 18  1  6  0  0  0
 19 14  1  0  0  0  0
 20 27  2  0  0  0  0
 21 25  1  0  0  0  0
 22 19  1  0  0  0  0
 23 15  1  0  0  0  0
 24 26  1  6  0  0  0
 24 20  1  0  0  0  0
 25 23  2  0  0  0  0
 25 24  1  0  0  0  0
 28 16  2  0  0  0  0
 29 28  1  0  0  0  0
 30 29  1  0  0  0  0
 32 33  1  0  0  0  0
 32 31  1  0  0  0  0
 33 31  1  0  0  0  0
 34 35  1  0  0  0  0
 35 36  1  0  0  0  0
 36 38  1  0  0  0  0
 38 39  1  0  0  0  0
 38 37  1  0  0  0  0
 39 41  1  0  0  0  0
 40 41  2  0  0  0  0
 41 44  1  0  0  0  0
 44 43  1  0  0  0  0
 44 42  2  0  0  0  0
 45 47  1  6  0  0  0
 45 48  1  0  0  0  0
 48 49  2  0  0  0  0
 48 46  1  0  0  0  0
 50 51  1  0  0  0  0
 51 46  2  0  0  0  0
 52 43  1  6  0  0  0
 52 45  1  0  0  0  0
 52 50  1  0  0  0  0
M  END
>  <MODEL>
2

>  <REMARK>
 VINA RESULT:      -4.8      1.596      2.366
  Name = 
  17 active torsions:
  status: ('A' for Active; 'I' for Inactive)
    1  A    between atoms: C_1  and  C_5
    2  A    between atoms: C_1  and  N_26
    3  A    between atoms: C_3  and  C_24
    4  A    between atoms: C_3  and  O_51
    5  A    between atoms: C_5  and  C_31
    6  A    between atoms: C_13  and  C_17
    7  A    between atoms: C_13  and  C_18
    8  A    between atoms: C_13  and  O_51
    9  A    between atoms: C_15  and  N_22
   10  A    between atoms: C_15  and  C_27
   11  A    between atoms: C_16  and  N_22
   12  A    between atoms: C_23  and  C_35
   13  A    between atoms: C_24  and  C_28
   14  A    between atoms: N_25  and  C_50
   15  A    between atoms: N_26  and  C_27
   16  A    between atoms: C_28  and  C_35
   17  A    between atoms: O_34  and  C_52
                            x       y       z     vdW  Elec       q    Type
                         _______ _______ _______ _____ _____    ______ ____

>  <TORSDO>
F 17

$$$$
=
 OpenBabel11072412483D

 52 57  0  0  1  0  0  0  0  0999 V2000
  160.0310  210.5490  153.2770 O   0  0  0  0  0  1  0  0  0  0  0  0
  162.0950  211.5570  156.9540 N   0  0  0  0  0  2  0  0  0  0  0  0
  159.5110  210.8650  154.5400 C   0  0  1  0  0  0  0  0  0  0  0  0
  159.5240  209.6280  155.4700 C   0  0  2  0  0  3  0  0  0  0  0  0
  160.4220  211.8970  155.2150 C   0  0  0  0  0  2  0  0  0  0  0  0
  160.6990  209.7590  156.3120 N   0  0  0  0  0  2  0  0  0  0  0  0
  161.1860  211.0760  156.1770 C   0  0  0  0  0  0  0  0  0  0  0  0
  159.5310  208.2830  154.7480 C   0  0  0  0  0  2  0  0  0  0  0  0
  160.9510  207.7580  154.6270 C   0  0  0  0  0  2  0  0  0  0  0  0
  161.1100  206.8800  153.4000 C   0  0  0  0  0  2  0  0  0  0  0  0
  162.4240  207.1430  152.6570 C   0  0  2  0  0  3  0  0  0  0  0  0
  162.5010  208.4770  152.2530 O   0  0  0  0  0  1  0  0  0  0  0  0
  162.5410  206.3000  151.5400 O   0  0  0  0  0  0  0  0  0  0  0  0
  161.8520  206.8760  150.4450 C   0  0  2  0  0  3  0  0  0  0  0  0
  161.1950  204.3990  149.9060 C   0  0  1  0  0  0  0  0  0  0  0  0
  161.0730  203.1370  147.6410 C   0  0  0  0  0  3  0  0  0  0  0  0
  161.1440  200.7160  147.8190 C   0  0  0  0  0  3  0  0  0  0  0  0
  161.5230  206.0290  148.0930 O   0  0  0  0  0  1  0  0  0  0  0  0
  161.2740  205.8490  149.4560 C   0  0  2  0  0  0  0  0  0  0  0  0
  161.3330  203.8630  151.2900 C   0  0  0  0  0  0  0  0  0  0  0  0
  161.2330  200.8040  149.2160 C   0  0  0  0  0  3  0  0  0  0  0  0
  159.9250  205.2410  149.7800 C   0  0  0  0  0  2  0  0  0  0  0  0
  161.1430  203.2080  149.0320 C   0  0  0  0  0  0  0  0  0  0  0  0
  161.3510  202.3590  151.2770 C   0  0  2  0  0  3  0  0  0  0  0  0
  161.2280  202.0650  149.8070 C   0  0  0  0  0  0  0  0  0  0  0  0
  160.2290  201.8760  151.9490 O   0  0  0  0  0  1  0  0  0  0  0  0
  161.4400  204.5430  152.2970 O   0  0  0  0  0  0  0  0  0  0  0  0
  161.0630  201.8790  147.0260 C   0  0  0  0  0  0  0  0  0  0  0  0
  160.9780  201.8130  145.6340 O   0  0  0  0  0  0  0  0  0  0  0  0
  159.7570  201.5950  144.9500 C   0  0  0  0  0  1  0  0  0  0  0  0
  161.7950  209.2210  149.6400 C   0  0  0  0  0  2  0  0  0  0  0  0
  162.6540  207.9830  149.7670 C   0  0  0  0  0  3  0  0  0  0  0  0
  162.0170  208.3270  148.4400 C   0  0  0  0  0  2  0  0  0  0  0  0
  158.1390  211.3660  154.4260 N   0  0  0  0  0  2  0  0  0  0  0  0
  158.0980  212.8090  154.6160 C   0  0  0  0  0  2  0  0  0  0  0  0
  157.2880  213.4380  153.4980 C   0  0  0  0  0  2  0  0  0  0  0  0
  159.3040  214.4340  152.7810 C   0  0  0  0  0  1  0  0  0  0  0  0
  158.1440  213.6750  152.3420 N   0  0  0  0  0  0  0  0  0  0  0  0
  157.4190  214.4130  151.2950 C   0  0  0  0  0  2  0  0  0  0  0  0
  156.5430  213.1050  149.4570 N   0  0  0  0  0  2  0  0  0  0  0  0
  157.5250  213.8060  149.9200 C   0  0  0  0  0  0  0  0  0  0  0  0
  159.7840  214.4530  149.6180 O   0  0  0  0  0  0  0  0  0  0  0  0
  158.6510  213.8460  147.6690 N   0  0  0  0  0  2  0  0  0  0  0  0
  158.7130  214.0570  149.0840 C   0  0  0  0  0  0  0  0  0  0  0  0
  160.9870  213.2550  147.1260 C   0  0  1  0  0  3  0  0  0  0  0  0
  161.7770  213.9450  144.7640 C   0  0  0  0  0  3  0  0  0  0  0  0
  160.6300  211.7760  147.1950 C   0  0  0  0  0  1  0  0  0  0  0  0
  162.0870  213.4700  146.1220 C   0  0  0  0  0  0  0  0  0  0  0  0
  163.2780  213.2330  146.4470 O   0  0  0  0  0  0  0  0  0  0  0  0
  159.3610  213.9390  145.3180 C   0  0  0  0  0  2  0  0  0  0  0  0
  160.5170  214.1950  144.3950 C   0  0  0  0  0  3  0  0  0  0  0  0
  159.7720  214.1310  146.7810 C   0  0  1  0  0  3  0  0  0  0  0  0
  3  1  1  6  0  0  0
  3  5  1  0  0  0  0
  3  4  1  0  0  0  0
  4  8  1  6  0  0  0
  4  6  1  0  0  0  0
  5  7  1  0  0  0  0
  7  6  1  0  0  0  0
  7  2  2  0  0  0  0
  9  8  1  0  0  0  0
 10  9  1  0  0  0  0
 11 12  1  6  0  0  0
 11 10  1  0  0  0  0
 13 11  1  0  0  0  0
 14 13  1  1  0  0  0
 15 22  1  1  0  0  0
 15 20  1  0  0  0  0
 16 23  1  0  0  0  0
 17 21  2  0  0  0  0
 19 18  1  6  0  0  0
 19 22  1  0  0  0  0
 19 15  1  0  0  0  0
 19 14  1  0  0  0  0
 20 27  2  0  0  0  0
 21 25  1  0  0  0  0
 23 25  2  0  0  0  0
 23 15  1  0  0  0  0
 24 20  1  0  0  0  0
 24 26  1  1  0  0  0
 25 24  1  0  0  0  0
 28 16  2  0  0  0  0
 28 17  1  0  0  0  0
 29 28  1  0  0  0  0
 30 29  1  0  0  0  0
 31 32  1  0  0  0  0
 32 14  1  0  0  0  0
 33 31  1  0  0  0  0
 33 32  1  0  0  0  0
 34  3  1  0  0  0  0
 34 35  1  0  0  0  0
 36 35  1  0  0  0  0
 38 37  1  0  0  0  0
 38 36  1  0  0  0  0
 39 38  1  0  0  0  0
 40 41  2  0  0  0  0
 41 39  1  0  0  0  0
 43 44  1  0  0  0  0
 44 42  2  0  0  0  0
 44 41  1  0  0  0  0
 45 47  1  6  0  0  0
 46 48  1  0  0  0  0
 48 49  2  0  0  0  0
 48 45  1  0  0  0  0
 50 52  1  0  0  0  0
 51 46  2  0  0  0  0
 51 50  1  0  0  0  0
 52 45  1  0  0  0  0
 52 43  1  1  0  0  0
M  END
>  <MODEL>
3

>  <REMARK>
 VINA RESULT:      -3.2      3.900     10.583
  Name = 
  17 active torsions:
  status: ('A' for Active; 'I' for Inactive)
    1  A    between atoms: C_1  and  C_5
    2  A    between atoms: C_1  and  N_26
    3  A    between atoms: C_3  and  C_24
    4  A    between atoms: C_3  and  O_51
    5  A    between atoms: C_5  and  C_31
    6  A    between atoms: C_13  and  C_17
    7  A    between atoms: C_13  and  C_18
    8  A    between atoms: C_13  and  O_51
    9  A    between atoms: C_15  and  N_22
   10  A    between atoms: C_15  and  C_27
   11  A    between atoms: C_16  and  N_22
   12  A    between atoms: C_23  and  C_35
   13  A    between atoms: C_24  and  C_28
   14  A    between atoms: N_25  and  C_50
   15  A    between atoms: N_26  and  C_27
   16  A    between atoms: C_28  and  C_35
   17  A    between atoms: O_34  and  C_52
                            x       y       z     vdW  Elec       q    Type
                         _______ _______ _______ _____ _____    ______ ____

>  <TORSDO>
F 17

$$$$
=
 OpenBabel11072412483D

 52 57  0  0  1  0  0  0  0  0999 V2000
  163.1960  204.8580  146.5900 O   0  0  0  0  0  1  0  0  0  0  0  0
  160.4570  201.5220  146.1870 N   0  0  0  0  0  2  0  0  0  0  0  0
  161.7940  204.8470  146.5560 C   0  0  1  0  0  0  0  0  0  0  0  0
  161.2750  204.7890  145.1000 C   0  0  2  0  0  3  0  0  0  0  0  0
  161.2850  203.5650  147.2250 C   0  0  0  0  0  2  0  0  0  0  0  0
  160.9400  203.4020  144.8360 N   0  0  0  0  0  2  0  0  0  0  0  0
  160.9220  202.7180  146.0700 C   0  0  0  0  0  0  0  0  0  0  0  0
  162.2520  205.3120  144.0500 C   0  0  0  0  0  2  0  0  0  0  0  0
  161.5490  205.4790  142.7140 C   0  0  0  0  0  2  0  0  0  0  0  0
  161.5580  206.9280  142.2640 C   0  0  0  0  0  2  0  0  0  0  0  0
  161.9740  207.0830  140.7970 C   0  0  2  0  0  3  0  0  0  0  0  0
  163.1140  206.3250  140.5270 O   0  0  0  0  0  1  0  0  0  0  0  0
  162.2150  208.4330  140.4900 O   0  0  0  0  0  0  0  0  0  0  0  0
  161.7710  208.6990  139.1720 C   0  0  2  0  0  3  0  0  0  0  0  0
  161.1060  211.1620  139.7620 C   0  0  1  0  0  0  0  0  0  0  0  0
  158.7720  212.2630  140.0370 C   0  0  0  0  0  3  0  0  0  0  0  0
  158.7670  214.3350  141.3040 C   0  0  0  0  0  3  0  0  0  0  0  0
  159.3970  209.5400  139.0570 O   0  0  0  0  0  1  0  0  0  0  0  0
  160.7590  209.8530  139.0720 C   0  0  2  0  0  0  0  0  0  0  0  0
  162.4320  211.5930  140.2880 C   0  0  0  0  0  0  0  0  0  0  0  0
  160.1550  214.2500  141.4840 C   0  0  0  0  0  3  0  0  0  0  0  0
  161.1420  211.0560  138.2360 C   0  0  0  0  0  2  0  0  0  0  0  0
  160.1540  212.2010  140.2080 C   0  0  0  0  0  0  0  0  0  0  0  0
  162.3080  212.8900  141.0390 C   0  0  2  0  0  3  0  0  0  0  0  0
  160.8350  213.1700  140.9240 C   0  0  0  0  0  0  0  0  0  0  0  0
  163.0300  213.8820  140.3750 O   0  0  0  0  0  1  0  0  0  0  0  0
  163.4740  210.9740  140.1530 O   0  0  0  0  0  0  0  0  0  0  0  0
  158.0700  213.3460  140.5810 C   0  0  0  0  0  0  0  0  0  0  0  0
  156.6870  213.4120  140.3950 O   0  0  0  0  0  0  0  0  0  0  0  0
  156.0940  213.6240  139.1260 C   0  0  0  0  0  1  0  0  0  0  0  0
  162.2970  207.1320  137.3230 C   0  0  0  0  0  2  0  0  0  0  0  0
  161.3230  207.4370  138.4390 C   0  0  0  0  0  3  0  0  0  0  0  0
  160.9670  207.7820  137.0120 C   0  0  0  0  0  2  0  0  0  0  0  0
  161.2490  206.0370  147.2140 N   0  0  0  0  0  2  0  0  0  0  0  0
  161.4330  205.9610  148.6560 C   0  0  0  0  0  2  0  0  0  0  0  0
  162.0810  207.2420  149.1470 C   0  0  0  0  0  2  0  0  0  0  0  0
  161.1370  206.3410  151.1150 C   0  0  0  0  0  1  0  0  0  0  0  0
  162.1770  207.2200  150.6020 N   0  0  0  0  0  0  0  0  0  0  0  0
  162.0190  208.5730  151.1580 C   0  0  0  0  0  2  0  0  0  0  0  0
  160.8220  207.5380  152.9890 N   0  0  0  0  0  2  0  0  0  0  0  0
  161.3460  208.6160  152.5060 C   0  0  0  0  0  0  0  0  0  0  0  0
  162.4150  210.4790  153.5060 O   0  0  0  0  0  0  0  0  0  0  0  0
  160.1030  210.3690  153.8170 N   0  0  0  0  0  2  0  0  0  0  0  0
  161.3360  209.8610  153.2950 C   0  0  0  0  0  0  0  0  0  0  0  0
  158.5930  212.0880  154.7480 C   0  0  1  0  0  3  0  0  0  0  0  0
  159.5170  213.3760  156.7890 C   0  0  0  0  0  3  0  0  0  0  0  0
  157.6090  211.0020  155.1600 C   0  0  0  0  0  1  0  0  0  0  0  0
  158.5210  213.2390  155.7150 C   0  0  0  0  0  0  0  0  0  0  0  0
  157.5960  214.0840  155.6050 O   0  0  0  0  0  0  0  0  0  0  0  0
  160.6010  211.2750  156.0470 C   0  0  0  0  0  2  0  0  0  0  0  0
  160.5030  212.4850  156.9290 C   0  0  0  0  0  3  0  0  0  0  0  0
  160.0350  211.5630  154.6530 C   0  0  1  0  0  3  0  0  0  0  0  0
  3  1  1  1  0  0  0
  3 34  1  0  0  0  0
  3  5  1  0  0  0  0
  4  8  1  6  0  0  0
  4  3  1  0  0  0  0
  6  4  1  0  0  0  0
  6  7  1  0  0  0  0
  7  2  2  0  0  0  0
  7  5  1  0  0  0  0
  9  8  1  0  0  0  0
 10  9  1  0  0  0  0
 11 12  1  1  0  0  0
 11 10  1  0  0  0  0
 13 11  1  0  0  0  0
 14 13  1  1  0  0  0
 15 22  1  6  0  0  0
 15 23  1  0  0  0  0
 15 20  1  0  0  0  0
 16 23  2  0  0  0  0
 16 28  1  0  0  0  0
 17 21  1  0  0  0  0
 19 18  1  6  0  0  0
 19 14  1  0  0  0  0
 19 15  1  0  0  0  0
 20 24  1  0  0  0  0
 22 19  1  0  0  0  0
 23 25  1  0  0  0  0
 24 26  1  6  0  0  0
 25 24  1  0  0  0  0
 25 21  2  0  0  0  0
 27 20  2  0  0  0  0
 28 17  2  0  0  0  0
 29 28  1  0  0  0  0
 30 29  1  0  0  0  0
 31 32  1  0  0  0  0
 32 14  1  0  0  0  0
 33 31  1  0  0  0  0
 33 32  1  0  0  0  0
 34 35  1  0  0  0  0
 35 36  1  0  0  0  0
 36 38  1  0  0  0  0
 38 37  1  0  0  0  0
 38 39  1  0  0  0  0
 39 41  1  0  0  0  0
 41 40  2  0  0  0  0
 41 44  1  0  0  0  0
 44 42  2  0  0  0  0
 44 43  1  0  0  0  0
 45 47  1  1  0  0  0
 45 48  1  0  0  0  0
 46 51  2  0  0  0  0
 48 46  1  0  0  0  0
 49 48  2  0  0  0  0
 50 51  1  0  0  0  0
 52 43  1  6  0  0  0
 52 45  1  0  0  0  0
 52 50  1  0  0  0  0
M  END
>  <MODEL>
4

>  <REMARK>
 VINA RESULT:      -3.1      3.406      6.486
  Name = 
  17 active torsions:
  status: ('A' for Active; 'I' for Inactive)
    1  A    between atoms: C_1  and  C_5
    2  A    between atoms: C_1  and  N_26
    3  A    between atoms: C_3  and  C_24
    4  A    between atoms: C_3  and  O_51
    5  A    between atoms: C_5  and  C_31
    6  A    between atoms: C_13  and  C_17
    7  A    between atoms: C_13  and  C_18
    8  A    between atoms: C_13  and  O_51
    9  A    between atoms: C_15  and  N_22
   10  A    between atoms: C_15  and  C_27
   11  A    between atoms: C_16  and  N_22
   12  A    between atoms: C_23  and  C_35
   13  A    between atoms: C_24  and  C_28
   14  A    between atoms: N_25  and  C_50
   15  A    between atoms: N_26  and  C_27
   16  A    between atoms: C_28  and  C_35
   17  A    between atoms: O_34  and  C_52
                            x       y       z     vdW  Elec       q    Type
                         _______ _______ _______ _____ _____    ______ ____

>  <TORSDO>
F 17

$$$$
=
 OpenBabel11072412483D

 52 57  0  0  1  0  0  0  0  0999 V2000
  163.3070  205.2660  145.6930 O   0  0  0  0  0  1  0  0  0  0  0  0
  160.4350  202.0240  145.5110 N   0  0  0  0  0  2  0  0  0  0  0  0
  161.9080  205.3010  145.7800 C   0  0  1  0  0  0  0  0  0  0  0  0
  161.2640  205.2710  144.3730 C   0  0  2  0  0  3  0  0  0  0  0  0
  161.4170  204.0310  146.4840 C   0  0  0  0  0  2  0  0  0  0  0  0
  160.8620  203.8970  144.1330 N   0  0  0  0  0  2  0  0  0  0  0  0
  160.9270  203.2050  145.3610 C   0  0  0  0  0  0  0  0  0  0  0  0
  162.1640  205.7700  143.2460 C   0  0  0  0  0  2  0  0  0  0  0  0
  161.3460  206.5320  142.2180 C   0  0  0  0  0  2  0  0  0  0  0  0
  162.0150  206.5090  140.8560 C   0  0  0  0  0  2  0  0  0  0  0  0
  161.8110  207.8160  140.0820 C   0  0  2  0  0  3  0  0  0  0  0  0
  161.6980  208.8950  140.9600 O   0  0  0  0  0  1  0  0  0  0  0  0
  160.6660  207.7390  139.2710 O   0  0  0  0  0  0  0  0  0  0  0  0
  160.6830  208.8030  138.3360 C   0  0  2  0  0  3  0  0  0  0  0  0
  159.1950  210.9260  138.7080 C   0  0  1  0  0  0  0  0  0  0  0  0
  156.6250  211.1630  138.9770 C   0  0  0  0  0  3  0  0  0  0  0  0
  155.8970  213.2260  140.0310 C   0  0  0  0  0  3  0  0  0  0  0  0
  158.1640  208.7420  138.2450 O   0  0  0  0  0  1  0  0  0  0  0  0
  159.3280  209.5120  138.1670 C   0  0  2  0  0  0  0  0  0  0  0  0
  160.2880  211.8490  139.1300 C   0  0  0  0  0  0  0  0  0  0  0  0
  157.2270  213.6520  140.1570 C   0  0  0  0  0  3  0  0  0  0  0  0
  159.2560  210.6740  137.2010 C   0  0  0  0  0  2  0  0  0  0  0  0
  157.9420  211.6070  139.0920 C   0  0  0  0  0  0  0  0  0  0  0  0
  159.7190  213.0930  139.7530 C   0  0  2  0  0  3  0  0  0  0  0  0
  158.2410  212.8250  139.6760 C   0  0  0  0  0  0  0  0  0  0  0  0
  160.0390  214.1970  138.9630 O   0  0  0  0  0  1  0  0  0  0  0  0
  161.4800  211.6230  139.0100 O   0  0  0  0  0  0  0  0  0  0  0  0
  155.5890  211.9820  139.4420 C   0  0  0  0  0  0  0  0  0  0  0  0
  154.2710  211.5390  139.3120 O   0  0  0  0  0  0  0  0  0  0  0  0
  153.3870  211.4320  140.4130 C   0  0  0  0  0  1  0  0  0  0  0  0
  162.4070  207.3780  137.2640 C   0  0  0  0  0  2  0  0  0  0  0  0
  161.3270  208.4070  137.0110 C   0  0  0  0  0  3  0  0  0  0  0  0
  162.7800  208.8210  137.0120 C   0  0  0  0  0  2  0  0  0  0  0  0
  161.4620  206.5030  146.4880 N   0  0  0  0  0  2  0  0  0  0  0  0
  162.2960  206.7570  147.6540 C   0  0  0  0  0  2  0  0  0  0  0  0
  161.7840  207.9870  148.3780 C   0  0  0  0  0  2  0  0  0  0  0  0
  163.0360  207.1380  150.1910 C   0  0  0  0  0  1  0  0  0  0  0  0
  161.7670  207.7420  149.8150 N   0  0  0  0  0  0  0  0  0  0  0  0
  160.6530  206.8530  150.1810 C   0  0  0  0  0  2  0  0  0  0  0  0
  161.1680  204.6020  150.9080 N   0  0  0  0  0  2  0  0  0  0  0  0
  160.9910  205.8380  151.2430 C   0  0  0  0  0  0  0  0  0  0  0  0
  161.3760  205.3910  153.5380 O   0  0  0  0  0  0  0  0  0  0  0  0
  161.1390  207.6470  152.9860 N   0  0  0  0  0  2  0  0  0  0  0  0
  161.1780  206.2580  152.6440 C   0  0  0  0  0  0  0  0  0  0  0  0
  161.1770  209.6570  154.4230 C   0  0  1  0  0  3  0  0  0  0  0  0
  160.7030  209.2290  156.9270 C   0  0  0  0  0  3  0  0  0  0  0  0
  159.9520  210.1990  153.6980 C   0  0  0  0  0  1  0  0  0  0  0  0
  161.1720  210.1210  155.8540 C   0  0  0  0  0  0  0  0  0  0  0  0
  161.5660  211.2820  156.1310 O   0  0  0  0  0  0  0  0  0  0  0  0
  160.1830  207.4850  155.2450 C   0  0  0  0  0  2  0  0  0  0  0  0
  160.2730  207.9940  156.6540 C   0  0  0  0  0  3  0  0  0  0  0  0
  161.2590  208.1220  154.3610 C   0  0  1  0  0  3  0  0  0  0  0  0
  3  1  1  6  0  0  0
  3  5  1  0  0  0  0
  3 34  1  0  0  0  0
  4  8  1  6  0  0  0
  4  3  1  0  0  0  0
  6  4  1  0  0  0  0
  6  7  1  0  0  0  0
  7  2  2  0  0  0  0
  7  5  1  0  0  0  0
  9  8  1  0  0  0  0
 10  9  1  0  0  0  0
 11 10  1  0  0  0  0
 11 12  1  1  0  0  0
 13 11  1  0  0  0  0
 14 13  1  1  0  0  0
 15 22  1  6  0  0  0
 15 23  1  0  0  0  0
 15 20  1  0  0  0  0
 16 23  2  0  0  0  0
 16 28  1  0  0  0  0
 17 21  1  0  0  0  0
 19 18  1  1  0  0  0
 19 14  1  0  0  0  0
 19 15  1  0  0  0  0
 20 24  1  0  0  0  0
 22 19  1  0  0  0  0
 23 25  1  0  0  0  0
 24 26  1  6  0  0  0
 25 24  1  0  0  0  0
 25 21  2  0  0  0  0
 27 20  2  0  0  0  0
 28 17  2  0  0  0  0
 29 28  1  0  0  0  0
 29 30  1  0  0  0  0
 32 33  1  0  0  0  0
 32 31  1  0  0  0  0
 32 14  1  0  0  0  0
 33 31  1  0  0  0  0
 34 35  1  0  0  0  0
 35 36  1  0  0  0  0
 36 38  1  0  0  0  0
 38 39  1  0  0  0  0
 38 37  1  0  0  0  0
 39 41  1  0  0  0  0
 40 41  2  0  0  0  0
 41 44  1  0  0  0  0
 44 43  1  0  0  0  0
 44 42  2  0  0  0  0
 45 47  1  1  0  0  0
 45 48  1  0  0  0  0
 48 49  2  0  0  0  0
 48 46  1  0  0  0  0
 50 51  1  0  0  0  0
 51 46  2  0  0  0  0
 52 43  1  6  0  0  0
 52 45  1  0  0  0  0
 52 50  1  0  0  0  0
M  END
>  <MODEL>
5

>  <REMARK>
 VINA RESULT:      -2.9      3.728      6.509
  Name = 
  17 active torsions:
  status: ('A' for Active; 'I' for Inactive)
    1  A    between atoms: C_1  and  C_5
    2  A    between atoms: C_1  and  N_26
    3  A    between atoms: C_3  and  C_24
    4  A    between atoms: C_3  and  O_51
    5  A    between atoms: C_5  and  C_31
    6  A    between atoms: C_13  and  C_17
    7  A    between atoms: C_13  and  C_18
    8  A    between atoms: C_13  and  O_51
    9  A    between atoms: C_15  and  N_22
   10  A    between atoms: C_15  and  C_27
   11  A    between atoms: C_16  and  N_22
   12  A    between atoms: C_23  and  C_35
   13  A    between atoms: C_24  and  C_28
   14  A    between atoms: N_25  and  C_50
   15  A    between atoms: N_26  and  C_27
   16  A    between atoms: C_28  and  C_35
   17  A    between atoms: O_34  and  C_52
                            x       y       z     vdW  Elec       q    Type
                         _______ _______ _______ _____ _____    ______ ____

>  <TORSDO>
F 17

$$$$
=
 OpenBabel11072412483D

 52 57  0  0  1  0  0  0  0  0999 V2000
  159.5420  204.6400  144.9180 O   0  0  0  0  0  1  0  0  0  0  0  0
  162.4710  206.8470  147.2300 N   0  0  0  0  0  2  0  0  0  0  0  0
  160.8840  204.3370  145.1900 C   0  0  1  0  0  0  0  0  0  0  0  0
  161.8300  205.0910  144.2240 C   0  0  2  0  0  3  0  0  0  0  0  0
  161.2400  204.8440  146.5920 C   0  0  0  0  0  2  0  0  0  0  0  0
  162.3140  206.2530  144.9460 N   0  0  0  0  0  2  0  0  0  0  0  0
  161.9930  206.0820  146.3090 C   0  0  0  0  0  0  0  0  0  0  0  0
  161.1940  205.5100  142.9020 C   0  0  0  0  0  2  0  0  0  0  0  0
  162.0220  206.5980  142.2420 C   0  0  0  0  0  2  0  0  0  0  0  0
  162.0320  206.4440  140.7320 C   0  0  0  0  0  2  0  0  0  0  0  0
  162.2030  207.7820  140.0060 C   0  0  2  0  0  3  0  0  0  0  0  0
  161.7540  208.8350  140.8050 O   0  0  0  0  0  1  0  0  0  0  0  0
  161.5060  207.7780  138.7870 O   0  0  0  0  0  0  0  0  0  0  0  0
  161.2230  209.1130  138.4060 C   0  0  2  0  0  3  0  0  0  0  0  0
  158.8850  210.2900  138.4990 C   0  0  1  0  0  0  0  0  0  0  0  0
  156.5580  209.4950  137.6690 C   0  0  0  0  0  3  0  0  0  0  0  0
  154.6700  210.6400  138.6810 C   0  0  0  0  0  3  0  0  0  0  0  0
  159.1880  208.2090  137.2230 O   0  0  0  0  0  1  0  0  0  0  0  0
  159.8190  209.3110  137.8080 C   0  0  2  0  0  0  0  0  0  0  0  0
  159.2330  211.3170  139.5220 C   0  0  0  0  0  0  0  0  0  0  0  0
  155.5380  211.4290  139.4490 C   0  0  0  0  0  3  0  0  0  0  0  0
  159.5140  210.6390  137.1500 C   0  0  0  0  0  2  0  0  0  0  0  0
  157.4090  210.2990  138.4260 C   0  0  0  0  0  0  0  0  0  0  0  0
  157.9900  211.9670  140.0650 C   0  0  2  0  0  3  0  0  0  0  0  0
  156.9120  211.2450  139.3060 C   0  0  0  0  0  0  0  0  0  0  0  0
  157.9850  213.3190  139.7210 O   0  0  0  0  0  1  0  0  0  0  0  0
  160.3650  211.5840  139.8890 O   0  0  0  0  0  0  0  0  0  0  0  0
  155.1740  209.6710  137.7880 C   0  0  0  0  0  0  0  0  0  0  0  0
  154.3260  208.8730  137.0180 O   0  0  0  0  0  0  0  0  0  0  0  0
  154.2300  207.4700  137.1870 C   0  0  0  0  0  1  0  0  0  0  0  0
  163.1560  210.6660  138.4130 C   0  0  0  0  0  2  0  0  0  0  0  0
  162.3330  209.7270  137.5590 C   0  0  0  0  0  3  0  0  0  0  0  0
  162.1240  211.2210  137.4580 C   0  0  0  0  0  2  0  0  0  0  0  0
  161.1260  202.8960  145.0720 N   0  0  0  0  0  2  0  0  0  0  0  0
  160.0770  202.1400  145.7390 C   0  0  0  0  0  2  0  0  0  0  0  0
  160.7080  201.0800  146.6220 C   0  0  0  0  0  2  0  0  0  0  0  0
  162.0860  200.7290  148.5060 C   0  0  0  0  0  1  0  0  0  0  0  0
  161.2310  201.6960  147.8350 N   0  0  0  0  0  0  0  0  0  0  0  0
  160.1350  202.1100  148.7270 C   0  0  0  0  0  2  0  0  0  0  0  0
  161.0340  202.1870  150.9730 N   0  0  0  0  0  2  0  0  0  0  0  0
  160.5850  202.8520  149.9590 C   0  0  0  0  0  0  0  0  0  0  0  0
  160.0790  204.9680  149.0220 O   0  0  0  0  0  0  0  0  0  0  0  0
  161.1060  205.0240  151.1180 N   0  0  0  0  0  2  0  0  0  0  0  0
  160.5700  204.3260  149.9900 C   0  0  0  0  0  0  0  0  0  0  0  0
  160.7750  206.9900  152.5780 C   0  0  1  0  0  3  0  0  0  0  0  0
  161.9440  209.1550  151.7910 C   0  0  0  0  0  3  0  0  0  0  0  0
  161.5530  206.2970  153.6890 C   0  0  0  0  0  1  0  0  0  0  0  0
  160.9740  208.4790  152.6660 C   0  0  0  0  0  0  0  0  0  0  0  0
  160.3090  209.1450  153.4990 O   0  0  0  0  0  0  0  0  0  0  0  0
  162.5740  206.9710  150.8050 C   0  0  0  0  0  2  0  0  0  0  0  0
  162.6680  208.4660  150.9030 C   0  0  0  0  0  3  0  0  0  0  0  0
  161.1740  206.4810  151.1830 C   0  0  1  0  0  3  0  0  0  0  0  0
  3  1  1  6  0  0  0
  3  5  1  0  0  0  0
  4  8  1  6  0  0  0
  4  6  1  0  0  0  0
  4  3  1  0  0  0  0
  6  7  1  0  0  0  0
  7  5  1  0  0  0  0
  7  2  2  0  0  0  0
  9  8  1  0  0  0  0
 10  9  1  0  0  0  0
 11 10  1  0  0  0  0
 11 12  1  1  0  0  0
 13 11  1  0  0  0  0
 14 13  1  6  0  0  0
 15 22  1  6  0  0  0
 15 20  1  0  0  0  0
 16 28  2  0  0  0  0
 16 23  1  0  0  0  0
 17 21  2  0  0  0  0
 19 18  1  6  0  0  0
 19 14  1  0  0  0  0
 19 15  1  0  0  0  0
 20 27  2  0  0  0  0
 20 24  1  0  0  0  0
 22 19  1  0  0  0  0
 23 15  1  0  0  0  0
 23 25  2  0  0  0  0
 24 26  1  6  0  0  0
 25 21  1  0  0  0  0
 25 24  1  0  0  0  0
 28 17  1  0  0  0  0
 29 30  1  0  0  0  0
 29 28  1  0  0  0  0
 32 14  1  0  0  0  0
 32 31  1  0  0  0  0
 33 32  1  0  0  0  0
 33 31  1  0  0  0  0
 34  3  1  0  0  0  0
 34 35  1  0  0  0  0
 35 36  1  0  0  0  0
 36 38  1  0  0  0  0
 38 37  1  0  0  0  0
 38 39  1  0  0  0  0
 39 41  1  0  0  0  0
 41 44  1  0  0  0  0
 41 40  2  0  0  0  0
 42 44  2  0  0  0  0
 44 43  1  0  0  0  0
 45 48  1  0  0  0  0
 45 47  1  1  0  0  0
 46 48  1  0  0  0  0
 48 49  2  0  0  0  0
 50 51  1  0  0  0  0
 50 52  1  0  0  0  0
 51 46  2  0  0  0  0
 52 43  1  1  0  0  0
 52 45  1  0  0  0  0
M  END
>  <MODEL>
6

>  <REMARK>
 VINA RESULT:      -2.8      3.636      6.069
  Name = 
  17 active torsions:
  status: ('A' for Active; 'I' for Inactive)
    1  A    between atoms: C_1  and  C_5
    2  A    between atoms: C_1  and  N_26
    3  A    between atoms: C_3  and  C_24
    4  A    between atoms: C_3  and  O_51
    5  A    between atoms: C_5  and  C_31
    6  A    between atoms: C_13  and  C_17
    7  A    between atoms: C_13  and  C_18
    8  A    between atoms: C_13  and  O_51
    9  A    between atoms: C_15  and  N_22
   10  A    between atoms: C_15  and  C_27
   11  A    between atoms: C_16  and  N_22
   12  A    between atoms: C_23  and  C_35
   13  A    between atoms: C_24  and  C_28
   14  A    between atoms: N_25  and  C_50
   15  A    between atoms: N_26  and  C_27
   16  A    between atoms: C_28  and  C_35
   17  A    between atoms: O_34  and  C_52
                            x       y       z     vdW  Elec       q    Type
                         _______ _______ _______ _____ _____    ______ ____

>  <TORSDO>
F 17

$$$$
=
 OpenBabel11072412483D

 52 57  0  0  1  0  0  0  0  0999 V2000
  161.7680  214.1570  148.7270 O   0  0  0  0  0  1  0  0  0  0  0  0
  160.9580  213.5210  144.5160 N   0  0  0  0  0  2  0  0  0  0  0  0
  161.4700  212.9720  148.0400 C   0  0  1  0  0  0  0  0  0  0  0  0
  159.9430  212.8210  147.8340 C   0  0  2  0  0  3  0  0  0  0  0  0
  162.0700  213.0430  146.6310 C   0  0  0  0  0  2  0  0  0  0  0  0
  159.6650  213.2600  146.4790 N   0  0  0  0  0  2  0  0  0  0  0  0
  160.8940  213.3540  145.7930 C   0  0  0  0  0  0  0  0  0  0  0  0
  159.0820  213.5890  148.8330 C   0  0  0  0  0  2  0  0  0  0  0  0
  158.7960  212.7290  150.0510 C   0  0  0  0  0  2  0  0  0  0  0  0
  157.5670  213.2200  150.7950 C   0  0  0  0  0  2  0  0  0  0  0  0
  157.9000  213.7440  152.1950 C   0  0  2  0  0  3  0  0  0  0  0  0
  159.1040  214.4500  152.1820 O   0  0  0  0  0  1  0  0  0  0  0  0
  157.9770  212.6860  153.1160 O   0  0  0  0  0  0  0  0  0  0  0  0
  159.0610  212.9130  153.9990 C   0  0  2  0  0  3  0  0  0  0  0  0
  160.4220  210.6950  153.7060 C   0  0  1  0  0  0  0  0  0  0  0  0
  160.2970  208.4510  155.0030 C   0  0  0  0  0  3  0  0  0  0  0  0
  161.2370  206.5430  153.8300 C   0  0  0  0  0  3  0  0  0  0  0  0
  158.9250  210.9980  155.6330 O   0  0  0  0  0  1  0  0  0  0  0  0
  159.6460  211.6310  154.6170 C   0  0  2  0  0  0  0  0  0  0  0  0
  160.9540  210.9810  152.3420 C   0  0  0  0  0  0  0  0  0  0  0  0
  161.5720  207.3570  152.7380 C   0  0  0  0  0  3  0  0  0  0  0  0
  161.1500  211.5380  154.7540 C   0  0  0  0  0  2  0  0  0  0  0  0
  160.6530  209.2510  153.9180 C   0  0  0  0  0  0  0  0  0  0  0  0
  161.5210  209.7330  151.7230 C   0  0  2  0  0  3  0  0  0  0  0  0
  161.2720  208.7160  152.8020 C   0  0  0  0  0  0  0  0  0  0  0  0
  162.8930  209.8930  151.5320 O   0  0  0  0  0  1  0  0  0  0  0  0
  160.9170  212.0680  151.7900 O   0  0  0  0  0  0  0  0  0  0  0  0
  160.6000  207.0850  154.9660 C   0  0  0  0  0  0  0  0  0  0  0  0
  160.2550  206.2890  156.0610 O   0  0  0  0  0  0  0  0  0  0  0  0
  159.7230  206.8250  157.2600 C   0  0  0  0  0  1  0  0  0  0  0  0
  157.7010  213.4990  155.9890 C   0  0  0  0  0  2  0  0  0  0  0  0
  158.7590  213.9970  155.0290 C   0  0  0  0  0  3  0  0  0  0  0  0
  157.3260  214.4530  154.8780 C   0  0  0  0  0  2  0  0  0  0  0  0
  161.9740  211.8070  148.7710 N   0  0  0  0  0  2  0  0  0  0  0  0
  161.2480  210.6040  148.3920 C   0  0  0  0  0  2  0  0  0  0  0  0
  162.2390  209.4980  148.0800 C   0  0  0  0  0  2  0  0  0  0  0  0
  162.9360  207.3490  148.7650 C   0  0  0  0  0  1  0  0  0  0  0  0
  161.7980  208.2530  148.6990 N   0  0  0  0  0  0  0  0  0  0  0  0
  160.7070  207.6410  147.9250 C   0  0  0  0  0  2  0  0  0  0  0  0
  161.2000  206.8150  145.7040 N   0  0  0  0  0  2  0  0  0  0  0  0
  161.1510  206.5620  146.9700 C   0  0  0  0  0  0  0  0  0  0  0  0
  162.5750  204.6680  146.9550 O   0  0  0  0  0  0  0  0  0  0  0  0
  160.8870  204.6360  148.5680 N   0  0  0  0  0  2  0  0  0  0  0  0
  161.5850  205.2480  147.4790 C   0  0  0  0  0  0  0  0  0  0  0  0
  161.4630  203.3500  150.5970 C   0  0  1  0  0  3  0  0  0  0  0  0
  161.1540  200.7920  150.4050 C   0  0  0  0  0  3  0  0  0  0  0  0
  160.3080  204.0060  151.3420 C   0  0  0  0  0  1  0  0  0  0  0  0
  161.6870  201.9590  151.1250 C   0  0  0  0  0  0  0  0  0  0  0  0
  162.3300  201.7970  152.1940 O   0  0  0  0  0  0  0  0  0  0  0  0
  160.1380  202.2990  148.7210 C   0  0  0  0  0  2  0  0  0  0  0  0
  160.4610  200.9410  149.2720 C   0  0  0  0  0  3  0  0  0  0  0  0
  161.2300  203.3120  149.0780 C   0  0  1  0  0  3  0  0  0  0  0  0
  2  7  2  0  0  0  0
  3  1  1  1  0  0  0
  3 34  1  0  0  0  0
  4  3  1  0  0  0  0
  4  8  1  1  0  0  0
  5  3  1  0  0  0  0
  6  4  1  0  0  0  0
  7  6  1  0  0  0  0
  7  5  1  0  0  0  0
  8  9  1  0  0  0  0
  9 10  1  0  0  0  0
 10 11  1  0  0  0  0
 11 12  1  6  0  0  0
 11 13  1  0  0  0  0
 14 13  1  1  0  0  0
 14 19  1  0  0  0  0
 14 32  1  0  0  0  0
 15 23  1  0  0  0  0
 15 19  1  0  0  0  0
 15 22  1  1  0  0  0
 17 28  2  0  0  0  0
 19 22  1  0  0  0  0
 19 18  1  1  0  0  0
 20 15  1  0  0  0  0
 21 25  2  0  0  0  0
 21 17  1  0  0  0  0
 23 16  2  0  0  0  0
 24 26  1  1  0  0  0
 24 20  1  0  0  0  0
 24 25  1  0  0  0  0
 25 23  1  0  0  0  0
 27 20  2  0  0  0  0
 28 16  1  0  0  0  0
 28 29  1  0  0  0  0
 29 30  1  0  0  0  0
 32 31  1  0  0  0  0
 33 32  1  0  0  0  0
 33 31  1  0  0  0  0
 35 34  1  0  0  0  0
 36 35  1  0  0  0  0
 36 38  1  0  0  0  0
 38 37  1  0  0  0  0
 39 38  1  0  0  0  0
 40 41  2  0  0  0  0
 41 44  1  0  0  0  0
 41 39  1  0  0  0  0
 42 44  2  0  0  0  0
 44 43  1  0  0  0  0
 45 48  1  0  0  0  0
 45 47  1  1  0  0  0
 46 48  1  0  0  0  0
 48 49  2  0  0  0  0
 50 52  1  0  0  0  0
 50 51  1  0  0  0  0
 51 46  2  0  0  0  0
 52 43  1  1  0  0  0
 52 45  1  0  0  0  0
M  END
>  <MODEL>
7

>  <REMARK>
 VINA RESULT:      -2.8      3.178      8.794
  Name = 
  17 active torsions:
  status: ('A' for Active; 'I' for Inactive)
    1  A    between atoms: C_1  and  C_5
    2  A    between atoms: C_1  and  N_26
    3  A    between atoms: C_3  and  C_24
    4  A    between atoms: C_3  and  O_51
    5  A    between atoms: C_5  and  C_31
    6  A    between atoms: C_13  and  C_17
    7  A    between atoms: C_13  and  C_18
    8  A    between atoms: C_13  and  O_51
    9  A    between atoms: C_15  and  N_22
   10  A    between atoms: C_15  and  C_27
   11  A    between atoms: C_16  and  N_22
   12  A    between atoms: C_23  and  C_35
   13  A    between atoms: C_24  and  C_28
   14  A    between atoms: N_25  and  C_50
   15  A    between atoms: N_26  and  C_27
   16  A    between atoms: C_28  and  C_35
   17  A    between atoms: O_34  and  C_52
                            x       y       z     vdW  Elec       q    Type
                         _______ _______ _______ _____ _____    ______ ____

>  <TORSDO>
F 17

$$$$
=
 OpenBabel11072412483D

 52 57  0  0  1  0  0  0  0  0999 V2000
  159.7040  204.4620  145.2380 O   0  0  0  0  0  1  0  0  0  0  0  0
  162.5360  206.9480  147.3810 N   0  0  0  0  0  2  0  0  0  0  0  0
  161.0750  204.2700  145.4630 C   0  0  1  0  0  0  0  0  0  0  0  0
  161.9210  205.0700  144.4440 C   0  0  2  0  0  3  0  0  0  0  0  0
  161.4420  204.8390  146.8390 C   0  0  0  0  0  2  0  0  0  0  0  0
  162.3390  206.2850  145.1200 N   0  0  0  0  0  2  0  0  0  0  0  0
  162.0850  206.1240  146.4980 C   0  0  0  0  0  0  0  0  0  0  0  0
  161.2050  205.4040  143.1380 C   0  0  0  0  0  2  0  0  0  0  0  0
  161.9840  206.4540  142.3650 C   0  0  0  0  0  2  0  0  0  0  0  0
  161.9610  206.1690  140.8750 C   0  0  0  0  0  2  0  0  0  0  0  0
  162.3160  207.4010  140.0370 C   0  0  2  0  0  3  0  0  0  0  0  0
  163.1050  208.2860  140.7740 O   0  0  0  0  0  1  0  0  0  0  0  0
  161.1520  208.0540  139.5960 O   0  0  0  0  0  0  0  0  0  0  0  0
  161.5080  209.0880  138.6960 C   0  0  2  0  0  3  0  0  0  0  0  0
  160.9000  211.3770  139.8130 C   0  0  1  0  0  0  0  0  0  0  0  0
  158.6180  212.5910  140.0460 C   0  0  0  0  0  3  0  0  0  0  0  0
  158.5320  214.2720  141.7970 C   0  0  0  0  0  3  0  0  0  0  0  0
  159.2330  210.1530  138.4820 O   0  0  0  0  0  1  0  0  0  0  0  0
  160.5910  210.3220  138.7640 C   0  0  2  0  0  0  0  0  0  0  0  0
  162.1500  211.5350  140.6100 C   0  0  0  0  0  0  0  0  0  0  0  0
  159.8670  214.0120  142.1360 C   0  0  0  0  0  3  0  0  0  0  0  0
  161.1680  211.6530  138.3330 C   0  0  0  0  0  2  0  0  0  0  0  0
  159.9510  212.3570  140.3810 C   0  0  0  0  0  0  0  0  0  0  0  0
  161.9830  212.6090  141.6500 C   0  0  2  0  0  3  0  0  0  0  0  0
  160.5650  213.0480  141.4120 C   0  0  0  0  0  0  0  0  0  0  0  0
  162.8550  213.6620  141.3730 O   0  0  0  0  0  1  0  0  0  0  0  0
  163.1640  210.8730  140.4610 O   0  0  0  0  0  0  0  0  0  0  0  0
  157.9020  213.5650  140.7520 C   0  0  0  0  0  0  0  0  0  0  0  0
  156.5710  213.8070  140.4030 O   0  0  0  0  0  0  0  0  0  0  0  0
  155.7880  212.8750  139.6770 C   0  0  0  0  0  1  0  0  0  0  0  0
  160.8330  207.3850  137.0250 C   0  0  0  0  0  2  0  0  0  0  0  0
  161.7300  208.5770  137.2760 C   0  0  0  0  0  3  0  0  0  0  0  0
  162.3000  207.1780  137.3260 C   0  0  0  0  0  2  0  0  0  0  0  0
  161.4240  202.8500  145.3690 N   0  0  0  0  0  2  0  0  0  0  0  0
  160.2710  202.0140  145.6680 C   0  0  0  0  0  2  0  0  0  0  0  0
  160.6550  200.9880  146.7170 C   0  0  0  0  0  2  0  0  0  0  0  0
  162.1410  200.7790  148.5400 C   0  0  0  0  0  1  0  0  0  0  0  0
  161.1810  201.6630  147.8980 N   0  0  0  0  0  0  0  0  0  0  0  0
  160.0960  202.0010  148.8340 C   0  0  0  0  0  2  0  0  0  0  0  0
  161.0290  202.0230  151.0670 N   0  0  0  0  0  2  0  0  0  0  0  0
  160.5530  202.7120  150.0820 C   0  0  0  0  0  0  0  0  0  0  0  0
  160.1120  204.8530  149.1690 O   0  0  0  0  0  0  0  0  0  0  0  0
  160.9240  204.8490  151.3590 N   0  0  0  0  0  2  0  0  0  0  0  0
  160.5130  204.1830  150.1600 C   0  0  0  0  0  0  0  0  0  0  0  0
  160.8470  206.7390  152.9480 C   0  0  1  0  0  3  0  0  0  0  0  0
  161.7680  208.9770  152.0420 C   0  0  0  0  0  3  0  0  0  0  0  0
  161.8570  206.0300  153.8410 C   0  0  0  0  0  1  0  0  0  0  0  0
  161.0190  208.2290  153.0640 C   0  0  0  0  0  0  0  0  0  0  0  0
  160.5230  208.8360  154.0480 O   0  0  0  0  0  0  0  0  0  0  0  0
  162.2410  206.8600  150.8450 C   0  0  0  0  0  2  0  0  0  0  0  0
  162.3110  208.3510  150.9930 C   0  0  0  0  0  3  0  0  0  0  0  0
  160.9630  206.3030  151.4780 C   0  0  1  0  0  3  0  0  0  0  0  0
  3  1  1  6  0  0  0
  3  5  1  0  0  0  0
  4  8  1  6  0  0  0
  4  6  1  0  0  0  0
  4  3  1  0  0  0  0
  6  7  1  0  0  0  0
  7  5  1  0  0  0  0
  7  2  2  0  0  0  0
  9  8  1  0  0  0  0
 10  9  1  0  0  0  0
 11 12  1  1  0  0  0
 11 10  1  0  0  0  0
 13 11  1  0  0  0  0
 14 19  1  0  0  0  0
 14 13  1  1  0  0  0
 15 22  1  6  0  0  0
 15 23  1  0  0  0  0
 15 20  1  0  0  0  0
 16 23  2  0  0  0  0
 16 28  1  0  0  0  0
 17 21  1  0  0  0  0
 19 18  1  6  0  0  0
 19 15  1  0  0  0  0
 20 24  1  0  0  0  0
 22 19  1  0  0  0  0
 23 25  1  0  0  0  0
 24 26  1  6  0  0  0
 25 24  1  0  0  0  0
 25 21  2  0  0  0  0
 27 20  2  0  0  0  0
 28 17  2  0  0  0  0
 29 28  1  0  0  0  0
 30 29  1  0  0  0  0
 31 32  1  0  0  0  0
 31 33  1  0  0  0  0
 32 33  1  0  0  0  0
 32 14  1  0  0  0  0
 34  3  1  0  0  0  0
 34 35  1  0  0  0  0
 35 36  1  0  0  0  0
 36 38  1  0  0  0  0
 38 37  1  0  0  0  0
 38 39  1  0  0  0  0
 39 41  1  0  0  0  0
 41 44  1  0  0  0  0
 41 40  2  0  0  0  0
 42 44  2  0  0  0  0
 44 43  1  0  0  0  0
 45 48  1  0  0  0  0
 45 47  1  1  0  0  0
 46 48  1  0  0  0  0
 48 49  2  0  0  0  0
 50 51  1  0  0  0  0
 50 52  1  0  0  0  0
 51 46  2  0  0  0  0
 52 43  1  1  0  0  0
 52 45  1  0  0  0  0
M  END
>  <MODEL>
8

>  <REMARK>
 VINA RESULT:      -2.8      2.962      5.519
  Name = 
  17 active torsions:
  status: ('A' for Active; 'I' for Inactive)
    1  A    between atoms: C_1  and  C_5
    2  A    between atoms: C_1  and  N_26
    3  A    between atoms: C_3  and  C_24
    4  A    between atoms: C_3  and  O_51
    5  A    between atoms: C_5  and  C_31
    6  A    between atoms: C_13  and  C_17
    7  A    between atoms: C_13  and  C_18
    8  A    between atoms: C_13  and  O_51
    9  A    between atoms: C_15  and  N_22
   10  A    between atoms: C_15  and  C_27
   11  A    between atoms: C_16  and  N_22
   12  A    between atoms: C_23  and  C_35
   13  A    between atoms: C_24  and  C_28
   14  A    between atoms: N_25  and  C_50
   15  A    between atoms: N_26  and  C_27
   16  A    between atoms: C_28  and  C_35
   17  A    between atoms: O_34  and  C_52
                            x       y       z     vdW  Elec       q    Type
                         _______ _______ _______ _____ _____    ______ ____

>  <TORSDO>
F 17

$$$$
=
 OpenBabel11072412483D

 52 57  0  0  1  0  0  0  0  0999 V2000
  159.8120  204.4650  149.3380 O   0  0  0  0  0  1  0  0  0  0  0  0
  160.6970  200.2940  150.1200 N   0  0  0  0  0  2  0  0  0  0  0  0
  161.0480  203.8290  149.5210 C   0  0  1  0  0  0  0  0  0  0  0  0
  161.3610  203.6500  151.0260 C   0  0  2  0  0  3  0  0  0  0  0  0
  160.9740  202.4100  148.9450 C   0  0  0  0  0  2  0  0  0  0  0  0
  161.0070  202.2830  151.3610 N   0  0  0  0  0  2  0  0  0  0  0  0
  160.8170  201.5760  150.1540 C   0  0  0  0  0  0  0  0  0  0  0  0
  160.6430  204.6290  151.9510 C   0  0  0  0  0  2  0  0  0  0  0  0
  161.6290  205.6360  152.5170 C   0  0  0  0  0  2  0  0  0  0  0  0
  161.1010  206.2650  153.7930 C   0  0  0  0  0  2  0  0  0  0  0  0
  160.5990  207.6970  153.5770 C   0  0  2  0  0  3  0  0  0  0  0  0
  160.5550  208.0020  152.2160 O   0  0  0  0  0  1  0  0  0  0  0  0
  161.4230  208.6180  154.2450 O   0  0  0  0  0  0  0  0  0  0  0  0
  160.6140  209.5610  154.9260 C   0  0  2  0  0  3  0  0  0  0  0  0
  159.0240  211.5430  154.2910 C   0  0  1  0  0  0  0  0  0  0  0  0
  158.9170  213.0040  152.1500 C   0  0  0  0  0  3  0  0  0  0  0  0
  156.8060  214.1560  151.8080 C   0  0  0  0  0  3  0  0  0  0  0  0
  160.9660  210.9970  152.8840 O   0  0  0  0  0  1  0  0  0  0  0  0
  160.3760  210.8640  154.1440 C   0  0  2  0  0  0  0  0  0  0  0  0
  157.9790  211.2810  155.3210 C   0  0  0  0  0  0  0  0  0  0  0  0
  156.2930  213.6040  152.9900 C   0  0  0  0  0  3  0  0  0  0  0  0
  160.2710  212.1510  154.9340 C   0  0  0  0  0  2  0  0  0  0  0  0
  158.4000  212.4780  153.3330 C   0  0  0  0  0  0  0  0  0  0  0  0
  156.7270  212.0550  155.0140 C   0  0  2  0  0  3  0  0  0  0  0  0
  157.1100  212.7640  153.7450 C   0  0  0  0  0  0  0  0  0  0  0  0
  156.4990  212.9890  156.0250 O   0  0  0  0  0  1  0  0  0  0  0  0
  158.1050  210.5270  156.2720 O   0  0  0  0  0  0  0  0  0  0  0  0
  158.1180  213.8600  151.3820 C   0  0  0  0  0  0  0  0  0  0  0  0
  158.6450  214.3970  150.2050 O   0  0  0  0  0  0  0  0  0  0  0  0
  157.9180  214.4410  148.9910 C   0  0  0  0  0  1  0  0  0  0  0  0
  162.5730  209.9610  156.3930 C   0  0  0  0  0  2  0  0  0  0  0  0
  161.0700  209.7920  156.3630 C   0  0  0  0  0  3  0  0  0  0  0  0
  161.9510  208.6460  156.8050 C   0  0  0  0  0  2  0  0  0  0  0  0
  162.1260  204.5980  148.8940 N   0  0  0  0  0  2  0  0  0  0  0  0
  162.2620  204.2460  147.4880 C   0  0  0  0  0  2  0  0  0  0  0  0
  161.3740  205.1530  146.6570 C   0  0  0  0  0  2  0  0  0  0  0  0
  163.1800  206.5350  147.2920 C   0  0  0  0  0  1  0  0  0  0  0  0
  161.8110  206.5370  146.8010 N   0  0  0  0  0  0  0  0  0  0  0  0
  160.9370  207.2670  147.7330 C   0  0  0  0  0  2  0  0  0  0  0  0
  162.3140  207.1710  149.7210 N   0  0  0  0  0  2  0  0  0  0  0  0
  161.6610  207.9120  148.8870 C   0  0  0  0  0  0  0  0  0  0  0  0
  161.9730  209.8950  150.1440 O   0  0  0  0  0  0  0  0  0  0  0  0
  161.3580  210.2130  147.9150 N   0  0  0  0  0  2  0  0  0  0  0  0
  161.6760  209.3780  149.0330 C   0  0  0  0  0  0  0  0  0  0  0  0
  162.7080  212.2720  148.1140 C   0  0  1  0  0  3  0  0  0  0  0  0
  161.4960  214.4530  147.4430 C   0  0  0  0  0  3  0  0  0  0  0  0
  163.6320  211.7740  147.0110 C   0  0  0  0  0  1  0  0  0  0  0  0
  162.6350  213.7750  148.0810 C   0  0  0  0  0  0  0  0  0  0  0  0
  163.5590  214.4520  148.5980 O   0  0  0  0  0  0  0  0  0  0  0  0
  160.5430  212.2540  146.8130 C   0  0  0  0  0  2  0  0  0  0  0  0
  160.5060  213.7530  146.8800 C   0  0  0  0  0  3  0  0  0  0  0  0
  161.2980  211.6680  148.0100 C   0  0  1  0  0  3  0  0  0  0  0  0
  2  7  2  0  0  0  0
  3  1  1  6  0  0  0
  3  4  1  0  0  0  0
  4  6  1  0  0  0  0
  4  8  1  1  0  0  0
  5  3  1  0  0  0  0
  5  7  1  0  0  0  0
  7  6  1  0  0  0  0
  8  9  1  0  0  0  0
  9 10  1  0  0  0  0
 11 12  1  6  0  0  0
 11 10  1  0  0  0  0
 11 13  1  0  0  0  0
 14 13  1  6  0  0  0
 14 32  1  0  0  0  0
 15 22  1  1  0  0  0
 15 20  1  0  0  0  0
 16 23  1  0  0  0  0
 17 21  2  0  0  0  0
 19 18  1  6  0  0  0
 19 15  1  0  0  0  0
 19 14  1  0  0  0  0
 19 22  1  0  0  0  0
 20 27  2  0  0  0  0
 21 25  1  0  0  0  0
 23 25  2  0  0  0  0
 23 15  1  0  0  0  0
 24 20  1  0  0  0  0
 24 26  1  1  0  0  0
 25 24  1  0  0  0  0
 28 17  1  0  0  0  0
 28 16  2  0  0  0  0
 29 28  1  0  0  0  0
 30 29  1  0  0  0  0
 31 33  1  0  0  0  0
 32 31  1  0  0  0  0
 32 33  1  0  0  0  0
 34  3  1  0  0  0  0
 35 34  1  0  0  0  0
 36 38  1  0  0  0  0
 36 35  1  0  0  0  0
 38 37  1  0  0  0  0
 38 39  1  0  0  0  0
 39 41  1  0  0  0  0
 41 44  1  0  0  0  0
 41 40  2  0  0  0  0
 43 44  1  0  0  0  0
 44 42  2  0  0  0  0
 45 47  1  6  0  0  0
 46 48  1  0  0  0  0
 48 45  1  0  0  0  0
 48 49  2  0  0  0  0
 50 51  1  0  0  0  0
 50 52  1  0  0  0  0
 51 46  2  0  0  0  0
 52 43  1  6  0  0  0
 52 45  1  0  0  0  0
M  END
>  <MODEL>
9

>  <REMARK>
 VINA RESULT:      -2.7      3.048      7.907
  Name = 
  17 active torsions:
  status: ('A' for Active; 'I' for Inactive)
    1  A    between atoms: C_1  and  C_5
    2  A    between atoms: C_1  and  N_26
    3  A    between atoms: C_3  and  C_24
    4  A    between atoms: C_3  and  O_51
    5  A    between atoms: C_5  and  C_31
    6  A    between atoms: C_13  and  C_17
    7  A    between atoms: C_13  and  C_18
    8  A    between atoms: C_13  and  O_51
    9  A    between atoms: C_15  and  N_22
   10  A    between atoms: C_15  and  C_27
   11  A    between atoms: C_16  and  N_22
   12  A    between atoms: C_23  and  C_35
   13  A    between atoms: C_24  and  C_28
   14  A    between atoms: N_25  and  C_50
   15  A    between atoms: N_26  and  C_27
   16  A    between atoms: C_28  and  C_35
   17  A    between atoms: O_34  and  C_52
                            x       y       z     vdW  Elec       q    Type
                         _______ _______ _______ _____ _____    ______ ____

>  <TORSDO>
F 17

$$$$
