=
 OpenBabel11072414403D

 26 29  0  0  1  0  0  0  0  0999 V2000
  160.7340  210.8660  156.3650 C   0  0  0  0  0  0  0  0  0  0  0  0
  159.9670  208.3520  156.3400 C   0  0  2  0  0  3  0  0  0  0  0  0
  157.4990  210.8970  154.5000 C   0  0  0  0  0  2  0  0  0  0  0  0
  160.4280  208.2550  153.8310 C   0  0  0  0  0  0  0  0  0  0  0  0
  162.1360  210.7670  156.6650 N   0  0  0  0  0  2  0  0  0  0  0  0
  158.2750  211.8190  153.5730 C   0  0  2  0  0  3  0  0  0  0  0  0
  160.4530  209.5250  154.2320 C   0  0  0  0  0  0  0  0  0  0  0  0
  157.6940  211.4050  155.9200 C   0  0  0  0  0  2  0  0  0  0  0  0
  162.4020  208.3840  156.6130 N   0  0  0  0  0  2  0  0  0  0  0  0
  160.5800  210.6840  153.2900 C   0  0  0  0  0  2  0  0  0  0  0  0
  158.8020  212.4440  155.8650 C   0  0  2  0  0  3  0  0  0  0  0  0
  159.2350  211.0500  152.6540 C   0  0  0  0  0  2  0  0  0  0  0  0
  158.9840  212.8600  154.4200 C   0  0  0  0  0  2  0  0  0  0  0  0
  160.1200  212.0720  156.5110 C   0  0  0  0  0  0  0  0  0  0  0  0
  162.8080  209.6160  157.2580 C   0  0  0  0  0  2  0  0  0  0  0  0
  160.0400  209.7240  155.6490 C   0  0  2  0  0  3  0  0  0  0  0  0
  161.1470  208.0110  157.2410 C   0  0  0  0  0  2  0  0  0  0  0  0
  159.8210  207.0870  155.0340 S   0  0  0  0  0  0  0  0  0  0  0  0
  160.7080  207.8280  152.4910 N   0  0  0  0  0  2  0  0  0  0  0  0
  162.2000  206.0990  152.9990 O   0  0  0  0  0  0  0  0  0  0  0  0
  161.6820  206.8430  152.1240 C   0  0  0  0  0  0  0  0  0  0  0  0
  162.0430  206.6740  150.7130 C   0  0  0  0  0  0  0  0  0  0  0  0
  161.5570  205.5890  149.9940 O   0  0  0  0  0  0  0  0  0  0  0  0
  162.7930  207.5100  150.1450 O   0  0  0  0  0  1  0  0  0  0  0  0
  160.2250  214.4530  157.2610 C   0  0  0  0  0  1  0  0  0  0  0  0
  160.7240  213.1220  157.2210 O   0  0  0  0  0  0  0  0  0  0  0  0
  1 14  2  0  0  0  0
  1  5  1  0  0  0  0
  2 17  1  6  0  0  0
  3  8  1  0  0  0  0
  4  7  2  0  0  0  0
  4 18  1  0  0  0  0
  5 15  1  0  0  0  0
  6 12  1  1  0  0  0
  6 13  1  0  0  0  0
  6  3  1  0  0  0  0
  9 17  1  0  0  0  0
  9 15  1  0  0  0  0
 10  7  1  0  0  0  0
 11 13  1  6  0  0  0
 11  8  1  0  0  0  0
 11 14  1  0  0  0  0
 12 10  1  0  0  0  0
 14 26  1  0  0  0  0
 16  7  1  6  0  0  0
 16  2  1  0  0  0  0
 16  1  1  0  0  0  0
 18  2  1  0  0  0  0
 19  4  1  0  0  0  0
 21 19  1  0  0  0  0
 21 20  2  0  0  0  0
 22 21  1  0  0  0  0
 23 22  2  0  0  0  0
 24 22  1  0  0  0  0
 26 25  1  0  0  0  0
M  END
>  <MODEL>
1

>  <REMARK>
 VINA RESULT:      -4.8      0.000      0.000
  Name = 
  3 active torsions:
  status: ('A' for Active; 'I' for Inactive)
    1  A    between atoms: C_1  and  C_25
    2  A    between atoms: C_5  and  N_15
    3  A    between atoms: O_17  and  C_20
                            x       y       z     vdW  Elec       q    Type
                         _______ _______ _______ _____ _____    ______ ____

>  <TORSDO>
F 3

$$$$
=
 OpenBabel11072414403D

 26 29  0  0  1  0  0  0  0  0999 V2000
  159.4380  210.7440  154.9190 C   0  0  0  0  0  0  0  0  0  0  0  0
  161.3630  211.0670  153.1600 C   0  0  2  0  0  3  0  0  0  0  0  0
  162.3300  208.8620  156.3460 C   0  0  0  0  0  2  0  0  0  0  0  0
  161.1720  208.6010  152.5260 C   0  0  0  0  0  0  0  0  0  0  0  0
  158.2600  211.0680  154.1640 N   0  0  0  0  0  2  0  0  0  0  0  0
  161.2560  207.8210  156.6240 C   0  0  2  0  0  3  0  0  0  0  0  0
  160.4880  208.8190  153.6470 C   0  0  0  0  0  0  0  0  0  0  0  0
  161.8170  210.1980  156.8620 C   0  0  0  0  0  2  0  0  0  0  0  0
  159.2290  211.3560  151.9890 N   0  0  0  0  0  2  0  0  0  0  0  0
  159.8560  207.7240  154.4530 C   0  0  0  0  0  2  0  0  0  0  0  0
  160.3440  210.0080  157.1800 C   0  0  2  0  0  3  0  0  0  0  0  0
  160.8730  207.0290  155.3650 C   0  0  0  0  0  2  0  0  0  0  0  0
  160.0690  208.5200  157.2610 C   0  0  0  0  0  2  0  0  0  0  0  0
  159.3530  210.7130  156.2770 C   0  0  0  0  0  0  0  0  0  0  0  0
  158.2200  211.8250  152.9170 C   0  0  0  0  0  2  0  0  0  0  0  0
  160.6560  210.1890  154.2050 C   0  0  2  0  0  3  0  0  0  0  0  0
  160.4590  212.0180  152.3860 C   0  0  0  0  0  2  0  0  0  0  0  0
  162.2070  209.9510  151.9880 S   0  0  0  0  0  0  0  0  0  0  0  0
  161.2310  207.3370  151.8500 N   0  0  0  0  0  2  0  0  0  0  0  0
  161.2440  208.1380  149.6520 O   0  0  0  0  0  0  0  0  0  0  0  0
  161.1390  207.1540  150.4320 C   0  0  0  0  0  0  0  0  0  0  0  0
  160.9650  205.8040  149.8870 C   0  0  0  0  0  0  0  0  0  0  0  0
  161.1900  204.6930  150.6900 O   0  0  0  0  0  1  0  0  0  0  0  0
  160.6100  205.6430  148.6900 O   0  0  0  0  0  0  0  0  0  0  0  0
  158.1260  212.6550  157.2600 C   0  0  0  0  0  1  0  0  0  0  0  0
  158.2600  211.2720  156.9580 O   0  0  0  0  0  0  0  0  0  0  0  0
  1 14  2  0  0  0  0
  2 17  1  6  0  0  0
  2 16  1  0  0  0  0
  3  6  1  0  0  0  0
  3  8  1  0  0  0  0
  4  7  2  0  0  0  0
  5  1  1  0  0  0  0
  6 12  1  6  0  0  0
  6 13  1  0  0  0  0
  7 10  1  0  0  0  0
  9 17  1  0  0  0  0
  9 15  1  0  0  0  0
 10 12  1  0  0  0  0
 11  8  1  6  0  0  0
 11 13  1  0  0  0  0
 14 26  1  0  0  0  0
 14 11  1  0  0  0  0
 15  5  1  0  0  0  0
 16  7  1  6  0  0  0
 16  1  1  0  0  0  0
 18  4  1  0  0  0  0
 18  2  1  0  0  0  0
 19  4  1  0  0  0  0
 20 21  2  0  0  0  0
 21 19  1  0  0  0  0
 22 21  1  0  0  0  0
 22 23  1  0  0  0  0
 24 22  2  0  0  0  0
 26 25  1  0  0  0  0
M  END
>  <MODEL>
2

>  <REMARK>
 VINA RESULT:      -4.4      2.245      3.984
  Name = 
  3 active torsions:
  status: ('A' for Active; 'I' for Inactive)
    1  A    between atoms: C_1  and  C_25
    2  A    between atoms: C_5  and  N_15
    3  A    between atoms: O_17  and  C_20
                            x       y       z     vdW  Elec       q    Type
                         _______ _______ _______ _____ _____    ______ ____

>  <TORSDO>
F 3

$$$$
=
 OpenBabel11072414403D

 26 29  0  0  1  0  0  0  0  0999 V2000
  161.0230  207.8540  152.4480 C   0  0  0  0  0  0  0  0  0  0  0  0
  162.7940  208.5840  150.6490 C   0  0  2  0  0  3  0  0  0  0  0  0
  162.6770  204.6670  151.4220 C   0  0  0  0  0  2  0  0  0  0  0  0
  161.4000  207.4440  148.8400 C   0  0  0  0  0  0  0  0  0  0  0  0
  160.1260  208.9760  152.4850 N   0  0  0  0  0  2  0  0  0  0  0  0
  161.2430  204.1620  151.4110 C   0  0  2  0  0  3  0  0  0  0  0  0
  160.9510  207.0720  150.0370 C   0  0  0  0  0  0  0  0  0  0  0  0
  162.9020  205.3820  152.7460 C   0  0  0  0  0  2  0  0  0  0  0  0
  161.0320  210.2870  150.6920 N   0  0  0  0  0  2  0  0  0  0  0  0
  159.8950  206.0270  150.2340 C   0  0  0  0  0  2  0  0  0  0  0  0
  161.5360  205.5470  153.3910 C   0  0  2  0  0  3  0  0  0  0  0  0
  160.4750  204.6110  150.1590 C   0  0  0  0  0  2  0  0  0  0  0  0
  160.5730  204.6040  152.7000 C   0  0  0  0  0  2  0  0  0  0  0  0
  160.9840  206.9550  153.4690 C   0  0  0  0  0  0  0  0  0  0  0  0
  160.4150  210.3220  152.0030 C   0  0  0  0  0  2  0  0  0  0  0  0
  161.7870  207.5480  151.1740 C   0  0  2  0  0  3  0  0  0  0  0  0
  162.4420  210.0390  150.9330 C   0  0  0  0  0  2  0  0  0  0  0  0
  162.9410  208.3410  148.8470 S   0  0  0  0  0  0  0  0  0  0  0  0
  160.8080  207.0400  147.5970 N   0  0  0  0  0  2  0  0  0  0  0  0
  162.2080  205.2220  147.1400 O   0  0  0  0  0  0  0  0  0  0  0  0
  161.3180  206.0160  146.7340 C   0  0  0  0  0  0  0  0  0  0  0  0
  160.7670  205.8680  145.3840 C   0  0  0  0  0  0  0  0  0  0  0  0
  161.6040  205.5570  144.3190 O   0  0  0  0  0  0  0  0  0  0  0  0
  159.5330  206.0180  145.1810 O   0  0  0  0  0  1  0  0  0  0  0  0
  160.9660  207.7960  155.8220 C   0  0  0  0  0  1  0  0  0  0  0  0
  160.3290  207.2440  154.6780 O   0  0  0  0  0  0  0  0  0  0  0  0
  1  5  1  0  0  0  0
  1 14  2  0  0  0  0
  2 17  1  6  0  0  0
  2 16  1  0  0  0  0
  3  8  1  0  0  0  0
  4 18  1  0  0  0  0
  4  7  2  0  0  0  0
  6 12  1  6  0  0  0
  6  3  1  0  0  0  0
  6 13  1  0  0  0  0
  7 10  1  0  0  0  0
  8 11  1  0  0  0  0
  9 17  1  0  0  0  0
  9 15  1  0  0  0  0
 11 13  1  6  0  0  0
 11 14  1  0  0  0  0
 12 10  1  0  0  0  0
 14 26  1  0  0  0  0
 15  5  1  0  0  0  0
 16  7  1  6  0  0  0
 16  1  1  0  0  0  0
 18  2  1  0  0  0  0
 19  4  1  0  0  0  0
 21 20  2  0  0  0  0
 21 19  1  0  0  0  0
 22 21  1  0  0  0  0
 23 22  2  0  0  0  0
 24 22  1  0  0  0  0
 26 25  1  0  0  0  0
M  END
>  <MODEL>
3

>  <REMARK>
 VINA RESULT:      -4.2      3.724      6.469
  Name = 
  3 active torsions:
  status: ('A' for Active; 'I' for Inactive)
    1  A    between atoms: C_1  and  C_25
    2  A    between atoms: C_5  and  N_15
    3  A    between atoms: O_17  and  C_20
                            x       y       z     vdW  Elec       q    Type
                         _______ _______ _______ _____ _____    ______ ____

>  <TORSDO>
F 3

$$$$
=
 OpenBabel11072414403D

 26 29  0  0  1  0  0  0  0  0999 V2000
  160.6230  202.7410  147.4340 C   0  0  0  0  0  0  0  0  0  0  0  0
  161.9570  202.5850  149.6930 C   0  0  2  0  0  3  0  0  0  0  0  0
  163.2710  205.3570  147.1350 C   0  0  0  0  0  2  0  0  0  0  0  0
  161.0030  204.8470  150.3920 C   0  0  0  0  0  0  0  0  0  0  0  0
  159.3860  202.0800  147.7490 N   0  0  0  0  0  2  0  0  0  0  0  0
  162.1120  206.1810  146.5970 C   0  0  2  0  0  3  0  0  0  0  0  0
  160.7560  204.6490  149.0990 C   0  0  0  0  0  0  0  0  0  0  0  0
  163.2690  204.0270  146.3970 C   0  0  0  0  0  2  0  0  0  0  0  0
  159.7050  201.7040  150.0960 N   0  0  0  0  0  2  0  0  0  0  0  0
  160.1490  205.6890  148.2060 C   0  0  0  0  0  2  0  0  0  0  0  0
  161.9560  203.9510  145.6360 C   0  0  2  0  0  3  0  0  0  0  0  0
  161.1940  206.6970  147.7150 C   0  0  0  0  0  2  0  0  0  0  0  0
  161.3710  205.3470  145.5690 C   0  0  0  0  0  2  0  0  0  0  0  0
  160.9400  202.9400  146.1250 C   0  0  0  0  0  0  0  0  0  0  0  0
  159.1600  201.1680  148.8650 C   0  0  0  0  0  2  0  0  0  0  0  0
  161.4040  203.4320  148.5350 C   0  0  2  0  0  3  0  0  0  0  0  0
  161.1190  201.3700  150.0720 C   0  0  0  0  0  2  0  0  0  0  0  0
  162.1220  203.6790  151.1430 S   0  0  0  0  0  0  0  0  0  0  0  0
  160.5540  205.9910  151.1310 N   0  0  0  0  0  2  0  0  0  0  0  0
  162.4860  207.2950  150.9280 O   0  0  0  0  0  0  0  0  0  0  0  0
  161.3640  207.1220  151.4750 C   0  0  0  0  0  0  0  0  0  0  0  0
  160.8610  208.1070  152.4380 C   0  0  0  0  0  0  0  0  0  0  0  0
  160.8300  207.8030  153.7930 O   0  0  0  0  0  1  0  0  0  0  0  0
  160.4560  209.2320  152.0440 O   0  0  0  0  0  0  0  0  0  0  0  0
  160.1210  200.8530  145.0220 C   0  0  0  0  0  1  0  0  0  0  0  0
  160.2660  202.2650  145.0950 O   0  0  0  0  0  0  0  0  0  0  0  0
  1  5  1  0  0  0  0
  2 17  1  1  0  0  0
  2 18  1  0  0  0  0
  4 19  1  0  0  0  0
  4 18  1  0  0  0  0
  5 15  1  0  0  0  0
  6 13  1  6  0  0  0
  6  3  1  0  0  0  0
  6 12  1  0  0  0  0
  7  4  2  0  0  0  0
  8  3  1  0  0  0  0
 10  7  1  0  0  0  0
 11 13  1  1  0  0  0
 11 14  1  0  0  0  0
 11  8  1  0  0  0  0
 12 10  1  0  0  0  0
 14  1  2  0  0  0  0
 15  9  1  0  0  0  0
 16  1  1  1  0  0  0
 16  7  1  0  0  0  0
 16  2  1  0  0  0  0
 17  9  1  0  0  0  0
 19 21  1  0  0  0  0
 20 21  2  0  0  0  0
 21 22  1  0  0  0  0
 22 23  1  0  0  0  0
 24 22  2  0  0  0  0
 25 26  1  0  0  0  0
 26 14  1  0  0  0  0
M  END
>  <MODEL>
4

>  <REMARK>
 VINA RESULT:      -3.9      4.769      9.980
  Name = 
  3 active torsions:
  status: ('A' for Active; 'I' for Inactive)
    1  A    between atoms: C_1  and  C_25
    2  A    between atoms: C_5  and  N_15
    3  A    between atoms: O_17  and  C_20
                            x       y       z     vdW  Elec       q    Type
                         _______ _______ _______ _____ _____    ______ ____

>  <TORSDO>
F 3

$$$$
=
 OpenBabel11072414403D

 26 29  0  0  1  0  0  0  0  0999 V2000
  160.9320  203.2560  148.8210 C   0  0  0  0  0  0  0  0  0  0  0  0
  162.4710  203.9320  150.8410 C   0  0  2  0  0  3  0  0  0  0  0  0
  163.0480  206.0310  147.4920 C   0  0  0  0  0  2  0  0  0  0  0  0
  161.2060  206.1410  151.0420 C   0  0  0  0  0  0  0  0  0  0  0  0
  159.8630  202.5420  149.4620 N   0  0  0  0  0  2  0  0  0  0  0  0
  161.7200  206.4970  146.9170 C   0  0  2  0  0  3  0  0  0  0  0  0
  160.8820  205.5540  149.8920 C   0  0  0  0  0  0  0  0  0  0  0  0
  163.2100  204.5600  147.1360 C   0  0  0  0  0  2  0  0  0  0  0  0
  160.4530  202.8900  151.7610 N   0  0  0  0  0  2  0  0  0  0  0  0
  160.0260  206.2040  148.8470 C   0  0  0  0  0  2  0  0  0  0  0  0
  161.8670  204.0880  146.6060 C   0  0  2  0  0  3  0  0  0  0  0  0
  160.8310  207.1710  147.9730 C   0  0  0  0  0  2  0  0  0  0  0  0
  161.0450  205.3100  146.2530 C   0  0  0  0  0  2  0  0  0  0  0  0
  161.0910  203.1220  147.4760 C   0  0  0  0  0  0  0  0  0  0  0  0
  159.9000  201.9580  150.7980 C   0  0  0  0  0  2  0  0  0  0  0  0
  161.6770  204.3320  149.5860 C   0  0  2  0  0  3  0  0  0  0  0  0
  161.8940  202.7670  151.6350 C   0  0  0  0  0  2  0  0  0  0  0  0
  162.5740  205.4020  151.9160 S   0  0  0  0  0  0  0  0  0  0  0  0
  160.6350  207.3710  151.5080 N   0  0  0  0  0  2  0  0  0  0  0  0
  162.3340  208.8150  150.7980 O   0  0  0  0  0  0  0  0  0  0  0  0
  161.2840  208.6480  151.4760 C   0  0  0  0  0  0  0  0  0  0  0  0
  160.6960  209.7770  152.2020 C   0  0  0  0  0  0  0  0  0  0  0  0
  160.8110  211.0660  151.6980 O   0  0  0  0  0  0  0  0  0  0  0  0
  160.0810  209.5860  153.2850 O   0  0  0  0  0  1  0  0  0  0  0  0
  160.4570  201.9860  145.3420 C   0  0  0  0  0  1  0  0  0  0  0  0
  160.4530  202.0960  146.7590 O   0  0  0  0  0  0  0  0  0  0  0  0
  1  5  1  0  0  0  0
  2 17  1  1  0  0  0
  2 18  1  0  0  0  0
  4 19  1  0  0  0  0
  4 18  1  0  0  0  0
  5 15  1  0  0  0  0
  6 13  1  1  0  0  0
  6  3  1  0  0  0  0
  6 12  1  0  0  0  0
  7  4  2  0  0  0  0
  8  3  1  0  0  0  0
 10  7  1  0  0  0  0
 11 13  1  1  0  0  0
 11  8  1  0  0  0  0
 11 14  1  0  0  0  0
 12 10  1  0  0  0  0
 14  1  2  0  0  0  0
 15  9  1  0  0  0  0
 16  1  1  1  0  0  0
 16  7  1  0  0  0  0
 16  2  1  0  0  0  0
 17  9  1  0  0  0  0
 20 21  2  0  0  0  0
 21 19  1  0  0  0  0
 21 22  1  0  0  0  0
 22 24  1  0  0  0  0
 23 22  2  0  0  0  0
 25 26  1  0  0  0  0
 26 14  1  0  0  0  0
M  END
>  <MODEL>
5

>  <REMARK>
 VINA RESULT:      -3.8      4.121      9.094
  Name = 
  3 active torsions:
  status: ('A' for Active; 'I' for Inactive)
    1  A    between atoms: C_1  and  C_25
    2  A    between atoms: C_5  and  N_15
    3  A    between atoms: O_17  and  C_20
                            x       y       z     vdW  Elec       q    Type
                         _______ _______ _______ _____ _____    ______ ____

>  <TORSDO>
F 3

$$$$
=
 OpenBabel11072414403D

 26 29  0  0  1  0  0  0  0  0999 V2000
  157.4280  213.6080  154.4370 C   0  0  0  0  0  0  0  0  0  0  0  0
  159.3370  213.7560  152.6370 C   0  0  2  0  0  3  0  0  0  0  0  0
  160.5160  212.5730  156.2650 C   0  0  0  0  0  2  0  0  0  0  0  0
  159.5120  211.2090  152.6400 C   0  0  0  0  0  0  0  0  0  0  0  0
  156.2370  213.5620  153.6350 N   0  0  0  0  0  2  0  0  0  0  0  0
  159.5920  211.4920  156.8020 C   0  0  2  0  0  3  0  0  0  0  0  0
  158.7740  211.5980  153.6770 C   0  0  0  0  0  0  0  0  0  0  0  0
  159.8060  213.9080  156.4340 C   0  0  0  0  0  2  0  0  0  0  0  0
  157.2160  213.4370  151.4490 N   0  0  0  0  0  2  0  0  0  0  0  0
  158.2800  210.6590  154.7360 C   0  0  0  0  0  2  0  0  0  0  0  0
  158.3660  213.5940  156.8030 C   0  0  2  0  0  3  0  0  0  0  0  0
  159.3590  210.3650  155.7840 C   0  0  0  0  0  2  0  0  0  0  0  0
  158.3010  212.1500  157.2550 C   0  0  0  0  0  2  0  0  0  0  0  0
  157.3110  213.9030  155.7610 C   0  0  0  0  0  0  0  0  0  0  0  0
  156.1260  213.9720  152.2390 C   0  0  0  0  0  2  0  0  0  0  0  0
  158.7310  213.0740  153.8740 C   0  0  2  0  0  3  0  0  0  0  0  0
  158.3290  214.3460  151.6570 C   0  0  0  0  0  2  0  0  0  0  0  0
  160.3610  212.5170  151.7740 S   0  0  0  0  0  0  0  0  0  0  0  0
  159.7660  209.8390  152.3010 N   0  0  0  0  0  2  0  0  0  0  0  0
  162.1020  209.9500  152.2080 O   0  0  0  0  0  0  0  0  0  0  0  0
  161.0510  209.2930  151.9770 C   0  0  0  0  0  0  0  0  0  0  0  0
  161.1420  207.9440  151.4120 C   0  0  0  0  0  0  0  0  0  0  0  0
  161.3560  207.7710  150.0500 O   0  0  0  0  0  0  0  0  0  0  0  0
  161.0290  206.9340  152.1560 O   0  0  0  0  0  1  0  0  0  0  0  0
  155.1300  213.7010  156.9650 C   0  0  0  0  0  1  0  0  0  0  0  0
  156.1310  214.4520  156.2900 O   0  0  0  0  0  0  0  0  0  0  0  0
  1 14  2  0  0  0  0
  2 17  1  6  0  0  0
  2 16  1  0  0  0  0
  3  8  1  0  0  0  0
  3  6  1  0  0  0  0
  4  7  2  0  0  0  0
  5  1  1  0  0  0  0
  6 12  1  6  0  0  0
  6 13  1  0  0  0  0
  7 10  1  0  0  0  0
  9 17  1  0  0  0  0
  9 15  1  0  0  0  0
 10 12  1  0  0  0  0
 11  8  1  6  0  0  0
 11 13  1  0  0  0  0
 14 26  1  0  0  0  0
 14 11  1  0  0  0  0
 15  5  1  0  0  0  0
 16  7  1  6  0  0  0
 16  1  1  0  0  0  0
 18  2  1  0  0  0  0
 18  4  1  0  0  0  0
 19  4  1  0  0  0  0
 21 20  2  0  0  0  0
 21 19  1  0  0  0  0
 22 21  1  0  0  0  0
 22 24  1  0  0  0  0
 23 22  2  0  0  0  0
 26 25  1  0  0  0  0
M  END
>  <MODEL>
6

>  <REMARK>
 VINA RESULT:      -3.4      3.051      4.847
  Name = 
  3 active torsions:
  status: ('A' for Active; 'I' for Inactive)
    1  A    between atoms: C_1  and  C_25
    2  A    between atoms: C_5  and  N_15
    3  A    between atoms: O_17  and  C_20
                            x       y       z     vdW  Elec       q    Type
                         _______ _______ _______ _____ _____    ______ ____

>  <TORSDO>
F 3

$$$$
=
 OpenBabel11072414403D

 26 29  0  0  1  0  0  0  0  0999 V2000
  158.9380  210.3150  155.6190 C   0  0  0  0  0  0  0  0  0  0  0  0
  159.2520  212.9190  155.7830 C   0  0  2  0  0  3  0  0  0  0  0  0
  162.3080  210.9430  154.1370 C   0  0  0  0  0  2  0  0  0  0  0  0
  159.0490  213.0850  153.2440 C   0  0  0  0  0  0  0  0  0  0  0  0
  157.5170  210.1570  155.7600 N   0  0  0  0  0  2  0  0  0  0  0  0
  161.8080  209.9590  153.0910 C   0  0  2  0  0  3  0  0  0  0  0  0
  159.2050  211.8090  153.5880 C   0  0  0  0  0  0  0  0  0  0  0  0
  162.0550  210.3260  155.5050 C   0  0  0  0  0  2  0  0  0  0  0  0
  156.8440  212.4590  155.7730 N   0  0  0  0  0  2  0  0  0  0  0  0
  159.3830  210.7020  152.5920 C   0  0  0  0  0  2  0  0  0  0  0  0
  161.1580  209.1200  155.2810 C   0  0  2  0  0  3  0  0  0  0  0  0
  160.8310  210.6080  152.1000 C   0  0  0  0  0  2  0  0  0  0  0  0
  161.2070  208.7650  153.8100 C   0  0  0  0  0  2  0  0  0  0  0  0
  159.7350  209.2240  155.7860 C   0  0  0  0  0  0  0  0  0  0  0  0
  156.5950  211.1400  156.3180 C   0  0  0  0  0  2  0  0  0  0  0  0
  159.4940  211.5990  155.0330 C   0  0  2  0  0  3  0  0  0  0  0  0
  157.9410  213.0010  156.5560 C   0  0  0  0  0  2  0  0  0  0  0  0
  159.3120  214.2660  154.5550 S   0  0  0  0  0  0  0  0  0  0  0  0
  158.8430  213.5380  151.8980 N   0  0  0  0  0  2  0  0  0  0  0  0
  156.5750  214.0840  152.0770 O   0  0  0  0  0  0  0  0  0  0  0  0
  157.5780  213.9040  151.3340 C   0  0  0  0  0  0  0  0  0  0  0  0
  157.4640  214.1120  149.8880 C   0  0  0  0  0  0  0  0  0  0  0  0
  156.2350  213.9630  149.2570 O   0  0  0  0  0  1  0  0  0  0  0  0
  158.4760  214.4300  149.2100 O   0  0  0  0  0  0  0  0  0  0  0  0
  160.0800  207.0060  156.8850 C   0  0  0  0  0  1  0  0  0  0  0  0
  159.2520  208.0460  156.3790 O   0  0  0  0  0  0  0  0  0  0  0  0
  1  5  1  0  0  0  0
  1 14  2  0  0  0  0
  2 17  1  6  0  0  0
  3  8  1  0  0  0  0
  4  7  2  0  0  0  0
  4 18  1  0  0  0  0
  5 15  1  0  0  0  0
  6 12  1  1  0  0  0
  6 13  1  0  0  0  0
  6  3  1  0  0  0  0
  9 15  1  0  0  0  0
  9 17  1  0  0  0  0
 10  7  1  0  0  0  0
 11 13  1  6  0  0  0
 11  8  1  0  0  0  0
 11 14  1  0  0  0  0
 12 10  1  0  0  0  0
 14 26  1  0  0  0  0
 16  7  1  6  0  0  0
 16  1  1  0  0  0  0
 16  2  1  0  0  0  0
 18  2  1  0  0  0  0
 19  4  1  0  0  0  0
 21 19  1  0  0  0  0
 21 20  2  0  0  0  0
 22 21  1  0  0  0  0
 23 22  1  0  0  0  0
 24 22  2  0  0  0  0
 26 25  1  0  0  0  0
M  END
>  <MODEL>
7

>  <REMARK>
 VINA RESULT:      -3.3      4.003      5.894
  Name = 
  3 active torsions:
  status: ('A' for Active; 'I' for Inactive)
    1  A    between atoms: C_1  and  C_25
    2  A    between atoms: C_5  and  N_15
    3  A    between atoms: O_17  and  C_20
                            x       y       z     vdW  Elec       q    Type
                         _______ _______ _______ _____ _____    ______ ____

>  <TORSDO>
F 3

$$$$
=
 OpenBabel11072414403D

 26 29  0  0  1  0  0  0  0  0999 V2000
  160.8540  207.9490  154.3410 C   0  0  0  0  0  0  0  0  0  0  0  0
  162.0240  209.5600  156.0560 C   0  0  2  0  0  3  0  0  0  0  0  0
  162.2860  210.6760  152.2300 C   0  0  0  0  0  2  0  0  0  0  0  0
  160.2300  211.3190  155.6020 C   0  0  0  0  0  0  0  0  0  0  0  0
  159.9570  207.1960  155.1740 N   0  0  0  0  0  2  0  0  0  0  0  0
  160.9270  210.5900  151.5530 C   0  0  2  0  0  3  0  0  0  0  0  0
  160.1470  210.3610  154.6810 C   0  0  0  0  0  0  0  0  0  0  0  0
  162.8400  209.2630  152.3270 C   0  0  0  0  0  2  0  0  0  0  0  0
  160.2750  208.3360  157.2610 N   0  0  0  0  0  2  0  0  0  0  0  0
  159.2310  210.4330  153.4970 C   0  0  0  0  0  2  0  0  0  0  0  0
  161.7010  208.3210  151.9710 C   0  0  2  0  0  3  0  0  0  0  0  0
  159.8240  211.2820  152.3680 C   0  0  0  0  0  2  0  0  0  0  0  0
  160.6240  209.1290  151.2780 C   0  0  0  0  0  2  0  0  0  0  0  0
  161.1350  207.4790  153.0960 C   0  0  0  0  0  0  0  0  0  0  0  0
  160.0460  207.0550  156.6230 C   0  0  0  0  0  2  0  0  0  0  0  0
  161.2460  209.3570  154.7460 C   0  0  2  0  0  3  0  0  0  0  0  0
  161.7060  208.5660  157.1660 C   0  0  0  0  0  2  0  0  0  0  0  0
  161.6750  211.2510  156.6450 S   0  0  0  0  0  0  0  0  0  0  0  0
  159.3340  212.4360  155.6860 N   0  0  0  0  0  2  0  0  0  0  0  0
  157.7840  211.5050  157.1710 O   0  0  0  0  0  0  0  0  0  0  0  0
  158.0770  212.4360  156.3740 C   0  0  0  0  0  0  0  0  0  0  0  0
  157.1470  213.5520  156.1800 C   0  0  0  0  0  0  0  0  0  0  0  0
  157.0310  214.1550  154.9340 O   0  0  0  0  0  0  0  0  0  0  0  0
  156.4460  213.9690  157.1390 O   0  0  0  0  0  1  0  0  0  0  0  0
  161.6130  205.3800  151.8270 C   0  0  0  0  0  1  0  0  0  0  0  0
  160.8310  206.1600  152.7220 O   0  0  0  0  0  0  0  0  0  0  0  0
  1  5  1  0  0  0  0
  2 18  1  0  0  0  0
  2 17  1  1  0  0  0
  3  8  1  0  0  0  0
  4 19  1  0  0  0  0
  4 18  1  0  0  0  0
  5 15  1  0  0  0  0
  6 13  1  1  0  0  0
  6  3  1  0  0  0  0
  6 12  1  0  0  0  0
  7 16  1  0  0  0  0
  7  4  2  0  0  0  0
 10  7  1  0  0  0  0
 11 13  1  1  0  0  0
 11  8  1  0  0  0  0
 11 14  1  0  0  0  0
 12 10  1  0  0  0  0
 14  1  2  0  0  0  0
 15  9  1  0  0  0  0
 16  1  1  1  0  0  0
 16  2  1  0  0  0  0
 17  9  1  0  0  0  0
 19 21  1  0  0  0  0
 21 20  2  0  0  0  0
 22 21  1  0  0  0  0
 22 24  1  0  0  0  0
 23 22  2  0  0  0  0
 25 26  1  0  0  0  0
 26 14  1  0  0  0  0
M  END
>  <MODEL>
8

>  <REMARK>
 VINA RESULT:      -3.2      2.334      6.140
  Name = 
  3 active torsions:
  status: ('A' for Active; 'I' for Inactive)
    1  A    between atoms: C_1  and  C_25
    2  A    between atoms: C_5  and  N_15
    3  A    between atoms: O_17  and  C_20
                            x       y       z     vdW  Elec       q    Type
                         _______ _______ _______ _____ _____    ______ ____

>  <TORSDO>
F 3

$$$$
