=
 OpenBabel11072413153D

 34 38  0  0  1  0  0  0  0  0999 V2000
  161.8230  208.7320  148.6380 N   0  0  0  0  0  0  0  0  0  0  0  0
  162.0290  210.0310  148.9870 C   0  0  0  0  0  3  0  0  0  0  0  0
  161.3620  207.1060  151.8990 C   0  0  0  0  0  3  0  0  0  0  0  0
  161.1730  205.4460  150.1340 C   0  0  0  0  0  0  0  0  0  0  0  0
  161.5890  208.1090  150.9470 C   0  0  0  0  0  0  0  0  0  0  0  0
  161.7990  209.4450  151.3250 C   0  0  0  0  0  0  0  0  0  0  0  0
  161.6050  207.7710  149.5740 C   0  0  0  0  0  0  0  0  0  0  0  0
  162.0210  210.4070  150.3310 C   0  0  0  0  0  3  0  0  0  0  0  0
  161.3970  206.4470  149.1770 C   0  0  0  0  0  3  0  0  0  0  0  0
  161.1560  205.7850  151.4930 C   0  0  0  0  0  3  0  0  0  0  0  0
  160.3810  201.8340  149.6510 N   0  0  0  0  0  0  0  0  0  0  0  0
  161.5590  202.6040  151.6270 C   0  0  0  0  0  1  0  0  0  0  0  0
  160.4930  202.9330  150.5980 C   0  0  1  0  0  3  0  0  0  0  0  0
  160.9500  204.0500  149.7090 C   0  0  0  0  0  0  0  0  0  0  0  0
  161.0850  203.6590  148.4870 N   0  0  0  0  0  0  0  0  0  0  0  0
  160.7340  202.2840  148.4930 C   0  0  0  0  0  0  0  0  0  0  0  0
  161.6190  200.2420  147.4270 C   0  0  0  0  0  1  0  0  0  0  0  0
  161.1520  202.2050  146.1630 O   0  0  0  0  0  1  0  0  0  0  0  0
  160.7220  201.4520  147.2550 C   0  0  2  0  0  3  0  0  0  0  0  0
  161.7910  209.8130  152.7110 N   0  0  0  0  0  2  0  0  0  0  0  0
  158.1020  210.9500  155.2380 C   0  0  0  0  0  2  0  0  0  0  0  0
  157.4650  211.7310  156.2240 O   0  0  0  0  0  0  0  0  0  0  0  0
  159.5310  211.4760  154.9670 C   0  0  2  0  0  0  0  0  0  0  0  0
  159.9680  211.1900  153.5340 C   0  0  1  0  0  3  0  0  0  0  0  0
  160.0980  210.3640  157.0570 O   0  0  0  0  0  1  0  0  0  0  0  0
  156.6770  213.8980  156.8000 C   0  0  0  0  0  1  0  0  0  0  0  0
  160.5950  209.8070  153.5400 C   0  0  2  0  0  3  0  0  0  0  0  0
  156.0630  212.8480  154.7760 O   0  0  0  0  0  1  0  0  0  0  0  0
  160.9600  209.5050  154.9890 C   0  0  0  0  0  2  0  0  0  0  0  0
  157.1250  212.9920  155.6710 C   0  0  2  0  0  0  0  0  0  0  0  0
  158.3040  213.6790  154.9530 C   0  0  0  0  0  2  0  0  0  0  0  0
  158.9080  211.2500  152.6240 O   0  0  0  0  0  1  0  0  0  0  0  0
  160.5730  210.7310  155.7940 C   0  0  1  0  0  3  0  0  0  0  0  0
  159.6260  212.9770  155.2570 C   0  0  0  0  0  2  0  0  0  0  0  0
  1  2  2  0  0  0  0
  1  7  1  0  0  0  0
  2  8  1  0  0  0  0
  4 10  2  0  0  0  0
  5  6  1  0  0  0  0
  5  3  2  0  0  0  0
  6 20  1  0  0  0  0
  7  5  1  0  0  0  0
  8  6  2  0  0  0  0
  9  7  2  0  0  0  0
  9  4  1  0  0  0  0
 10  3  1  0  0  0  0
 11 13  1  0  0  0  0
 13 12  1  1  0  0  0
 14  4  1  0  0  0  0
 14 13  1  0  0  0  0
 15 16  1  0  0  0  0
 15 14  2  0  0  0  0
 16 11  2  0  0  0  0
 18 19  1  0  0  0  0
 19 17  1  1  0  0  0
 19 16  1  0  0  0  0
 21 22  1  0  0  0  0
 23 21  1  1  0  0  0
 23 34  1  0  0  0  0
 23 33  1  0  0  0  0
 24 32  1  6  0  0  0
 24 27  1  0  0  0  0
 24 23  1  0  0  0  0
 27 20  1  6  0  0  0
 27 29  1  0  0  0  0
 28 30  1  0  0  0  0
 29 33  1  0  0  0  0
 30 22  1  0  0  0  0
 30 26  1  1  0  0  0
 31 34  1  0  0  0  0
 31 30  1  0  0  0  0
 33 25  1  1  0  0  0
M  END
>  <MODEL>
1

>  <REMARK>
 VINA RESULT:      -9.8      0.000      0.000
  Name = 
  4 active torsions:
  status: ('A' for Active; 'I' for Inactive)
    1  A    between atoms: C_13  and  C_24
    2  A    between atoms: N_14  and  C_16
    3  A    between atoms: N_14  and  C_22
    4  A    between atoms: C_26  and  C_28
                            x       y       z     vdW  Elec       q    Type
                         _______ _______ _______ _____ _____    ______ ____

>  <TORSDO>
F 4

$$$$
=
 OpenBabel11072413153D

 34 38  0  0  1  0  0  0  0  0999 V2000
  162.0110  209.6470  148.6240 N   0  0  0  0  0  0  0  0  0  0  0  0
  162.1180  210.8600  149.2320 C   0  0  0  0  0  3  0  0  0  0  0  0
  161.4910  207.3850  151.4700 C   0  0  0  0  0  3  0  0  0  0  0  0
  161.4940  206.1000  149.4060 C   0  0  0  0  0  0  0  0  0  0  0  0
  161.7020  208.5670  150.7480 C   0  0  0  0  0  0  0  0  0  0  0  0
  161.8090  209.8100  151.3910 C   0  0  0  0  0  0  0  0  0  0  0  0
  161.8070  208.5090  149.3390 C   0  0  0  0  0  0  0  0  0  0  0  0
  162.0210  210.9610  150.6210 C   0  0  0  0  0  3  0  0  0  0  0  0
  161.7020  207.2820  148.6790 C   0  0  0  0  0  3  0  0  0  0  0  0
  161.3880  206.1610  150.8020 C   0  0  0  0  0  3  0  0  0  0  0  0
  161.5480  203.1150  147.1730 N   0  0  0  0  0  0  0  0  0  0  0  0
  161.0030  205.3140  146.3080 C   0  0  0  0  0  1  0  0  0  0  0  0
  161.8410  204.5330  147.3050 C   0  0  1  0  0  3  0  0  0  0  0  0
  161.3800  204.8080  148.7040 C   0  0  0  0  0  0  0  0  0  0  0  0
  160.9030  203.7460  149.2630 N   0  0  0  0  0  0  0  0  0  0  0  0
  161.0150  202.7250  148.2840 C   0  0  0  0  0  0  0  0  0  0  0  0
  160.6040  201.0320  150.0310 C   0  0  0  0  0  1  0  0  0  0  0  0
  161.4700  200.4330  147.8950 O   0  0  0  0  0  1  0  0  0  0  0  0
  160.6030  201.3150  148.5420 C   0  0  2  0  0  3  0  0  0  0  0  0
  161.7100  209.8940  152.8200 N   0  0  0  0  0  2  0  0  0  0  0  0
  157.8630  211.0980  155.0650 C   0  0  0  0  0  2  0  0  0  0  0  0
  157.1750  211.8650  156.0270 O   0  0  0  0  0  0  0  0  0  0  0  0
  159.3320  211.5660  154.9450 C   0  0  2  0  0  0  0  0  0  0  0  0
  159.8830  211.3210  153.5440 C   0  0  1  0  0  3  0  0  0  0  0  0
  159.6620  210.3410  157.0230 O   0  0  0  0  0  1  0  0  0  0  0  0
  156.4340  214.0420  156.6320 C   0  0  0  0  0  1  0  0  0  0  0  0
  160.4450  209.9100  153.5410 C   0  0  2  0  0  3  0  0  0  0  0  0
  155.9580  213.1080  154.5160 O   0  0  0  0  0  1  0  0  0  0  0  0
  160.6660  209.5310  155.0000 C   0  0  0  0  0  2  0  0  0  0  0  0
  156.9410  213.1640  155.5060 C   0  0  2  0  0  0  0  0  0  0  0  0
  158.2080  213.8230  154.9260 C   0  0  0  0  0  2  0  0  0  0  0  0
  158.9120  211.4700  152.5480 O   0  0  0  0  0  1  0  0  0  0  0  0
  160.2630  210.7390  155.8240 C   0  0  1  0  0  3  0  0  0  0  0  0
  159.4660  213.0480  155.3110 C   0  0  0  0  0  2  0  0  0  0  0  0
  1  2  2  0  0  0  0
  1  7  1  0  0  0  0
  2  8  1  0  0  0  0
  4 10  2  0  0  0  0
  5  6  1  0  0  0  0
  5  3  2  0  0  0  0
  6 20  1  0  0  0  0
  7  5  1  0  0  0  0
  8  6  2  0  0  0  0
  9  7  2  0  0  0  0
  9  4  1  0  0  0  0
 10  3  1  0  0  0  0
 11 13  1  0  0  0  0
 11 16  2  0  0  0  0
 13 12  1  6  0  0  0
 13 14  1  0  0  0  0
 14 15  2  0  0  0  0
 14  4  1  0  0  0  0
 16 19  1  0  0  0  0
 16 15  1  0  0  0  0
 18 19  1  0  0  0  0
 19 17  1  1  0  0  0
 21 22  1  0  0  0  0
 23 21  1  1  0  0  0
 23 34  1  0  0  0  0
 23 33  1  0  0  0  0
 24 32  1  6  0  0  0
 24 23  1  0  0  0  0
 27 20  1  6  0  0  0
 27 24  1  0  0  0  0
 27 29  1  0  0  0  0
 28 30  1  0  0  0  0
 29 33  1  0  0  0  0
 30 22  1  0  0  0  0
 30 26  1  1  0  0  0
 31 34  1  0  0  0  0
 31 30  1  0  0  0  0
 33 25  1  1  0  0  0
M  END
>  <MODEL>
2

>  <REMARK>
 VINA RESULT:      -9.3      1.072      1.597
  Name = 
  4 active torsions:
  status: ('A' for Active; 'I' for Inactive)
    1  A    between atoms: C_13  and  C_24
    2  A    between atoms: N_14  and  C_16
    3  A    between atoms: N_14  and  C_22
    4  A    between atoms: C_26  and  C_28
                            x       y       z     vdW  Elec       q    Type
                         _______ _______ _______ _____ _____    ______ ____

>  <TORSDO>
F 4

$$$$
=
 OpenBabel11072413153D

 34 38  0  0  1  0  0  0  0  0999 V2000
  161.9160  208.7810  148.7110 N   0  0  0  0  0  0  0  0  0  0  0  0
  162.0970  210.0820  149.0650 C   0  0  0  0  0  3  0  0  0  0  0  0
  161.1390  207.1900  151.9280 C   0  0  0  0  0  3  0  0  0  0  0  0
  161.1060  205.5140  150.1680 C   0  0  0  0  0  0  0  0  0  0  0  0
  161.4610  208.1820  150.9920 C   0  0  0  0  0  0  0  0  0  0  0  0
  161.6440  209.5200  151.3760 C   0  0  0  0  0  0  0  0  0  0  0  0
  161.6040  207.8300  149.6310 C   0  0  0  0  0  0  0  0  0  0  0  0
  161.9660  210.4710  150.3990 C   0  0  0  0  0  3  0  0  0  0  0  0
  161.4260  206.5040  149.2280 C   0  0  0  0  0  3  0  0  0  0  0  0
  160.9620  205.8660  151.5170 C   0  0  0  0  0  3  0  0  0  0  0  0
  160.4020  201.8860  149.6710 N   0  0  0  0  0  0  0  0  0  0  0  0
  161.5830  202.6740  151.6390 C   0  0  0  0  0  1  0  0  0  0  0  0
  160.4960  202.9810  150.6240 C   0  0  1  0  0  3  0  0  0  0  0  0
  160.9140  204.1150  149.7370 C   0  0  0  0  0  0  0  0  0  0  0  0
  161.0450  203.7350  148.5110 N   0  0  0  0  0  0  0  0  0  0  0  0
  160.7300  202.3520  148.5120 C   0  0  0  0  0  0  0  0  0  0  0  0
  161.5810  200.2900  147.4570 C   0  0  0  0  0  1  0  0  0  0  0  0
  161.2060  202.2730  146.1930 O   0  0  0  0  0  1  0  0  0  0  0  0
  160.7250  201.5270  147.2690 C   0  0  2  0  0  3  0  0  0  0  0  0
  161.5080  209.9020  152.7520 N   0  0  0  0  0  2  0  0  0  0  0  0
  158.8450  213.1520  154.6580 C   0  0  0  0  0  2  0  0  0  0  0  0
  157.5830  213.6880  154.9860 O   0  0  0  0  0  0  0  0  0  0  0  0
  158.6910  211.7500  154.0220 C   0  0  2  0  0  0  0  0  0  0  0  0
  159.9090  210.8760  154.2990 C   0  0  1  0  0  3  0  0  0  0  0  0
  158.0290  212.9720  152.0220 O   0  0  0  0  0  1  0  0  0  0  0  0
  155.6170  213.4110  156.2950 C   0  0  0  0  0  1  0  0  0  0  0  0
  160.9040  211.1540  153.1860 C   0  0  2  0  0  3  0  0  0  0  0  0
  157.7720  213.3670  157.2610 O   0  0  0  0  0  1  0  0  0  0  0  0
  160.1110  211.7780  152.0440 C   0  0  0  0  0  2  0  0  0  0  0  0
  157.0650  213.0000  156.1130 C   0  0  2  0  0  0  0  0  0  0  0  0
  157.1050  211.4660  155.9610 C   0  0  0  0  0  2  0  0  0  0  0  0
  160.4820  211.1280  155.5500 O   0  0  0  0  0  1  0  0  0  0  0  0
  158.6640  211.8210  152.4990 C   0  0  1  0  0  3  0  0  0  0  0  0
  157.4200  211.0580  154.5240 C   0  0  0  0  0  2  0  0  0  0  0  0
  1  2  2  0  0  0  0
  1  7  1  0  0  0  0
  2  8  1  0  0  0  0
  4 10  2  0  0  0  0
  5  6  1  0  0  0  0
  5  3  2  0  0  0  0
  6 20  1  0  0  0  0
  7  5  1  0  0  0  0
  8  6  2  0  0  0  0
  9  7  2  0  0  0  0
  9  4  1  0  0  0  0
 10  3  1  0  0  0  0
 11 13  1  0  0  0  0
 13 12  1  1  0  0  0
 14  4  1  0  0  0  0
 14 13  1  0  0  0  0
 15 16  1  0  0  0  0
 15 14  2  0  0  0  0
 16 11  2  0  0  0  0
 18 19  1  0  0  0  0
 19 17  1  1  0  0  0
 19 16  1  0  0  0  0
 21 22  1  0  0  0  0
 22 30  1  0  0  0  0
 23 24  1  0  0  0  0
 23 34  1  1  0  0  0
 23 21  1  0  0  0  0
 24 32  1  1  0  0  0
 27 20  1  6  0  0  0
 27 24  1  0  0  0  0
 29 33  1  0  0  0  0
 29 27  1  0  0  0  0
 30 26  1  1  0  0  0
 30 28  1  0  0  0  0
 31 30  1  0  0  0  0
 33 25  1  1  0  0  0
 33 23  1  0  0  0  0
 34 31  1  0  0  0  0
M  END
>  <MODEL>
3

>  <REMARK>
 VINA RESULT:      -9.1      0.919      1.888
  Name = 
  4 active torsions:
  status: ('A' for Active; 'I' for Inactive)
    1  A    between atoms: C_13  and  C_24
    2  A    between atoms: N_14  and  C_16
    3  A    between atoms: N_14  and  C_22
    4  A    between atoms: C_26  and  C_28
                            x       y       z     vdW  Elec       q    Type
                         _______ _______ _______ _____ _____    ______ ____

>  <TORSDO>
F 4

$$$$
=
 OpenBabel11072413153D

 34 38  0  0  1  0  0  0  0  0999 V2000
  160.4600  206.4420  154.6080 N   0  0  0  0  0  0  0  0  0  0  0  0
  160.4840  207.3310  155.6370 C   0  0  0  0  0  3  0  0  0  0  0  0
  161.7560  208.4400  151.8120 C   0  0  0  0  0  3  0  0  0  0  0  0
  161.2510  206.1920  151.0350 C   0  0  0  0  0  0  0  0  0  0  0  0
  161.3360  208.0990  153.1050 C   0  0  0  0  0  0  0  0  0  0  0  0
  161.3680  209.0290  154.1560 C   0  0  0  0  0  0  0  0  0  0  0  0
  160.8710  206.7880  153.3600 C   0  0  0  0  0  0  0  0  0  0  0  0
  160.9360  208.6360  155.4280 C   0  0  0  0  0  3  0  0  0  0  0  0
  160.8320  205.8470  152.3280 C   0  0  0  0  0  3  0  0  0  0  0  0
  161.7130  207.4920  150.7860 C   0  0  0  0  0  3  0  0  0  0  0  0
  161.3980  204.1330  147.9310 N   0  0  0  0  0  0  0  0  0  0  0  0
  160.4850  206.3800  147.8990 C   0  0  0  0  0  1  0  0  0  0  0  0
  161.5280  205.4610  148.5090 C   0  0  1  0  0  3  0  0  0  0  0  0
  161.2120  205.1940  149.9500 C   0  0  0  0  0  0  0  0  0  0  0  0
  160.9400  203.9480  150.1530 N   0  0  0  0  0  0  0  0  0  0  0  0
  161.0570  203.3280  148.8820 C   0  0  0  0  0  0  0  0  0  0  0  0
  160.8250  201.5370  147.1990 C   0  0  0  0  0  1  0  0  0  0  0  0
  159.6640  201.4530  149.2770 O   0  0  0  0  0  1  0  0  0  0  0  0
  160.8560  201.8630  148.6800 C   0  0  2  0  0  3  0  0  0  0  0  0
  161.8320  210.3660  153.9220 N   0  0  0  0  0  2  0  0  0  0  0  0
  158.4890  213.4180  154.8200 C   0  0  0  0  0  2  0  0  0  0  0  0
  157.1330  213.7570  154.9980 O   0  0  0  0  0  0  0  0  0  0  0  0
  158.6490  211.8900  154.6360 C   0  0  2  0  0  0  0  0  0  0  0  0
  160.0050  211.4070  155.1380 C   0  0  1  0  0  3  0  0  0  0  0  0
  157.8410  212.3010  152.3760 O   0  0  0  0  0  1  0  0  0  0  0  0
  155.2090  213.4850  156.3690 C   0  0  0  0  0  1  0  0  0  0  0  0
  160.9700  211.5390  153.9730 C   0  0  2  0  0  3  0  0  0  0  0  0
  157.2850  214.1710  157.2600 O   0  0  0  0  0  1  0  0  0  0  0  0
  160.1170  211.6210  152.7130 C   0  0  0  0  0  2  0  0  0  0  0  0
  156.7160  213.3440  156.2900 C   0  0  2  0  0  0  0  0  0  0  0  0
  157.0700  211.8760  156.6020 C   0  0  0  0  0  2  0  0  0  0  0  0
  160.4610  212.1310  156.2440 O   0  0  0  0  0  1  0  0  0  0  0  0
  158.6730  211.4990  153.1630 C   0  0  1  0  0  3  0  0  0  0  0  0
  157.5230  211.1330  155.3470 C   0  0  0  0  0  2  0  0  0  0  0  0
  1  2  1  0  0  0  0
  3  5  1  0  0  0  0
  4  9  2  0  0  0  0
  5  7  1  0  0  0  0
  5  6  2  0  0  0  0
  6  8  1  0  0  0  0
  7  1  2  0  0  0  0
  8  2  2  0  0  0  0
  9  7  1  0  0  0  0
 10  4  1  0  0  0  0
 10  3  2  0  0  0  0
 11 13  1  0  0  0  0
 11 16  2  0  0  0  0
 13 12  1  6  0  0  0
 13 14  1  0  0  0  0
 14 15  2  0  0  0  0
 14  4  1  0  0  0  0
 16 15  1  0  0  0  0
 19 17  1  6  0  0  0
 19 16  1  0  0  0  0
 19 18  1  0  0  0  0
 20  6  1  0  0  0  0
 21 22  1  0  0  0  0
 22 30  1  0  0  0  0
 23 21  1  1  0  0  0
 23 24  1  0  0  0  0
 23 34  1  0  0  0  0
 24 32  1  1  0  0  0
 27 20  1  6  0  0  0
 27 24  1  0  0  0  0
 29 33  1  0  0  0  0
 29 27  1  0  0  0  0
 30 26  1  1  0  0  0
 30 31  1  0  0  0  0
 30 28  1  0  0  0  0
 33 25  1  6  0  0  0
 33 23  1  0  0  0  0
 34 31  1  0  0  0  0
M  END
>  <MODEL>
4

>  <REMARK>
 VINA RESULT:      -8.9      1.733      3.272
  Name = 
  4 active torsions:
  status: ('A' for Active; 'I' for Inactive)
    1  A    between atoms: C_13  and  C_24
    2  A    between atoms: N_14  and  C_16
    3  A    between atoms: N_14  and  C_22
    4  A    between atoms: C_26  and  C_28
                            x       y       z     vdW  Elec       q    Type
                         _______ _______ _______ _____ _____    ______ ____

>  <TORSDO>
F 4

$$$$
=
 OpenBabel11072413153D

 34 38  0  0  1  0  0  0  0  0999 V2000
  160.4560  206.4040  154.3530 N   0  0  0  0  0  0  0  0  0  0  0  0
  160.4600  207.3190  155.3590 C   0  0  0  0  0  3  0  0  0  0  0  0
  161.7710  208.3420  151.5230 C   0  0  0  0  0  3  0  0  0  0  0  0
  161.2930  206.0720  150.7960 C   0  0  0  0  0  0  0  0  0  0  0  0
  161.3380  208.0300  152.8190 C   0  0  0  0  0  0  0  0  0  0  0  0
  161.3500  208.9870  153.8460 C   0  0  0  0  0  0  0  0  0  0  0  0
  160.8790  206.7230  153.1010 C   0  0  0  0  0  0  0  0  0  0  0  0
  160.9040  208.6220  155.1230 C   0  0  0  0  0  3  0  0  0  0  0  0
  160.8610  205.7550  152.0930 C   0  0  0  0  0  3  0  0  0  0  0  0
  161.7480  207.3680  150.5210 C   0  0  0  0  0  3  0  0  0  0  0  0
  160.8310  203.1750  148.4940 N   0  0  0  0  0  0  0  0  0  0  0  0
  161.2260  202.8390  150.8640 C   0  0  0  0  0  1  0  0  0  0  0  0
  160.5730  203.7240  149.8170 C   0  0  1  0  0  3  0  0  0  0  0  0
  161.2750  205.0460  149.7360 C   0  0  0  0  0  0  0  0  0  0  0  0
  161.8380  205.2150  148.5870 N   0  0  0  0  0  0  0  0  0  0  0  0
  161.5490  204.0360  147.8520 C   0  0  0  0  0  0  0  0  0  0  0  0
  162.7060  205.0780  145.9370 C   0  0  0  0  0  1  0  0  0  0  0  0
  160.8960  203.5620  145.6250 O   0  0  0  0  0  1  0  0  0  0  0  0
  161.9930  203.8390  146.4410 C   0  0  2  0  0  3  0  0  0  0  0  0
  161.8060  210.3210  153.5840 N   0  0  0  0  0  2  0  0  0  0  0  0
  158.4730  213.3730  154.5170 C   0  0  0  0  0  2  0  0  0  0  0  0
  157.1180  213.7110  154.7070 O   0  0  0  0  0  0  0  0  0  0  0  0
  158.6300  211.8450  154.3290 C   0  0  2  0  0  0  0  0  0  0  0  0
  159.9900  211.3600  154.8180 C   0  0  1  0  0  3  0  0  0  0  0  0
  157.8020  212.2590  152.0770 O   0  0  0  0  0  1  0  0  0  0  0  0
  155.2060  213.4380  156.0940 C   0  0  0  0  0  1  0  0  0  0  0  0
  160.9450  211.4940  153.6450 C   0  0  2  0  0  3  0  0  0  0  0  0
  157.2900  214.1230  156.9690 O   0  0  0  0  0  1  0  0  0  0  0  0
  160.0810  211.5770  152.3930 C   0  0  0  0  0  2  0  0  0  0  0  0
  156.7120  213.2970  156.0020 C   0  0  2  0  0  0  0  0  0  0  0  0
  157.0690  211.8290  156.3090 C   0  0  0  0  0  2  0  0  0  0  0  0
  160.4560  212.0820  155.9210 O   0  0  0  0  0  1  0  0  0  0  0  0
  158.6410  211.4550  152.8550 C   0  0  1  0  0  3  0  0  0  0  0  0
  157.5100  211.0870  155.0490 C   0  0  0  0  0  2  0  0  0  0  0  0
  1  2  1  0  0  0  0
  3  5  1  0  0  0  0
  4  9  2  0  0  0  0
  5  7  1  0  0  0  0
  5  6  2  0  0  0  0
  6  8  1  0  0  0  0
  7  1  2  0  0  0  0
  8  2  2  0  0  0  0
  9  7  1  0  0  0  0
 10  4  1  0  0  0  0
 10  3  2  0  0  0  0
 11 13  1  0  0  0  0
 13 12  1  1  0  0  0
 14 13  1  0  0  0  0
 14  4  1  0  0  0  0
 15 14  2  0  0  0  0
 16 11  2  0  0  0  0
 16 15  1  0  0  0  0
 18 19  1  0  0  0  0
 19 17  1  6  0  0  0
 19 16  1  0  0  0  0
 20  6  1  0  0  0  0
 21 22  1  0  0  0  0
 22 30  1  0  0  0  0
 23 21  1  1  0  0  0
 23 24  1  0  0  0  0
 23 34  1  0  0  0  0
 24 32  1  1  0  0  0
 27 20  1  6  0  0  0
 27 24  1  0  0  0  0
 29 33  1  0  0  0  0
 29 27  1  0  0  0  0
 30 26  1  1  0  0  0
 30 31  1  0  0  0  0
 30 28  1  0  0  0  0
 33 25  1  6  0  0  0
 33 23  1  0  0  0  0
 34 31  1  0  0  0  0
M  END
>  <MODEL>
5

>  <REMARK>
 VINA RESULT:      -8.4      1.658      3.100
  Name = 
  4 active torsions:
  status: ('A' for Active; 'I' for Inactive)
    1  A    between atoms: C_13  and  C_24
    2  A    between atoms: N_14  and  C_16
    3  A    between atoms: N_14  and  C_22
    4  A    between atoms: C_26  and  C_28
                            x       y       z     vdW  Elec       q    Type
                         _______ _______ _______ _____ _____    ______ ____

>  <TORSDO>
F 4

$$$$
=
 OpenBabel11072413153D

 34 38  0  0  1  0  0  0  0  0999 V2000
  162.1340  209.6430  148.5380 N   0  0  0  0  0  0  0  0  0  0  0  0
  162.2070  210.8810  149.0970 C   0  0  0  0  0  3  0  0  0  0  0  0
  161.1370  207.5510  151.3870 C   0  0  0  0  0  3  0  0  0  0  0  0
  161.3700  206.1620  149.4060 C   0  0  0  0  0  0  0  0  0  0  0  0
  161.4930  208.6860  150.6460 C   0  0  0  0  0  0  0  0  0  0  0  0
  161.5610  209.9570  151.2390 C   0  0  0  0  0  0  0  0  0  0  0  0
  161.7880  208.5510  149.2700 C   0  0  0  0  0  0  0  0  0  0  0  0
  161.9230  211.0580  150.4520 C   0  0  0  0  0  3  0  0  0  0  0  0
  161.7240  207.2960  148.6610 C   0  0  0  0  0  3  0  0  0  0  0  0
  161.0760  206.2990  150.7690 C   0  0  0  0  0  3  0  0  0  0  0  0
  161.5520  203.0840  147.3090 N   0  0  0  0  0  0  0  0  0  0  0  0
  161.0170  205.2370  146.3280 C   0  0  0  0  0  1  0  0  0  0  0  0
  161.8220  204.5110  147.3910 C   0  0  1  0  0  3  0  0  0  0  0  0
  161.3010  204.8380  148.7570 C   0  0  0  0  0  0  0  0  0  0  0  0
  160.8130  203.7960  149.3410 N   0  0  0  0  0  0  0  0  0  0  0  0
  160.9780  202.7350  148.4130 C   0  0  0  0  0  0  0  0  0  0  0  0
  160.7120  201.0520  150.1980 C   0  0  0  0  0  1  0  0  0  0  0  0
  161.3600  200.4360  147.9910 O   0  0  0  0  0  1  0  0  0  0  0  0
  160.5730  201.3320  148.7140 C   0  0  2  0  0  3  0  0  0  0  0  0
  161.2710  210.1190  152.6340 N   0  0  0  0  0  2  0  0  0  0  0  0
  158.6060  213.2220  154.7710 C   0  0  0  0  0  2  0  0  0  0  0  0
  157.3480  213.7900  155.0590 O   0  0  0  0  0  0  0  0  0  0  0  0
  158.4430  211.9480  153.9080 C   0  0  2  0  0  0  0  0  0  0  0  0
  159.5740  210.9570  154.1570 C   0  0  1  0  0  3  0  0  0  0  0  0
  158.0650  213.5060  152.0750 O   0  0  0  0  0  1  0  0  0  0  0  0
  155.2440  213.4580  156.1130 C   0  0  0  0  0  1  0  0  0  0  0  0
  160.6950  211.3300  153.2030 C   0  0  2  0  0  3  0  0  0  0  0  0
  157.2790  213.1120  157.2600 O   0  0  0  0  0  1  0  0  0  0  0  0
  160.0620  212.1770  152.1050 C   0  0  0  0  0  2  0  0  0  0  0  0
  156.6770  212.9770  156.0070 C   0  0  2  0  0  0  0  0  0  0  0  0
  156.6480  211.4850  155.6170 C   0  0  0  0  0  2  0  0  0  0  0  0
  160.0250  210.9740  155.4810 O   0  0  0  0  0  1  0  0  0  0  0  0
  158.5800  212.2520  152.4200 C   0  0  1  0  0  3  0  0  0  0  0  0
  157.0900  211.2800  154.1700 C   0  0  0  0  0  2  0  0  0  0  0  0
  1  2  2  0  0  0  0
  1  7  1  0  0  0  0
  2  8  1  0  0  0  0
  4 10  2  0  0  0  0
  5  6  1  0  0  0  0
  5  3  2  0  0  0  0
  6 20  1  0  0  0  0
  7  5  1  0  0  0  0
  8  6  2  0  0  0  0
  9  7  2  0  0  0  0
  9  4  1  0  0  0  0
 10  3  1  0  0  0  0
 11 13  1  0  0  0  0
 11 16  2  0  0  0  0
 13 12  1  6  0  0  0
 13 14  1  0  0  0  0
 14 15  2  0  0  0  0
 14  4  1  0  0  0  0
 16 19  1  0  0  0  0
 16 15  1  0  0  0  0
 18 19  1  0  0  0  0
 19 17  1  1  0  0  0
 21 22  1  0  0  0  0
 22 30  1  0  0  0  0
 23 24  1  0  0  0  0
 23 34  1  1  0  0  0
 23 21  1  0  0  0  0
 24 32  1  1  0  0  0
 27 20  1  6  0  0  0
 27 24  1  0  0  0  0
 29 33  1  0  0  0  0
 29 27  1  0  0  0  0
 30 26  1  1  0  0  0
 30 28  1  0  0  0  0
 31 30  1  0  0  0  0
 33 25  1  1  0  0  0
 33 23  1  0  0  0  0
 34 31  1  0  0  0  0
M  END
>  <MODEL>
6

>  <REMARK>
 VINA RESULT:      -8.3      1.459      2.513
  Name = 
  4 active torsions:
  status: ('A' for Active; 'I' for Inactive)
    1  A    between atoms: C_13  and  C_24
    2  A    between atoms: N_14  and  C_16
    3  A    between atoms: N_14  and  C_22
    4  A    between atoms: C_26  and  C_28
                            x       y       z     vdW  Elec       q    Type
                         _______ _______ _______ _____ _____    ______ ____

>  <TORSDO>
F 4

$$$$
=
 OpenBabel11072413153D

 34 38  0  0  1  0  0  0  0  0999 V2000
  160.5310  207.9800  155.3010 N   0  0  0  0  0  0  0  0  0  0  0  0
  161.1730  206.9320  154.7200 C   0  0  0  0  0  3  0  0  0  0  0  0
  160.2630  210.3740  152.5290 C   0  0  0  0  0  3  0  0  0  0  0  0
  159.2510  211.3290  154.5230 C   0  0  0  0  0  0  0  0  0  0  0  0
  160.5820  209.2080  153.2370 C   0  0  0  0  0  0  0  0  0  0  0  0
  161.2460  208.1350  152.6200 C   0  0  0  0  0  0  0  0  0  0  0  0
  160.2280  209.1060  154.6010 C   0  0  0  0  0  0  0  0  0  0  0  0
  161.5410  206.9920  153.3750 C   0  0  0  0  0  3  0  0  0  0  0  0
  159.5670  210.1620  155.2330 C   0  0  0  0  0  3  0  0  0  0  0  0
  159.6020  211.4260  153.1700 C   0  0  0  0  0  3  0  0  0  0  0  0
  158.0440  214.4280  156.2090 N   0  0  0  0  0  0  0  0  0  0  0  0
  160.0840  213.3270  156.9250 C   0  0  0  0  0  1  0  0  0  0  0  0
  159.1980  213.6740  155.7420 C   0  0  1  0  0  3  0  0  0  0  0  0
  158.5490  212.4400  155.1930 C   0  0  0  0  0  0  0  0  0  0  0  0
  157.2660  212.4770  155.3320 N   0  0  0  0  0  0  0  0  0  0  0  0
  156.9940  213.7140  155.9710 C   0  0  0  0  0  0  0  0  0  0  0  0
  154.9500  213.2120  157.2600 C   0  0  0  0  0  1  0  0  0  0  0  0
  154.8500  214.2490  155.1180 O   0  0  0  0  0  1  0  0  0  0  0  0
  155.6090  214.1700  156.2860 C   0  0  2  0  0  3  0  0  0  0  0  0
  161.6190  208.2160  151.2380 N   0  0  0  0  0  2  0  0  0  0  0  0
  162.3000  205.0580  147.9420 C   0  0  0  0  0  2  0  0  0  0  0  0
  161.8270  204.1990  146.9300 O   0  0  0  0  0  0  0  0  0  0  0  0
  161.1510  205.9420  148.4850 C   0  0  2  0  0  0  0  0  0  0  0  0
  161.6730  207.2800  148.9970 C   0  0  1  0  0  3  0  0  0  0  0  0
  160.4700  203.9350  149.6840 O   0  0  0  0  0  1  0  0  0  0  0  0
  160.8340  204.0730  144.7730 C   0  0  0  0  0  1  0  0  0  0  0  0
  162.0540  207.0690  150.4520 C   0  0  2  0  0  3  0  0  0  0  0  0
  162.7780  205.3520  145.1750 O   0  0  0  0  0  1  0  0  0  0  0  0
  161.3270  205.8110  150.9100 C   0  0  0  0  0  2  0  0  0  0  0  0
  161.5720  204.9570  145.7580 C   0  0  2  0  0  0  0  0  0  0  0  0
  160.7020  206.2030  146.0180 C   0  0  0  0  0  2  0  0  0  0  0  0
  162.7650  207.7510  148.2620 O   0  0  0  0  0  1  0  0  0  0  0  0
  160.5080  205.3320  149.7250 C   0  0  1  0  0  3  0  0  0  0  0  0
  160.0810  206.1680  147.4130 C   0  0  0  0  0  2  0  0  0  0  0  0
  2  1  1  0  0  0  0
  3 10  2  0  0  0  0
  3  5  1  0  0  0  0
  4 14  1  0  0  0  0
  4  9  2  0  0  0  0
  5  7  1  0  0  0  0
  6  5  2  0  0  0  0
  6  8  1  0  0  0  0
  7  9  1  0  0  0  0
  7  1  2  0  0  0  0
  8  2  2  0  0  0  0
 10  4  1  0  0  0  0
 13 11  1  0  0  0  0
 13 12  1  1  0  0  0
 14 15  2  0  0  0  0
 14 13  1  0  0  0  0
 15 16  1  0  0  0  0
 16 11  2  0  0  0  0
 16 19  1  0  0  0  0
 18 19  1  0  0  0  0
 19 17  1  1  0  0  0
 20  6  1  0  0  0  0
 21 23  1  0  0  0  0
 22 21  1  0  0  0  0
 23 34  1  6  0  0  0
 23 24  1  0  0  0  0
 23 33  1  0  0  0  0
 24 32  1  6  0  0  0
 24 27  1  0  0  0  0
 27 29  1  0  0  0  0
 27 20  1  1  0  0  0
 28 30  1  0  0  0  0
 30 26  1  6  0  0  0
 30 31  1  0  0  0  0
 30 22  1  0  0  0  0
 31 34  1  0  0  0  0
 33 25  1  6  0  0  0
 33 29  1  0  0  0  0
M  END
>  <MODEL>
7

>  <REMARK>
 VINA RESULT:      -7.9      2.897     10.326
  Name = 
  4 active torsions:
  status: ('A' for Active; 'I' for Inactive)
    1  A    between atoms: C_13  and  C_24
    2  A    between atoms: N_14  and  C_16
    3  A    between atoms: N_14  and  C_22
    4  A    between atoms: C_26  and  C_28
                            x       y       z     vdW  Elec       q    Type
                         _______ _______ _______ _____ _____    ______ ____

>  <TORSDO>
F 4

$$$$
=
 OpenBabel11072413153D

 34 38  0  0  1  0  0  0  0  0999 V2000
  161.8540  209.6120  150.1240 N   0  0  0  0  0  0  0  0  0  0  0  0
  161.8940  210.6340  151.0200 C   0  0  0  0  0  3  0  0  0  0  0  0
  161.1090  206.7210  152.2640 C   0  0  0  0  0  3  0  0  0  0  0  0
  161.3060  205.9880  149.9540 C   0  0  0  0  0  0  0  0  0  0  0  0
  161.3700  208.0430  151.8780 C   0  0  0  0  0  0  0  0  0  0  0  0
  161.4080  209.0870  152.8160 C   0  0  0  0  0  0  0  0  0  0  0  0
  161.5990  208.3340  150.5140 C   0  0  0  0  0  0  0  0  0  0  0  0
  161.6740  210.3900  152.3760 C   0  0  0  0  0  3  0  0  0  0  0  0
  161.5650  207.3100  149.5640 C   0  0  0  0  0  3  0  0  0  0  0  0
  161.0770  205.7030  151.3070 C   0  0  0  0  0  3  0  0  0  0  0  0
  161.5500  203.6650  147.0480 N   0  0  0  0  0  0  0  0  0  0  0  0
  160.9360  205.9910  146.7420 C   0  0  0  0  0  1  0  0  0  0  0  0
  161.7780  205.0140  147.5420 C   0  0  1  0  0  3  0  0  0  0  0  0
  161.2670  204.9110  148.9470 C   0  0  0  0  0  0  0  0  0  0  0  0
  160.8210  203.7270  149.2040 N   0  0  0  0  0  0  0  0  0  0  0  0
  161.0040  202.9900  148.0050 C   0  0  0  0  0  0  0  0  0  0  0  0
  161.2150  200.7660  149.0530 C   0  0  0  0  0  1  0  0  0  0  0  0
  161.1360  201.0260  146.6870 O   0  0  0  0  0  1  0  0  0  0  0  0
  160.6460  201.5470  147.8850 C   0  0  2  0  0  3  0  0  0  0  0  0
  161.1820  208.8160  154.2070 N   0  0  0  0  0  2  0  0  0  0  0  0
  158.4340  211.7520  156.4680 C   0  0  0  0  0  2  0  0  0  0  0  0
  157.4900  212.7990  156.4950 O   0  0  0  0  0  0  0  0  0  0  0  0
  158.7110  211.3070  155.0130 C   0  0  2  0  0  0  0  0  0  0  0  0
  159.1060  209.8360  154.9460 C   0  0  1  0  0  3  0  0  0  0  0  0
  160.0640  213.3270  154.8860 O   0  0  0  0  0  1  0  0  0  0  0  0
  155.2610  213.4400  155.9740 C   0  0  0  0  0  1  0  0  0  0  0  0
  160.6120  209.7830  155.1340 C   0  0  2  0  0  3  0  0  0  0  0  0
  155.7330  211.5160  157.2580 O   0  0  0  0  0  1  0  0  0  0  0  0
  161.1340  211.1800  154.8250 C   0  0  0  0  0  2  0  0  0  0  0  0
  156.2080  212.2770  156.1870 C   0  0  2  0  0  0  0  0  0  0  0  0
  156.1940  211.4150  154.9080 C   0  0  0  0  0  2  0  0  0  0  0  0
  158.4580  209.0580  155.9110 O   0  0  0  0  0  1  0  0  0  0  0  0
  159.9290  212.0120  154.4280 C   0  0  1  0  0  3  0  0  0  0  0  0
  157.4930  211.5670  154.1200 C   0  0  0  0  0  2  0  0  0  0  0  0
  1  7  2  0  0  0  0
  1  2  1  0  0  0  0
  2  8  2  0  0  0  0
  4 10  1  0  0  0  0
  5  3  1  0  0  0  0
  5  6  2  0  0  0  0
  6 20  1  0  0  0  0
  7  5  1  0  0  0  0
  8  6  1  0  0  0  0
  9  4  2  0  0  0  0
  9  7  1  0  0  0  0
 10  3  2  0  0  0  0
 11 13  1  0  0  0  0
 11 16  2  0  0  0  0
 13 12  1  6  0  0  0
 13 14  1  0  0  0  0
 14 15  2  0  0  0  0
 14  4  1  0  0  0  0
 16 15  1  0  0  0  0
 18 19  1  0  0  0  0
 19 16  1  0  0  0  0
 19 17  1  1  0  0  0
 21 22  1  0  0  0  0
 23 34  1  6  0  0  0
 23 21  1  0  0  0  0
 24 23  1  0  0  0  0
 24 27  1  0  0  0  0
 24 32  1  1  0  0  0
 27 20  1  6  0  0  0
 29 27  1  0  0  0  0
 30 26  1  6  0  0  0
 30 22  1  0  0  0  0
 30 28  1  0  0  0  0
 31 30  1  0  0  0  0
 33 29  1  0  0  0  0
 33 25  1  1  0  0  0
 33 23  1  0  0  0  0
 34 31  1  0  0  0  0
M  END
>  <MODEL>
8

>  <REMARK>
 VINA RESULT:      -7.2      1.576      2.233
  Name = 
  4 active torsions:
  status: ('A' for Active; 'I' for Inactive)
    1  A    between atoms: C_13  and  C_24
    2  A    between atoms: N_14  and  C_16
    3  A    between atoms: N_14  and  C_22
    4  A    between atoms: C_26  and  C_28
                            x       y       z     vdW  Elec       q    Type
                         _______ _______ _______ _____ _____    ______ ____

>  <TORSDO>
F 4

$$$$
