=
 OpenBabel11072413543D

 46 53  0  0  1  0  0  0  0  0999 V2000
  160.2230  212.9400  151.7950 N   0  0  0  0  0  0  0  0  0  0  0  0
  159.3740  211.5990  154.2020 C   0  0  2  0  0  3  0  0  0  0  0  0
  159.6170  213.9680  149.6630 N   0  0  0  0  0  0  0  0  0  0  0  0
  158.5250  214.4530  152.4050 O   0  0  0  0  0  0  0  0  0  0  0  0
  158.4130  212.1370  153.1560 C   0  0  1  0  0  3  0  0  0  0  0  0
  159.0260  213.2980  152.4500 C   0  0  0  0  0  0  0  0  0  0  0  0
  160.8940  211.0520  150.7520 C   0  0  1  0  0  3  0  0  0  0  0  0
  161.0570  212.0220  149.8660 C   0  0  1  0  0  3  0  0  0  0  0  0
  160.4250  211.5800  151.9890 N   0  0  2  0  0  0  0  0  0  0  0  0
  161.0600  211.8530  148.4120 C   0  0  0  0  0  3  0  0  0  0  0  0
  160.6760  213.3410  150.4660 C   0  0  2  0  0  3  0  0  0  0  0  0
  159.4890  213.7360  148.3820 C   0  0  0  0  0  3  0  0  0  0  0  0
  159.3730  210.9800  152.8130 C   0  0  1  0  0  3  0  0  0  0  0  0
  160.3190  212.7110  147.6970 C   0  0  0  0  0  3  0  0  0  0  0  0
  158.0450  211.5690  156.2080 C   0  0  0  0  0  0  0  0  0  0  0  0
  158.9920  210.9340  157.1110 N   0  0  0  0  0  2  0  0  0  0  0  0
  159.4890  210.0810  156.0780 N   0  0  0  0  0  0  0  0  0  0  0  0
  158.5950  210.7360  155.1890 C   0  0  2  0  0  3  0  0  0  0  0  0
  157.1550  212.4540  156.2960 O   0  0  0  0  0  0  0  0  0  0  0  0
  160.4070  208.9910  156.0190 C   0  0  0  0  0  0  0  0  0  0  0  0
  159.9680  207.7570  155.8190 C   0  0  0  0  0  2  0  0  0  0  0  0
  161.8590  209.2300  156.2490 C   0  0  0  0  0  2  0  0  0  0  0  0
  162.2730  210.5370  155.6080 C   0  0  0  0  0  1  0  0  0  0  0  0
  161.0390  209.6930  150.4620 O   0  0  0  0  0  0  0  0  0  0  0  0
  162.7030  207.9720  149.9980 C   0  0  1  0  0  3  0  0  0  0  0  0
  162.0570  208.8890  151.0430 C   0  0  2  0  0  3  0  0  0  0  0  0
  161.2110  206.6840  151.3780 C   0  0  1  0  0  3  0  0  0  0  0  0
  161.4620  207.9950  152.1050 C   0  0  1  0  0  3  0  0  0  0  0  0
  162.3970  207.8360  153.1320 O   0  0  0  0  0  1  0  0  0  0  0  0
  162.2090  206.6110  150.2340 C   0  0  1  0  0  3  0  0  0  0  0  0
  161.6960  207.3880  149.0960 N   0  0  0  0  0  0  0  0  0  0  0  0
  160.7610  205.5100  153.3920 O   0  0  0  0  0  0  0  0  0  0  0  0
  161.2250  205.4680  152.2610 C   0  0  0  0  0  0  0  0  0  0  0  0
  161.7790  204.1840  151.7280 C   0  0  0  0  0  2  0  0  0  0  0  0
  160.6860  203.3210  151.1180 C   0  0  0  0  0  2  0  0  0  0  0  0
  160.8640  203.2460  149.6080 C   0  0  0  0  0  2  0  0  0  0  0  0
  161.0020  201.8100  149.1200 C   0  0  0  0  0  3  0  0  0  0  0  0
  160.9860  200.9180  150.1940 O   0  0  0  0  0  1  0  0  0  0  0  0
  159.9810  201.4990  148.2220 O   0  0  0  0  0  1  0  0  0  0  0  0
  162.4180  206.9500  147.9120 C   0  0  0  0  0  2  0  0  0  0  0  0
  161.8910  205.6010  147.4550 C   0  0  0  0  0  2  0  0  0  0  0  0
  163.2140  204.8000  145.6710 O   0  0  0  0  0  0  0  0  0  0  0  0
  162.1860  205.3700  146.0050 C   0  0  0  0  0  0  0  0  0  0  0  0
  161.4680  205.1790  143.7770 O   0  0  0  0  0  0  0  0  0  0  0  0
  161.2200  205.8330  144.9640 C   0  0  0  0  0  3  0  0  0  0  0  0
  160.4430  204.7730  144.5430 O   0  0  0  0  0  0  0  0  0  0  0  0
  1  6  1  0  0  0  0
  2 18  1  1  0  0  0
  4  6  2  0  0  0  0
  5  6  1  6  0  0  0
  5  2  1  0  0  0  0
  7 24  1  6  0  0  0
  7  9  1  0  0  0  0
  8 10  1  6  0  0  0
  8 11  1  0  0  0  0
  8  7  1  0  0  0  0
  9  1  1  6  0  0  0
  9 13  1  0  0  0  0
 11  3  1  6  0  0  0
 11  1  1  0  0  0  0
 12  3  2  0  0  0  0
 13  5  1  0  0  0  0
 13  2  1  0  0  0  0
 14 12  1  0  0  0  0
 14 10  2  0  0  0  0
 15 19  2  0  0  0  0
 15 16  1  0  0  0  0
 17 16  1  0  0  0  0
 18 17  1  0  0  0  0
 18 15  1  0  0  0  0
 20 17  1  0  0  0  0
 20 22  1  0  0  0  0
 21 20  2  0  0  0  0
 23 22  1  0  0  0  0
 24 26  1  0  0  0  0
 25 30  1  0  0  0  0
 25 26  1  0  0  0  0
 26 28  1  0  0  0  0
 27 28  1  0  0  0  0
 27 33  1  0  0  0  0
 28 29  1  0  0  0  0
 30 27  1  0  0  0  0
 31 25  1  0  0  0  0
 31 30  1  0  0  0  0
 33 32  2  0  0  0  0
 34 33  1  0  0  0  0
 35 34  1  0  0  0  0
 36 35  1  0  0  0  0
 37 36  1  0  0  0  0
 37 38  1  0  0  0  0
 39 37  1  0  0  0  0
 40 31  1  0  0  0  0
 41 40  1  0  0  0  0
 42 43  2  0  0  0  0
 43 41  1  0  0  0  0
 44 46  1  0  0  0  0
 44 45  1  0  0  0  0
 45 43  1  0  0  0  0
 46 45  1  0  0  0  0
M  END
>  <MODEL>
1

>  <REMARK>
 VINA RESULT:      -6.3      0.000      0.000
  Name = 
  14 active torsions:
  status: ('A' for Active; 'I' for Inactive)
    1  A    between atoms: C_1  and  C_23
    2  A    between atoms: C_2  and  C_13
    3  A    between atoms: C_2  and  N_44
    4  A    between atoms: C_4  and  C_24
    5  A    between atoms: C_8  and  O_37
    6  A    between atoms: C_10  and  C_41
    7  A    between atoms: C_11  and  C_30
    8  A    between atoms: C_13  and  C_30
    9  A    between atoms: C_14  and  C_19
   10  A    between atoms: C_19  and  C_35
   11  A    between atoms: N_21  and  C_23
   12  A    between atoms: C_26  and  O_37
   13  A    between atoms: C_35  and  C_42
   14  A    between atoms: C_41  and  C_42
                            x       y       z     vdW  Elec       q    Type
                         _______ _______ _______ _____ _____    ______ ____

>  <TORSDO>
F 14

$$$$
=
 OpenBabel11072413543D

 46 53  0  0  1  0  0  0  0  0999 V2000
  158.7790  212.0600  153.9740 N   0  0  0  0  0  0  0  0  0  0  0  0
  157.9940  213.3090  151.4970 C   0  0  2  0  0  3  0  0  0  0  0  0
  160.3210  211.9840  155.8660 N   0  0  0  0  0  0  0  0  0  0  0  0
  158.7780  214.2860  154.7400 O   0  0  0  0  0  0  0  0  0  0  0  0
  159.1240  213.8180  152.3740 C   0  0  1  0  0  3  0  0  0  0  0  0
  158.8690  213.4560  153.7970 C   0  0  0  0  0  0  0  0  0  0  0  0
  159.8270  210.3190  152.9850 C   0  0  1  0  0  3  0  0  0  0  0  0
  160.0330  210.1640  154.2840 C   0  0  1  0  0  3  0  0  0  0  0  0
  159.0060  211.4580  152.7430 N   0  0  2  0  0  0  0  0  0  0  0  0
  161.1540  209.4420  154.8870 C   0  0  0  0  0  3  0  0  0  0  0  0
  159.3440  211.2520  155.0510 C   0  0  2  0  0  3  0  0  0  0  0  0
  161.4150  211.4200  156.3120 C   0  0  0  0  0  3  0  0  0  0  0  0
  159.2310  212.4440  151.6820 C   0  0  1  0  0  3  0  0  0  0  0  0
  161.7990  210.0480  155.8920 C   0  0  0  0  0  3  0  0  0  0  0  0
  156.9140  213.6500  149.3740 C   0  0  0  0  0  0  0  0  0  0  0  0
  157.8740  212.9830  148.5080 N   0  0  0  0  0  2  0  0  0  0  0  0
  158.9790  213.4350  149.2940 N   0  0  0  0  0  0  0  0  0  0  0  0
  158.0340  214.0460  150.1620 C   0  0  2  0  0  3  0  0  0  0  0  0
  155.6640  213.7980  149.4050 O   0  0  0  0  0  0  0  0  0  0  0  0
  160.3990  213.3710  149.1750 C   0  0  0  0  0  0  0  0  0  0  0  0
  161.1360  214.4530  149.3770 C   0  0  0  0  0  2  0  0  0  0  0  0
  161.0520  212.0990  148.7590 C   0  0  0  0  0  2  0  0  0  0  0  0
  161.4760  212.1890  147.3080 C   0  0  0  0  0  1  0  0  0  0  0  0
  160.4420  209.5470  151.9970 O   0  0  0  0  0  0  0  0  0  0  0  0
  162.3150  208.3560  150.9880 C   0  0  1  0  0  3  0  0  0  0  0  0
  161.5430  208.6900  152.2690 C   0  0  2  0  0  3  0  0  0  0  0  0
  160.9730  206.4640  151.6270 C   0  0  1  0  0  3  0  0  0  0  0  0
  161.0460  207.3810  152.8370 C   0  0  1  0  0  3  0  0  0  0  0  0
  161.9780  206.9160  153.7700 O   0  0  0  0  0  1  0  0  0  0  0  0
  161.9910  206.9730  150.6200 C   0  0  1  0  0  3  0  0  0  0  0  0
  161.4040  208.0890  149.8620 N   0  0  0  0  0  0  0  0  0  0  0  0
  160.7260  204.5460  153.0040 O   0  0  0  0  0  0  0  0  0  0  0  0
  161.1240  205.0020  151.9400 C   0  0  0  0  0  0  0  0  0  0  0  0
  161.7330  204.0940  150.9190 C   0  0  0  0  0  2  0  0  0  0  0  0
  160.6690  203.4450  150.0500 C   0  0  0  0  0  2  0  0  0  0  0  0
  161.2680  203.0300  148.7150 C   0  0  0  0  0  2  0  0  0  0  0  0
  160.7360  201.6830  148.2440 C   0  0  0  0  0  3  0  0  0  0  0  0
  159.5910  201.3240  148.9600 O   0  0  0  0  0  1  0  0  0  0  0  0
  160.4550  201.7190  146.8780 O   0  0  0  0  0  1  0  0  0  0  0  0
  162.1940  208.2540  148.6530 C   0  0  0  0  0  2  0  0  0  0  0  0
  162.6240  206.8960  148.1260 C   0  0  0  0  0  2  0  0  0  0  0  0
  160.4420  206.3050  147.4440 O   0  0  0  0  0  0  0  0  0  0  0  0
  161.6270  206.3560  147.1480 C   0  0  0  0  0  0  0  0  0  0  0  0
  163.1780  205.0630  145.9490 O   0  0  0  0  0  0  0  0  0  0  0  0
  162.0790  205.8810  145.8060 C   0  0  0  0  0  3  0  0  0  0  0  0
  161.9750  204.5070  145.7360 O   0  0  0  0  0  0  0  0  0  0  0  0
  1 11  1  0  0  0  0
  2 18  1  6  0  0  0
  2 13  1  0  0  0  0
  2  5  1  0  0  0  0
  3 12  2  0  0  0  0
  5  6  1  1  0  0  0
  6  1  1  0  0  0  0
  6  4  2  0  0  0  0
  7 24  1  6  0  0  0
  7  8  1  0  0  0  0
  8 10  1  6  0  0  0
  8 11  1  0  0  0  0
  9  7  1  0  0  0  0
  9  1  1  1  0  0  0
 10 14  2  0  0  0  0
 11  3  1  6  0  0  0
 13  5  1  0  0  0  0
 13  9  1  0  0  0  0
 14 12  1  0  0  0  0
 15 19  2  0  0  0  0
 15 18  1  0  0  0  0
 16 17  1  0  0  0  0
 16 15  1  0  0  0  0
 17 18  1  0  0  0  0
 20 17  1  0  0  0  0
 20 21  2  0  0  0  0
 22 20  1  0  0  0  0
 23 22  1  0  0  0  0
 24 26  1  0  0  0  0
 25 26  1  0  0  0  0
 26 28  1  0  0  0  0
 27 33  1  0  0  0  0
 27 28  1  0  0  0  0
 28 29  1  0  0  0  0
 30 25  1  0  0  0  0
 30 27  1  0  0  0  0
 31 30  1  0  0  0  0
 31 25  1  0  0  0  0
 33 32  2  0  0  0  0
 34 33  1  0  0  0  0
 35 34  1  0  0  0  0
 36 35  1  0  0  0  0
 37 36  1  0  0  0  0
 37 38  1  0  0  0  0
 39 37  1  0  0  0  0
 40 31  1  0  0  0  0
 41 40  1  0  0  0  0
 43 42  2  0  0  0  0
 43 41  1  0  0  0  0
 45 44  1  0  0  0  0
 45 43  1  0  0  0  0
 46 45  1  0  0  0  0
 46 44  1  0  0  0  0
M  END
>  <MODEL>
2

>  <REMARK>
 VINA RESULT:      -6.3      1.524      4.561
  Name = 
  14 active torsions:
  status: ('A' for Active; 'I' for Inactive)
    1  A    between atoms: C_1  and  C_23
    2  A    between atoms: C_2  and  C_13
    3  A    between atoms: C_2  and  N_44
    4  A    between atoms: C_4  and  C_24
    5  A    between atoms: C_8  and  O_37
    6  A    between atoms: C_10  and  C_41
    7  A    between atoms: C_11  and  C_30
    8  A    between atoms: C_13  and  C_30
    9  A    between atoms: C_14  and  C_19
   10  A    between atoms: C_19  and  C_35
   11  A    between atoms: N_21  and  C_23
   12  A    between atoms: C_26  and  O_37
   13  A    between atoms: C_35  and  C_42
   14  A    between atoms: C_41  and  C_42
                            x       y       z     vdW  Elec       q    Type
                         _______ _______ _______ _____ _____    ______ ____

>  <TORSDO>
F 14

$$$$
=
 OpenBabel11072413543D

 46 53  0  0  1  0  0  0  0  0999 V2000
  161.7980  205.5800  152.1460 N   0  0  0  0  0  0  0  0  0  0  0  0
  161.3640  204.3540  149.5730 C   0  0  2  0  0  3  0  0  0  0  0  0
  160.9000  206.1980  154.3310 N   0  0  0  0  0  0  0  0  0  0  0  0
  160.8680  203.5610  152.9220 O   0  0  0  0  0  0  0  0  0  0  0  0
  160.3300  204.3630  150.6850 C   0  0  1  0  0  3  0  0  0  0  0  0
  161.0070  204.4200  152.0110 C   0  0  0  0  0  0  0  0  0  0  0  0
  161.5560  207.6960  151.3910 C   0  0  1  0  0  3  0  0  0  0  0  0
  161.7150  207.8040  152.7010 C   0  0  1  0  0  3  0  0  0  0  0  0
  161.6520  206.3330  150.9880 N   0  0  2  0  0  0  0  0  0  0  0  0
  161.2330  208.9110  153.5270 C   0  0  0  0  0  3  0  0  0  0  0  0
  161.9250  206.4510  153.3110 C   0  0  2  0  0  3  0  0  0  0  0  0
  160.3330  207.1700  155.0000 C   0  0  0  0  0  3  0  0  0  0  0  0
  160.7690  205.6820  150.0160 C   0  0  1  0  0  3  0  0  0  0  0  0
  160.5900  208.5930  154.6580 C   0  0  0  0  0  3  0  0  0  0  0  0
  160.6280  202.4340  148.3220 C   0  0  0  0  0  0  0  0  0  0  0  0
  161.6220  202.4470  147.2590 N   0  0  0  0  0  2  0  0  0  0  0  0
  161.6410  203.8760  147.2200 N   0  0  0  0  0  0  0  0  0  0  0  0
  160.7050  203.8580  148.2890 C   0  0  2  0  0  3  0  0  0  0  0  0
  159.9990  201.5580  148.9710 O   0  0  0  0  0  0  0  0  0  0  0  0
  162.2600  204.8570  146.3910 C   0  0  0  0  0  0  0  0  0  0  0  0
  163.4980  204.6790  145.9550 C   0  0  0  0  0  2  0  0  0  0  0  0
  161.5360  206.1170  146.0660 C   0  0  0  0  0  2  0  0  0  0  0  0
  160.5040  205.8560  144.9890 C   0  0  0  0  0  1  0  0  0  0  0  0
  161.2110  208.7590  150.5530 O   0  0  0  0  0  0  0  0  0  0  0  0
  161.8480  211.0450  151.1150 C   0  0  1  0  0  3  0  0  0  0  0  0
  162.1130  209.8140  150.2430 C   0  0  2  0  0  3  0  0  0  0  0  0
  160.9860  211.4330  148.9030 C   0  0  1  0  0  3  0  0  0  0  0  0
  161.9260  210.2430  148.8060 C   0  0  1  0  0  3  0  0  0  0  0  0
  163.1680  210.6180  148.2860 O   0  0  0  0  0  1  0  0  0  0  0  0
  161.1910  212.0530  150.2760 C   0  0  1  0  0  3  0  0  0  0  0  0
  160.4050  211.3000  151.2660 N   0  0  0  0  0  0  0  0  0  0  0  0
  161.7990  213.4270  147.9030 O   0  0  0  0  0  0  0  0  0  0  0  0
  161.1120  212.4220  147.7780 C   0  0  0  0  0  0  0  0  0  0  0  0
  160.4200  212.1470  146.4810 C   0  0  0  0  0  2  0  0  0  0  0  0
  160.4190  213.3720  145.5830 C   0  0  0  0  0  2  0  0  0  0  0  0
  160.5220  212.9500  144.1240 C   0  0  0  0  0  2  0  0  0  0  0  0
  161.9240  213.1560  143.5670 C   0  0  0  0  0  3  0  0  0  0  0  0
  162.8600  213.2500  144.6000 O   0  0  0  0  0  1  0  0  0  0  0  0
  162.2660  212.1150  142.7040 O   0  0  0  0  0  1  0  0  0  0  0  0
  160.2640  212.1460  152.4400 C   0  0  0  0  0  2  0  0  0  0  0  0
  158.8840  212.7810  152.4560 C   0  0  0  0  0  2  0  0  0  0  0  0
  158.2090  211.1940  154.0690 O   0  0  0  0  0  0  0  0  0  0  0  0
  158.1000  212.3380  153.6530 C   0  0  0  0  0  0  0  0  0  0  0  0
  156.3580  213.8960  153.4180 O   0  0  0  0  0  0  0  0  0  0  0  0
  157.1850  213.2970  154.3420 C   0  0  0  0  0  3  0  0  0  0  0  0
  155.8750  212.8970  154.1740 O   0  0  0  0  0  0  0  0  0  0  0  0
  1 11  1  0  0  0  0
  2 18  1  6  0  0  0
  2 13  1  0  0  0  0
  2  5  1  0  0  0  0
  3 12  2  0  0  0  0
  5  6  1  1  0  0  0
  6  1  1  0  0  0  0
  6  4  2  0  0  0  0
  7 24  1  1  0  0  0
  7  8  1  0  0  0  0
  8 11  1  0  0  0  0
  8 10  1  1  0  0  0
  9  7  1  0  0  0  0
  9  1  1  1  0  0  0
 10 14  2  0  0  0  0
 11  3  1  1  0  0  0
 13  5  1  0  0  0  0
 13  9  1  0  0  0  0
 14 12  1  0  0  0  0
 15 19  2  0  0  0  0
 16 15  1  0  0  0  0
 17 16  1  0  0  0  0
 17 18  1  0  0  0  0
 18 15  1  0  0  0  0
 20 17  1  0  0  0  0
 21 20  2  0  0  0  0
 22 20  1  0  0  0  0
 23 22  1  0  0  0  0
 25 31  1  0  0  0  0
 26 24  1  0  0  0  0
 26 25  1  0  0  0  0
 27 30  1  0  0  0  0
 28 27  1  0  0  0  0
 28 26  1  0  0  0  0
 29 28  1  0  0  0  0
 30 25  1  0  0  0  0
 30 31  1  0  0  0  0
 31 40  1  0  0  0  0
 33 32  2  0  0  0  0
 33 27  1  0  0  0  0
 34 33  1  0  0  0  0
 35 34  1  0  0  0  0
 36 35  1  0  0  0  0
 37 36  1  0  0  0  0
 37 38  1  0  0  0  0
 39 37  1  0  0  0  0
 40 41  1  0  0  0  0
 41 43  1  0  0  0  0
 43 42  2  0  0  0  0
 43 45  1  0  0  0  0
 44 46  1  0  0  0  0
 44 45  1  0  0  0  0
 46 45  1  0  0  0  0
M  END
>  <MODEL>
3

>  <REMARK>
 VINA RESULT:      -5.8      2.622      9.490
  Name = 
  14 active torsions:
  status: ('A' for Active; 'I' for Inactive)
    1  A    between atoms: C_1  and  C_23
    2  A    between atoms: C_2  and  C_13
    3  A    between atoms: C_2  and  N_44
    4  A    between atoms: C_4  and  C_24
    5  A    between atoms: C_8  and  O_37
    6  A    between atoms: C_10  and  C_41
    7  A    between atoms: C_11  and  C_30
    8  A    between atoms: C_13  and  C_30
    9  A    between atoms: C_14  and  C_19
   10  A    between atoms: C_19  and  C_35
   11  A    between atoms: N_21  and  C_23
   12  A    between atoms: C_26  and  O_37
   13  A    between atoms: C_35  and  C_42
   14  A    between atoms: C_41  and  C_42
                            x       y       z     vdW  Elec       q    Type
                         _______ _______ _______ _____ _____    ______ ____

>  <TORSDO>
F 14

$$$$
=
 OpenBabel11072413543D

 46 53  0  0  1  0  0  0  0  0999 V2000
  161.8060  205.9910  152.3310 N   0  0  0  0  0  0  0  0  0  0  0  0
  161.4800  204.7680  149.7400 C   0  0  2  0  0  3  0  0  0  0  0  0
  160.8400  206.5440  154.5050 N   0  0  0  0  0  0  0  0  0  0  0  0
  160.9660  203.9200  153.0730 O   0  0  0  0  0  0  0  0  0  0  0  0
  160.4270  204.7150  150.8330 C   0  0  1  0  0  3  0  0  0  0  0  0
  161.0770  204.7940  152.1720 C   0  0  0  0  0  0  0  0  0  0  0  0
  161.4710  208.0990  151.5890 C   0  0  1  0  0  3  0  0  0  0  0  0
  161.6020  208.2030  152.9030 C   0  0  1  0  0  3  0  0  0  0  0  0
  161.6420  206.7460  151.1770 N   0  0  2  0  0  0  0  0  0  0  0  0
  161.0500  209.2770  153.7290 C   0  0  0  0  0  3  0  0  0  0  0  0
  161.8690  206.8570  153.5050 C   0  0  2  0  0  3  0  0  0  0  0  0
  160.2130  207.4790  155.1710 C   0  0  0  0  0  3  0  0  0  0  0  0
  160.8110  206.0600  150.1840 C   0  0  1  0  0  3  0  0  0  0  0  0
  160.4040  208.9170  154.8460 C   0  0  0  0  0  3  0  0  0  0  0  0
  161.0810  202.8430  148.3510 C   0  0  0  0  0  0  0  0  0  0  0  0
  161.9960  203.1440  147.2610 N   0  0  0  0  0  2  0  0  0  0  0  0
  161.7260  204.5440  147.3470 N   0  0  0  0  0  0  0  0  0  0  0  0
  160.8680  204.2510  148.4410 C   0  0  2  0  0  3  0  0  0  0  0  0
  160.6740  201.8090  148.9420 O   0  0  0  0  0  0  0  0  0  0  0  0
  162.0920  205.6940  146.5870 C   0  0  0  0  0  0  0  0  0  0  0  0
  162.0650  206.8980  147.1400 C   0  0  0  0  0  2  0  0  0  0  0  0
  162.4450  205.5500  145.1470 C   0  0  0  0  0  2  0  0  0  0  0  0
  161.1850  205.3990  144.3210 C   0  0  0  0  0  1  0  0  0  0  0  0
  161.0880  209.1510  150.7540 O   0  0  0  0  0  0  0  0  0  0  0  0
  161.5980  211.4920  151.2060 C   0  0  1  0  0  3  0  0  0  0  0  0
  161.9610  210.2250  150.4250 C   0  0  2  0  0  3  0  0  0  0  0  0
  160.8380  211.7100  148.9340 C   0  0  1  0  0  3  0  0  0  0  0  0
  161.8320  210.5590  148.9580 C   0  0  1  0  0  3  0  0  0  0  0  0
  163.0830  210.9590  148.4780 O   0  0  0  0  0  1  0  0  0  0  0  0
  160.9440  212.4180  150.2750 C   0  0  1  0  0  3  0  0  0  0  0  0
  160.1400  211.6900  151.2690 N   0  0  0  0  0  0  0  0  0  0  0  0
  161.7230  213.6080  147.8150 O   0  0  0  0  0  0  0  0  0  0  0  0
  160.9830  212.6350  147.7580 C   0  0  0  0  0  0  0  0  0  0  0  0
  160.2400  212.3340  146.4950 C   0  0  0  0  0  2  0  0  0  0  0  0
  158.7920  212.7870  146.5820 C   0  0  0  0  0  2  0  0  0  0  0  0
  158.6970  214.0720  147.3910 C   0  0  0  0  0  2  0  0  0  0  0  0
  157.6430  213.9810  148.4870 C   0  0  0  0  0  3  0  0  0  0  0  0
  157.1950  212.6660  148.6350 O   0  0  0  0  0  1  0  0  0  0  0  0
  158.1540  214.4530  149.6960 O   0  0  0  0  0  1  0  0  0  0  0  0
  159.9010  212.5960  152.3800 C   0  0  0  0  0  2  0  0  0  0  0  0
  158.6900  212.1350  153.1720 C   0  0  0  0  0  2  0  0  0  0  0  0
  157.2040  213.7230  154.0910 O   0  0  0  0  0  0  0  0  0  0  0  0
  158.2850  213.1610  154.1850 C   0  0  0  0  0  0  0  0  0  0  0  0
  158.5920  213.1930  156.5140 O   0  0  0  0  0  0  0  0  0  0  0  0
  159.2020  213.4950  155.3160 C   0  0  0  0  0  3  0  0  0  0  0  0
  159.5130  212.3510  156.0210 O   0  0  0  0  0  0  0  0  0  0  0  0
  1 11  1  0  0  0  0
  2 18  1  6  0  0  0
  2 13  1  0  0  0  0
  2  5  1  0  0  0  0
  3 12  2  0  0  0  0
  5  6  1  1  0  0  0
  6  1  1  0  0  0  0
  6  4  2  0  0  0  0
  7 24  1  1  0  0  0
  7  8  1  0  0  0  0
  8 11  1  0  0  0  0
  8 10  1  1  0  0  0
  9  7  1  0  0  0  0
  9  1  1  1  0  0  0
 10 14  2  0  0  0  0
 11  3  1  1  0  0  0
 13  5  1  0  0  0  0
 13  9  1  0  0  0  0
 14 12  1  0  0  0  0
 15 18  1  0  0  0  0
 15 19  2  0  0  0  0
 16 17  1  0  0  0  0
 16 15  1  0  0  0  0
 17 18  1  0  0  0  0
 20 21  2  0  0  0  0
 20 17  1  0  0  0  0
 22 20  1  0  0  0  0
 23 22  1  0  0  0  0
 25 31  1  0  0  0  0
 26 24  1  0  0  0  0
 26 25  1  0  0  0  0
 27 28  1  0  0  0  0
 27 30  1  0  0  0  0
 28 26  1  0  0  0  0
 29 28  1  0  0  0  0
 30 25  1  0  0  0  0
 30 31  1  0  0  0  0
 31 40  1  0  0  0  0
 33 32  2  0  0  0  0
 33 27  1  0  0  0  0
 34 35  1  0  0  0  0
 34 33  1  0  0  0  0
 35 36  1  0  0  0  0
 36 37  1  0  0  0  0
 37 38  1  0  0  0  0
 37 39  1  0  0  0  0
 40 41  1  0  0  0  0
 41 43  1  0  0  0  0
 42 43  2  0  0  0  0
 43 45  1  0  0  0  0
 45 46  1  0  0  0  0
 45 44  1  0  0  0  0
 46 44  1  0  0  0  0
M  END
>  <MODEL>
4

>  <REMARK>
 VINA RESULT:      -5.2      2.245      9.540
  Name = 
  14 active torsions:
  status: ('A' for Active; 'I' for Inactive)
    1  A    between atoms: C_1  and  C_23
    2  A    between atoms: C_2  and  C_13
    3  A    between atoms: C_2  and  N_44
    4  A    between atoms: C_4  and  C_24
    5  A    between atoms: C_8  and  O_37
    6  A    between atoms: C_10  and  C_41
    7  A    between atoms: C_11  and  C_30
    8  A    between atoms: C_13  and  C_30
    9  A    between atoms: C_14  and  C_19
   10  A    between atoms: C_19  and  C_35
   11  A    between atoms: N_21  and  C_23
   12  A    between atoms: C_26  and  O_37
   13  A    between atoms: C_35  and  C_42
   14  A    between atoms: C_41  and  C_42
                            x       y       z     vdW  Elec       q    Type
                         _______ _______ _______ _____ _____    ______ ____

>  <TORSDO>
F 14

$$$$
=
 OpenBabel11072413543D

 46 53  0  0  1  0  0  0  0  0999 V2000
  160.6690  212.7430  151.0220 N   0  0  0  0  0  0  0  0  0  0  0  0
  160.2380  211.3490  153.5090 C   0  0  2  0  0  3  0  0  0  0  0  0
  159.7580  213.5370  148.8990 N   0  0  0  0  0  0  0  0  0  0  0  0
  158.7210  213.8900  151.6830 O   0  0  0  0  0  0  0  0  0  0  0  0
  159.1360  211.6330  152.5030 C   0  0  1  0  0  3  0  0  0  0  0  0
  159.4560  212.8680  151.7320 C   0  0  0  0  0  0  0  0  0  0  0  0
  161.6720  210.9970  149.9970 C   0  0  1  0  0  3  0  0  0  0  0  0
  161.5840  211.9450  149.0760 C   0  0  1  0  0  3  0  0  0  0  0  0
  161.1620  211.4640  151.2430 N   0  0  2  0  0  0  0  0  0  0  0  0
  161.5520  211.7240  147.6300 C   0  0  0  0  0  3  0  0  0  0  0  0
  160.9620  213.1780  149.6590 C   0  0  2  0  0  3  0  0  0  0  0  0
  159.6200  213.2350  147.6340 C   0  0  0  0  0  3  0  0  0  0  0  0
  160.3010  210.6890  152.1390 C   0  0  1  0  0  3  0  0  0  0  0  0
  160.6130  212.3800  146.9330 C   0  0  0  0  0  3  0  0  0  0  0  0
  158.6000  210.9790  155.2320 C   0  0  0  0  0  0  0  0  0  0  0  0
  159.4640  211.0500  156.4010 N   0  0  0  0  0  2  0  0  0  0  0  0
  160.5380  210.4060  155.7130 N   0  0  0  0  0  0  0  0  0  0  0  0
  159.7070  210.3810  154.5610 C   0  0  2  0  0  3  0  0  0  0  0  0
  157.4180  211.3070  154.9520 O   0  0  0  0  0  0  0  0  0  0  0  0
  161.8290  209.9220  156.0800 C   0  0  0  0  0  0  0  0  0  0  0  0
  162.9010  210.6830  155.9110 C   0  0  0  0  0  2  0  0  0  0  0  0
  161.9820  208.5330  156.5940 C   0  0  0  0  0  2  0  0  0  0  0  0
  160.6210  207.8890  156.7500 C   0  0  0  0  0  1  0  0  0  0  0  0
  162.0850  209.6890  149.7370 O   0  0  0  0  0  0  0  0  0  0  0  0
  161.1650  207.4790  150.2000 C   0  0  1  0  0  3  0  0  0  0  0  0
  161.1990  208.6860  149.2570 C   0  0  2  0  0  3  0  0  0  0  0  0
  162.4730  206.9370  148.2550 C   0  0  1  0  0  3  0  0  0  0  0  0
  161.6720  208.1830  147.9130 C   0  0  1  0  0  3  0  0  0  0  0  0
  160.5550  207.8710  147.1330 O   0  0  0  0  0  1  0  0  0  0  0  0
  161.9160  206.3930  149.5600 C   0  0  1  0  0  3  0  0  0  0  0  0
  162.5120  207.1330  150.6830 N   0  0  0  0  0  0  0  0  0  0  0  0
  163.1120  206.1480  146.1080 O   0  0  0  0  0  0  0  0  0  0  0  0
  162.5290  205.9100  147.1580 C   0  0  0  0  0  0  0  0  0  0  0  0
  161.8960  204.5720  147.3750 C   0  0  0  0  0  2  0  0  0  0  0  0
  161.1430  204.1080  146.1400 C   0  0  0  0  0  2  0  0  0  0  0  0
  161.5780  202.7000  145.7620 C   0  0  0  0  0  2  0  0  0  0  0  0
  160.5780  201.6500  146.2260 C   0  0  0  0  0  3  0  0  0  0  0  0
  160.0660  200.9370  145.1390 O   0  0  0  0  0  1  0  0  0  0  0  0
  161.1730  200.7750  147.1350 O   0  0  0  0  0  1  0  0  0  0  0  0
  162.3200  206.3320  151.8810 C   0  0  0  0  0  2  0  0  0  0  0  0
  162.3760  204.8550  151.5290 C   0  0  0  0  0  2  0  0  0  0  0  0
  160.7900  204.2640  153.1750 O   0  0  0  0  0  0  0  0  0  0  0  0
  161.1560  204.1370  152.0160 C   0  0  0  0  0  0  0  0  0  0  0  0
  161.1730  202.9080  150.0140 O   0  0  0  0  0  0  0  0  0  0  0  0
  160.3810  203.2650  151.0830 C   0  0  0  0  0  3  0  0  0  0  0  0
  160.9740  202.0220  151.0020 O   0  0  0  0  0  0  0  0  0  0  0  0
  1  6  1  0  0  0  0
  2 18  1  1  0  0  0
  4  6  2  0  0  0  0
  5  6  1  6  0  0  0
  5  2  1  0  0  0  0
  7 24  1  6  0  0  0
  7  9  1  0  0  0  0
  8 10  1  6  0  0  0
  8 11  1  0  0  0  0
  8  7  1  0  0  0  0
  9  1  1  6  0  0  0
  9 13  1  0  0  0  0
 11  3  1  6  0  0  0
 11  1  1  0  0  0  0
 12  3  2  0  0  0  0
 13  5  1  0  0  0  0
 13  2  1  0  0  0  0
 14 10  2  0  0  0  0
 14 12  1  0  0  0  0
 15 16  1  0  0  0  0
 17 20  1  0  0  0  0
 17 16  1  0  0  0  0
 18 15  1  0  0  0  0
 18 17  1  0  0  0  0
 19 15  2  0  0  0  0
 20 22  1  0  0  0  0
 21 20  2  0  0  0  0
 22 23  1  0  0  0  0
 25 31  1  0  0  0  0
 26 24  1  0  0  0  0
 26 25  1  0  0  0  0
 27 30  1  0  0  0  0
 28 27  1  0  0  0  0
 28 26  1  0  0  0  0
 29 28  1  0  0  0  0
 30 25  1  0  0  0  0
 30 31  1  0  0  0  0
 31 40  1  0  0  0  0
 32 33  2  0  0  0  0
 33 34  1  0  0  0  0
 33 27  1  0  0  0  0
 35 34  1  0  0  0  0
 36 35  1  0  0  0  0
 36 37  1  0  0  0  0
 37 39  1  0  0  0  0
 38 37  1  0  0  0  0
 41 40  1  0  0  0  0
 41 43  1  0  0  0  0
 43 42  2  0  0  0  0
 44 46  1  0  0  0  0
 44 45  1  0  0  0  0
 45 43  1  0  0  0  0
 46 45  1  0  0  0  0
M  END
>  <MODEL>
5

>  <REMARK>
 VINA RESULT:      -4.8      1.492      3.591
  Name = 
  14 active torsions:
  status: ('A' for Active; 'I' for Inactive)
    1  A    between atoms: C_1  and  C_23
    2  A    between atoms: C_2  and  C_13
    3  A    between atoms: C_2  and  N_44
    4  A    between atoms: C_4  and  C_24
    5  A    between atoms: C_8  and  O_37
    6  A    between atoms: C_10  and  C_41
    7  A    between atoms: C_11  and  C_30
    8  A    between atoms: C_13  and  C_30
    9  A    between atoms: C_14  and  C_19
   10  A    between atoms: C_19  and  C_35
   11  A    between atoms: N_21  and  C_23
   12  A    between atoms: C_26  and  O_37
   13  A    between atoms: C_35  and  C_42
   14  A    between atoms: C_41  and  C_42
                            x       y       z     vdW  Elec       q    Type
                         _______ _______ _______ _____ _____    ______ ____

>  <TORSDO>
F 14

$$$$
=
 OpenBabel11072413543D

 46 53  0  0  1  0  0  0  0  0999 V2000
  158.4450  211.2620  155.7340 N   0  0  0  0  0  0  0  0  0  0  0  0
  156.9550  213.0540  154.0360 C   0  0  2  0  0  3  0  0  0  0  0  0
  160.3520  210.9100  157.2190 N   0  0  0  0  0  0  0  0  0  0  0  0
  158.2570  213.0440  157.2610 O   0  0  0  0  0  0  0  0  0  0  0  0
  158.1530  213.4830  154.8660 C   0  0  1  0  0  3  0  0  0  0  0  0
  158.2720  212.6200  156.0750 C   0  0  0  0  0  0  0  0  0  0  0  0
  159.5170  210.2340  154.0310 C   0  0  1  0  0  3  0  0  0  0  0  0
  160.0210  209.7050  155.1360 C   0  0  1  0  0  3  0  0  0  0  0  0
  158.4940  211.1730  154.3490 N   0  0  2  0  0  0  0  0  0  0  0  0
  161.3460  209.0970  155.2590 C   0  0  0  0  0  3  0  0  0  0  0  0
  159.3500  210.2900  156.3420 C   0  0  2  0  0  3  0  0  0  0  0  0
  161.5910  210.4910  157.2610 C   0  0  0  0  0  3  0  0  0  0  0  0
  158.3250  212.4790  153.7070 C   0  0  1  0  0  3  0  0  0  0  0  0
  162.0890  209.4610  156.3120 C   0  0  0  0  0  3  0  0  0  0  0  0
  155.1760  214.1900  152.8800 C   0  0  0  0  0  0  0  0  0  0  0  0
  155.4560  213.7500  151.5220 N   0  0  0  0  0  2  0  0  0  0  0  0
  156.8680  213.7980  151.7390 N   0  0  0  0  0  0  0  0  0  0  0  0
  156.5890  214.1830  153.0780 C   0  0  2  0  0  3  0  0  0  0  0  0
  154.1500  214.4480  153.5610 O   0  0  0  0  0  0  0  0  0  0  0  0
  158.0240  213.6280  150.9210 C   0  0  0  0  0  0  0  0  0  0  0  0
  159.2010  214.0860  151.3230 C   0  0  0  0  0  2  0  0  0  0  0  0
  157.8980  212.9920  149.5800 C   0  0  0  0  0  2  0  0  0  0  0  0
  158.9560  213.5420  148.6470 C   0  0  0  0  0  1  0  0  0  0  0  0
  160.0190  209.9950  152.7490 O   0  0  0  0  0  0  0  0  0  0  0  0
  162.1100  210.0600  151.4980 C   0  0  1  0  0  3  0  0  0  0  0  0
  161.2460  209.3150  152.5210 C   0  0  2  0  0  3  0  0  0  0  0  0
  161.1100  208.1380  150.4510 C   0  0  1  0  0  3  0  0  0  0  0  0
  160.9740  207.9420  151.9520 C   0  0  1  0  0  3  0  0  0  0  0  0
  161.9410  207.0570  152.4380 O   0  0  0  0  0  1  0  0  0  0  0  0
  162.0550  209.3100  150.2380 C   0  0  1  0  0  3  0  0  0  0  0  0
  161.3020  210.5660  150.3750 N   0  0  0  0  0  0  0  0  0  0  0  0
  162.3520  206.9600  148.8050 O   0  0  0  0  0  0  0  0  0  0  0  0
  161.5120  206.9030  149.6930 C   0  0  0  0  0  0  0  0  0  0  0  0
  160.9030  205.5870  150.0640 C   0  0  0  0  0  2  0  0  0  0  0  0
  161.0720  204.5670  148.9510 C   0  0  0  0  0  2  0  0  0  0  0  0
  161.0330  203.1590  149.5250 C   0  0  0  0  0  2  0  0  0  0  0  0
  160.9140  202.1010  148.4370 C   0  0  0  0  0  3  0  0  0  0  0  0
  159.6330  201.5450  148.4220 O   0  0  0  0  0  1  0  0  0  0  0  0
  161.2140  202.6470  147.1880 O   0  0  0  0  0  1  0  0  0  0  0  0
  162.0910  211.6140  149.7480 C   0  0  0  0  0  2  0  0  0  0  0  0
  162.1330  211.4010  148.2450 C   0  0  0  0  0  2  0  0  0  0  0  0
  163.9650  212.7740  147.6680 O   0  0  0  0  0  0  0  0  0  0  0  0
  162.7660  212.5670  147.5520 C   0  0  0  0  0  0  0  0  0  0  0  0
  162.2700  213.3270  145.3850 O   0  0  0  0  0  0  0  0  0  0  0  0
  161.9320  213.4780  146.7110 C   0  0  0  0  0  3  0  0  0  0  0  0
  161.1570  212.7360  145.8440 O   0  0  0  0  0  0  0  0  0  0  0  0
  1  6  1  0  0  0  0
  1 11  1  0  0  0  0
  2 18  1  6  0  0  0
  2  5  1  0  0  0  0
  3 12  2  0  0  0  0
  5  6  1  1  0  0  0
  6  4  2  0  0  0  0
  7 24  1  1  0  0  0
  7  9  1  0  0  0  0
  7  8  1  0  0  0  0
  8 10  1  1  0  0  0
  8 11  1  0  0  0  0
  9  1  1  1  0  0  0
 10 14  2  0  0  0  0
 11  3  1  1  0  0  0
 13  2  1  0  0  0  0
 13  9  1  0  0  0  0
 13  5  1  0  0  0  0
 14 12  1  0  0  0  0
 15 18  1  0  0  0  0
 15 19  2  0  0  0  0
 16 17  1  0  0  0  0
 16 15  1  0  0  0  0
 17 18  1  0  0  0  0
 20 21  2  0  0  0  0
 20 17  1  0  0  0  0
 22 20  1  0  0  0  0
 23 22  1  0  0  0  0
 25 26  1  0  0  0  0
 26 24  1  0  0  0  0
 27 28  1  0  0  0  0
 28 29  1  0  0  0  0
 28 26  1  0  0  0  0
 30 31  1  0  0  0  0
 30 27  1  0  0  0  0
 30 25  1  0  0  0  0
 31 25  1  0  0  0  0
 32 33  2  0  0  0  0
 33 34  1  0  0  0  0
 33 27  1  0  0  0  0
 35 36  1  0  0  0  0
 35 34  1  0  0  0  0
 37 36  1  0  0  0  0
 38 37  1  0  0  0  0
 39 37  1  0  0  0  0
 40 31  1  0  0  0  0
 41 40  1  0  0  0  0
 43 42  2  0  0  0  0
 43 41  1  0  0  0  0
 44 46  1  0  0  0  0
 44 45  1  0  0  0  0
 45 43  1  0  0  0  0
 46 45  1  0  0  0  0
M  END
>  <MODEL>
6

>  <REMARK>
 VINA RESULT:      -4.8      2.403      5.467
  Name = 
  14 active torsions:
  status: ('A' for Active; 'I' for Inactive)
    1  A    between atoms: C_1  and  C_23
    2  A    between atoms: C_2  and  C_13
    3  A    between atoms: C_2  and  N_44
    4  A    between atoms: C_4  and  C_24
    5  A    between atoms: C_8  and  O_37
    6  A    between atoms: C_10  and  C_41
    7  A    between atoms: C_11  and  C_30
    8  A    between atoms: C_13  and  C_30
    9  A    between atoms: C_14  and  C_19
   10  A    between atoms: C_19  and  C_35
   11  A    between atoms: N_21  and  C_23
   12  A    between atoms: C_26  and  O_37
   13  A    between atoms: C_35  and  C_42
   14  A    between atoms: C_41  and  C_42
                            x       y       z     vdW  Elec       q    Type
                         _______ _______ _______ _____ _____    ______ ____

>  <TORSDO>
F 14

$$$$
=
 OpenBabel11072413543D

 46 53  0  0  1  0  0  0  0  0999 V2000
  162.1310  207.8020  152.1600 N   0  0  0  0  0  0  0  0  0  0  0  0
  162.3220  206.1510  149.8040 C   0  0  2  0  0  3  0  0  0  0  0  0
  160.8130  208.5430  154.0780 N   0  0  0  0  0  0  0  0  0  0  0  0
  161.4630  205.7740  153.1530 O   0  0  0  0  0  0  0  0  0  0  0  0
  161.1440  206.1170  150.7610 C   0  0  1  0  0  3  0  0  0  0  0  0
  161.5870  206.5010  152.1310 C   0  0  0  0  0  0  0  0  0  0  0  0
  161.6400  209.6940  151.0260 C   0  0  1  0  0  3  0  0  0  0  0  0
  161.5740  210.0220  152.3080 C   0  0  1  0  0  3  0  0  0  0  0  0
  162.0350  208.3330  150.8800 N   0  0  2  0  0  0  0  0  0  0  0  0
  160.7830  211.1210  152.8640 C   0  0  0  0  0  3  0  0  0  0  0  0
  161.9220  208.8420  153.1630 C   0  0  2  0  0  3  0  0  0  0  0  0
  159.9870  209.4700  154.4930 C   0  0  0  0  0  3  0  0  0  0  0  0
  161.4420  207.3840  149.9340 C   0  0  1  0  0  3  0  0  0  0  0  0
  160.0390  210.8500  153.9440 C   0  0  0  0  0  3  0  0  0  0  0  0
  161.1180  206.1390  147.7210 C   0  0  0  0  0  0  0  0  0  0  0  0
  160.0620  205.1970  148.0620 N   0  0  0  0  0  2  0  0  0  0  0  0
  160.9500  204.4040  148.8530 N   0  0  0  0  0  0  0  0  0  0  0  0
  161.9660  205.3510  148.5540 C   0  0  2  0  0  3  0  0  0  0  0  0
  161.2210  207.1760  147.0160 O   0  0  0  0  0  0  0  0  0  0  0  0
  160.8540  203.1590  149.5420 C   0  0  0  0  0  0  0  0  0  0  0  0
  160.8470  203.1260  150.8660 C   0  0  0  0  0  2  0  0  0  0  0  0
  160.8270  201.8850  148.7710 C   0  0  0  0  0  2  0  0  0  0  0  0
  161.2190  202.1450  147.3320 C   0  0  0  0  0  1  0  0  0  0  0  0
  161.2470  210.5340  149.9810 O   0  0  0  0  0  0  0  0  0  0  0  0
  161.2070  212.9710  149.9540 C   0  0  1  0  0  3  0  0  0  0  0  0
  161.9810  211.6940  149.6130 C   0  0  2  0  0  3  0  0  0  0  0  0
  161.0840  212.5710  147.5840 C   0  0  1  0  0  3  0  0  0  0  0  0
  162.2110  211.7030  148.1200 C   0  0  1  0  0  3  0  0  0  0  0  0
  163.4600  212.2770  147.8630 O   0  0  0  0  0  1  0  0  0  0  0  0
  160.6910  213.5280  148.6980 C   0  0  1  0  0  3  0  0  0  0  0  0
  159.7770  212.8410  149.6240 N   0  0  0  0  0  0  0  0  0  0  0  0
  162.1750  214.2010  146.2460 O   0  0  0  0  0  0  0  0  0  0  0  0
  161.3910  213.2620  146.2850 C   0  0  0  0  0  0  0  0  0  0  0  0
  160.7570  212.7650  145.0240 C   0  0  0  0  0  2  0  0  0  0  0  0
  159.2410  212.8040  145.1140 C   0  0  0  0  0  2  0  0  0  0  0  0
  158.7600  214.2460  145.1850 C   0  0  0  0  0  2  0  0  0  0  0  0
  157.4720  214.3800  145.9860 C   0  0  0  0  0  3  0  0  0  0  0  0
  156.3590  214.1210  145.1820 O   0  0  0  0  0  1  0  0  0  0  0  0
  157.4840  213.5160  147.0810 O   0  0  0  0  0  1  0  0  0  0  0  0
  159.0890  213.8650  150.3920 C   0  0  0  0  0  2  0  0  0  0  0  0
  157.6000  213.5690  150.4310 C   0  0  0  0  0  2  0  0  0  0  0  0
  155.8130  214.4530  151.6960 O   0  0  0  0  0  0  0  0  0  0  0  0
  156.9790  214.0860  151.6910 C   0  0  0  0  0  0  0  0  0  0  0  0
  156.9580  214.4290  154.0150 O   0  0  0  0  0  0  0  0  0  0  0  0
  157.7830  214.1490  152.9480 C   0  0  0  0  0  3  0  0  0  0  0  0
  157.3660  213.1650  153.8210 O   0  0  0  0  0  0  0  0  0  0  0  0
  1 11  1  0  0  0  0
  2 18  1  6  0  0  0
  2 13  1  0  0  0  0
  2  5  1  0  0  0  0
  3 12  2  0  0  0  0
  5  6  1  1  0  0  0
  6  1  1  0  0  0  0
  6  4  2  0  0  0  0
  7 24  1  1  0  0  0
  7  8  1  0  0  0  0
  8 10  1  1  0  0  0
  8 11  1  0  0  0  0
  9  7  1  0  0  0  0
  9  1  1  1  0  0  0
 10 14  2  0  0  0  0
 11  3  1  1  0  0  0
 13  5  1  0  0  0  0
 13  9  1  0  0  0  0
 14 12  1  0  0  0  0
 15 16  1  0  0  0  0
 15 18  1  0  0  0  0
 16 17  1  0  0  0  0
 17 20  1  0  0  0  0
 18 17  1  0  0  0  0
 19 15  2  0  0  0  0
 20 21  2  0  0  0  0
 22 20  1  0  0  0  0
 23 22  1  0  0  0  0
 26 25  1  0  0  0  0
 26 24  1  0  0  0  0
 27 28  1  0  0  0  0
 27 30  1  0  0  0  0
 28 26  1  0  0  0  0
 29 28  1  0  0  0  0
 30 31  1  0  0  0  0
 30 25  1  0  0  0  0
 31 25  1  0  0  0  0
 31 40  1  0  0  0  0
 32 33  2  0  0  0  0
 33 27  1  0  0  0  0
 34 35  1  0  0  0  0
 34 33  1  0  0  0  0
 35 36  1  0  0  0  0
 36 37  1  0  0  0  0
 37 39  1  0  0  0  0
 38 37  1  0  0  0  0
 40 41  1  0  0  0  0
 41 43  1  0  0  0  0
 43 42  2  0  0  0  0
 43 45  1  0  0  0  0
 45 46  1  0  0  0  0
 45 44  1  0  0  0  0
 46 44  1  0  0  0  0
M  END
>  <MODEL>
7

>  <REMARK>
 VINA RESULT:      -4.2      2.559      9.146
  Name = 
  14 active torsions:
  status: ('A' for Active; 'I' for Inactive)
    1  A    between atoms: C_1  and  C_23
    2  A    between atoms: C_2  and  C_13
    3  A    between atoms: C_2  and  N_44
    4  A    between atoms: C_4  and  C_24
    5  A    between atoms: C_8  and  O_37
    6  A    between atoms: C_10  and  C_41
    7  A    between atoms: C_11  and  C_30
    8  A    between atoms: C_13  and  C_30
    9  A    between atoms: C_14  and  C_19
   10  A    between atoms: C_19  and  C_35
   11  A    between atoms: N_21  and  C_23
   12  A    between atoms: C_26  and  O_37
   13  A    between atoms: C_35  and  C_42
   14  A    between atoms: C_41  and  C_42
                            x       y       z     vdW  Elec       q    Type
                         _______ _______ _______ _____ _____    ______ ____

>  <TORSDO>
F 14

$$$$
=
 OpenBabel11072413543D

 46 53  0  0  1  0  0  0  0  0999 V2000
  161.3240  209.2960  149.5320 N   0  0  0  0  0  0  0  0  0  0  0  0
  161.5050  207.2020  151.5060 C   0  0  2  0  0  3  0  0  0  0  0  0
  162.4740  210.8720  148.0630 N   0  0  0  0  0  0  0  0  0  0  0  0
  162.8540  207.9230  148.3830 O   0  0  0  0  0  0  0  0  0  0  0  0
  162.7110  207.8110  150.8130 C   0  0  1  0  0  3  0  0  0  0  0  0
  162.3270  208.3070  149.4610 C   0  0  0  0  0  0  0  0  0  0  0  0
  160.8870  210.9310  151.0290 C   0  0  1  0  0  3  0  0  0  0  0  0
  160.9780  211.5400  149.8560 C   0  0  1  0  0  3  0  0  0  0  0  0
  161.0430  209.5230  150.8730 N   0  0  2  0  0  0  0  0  0  0  0  0
  161.3370  212.9440  149.6540 C   0  0  0  0  0  3  0  0  0  0  0  0
  161.2310  210.5380  148.7710 C   0  0  2  0  0  3  0  0  0  0  0  0
  162.9140  212.1020  147.9760 C   0  0  0  0  0  3  0  0  0  0  0  0
  161.8390  208.6650  151.7550 C   0  0  1  0  0  3  0  0  0  0  0  0
  162.2560  213.2100  148.7160 C   0  0  0  0  0  3  0  0  0  0  0  0
  161.6230  204.9700  152.3990 C   0  0  0  0  0  0  0  0  0  0  0  0
  160.6870  205.1070  153.5040 N   0  0  0  0  0  2  0  0  0  0  0  0
  161.1070  206.4470  153.7670 N   0  0  0  0  0  0  0  0  0  0  0  0
  161.9870  206.3250  152.6570 C   0  0  2  0  0  3  0  0  0  0  0  0
  161.9490  204.0660  151.5870 O   0  0  0  0  0  0  0  0  0  0  0  0
  160.8240  207.4180  154.7720 C   0  0  0  0  0  0  0  0  0  0  0  0
  161.5800  208.5000  154.8890 C   0  0  0  0  0  2  0  0  0  0  0  0
  159.7130  207.1850  155.7370 C   0  0  0  0  0  2  0  0  0  0  0  0
  160.2710  207.0280  157.1350 C   0  0  0  0  0  1  0  0  0  0  0  0
  160.7840  211.5980  152.2520 O   0  0  0  0  0  0  0  0  0  0  0  0
  158.4420  212.1120  152.6950 C   0  0  1  0  0  3  0  0  0  0  0  0
  159.7080  211.3810  153.1550 C   0  0  2  0  0  3  0  0  0  0  0  0
  159.4400  213.3160  154.5240 C   0  0  1  0  0  3  0  0  0  0  0  0
  160.0630  211.9290  154.5180 C   0  0  1  0  0  3  0  0  0  0  0  0
  159.4880  211.1100  155.4930 O   0  0  0  0  0  1  0  0  0  0  0  0
  158.2610  213.2790  153.5650 C   0  0  1  0  0  3  0  0  0  0  0  0
  158.7520  213.4610  152.1910 N   0  0  0  0  0  0  0  0  0  0  0  0
  159.9270  213.9060  156.7720 O   0  0  0  0  0  0  0  0  0  0  0  0
  159.0820  213.8330  155.8890 C   0  0  0  0  0  0  0  0  0  0  0  0
  157.6850  214.3000  156.1510 C   0  0  0  0  0  2  0  0  0  0  0  0
  156.8700  213.2350  156.8660 C   0  0  0  0  0  2  0  0  0  0  0  0
  155.7890  212.6980  155.9400 C   0  0  0  0  0  2  0  0  0  0  0  0
  155.7440  211.1760  155.9370 C   0  0  0  0  0  3  0  0  0  0  0  0
  154.8350  210.7050  156.8870 O   0  0  0  0  0  1  0  0  0  0  0  0
  155.4040  210.7000  154.6700 O   0  0  0  0  0  1  0  0  0  0  0  0
  157.6160  213.8590  151.3750 C   0  0  0  0  0  2  0  0  0  0  0  0
  158.0560  214.0480  149.9330 C   0  0  0  0  0  2  0  0  0  0  0  0
  155.7820  213.7100  149.3950 O   0  0  0  0  0  0  0  0  0  0  0  0
  156.9320  213.7700  148.9850 C   0  0  0  0  0  0  0  0  0  0  0  0
  158.4330  212.9490  147.3760 O   0  0  0  0  0  0  0  0  0  0  0  0
  157.2140  213.5700  147.5310 C   0  0  0  0  0  3  0  0  0  0  0  0
  157.3120  212.2220  147.2560 O   0  0  0  0  0  0  0  0  0  0  0  0
  2 13  1  0  0  0  0
  2 18  1  1  0  0  0
  4  6  2  0  0  0  0
  5  6  1  6  0  0  0
  5  2  1  0  0  0  0
  5 13  1  0  0  0  0
  6  1  1  0  0  0  0
  7 24  1  1  0  0  0
  8 10  1  1  0  0  0
  8  7  1  0  0  0  0
  9  1  1  6  0  0  0
  9  7  1  0  0  0  0
  9 13  1  0  0  0  0
 11  3  1  1  0  0  0
 11  1  1  0  0  0  0
 11  8  1  0  0  0  0
 12  3  2  0  0  0  0
 12 14  1  0  0  0  0
 14 10  2  0  0  0  0
 15 18  1  0  0  0  0
 15 16  1  0  0  0  0
 16 17  1  0  0  0  0
 17 20  1  0  0  0  0
 18 17  1  0  0  0  0
 19 15  2  0  0  0  0
 20 21  2  0  0  0  0
 20 22  1  0  0  0  0
 22 23  1  0  0  0  0
 24 26  1  0  0  0  0
 25 26  1  0  0  0  0
 25 30  1  0  0  0  0
 26 28  1  0  0  0  0
 27 33  1  0  0  0  0
 28 27  1  0  0  0  0
 28 29  1  0  0  0  0
 30 27  1  0  0  0  0
 31 25  1  0  0  0  0
 31 30  1  0  0  0  0
 33 34  1  0  0  0  0
 33 32  2  0  0  0  0
 34 35  1  0  0  0  0
 36 35  1  0  0  0  0
 37 36  1  0  0  0  0
 37 38  1  0  0  0  0
 39 37  1  0  0  0  0
 40 31  1  0  0  0  0
 41 40  1  0  0  0  0
 43 42  2  0  0  0  0
 43 41  1  0  0  0  0
 44 45  1  0  0  0  0
 45 43  1  0  0  0  0
 46 44  1  0  0  0  0
 46 45  1  0  0  0  0
M  END
>  <MODEL>
8

>  <REMARK>
 VINA RESULT:      -3.9      2.871      7.635
  Name = 
  14 active torsions:
  status: ('A' for Active; 'I' for Inactive)
    1  A    between atoms: C_1  and  C_23
    2  A    between atoms: C_2  and  C_13
    3  A    between atoms: C_2  and  N_44
    4  A    between atoms: C_4  and  C_24
    5  A    between atoms: C_8  and  O_37
    6  A    between atoms: C_10  and  C_41
    7  A    between atoms: C_11  and  C_30
    8  A    between atoms: C_13  and  C_30
    9  A    between atoms: C_14  and  C_19
   10  A    between atoms: C_19  and  C_35
   11  A    between atoms: N_21  and  C_23
   12  A    between atoms: C_26  and  O_37
   13  A    between atoms: C_35  and  C_42
   14  A    between atoms: C_41  and  C_42
                            x       y       z     vdW  Elec       q    Type
                         _______ _______ _______ _____ _____    ______ ____

>  <TORSDO>
F 14

$$$$
=
 OpenBabel11072413543D

 46 53  0  0  1  0  0  0  0  0999 V2000
  162.2400  206.7430  152.6260 N   0  0  0  0  0  0  0  0  0  0  0  0
  162.7130  207.1290  149.8080 C   0  0  2  0  0  3  0  0  0  0  0  0
  160.7950  205.8700  154.3910 N   0  0  0  0  0  0  0  0  0  0  0  0
  161.8660  204.5200  151.9450 O   0  0  0  0  0  0  0  0  0  0  0  0
  161.5370  206.3450  150.3630 C   0  0  1  0  0  3  0  0  0  0  0  0
  161.8970  205.7520  151.6830 C   0  0  0  0  0  0  0  0  0  0  0  0
  161.4910  208.8450  152.9820 C   0  0  1  0  0  3  0  0  0  0  0  0
  161.3560  208.2200  154.1420 C   0  0  1  0  0  3  0  0  0  0  0  0
  162.0870  207.9820  152.0180 N   0  0  2  0  0  0  0  0  0  0  0  0
  160.4010  208.5750  155.1930 C   0  0  0  0  0  3  0  0  0  0  0  0
  161.8620  206.8140  154.0350 C   0  0  2  0  0  3  0  0  0  0  0  0
  159.8340  206.1900  155.2190 C   0  0  0  0  0  3  0  0  0  0  0  0
  161.6570  207.8600  150.6220 C   0  0  1  0  0  3  0  0  0  0  0  0
  159.6880  207.5770  155.7320 C   0  0  0  0  0  3  0  0  0  0  0  0
  161.4440  208.2830  148.1210 C   0  0  0  0  0  0  0  0  0  0  0  0
  160.6700  207.1660  147.6000 N   0  0  0  0  0  2  0  0  0  0  0  0
  161.7640  206.2610  147.7620 N   0  0  0  0  0  0  0  0  0  0  0  0
  162.5010  207.3450  148.3130 C   0  0  2  0  0  3  0  0  0  0  0  0
  161.2530  209.5120  148.3140 O   0  0  0  0  0  0  0  0  0  0  0  0
  162.0110  204.8990  147.4180 C   0  0  0  0  0  0  0  0  0  0  0  0
  161.3890  203.9230  148.0640 C   0  0  0  0  0  2  0  0  0  0  0  0
  163.0190  204.5690  146.3730 C   0  0  0  0  0  2  0  0  0  0  0  0
  162.3280  204.3320  145.0470 C   0  0  0  0  0  1  0  0  0  0  0  0
  160.9940  210.1240  152.7190 O   0  0  0  0  0  0  0  0  0  0  0  0
  159.1240  211.5820  152.1510 C   0  0  1  0  0  3  0  0  0  0  0  0
  159.6940  210.5380  153.1180 C   0  0  2  0  0  3  0  0  0  0  0  0
  159.8460  212.6730  154.1700 C   0  0  1  0  0  3  0  0  0  0  0  0
  159.7570  211.1880  154.4800 C   0  0  1  0  0  3  0  0  0  0  0  0
  158.5840  210.8840  155.1760 O   0  0  0  0  0  1  0  0  0  0  0  0
  159.1840  212.8870  152.8190 C   0  0  1  0  0  3  0  0  0  0  0  0
  160.1460  212.5650  151.7540 N   0  0  0  0  0  0  0  0  0  0  0  0
  159.8290  213.6080  156.3520 O   0  0  0  0  0  0  0  0  0  0  0  0
  159.3040  213.5700  155.2480 C   0  0  0  0  0  0  0  0  0  0  0  0
  158.1350  214.4530  154.9450 C   0  0  0  0  0  2  0  0  0  0  0  0
  156.8490  213.8850  155.5210 C   0  0  0  0  0  2  0  0  0  0  0  0
  155.9720  213.3420  154.4020 C   0  0  0  0  0  2  0  0  0  0  0  0
  155.4260  214.4520  153.5150 C   0  0  0  0  0  3  0  0  0  0  0  0
  155.9150  214.3320  152.2120 O   0  0  0  0  0  1  0  0  0  0  0  0
  154.0310  214.4310  153.5070 O   0  0  0  0  0  1  0  0  0  0  0  0
  159.6610  213.1820  150.5310 C   0  0  0  0  0  2  0  0  0  0  0  0
  160.8110  213.8460  149.7940 C   0  0  0  0  0  2  0  0  0  0  0  0
  159.7960  214.1970  147.6920 O   0  0  0  0  0  0  0  0  0  0  0  0
  160.6930  213.6480  148.3150 C   0  0  0  0  0  0  0  0  0  0  0  0
  162.8960  213.4140  147.5350 O   0  0  0  0  0  0  0  0  0  0  0  0
  161.6750  212.7800  147.5970 C   0  0  0  0  0  3  0  0  0  0  0  0
  162.7110  212.4460  148.4450 O   0  0  0  0  0  0  0  0  0  0  0  0
  1 11  1  0  0  0  0
  2 18  1  6  0  0  0
  2  5  1  0  0  0  0
  2 13  1  0  0  0  0
  3 12  2  0  0  0  0
  5 13  1  0  0  0  0
  5  6  1  1  0  0  0
  6  4  2  0  0  0  0
  6  1  1  0  0  0  0
  7 24  1  6  0  0  0
  7  8  1  0  0  0  0
  8 10  1  6  0  0  0
  9  1  1  1  0  0  0
  9  7  1  0  0  0  0
 10 14  2  0  0  0  0
 11  8  1  0  0  0  0
 11  3  1  6  0  0  0
 12 14  1  0  0  0  0
 13  9  1  0  0  0  0
 15 18  1  0  0  0  0
 15 19  2  0  0  0  0
 16 17  1  0  0  0  0
 16 15  1  0  0  0  0
 17 18  1  0  0  0  0
 20 17  1  0  0  0  0
 20 21  2  0  0  0  0
 22 20  1  0  0  0  0
 23 22  1  0  0  0  0
 24 26  1  0  0  0  0
 25 30  1  0  0  0  0
 25 26  1  0  0  0  0
 26 28  1  0  0  0  0
 27 28  1  0  0  0  0
 27 33  1  0  0  0  0
 28 29  1  0  0  0  0
 30 27  1  0  0  0  0
 31 25  1  0  0  0  0
 31 30  1  0  0  0  0
 33 32  2  0  0  0  0
 34 33  1  0  0  0  0
 34 35  1  0  0  0  0
 36 35  1  0  0  0  0
 37 36  1  0  0  0  0
 38 37  1  0  0  0  0
 39 37  1  0  0  0  0
 40 31  1  0  0  0  0
 41 40  1  0  0  0  0
 42 43  2  0  0  0  0
 43 41  1  0  0  0  0
 44 45  1  0  0  0  0
 44 46  1  0  0  0  0
 45 43  1  0  0  0  0
 45 46  1  0  0  0  0
M  END
>  <MODEL>
9

>  <REMARK>
 VINA RESULT:      -3.6      2.621      8.934
  Name = 
  14 active torsions:
  status: ('A' for Active; 'I' for Inactive)
    1  A    between atoms: C_1  and  C_23
    2  A    between atoms: C_2  and  C_13
    3  A    between atoms: C_2  and  N_44
    4  A    between atoms: C_4  and  C_24
    5  A    between atoms: C_8  and  O_37
    6  A    between atoms: C_10  and  C_41
    7  A    between atoms: C_11  and  C_30
    8  A    between atoms: C_13  and  C_30
    9  A    between atoms: C_14  and  C_19
   10  A    between atoms: C_19  and  C_35
   11  A    between atoms: N_21  and  C_23
   12  A    between atoms: C_26  and  O_37
   13  A    between atoms: C_35  and  C_42
   14  A    between atoms: C_41  and  C_42
                            x       y       z     vdW  Elec       q    Type
                         _______ _______ _______ _____ _____    ______ ____

>  <TORSDO>
F 14

$$$$
