=
 OpenBabel11072413153D

 34 39  0  0  1  0  0  0  0  0999 V2000
  160.1420  212.3510  155.7370 C   0  0  0  0  0  1  0  0  0  0  0  0
  161.9770  206.7870  152.2110 C   0  0  2  0  0  3  0  0  0  0  0  0
  161.7080  205.5020  152.6840 O   0  0  0  0  0  1  0  0  0  0  0  0
  159.3450  211.2700  155.0350 C   0  0  1  0  0  3  0  0  0  0  0  0
  158.1480  212.3960  151.6110 O   0  0  0  0  0  0  0  0  0  0  0  0
  162.4730  209.7890  151.9880 C   0  0  0  0  0  2  0  0  0  0  0  0
  160.1090  210.1920  152.8600 C   0  0  2  0  0  3  0  0  0  0  0  0
  161.5670  209.3940  150.8160 C   0  0  2  0  0  3  0  0  0  0  0  0
  159.8230  214.0450  151.0270 C   0  0  0  0  0  1  0  0  0  0  0  0
  160.2130  208.8500  155.0140 C   0  0  2  0  0  3  0  0  0  0  0  0
  159.0320  212.1830  152.6880 C   0  0  2  0  0  0  0  0  0  0  0  0
  160.4760  206.5500  150.3370 O   0  0  0  0  0  1  0  0  0  0  0  0
  158.3500  211.9090  154.0510 C   0  0  1  0  0  3  0  0  0  0  0  0
  161.1050  209.2030  152.2610 C   0  0  1  0  0  0  0  0  0  0  0  0
  158.8610  213.5190  152.0770 C   0  0  2  0  0  0  0  0  0  0  0  0
  161.0370  207.7950  152.8690 C   0  0  2  0  0  3  0  0  0  0  0  0
  161.7990  206.8240  150.6960 C   0  0  1  0  0  3  0  0  0  0  0  0
  160.1960  211.4790  152.3040 O   0  0  0  0  0  0  0  0  0  0  0  0
  161.2280  207.8780  154.3830 C   0  0  0  0  0  2  0  0  0  0  0  0
  160.3110  210.2570  154.3850 C   0  0  2  0  0  3  0  0  0  0  0  0
  158.0090  214.4280  152.7050 O   0  0  0  0  0  1  0  0  0  0  0  0
  162.2280  208.1810  150.1430 C   0  0  0  0  0  2  0  0  0  0  0  0
  160.1400  207.7860  157.2320 C   0  0  0  0  0  2  0  0  0  0  0  0
  160.3710  208.8830  156.5060 C   0  0  0  0  0  0  0  0  0  0  0  0
  160.8010  210.0810  157.0940 O   0  0  0  0  0  0  0  0  0  0  0  0
  162.1330  210.5030  157.1460 C   0  0  0  0  0  0  0  0  0  0  0  0
  165.2580  211.5170  157.2610 O   0  0  0  0  0  0  0  0  0  0  0  0
  162.7900  211.7930  157.1360 C   0  0  0  0  0  2  0  0  0  0  0  0
  164.0500  211.1630  157.2160 C   0  0  0  0  0  0  0  0  0  0  0  0
  163.3200  209.9110  157.2220 N   0  0  0  0  0  0  0  0  0  0  0  0
  157.1330  211.0030  153.8800 C   0  0  0  0  0  2  0  0  0  0  0  0
  156.0100  211.0180  155.9880 O   0  0  0  0  0  1  0  0  0  0  0  0
  155.9490  211.5140  154.6850 C   0  0  1  0  0  3  0  0  0  0  0  0
  155.9870  213.0270  154.7220 C   0  0  0  0  0  1  0  0  0  0  0  0
  2  3  1  1  0  0  0
  2 16  1  0  0  0  0
  4  1  1  6  0  0  0
  5 15  1  0  0  0  0
  7 18  1  6  0  0  0
  7 20  1  0  0  0  0
  8 22  1  1  0  0  0
  8  6  1  0  0  0  0
  8 14  1  0  0  0  0
 10 24  1  1  0  0  0
 11  5  1  6  0  0  0
 11 13  1  0  0  0  0
 13 31  1  6  0  0  0
 13  4  1  0  0  0  0
 14  6  1  1  0  0  0
 14  7  1  0  0  0  0
 14 16  1  0  0  0  0
 15  9  1  6  0  0  0
 15 11  1  0  0  0  0
 15 21  1  0  0  0  0
 16 19  1  1  0  0  0
 17 12  1  1  0  0  0
 17  2  1  0  0  0  0
 18 11  1  0  0  0  0
 19 10  1  0  0  0  0
 20 10  1  0  0  0  0
 20  4  1  0  0  0  0
 22 17  1  0  0  0  0
 24 25  1  0  0  0  0
 24 23  2  0  0  0  0
 25 26  1  0  0  0  0
 26 30  2  0  0  0  0
 28 26  1  0  0  0  0
 28 29  1  0  0  0  0
 29 30  1  0  0  0  0
 29 27  2  0  0  0  0
 31 33  1  0  0  0  0
 33 34  1  0  0  0  0
 33 32  1  0  0  0  0
M  END
>  <MODEL>
1

>  <REMARK>
 VINA RESULT:      -6.1      0.000      0.000
  Name = 
  5 active torsions:
  status: ('A' for Active; 'I' for Inactive)
    1  A    between atoms: C_6  and  C_9
    2  A    between atoms: C_8  and  O_14
    3  A    between atoms: C_9  and  C_21
    4  A    between atoms: O_14  and  C_22
    5  A    between atoms: C_17  and  C_22
                            x       y       z     vdW  Elec       q    Type
                         _______ _______ _______ _____ _____    ______ ____

>  <TORSDO>
F 5

$$$$
=
 OpenBabel11072413153D

 34 39  0  0  1  0  0  0  0  0999 V2000
  162.9780  210.5130  152.3630 C   0  0  0  0  0  1  0  0  0  0  0  0
  156.8380  213.0840  153.9270 C   0  0  2  0  0  3  0  0  0  0  0  0
  156.0200  213.6620  152.9550 O   0  0  0  0  0  1  0  0  0  0  0  0
  161.5670  210.1000  151.9960 C   0  0  1  0  0  3  0  0  0  0  0  0
  160.3300  207.2320  154.1590 O   0  0  0  0  0  0  0  0  0  0  0  0
  159.2230  211.9930  155.4860 C   0  0  0  0  0  2  0  0  0  0  0  0
  159.6110  210.3070  153.6110 C   0  0  2  0  0  3  0  0  0  0  0  0
  158.0810  210.9830  155.6450 C   0  0  2  0  0  3  0  0  0  0  0  0
  161.6340  207.5470  156.1760 C   0  0  0  0  0  1  0  0  0  0  0  0
  159.7620  211.8930  151.6330 C   0  0  2  0  0  3  0  0  0  0  0  0
  160.9240  208.4680  153.8310 C   0  0  2  0  0  0  0  0  0  0  0  0
  155.3200  211.2460  154.2960 O   0  0  0  0  0  1  0  0  0  0  0  0
  161.3480  208.6190  152.3490 C   0  0  1  0  0  3  0  0  0  0  0  0
  158.6570  211.3020  154.2650 C   0  0  1  0  0  0  0  0  0  0  0  0
  161.6270  207.4650  154.6600 C   0  0  2  0  0  0  0  0  0  0  0  0
  157.8510  212.1490  153.2710 C   0  0  2  0  0  3  0  0  0  0  0  0
  155.9820  212.3050  154.9220 C   0  0  1  0  0  3  0  0  0  0  0  0
  160.3510  209.5520  154.5350 O   0  0  0  0  0  0  0  0  0  0  0  0
  158.8060  212.8820  152.3270 C   0  0  0  0  0  2  0  0  0  0  0  0
  160.5600  211.0610  152.6610 C   0  0  2  0  0  3  0  0  0  0  0  0
  162.5600  206.6330  154.0410 O   0  0  0  0  0  1  0  0  0  0  0  0
  156.8420  211.7880  156.0710 C   0  0  0  0  0  2  0  0  0  0  0  0
  160.7590  213.9450  150.7100 C   0  0  0  0  0  2  0  0  0  0  0  0
  160.6570  212.6140  150.6690 C   0  0  0  0  0  0  0  0  0  0  0  0
  161.4020  211.8440  149.7640 O   0  0  0  0  0  0  0  0  0  0  0  0
  161.7940  212.2760  148.4930 C   0  0  0  0  0  0  0  0  0  0  0  0
  162.7370  213.2990  145.5150 O   0  0  0  0  0  0  0  0  0  0  0  0
  163.0580  212.6460  147.8920 C   0  0  0  0  0  2  0  0  0  0  0  0
  162.4110  212.9080  146.6660 C   0  0  0  0  0  0  0  0  0  0  0  0
  161.1860  212.5220  147.3380 N   0  0  0  0  0  0  0  0  0  0  0  0
  160.3010  208.0110  151.4180 C   0  0  0  0  0  2  0  0  0  0  0  0
  162.2610  207.4370  150.1790 O   0  0  0  0  0  1  0  0  0  0  0  0
  160.9400  207.0590  150.4190 C   0  0  1  0  0  3  0  0  0  0  0  0
  160.9140  205.6550  150.9830 C   0  0  0  0  0  1  0  0  0  0  0  0
  2  3  1  6  0  0  0
  2 17  1  0  0  0  0
  4 13  1  0  0  0  0
  4  1  1  1  0  0  0
  4 20  1  0  0  0  0
  5 15  1  0  0  0  0
  7 14  1  0  0  0  0
  7 18  1  1  0  0  0
  8  6  1  1  0  0  0
  8 22  1  0  0  0  0
 10 24  1  1  0  0  0
 10 19  1  0  0  0  0
 10 20  1  0  0  0  0
 11  5  1  6  0  0  0
 11 18  1  0  0  0  0
 11 15  1  0  0  0  0
 13 31  1  6  0  0  0
 13 11  1  0  0  0  0
 14  6  1  1  0  0  0
 14  8  1  0  0  0  0
 15  9  1  1  0  0  0
 16 19  1  1  0  0  0
 16  2  1  0  0  0  0
 16 14  1  0  0  0  0
 17 12  1  6  0  0  0
 17 22  1  0  0  0  0
 20  7  1  0  0  0  0
 21 15  1  0  0  0  0
 24 23  2  0  0  0  0
 25 24  1  0  0  0  0
 26 25  1  0  0  0  0
 27 29  2  0  0  0  0
 28 26  1  0  0  0  0
 29 30  1  0  0  0  0
 29 28  1  0  0  0  0
 30 26  2  0  0  0  0
 32 33  1  0  0  0  0
 33 34  1  0  0  0  0
 33 31  1  0  0  0  0
M  END
>  <MODEL>
2

>  <REMARK>
 VINA RESULT:      -4.8      2.941      7.444
  Name = 
  5 active torsions:
  status: ('A' for Active; 'I' for Inactive)
    1  A    between atoms: C_6  and  C_9
    2  A    between atoms: C_8  and  O_14
    3  A    between atoms: C_9  and  C_21
    4  A    between atoms: O_14  and  C_22
    5  A    between atoms: C_17  and  C_22
                            x       y       z     vdW  Elec       q    Type
                         _______ _______ _______ _____ _____    ______ ____

>  <TORSDO>
F 5

$$$$
