=
 OpenBabel11072413163D

 27 29  0  0  1  0  0  0  0  0999 V2000
  161.4180  207.5670  151.6110 C   0  0  0  0  0  0  0  0  0  0  0  0
  161.6760  204.1810  150.4620 O   0  0  0  0  0  0  0  0  0  0  0  0
  161.1980  205.2590  152.8880 S   0  0  0  0  0  0  0  0  0  0  0  0
  161.4580  209.0540  151.3540 C   0  0  0  0  0  2  0  0  0  0  0  0
  161.8260  206.5340  150.6220 C   0  0  1  0  0  3  0  0  0  0  0  0
  162.1850  207.8180  148.6410 O   0  0  0  0  0  1  0  0  0  0  0  0
  161.0940  205.2930  151.0750 C   0  0  1  0  0  3  0  0  0  0  0  0
  160.6190  207.9030  153.8820 C   0  0  0  0  0  0  0  0  0  0  0  0
  161.6480  205.4940  148.3460 C   0  0  2  0  0  3  0  0  0  0  0  0
  161.2320  204.1980  149.1180 C   0  0  1  0  0  3  0  0  0  0  0  0
  161.1060  207.0480  152.7940 C   0  0  0  0  0  0  0  0  0  0  0  0
  160.8790  209.8830  152.4790 C   0  0  0  0  0  0  0  0  0  0  0  0
  160.2920  207.4120  154.9940 O   0  0  0  0  0  0  0  0  0  0  0  0
  161.4230  206.7780  149.1770 C   0  0  1  0  0  3  0  0  0  0  0  0
  160.7330  211.6140  152.2590 Cl  0  0  0  0  0  0  0  0  0  0  0  0
  160.5110  209.3490  153.6490 C   0  0  0  0  0  3  0  0  0  0  0  0
  160.9450  205.6460  146.9850 C   0  0  1  0  0  3  0  0  0  0  0  0
  159.9930  206.6690  147.0010 O   0  0  0  0  0  1  0  0  0  0  0  0
  161.2490  205.3550  144.4790 C   0  0  0  0  0  1  0  0  0  0  0  0
  161.8980  205.7680  145.7890 C   0  0  0  0  0  3  0  0  0  0  0  0
  163.1350  204.9250  146.0270 C   0  0  0  0  0  1  0  0  0  0  0  0
  161.7000  202.9260  148.4070 C   0  0  0  0  0  2  0  0  0  0  0  0
  160.5550  201.9540  148.1100 C   0  0  0  0  0  3  0  0  0  0  0  0
  160.7120  201.3510  146.7460 C   0  0  0  0  0  3  0  0  0  0  0  0
  160.9100  202.0510  145.7660 O   0  0  0  0  0  0  0  0  0  0  0  0
  160.4170  200.8960  149.1640 C   0  0  0  0  0  3  0  0  0  0  0  0
  161.1520  200.8770  150.1400 O   0  0  0  0  0  0  0  0  0  0  0  0
  1 11  2  0  0  0  0
  4  1  1  0  0  0  0
  4 12  1  0  0  0  0
  5  7  1  0  0  0  0
  5  1  1  1  0  0  0
  7  2  1  6  0  0  0
  7  3  1  0  0  0  0
  8 13  2  0  0  0  0
  9 17  1  6  0  0  0
  9 10  1  0  0  0  0
  9 14  1  0  0  0  0
 10 22  1  6  0  0  0
 10  2  1  0  0  0  0
 11  3  1  0  0  0  0
 11  8  1  0  0  0  0
 12 16  2  0  0  0  0
 14  6  1  6  0  0  0
 14  5  1  0  0  0  0
 15 12  1  0  0  0  0
 16  8  1  0  0  0  0
 17 18  1  1  0  0  0
 19 20  1  0  0  0  0
 20 21  1  0  0  0  0
 20 17  1  0  0  0  0
 23 22  1  0  0  0  0
 23 26  1  0  0  0  0
 24 23  1  0  0  0  0
 25 24  2  0  0  0  0
 26 27  2  0  0  0  0
M  END
>  <MODEL>
1

>  <REMARK>
 VINA RESULT:      -8.1      0.000      0.000
  Name = 
  6 active torsions:
  status: ('A' for Active; 'I' for Inactive)
    1  A    between atoms: C_3  and  C_22
    2  A    between atoms: C_4  and  C_22
    3  A    between atoms: C_10  and  C_16
    4  A    between atoms: C_10  and  C_18
    5  A    between atoms: C_17  and  C_24
    6  A    between atoms: C_22  and  C_24
                            x       y       z     vdW  Elec       q    Type
                         _______ _______ _______ _____ _____    ______ ____

>  <TORSDO>
F 6

$$$$
=
 OpenBabel11072413163D

 27 29  0  0  1  0  0  0  0  0999 V2000
  161.4680  205.8300  150.9660 C   0  0  0  0  0  0  0  0  0  0  0  0
  161.6980  209.2990  151.8390 O   0  0  0  0  0  0  0  0  0  0  0  0
  161.7180  208.0020  149.4750 S   0  0  0  0  0  0  0  0  0  0  0  0
  161.3390  204.3760  151.3560 C   0  0  0  0  0  2  0  0  0  0  0  0
  161.7100  206.9370  151.9280 C   0  0  1  0  0  3  0  0  0  0  0  0
  161.5060  205.8480  154.0430 O   0  0  0  0  0  1  0  0  0  0  0  0
  161.1940  208.1600  151.2060 C   0  0  1  0  0  3  0  0  0  0  0  0
  161.1960  205.3010  148.6090 C   0  0  0  0  0  0  0  0  0  0  0  0
  161.0850  208.2130  153.9950 C   0  0  2  0  0  3  0  0  0  0  0  0
  160.9540  209.4420  153.0350 C   0  0  1  0  0  3  0  0  0  0  0  0
  161.4770  206.2380  149.7020 C   0  0  0  0  0  0  0  0  0  0  0  0
  160.9780  203.4660  150.2030 C   0  0  0  0  0  0  0  0  0  0  0  0
  161.1710  205.6910  147.4120 O   0  0  0  0  0  0  0  0  0  0  0  0
  160.9660  206.8640  153.2520 C   0  0  1  0  0  3  0  0  0  0  0  0
  160.6600  201.7770  150.5340 Cl  0  0  0  0  0  0  0  0  0  0  0  0
  160.9320  203.8940  148.9360 C   0  0  0  0  0  3  0  0  0  0  0  0
  160.0760  208.2380  155.1580 C   0  0  1  0  0  3  0  0  0  0  0  0
  159.1530  207.1920  155.0700 O   0  0  0  0  0  1  0  0  0  0  0  0
  162.1790  208.7300  156.4980 C   0  0  0  0  0  1  0  0  0  0  0  0
  160.7160  208.3240  156.5500 C   0  0  0  0  0  3  0  0  0  0  0  0
  160.5870  206.9910  157.2610 C   0  0  0  0  0  1  0  0  0  0  0  0
  161.3360  210.7560  153.7210 C   0  0  0  0  0  2  0  0  0  0  0  0
  160.1630  211.7350  153.8290 C   0  0  0  0  0  3  0  0  0  0  0  0
  159.0090  211.2750  152.9900 C   0  0  0  0  0  3  0  0  0  0  0  0
  158.5190  212.0000  152.1400 O   0  0  0  0  0  0  0  0  0  0  0  0
  159.7470  211.9720  155.2510 C   0  0  0  0  0  3  0  0  0  0  0  0
  160.5750  212.0530  156.1460 O   0  0  0  0  0  0  0  0  0  0  0  0
  1  4  1  0  0  0  0
  2 10  1  0  0  0  0
  3 11  1  0  0  0  0
  5  1  1  6  0  0  0
  5 14  1  0  0  0  0
  7  3  1  6  0  0  0
  7  2  1  0  0  0  0
  7  5  1  0  0  0  0
  8 16  1  0  0  0  0
  8 11  1  0  0  0  0
  9 17  1  1  0  0  0
 10 22  1  1  0  0  0
 10  9  1  0  0  0  0
 11  1  2  0  0  0  0
 12 15  1  0  0  0  0
 12  4  1  0  0  0  0
 13  8  2  0  0  0  0
 14  9  1  0  0  0  0
 14  6  1  1  0  0  0
 16 12  2  0  0  0  0
 17 18  1  1  0  0  0
 17 20  1  0  0  0  0
 19 20  1  0  0  0  0
 20 21  1  0  0  0  0
 22 23  1  0  0  0  0
 23 26  1  0  0  0  0
 24 23  1  0  0  0  0
 25 24  2  0  0  0  0
 26 27  2  0  0  0  0
M  END
>  <MODEL>
2

>  <REMARK>
 VINA RESULT:      -7.3      3.096      8.397
  Name = 
  6 active torsions:
  status: ('A' for Active; 'I' for Inactive)
    1  A    between atoms: C_3  and  C_22
    2  A    between atoms: C_4  and  C_22
    3  A    between atoms: C_10  and  C_16
    4  A    between atoms: C_10  and  C_18
    5  A    between atoms: C_17  and  C_24
    6  A    between atoms: C_22  and  C_24
                            x       y       z     vdW  Elec       q    Type
                         _______ _______ _______ _____ _____    ______ ____

>  <TORSDO>
F 6

$$$$
=
 OpenBabel11072413163D

 27 29  0  0  1  0  0  0  0  0999 V2000
  161.0300  207.0690  151.2290 C   0  0  0  0  0  0  0  0  0  0  0  0
  161.1550  205.5850  147.9690 O   0  0  0  0  0  0  0  0  0  0  0  0
  161.5740  208.0980  148.8530 S   0  0  0  0  0  0  0  0  0  0  0  0
  160.7980  206.9670  152.7180 C   0  0  0  0  0  2  0  0  0  0  0  0
  160.7210  205.9880  150.2570 C   0  0  1  0  0  3  0  0  0  0  0  0
  160.1430  204.1560  151.6750 O   0  0  0  0  0  1  0  0  0  0  0  0
  161.6150  206.2970  149.0790 C   0  0  1  0  0  3  0  0  0  0  0  0
  161.8530  209.3470  151.4370 C   0  0  0  0  0  0  0  0  0  0  0  0
  160.9530  203.6140  149.4790 C   0  0  2  0  0  3  0  0  0  0  0  0
  161.5510  204.2410  148.1750 C   0  0  1  0  0  3  0  0  0  0  0  0
  161.4410  208.1870  150.6400 C   0  0  0  0  0  0  0  0  0  0  0  0
  161.3060  208.1600  153.4980 C   0  0  0  0  0  0  0  0  0  0  0  0
  162.2740  210.3960  150.8830 O   0  0  0  0  0  0  0  0  0  0  0  0
  161.0440  204.5680  150.6910 C   0  0  1  0  0  3  0  0  0  0  0  0
  161.2300  208.1150  155.2460 Cl  0  0  0  0  0  0  0  0  0  0  0  0
  161.7740  209.2620  152.9000 C   0  0  0  0  0  3  0  0  0  0  0  0
  161.5880  202.2630  149.8530 C   0  0  1  0  0  3  0  0  0  0  0  0
  161.9040  202.1920  151.2120 O   0  0  0  0  0  1  0  0  0  0  0  0
  161.3390  200.4450  148.0940 C   0  0  0  0  0  1  0  0  0  0  0  0
  160.7930  201.0370  149.3830 C   0  0  0  0  0  3  0  0  0  0  0  0
  159.3370  201.4090  149.1900 C   0  0  0  0  0  1  0  0  0  0  0  0
  161.2210  203.4130  146.9310 C   0  0  0  0  0  2  0  0  0  0  0  0
  161.9220  203.9270  145.6700 C   0  0  0  0  0  3  0  0  0  0  0  0
  160.9420  204.5950  144.7530 C   0  0  0  0  0  3  0  0  0  0  0  0
  161.2660  205.5610  144.0800 O   0  0  0  0  0  0  0  0  0  0  0  0
  163.0780  204.8290  145.9880 C   0  0  0  0  0  3  0  0  0  0  0  0
  164.2210  204.4000  146.0290 O   0  0  0  0  0  0  0  0  0  0  0  0
  1  4  1  0  0  0  0
  2 10  1  0  0  0  0
  3  7  1  0  0  0  0
  3 11  1  0  0  0  0
  4 12  1  0  0  0  0
  5 14  1  0  0  0  0
  5  1  1  1  0  0  0
  7  2  1  6  0  0  0
  7  5  1  0  0  0  0
  8 16  1  0  0  0  0
  9 17  1  1  0  0  0
  9 14  1  0  0  0  0
 10 22  1  6  0  0  0
 10  9  1  0  0  0  0
 11  1  2  0  0  0  0
 11  8  1  0  0  0  0
 12 15  1  0  0  0  0
 13  8  2  0  0  0  0
 14  6  1  1  0  0  0
 16 12  2  0  0  0  0
 17 18  1  1  0  0  0
 19 20  1  0  0  0  0
 20 17  1  0  0  0  0
 21 20  1  0  0  0  0
 23 26  1  0  0  0  0
 23 22  1  0  0  0  0
 24 23  1  0  0  0  0
 25 24  2  0  0  0  0
 26 27  2  0  0  0  0
M  END
>  <MODEL>
3

>  <REMARK>
 VINA RESULT:      -7.3      2.138      4.074
  Name = 
  6 active torsions:
  status: ('A' for Active; 'I' for Inactive)
    1  A    between atoms: C_3  and  C_22
    2  A    between atoms: C_4  and  C_22
    3  A    between atoms: C_10  and  C_16
    4  A    between atoms: C_10  and  C_18
    5  A    between atoms: C_17  and  C_24
    6  A    between atoms: C_22  and  C_24
                            x       y       z     vdW  Elec       q    Type
                         _______ _______ _______ _____ _____    ______ ____

>  <TORSDO>
F 6

$$$$
=
 OpenBabel11072413163D

 27 29  0  0  1  0  0  0  0  0999 V2000
  160.9710  206.9640  151.8900 C   0  0  0  0  0  0  0  0  0  0  0  0
  161.3020  205.7920  148.5190 O   0  0  0  0  0  0  0  0  0  0  0  0
  161.6290  208.2170  149.6540 S   0  0  0  0  0  0  0  0  0  0  0  0
  160.6580  206.7210  153.3470 C   0  0  0  0  0  2  0  0  0  0  0  0
  160.7350  205.9750  150.8060 C   0  0  1  0  0  3  0  0  0  0  0  0
  160.1090  204.0130  152.0140 O   0  0  0  0  0  1  0  0  0  0  0  0
  161.6880  206.4030  149.7140 C   0  0  1  0  0  3  0  0  0  0  0  0
  161.7430  209.2230  152.3540 C   0  0  0  0  0  0  0  0  0  0  0  0
  161.0490  203.6870  149.8270 C   0  0  2  0  0  3  0  0  0  0  0  0
  161.7080  204.4390  148.6230 C   0  0  1  0  0  3  0  0  0  0  0  0
  161.3950  208.1370  151.4310 C   0  0  0  0  0  0  0  0  0  0  0  0
  161.1020  207.8420  154.2620 C   0  0  0  0  0  0  0  0  0  0  0  0
  162.1760  210.3230  151.9240 O   0  0  0  0  0  0  0  0  0  0  0  0
  161.0570  204.5250  151.1250 C   0  0  1  0  0  3  0  0  0  0  0  0
  160.9290  207.6340  155.9910 Cl  0  0  0  0  0  0  0  0  0  0  0  0
  161.5840  209.0000  153.7960 C   0  0  0  0  0  3  0  0  0  0  0  0
  161.6850  202.3140  150.1100 C   0  0  1  0  0  3  0  0  0  0  0  0
  162.0280  202.1650  151.4560 O   0  0  0  0  0  1  0  0  0  0  0  0
  161.4550  200.5310  148.3130 C   0  0  0  0  0  1  0  0  0  0  0  0
  160.8740  201.1200  149.5880 C   0  0  0  0  0  3  0  0  0  0  0  0
  159.4390  201.5390  149.3420 C   0  0  0  0  0  1  0  0  0  0  0  0
  161.4620  203.7270  147.2900 C   0  0  0  0  0  2  0  0  0  0  0  0
  161.4010  204.6900  146.1020 C   0  0  0  0  0  3  0  0  0  0  0  0
  162.7630  205.2300  145.7850 C   0  0  0  0  0  3  0  0  0  0  0  0
  163.7660  204.5580  145.9670 O   0  0  0  0  0  0  0  0  0  0  0  0
  160.7640  204.0670  144.8950 C   0  0  0  0  0  3  0  0  0  0  0  0
  160.4870  202.8770  144.8710 O   0  0  0  0  0  0  0  0  0  0  0  0
  1  4  1  0  0  0  0
  2 10  1  0  0  0  0
  3  7  1  0  0  0  0
  3 11  1  0  0  0  0
  4 12  1  0  0  0  0
  5 14  1  0  0  0  0
  5  1  1  1  0  0  0
  7  2  1  6  0  0  0
  7  5  1  0  0  0  0
  8 16  1  0  0  0  0
  9 17  1  1  0  0  0
  9 14  1  0  0  0  0
 10 22  1  6  0  0  0
 10  9  1  0  0  0  0
 11  1  2  0  0  0  0
 11  8  1  0  0  0  0
 12 15  1  0  0  0  0
 13  8  2  0  0  0  0
 14  6  1  1  0  0  0
 16 12  2  0  0  0  0
 17 18  1  1  0  0  0
 19 20  1  0  0  0  0
 20 17  1  0  0  0  0
 21 20  1  0  0  0  0
 23 22  1  0  0  0  0
 24 25  2  0  0  0  0
 24 23  1  0  0  0  0
 26 23  1  0  0  0  0
 27 26  2  0  0  0  0
M  END
>  <MODEL>
4

>  <REMARK>
 VINA RESULT:      -7.2      2.078      4.045
  Name = 
  6 active torsions:
  status: ('A' for Active; 'I' for Inactive)
    1  A    between atoms: C_3  and  C_22
    2  A    between atoms: C_4  and  C_22
    3  A    between atoms: C_10  and  C_16
    4  A    between atoms: C_10  and  C_18
    5  A    between atoms: C_17  and  C_24
    6  A    between atoms: C_22  and  C_24
                            x       y       z     vdW  Elec       q    Type
                         _______ _______ _______ _____ _____    ______ ____

>  <TORSDO>
F 6

$$$$
=
 OpenBabel11072413163D

 27 29  0  0  1  0  0  0  0  0999 V2000
  161.5740  208.8340  150.7460 C   0  0  0  0  0  0  0  0  0  0  0  0
  161.5500  205.2500  150.7190 O   0  0  0  0  0  0  0  0  0  0  0  0
  161.1220  207.0680  152.6640 S   0  0  0  0  0  0  0  0  0  0  0  0
  161.7530  210.1580  150.0420 C   0  0  0  0  0  2  0  0  0  0  0  0
  161.9080  207.5150  150.1480 C   0  0  1  0  0  3  0  0  0  0  0  0
  162.4220  208.0800  147.8850 O   0  0  0  0  0  1  0  0  0  0  0  0
  161.0580  206.5400  150.9280 C   0  0  1  0  0  3  0  0  0  0  0  0
  160.7630  209.9270  152.7600 C   0  0  0  0  0  0  0  0  0  0  0  0
  161.6840  205.8320  148.3010 C   0  0  2  0  0  3  0  0  0  0  0  0
  161.1370  204.8800  149.4160 C   0  0  1  0  0  3  0  0  0  0  0  0
  161.1930  208.7390  152.0150 C   0  0  0  0  0  0  0  0  0  0  0  0
  161.2280  211.3410  150.8260 C   0  0  0  0  0  0  0  0  0  0  0  0
  160.3700  209.8370  153.9520 O   0  0  0  0  0  0  0  0  0  0  0  0
  161.5580  207.3240  148.6810 C   0  0  1  0  0  3  0  0  0  0  0  0
  161.2430  212.9210  150.0730 Cl  0  0  0  0  0  0  0  0  0  0  0  0
  160.7910  211.2310  152.0850 C   0  0  0  0  0  3  0  0  0  0  0  0
  161.0250  205.6050  146.9280 C   0  0  1  0  0  3  0  0  0  0  0  0
  159.9700  206.4930  146.7020 O   0  0  0  0  0  1  0  0  0  0  0  0
  161.4000  204.9620  144.4980 C   0  0  0  0  0  1  0  0  0  0  0  0
  162.0080  205.5690  145.7510 C   0  0  0  0  0  3  0  0  0  0  0  0
  163.2490  204.7890  146.1380 C   0  0  0  0  0  1  0  0  0  0  0  0
  161.5030  203.4160  149.1590 C   0  0  0  0  0  2  0  0  0  0  0  0
  160.6980  202.4400  150.0210 C   0  0  0  0  0  3  0  0  0  0  0  0
  160.5790  201.1070  149.3450 C   0  0  0  0  0  3  0  0  0  0  0  0
  161.1590  200.8790  148.2940 O   0  0  0  0  0  0  0  0  0  0  0  0
  161.2600  202.3040  151.4050 C   0  0  0  0  0  3  0  0  0  0  0  0
  160.7580  202.8930  152.3510 O   0  0  0  0  0  0  0  0  0  0  0  0
  1 11  2  0  0  0  0
  4  1  1  0  0  0  0
  4 12  1  0  0  0  0
  5  1  1  1  0  0  0
  5  7  1  0  0  0  0
  7  2  1  1  0  0  0
  7  3  1  0  0  0  0
  8 13  2  0  0  0  0
  9 17  1  6  0  0  0
  9 14  1  0  0  0  0
  9 10  1  0  0  0  0
 10 22  1  6  0  0  0
 10  2  1  0  0  0  0
 11  3  1  0  0  0  0
 11  8  1  0  0  0  0
 12 16  2  0  0  0  0
 14  6  1  6  0  0  0
 14  5  1  0  0  0  0
 15 12  1  0  0  0  0
 16  8  1  0  0  0  0
 17 18  1  6  0  0  0
 19 20  1  0  0  0  0
 20 21  1  0  0  0  0
 20 17  1  0  0  0  0
 22 23  1  0  0  0  0
 23 26  1  0  0  0  0
 24 23  1  0  0  0  0
 25 24  2  0  0  0  0
 26 27  2  0  0  0  0
M  END
>  <MODEL>
5

>  <REMARK>
 VINA RESULT:      -6.7      1.433      1.774
  Name = 
  6 active torsions:
  status: ('A' for Active; 'I' for Inactive)
    1  A    between atoms: C_3  and  C_22
    2  A    between atoms: C_4  and  C_22
    3  A    between atoms: C_10  and  C_16
    4  A    between atoms: C_10  and  C_18
    5  A    between atoms: C_17  and  C_24
    6  A    between atoms: C_22  and  C_24
                            x       y       z     vdW  Elec       q    Type
                         _______ _______ _______ _____ _____    ______ ____

>  <TORSDO>
F 6

$$$$
=
 OpenBabel11072413163D

 27 29  0  0  1  0  0  0  0  0999 V2000
  160.7770  204.2440  149.7850 C   0  0  0  0  0  0  0  0  0  0  0  0
  160.6730  205.8980  152.9630 O   0  0  0  0  0  0  0  0  0  0  0  0
  160.7250  203.2970  152.2550 S   0  0  0  0  0  0  0  0  0  0  0  0
  160.8080  204.2860  148.2750 C   0  0  0  0  0  2  0  0  0  0  0  0
  160.5360  205.4280  150.6510 C   0  0  1  0  0  3  0  0  0  0  0  0
  160.5600  207.2340  149.0890 O   0  0  0  0  0  1  0  0  0  0  0  0
  161.1540  205.0380  151.9730 C   0  0  1  0  0  3  0  0  0  0  0  0
  161.1590  201.8440  149.8030 C   0  0  0  0  0  0  0  0  0  0  0  0
  161.1020  207.7640  151.3690 C   0  0  2  0  0  3  0  0  0  0  0  0
  161.3520  207.1270  152.7770 C   0  0  1  0  0  3  0  0  0  0  0  0
  160.8620  203.1120  150.4760 C   0  0  0  0  0  0  0  0  0  0  0  0
  161.1890  202.9680  147.6370 C   0  0  0  0  0  0  0  0  0  0  0  0
  161.2740  200.7750  150.4570 O   0  0  0  0  0  0  0  0  0  0  0  0
  161.1960  206.7290  150.2250 C   0  0  1  0  0  3  0  0  0  0  0  0
  161.4010  202.9060  145.9000 Cl  0  0  0  0  0  0  0  0  0  0  0  0
  161.3320  201.8420  148.3440 C   0  0  0  0  0  3  0  0  0  0  0  0
  162.0410  208.9440  151.0580 C   0  0  1  0  0  3  0  0  0  0  0  0
  162.9460  208.6360  150.0390 O   0  0  0  0  0  1  0  0  0  0  0  0
  162.0780  211.1740  149.8390 C   0  0  0  0  0  1  0  0  0  0  0  0
  161.3230  210.2760  150.8060 C   0  0  0  0  0  3  0  0  0  0  0  0
  161.1170  211.0080  152.1170 C   0  0  0  0  0  1  0  0  0  0  0  0
  160.9980  208.0860  153.9170 C   0  0  0  0  0  2  0  0  0  0  0  0
  161.1300  207.4420  155.2990 C   0  0  0  0  0  3  0  0  0  0  0  0
  161.9340  208.3140  156.2160 C   0  0  0  0  0  3  0  0  0  0  0  0
  162.0710  209.5070  155.9930 O   0  0  0  0  0  0  0  0  0  0  0  0
  159.7980  207.0980  155.8980 C   0  0  0  0  0  3  0  0  0  0  0  0
  159.6910  206.8220  157.0840 O   0  0  0  0  0  0  0  0  0  0  0  0
  1 11  2  0  0  0  0
  4  1  1  0  0  0  0
  5  1  1  6  0  0  0
  5  7  1  0  0  0  0
  7  3  1  1  0  0  0
  7  2  1  0  0  0  0
  8 13  2  0  0  0  0
  8 11  1  0  0  0  0
  9 17  1  6  0  0  0
  9 10  1  0  0  0  0
 10  2  1  0  0  0  0
 10 22  1  1  0  0  0
 11  3  1  0  0  0  0
 12  4  1  0  0  0  0
 12 16  2  0  0  0  0
 14  6  1  6  0  0  0
 14  5  1  0  0  0  0
 14  9  1  0  0  0  0
 15 12  1  0  0  0  0
 16  8  1  0  0  0  0
 17 18  1  6  0  0  0
 19 20  1  0  0  0  0
 20 17  1  0  0  0  0
 20 21  1  0  0  0  0
 22 23  1  0  0  0  0
 23 26  1  0  0  0  0
 23 24  1  0  0  0  0
 25 24  2  0  0  0  0
 26 27  2  0  0  0  0
M  END
>  <MODEL>
6

>  <REMARK>
 VINA RESULT:      -6.3      2.877      7.120
  Name = 
  6 active torsions:
  status: ('A' for Active; 'I' for Inactive)
    1  A    between atoms: C_3  and  C_22
    2  A    between atoms: C_4  and  C_22
    3  A    between atoms: C_10  and  C_16
    4  A    between atoms: C_10  and  C_18
    5  A    between atoms: C_17  and  C_24
    6  A    between atoms: C_22  and  C_24
                            x       y       z     vdW  Elec       q    Type
                         _______ _______ _______ _____ _____    ______ ____

>  <TORSDO>
F 6

$$$$
=
 OpenBabel11072413163D

 27 29  0  0  1  0  0  0  0  0999 V2000
  161.6250  205.0850  149.2430 C   0  0  0  0  0  0  0  0  0  0  0  0
  162.2660  208.5830  148.7970 O   0  0  0  0  0  0  0  0  0  0  0  0
  162.0280  206.5300  147.0640 S   0  0  0  0  0  0  0  0  0  0  0  0
  161.3620  203.8940  150.1350 C   0  0  0  0  0  2  0  0  0  0  0  0
  162.0310  206.4270  149.7360 C   0  0  1  0  0  3  0  0  0  0  0  0
  161.8210  206.2020  152.1040 O   0  0  0  0  0  1  0  0  0  0  0  0
  161.6130  207.3610  148.6240 C   0  0  1  0  0  3  0  0  0  0  0  0
  161.1770  203.7810  147.2410 C   0  0  0  0  0  0  0  0  0  0  0  0
  161.6520  208.4240  151.2060 C   0  0  2  0  0  3  0  0  0  0  0  0
  161.6040  209.2330  149.8660 C   0  0  1  0  0  3  0  0  0  0  0  0
  161.6120  205.0080  147.9170 C   0  0  0  0  0  0  0  0  0  0  0  0
  160.8480  202.6790  149.3940 C   0  0  0  0  0  0  0  0  0  0  0  0
  161.1330  203.7150  145.9850 O   0  0  0  0  0  0  0  0  0  0  0  0
  161.3530  206.9220  151.0030 C   0  0  1  0  0  3  0  0  0  0  0  0
  160.3700  201.2720  150.3180 Cl  0  0  0  0  0  0  0  0  0  0  0  0
  160.7830  202.6270  148.0580 C   0  0  0  0  0  3  0  0  0  0  0  0
  160.7130  208.9830  152.2900 C   0  0  1  0  0  3  0  0  0  0  0  0
  160.5500  208.0880  153.3500 O   0  0  0  0  0  1  0  0  0  0  0  0
  161.4270  210.4280  154.2550 C   0  0  0  0  0  1  0  0  0  0  0  0
  161.0740  210.3920  152.7770 C   0  0  0  0  0  3  0  0  0  0  0  0
  159.9230  211.3410  152.5110 C   0  0  0  0  0  1  0  0  0  0  0  0
  162.1570  210.6510  150.0260 C   0  0  0  0  0  2  0  0  0  0  0  0
  161.8740  211.5410  148.8130 C   0  0  0  0  0  3  0  0  0  0  0  0
  161.0410  212.7240  149.2060 C   0  0  0  0  0  3  0  0  0  0  0  0
  160.5070  213.4270  148.3630 O   0  0  0  0  0  0  0  0  0  0  0  0
  163.1300  211.9640  148.1100 C   0  0  0  0  0  3  0  0  0  0  0  0
  163.0870  212.5540  147.0400 O   0  0  0  0  0  0  0  0  0  0  0  0
  1  4  1  0  0  0  0
  2 10  1  0  0  0  0
  3 11  1  0  0  0  0
  5  1  1  6  0  0  0
  5 14  1  0  0  0  0
  7  3  1  6  0  0  0
  7  2  1  0  0  0  0
  7  5  1  0  0  0  0
  8 11  1  0  0  0  0
  8 16  1  0  0  0  0
  9 17  1  1  0  0  0
 10 22  1  1  0  0  0
 10  9  1  0  0  0  0
 11  1  2  0  0  0  0
 12  4  1  0  0  0  0
 12 15  1  0  0  0  0
 13  8  2  0  0  0  0
 14  9  1  0  0  0  0
 14  6  1  1  0  0  0
 16 12  2  0  0  0  0
 17 20  1  0  0  0  0
 17 18  1  1  0  0  0
 20 19  1  0  0  0  0
 21 20  1  0  0  0  0
 23 24  1  0  0  0  0
 23 22  1  0  0  0  0
 25 24  2  0  0  0  0
 26 23  1  0  0  0  0
 27 26  2  0  0  0  0
M  END
>  <MODEL>
7

>  <REMARK>
 VINA RESULT:      -6.0      3.316      7.892
  Name = 
  6 active torsions:
  status: ('A' for Active; 'I' for Inactive)
    1  A    between atoms: C_3  and  C_22
    2  A    between atoms: C_4  and  C_22
    3  A    between atoms: C_10  and  C_16
    4  A    between atoms: C_10  and  C_18
    5  A    between atoms: C_17  and  C_24
    6  A    between atoms: C_22  and  C_24
                            x       y       z     vdW  Elec       q    Type
                         _______ _______ _______ _____ _____    ______ ____

>  <TORSDO>
F 6

$$$$
=
 OpenBabel11072413163D

 27 29  0  0  1  0  0  0  0  0999 V2000
  160.7470  203.8810  149.3650 C   0  0  0  0  0  0  0  0  0  0  0  0
  161.1020  206.1060  152.1530 O   0  0  0  0  0  0  0  0  0  0  0  0
  160.9710  203.4190  151.9610 S   0  0  0  0  0  0  0  0  0  0  0  0
  160.5900  203.6370  147.8830 C   0  0  0  0  0  2  0  0  0  0  0  0
  160.6590  205.2190  150.0080 C   0  0  1  0  0  3  0  0  0  0  0  0
  160.5530  206.6950  148.1340 O   0  0  0  0  0  1  0  0  0  0  0  0
  161.4240  205.0480  151.3000 C   0  0  1  0  0  3  0  0  0  0  0  0
  161.0420  201.5080  149.8030 C   0  0  0  0  0  0  0  0  0  0  0  0
  161.3950  207.6100  150.1890 C   0  0  2  0  0  3  0  0  0  0  0  0
  161.7960  207.2350  151.6550 C   0  0  1  0  0  3  0  0  0  0  0  0
  160.8780  202.8960  150.2480 C   0  0  0  0  0  0  0  0  0  0  0  0
  160.8410  202.2020  147.4720 C   0  0  0  0  0  0  0  0  0  0  0  0
  161.1990  200.5770  150.6350 O   0  0  0  0  0  0  0  0  0  0  0  0
  161.3070  206.3750  149.2640 C   0  0  1  0  0  3  0  0  0  0  0  0
  160.8310  201.8030  145.7680 Cl  0  0  0  0  0  0  0  0  0  0  0  0
  161.0300  201.2220  148.3630 C   0  0  0  0  0  3  0  0  0  0  0  0
  162.3300  208.6530  149.5490 C   0  0  1  0  0  3  0  0  0  0  0  0
  162.8520  208.2080  148.3320 O   0  0  0  0  0  1  0  0  0  0  0  0
  162.3000  210.8490  148.2710 C   0  0  0  0  0  1  0  0  0  0  0  0
  161.7270  210.0590  149.4360 C   0  0  0  0  0  3  0  0  0  0  0  0
  161.9560  210.8240  150.7240 C   0  0  0  0  0  1  0  0  0  0  0  0
  161.6230  208.4100  152.6210 C   0  0  0  0  0  2  0  0  0  0  0  0
  160.6380  208.1100  153.7540 C   0  0  0  0  0  3  0  0  0  0  0  0
  161.3150  207.3610  154.8620 C   0  0  0  0  0  3  0  0  0  0  0  0
  161.5790  207.9070  155.9220 O   0  0  0  0  0  0  0  0  0  0  0  0
  159.9600  209.3480  154.2630 C   0  0  0  0  0  3  0  0  0  0  0  0
  160.1240  210.4280  153.7160 O   0  0  0  0  0  0  0  0  0  0  0  0
  1 11  2  0  0  0  0
  4  1  1  0  0  0  0
  5  1  1  6  0  0  0
  5  7  1  0  0  0  0
  7  3  1  1  0  0  0
  7  2  1  0  0  0  0
  8 11  1  0  0  0  0
  8 13  2  0  0  0  0
  9 17  1  6  0  0  0
  9 10  1  0  0  0  0
 10  2  1  0  0  0  0
 10 22  1  1  0  0  0
 11  3  1  0  0  0  0
 12  4  1  0  0  0  0
 12 16  2  0  0  0  0
 14  6  1  6  0  0  0
 14  5  1  0  0  0  0
 14  9  1  0  0  0  0
 15 12  1  0  0  0  0
 16  8  1  0  0  0  0
 17 18  1  6  0  0  0
 19 20  1  0  0  0  0
 20 17  1  0  0  0  0
 20 21  1  0  0  0  0
 22 23  1  0  0  0  0
 23 26  1  0  0  0  0
 23 24  1  0  0  0  0
 24 25  2  0  0  0  0
 27 26  2  0  0  0  0
M  END
>  <MODEL>
8

>  <REMARK>
 VINA RESULT:      -5.9      2.980      6.926
  Name = 
  6 active torsions:
  status: ('A' for Active; 'I' for Inactive)
    1  A    between atoms: C_3  and  C_22
    2  A    between atoms: C_4  and  C_22
    3  A    between atoms: C_10  and  C_16
    4  A    between atoms: C_10  and  C_18
    5  A    between atoms: C_17  and  C_24
    6  A    between atoms: C_22  and  C_24
                            x       y       z     vdW  Elec       q    Type
                         _______ _______ _______ _____ _____    ______ ____

>  <TORSDO>
F 6

$$$$
=
 OpenBabel11072413163D

 27 29  0  0  1  0  0  0  0  0999 V2000
  160.8190  204.6390  150.1250 C   0  0  0  0  0  0  0  0  0  0  0  0
  160.9290  205.6580  153.5600 O   0  0  0  0  0  0  0  0  0  0  0  0
  160.8430  203.2390  152.3710 S   0  0  0  0  0  0  0  0  0  0  0  0
  160.7830  204.9670  148.6510 C   0  0  0  0  0  2  0  0  0  0  0  0
  160.6670  205.6420  151.2110 C   0  0  1  0  0  3  0  0  0  0  0  0
  160.6920  207.7120  150.0200 O   0  0  0  0  0  1  0  0  0  0  0  0
  161.3290  204.9880  152.4010 C   0  0  1  0  0  3  0  0  0  0  0  0
  161.1050  202.2680  149.6680 C   0  0  0  0  0  0  0  0  0  0  0  0
  161.3600  207.7790  152.3270 C   0  0  2  0  0  3  0  0  0  0  0  0
  161.6480  206.8780  153.5740 C   0  0  1  0  0  3  0  0  0  0  0  0
  160.8910  203.3940  150.5840 C   0  0  0  0  0  0  0  0  0  0  0  0
  161.0810  203.7840  147.7560 C   0  0  0  0  0  0  0  0  0  0  0  0
  161.2050  201.0910  150.1020 O   0  0  0  0  0  0  0  0  0  0  0  0
  161.3590  206.9800  151.0050 C   0  0  1  0  0  3  0  0  0  0  0  0
  161.2100  204.0490  146.0300 Cl  0  0  0  0  0  0  0  0  0  0  0  0
  161.2090  202.5400  148.2290 C   0  0  0  0  0  3  0  0  0  0  0  0
  162.3310  208.9670  152.1960 C   0  0  1  0  0  3  0  0  0  0  0  0
  162.9440  209.0040  150.9420 O   0  0  0  0  0  1  0  0  0  0  0  0
  162.0450  210.7210  154.0130 C   0  0  0  0  0  1  0  0  0  0  0  0
  161.7280  210.3240  152.5810 C   0  0  0  0  0  3  0  0  0  0  0  0
  160.2250  210.2950  152.3870 C   0  0  0  0  0  1  0  0  0  0  0  0
  161.3860  207.6120  154.8920 C   0  0  0  0  0  2  0  0  0  0  0  0
  159.9010  207.8940  155.1320 C   0  0  0  0  0  3  0  0  0  0  0  0
  159.3340  206.9370  156.1360 C   0  0  0  0  0  3  0  0  0  0  0  0
  159.8320  206.8180  157.2450 O   0  0  0  0  0  0  0  0  0  0  0  0
  159.6480  209.3190  155.5290 C   0  0  0  0  0  3  0  0  0  0  0  0
  158.5370  209.8160  155.4240 O   0  0  0  0  0  0  0  0  0  0  0  0
  1 11  2  0  0  0  0
  2 10  1  0  0  0  0
  4  1  1  0  0  0  0
  5  1  1  6  0  0  0
  5  7  1  0  0  0  0
  7  3  1  1  0  0  0
  7  2  1  0  0  0  0
  8 13  2  0  0  0  0
  8 11  1  0  0  0  0
  9 17  1  6  0  0  0
  9 10  1  0  0  0  0
 10 22  1  1  0  0  0
 11  3  1  0  0  0  0
 12 16  2  0  0  0  0
 12  4  1  0  0  0  0
 14  6  1  6  0  0  0
 14  5  1  0  0  0  0
 14  9  1  0  0  0  0
 15 12  1  0  0  0  0
 16  8  1  0  0  0  0
 17 18  1  6  0  0  0
 17 20  1  0  0  0  0
 20 19  1  0  0  0  0
 21 20  1  0  0  0  0
 22 23  1  0  0  0  0
 23 26  1  0  0  0  0
 23 24  1  0  0  0  0
 24 25  2  0  0  0  0
 27 26  2  0  0  0  0
M  END
>  <MODEL>
9

>  <REMARK>
 VINA RESULT:      -5.7      2.763      7.366
  Name = 
  6 active torsions:
  status: ('A' for Active; 'I' for Inactive)
    1  A    between atoms: C_3  and  C_22
    2  A    between atoms: C_4  and  C_22
    3  A    between atoms: C_10  and  C_16
    4  A    between atoms: C_10  and  C_18
    5  A    between atoms: C_17  and  C_24
    6  A    between atoms: C_22  and  C_24
                            x       y       z     vdW  Elec       q    Type
                         _______ _______ _______ _____ _____    ______ ____

>  <TORSDO>
F 6

$$$$
