=
 OpenBabel11072411433D

 49 53  0  0  1  0  0  0  0  0999 V2000
  161.4050  211.1130  148.5540 C   0  0  1  0  0  3  0  0  0  0  0  0
  159.5800  211.2950  153.8460 C   0  0  2  0  0  3  0  0  0  0  0  0
  161.3000  213.9210  150.1110 C   0  0  0  0  0  3  0  0  0  0  0  0
  161.1610  207.7890  149.0530 C   0  0  0  0  0  0  0  0  0  0  0  0
  162.3460  205.4950  151.9270 C   0  0  2  0  0  3  0  0  0  0  0  0
  158.7720  210.2490  153.2280 C   0  0  0  0  0  2  0  0  0  0  0  0
  161.0500  212.4610  150.5490 C   0  0  1  0  0  3  0  0  0  0  0  0
  161.3120  209.4910  154.5160 C   0  0  0  0  0  0  0  0  0  0  0  0
  160.4520  207.3950  151.3840 C   0  0  0  0  0  2  0  0  0  0  0  0
  160.7630  203.6300  151.4410 C   0  0  1  0  0  0  0  0  0  0  0  0
  160.2590  210.6330  155.0190 C   0  0  0  0  0  2  0  0  0  0  0  0
  159.5570  211.9450  150.4360 C   0  0  0  0  0  2  0  0  0  0  0  0
  158.2670  213.4670  152.8710 C   0  0  2  0  0  0  0  0  0  0  0  0
  162.2030  208.9340  155.2540 C   0  0  0  0  0  2  0  0  0  0  0  0
  162.3160  213.3820  147.7840 C   0  0  0  0  0  0  0  0  0  0  0  0
  161.9600  214.4020  148.7810 C   0  0  0  0  0  3  0  0  0  0  0  0
  159.1760  213.3710  155.0290 O   0  0  0  0  0  1  0  0  0  0  0  0
  163.6370  213.2140  147.6690 C   0  0  0  0  0  2  0  0  0  0  0  0
  160.9790  208.9900  153.0600 C   0  0  2  0  0  3  0  0  0  0  0  0
  161.2330  204.5140  152.5780 C   0  0  0  0  0  2  0  0  0  0  0  0
  159.7880  204.8330  149.6260 O   0  0  0  0  0  0  0  0  0  0  0  0
  161.0620  208.6540  148.0580 C   0  0  0  0  0  3  0  0  0  0  0  0
  159.3290  214.4500  152.6730 O   0  0  0  0  0  1  0  0  0  0  0  0
  159.8120  209.4820  152.5240 C   0  0  0  0  0  2  0  0  0  0  0  0
  162.8650  204.9690  149.5170 C   0  0  0  0  0  1  0  0  0  0  0  0
  162.5150  206.8340  152.7200 C   0  0  0  0  0  2  0  0  0  0  0  0
  161.9140  205.7210  150.3930 C   0  0  1  0  0  0  0  0  0  0  0  0
  161.3450  207.7610  152.4730 N   0  0  2  0  0  0  0  0  0  0  0  0
  161.9660  209.8110  147.9240 C   0  0  0  0  0  2  0  0  0  0  0  0
  160.8240  204.6320  150.3490 C   0  0  0  0  0  0  0  0  0  0  0  0
  161.7060  202.5880  152.0240 C   0  0  0  0  0  1  0  0  0  0  0  0
  158.6850  212.5120  154.0980 C   0  0  2  0  0  3  0  0  0  0  0  0
  157.9890  212.6060  151.2100 S   0  0  0  0  0  0  0  0  0  0  0  0
  161.3000  207.0790  150.2040 C   0  0  0  0  0  0  0  0  0  0  0  0
  161.9390  211.4700  149.9880 C   0  0  1  0  0  3  0  0  0  0  0  0
  161.4150  212.2900  147.5580 C   0  0  1  0  0  3  0  0  0  0  0  0
  159.4630  202.9310  151.4870 O   0  0  0  0  0  1  0  0  0  0  0  0
  162.6570  210.7880  151.1920 C   0  0  0  0  0  1  0  0  0  0  0  0
  157.1860  214.2330  153.3860 O   0  0  0  0  0  0  0  0  0  0  0  0
  156.2160  213.3600  154.0190 C   0  0  0  0  0  2  0  0  0  0  0  0
  155.6700  214.0000  155.3150 C   0  0  0  0  0  2  0  0  0  0  0  0
  154.6190  213.1680  157.1590 O   0  0  0  0  0  1  0  0  0  0  0  0
  155.7680  213.0080  156.4080 C   0  0  1  0  0  3  0  0  0  0  0  0
  154.7520  210.7660  156.3520 O   0  0  0  0  0  1  0  0  0  0  0  0
  155.8600  211.5490  155.9870 C   0  0  0  0  0  2  0  0  0  0  0  0
  160.6520  212.1870  146.3080 N   0  0  0  0  0  2  0  0  0  0  0  0
  159.6330  213.2270  146.3920 C   0  0  0  0  0  2  0  0  0  0  0  0
  157.2170  212.5110  146.4110 C   0  0  0  0  0  1  0  0  0  0  0  0
  158.4250  212.9240  147.2370 C   0  0  0  0  0  2  0  0  0  0  0  0
  1 29  1  6  0  0  0
  1 35  1  0  0  0  0
  2  6  1  1  0  0  0
  2 32  1  0  0  0  0
  2 11  1  0  0  0  0
  4 34  2  0  0  0  0
  5 20  1  1  0  0  0
  5 26  1  0  0  0  0
  7  3  1  6  0  0  0
  8 11  1  0  0  0  0
  8 14  2  0  0  0  0
 10 37  1  0  0  0  0
 10 31  1  6  0  0  0
 10 20  1  0  0  0  0
 12  7  1  0  0  0  0
 12 33  1  0  0  0  0
 13 23  1  6  0  0  0
 13 39  1  0  0  0  0
 13 32  1  0  0  0  0
 15 16  1  0  0  0  0
 16  3  2  0  0  0  0
 18 15  2  0  0  0  0
 19 24  1  1  0  0  0
 19  8  1  0  0  0  0
 21 30  2  0  0  0  0
 22  4  2  0  0  0  0
 24  6  1  0  0  0  0
 27 25  1  6  0  0  0
 27  5  1  0  0  0  0
 28  9  1  6  0  0  0
 28 26  1  0  0  0  0
 28 19  1  0  0  0  0
 29 22  1  0  0  0  0
 30 27  1  0  0  0  0
 30 10  1  0  0  0  0
 32 17  1  1  0  0  0
 33 13  1  0  0  0  0
 34 27  1  0  0  0  0
 34  9  1  0  0  0  0
 35  7  1  0  0  0  0
 35 38  1  1  0  0  0
 36 46  1  6  0  0  0
 36 15  1  0  0  0  0
 36  1  1  0  0  0  0
 39 40  1  0  0  0  0
 40 41  1  0  0  0  0
 41 43  1  0  0  0  0
 43 42  1  1  0  0  0
 45 44  1  0  0  0  0
 45 43  1  0  0  0  0
 46 47  1  0  0  0  0
 47 49  1  0  0  0  0
 48 49  1  0  0  0  0
M  END
>  <MODEL>
1

>  <REMARK>
 VINA RESULT:       3.0      0.000      0.000
  Name = 
  8 active torsions:
  status: ('A' for Active; 'I' for Inactive)
    1  A    between atoms: C_15  and  O_19
    2  A    between atoms: O_19  and  C_30
    3  A    between atoms: C_20  and  C_44
    4  A    between atoms: C_21  and  C_30
    5  A    between atoms: C_21  and  C_37
    6  A    between atoms: N_24  and  C_44
    7  A    between atoms: N_24  and  C_47
    8  A    between atoms: C_37  and  C_39
                            x       y       z     vdW  Elec       q    Type
                         _______ _______ _______ _____ _____    ______ ____

>  <TORSDO>
F 8

$$$$
