=
 OpenBabel11072411043D

 30 34  0  0  1  0  0  0  0  0999 V2000
  161.8030  204.1100  147.6010 C   0  0  2  0  0  3  0  0  0  0  0  0
  161.1580  207.4200  151.7040 N   0  0  0  0  0  0  0  0  0  0  0  0
  161.8220  203.7020  151.2940 C   0  0  0  0  0  2  0  0  0  0  0  0
  161.4250  201.5700  146.4890 O   0  0  0  0  0  0  0  0  0  0  0  0
  160.9400  201.2320  147.7610 C   0  0  0  0  0  0  0  0  0  0  0  0
  161.0840  205.4120  149.7760 C   0  0  0  0  0  0  0  0  0  0  0  0
  160.7910  203.9730  146.4520 C   0  0  2  0  0  3  0  0  0  0  0  0
  161.5150  205.1390  151.1160 C   0  0  0  0  0  0  0  0  0  0  0  0
  160.6930  207.7840  150.3520 C   0  0  0  0  0  2  0  0  0  0  0  0
  160.2040  203.0210  149.4630 C   0  0  2  0  0  3  0  0  0  0  0  0
  160.6770  206.6180  149.3880 C   0  0  0  0  0  3  0  0  0  0  0  0
  159.9450  202.0390  148.4020 N   0  0  0  0  0  2  0  0  0  0  0  0
  161.0930  204.1700  148.9630 C   0  0  1  0  0  0  0  0  0  0  0  0
  161.6720  203.0870  149.8870 C   0  0  1  0  0  3  0  0  0  0  0  0
  161.4220  200.2390  148.3640 O   0  0  0  0  0  0  0  0  0  0  0  0
  161.5400  206.0790  152.0510 C   0  0  0  0  0  3  0  0  0  0  0  0
  160.9190  202.6470  145.6840 C   0  0  2  0  0  3  0  0  0  0  0  0
  160.4960  209.6890  152.4240 N   0  0  0  0  0  0  0  0  0  0  0  0
  161.8790  209.5190  152.4820 O   0  0  0  0  0  0  0  0  0  0  0  0
  161.1870  208.0180  154.0930 O   0  0  0  0  0  1  0  0  0  0  0  0
  161.1240  208.4270  152.7540 C   0  0  2  0  0  0  0  0  0  0  0  0
  160.1190  210.4150  153.6280 C   0  0  0  0  0  1  0  0  0  0  0  0
  160.6530  205.1730  145.5610 C   0  0  0  0  0  0  0  0  0  0  0  0
  160.1310  206.2380  145.9930 O   0  0  0  0  0  1  0  0  0  0  0  0
  161.0710  205.0970  144.2380 O   0  0  0  0  0  0  0  0  0  0  0  0
  159.3130  202.1870  144.9570 S   0  0  0  0  0  0  0  0  0  0  0  0
  159.8580  200.4900  144.6120 C   0  0  0  0  0  1  0  0  0  0  0  0
  162.9170  205.1460  147.4100 C   0  0  0  0  0  2  0  0  0  0  0  0
  163.9370  204.2320  145.3260 C   0  0  0  0  0  1  0  0  0  0  0  0
  164.1540  204.5020  146.8050 C   0  0  0  0  0  2  0  0  0  0  0  0
  1 28  1  6  0  0  0
  1 13  1  0  0  0  0
  2 16  1  0  0  0  0
  2 21  1  0  0  0  0
  4  5  1  0  0  0  0
  5 15  2  0  0  0  0
  5 12  1  0  0  0  0
  6  8  1  0  0  0  0
  7 23  1  6  0  0  0
  7  1  1  0  0  0  0
  8  3  1  0  0  0  0
  8 16  2  0  0  0  0
  9  2  1  0  0  0  0
 10 12  1  6  0  0  0
 10 14  1  0  0  0  0
 11  6  2  0  0  0  0
 11  9  1  0  0  0  0
 13 10  1  0  0  0  0
 13  6  1  1  0  0  0
 13 14  1  0  0  0  0
 14  3  1  1  0  0  0
 17 26  1  1  0  0  0
 17  7  1  0  0  0  0
 17  4  1  0  0  0  0
 18 19  1  0  0  0  0
 18 21  1  0  0  0  0
 18 22  1  0  0  0  0
 19 21  1  0  0  0  0
 21 20  1  1  0  0  0
 23 24  1  0  0  0  0
 25 23  2  0  0  0  0
 27 26  1  0  0  0  0
 29 30  1  0  0  0  0
 30 28  1  0  0  0  0
M  END
>  <MODEL>
1

>  <REMARK>
 VINA RESULT:      -5.3      0.000      0.000
  Name = 
  5 active torsions:
  status: ('A' for Active; 'I' for Inactive)
    1  A    between atoms: C_1  and  C_22
    2  A    between atoms: S_2  and  C_30
    3  A    between atoms: N_3  and  C_21
    4  A    between atoms: C_9  and  C_14
    5  A    between atoms: C_15  and  C_22
                            x       y       z     vdW  Elec       q    Type
                         _______ _______ _______ _____ _____    ______ ____

>  <TORSDO>
F 5

$$$$
=
 OpenBabel11072411043D

 30 34  0  0  1  0  0  0  0  0999 V2000
  160.7510  210.4450  154.4930 C   0  0  2  0  0  3  0  0  0  0  0  0
  161.5870  207.8030  149.9610 N   0  0  0  0  0  0  0  0  0  0  0  0
  161.0530  211.4390  150.9250 C   0  0  0  0  0  2  0  0  0  0  0  0
  159.5060  212.5590  155.8390 O   0  0  0  0  0  0  0  0  0  0  0  0
  159.0860  212.9500  154.5590 C   0  0  0  0  0  0  0  0  0  0  0  0
  160.7010  209.3670  152.0890 C   0  0  0  0  0  0  0  0  0  0  0  0
  159.6240  210.1030  155.4810 C   0  0  2  0  0  3  0  0  0  0  0  0
  161.1750  209.9650  150.8740 C   0  0  0  0  0  0  0  0  0  0  0  0
  161.1070  207.1080  151.1710 C   0  0  0  0  0  2  0  0  0  0  0  0
  159.1140  211.3300  152.5560 C   0  0  2  0  0  3  0  0  0  0  0  0
  160.6350  208.0480  152.2580 C   0  0  0  0  0  3  0  0  0  0  0  0
  158.4560  212.0120  153.6780 N   0  0  0  0  0  2  0  0  0  0  0  0
  160.2460  210.4110  153.0400 C   0  0  1  0  0  0  0  0  0  0  0  0
  160.5710  211.7490  152.3580 C   0  0  1  0  0  3  0  0  0  0  0  0
  159.3100  214.1230  154.1640 O   0  0  0  0  0  0  0  0  0  0  0  0
  161.5840  209.2360  149.8460 C   0  0  0  0  0  3  0  0  0  0  0  0
  159.2620  211.2670  156.4170 C   0  0  2  0  0  3  0  0  0  0  0  0
  160.9000  206.4230  148.0310 N   0  0  0  0  0  0  0  0  0  0  0  0
  161.6850  205.6950  148.9240 O   0  0  0  0  0  0  0  0  0  0  0  0
  163.2070  207.2650  148.1870 O   0  0  0  0  0  1  0  0  0  0  0  0
  161.9740  207.0130  148.8020 C   0  0  2  0  0  0  0  0  0  0  0  0
  161.3540  206.0630  146.6950 C   0  0  0  0  0  1  0  0  0  0  0  0
  159.7560  208.7830  156.1840 C   0  0  0  0  0  0  0  0  0  0  0  0
  160.4070  208.6910  157.2610 O   0  0  0  0  0  1  0  0  0  0  0  0
  159.1850  207.6460  155.6230 O   0  0  0  0  0  0  0  0  0  0  0  0
  157.5220  211.1320  156.9400 S   0  0  0  0  0  0  0  0  0  0  0  0
  157.3900  212.9140  157.2610 C   0  0  0  0  0  1  0  0  0  0  0  0
  162.0970  209.7470  154.7230 C   0  0  0  0  0  2  0  0  0  0  0  0
  163.0580  210.6480  156.8400 C   0  0  0  0  0  1  0  0  0  0  0  0
  163.1070  210.7110  155.3230 C   0  0  0  0  0  2  0  0  0  0  0  0
  1 28  1  6  0  0  0
  1  7  1  0  0  0  0
  2  9  1  0  0  0  0
  4 17  1  0  0  0  0
  5  4  1  0  0  0  0
  6 11  2  0  0  0  0
  7 23  1  1  0  0  0
  7 17  1  0  0  0  0
  8  3  1  0  0  0  0
  8  6  1  0  0  0  0
  9 11  1  0  0  0  0
 10 13  1  0  0  0  0
 10 12  1  1  0  0  0
 12  5  1  0  0  0  0
 13  6  1  6  0  0  0
 13  1  1  0  0  0  0
 14  3  1  6  0  0  0
 14 10  1  0  0  0  0
 14 13  1  0  0  0  0
 15  5  2  0  0  0  0
 16  2  1  0  0  0  0
 16  8  2  0  0  0  0
 17 26  1  6  0  0  0
 18 21  1  0  0  0  0
 18 19  1  0  0  0  0
 21 20  1  6  0  0  0
 21 19  1  0  0  0  0
 21  2  1  0  0  0  0
 22 18  1  0  0  0  0
 23 24  1  0  0  0  0
 25 23  2  0  0  0  0
 26 27  1  0  0  0  0
 28 30  1  0  0  0  0
 30 29  1  0  0  0  0
M  END
>  <MODEL>
2

>  <REMARK>
 VINA RESULT:      -4.4      4.319     10.011
  Name = 
  5 active torsions:
  status: ('A' for Active; 'I' for Inactive)
    1  A    between atoms: C_1  and  C_22
    2  A    between atoms: S_2  and  C_30
    3  A    between atoms: N_3  and  C_21
    4  A    between atoms: C_9  and  C_14
    5  A    between atoms: C_15  and  C_22
                            x       y       z     vdW  Elec       q    Type
                         _______ _______ _______ _____ _____    ______ ____

>  <TORSDO>
F 5

$$$$
=
 OpenBabel11072411043D

 30 34  0  0  1  0  0  0  0  0999 V2000
  161.8280  204.1600  147.8840 C   0  0  2  0  0  3  0  0  0  0  0  0
  160.9110  206.9480  152.3110 N   0  0  0  0  0  0  0  0  0  0  0  0
  161.6820  203.3180  151.5000 C   0  0  0  0  0  2  0  0  0  0  0  0
  161.5630  201.7630  146.4640 O   0  0  0  0  0  0  0  0  0  0  0  0
  161.0270  201.2680  147.6620 C   0  0  0  0  0  0  0  0  0  0  0  0
  160.9760  205.1810  150.1580 C   0  0  0  0  0  0  0  0  0  0  0  0
  160.8740  204.1410  146.6780 C   0  0  2  0  0  3  0  0  0  0  0  0
  161.3500  204.7600  151.4770 C   0  0  0  0  0  0  0  0  0  0  0  0
  160.5020  207.4610  150.9890 C   0  0  0  0  0  2  0  0  0  0  0  0
  160.1690  202.8290  149.5240 C   0  0  2  0  0  3  0  0  0  0  0  0
  160.5590  206.4180  149.8950 C   0  0  0  0  0  3  0  0  0  0  0  0
  159.9830  201.9750  148.3430 N   0  0  0  0  0  2  0  0  0  0  0  0
  161.0530  204.0450  149.2070 C   0  0  1  0  0  0  0  0  0  0  0  0
  161.6130  202.8710  150.0250 C   0  0  1  0  0  3  0  0  0  0  0  0
  161.5030  200.2200  148.1680 O   0  0  0  0  0  0  0  0  0  0  0  0
  161.3090  205.5820  152.5160 C   0  0  0  0  0  3  0  0  0  0  0  0
  161.0700  202.9180  145.7670 C   0  0  2  0  0  3  0  0  0  0  0  0
  161.5010  207.4040  154.6660 N   0  0  0  0  0  0  0  0  0  0  0  0
  160.1230  207.2720  154.5020 O   0  0  0  0  0  0  0  0  0  0  0  0
  160.5280  209.1830  153.2720 O   0  0  0  0  0  1  0  0  0  0  0  0
  160.8040  207.8230  153.4680 C   0  0  2  0  0  0  0  0  0  0  0  0
  161.7040  208.5260  155.5710 C   0  0  0  0  0  1  0  0  0  0  0  0
  160.7500  205.4360  145.9290 C   0  0  0  0  0  0  0  0  0  0  0  0
  159.9940  206.3540  146.3520 O   0  0  0  0  0  1  0  0  0  0  0  0
  161.4460  205.6090  144.7380 O   0  0  0  0  0  0  0  0  0  0  0  0
  159.5120  202.5190  144.9130 S   0  0  0  0  0  0  0  0  0  0  0  0
  159.9570  200.7680  144.7350 C   0  0  0  0  0  1  0  0  0  0  0  0
  162.9250  205.2310  147.8710 C   0  0  0  0  0  2  0  0  0  0  0  0
  163.0330  207.6730  148.3610 C   0  0  0  0  0  1  0  0  0  0  0  0
  162.3410  206.5960  147.5440 C   0  0  0  0  0  2  0  0  0  0  0  0
  1 28  1  1  0  0  0
  1 13  1  0  0  0  0
  2 16  1  0  0  0  0
  2 21  1  0  0  0  0
  4  5  1  0  0  0  0
  5 15  2  0  0  0  0
  5 12  1  0  0  0  0
  6  8  1  0  0  0  0
  7 23  1  6  0  0  0
  7  1  1  0  0  0  0
  8  3  1  0  0  0  0
  8 16  2  0  0  0  0
  9  2  1  0  0  0  0
 10 12  1  6  0  0  0
 10 14  1  0  0  0  0
 11  6  2  0  0  0  0
 11  9  1  0  0  0  0
 13 10  1  0  0  0  0
 13 14  1  0  0  0  0
 13  6  1  1  0  0  0
 14  3  1  1  0  0  0
 17 26  1  1  0  0  0
 17  4  1  0  0  0  0
 17  7  1  0  0  0  0
 18 22  1  0  0  0  0
 19 18  1  0  0  0  0
 21 20  1  6  0  0  0
 21 19  1  0  0  0  0
 21 18  1  0  0  0  0
 23 24  1  0  0  0  0
 25 23  2  0  0  0  0
 27 26  1  0  0  0  0
 30 28  1  0  0  0  0
 30 29  1  0  0  0  0
M  END
>  <MODEL>
3

>  <REMARK>
 VINA RESULT:      -4.3      1.112      1.546
  Name = 
  5 active torsions:
  status: ('A' for Active; 'I' for Inactive)
    1  A    between atoms: C_1  and  C_22
    2  A    between atoms: S_2  and  C_30
    3  A    between atoms: N_3  and  C_21
    4  A    between atoms: C_9  and  C_14
    5  A    between atoms: C_15  and  C_22
                            x       y       z     vdW  Elec       q    Type
                         _______ _______ _______ _____ _____    ______ ____

>  <TORSDO>
F 5

$$$$
=
 OpenBabel11072411043D

 30 34  0  0  1  0  0  0  0  0999 V2000
  160.4830  211.0290  154.5820 C   0  0  2  0  0  3  0  0  0  0  0  0
  161.2770  206.2090  152.4960 N   0  0  0  0  0  0  0  0  0  0  0  0
  161.5600  209.7870  151.2500 C   0  0  0  0  0  2  0  0  0  0  0  0
  159.6390  213.6760  154.2460 O   0  0  0  0  0  0  0  0  0  0  0  0
  159.5290  213.3290  152.8910 C   0  0  0  0  0  0  0  0  0  0  0  0
  160.5160  208.8020  153.1760 C   0  0  0  0  0  0  0  0  0  0  0  0
  159.1720  211.4570  155.2610 C   0  0  2  0  0  3  0  0  0  0  0  0
  161.3040  208.5410  152.0060 C   0  0  0  0  0  0  0  0  0  0  0  0
  160.4590  206.3880  153.7120 C   0  0  0  0  0  2  0  0  0  0  0  0
  159.4370  210.8740  152.1130 C   0  0  2  0  0  3  0  0  0  0  0  0
  160.0880  207.8310  153.9800 C   0  0  0  0  0  3  0  0  0  0  0  0
  158.8180  212.1500  152.4940 N   0  0  0  0  0  2  0  0  0  0  0  0
  160.2090  210.2490  153.2850 C   0  0  1  0  0  0  0  0  0  0  0  0
  160.9660  210.9110  152.1230 C   0  0  1  0  0  3  0  0  0  0  0  0
  160.1050  214.0320  152.0220 O   0  0  0  0  0  0  0  0  0  0  0  0
  161.6600  207.3130  151.6590 C   0  0  0  0  0  3  0  0  0  0  0  0
  158.9870  212.9820  155.3200 C   0  0  2  0  0  3  0  0  0  0  0  0
  160.6020  204.1410  151.3250 N   0  0  0  0  0  0  0  0  0  0  0  0
  160.8740  203.8990  152.6710 O   0  0  0  0  0  0  0  0  0  0  0  0
  162.9630  204.5150  151.9080 O   0  0  0  0  0  1  0  0  0  0  0  0
  161.6150  204.8610  152.0690 C   0  0  2  0  0  0  0  0  0  0  0  0
  161.1870  203.0360  150.5810 C   0  0  0  0  0  1  0  0  0  0  0  0
  158.8530  210.7610  156.5520 C   0  0  0  0  0  0  0  0  0  0  0  0
  157.8730  211.1300  157.2560 O   0  0  0  0  0  1  0  0  0  0  0  0
  159.6670  209.7240  156.9920 O   0  0  0  0  0  0  0  0  0  0  0  0
  157.2140  213.3960  155.3510 S   0  0  0  0  0  0  0  0  0  0  0  0
  157.3840  214.3920  156.8590 C   0  0  0  0  0  1  0  0  0  0  0  0
  161.5540  210.4130  155.4900 C   0  0  0  0  0  2  0  0  0  0  0  0
  163.3210  210.8910  157.1830 C   0  0  0  0  0  1  0  0  0  0  0  0
  162.3990  211.4970  156.1390 C   0  0  0  0  0  2  0  0  0  0  0  0
  1  7  1  0  0  0  0
  1 28  1  1  0  0  0
  2  9  1  0  0  0  0
  3  8  1  0  0  0  0
  4 17  1  0  0  0  0
  5  4  1  0  0  0  0
  6 11  2  0  0  0  0
  7 17  1  0  0  0  0
  7 23  1  1  0  0  0
  8  6  1  0  0  0  0
  9 11  1  0  0  0  0
 10 14  1  0  0  0  0
 10 12  1  1  0  0  0
 10 13  1  0  0  0  0
 12  5  1  0  0  0  0
 13  6  1  1  0  0  0
 13  1  1  0  0  0  0
 14  3  1  6  0  0  0
 14 13  1  0  0  0  0
 15  5  2  0  0  0  0
 16  8  2  0  0  0  0
 16  2  1  0  0  0  0
 17 26  1  6  0  0  0
 18 21  1  0  0  0  0
 18 19  1  0  0  0  0
 21 20  1  6  0  0  0
 21  2  1  0  0  0  0
 21 19  1  0  0  0  0
 22 18  1  0  0  0  0
 23 25  2  0  0  0  0
 23 24  1  0  0  0  0
 26 27  1  0  0  0  0
 28 30  1  0  0  0  0
 30 29  1  0  0  0  0
M  END
>  <MODEL>
4

>  <REMARK>
 VINA RESULT:      -2.5      4.916     10.199
  Name = 
  5 active torsions:
  status: ('A' for Active; 'I' for Inactive)
    1  A    between atoms: C_1  and  C_22
    2  A    between atoms: S_2  and  C_30
    3  A    between atoms: N_3  and  C_21
    4  A    between atoms: C_9  and  C_14
    5  A    between atoms: C_15  and  C_22
                            x       y       z     vdW  Elec       q    Type
                         _______ _______ _______ _____ _____    ______ ____

>  <TORSDO>
F 5

$$$$
=
 OpenBabel11072411043D

 30 34  0  0  1  0  0  0  0  0999 V2000
  159.9760  209.1920  154.1070 C   0  0  2  0  0  3  0  0  0  0  0  0
  161.4090  207.1450  149.4200 N   0  0  0  0  0  0  0  0  0  0  0  0
  160.5260  205.7430  152.8390 C   0  0  0  0  0  2  0  0  0  0  0  0
  160.0610  209.0710  156.9010 O   0  0  0  0  0  0  0  0  0  0  0  0
  160.7260  207.8530  156.6950 C   0  0  0  0  0  0  0  0  0  0  0  0
  161.0870  207.9480  152.0680 C   0  0  0  0  0  0  0  0  0  0  0  0
  160.7860  210.2690  154.8480 C   0  0  2  0  0  3  0  0  0  0  0  0
  160.8640  206.5880  151.6720 C   0  0  0  0  0  0  0  0  0  0  0  0
  161.6680  208.5610  149.7440 C   0  0  0  0  0  2  0  0  0  0  0  0
  161.8010  207.2500  154.4320 C   0  0  2  0  0  3  0  0  0  0  0  0
  161.4800  208.8870  151.2100 C   0  0  0  0  0  3  0  0  0  0  0  0
  161.8460  207.7740  155.8040 N   0  0  0  0  0  2  0  0  0  0  0  0
  160.8950  208.1030  153.5310 C   0  0  1  0  0  0  0  0  0  0  0  0
  160.4240  206.7260  154.0240 C   0  0  1  0  0  3  0  0  0  0  0  0
  160.3040  206.8120  157.2600 O   0  0  0  0  0  0  0  0  0  0  0  0
  161.0280  206.1850  150.4200 C   0  0  0  0  0  3  0  0  0  0  0  0
  160.4790  210.3310  156.3540 C   0  0  2  0  0  3  0  0  0  0  0  0
  160.5010  206.2130  147.3200 N   0  0  0  0  0  0  0  0  0  0  0  0
  161.4310  205.3510  147.9000 O   0  0  0  0  0  0  0  0  0  0  0  0
  162.7760  207.1520  147.3720 O   0  0  0  0  0  1  0  0  0  0  0  0
  161.6530  206.6780  148.0640 C   0  0  2  0  0  0  0  0  0  0  0  0
  160.7710  206.2090  145.8900 C   0  0  0  0  0  1  0  0  0  0  0  0
  160.8330  211.6150  154.1870 C   0  0  0  0  0  0  0  0  0  0  0  0
  161.2690  211.7390  153.0100 O   0  0  0  0  0  0  0  0  0  0  0  0
  160.4250  212.7410  154.8940 O   0  0  0  0  0  1  0  0  0  0  0  0
  161.9270  210.9610  157.2610 S   0  0  0  0  0  0  0  0  0  0  0  0
  163.0560  210.5930  155.8870 C   0  0  0  0  0  1  0  0  0  0  0  0
  158.8920  209.6940  153.1460 C   0  0  0  0  0  2  0  0  0  0  0  0
  157.6310  211.8440  153.0710 C   0  0  0  0  0  1  0  0  0  0  0  0
  157.8950  210.5810  153.8730 C   0  0  0  0  0  2  0  0  0  0  0  0
  1 28  1  6  0  0  0
  1  7  1  0  0  0  0
  2  9  1  0  0  0  0
  2 16  1  0  0  0  0
  5  4  1  0  0  0  0
  5 15  2  0  0  0  0
  7 23  1  6  0  0  0
  7 17  1  0  0  0  0
  8  6  1  0  0  0  0
  8  3  1  0  0  0  0
  9 11  1  0  0  0  0
 10 12  1  1  0  0  0
 11  6  2  0  0  0  0
 12  5  1  0  0  0  0
 13  6  1  6  0  0  0
 13 14  1  0  0  0  0
 13  1  1  0  0  0  0
 13 10  1  0  0  0  0
 14  3  1  6  0  0  0
 14 10  1  0  0  0  0
 16  8  2  0  0  0  0
 17  4  1  0  0  0  0
 17 26  1  1  0  0  0
 18 19  1  0  0  0  0
 18 21  1  0  0  0  0
 19 21  1  0  0  0  0
 21 20  1  6  0  0  0
 21  2  1  0  0  0  0
 22 18  1  0  0  0  0
 23 25  1  0  0  0  0
 24 23  2  0  0  0  0
 27 26  1  0  0  0  0
 28 30  1  0  0  0  0
 29 30  1  0  0  0  0
M  END
>  <MODEL>
5

>  <REMARK>
 VINA RESULT:      -2.4      4.163      9.021
  Name = 
  5 active torsions:
  status: ('A' for Active; 'I' for Inactive)
    1  A    between atoms: C_1  and  C_22
    2  A    between atoms: S_2  and  C_30
    3  A    between atoms: N_3  and  C_21
    4  A    between atoms: C_9  and  C_14
    5  A    between atoms: C_15  and  C_22
                            x       y       z     vdW  Elec       q    Type
                         _______ _______ _______ _____ _____    ______ ____

>  <TORSDO>
F 5

$$$$
