=
 OpenBabel11072412553D

 41 47  0  0  1  0  0  0  0  0999 V2000
  162.1950  209.0910  148.7720 C   0  0  0  0  0  2  0  0  0  0  0  0
  157.7720  210.5540  154.0080 C   0  0  0  0  0  1  0  0  0  0  0  0
  160.2660  212.6790  156.1730 C   0  0  0  0  0  0  0  0  0  0  0  0
  161.4750  211.3460  149.6550 C   0  0  0  0  0  2  0  0  0  0  0  0
  163.8640  210.4590  154.8620 S   0  0  0  0  0  0  0  0  0  0  0  0
  163.3340  210.5270  153.2640 C   0  0  0  0  0  3  0  0  0  0  0  0
  162.3610  207.3280  150.6240 C   0  0  2  0  0  3  0  0  0  0  0  0
  159.0300  207.9780  154.3190 C   0  0  0  0  0  2  0  0  0  0  0  0
  161.1780  212.3080  157.1840 C   0  0  0  0  0  3  0  0  0  0  0  0
  161.7990  205.4290  153.5720 C   0  0  0  0  0  2  0  0  0  0  0  0
  161.7530  210.6330  150.9040 N   0  0  2  0  0  0  0  0  0  0  0  0
  160.5220  212.3450  154.8310 C   0  0  0  0  0  3  0  0  0  0  0  0
  159.9000  206.2040  155.7410 N   0  0  0  0  0  2  0  0  0  0  0  0
  158.1920  212.4770  157.2610 O   0  0  0  0  0  0  0  0  0  0  0  0
  158.9940  213.3580  156.5380 C   0  0  0  0  0  2  0  0  0  0  0  0
  156.4960  209.9330  156.0890 C   0  0  0  0  0  2  0  0  0  0  0  0
  158.6390  208.7480  155.5590 C   0  0  0  0  0  0  0  0  0  0  0  0
  162.3490  211.6090  156.8640 C   0  0  0  0  0  3  0  0  0  0  0  0
  160.5310  206.2090  153.3590 C   0  0  1  0  0  3  0  0  0  0  0  0
  155.8830  211.8830  157.2610 C   0  0  0  0  0  2  0  0  0  0  0  0
  161.6930  211.6390  154.5230 C   0  0  0  0  0  0  0  0  0  0  0  0
  156.8980  213.0060  157.1730 C   0  0  0  0  0  2  0  0  0  0  0  0
  160.9310  209.4230  150.9400 C   0  0  0  0  0  2  0  0  0  0  0  0
  161.5760  206.3610  151.4170 N   0  0  2  0  0  0  0  0  0  0  0  0
  160.2170  207.0560  154.5890 C   0  0  1  0  0  3  0  0  0  0  0  0
  161.3270  211.4950  151.9990 C   0  0  0  0  0  2  0  0  0  0  0  0
  161.5620  210.4440  148.4440 C   0  0  0  0  0  2  0  0  0  0  0  0
  160.7420  207.0450  152.2540 O   0  0  0  0  0  0  0  0  0  0  0  0
  157.8800  210.0530  155.4540 C   0  0  1  0  0  3  0  0  0  0  0  0
  162.5740  211.2880  155.5290 C   0  0  0  0  0  0  0  0  0  0  0  0
  155.7730  211.1970  155.9840 N   0  0  2  0  0  0  0  0  0  0  0  0
  161.4670  208.3870  149.9270 C   0  0  1  0  0  3  0  0  0  0  0  0
  162.1070  211.2100  153.2540 C   0  0  0  0  0  0  0  0  0  0  0  0
  158.9830  208.2770  156.7580 C   0  0  0  0  0  3  0  0  0  0  0  0
  162.4920  205.6080  152.2650 C   0  0  0  0  0  2  0  0  0  0  0  0
  159.7090  207.0450  156.8590 N   0  0  0  0  0  2  0  0  0  0  0  0
  154.3570  210.9010  155.8020 C   0  0  0  0  0  3  0  0  0  0  0  0
  154.2100  209.5630  155.4850 O   0  0  0  0  0  0  0  0  0  0  0  0
  153.9330  209.9750  156.7360 O   0  0  0  0  0  0  0  0  0  0  0  0
  162.4240  205.8070  148.7540 O   0  0  0  0  0  1  0  0  0  0  0  0
  163.2250  206.5660  149.6110 C   0  0  0  0  0  2  0  0  0  0  0  0
  3 15  1  0  0  0  0
  3  9  1  0  0  0  0
  5 30  1  0  0  0  0
  6  5  1  0  0  0  0
  7 41  1  6  0  0  0
  7 24  1  0  0  0  0
  8 17  1  0  0  0  0
 11  4  1  6  0  0  0
 11 23  1  0  0  0  0
 11 26  1  0  0  0  0
 12  3  2  0  0  0  0
 13 36  1  0  0  0  0
 15 14  1  0  0  0  0
 17 34  2  0  0  0  0
 18  9  2  0  0  0  0
 19 10  1  1  0  0  0
 19 25  1  0  0  0  0
 21 12  1  0  0  0  0
 21 30  2  0  0  0  0
 22 14  1  0  0  0  0
 22 20  1  0  0  0  0
 24 28  1  0  0  0  0
 24 35  1  1  0  0  0
 25  8  1  6  0  0  0
 25 13  1  0  0  0  0
 26 33  1  0  0  0  0
 27  1  1  0  0  0  0
 27  4  1  0  0  0  0
 28 19  1  0  0  0  0
 29  2  1  6  0  0  0
 29 17  1  0  0  0  0
 29 16  1  0  0  0  0
 30 18  1  0  0  0  0
 31 37  1  1  0  0  0
 31 16  1  0  0  0  0
 31 20  1  0  0  0  0
 32  1  1  6  0  0  0
 32  7  1  0  0  0  0
 32 23  1  0  0  0  0
 33  6  2  0  0  0  0
 33 21  1  0  0  0  0
 34 36  1  0  0  0  0
 35 10  1  0  0  0  0
 37 39  1  0  0  0  0
 38 37  1  0  0  0  0
 38 39  1  0  0  0  0
 40 41  1  0  0  0  0
M  END
>  <MODEL>
1

>  <REMARK>
 VINA RESULT:      14.6      0.000      0.000
  Name = 
  2 active torsions:
  status: ('A' for Active; 'I' for Inactive)
    1  A    between atoms: C_7  and  C_11
    2  A    between atoms: C_12  and  N_36
                            x       y       z     vdW  Elec       q    Type
                         _______ _______ _______ _____ _____    ______ ____

>  <TORSDO>
F 2

$$$$
=
 OpenBabel11072412553D

 41 47  0  0  1  0  0  0  0  0999 V2000
  154.7080  211.9530  155.1690 C   0  0  0  0  0  2  0  0  0  0  0  0
  159.3310  207.4860  152.3770 C   0  0  0  0  0  1  0  0  0  0  0  0
  161.7070  207.2320  155.4950 C   0  0  0  0  0  0  0  0  0  0  0  0
  155.4250  209.6810  156.0130 C   0  0  0  0  0  2  0  0  0  0  0  0
  160.9050  211.3540  156.8950 S   0  0  0  0  0  0  0  0  0  0  0  0
  159.2540  211.1260  156.6470 C   0  0  0  0  0  3  0  0  0  0  0  0
  156.6240  213.2180  154.0300 C   0  0  2  0  0  3  0  0  0  0  0  0
  159.8730  210.2240  151.6530 C   0  0  0  0  0  2  0  0  0  0  0  0
  162.8300  207.9940  155.8790 C   0  0  0  0  0  3  0  0  0  0  0  0
  159.5440  214.0110  152.1720 C   0  0  0  0  0  2  0  0  0  0  0  0
  156.7210  210.2770  155.6770 N   0  0  2  0  0  0  0  0  0  0  0  0
  160.4160  207.7860  155.5680 C   0  0  0  0  0  3  0  0  0  0  0  0
  161.4460  211.9880  151.0740 N   0  0  0  0  0  2  0  0  0  0  0  0
  162.5460  205.9540  153.7100 O   0  0  0  0  0  0  0  0  0  0  0  0
  161.8950  205.8650  154.9380 C   0  0  0  0  0  2  0  0  0  0  0  0
  161.2650  206.9350  150.8610 C   0  0  0  0  0  2  0  0  0  0  0  0
  161.0320  209.2600  151.7660 C   0  0  2  0  0  3  0  0  0  0  0  0
  162.6740  209.3060  156.3420 C   0  0  0  0  0  3  0  0  0  0  0  0
  159.1570  212.6290  151.7230 C   0  0  1  0  0  3  0  0  0  0  0  0
  162.2910  204.9360  151.5680 C   0  0  0  0  0  2  0  0  0  0  0  0
  160.2730  209.1030  156.0260 C   0  0  0  0  0  0  0  0  0  0  0  0
  162.2880  204.7340  153.0710 C   0  0  0  0  0  2  0  0  0  0  0  0
  156.6980  210.6740  154.2690 C   0  0  0  0  0  2  0  0  0  0  0  0
  157.3490  213.3760  152.7540 N   0  0  2  0  0  0  0  0  0  0  0  0
  160.3120  211.6570  151.9440 C   0  0  1  0  0  3  0  0  0  0  0  0
  157.7290  209.2360  155.8320 C   0  0  0  0  0  2  0  0  0  0  0  0
  154.2630  210.5490  155.5820 C   0  0  0  0  0  2  0  0  0  0  0  0
  158.0580  212.2370  152.5000 O   0  0  0  0  0  0  0  0  0  0  0  0
  160.7950  207.7900  152.0360 C   0  0  1  0  0  3  0  0  0  0  0  0
  161.3870  209.8310  156.4010 C   0  0  0  0  0  0  0  0  0  0  0  0
  161.0330  205.5200  151.1320 N   0  0  2  0  0  0  0  0  0  0  0  0
  155.7910  211.9100  154.0800 C   0  0  1  0  0  3  0  0  0  0  0  0
  159.0770  209.8230  156.1540 C   0  0  0  0  0  0  0  0  0  0  0  0
  162.2780  209.7180  151.6400 C   0  0  0  0  0  3  0  0  0  0  0  0
  158.3240  214.4490  152.9060 C   0  0  0  0  0  2  0  0  0  0  0  0
  162.5050  211.1110  151.3920 N   0  0  0  0  0  0  0  0  0  0  0  0
  160.6950  204.8620  149.8750 C   0  0  0  0  0  3  0  0  0  0  0  0
  159.8900  205.7010  149.1260 O   0  0  0  0  0  0  0  0  0  0  0  0
  161.1910  205.5800  148.8040 O   0  0  0  0  0  0  0  0  0  0  0  0
  154.5860  214.3890  153.4920 O   0  0  0  0  0  1  0  0  0  0  0  0
  155.7460  214.4530  154.2680 C   0  0  0  0  0  2  0  0  0  0  0  0
  1 27  1  0  0  0  0
  3 12  2  0  0  0  0
  3  9  1  0  0  0  0
  6  5  1  0  0  0  0
  7 32  1  0  0  0  0
  7 41  1  6  0  0  0
  8 17  1  0  0  0  0
  9 18  2  0  0  0  0
 10 35  1  0  0  0  0
 11 23  1  6  0  0  0
 11 26  1  0  0  0  0
 11  4  1  0  0  0  0
 12 21  1  0  0  0  0
 13 36  1  0  0  0  0
 13 25  1  0  0  0  0
 14 15  1  0  0  0  0
 15  3  1  0  0  0  0
 16 31  1  0  0  0  0
 16 29  1  0  0  0  0
 17 34  1  1  0  0  0
 17 29  1  0  0  0  0
 18 30  1  0  0  0  0
 19 25  1  0  0  0  0
 19 10  1  1  0  0  0
 19 28  1  0  0  0  0
 20 22  1  0  0  0  0
 21 33  1  0  0  0  0
 21 30  2  0  0  0  0
 22 14  1  0  0  0  0
 24 35  1  1  0  0  0
 24  7  1  0  0  0  0
 25  8  1  6  0  0  0
 26 33  1  0  0  0  0
 27  4  1  0  0  0  0
 28 24  1  0  0  0  0
 29  2  1  6  0  0  0
 30  5  1  0  0  0  0
 31 37  1  6  0  0  0
 31 20  1  0  0  0  0
 32 23  1  1  0  0  0
 32  1  1  0  0  0  0
 33  6  2  0  0  0  0
 36 34  2  0  0  0  0
 38 37  1  0  0  0  0
 39 38  1  0  0  0  0
 39 37  1  0  0  0  0
 40 41  1  0  0  0  0
M  END
>  <MODEL>
2

>  <REMARK>
 VINA RESULT:      16.0      2.553      7.699
  Name = 
  2 active torsions:
  status: ('A' for Active; 'I' for Inactive)
    1  A    between atoms: C_7  and  C_11
    2  A    between atoms: C_12  and  N_36
                            x       y       z     vdW  Elec       q    Type
                         _______ _______ _______ _____ _____    ______ ____

>  <TORSDO>
F 2

$$$$
=
 OpenBabel11072412553D

 41 47  0  0  1  0  0  0  0  0999 V2000
  157.9950  213.1050  146.0920 C   0  0  0  0  0  2  0  0  0  0  0  0
  160.0160  208.4220  150.8990 C   0  0  0  0  0  1  0  0  0  0  0  0
  159.1200  210.5610  154.0690 C   0  0  0  0  0  0  0  0  0  0  0  0
  156.6450  212.0670  147.9590 C   0  0  0  0  0  2  0  0  0  0  0  0
  159.9090  214.4520  152.1130 S   0  0  0  0  0  0  0  0  0  0  0  0
  159.0570  213.9490  150.7490 C   0  0  0  0  0  3  0  0  0  0  0  0
  160.4440  213.4740  146.7490 C   0  0  2  0  0  3  0  0  0  0  0  0
  162.2130  210.0130  149.9210 C   0  0  0  0  0  2  0  0  0  0  0  0
  159.8730  211.4940  154.8100 C   0  0  0  0  0  3  0  0  0  0  0  0
  163.6660  213.1180  148.1980 C   0  0  0  0  0  2  0  0  0  0  0  0
  157.8800  212.4160  148.6670 N   0  0  2  0  0  0  0  0  0  0  0  0
  158.6590  210.8860  152.7800 C   0  0  0  0  0  3  0  0  0  0  0  0
  164.3690  211.0890  150.2730 N   0  0  0  0  0  2  0  0  0  0  0  0
  160.0860  208.5130  154.6990 O   0  0  0  0  0  0  0  0  0  0  0  0
  158.8770  209.2010  154.6210 C   0  0  0  0  0  2  0  0  0  0  0  0
  161.7790  207.2030  152.2220 C   0  0  0  0  0  2  0  0  0  0  0  0
  162.2670  209.4970  151.3410 C   0  0  0  0  0  0  0  0  0  0  0  0
  160.1670  212.7550  154.2770 C   0  0  0  0  0  3  0  0  0  0  0  0
  163.0310  211.7600  148.3140 C   0  0  1  0  0  3  0  0  0  0  0  0
  160.8280  206.3060  154.1820 C   0  0  0  0  0  2  0  0  0  0  0  0
  158.9660  212.1480  152.2530 C   0  0  0  0  0  0  0  0  0  0  0  0
  159.7310  207.1600  154.7870 C   0  0  0  0  0  2  0  0  0  0  0  0
  159.0020  211.7660  147.9880 C   0  0  0  0  0  2  0  0  0  0  0  0
  161.7600  212.8130  146.8430 N   0  0  2  0  0  0  0  0  0  0  0  0
  163.0070  211.3090  149.7720 C   0  0  1  0  0  3  0  0  0  0  0  0
  157.7820  211.8540  150.0090 C   0  0  0  0  0  2  0  0  0  0  0  0
  156.7490  212.3000  146.4680 C   0  0  0  0  0  2  0  0  0  0  0  0
  161.7190  211.8760  147.8370 O   0  0  0  0  0  0  0  0  0  0  0  0
  161.1940  208.5690  151.8690 C   0  0  1  0  0  3  0  0  0  0  0  0
  159.7030  213.0490  152.9990 C   0  0  0  0  0  0  0  0  0  0  0  0
  160.7370  206.3160  152.7310 N   0  0  2  0  0  0  0  0  0  0  0  0
  159.2770  212.4570  146.6350 C   0  0  1  0  0  3  0  0  0  0  0  0
  158.6070  212.6410  150.9900 C   0  0  0  0  0  0  0  0  0  0  0  0
  163.2640  209.8790  152.1390 C   0  0  0  0  0  3  0  0  0  0  0  0
  162.7490  213.8050  147.2470 C   0  0  0  0  0  2  0  0  0  0  0  0
  164.2770  210.7640  151.6430 N   0  0  0  0  0  2  0  0  0  0  0  0
  161.0380  204.9580  152.2960 C   0  0  0  0  0  3  0  0  0  0  0  0
  160.8290  204.8600  150.9330 O   0  0  0  0  0  0  0  0  0  0  0  0
  162.0880  204.9590  151.3980 O   0  0  0  0  0  0  0  0  0  0  0  0
  160.5140  213.7620  144.3560 O   0  0  0  0  0  1  0  0  0  0  0  0
  160.4540  214.4530  145.5680 C   0  0  0  0  0  2  0  0  0  0  0  0
  1 27  1  0  0  0  0
  3 15  1  0  0  0  0
  3  9  1  0  0  0  0
  5 30  1  0  0  0  0
  6 33  2  0  0  0  0
  6  5  1  0  0  0  0
  7 41  1  6  0  0  0
  7 24  1  0  0  0  0
  8 17  1  0  0  0  0
 11  4  1  6  0  0  0
 11 26  1  0  0  0  0
 12  3  2  0  0  0  0
 13 36  1  0  0  0  0
 14 22  1  0  0  0  0
 15 14  1  0  0  0  0
 16 31  1  0  0  0  0
 17 29  1  0  0  0  0
 17 34  2  0  0  0  0
 18  9  2  0  0  0  0
 19 10  1  1  0  0  0
 19 25  1  0  0  0  0
 20 22  1  0  0  0  0
 21 12  1  0  0  0  0
 21 30  2  0  0  0  0
 23 11  1  0  0  0  0
 24 35  1  1  0  0  0
 24 28  1  0  0  0  0
 25  8  1  6  0  0  0
 25 13  1  0  0  0  0
 26 33  1  0  0  0  0
 27  4  1  0  0  0  0
 28 19  1  0  0  0  0
 29  2  1  6  0  0  0
 29 16  1  0  0  0  0
 30 18  1  0  0  0  0
 31 37  1  6  0  0  0
 31 20  1  0  0  0  0
 32  1  1  1  0  0  0
 32  7  1  0  0  0  0
 32 23  1  0  0  0  0
 33 21  1  0  0  0  0
 35 10  1  0  0  0  0
 36 34  1  0  0  0  0
 38 39  1  0  0  0  0
 38 37  1  0  0  0  0
 39 37  1  0  0  0  0
 40 41  1  0  0  0  0
M  END
>  <MODEL>
3

>  <REMARK>
 VINA RESULT:      16.4      3.454      6.702
  Name = 
  2 active torsions:
  status: ('A' for Active; 'I' for Inactive)
    1  A    between atoms: C_7  and  C_11
    2  A    between atoms: C_12  and  N_36
                            x       y       z     vdW  Elec       q    Type
                         _______ _______ _______ _____ _____    ______ ____

>  <TORSDO>
F 2

$$$$
=
 OpenBabel11072412553D

 41 47  0  0  1  0  0  0  0  0999 V2000
  161.4560  206.0010  151.6240 C   0  0  0  0  0  2  0  0  0  0  0  0
  157.9380  211.2740  148.6340 C   0  0  0  0  0  1  0  0  0  0  0  0
  161.0010  212.9410  146.8270 C   0  0  0  0  0  0  0  0  0  0  0  0
  161.2860  206.6060  149.1760 C   0  0  0  0  0  2  0  0  0  0  0  0
  163.9440  211.7080  149.8950 S   0  0  0  0  0  0  0  0  0  0  0  0
  163.2860  210.1570  149.9150 C   0  0  0  0  0  3  0  0  0  0  0  0
  161.4490  208.0670  153.1400 C   0  0  2  0  0  3  0  0  0  0  0  0
  158.6840  211.8550  151.3580 C   0  0  0  0  0  2  0  0  0  0  0  0
  161.9140  213.9280  147.2530 C   0  0  0  0  0  3  0  0  0  0  0  0
  160.8090  211.2840  154.5010 C   0  0  0  0  0  2  0  0  0  0  0  0
  161.5370  207.9210  149.7720 N   0  0  2  0  0  0  0  0  0  0  0  0
  161.0550  211.6450  147.3700 C   0  0  0  0  0  3  0  0  0  0  0  0
  159.3200  213.4490  153.0850 N   0  0  0  0  0  2  0  0  0  0  0  0
  159.0430  214.1870  146.4550 O   0  0  0  0  0  0  0  0  0  0  0  0
  159.9300  213.2940  145.8570 C   0  0  0  0  0  2  0  0  0  0  0  0
  156.7720  213.5050  148.7120 C   0  0  0  0  0  2  0  0  0  0  0  0
  158.5760  212.9990  150.3760 C   0  0  0  0  0  0  0  0  0  0  0  0
  162.8870  213.6290  148.2160 C   0  0  0  0  0  3  0  0  0  0  0  0
  159.7050  211.0520  153.5060 C   0  0  1  0  0  3  0  0  0  0  0  0
  156.6730  214.4310  146.5480 C   0  0  0  0  0  2  0  0  0  0  0  0
  162.0270  211.3590  148.3380 C   0  0  0  0  0  0  0  0  0  0  0  0
  157.8770  214.1170  145.6820 C   0  0  0  0  0  2  0  0  0  0  0  0
  160.4990  208.1830  150.7700 C   0  0  0  0  0  2  0  0  0  0  0  0
  160.5680  209.0400  153.8160 N   0  0  2  0  0  0  0  0  0  0  0  0
  159.6860  212.1700  152.4670 C   0  0  1  0  0  3  0  0  0  0  0  0
  161.3980  208.9110  148.7120 C   0  0  0  0  0  2  0  0  0  0  0  0
  161.0760  205.5310  150.2180 C   0  0  0  0  0  2  0  0  0  0  0  0
  159.9700  209.8280  152.8750 O   0  0  0  0  0  0  0  0  0  0  0  0
  158.0840  212.7650  148.9640 C   0  0  1  0  0  3  0  0  0  0  0  0
  162.9140  212.3400  148.7390 C   0  0  0  0  0  0  0  0  0  0  0  0
  156.3060  213.2740  147.3480 N   0  0  2  0  0  0  0  0  0  0  0  0
  160.7190  207.2910  152.0120 C   0  0  1  0  0  3  0  0  0  0  0  0
  162.2230  210.1370  148.9970 C   0  0  0  0  0  0  0  0  0  0  0  0
  158.9340  214.2250  150.7570 C   0  0  0  0  0  3  0  0  0  0  0  0
  161.3930  209.9200  154.6340 C   0  0  0  0  0  2  0  0  0  0  0  0
  159.4080  214.4490  152.0920 N   0  0  0  0  0  2  0  0  0  0  0  0
  154.8490  213.2340  147.3620 C   0  0  0  0  0  3  0  0  0  0  0  0
  154.3750  214.2370  148.1880 O   0  0  0  0  0  0  0  0  0  0  0  0
  154.3280  214.4090  146.8540 O   0  0  0  0  0  0  0  0  0  0  0  0
  161.0680  206.7260  155.1080 O   0  0  0  0  0  1  0  0  0  0  0  0
  162.0420  207.1130  154.1850 C   0  0  0  0  0  2  0  0  0  0  0  0
  1 32  1  0  0  0  0
  3  9  2  0  0  0  0
  3 12  1  0  0  0  0
  4 11  1  0  0  0  0
  4 27  1  0  0  0  0
  5  6  1  0  0  0  0
  7 24  1  0  0  0  0
  7 41  1  1  0  0  0
  9 18  1  0  0  0  0
 10 35  1  0  0  0  0
 11 26  1  6  0  0  0
 11 23  1  0  0  0  0
 12 21  2  0  0  0  0
 15 14  1  0  0  0  0
 15  3  1  0  0  0  0
 16 29  1  0  0  0  0
 17 34  2  0  0  0  0
 17  8  1  0  0  0  0
 18 30  2  0  0  0  0
 19 10  1  1  0  0  0
 20 31  1  0  0  0  0
 21 30  1  0  0  0  0
 21 33  1  0  0  0  0
 22 14  1  0  0  0  0
 22 20  1  0  0  0  0
 24 35  1  1  0  0  0
 25  8  1  6  0  0  0
 25 13  1  0  0  0  0
 25 19  1  0  0  0  0
 26 33  1  0  0  0  0
 27  1  1  0  0  0  0
 28 19  1  0  0  0  0
 28 24  1  0  0  0  0
 29  2  1  1  0  0  0
 29 17  1  0  0  0  0
 30  5  1  0  0  0  0
 31 37  1  1  0  0  0
 31 16  1  0  0  0  0
 32 23  1  6  0  0  0
 32  7  1  0  0  0  0
 33  6  2  0  0  0  0
 34 36  1  0  0  0  0
 36 13  1  0  0  0  0
 37 38  1  0  0  0  0
 39 37  1  0  0  0  0
 39 38  1  0  0  0  0
 41 40  1  0  0  0  0
M  END
>  <MODEL>
4

>  <REMARK>
 VINA RESULT:      16.6      4.204      7.066
  Name = 
  2 active torsions:
  status: ('A' for Active; 'I' for Inactive)
    1  A    between atoms: C_7  and  C_11
    2  A    between atoms: C_12  and  N_36
                            x       y       z     vdW  Elec       q    Type
                         _______ _______ _______ _____ _____    ______ ____

>  <TORSDO>
F 2

$$$$
=
 OpenBabel11072412553D

 41 47  0  0  1  0  0  0  0  0999 V2000
  162.2620  209.6720  157.1990 C   0  0  0  0  0  2  0  0  0  0  0  0
  162.8320  211.8790  150.5710 C   0  0  0  0  0  1  0  0  0  0  0  0
  159.2750  213.5240  150.2980 C   0  0  0  0  0  0  0  0  0  0  0  0
  162.0360  212.0170  156.2840 C   0  0  0  0  0  2  0  0  0  0  0  0
  157.3570  210.7060  153.1220 S   0  0  0  0  0  0  0  0  0  0  0  0
  158.6570  210.8720  154.1830 C   0  0  0  0  0  3  0  0  0  0  0  0
  161.3780  207.9030  155.5700 C   0  0  2  0  0  3  0  0  0  0  0  0
  162.0110  209.1200  150.7450 C   0  0  0  0  0  2  0  0  0  0  0  0
  158.0280  212.9940  149.9070 C   0  0  0  0  0  3  0  0  0  0  0  0
  160.5170  206.1250  152.6190 C   0  0  0  0  0  2  0  0  0  0  0  0
  161.2320  211.2620  155.3200 N   0  0  2  0  0  0  0  0  0  0  0  0
  159.8470  213.1540  151.5280 C   0  0  0  0  0  3  0  0  0  0  0  0
  160.7820  207.2170  149.8540 N   0  0  0  0  0  2  0  0  0  0  0  0
  160.4210  213.6890  148.2530 O   0  0  0  0  0  0  0  0  0  0  0  0
  160.0230  214.4170  149.3720 C   0  0  0  0  0  2  0  0  0  0  0  0
  162.8400  211.4880  148.0830 C   0  0  0  0  0  2  0  0  0  0  0  0
  161.5400  209.9440  149.5680 C   0  0  2  0  0  3  0  0  0  0  0  0
  157.3420  212.1000  150.7380 C   0  0  0  0  0  3  0  0  0  0  0  0
  161.5620  207.1170  152.1890 C   0  0  1  0  0  3  0  0  0  0  0  0
  162.4140  213.5130  146.9550 C   0  0  0  0  0  2  0  0  0  0  0  0
  159.1550  212.2530  152.3500 C   0  0  0  0  0  0  0  0  0  0  0  0
  161.4570  214.4380  147.6800 C   0  0  0  0  0  2  0  0  0  0  0  0
  162.0710  210.2160  154.7340 C   0  0  0  0  0  2  0  0  0  0  0  0
  161.7370  207.0870  154.3930 N   0  0  2  0  0  0  0  0  0  0  0  0
  161.0220  208.0030  151.0690 C   0  0  1  0  0  3  0  0  0  0  0  0
  160.8560  212.1830  154.2540 C   0  0  0  0  0  2  0  0  0  0  0  0
  162.7600  211.1180  157.2610 C   0  0  0  0  0  2  0  0  0  0  0  0
  161.8660  207.9060  153.3070 O   0  0  0  0  0  0  0  0  0  0  0  0
  162.0280  211.3630  149.3710 C   0  0  1  0  0  3  0  0  0  0  0  0
  157.9320  211.7480  151.9480 C   0  0  0  0  0  0  0  0  0  0  0  0
  163.3050  212.8600  147.9010 N   0  0  2  0  0  0  0  0  0  0  0  0
  162.3370  209.1050  155.7730 C   0  0  1  0  0  3  0  0  0  0  0  0
  159.5710  211.7610  153.5950 C   0  0  0  0  0  0  0  0  0  0  0  0
  160.6730  209.4160  148.7040 C   0  0  0  0  0  3  0  0  0  0  0  0
  160.6320  206.1820  154.1030 C   0  0  0  0  0  2  0  0  0  0  0  0
  160.2030  208.0750  148.8930 N   0  0  0  0  0  0  0  0  0  0  0  0
  164.6150  212.8190  147.2640 C   0  0  0  0  0  3  0  0  0  0  0  0
  164.9310  211.5090  146.9580 O   0  0  0  0  0  0  0  0  0  0  0  0
  164.5120  212.3290  145.9770 O   0  0  0  0  0  0  0  0  0  0  0  0
  160.0130  206.6950  157.1480 O   0  0  0  0  0  1  0  0  0  0  0  0
  161.3330  207.0030  156.8120 C   0  0  0  0  0  2  0  0  0  0  0  0
  1 27  1  0  0  0  0
  3 12  1  0  0  0  0
  4 27  1  0  0  0  0
  5  6  1  0  0  0  0
  7 32  1  0  0  0  0
  7 41  1  1  0  0  0
  9  3  2  0  0  0  0
  9 18  1  0  0  0  0
 10 35  1  0  0  0  0
 11 26  1  6  0  0  0
 11  4  1  0  0  0  0
 12 21  2  0  0  0  0
 13 25  1  0  0  0  0
 14 15  1  0  0  0  0
 15  3  1  0  0  0  0
 16 29  1  0  0  0  0
 17 34  1  1  0  0  0
 17  8  1  0  0  0  0
 18 30  2  0  0  0  0
 19 10  1  1  0  0  0
 19 28  1  0  0  0  0
 20 22  1  0  0  0  0
 20 31  1  0  0  0  0
 21 33  1  0  0  0  0
 22 14  1  0  0  0  0
 23 11  1  0  0  0  0
 24 35  1  6  0  0  0
 24  7  1  0  0  0  0
 25  8  1  6  0  0  0
 25 19  1  0  0  0  0
 28 24  1  0  0  0  0
 29 17  1  0  0  0  0
 29  2  1  1  0  0  0
 30 21  1  0  0  0  0
 30  5  1  0  0  0  0
 31 37  1  6  0  0  0
 31 16  1  0  0  0  0
 32 23  1  6  0  0  0
 32  1  1  0  0  0  0
 33  6  2  0  0  0  0
 33 26  1  0  0  0  0
 34 36  2  0  0  0  0
 36 13  1  0  0  0  0
 38 37  1  0  0  0  0
 39 38  1  0  0  0  0
 39 37  1  0  0  0  0
 41 40  1  0  0  0  0
M  END
>  <MODEL>
5

>  <REMARK>
 VINA RESULT:      17.2      3.267      7.563
  Name = 
  2 active torsions:
  status: ('A' for Active; 'I' for Inactive)
    1  A    between atoms: C_7  and  C_11
    2  A    between atoms: C_12  and  N_36
                            x       y       z     vdW  Elec       q    Type
                         _______ _______ _______ _____ _____    ______ ____

>  <TORSDO>
F 2

$$$$
