=
 OpenBabel11072413033D

 37 38  0  0  1  0  0  0  0  0999 V2000
  161.0110  209.8160  154.5510 N   0  0  0  0  0  0  0  0  0  0  0  0
  163.1530  210.5110  156.0480 O   0  0  0  0  0  0  0  0  0  0  0  0
  161.6520  210.4600  156.0330 S   0  0  0  0  0  0  0  0  0  0  0  0
  161.0550  209.8320  157.2600 O   0  0  0  0  0  0  0  0  0  0  0  0
  160.4740  211.1860  154.3010 C   0  0  2  0  0  3  0  0  0  0  0  0
  160.9040  211.9260  155.5540 C   0  0  0  0  0  2  0  0  0  0  0  0
  161.0320  208.5440  153.8980 C   0  0  0  0  0  0  0  0  0  0  0  0
  161.0040  207.1780  151.8790 C   0  0  0  0  0  0  0  0  0  0  0  0
  160.9130  209.5850  151.7090 O   0  0  0  0  0  1  0  0  0  0  0  0
  161.1150  207.3840  154.6730 C   0  0  0  0  0  3  0  0  0  0  0  0
  160.9750  208.4400  152.4960 C   0  0  0  0  0  0  0  0  0  0  0  0
  160.9870  204.7520  152.1060 O   0  0  0  0  0  1  0  0  0  0  0  0
  161.1150  206.1280  154.0670 C   0  0  0  0  0  3  0  0  0  0  0  0
  161.0460  206.0170  152.6760 C   0  0  0  0  0  0  0  0  0  0  0  0
  160.9320  207.1080  150.4470 N   0  0  0  0  0  2  0  0  0  0  0  0
  161.8530  207.1300  148.1450 N   0  0  0  0  0  2  0  0  0  0  0  0
  161.9970  207.4170  149.5370 C   0  0  0  0  0  0  0  0  0  0  0  0
  163.0270  208.0880  149.9370 N   0  0  0  0  0  2  0  0  0  0  0  0
  160.6850  206.4570  147.5950 C   0  0  0  0  0  2  0  0  0  0  0  0
  161.1020  205.2720  146.7290 C   0  0  2  0  0  3  0  0  0  0  0  0
  161.7980  204.2020  147.5660 C   0  0  0  0  0  2  0  0  0  0  0  0
  160.9540  203.7640  148.7530 C   0  0  0  0  0  1  0  0  0  0  0  0
  163.0160  204.8200  145.7100 C   0  0  0  0  0  1  0  0  0  0  0  0
  161.9270  205.6940  145.6810 O   0  0  0  0  0  0  0  0  0  0  0  0
  158.9440  211.1660  154.0950 C   0  0  2  0  0  3  0  0  0  0  0  0
  158.3980  212.2250  153.1220 C   0  0  2  0  0  3  0  0  0  0  0  0
  158.0070  211.6140  151.9290 O   0  0  0  0  0  1  0  0  0  0  0  0
  159.7370  213.2860  151.4560 O   0  0  0  0  0  1  0  0  0  0  0  0
  159.4610  213.2690  152.8240 C   0  0  0  0  0  2  0  0  0  0  0  0
  158.1880  210.9940  155.2780 O   0  0  0  0  0  0  0  0  0  0  0  0
  157.3360  212.0980  155.4520 C   0  0  0  0  0  2  0  0  0  0  0  0
  156.1880  211.7460  156.3910 C   0  0  2  0  0  3  0  0  0  0  0  0
  155.3550  210.4410  154.5610 O   0  0  0  0  0  0  0  0  0  0  0  0
  154.3840  210.0370  156.5960 O   0  0  0  0  0  1  0  0  0  0  0  0
  155.2880  210.7130  155.7890 C   0  0  0  0  0  0  0  0  0  0  0  0
  155.4620  212.8920  156.7280 O   0  0  0  0  0  0  0  0  0  0  0  0
  155.7250  213.7980  155.6990 C   0  0  0  0  0  1  0  0  0  0  0  0
  1  3  1  0  0  0  0
  3  2  2  0  0  0  0
  3  4  2  0  0  0  0
  5 25  1  1  0  0  0
  5  1  1  0  0  0  0
  5  6  1  0  0  0  0
  6  3  1  0  0  0  0
  7  1  1  0  0  0  0
  7 10  1  0  0  0  0
  8 11  1  0  0  0  0
  8 14  2  0  0  0  0
  9 11  1  0  0  0  0
 11  7  2  0  0  0  0
 12 14  1  0  0  0  0
 13 10  2  0  0  0  0
 14 13  1  0  0  0  0
 15  8  1  0  0  0  0
 16 17  1  0  0  0  0
 17 18  2  0  0  0  0
 17 15  1  0  0  0  0
 19 16  1  0  0  0  0
 20 21  1  1  0  0  0
 20 19  1  0  0  0  0
 21 22  1  0  0  0  0
 24 23  1  0  0  0  0
 24 20  1  0  0  0  0
 25 30  1  1  0  0  0
 26 27  1  6  0  0  0
 26 25  1  0  0  0  0
 28 29  1  0  0  0  0
 29 26  1  0  0  0  0
 30 31  1  0  0  0  0
 32 31  1  6  0  0  0
 32 36  1  0  0  0  0
 33 35  2  0  0  0  0
 35 32  1  0  0  0  0
 35 34  1  0  0  0  0
 37 36  1  0  0  0  0
M  END
>  <MODEL>
1

>  <REMARK>
 VINA RESULT:      -5.7      0.000      0.000
  Name = 
  14 active torsions:
  status: ('A' for Active; 'I' for Inactive)
    1  A    between atoms: C_1  and  C_14
    2  A    between atoms: C_1  and  C_24
    3  A    between atoms: C_1  and  O_33
    4  A    between atoms: C_2  and  N_6
    5  A    between atoms: N_4  and  C_10
    6  A    between atoms: C_5  and  C_34
    7  A    between atoms: C_5  and  C_35
    8  A    between atoms: C_5  and  O_36
    9  A    between atoms: C_7  and  C_20
   10  A    between atoms: C_14  and  C_17
   11  A    between atoms: N_15  and  C_30
   12  A    between atoms: C_20  and  O_29
   13  A    between atoms: C_20  and  C_30
   14  A    between atoms: O_33  and  C_35
                            x       y       z     vdW  Elec       q    Type
                         _______ _______ _______ _____ _____    ______ ____

>  <TORSDO>
F 14

$$$$
=
 OpenBabel11072413033D

 37 38  0  0  1  0  0  0  0  0999 V2000
  160.7830  209.8650  154.9260 N   0  0  0  0  0  0  0  0  0  0  0  0
  162.0830  208.5300  156.8840 O   0  0  0  0  0  0  0  0  0  0  0  0
  160.7340  209.0220  156.4450 S   0  0  0  0  0  0  0  0  0  0  0  0
  159.6570  207.9760  156.5080 O   0  0  0  0  0  0  0  0  0  0  0  0
  160.4270  211.0880  155.7040 C   0  0  2  0  0  3  0  0  0  0  0  0
  160.2870  210.5370  157.1100 C   0  0  0  0  0  2  0  0  0  0  0  0
  161.0630  209.5090  153.5690 C   0  0  0  0  0  0  0  0  0  0  0  0
  161.2150  207.8570  151.7820 C   0  0  0  0  0  0  0  0  0  0  0  0
  160.5240  207.1810  153.9950 O   0  0  0  0  0  1  0  0  0  0  0  0
  161.4620  210.5040  152.6730 C   0  0  0  0  0  3  0  0  0  0  0  0
  160.9410  208.1800  153.1220 C   0  0  0  0  0  0  0  0  0  0  0  0
  162.0220  208.5690  149.5960 O   0  0  0  0  0  1  0  0  0  0  0  0
  161.7640  210.1840  151.3500 C   0  0  0  0  0  3  0  0  0  0  0  0
  161.6570  208.8660  150.9030 C   0  0  0  0  0  0  0  0  0  0  0  0
  161.0910  206.4900  151.3630 N   0  0  0  0  0  2  0  0  0  0  0  0
  161.6340  204.0720  151.3890 N   0  0  0  0  0  2  0  0  0  0  0  0
  161.9730  205.4190  151.7230 C   0  0  0  0  0  0  0  0  0  0  0  0
  163.1420  205.6690  152.2140 N   0  0  0  0  0  2  0  0  0  0  0  0
  160.3750  203.7090  150.7520 C   0  0  0  0  0  2  0  0  0  0  0  0
  160.6260  203.0110  149.4190 C   0  0  2  0  0  3  0  0  0  0  0  0
  160.9830  201.5410  149.6300 C   0  0  0  0  0  2  0  0  0  0  0  0
  161.1770  200.8050  148.3130 C   0  0  0  0  0  1  0  0  0  0  0  0
  160.9710  204.6770  148.0010 C   0  0  0  0  0  1  0  0  0  0  0  0
  161.6320  203.6660  148.7010 O   0  0  0  0  0  0  0  0  0  0  0  0
  159.1340  211.7430  155.1700 C   0  0  2  0  0  3  0  0  0  0  0  0
  157.8240  211.0680  155.6110 C   0  0  2  0  0  3  0  0  0  0  0  0
  157.0280  210.8050  154.4950 O   0  0  0  0  0  1  0  0  0  0  0  0
  157.8620  213.0450  156.9460 O   0  0  0  0  0  1  0  0  0  0  0  0
  157.0610  211.9660  156.5700 C   0  0  0  0  0  2  0  0  0  0  0  0
  159.1810  212.1260  153.8090 O   0  0  0  0  0  0  0  0  0  0  0  0
  159.0260  213.5190  153.7110 C   0  0  0  0  0  2  0  0  0  0  0  0
  158.4170  213.8960  152.3650 C   0  0  2  0  0  3  0  0  0  0  0  0
  156.2290  214.1170  151.4110 O   0  0  0  0  0  0  0  0  0  0  0  0
  156.3100  213.9740  153.6950 O   0  0  0  0  0  1  0  0  0  0  0  0
  156.9270  214.0080  152.4530 C   0  0  0  0  0  0  0  0  0  0  0  0
  158.7820  212.9680  151.3850 O   0  0  0  0  0  0  0  0  0  0  0  0
  159.8170  213.5820  150.6790 C   0  0  0  0  0  1  0  0  0  0  0  0
  1  5  1  0  0  0  0
  1  3  1  0  0  0  0
  3  4  2  0  0  0  0
  3  2  2  0  0  0  0
  3  6  1  0  0  0  0
  5 25  1  6  0  0  0
  5  6  1  0  0  0  0
  7  1  1  0  0  0  0
  8 11  2  0  0  0  0
 10  7  2  0  0  0  0
 11  7  1  0  0  0  0
 11  9  1  0  0  0  0
 12 14  1  0  0  0  0
 13 10  1  0  0  0  0
 14 13  2  0  0  0  0
 14  8  1  0  0  0  0
 15 17  1  0  0  0  0
 15  8  1  0  0  0  0
 16 17  1  0  0  0  0
 17 18  2  0  0  0  0
 19 16  1  0  0  0  0
 20 21  1  1  0  0  0
 20 19  1  0  0  0  0
 22 21  1  0  0  0  0
 23 24  1  0  0  0  0
 24 20  1  0  0  0  0
 25 30  1  6  0  0  0
 25 26  1  0  0  0  0
 26 27  1  6  0  0  0
 26 29  1  0  0  0  0
 29 28  1  0  0  0  0
 31 30  1  0  0  0  0
 32 35  1  0  0  0  0
 32 31  1  1  0  0  0
 33 35  2  0  0  0  0
 35 34  1  0  0  0  0
 36 32  1  0  0  0  0
 37 36  1  0  0  0  0
M  END
>  <MODEL>
2

>  <REMARK>
 VINA RESULT:      -5.5      2.067      3.641
  Name = 
  14 active torsions:
  status: ('A' for Active; 'I' for Inactive)
    1  A    between atoms: C_1  and  C_14
    2  A    between atoms: C_1  and  C_24
    3  A    between atoms: C_1  and  O_33
    4  A    between atoms: C_2  and  N_6
    5  A    between atoms: N_4  and  C_10
    6  A    between atoms: C_5  and  C_34
    7  A    between atoms: C_5  and  C_35
    8  A    between atoms: C_5  and  O_36
    9  A    between atoms: C_7  and  C_20
   10  A    between atoms: C_14  and  C_17
   11  A    between atoms: N_15  and  C_30
   12  A    between atoms: C_20  and  O_29
   13  A    between atoms: C_20  and  C_30
   14  A    between atoms: O_33  and  C_35
                            x       y       z     vdW  Elec       q    Type
                         _______ _______ _______ _____ _____    ______ ____

>  <TORSDO>
F 14

$$$$
=
 OpenBabel11072413033D

 37 38  0  0  1  0  0  0  0  0999 V2000
  160.7810  209.6430  154.6360 N   0  0  0  0  0  0  0  0  0  0  0  0
  161.9140  208.1920  156.6150 O   0  0  0  0  0  0  0  0  0  0  0  0
  160.6090  208.7380  156.1100 S   0  0  0  0  0  0  0  0  0  0  0  0
  159.5060  207.7200  156.0560 O   0  0  0  0  0  0  0  0  0  0  0  0
  160.4030  210.8410  155.4410 C   0  0  2  0  0  3  0  0  0  0  0  0
  160.1560  210.2350  156.8100 C   0  0  0  0  0  2  0  0  0  0  0  0
  161.1420  209.3360  153.2860 C   0  0  0  0  0  0  0  0  0  0  0  0
  161.4110  207.7500  151.4550 C   0  0  0  0  0  0  0  0  0  0  0  0
  160.5980  206.9920  153.5980 O   0  0  0  0  0  1  0  0  0  0  0  0
  161.5850  210.3650  152.4500 C   0  0  0  0  0  3  0  0  0  0  0  0
  161.0560  208.0240  152.7860 C   0  0  0  0  0  0  0  0  0  0  0  0
  162.3390  208.5430  149.3450 O   0  0  0  0  0  1  0  0  0  0  0  0
  161.9660  210.0940  151.1370 C   0  0  0  0  0  3  0  0  0  0  0  0
  161.8950  208.7910  150.6380 C   0  0  0  0  0  0  0  0  0  0  0  0
  161.3220  206.3980  150.9810 N   0  0  0  0  0  2  0  0  0  0  0  0
  161.6530  203.9450  151.1070 N   0  0  0  0  0  2  0  0  0  0  0  0
  161.9700  205.2600  151.5650 C   0  0  0  0  0  0  0  0  0  0  0  0
  162.9470  205.4170  152.3960 N   0  0  0  0  0  2  0  0  0  0  0  0
  160.6270  203.6830  150.1070 C   0  0  0  0  0  2  0  0  0  0  0  0
  161.2520  203.5020  148.7270 C   0  0  2  0  0  3  0  0  0  0  0  0
  160.9080  204.6760  147.8130 C   0  0  0  0  0  2  0  0  0  0  0  0
  162.1500  205.3180  147.2140 C   0  0  0  0  0  1  0  0  0  0  0  0
  160.6010  201.4480  149.2390 C   0  0  0  0  0  1  0  0  0  0  0  0
  160.8400  202.2930  148.1540 O   0  0  0  0  0  0  0  0  0  0  0  0
  159.1650  211.5530  154.8530 C   0  0  2  0  0  3  0  0  0  0  0  0
  159.4660  212.7990  154.0030 C   0  0  2  0  0  3  0  0  0  0  0  0
  158.9750  213.9380  154.6430 O   0  0  0  0  0  1  0  0  0  0  0  0
  158.7250  213.9350  152.0390 O   0  0  0  0  0  1  0  0  0  0  0  0
  158.8180  212.6760  152.6340 C   0  0  0  0  0  2  0  0  0  0  0  0
  158.0770  211.6870  155.7470 O   0  0  0  0  0  0  0  0  0  0  0  0
  156.9570  211.0220  155.2210 C   0  0  0  0  0  2  0  0  0  0  0  0
  155.6740  211.7580  155.5930 C   0  0  2  0  0  3  0  0  0  0  0  0
  155.7980  213.3440  153.8010 O   0  0  0  0  0  0  0  0  0  0  0  0
  155.4820  214.2250  155.8910 O   0  0  0  0  0  1  0  0  0  0  0  0
  155.6620  213.1470  155.0370 C   0  0  0  0  0  0  0  0  0  0  0  0
  155.5110  211.7830  156.9810 O   0  0  0  0  0  0  0  0  0  0  0  0
  154.6470  210.7230  157.2600 C   0  0  0  0  0  1  0  0  0  0  0  0
  1  5  1  0  0  0  0
  1  3  1  0  0  0  0
  3  2  2  0  0  0  0
  3  6  1  0  0  0  0
  4  3  2  0  0  0  0
  5 25  1  6  0  0  0
  5  6  1  0  0  0  0
  7  1  1  0  0  0  0
  8 11  2  0  0  0  0
 10  7  2  0  0  0  0
 11  7  1  0  0  0  0
 11  9  1  0  0  0  0
 12 14  1  0  0  0  0
 13 10  1  0  0  0  0
 14 13  2  0  0  0  0
 14  8  1  0  0  0  0
 15  8  1  0  0  0  0
 15 17  1  0  0  0  0
 16 17  1  0  0  0  0
 17 18  2  0  0  0  0
 19 16  1  0  0  0  0
 20 21  1  6  0  0  0
 20 19  1  0  0  0  0
 22 21  1  0  0  0  0
 24 20  1  0  0  0  0
 24 23  1  0  0  0  0
 25 30  1  1  0  0  0
 26 27  1  1  0  0  0
 26 25  1  0  0  0  0
 28 29  1  0  0  0  0
 29 26  1  0  0  0  0
 31 30  1  0  0  0  0
 32 31  1  1  0  0  0
 32 36  1  0  0  0  0
 33 35  2  0  0  0  0
 35 32  1  0  0  0  0
 35 34  1  0  0  0  0
 36 37  1  0  0  0  0
M  END
>  <MODEL>
3

>  <REMARK>
 VINA RESULT:      -5.4      1.955      2.869
  Name = 
  14 active torsions:
  status: ('A' for Active; 'I' for Inactive)
    1  A    between atoms: C_1  and  C_14
    2  A    between atoms: C_1  and  C_24
    3  A    between atoms: C_1  and  O_33
    4  A    between atoms: C_2  and  N_6
    5  A    between atoms: N_4  and  C_10
    6  A    between atoms: C_5  and  C_34
    7  A    between atoms: C_5  and  C_35
    8  A    between atoms: C_5  and  O_36
    9  A    between atoms: C_7  and  C_20
   10  A    between atoms: C_14  and  C_17
   11  A    between atoms: N_15  and  C_30
   12  A    between atoms: C_20  and  O_29
   13  A    between atoms: C_20  and  C_30
   14  A    between atoms: O_33  and  C_35
                            x       y       z     vdW  Elec       q    Type
                         _______ _______ _______ _____ _____    ______ ____

>  <TORSDO>
F 14

$$$$
=
 OpenBabel11072413033D

 37 38  0  0  1  0  0  0  0  0999 V2000
  161.2320  205.9460  150.0830 N   0  0  0  0  0  0  0  0  0  0  0  0
  160.2330  204.7100  152.2700 O   0  0  0  0  0  0  0  0  0  0  0  0
  161.2830  204.6160  151.2010 S   0  0  0  0  0  0  0  0  0  0  0  0
  162.6620  204.3380  151.7290 O   0  0  0  0  0  0  0  0  0  0  0  0
  160.8070  204.9450  149.0610 C   0  0  2  0  0  3  0  0  0  0  0  0
  160.8340  203.6530  149.8570 C   0  0  0  0  0  2  0  0  0  0  0  0
  161.4770  207.3530  150.1590 C   0  0  0  0  0  0  0  0  0  0  0  0
  161.7120  209.4140  151.4400 C   0  0  0  0  0  0  0  0  0  0  0  0
  161.2210  207.3400  152.5720 O   0  0  0  0  0  1  0  0  0  0  0  0
  161.7400  208.0620  148.9840 C   0  0  0  0  0  3  0  0  0  0  0  0
  161.4610  208.0330  151.3910 C   0  0  0  0  0  0  0  0  0  0  0  0
  162.0970  211.5010  150.2400 O   0  0  0  0  0  1  0  0  0  0  0  0
  161.9610  209.4380  149.0230 C   0  0  0  0  0  3  0  0  0  0  0  0
  161.9340  210.1210  150.2410 C   0  0  0  0  0  0  0  0  0  0  0  0
  161.6760  210.0780  152.7120 N   0  0  0  0  0  2  0  0  0  0  0  0
  160.5790  211.1350  154.6670 N   0  0  0  0  0  2  0  0  0  0  0  0
  160.5190  210.6690  153.3180 C   0  0  0  0  0  0  0  0  0  0  0  0
  159.4660  210.9220  152.6120 N   0  0  0  0  0  2  0  0  0  0  0  0
  161.7570  210.9720  155.5070 C   0  0  0  0  0  2  0  0  0  0  0  0
  161.8040  209.5700  156.1060 C   0  0  2  0  0  3  0  0  0  0  0  0
  160.4150  209.1200  156.5530 C   0  0  0  0  0  2  0  0  0  0  0  0
  160.0520  207.7500  156.0010 C   0  0  0  0  0  1  0  0  0  0  0  0
  163.4380  210.7060  157.0790 C   0  0  0  0  0  1  0  0  0  0  0  0
  162.7070  209.5190  157.1730 O   0  0  0  0  0  0  0  0  0  0  0  0
  161.7600  204.9360  147.8450 C   0  0  2  0  0  3  0  0  0  0  0  0
  161.5530  206.0820  146.8410 C   0  0  2  0  0  3  0  0  0  0  0  0
  160.1960  206.2050  146.5370 O   0  0  0  0  0  1  0  0  0  0  0  0
  161.4440  205.6530  144.4960 O   0  0  0  0  0  1  0  0  0  0  0  0
  162.3290  205.8130  145.5620 C   0  0  0  0  0  2  0  0  0  0  0  0
  161.9700  203.6630  147.2660 O   0  0  0  0  0  0  0  0  0  0  0  0
  160.7490  202.9710  147.2030 C   0  0  0  0  0  2  0  0  0  0  0  0
  160.9010  201.6880  146.3930 C   0  0  2  0  0  3  0  0  0  0  0  0
  159.8480  202.8620  144.5880 O   0  0  0  0  0  1  0  0  0  0  0  0
  159.7040  200.5780  144.5100 O   0  0  0  0  0  0  0  0  0  0  0  0
  160.1190  201.7530  145.1190 C   0  0  0  0  0  0  0  0  0  0  0  0
  160.5120  200.5810  147.1520 O   0  0  0  0  0  0  0  0  0  0  0  0
  161.6200  199.7320  147.1410 C   0  0  0  0  0  1  0  0  0  0  0  0
  1  7  1  0  0  0  0
  1  3  1  0  0  0  0
  3  4  2  0  0  0  0
  3  2  2  0  0  0  0
  5 25  1  6  0  0  0
  5  6  1  0  0  0  0
  5  1  1  0  0  0  0
  6  3  1  0  0  0  0
  7 11  1  0  0  0  0
  8 15  1  0  0  0  0
 10 13  1  0  0  0  0
 10  7  2  0  0  0  0
 11  8  2  0  0  0  0
 11  9  1  0  0  0  0
 12 14  1  0  0  0  0
 13 14  2  0  0  0  0
 14  8  1  0  0  0  0
 15 17  1  0  0  0  0
 16 19  1  0  0  0  0
 17 16  1  0  0  0  0
 18 17  2  0  0  0  0
 20 19  1  1  0  0  0
 20 21  1  0  0  0  0
 20 24  1  0  0  0  0
 22 21  1  0  0  0  0
 23 24  1  0  0  0  0
 25 30  1  6  0  0  0
 26 27  1  6  0  0  0
 26 25  1  0  0  0  0
 28 29  1  0  0  0  0
 29 26  1  0  0  0  0
 31 30  1  0  0  0  0
 32 36  1  0  0  0  0
 32 31  1  1  0  0  0
 33 35  1  0  0  0  0
 34 35  2  0  0  0  0
 35 32  1  0  0  0  0
 37 36  1  0  0  0  0
M  END
>  <MODEL>
4

>  <REMARK>
 VINA RESULT:      -5.0      3.629      9.829
  Name = 
  14 active torsions:
  status: ('A' for Active; 'I' for Inactive)
    1  A    between atoms: C_1  and  C_14
    2  A    between atoms: C_1  and  C_24
    3  A    between atoms: C_1  and  O_33
    4  A    between atoms: C_2  and  N_6
    5  A    between atoms: N_4  and  C_10
    6  A    between atoms: C_5  and  C_34
    7  A    between atoms: C_5  and  C_35
    8  A    between atoms: C_5  and  O_36
    9  A    between atoms: C_7  and  C_20
   10  A    between atoms: C_14  and  C_17
   11  A    between atoms: N_15  and  C_30
   12  A    between atoms: C_20  and  O_29
   13  A    between atoms: C_20  and  C_30
   14  A    between atoms: O_33  and  C_35
                            x       y       z     vdW  Elec       q    Type
                         _______ _______ _______ _____ _____    ______ ____

>  <TORSDO>
F 14

$$$$
=
 OpenBabel11072413033D

 37 38  0  0  1  0  0  0  0  0999 V2000
  161.6770  208.2020  151.9070 N   0  0  0  0  0  0  0  0  0  0  0  0
  163.3890  210.2770  151.6260 O   0  0  0  0  0  0  0  0  0  0  0  0
  162.1730  209.6220  151.0350 S   0  0  0  0  0  0  0  0  0  0  0  0
  161.0440  210.5740  150.7610 O   0  0  0  0  0  0  0  0  0  0  0  0
  162.0740  207.4350  150.6910 C   0  0  2  0  0  3  0  0  0  0  0  0
  162.5130  208.5400  149.7490 C   0  0  0  0  0  2  0  0  0  0  0  0
  161.1510  207.9380  153.2100 C   0  0  0  0  0  0  0  0  0  0  0  0
  159.9620  208.6450  155.2180 C   0  0  0  0  0  0  0  0  0  0  0  0
  160.2910  210.1990  153.4000 O   0  0  0  0  0  1  0  0  0  0  0  0
  161.3100  206.6640  153.7620 C   0  0  0  0  0  3  0  0  0  0  0  0
  160.4760  208.9320  153.9420 C   0  0  0  0  0  0  0  0  0  0  0  0
  159.7520  207.0730  157.0690 O   0  0  0  0  0  1  0  0  0  0  0  0
  160.8270  206.3820  155.0390 C   0  0  0  0  0  3  0  0  0  0  0  0
  160.1670  207.3670  155.7760 C   0  0  0  0  0  0  0  0  0  0  0  0
  159.2890  209.6860  155.9410 N   0  0  0  0  0  2  0  0  0  0  0  0
  159.1490  211.7810  157.2580 N   0  0  0  0  0  2  0  0  0  0  0  0
  159.9200  210.6950  156.7410 C   0  0  0  0  0  0  0  0  0  0  0  0
  161.1460  210.5560  157.1250 N   0  0  0  0  0  2  0  0  0  0  0  0
  157.7380  211.9660  156.9500 C   0  0  0  0  0  2  0  0  0  0  0  0
  157.5610  212.9600  155.8060 C   0  0  2  0  0  3  0  0  0  0  0  0
  156.8100  212.3220  154.6390 C   0  0  0  0  0  2  0  0  0  0  0  0
  156.1420  211.0150  155.0350 C   0  0  0  0  0  1  0  0  0  0  0  0
  158.7630  213.3690  153.9920 C   0  0  0  0  0  1  0  0  0  0  0  0
  158.8000  213.4540  155.3850 O   0  0  0  0  0  0  0  0  0  0  0  0
  160.9010  206.5920  150.1440 C   0  0  2  0  0  3  0  0  0  0  0  0
  160.9440  205.0970  150.4980 C   0  0  2  0  0  3  0  0  0  0  0  0
  159.8560  204.7710  151.3100 O   0  0  0  0  0  1  0  0  0  0  0  0
  162.1430  203.4860  151.7880 O   0  0  0  0  0  1  0  0  0  0  0  0
  162.2330  204.7630  151.2310 C   0  0  0  0  0  2  0  0  0  0  0  0
  160.5360  206.8810  148.8080 O   0  0  0  0  0  0  0  0  0  0  0  0
  160.5330  205.6920  148.0580 C   0  0  0  0  0  2  0  0  0  0  0  0
  161.6040  205.7410  146.9740 C   0  0  2  0  0  3  0  0  0  0  0  0
  160.0710  206.5320  145.3100 O   0  0  0  0  0  1  0  0  0  0  0  0
  161.4690  204.8410  144.6530 O   0  0  0  0  0  0  0  0  0  0  0  0
  160.9970  205.7310  145.6070 C   0  0  0  0  0  0  0  0  0  0  0  0
  162.4980  204.6760  147.1210 O   0  0  0  0  0  0  0  0  0  0  0  0
  161.7330  203.6370  147.6530 C   0  0  0  0  0  1  0  0  0  0  0  0
  1  7  1  0  0  0  0
  3  2  2  0  0  0  0
  3  1  1  0  0  0  0
  4  3  2  0  0  0  0
  5 25  1  6  0  0  0
  5  1  1  0  0  0  0
  6  5  1  0  0  0  0
  6  3  1  0  0  0  0
  7 10  2  0  0  0  0
  7 11  1  0  0  0  0
  8 14  1  0  0  0  0
  8 15  1  0  0  0  0
  9 11  1  0  0  0  0
 10 13  1  0  0  0  0
 11  8  2  0  0  0  0
 13 14  2  0  0  0  0
 14 12  1  0  0  0  0
 15 17  1  0  0  0  0
 17 18  2  0  0  0  0
 17 16  1  0  0  0  0
 19 16  1  0  0  0  0
 20 21  1  6  0  0  0
 20 19  1  0  0  0  0
 21 22  1  0  0  0  0
 23 24  1  0  0  0  0
 24 20  1  0  0  0  0
 25 30  1  6  0  0  0
 25 26  1  0  0  0  0
 26 29  1  0  0  0  0
 26 27  1  1  0  0  0
 29 28  1  0  0  0  0
 31 30  1  0  0  0  0
 32 36  1  0  0  0  0
 32 31  1  1  0  0  0
 33 35  1  0  0  0  0
 34 35  2  0  0  0  0
 35 32  1  0  0  0  0
 36 37  1  0  0  0  0
M  END
>  <MODEL>
5

>  <REMARK>
 VINA RESULT:      -4.9      2.451      8.952
  Name = 
  14 active torsions:
  status: ('A' for Active; 'I' for Inactive)
    1  A    between atoms: C_1  and  C_14
    2  A    between atoms: C_1  and  C_24
    3  A    between atoms: C_1  and  O_33
    4  A    between atoms: C_2  and  N_6
    5  A    between atoms: N_4  and  C_10
    6  A    between atoms: C_5  and  C_34
    7  A    between atoms: C_5  and  C_35
    8  A    between atoms: C_5  and  O_36
    9  A    between atoms: C_7  and  C_20
   10  A    between atoms: C_14  and  C_17
   11  A    between atoms: N_15  and  C_30
   12  A    between atoms: C_20  and  O_29
   13  A    between atoms: C_20  and  C_30
   14  A    between atoms: O_33  and  C_35
                            x       y       z     vdW  Elec       q    Type
                         _______ _______ _______ _____ _____    ______ ____

>  <TORSDO>
F 14

$$$$
=
 OpenBabel11072413033D

 37 38  0  0  1  0  0  0  0  0999 V2000
  161.0790  208.9760  152.2640 N   0  0  0  0  0  0  0  0  0  0  0  0
  161.5830  210.2900  149.9550 O   0  0  0  0  0  0  0  0  0  0  0  0
  161.8720  210.2790  151.4290 S   0  0  0  0  0  0  0  0  0  0  0  0
  163.3320  210.3950  151.7610 O   0  0  0  0  0  0  0  0  0  0  0  0
  160.2630  210.0310  152.9340 C   0  0  2  0  0  3  0  0  0  0  0  0
  160.8540  211.3020  152.3530 C   0  0  0  0  0  2  0  0  0  0  0  0
  161.1830  207.5500  152.2620 C   0  0  0  0  0  0  0  0  0  0  0  0
  161.4470  205.4290  151.0900 C   0  0  0  0  0  0  0  0  0  0  0  0
  161.4160  207.4990  149.8470 O   0  0  0  0  0  1  0  0  0  0  0  0
  161.1300  206.8630  153.4780 C   0  0  0  0  0  3  0  0  0  0  0  0
  161.3400  206.8300  151.0640 C   0  0  0  0  0  0  0  0  0  0  0  0
  161.3620  203.3610  152.3760 O   0  0  0  0  0  1  0  0  0  0  0  0
  161.2070  205.4710  153.5070 C   0  0  0  0  0  3  0  0  0  0  0  0
  161.3500  204.7490  152.3200 C   0  0  0  0  0  0  0  0  0  0  0  0
  161.5960  204.7250  149.8470 N   0  0  0  0  0  2  0  0  0  0  0  0
  160.9260  203.1290  148.0730 N   0  0  0  0  0  2  0  0  0  0  0  0
  160.7940  203.6210  149.4080 C   0  0  0  0  0  0  0  0  0  0  0  0
  160.0600  202.9680  150.2480 N   0  0  0  0  0  2  0  0  0  0  0  0
  161.7980  203.7500  147.0850 C   0  0  0  0  0  2  0  0  0  0  0  0
  161.4760  203.2410  145.6840 C   0  0  2  0  0  3  0  0  0  0  0  0
  160.5880  204.2310  144.9330 C   0  0  0  0  0  2  0  0  0  0  0  0
  160.8280  205.6660  145.3780 C   0  0  0  0  0  1  0  0  0  0  0  0
  159.8130  202.0500  144.8340 C   0  0  0  0  0  1  0  0  0  0  0  0
  160.8690  201.9810  145.7450 O   0  0  0  0  0  0  0  0  0  0  0  0
  160.3810  209.9480  154.4720 C   0  0  2  0  0  3  0  0  0  0  0  0
  161.7540  209.5020  155.0030 C   0  0  2  0  0  3  0  0  0  0  0  0
  161.5840  208.5970  156.0520 O   0  0  0  0  0  1  0  0  0  0  0  0
  162.0690  211.0960  156.7510 O   0  0  0  0  0  1  0  0  0  0  0  0
  162.5440  210.7020  155.5000 C   0  0  0  0  0  2  0  0  0  0  0  0
  159.2690  209.3610  155.1210 O   0  0  0  0  0  0  0  0  0  0  0  0
  158.7130  210.2860  156.0210 C   0  0  0  0  0  2  0  0  0  0  0  0
  157.7230  211.1990  155.3060 C   0  0  2  0  0  3  0  0  0  0  0  0
  159.2400  212.9670  155.8730 O   0  0  0  0  0  1  0  0  0  0  0  0
  157.6860  213.4650  154.2650 O   0  0  0  0  0  0  0  0  0  0  0  0
  158.2610  212.5890  155.1750 C   0  0  0  0  0  0  0  0  0  0  0  0
  156.4960  211.2090  155.9750 O   0  0  0  0  0  0  0  0  0  0  0  0
  155.5840  210.6840  155.0570 C   0  0  0  0  0  1  0  0  0  0  0  0
  1  5  1  0  0  0  0
  2  3  2  0  0  0  0
  3  4  2  0  0  0  0
  3  1  1  0  0  0  0
  3  6  1  0  0  0  0
  5 25  1  1  0  0  0
  6  5  1  0  0  0  0
  7  1  1  0  0  0  0
  7 10  1  0  0  0  0
  8 14  2  0  0  0  0
  9 11  1  0  0  0  0
 10 13  2  0  0  0  0
 11  8  1  0  0  0  0
 11  7  2  0  0  0  0
 14 12  1  0  0  0  0
 14 13  1  0  0  0  0
 15  8  1  0  0  0  0
 16 17  1  0  0  0  0
 17 15  1  0  0  0  0
 17 18  2  0  0  0  0
 19 16  1  0  0  0  0
 20 21  1  1  0  0  0
 20 24  1  0  0  0  0
 20 19  1  0  0  0  0
 21 22  1  0  0  0  0
 23 24  1  0  0  0  0
 25 26  1  0  0  0  0
 25 30  1  6  0  0  0
 26 29  1  0  0  0  0
 26 27  1  1  0  0  0
 29 28  1  0  0  0  0
 30 31  1  0  0  0  0
 32 36  1  0  0  0  0
 32 31  1  1  0  0  0
 34 35  2  0  0  0  0
 35 32  1  0  0  0  0
 35 33  1  0  0  0  0
 37 36  1  0  0  0  0
M  END
>  <MODEL>
6

>  <REMARK>
 VINA RESULT:      -4.6      2.253      3.702
  Name = 
  14 active torsions:
  status: ('A' for Active; 'I' for Inactive)
    1  A    between atoms: C_1  and  C_14
    2  A    between atoms: C_1  and  C_24
    3  A    between atoms: C_1  and  O_33
    4  A    between atoms: C_2  and  N_6
    5  A    between atoms: N_4  and  C_10
    6  A    between atoms: C_5  and  C_34
    7  A    between atoms: C_5  and  C_35
    8  A    between atoms: C_5  and  O_36
    9  A    between atoms: C_7  and  C_20
   10  A    between atoms: C_14  and  C_17
   11  A    between atoms: N_15  and  C_30
   12  A    between atoms: C_20  and  O_29
   13  A    between atoms: C_20  and  C_30
   14  A    between atoms: O_33  and  C_35
                            x       y       z     vdW  Elec       q    Type
                         _______ _______ _______ _____ _____    ______ ____

>  <TORSDO>
F 14

$$$$
=
 OpenBabel11072413033D

 37 38  0  0  1  0  0  0  0  0999 V2000
  161.4550  206.2160  150.7580 N   0  0  0  0  0  0  0  0  0  0  0  0
  161.1630  205.0380  153.1740 O   0  0  0  0  0  0  0  0  0  0  0  0
  161.9470  204.9960  151.8940 S   0  0  0  0  0  0  0  0  0  0  0  0
  163.4350  204.9390  152.0960 O   0  0  0  0  0  0  0  0  0  0  0  0
  160.9580  205.0920  149.9130 C   0  0  2  0  0  3  0  0  0  0  0  0
  161.3480  203.8810  150.7390 C   0  0  0  0  0  2  0  0  0  0  0  0
  161.5080  207.6450  150.7090 C   0  0  0  0  0  0  0  0  0  0  0  0
  161.0600  209.8340  151.6850 C   0  0  0  0  0  0  0  0  0  0  0  0
  160.4270  207.8300  152.8740 O   0  0  0  0  0  1  0  0  0  0  0  0
  162.0890  208.2660  149.6000 C   0  0  0  0  0  3  0  0  0  0  0  0
  160.9900  208.4320  151.7540 C   0  0  0  0  0  0  0  0  0  0  0  0
  161.6170  211.8260  150.3970 O   0  0  0  0  0  1  0  0  0  0  0  0
  162.1350  209.6570  149.5130 C   0  0  0  0  0  3  0  0  0  0  0  0
  161.6110  210.4450  150.5410 C   0  0  0  0  0  0  0  0  0  0  0  0
  160.5120  210.6060  152.7630 N   0  0  0  0  0  2  0  0  0  0  0  0
  160.6000  211.8880  154.8830 N   0  0  0  0  0  2  0  0  0  0  0  0
  161.1950  210.9620  153.9730 C   0  0  0  0  0  0  0  0  0  0  0  0
  162.2740  210.3420  154.3230 N   0  0  0  0  0  2  0  0  0  0  0  0
  159.3400  212.5650  154.6100 C   0  0  0  0  0  2  0  0  0  0  0  0
  158.5900  212.8550  155.9060 C   0  0  2  0  0  3  0  0  0  0  0  0
  157.9980  211.5760  156.4930 C   0  0  0  0  0  2  0  0  0  0  0  0
  157.3150  210.7230  155.4350 C   0  0  0  0  0  1  0  0  0  0  0  0
  157.9440  214.4380  154.4990 C   0  0  0  0  0  1  0  0  0  0  0  0
  157.5900  213.8100  155.6950 O   0  0  0  0  0  0  0  0  0  0  0  0
  161.6020  205.1100  148.5090 C   0  0  2  0  0  3  0  0  0  0  0  0
  161.0700  206.1940  147.5570 C   0  0  2  0  0  3  0  0  0  0  0  0
  159.6940  206.3480  147.7360 O   0  0  0  0  0  1  0  0  0  0  0  0
  160.2690  206.1870  145.3090 O   0  0  0  0  0  1  0  0  0  0  0  0
  161.3470  205.8120  146.1120 C   0  0  0  0  0  2  0  0  0  0  0  0
  161.7830  203.8350  147.9230 O   0  0  0  0  0  0  0  0  0  0  0  0
  160.6630  203.0320  148.1970 C   0  0  0  0  0  2  0  0  0  0  0  0
  160.5970  201.8570  147.2280 C   0  0  2  0  0  3  0  0  0  0  0  0
  161.5650  200.5850  149.0140 O   0  0  0  0  0  1  0  0  0  0  0  0
  161.5820  199.5830  146.9540 O   0  0  0  0  0  0  0  0  0  0  0  0
  161.2780  200.6490  147.7890 C   0  0  0  0  0  0  0  0  0  0  0  0
  161.1570  202.2080  145.9960 O   0  0  0  0  0  0  0  0  0  0  0  0
  160.1430  201.9790  145.0640 C   0  0  0  0  0  1  0  0  0  0  0  0
  1  3  1  0  0  0  0
  3  4  2  0  0  0  0
  3  2  2  0  0  0  0
  5 25  1  6  0  0  0
  5  6  1  0  0  0  0
  5  1  1  0  0  0  0
  6  3  1  0  0  0  0
  7  1  1  0  0  0  0
  7 11  1  0  0  0  0
  8 11  2  0  0  0  0
  8 15  1  0  0  0  0
 10  7  2  0  0  0  0
 11  9  1  0  0  0  0
 12 14  1  0  0  0  0
 13 10  1  0  0  0  0
 13 14  2  0  0  0  0
 14  8  1  0  0  0  0
 15 17  1  0  0  0  0
 17 18  2  0  0  0  0
 17 16  1  0  0  0  0
 19 16  1  0  0  0  0
 20 19  1  6  0  0  0
 20 21  1  0  0  0  0
 22 21  1  0  0  0  0
 23 24  1  0  0  0  0
 24 20  1  0  0  0  0
 25 30  1  6  0  0  0
 26 27  1  6  0  0  0
 26 25  1  0  0  0  0
 28 29  1  0  0  0  0
 29 26  1  0  0  0  0
 30 31  1  0  0  0  0
 32 35  1  0  0  0  0
 32 31  1  1  0  0  0
 34 35  2  0  0  0  0
 35 33  1  0  0  0  0
 36 32  1  0  0  0  0
 37 36  1  0  0  0  0
M  END
>  <MODEL>
7

>  <REMARK>
 VINA RESULT:      -4.5      2.720      9.738
  Name = 
  14 active torsions:
  status: ('A' for Active; 'I' for Inactive)
    1  A    between atoms: C_1  and  C_14
    2  A    between atoms: C_1  and  C_24
    3  A    between atoms: C_1  and  O_33
    4  A    between atoms: C_2  and  N_6
    5  A    between atoms: N_4  and  C_10
    6  A    between atoms: C_5  and  C_34
    7  A    between atoms: C_5  and  C_35
    8  A    between atoms: C_5  and  O_36
    9  A    between atoms: C_7  and  C_20
   10  A    between atoms: C_14  and  C_17
   11  A    between atoms: N_15  and  C_30
   12  A    between atoms: C_20  and  O_29
   13  A    between atoms: C_20  and  C_30
   14  A    between atoms: O_33  and  C_35
                            x       y       z     vdW  Elec       q    Type
                         _______ _______ _______ _____ _____    ______ ____

>  <TORSDO>
F 14

$$$$
=
 OpenBabel11072413033D

 37 38  0  0  1  0  0  0  0  0999 V2000
  161.0320  210.5530  152.9700 N   0  0  0  0  0  0  0  0  0  0  0  0
  162.4150  209.8910  155.1970 O   0  0  0  0  0  0  0  0  0  0  0  0
  161.0320  210.0880  154.6450 S   0  0  0  0  0  0  0  0  0  0  0  0
  160.0940  208.9540  154.9450 O   0  0  0  0  0  0  0  0  0  0  0  0
  160.4980  211.8660  153.4360 C   0  0  2  0  0  3  0  0  0  0  0  0
  160.3760  211.6440  154.9320 C   0  0  0  0  0  2  0  0  0  0  0  0
  161.4050  209.9300  151.7380 C   0  0  0  0  0  0  0  0  0  0  0  0
  161.6010  207.9620  150.3130 C   0  0  0  0  0  0  0  0  0  0  0  0
  160.6760  207.7560  152.5330 O   0  0  0  0  0  1  0  0  0  0  0  0
  161.9470  210.7140  150.7160 C   0  0  0  0  0  3  0  0  0  0  0  0
  161.2330  208.5480  151.5360 C   0  0  0  0  0  0  0  0  0  0  0  0
  162.6420  208.2010  148.1220 O   0  0  0  0  0  1  0  0  0  0  0  0
  162.3410  210.1330  149.5120 C   0  0  0  0  0  3  0  0  0  0  0  0
  162.1850  208.7600  149.3090 C   0  0  0  0  0  0  0  0  0  0  0  0
  161.4220  206.5470  150.1440 N   0  0  0  0  0  2  0  0  0  0  0  0
  160.8590  204.4850  148.8890 N   0  0  0  0  0  2  0  0  0  0  0  0
  160.8090  205.9080  149.0170 C   0  0  0  0  0  0  0  0  0  0  0  0
  160.0830  206.5870  148.1920 N   0  0  0  0  0  2  0  0  0  0  0  0
  161.5790  203.6330  149.8240 C   0  0  0  0  0  2  0  0  0  0  0  0
  160.6240  202.6740  150.5270 C   0  0  2  0  0  3  0  0  0  0  0  0
  160.7630  202.7780  152.0440 C   0  0  0  0  0  2  0  0  0  0  0  0
  161.1490  204.1800  152.4890 C   0  0  0  0  0  1  0  0  0  0  0  0
  159.7330  201.0520  149.3110 C   0  0  0  0  0  1  0  0  0  0  0  0
  160.8430  201.3590  150.1000 O   0  0  0  0  0  0  0  0  0  0  0  0
  159.1540  212.2050  152.7540 C   0  0  2  0  0  3  0  0  0  0  0  0
  159.2660  212.7870  151.3350 C   0  0  2  0  0  3  0  0  0  0  0  0
  160.3970  213.6000  151.2440 O   0  0  0  0  0  1  0  0  0  0  0  0
  157.2640  212.9400  150.0440 O   0  0  0  0  0  1  0  0  0  0  0  0
  158.0320  213.6080  151.0000 C   0  0  0  0  0  2  0  0  0  0  0  0
  158.2100  212.8450  153.5900 O   0  0  0  0  0  0  0  0  0  0  0  0
  157.1090  211.9940  153.7880 C   0  0  0  0  0  2  0  0  0  0  0  0
  156.3970  212.3340  155.0920 C   0  0  2  0  0  3  0  0  0  0  0  0
  155.5350  210.1020  154.9430 O   0  0  0  0  0  0  0  0  0  0  0  0
  155.0690  211.2230  156.8860 O   0  0  0  0  0  1  0  0  0  0  0  0
  155.6420  211.1570  155.6240 C   0  0  0  0  0  0  0  0  0  0  0  0
  155.5410  213.4250  154.9120 O   0  0  0  0  0  0  0  0  0  0  0  0
  155.2160  213.4040  153.5550 C   0  0  0  0  0  1  0  0  0  0  0  0
  1  5  1  0  0  0  0
  1  3  1  0  0  0  0
  3  6  1  0  0  0  0
  3  4  2  0  0  0  0
  3  2  2  0  0  0  0
  5 25  1  6  0  0  0
  5  6  1  0  0  0  0
  7  1  1  0  0  0  0
  8 11  2  0  0  0  0
 10  7  2  0  0  0  0
 11  7  1  0  0  0  0
 11  9  1  0  0  0  0
 12 14  1  0  0  0  0
 13 10  1  0  0  0  0
 14 13  2  0  0  0  0
 14  8  1  0  0  0  0
 15  8  1  0  0  0  0
 16 17  1  0  0  0  0
 16 19  1  0  0  0  0
 17 15  1  0  0  0  0
 18 17  2  0  0  0  0
 20 19  1  6  0  0  0
 20 21  1  0  0  0  0
 21 22  1  0  0  0  0
 23 24  1  0  0  0  0
 24 20  1  0  0  0  0
 25 30  1  1  0  0  0
 26 27  1  1  0  0  0
 26 25  1  0  0  0  0
 28 29  1  0  0  0  0
 29 26  1  0  0  0  0
 30 31  1  0  0  0  0
 32 31  1  6  0  0  0
 32 35  1  0  0  0  0
 33 35  2  0  0  0  0
 35 34  1  0  0  0  0
 36 32  1  0  0  0  0
 37 36  1  0  0  0  0
M  END
>  <MODEL>
8

>  <REMARK>
 VINA RESULT:      -4.5      2.017      3.197
  Name = 
  14 active torsions:
  status: ('A' for Active; 'I' for Inactive)
    1  A    between atoms: C_1  and  C_14
    2  A    between atoms: C_1  and  C_24
    3  A    between atoms: C_1  and  O_33
    4  A    between atoms: C_2  and  N_6
    5  A    between atoms: N_4  and  C_10
    6  A    between atoms: C_5  and  C_34
    7  A    between atoms: C_5  and  C_35
    8  A    between atoms: C_5  and  O_36
    9  A    between atoms: C_7  and  C_20
   10  A    between atoms: C_14  and  C_17
   11  A    between atoms: N_15  and  C_30
   12  A    between atoms: C_20  and  O_29
   13  A    between atoms: C_20  and  C_30
   14  A    between atoms: O_33  and  C_35
                            x       y       z     vdW  Elec       q    Type
                         _______ _______ _______ _____ _____    ______ ____

>  <TORSDO>
F 14

$$$$
=
 OpenBabel11072413033D

 37 38  0  0  1  0  0  0  0  0999 V2000
  160.9980  210.0710  154.5970 N   0  0  0  0  0  0  0  0  0  0  0  0
  162.8800  210.3890  156.5120 O   0  0  0  0  0  0  0  0  0  0  0  0
  161.4210  210.5730  156.2060 S   0  0  0  0  0  0  0  0  0  0  0  0
  160.5070  210.0180  157.2610 O   0  0  0  0  0  0  0  0  0  0  0  0
  160.7310  211.5130  154.3220 C   0  0  2  0  0  3  0  0  0  0  0  0
  161.0090  212.1480  155.6710 C   0  0  0  0  0  2  0  0  0  0  0  0
  160.9590  208.8250  153.8940 C   0  0  0  0  0  0  0  0  0  0  0  0
  161.0190  207.5380  151.8250 C   0  0  0  0  0  0  0  0  0  0  0  0
  161.2060  209.9430  151.7540 O   0  0  0  0  0  1  0  0  0  0  0  0
  160.8270  207.6390  154.6200 C   0  0  0  0  0  3  0  0  0  0  0  0
  161.0530  208.7740  152.4910 C   0  0  0  0  0  0  0  0  0  0  0  0
  160.7170  205.1220  151.9400 O   0  0  0  0  0  1  0  0  0  0  0  0
  160.7640  206.4110  153.9620 C   0  0  0  0  0  3  0  0  0  0  0  0
  160.8440  206.3540  152.5690 C   0  0  0  0  0  0  0  0  0  0  0  0
  161.1070  207.5230  150.3930 N   0  0  0  0  0  2  0  0  0  0  0  0
  162.2040  207.0970  148.2110 N   0  0  0  0  0  2  0  0  0  0  0  0
  162.2910  207.2640  149.6270 C   0  0  0  0  0  0  0  0  0  0  0  0
  163.4570  207.3270  150.1810 N   0  0  0  0  0  2  0  0  0  0  0  0
  160.9370  207.1020  147.4920 C   0  0  0  0  0  2  0  0  0  0  0  0
  160.8050  205.8550  146.6230 C   0  0  2  0  0  3  0  0  0  0  0  0
  161.9630  204.8910  146.8700 C   0  0  0  0  0  2  0  0  0  0  0  0
  161.5780  203.7660  147.8190 C   0  0  0  0  0  1  0  0  0  0  0  0
  161.1810  205.0710  144.5860 C   0  0  0  0  0  1  0  0  0  0  0  0
  160.7330  206.2030  145.2690 O   0  0  0  0  0  0  0  0  0  0  0  0
  159.2860  211.7360  153.8240 C   0  0  2  0  0  3  0  0  0  0  0  0
  158.2150  210.8690  154.5060 C   0  0  2  0  0  3  0  0  0  0  0  0
  157.1510  210.6540  153.6270 O   0  0  0  0  0  1  0  0  0  0  0  0
  156.3090  211.6820  155.6900 O   0  0  0  0  0  1  0  0  0  0  0  0
  157.6970  211.5540  155.7590 C   0  0  0  0  0  2  0  0  0  0  0  0
  159.1540  211.8580  152.4210 O   0  0  0  0  0  0  0  0  0  0  0  0
  159.9380  212.9330  151.9700 C   0  0  0  0  0  2  0  0  0  0  0  0
  159.1450  213.8050  151.0030 C   0  0  2  0  0  3  0  0  0  0  0  0
  157.0700  212.9630  150.1470 O   0  0  0  0  0  0  0  0  0  0  0  0
  156.9850  213.8790  152.2450 O   0  0  0  0  0  1  0  0  0  0  0  0
  157.6780  213.5270  151.0960 C   0  0  0  0  0  0  0  0  0  0  0  0
  159.5970  213.6190  149.6930 O   0  0  0  0  0  0  0  0  0  0  0  0
  160.8220  212.9630  149.8270 C   0  0  0  0  0  1  0  0  0  0  0  0
  1  3  1  0  0  0  0
  3  2  2  0  0  0  0
  3  4  2  0  0  0  0
  5 25  1  1  0  0  0
  5  1  1  0  0  0  0
  5  6  1  0  0  0  0
  6  3  1  0  0  0  0
  7  1  1  0  0  0  0
  7 10  1  0  0  0  0
  8 11  1  0  0  0  0
  8 14  2  0  0  0  0
  9 11  1  0  0  0  0
 11  7  2  0  0  0  0
 12 14  1  0  0  0  0
 13 10  2  0  0  0  0
 14 13  1  0  0  0  0
 15  8  1  0  0  0  0
 16 17  1  0  0  0  0
 17 18  2  0  0  0  0
 17 15  1  0  0  0  0
 19 16  1  0  0  0  0
 20 21  1  6  0  0  0
 20 19  1  0  0  0  0
 21 22  1  0  0  0  0
 23 24  1  0  0  0  0
 24 20  1  0  0  0  0
 25 30  1  6  0  0  0
 25 26  1  0  0  0  0
 26 27  1  6  0  0  0
 26 29  1  0  0  0  0
 28 29  1  0  0  0  0
 31 30  1  0  0  0  0
 32 35  1  0  0  0  0
 32 31  1  1  0  0  0
 33 35  2  0  0  0  0
 35 34  1  0  0  0  0
 36 37  1  0  0  0  0
 36 32  1  0  0  0  0
M  END
>  <MODEL>
9

>  <REMARK>
 VINA RESULT:      -4.2      1.276      3.178
  Name = 
  14 active torsions:
  status: ('A' for Active; 'I' for Inactive)
    1  A    between atoms: C_1  and  C_14
    2  A    between atoms: C_1  and  C_24
    3  A    between atoms: C_1  and  O_33
    4  A    between atoms: C_2  and  N_6
    5  A    between atoms: N_4  and  C_10
    6  A    between atoms: C_5  and  C_34
    7  A    between atoms: C_5  and  C_35
    8  A    between atoms: C_5  and  O_36
    9  A    between atoms: C_7  and  C_20
   10  A    between atoms: C_14  and  C_17
   11  A    between atoms: N_15  and  C_30
   12  A    between atoms: C_20  and  O_29
   13  A    between atoms: C_20  and  C_30
   14  A    between atoms: O_33  and  C_35
                            x       y       z     vdW  Elec       q    Type
                         _______ _______ _______ _____ _____    ______ ____

>  <TORSDO>
F 14

$$$$
