=
 OpenBabel11072414223D

 26 30  0  0  1  0  0  0  0  0999 V2000
  161.3340  203.4350  148.6920 N   0  0  0  0  0  0  0  0  0  0  0  0
  161.1670  207.7520  151.8540 C   0  0  2  0  0  3  0  0  0  0  0  0
  160.8640  206.3720  153.7260 N   0  0  0  0  0  0  0  0  0  0  0  0
  161.1570  202.3840  147.8440 C   0  0  0  0  0  0  0  0  0  0  0  0
  161.2080  203.3020  150.0420 C   0  0  0  0  0  0  0  0  0  0  0  0
  161.6570  205.7310  150.3910 N   0  0  0  0  0  2  0  0  0  0  0  0
  161.4100  204.4370  150.8910 N   0  0  0  0  0  0  0  0  0  0  0  0
  160.6820  207.5760  153.2760 C   0  0  0  0  0  3  0  0  0  0  0  0
  160.8870  202.0510  150.5850 C   0  0  0  0  0  3  0  0  0  0  0  0
  160.7000  200.9600  149.7340 C   0  0  0  0  0  3  0  0  0  0  0  0
  160.8330  201.1240  148.3550 C   0  0  0  0  0  3  0  0  0  0  0  0
  161.5060  205.6760  152.6790 C   0  0  1  0  0  3  0  0  0  0  0  0
  161.2140  204.4520  152.3060 C   0  0  0  0  0  2  0  0  0  0  0  0
  161.8090  206.4750  151.5720 N   0  0  2  0  0  0  0  0  0  0  0  0
  162.1420  208.9360  151.7610 C   0  0  1  0  0  3  0  0  0  0  0  0
  161.7980  209.9260  150.6590 C   0  0  0  0  0  2  0  0  0  0  0  0
  161.5000  210.9850  151.7040 C   0  0  2  0  0  3  0  0  0  0  0  0
  161.8340  209.9940  152.8040 C   0  0  0  0  0  2  0  0  0  0  0  0
  160.1440  211.2520  151.7180 F   0  0  0  0  0  0  0  0  0  0  0  0
  161.2970  202.5680  146.3670 C   0  0  1  0  0  3  0  0  0  0  0  0
  159.6120  201.9150  144.8460 O   0  0  0  0  0  0  0  0  0  0  0  0
  160.4780  201.5570  145.6270 C   0  0  0  0  0  3  0  0  0  0  0  0
  160.8920  203.8560  146.0050 O   0  0  0  0  0  0  0  0  0  0  0  0
  161.9650  204.3830  145.2840 C   0  0  0  0  0  3  0  0  0  0  0  0
  162.1030  205.8580  145.6070 C   0  0  0  0  0  2  0  0  0  0  0  0
  161.4470  205.4250  144.3140 C   0  0  0  0  0  2  0  0  0  0  0  0
  1  5  1  0  0  0  0
  2  8  1  1  0  0  0
  4 11  1  0  0  0  0
  4  1  2  0  0  0  0
  5  9  2  0  0  0  0
  5  7  1  0  0  0  0
  6  7  1  0  0  0  0
  7 13  1  0  0  0  0
  8  3  2  0  0  0  0
 10  9  1  0  0  0  0
 11 10  2  0  0  0  0
 12 13  1  6  0  0  0
 12  3  1  0  0  0  0
 14  6  1  6  0  0  0
 14  2  1  0  0  0  0
 14 12  1  0  0  0  0
 15 16  1  6  0  0  0
 15  2  1  0  0  0  0
 15 18  1  0  0  0  0
 16 17  1  0  0  0  0
 17 19  1  1  0  0  0
 17 18  1  0  0  0  0
 20 22  1  6  0  0  0
 20  4  1  0  0  0  0
 21 22  2  0  0  0  0
 23 20  1  0  0  0  0
 24 25  1  0  0  0  0
 24 23  1  0  0  0  0
 26 24  1  0  0  0  0
 26 25  1  0  0  0  0
M  END
>  <MODEL>
1

>  <REMARK>
 VINA RESULT:      -8.2      0.000      0.000
  Name = 
  5 active torsions:
  status: ('A' for Active; 'I' for Inactive)
    1  A    between atoms: C_2  and  O_9
    2  A    between atoms: C_3  and  C_8
    3  A    between atoms: C_6  and  C_20
    4  A    between atoms: O_9  and  C_20
    5  A    between atoms: C_10  and  C_20
                            x       y       z     vdW  Elec       q    Type
                         _______ _______ _______ _____ _____    ______ ____

>  <TORSDO>
F 5

$$$$
=
 OpenBabel11072414223D

 26 30  0  0  1  0  0  0  0  0999 V2000
  161.0780  206.5240  150.5630 N   0  0  0  0  0  0  0  0  0  0  0  0
  160.2410  209.4520  154.9660 C   0  0  2  0  0  3  0  0  0  0  0  0
  160.2830  207.5050  156.2720 N   0  0  0  0  0  0  0  0  0  0  0  0
  161.0640  205.7960  149.4130 C   0  0  0  0  0  0  0  0  0  0  0  0
  161.0370  205.9360  151.7900 C   0  0  0  0  0  0  0  0  0  0  0  0
  161.0380  208.1550  152.9300 N   0  0  0  0  0  2  0  0  0  0  0  0
  161.0590  206.7460  152.9700 N   0  0  0  0  0  0  0  0  0  0  0  0
  159.8590  208.7310  156.2400 C   0  0  0  0  0  3  0  0  0  0  0  0
  160.9810  204.5380  151.8840 C   0  0  0  0  0  3  0  0  0  0  0  0
  160.9650  203.7720  150.7180 C   0  0  0  0  0  3  0  0  0  0  0  0
  161.0060  204.4000  149.4720 C   0  0  0  0  0  3  0  0  0  0  0  0
  160.9990  207.3260  155.0680 C   0  0  1  0  0  3  0  0  0  0  0  0
  160.9250  206.2600  154.3060 C   0  0  0  0  0  2  0  0  0  0  0  0
  161.0980  208.4860  154.2930 N   0  0  2  0  0  0  0  0  0  0  0  0
  160.9720  210.7650  155.2890 C   0  0  1  0  0  3  0  0  0  0  0  0
  161.1860  210.9940  156.7780 C   0  0  0  0  0  2  0  0  0  0  0  0
  162.6850  210.8680  156.5810 C   0  0  2  0  0  3  0  0  0  0  0  0
  162.4710  210.6290  155.0970 C   0  0  0  0  0  2  0  0  0  0  0  0
  163.1330  209.7030  157.1770 F   0  0  0  0  0  0  0  0  0  0  0  0
  161.1040  206.4760  148.0810 C   0  0  1  0  0  3  0  0  0  0  0  0
  162.4490  208.3960  148.3610 O   0  0  0  0  0  0  0  0  0  0  0  0
  162.3690  207.2590  147.9240 C   0  0  0  0  0  3  0  0  0  0  0  0
  161.0080  205.5280  147.0590 O   0  0  0  0  0  0  0  0  0  0  0  0
  162.0380  205.8480  146.1710 C   0  0  0  0  0  3  0  0  0  0  0  0
  161.6850  205.3290  144.7920 C   0  0  0  0  0  2  0  0  0  0  0  0
  162.6670  204.5690  145.6570 C   0  0  0  0  0  2  0  0  0  0  0  0
  1  5  1  0  0  0  0
  2 15  1  0  0  0  0
  2  8  1  1  0  0  0
  4 11  1  0  0  0  0
  4  1  2  0  0  0  0
  5  9  2  0  0  0  0
  5  7  1  0  0  0  0
  6  7  1  0  0  0  0
  7 13  1  0  0  0  0
  8  3  2  0  0  0  0
 10  9  1  0  0  0  0
 11 10  2  0  0  0  0
 12 13  1  6  0  0  0
 12  3  1  0  0  0  0
 14  6  1  6  0  0  0
 14  2  1  0  0  0  0
 14 12  1  0  0  0  0
 15 18  1  6  0  0  0
 15 16  1  0  0  0  0
 17 16  1  0  0  0  0
 17 19  1  1  0  0  0
 18 17  1  0  0  0  0
 20 22  1  6  0  0  0
 20  4  1  0  0  0  0
 22 21  2  0  0  0  0
 23 20  1  0  0  0  0
 24 23  1  0  0  0  0
 25 26  1  0  0  0  0
 25 24  1  0  0  0  0
 26 24  1  0  0  0  0
M  END
>  <MODEL>
2

>  <REMARK>
 VINA RESULT:      -8.2      2.704      3.978
  Name = 
  5 active torsions:
  status: ('A' for Active; 'I' for Inactive)
    1  A    between atoms: C_2  and  O_9
    2  A    between atoms: C_3  and  C_8
    3  A    between atoms: C_6  and  C_20
    4  A    between atoms: O_9  and  C_20
    5  A    between atoms: C_10  and  C_20
                            x       y       z     vdW  Elec       q    Type
                         _______ _______ _______ _____ _____    ______ ____

>  <TORSDO>
F 5

$$$$
=
 OpenBabel11072414223D

 26 30  0  0  1  0  0  0  0  0999 V2000
  161.0270  206.4180  150.8060 N   0  0  0  0  0  0  0  0  0  0  0  0
  159.9170  210.0790  154.5510 C   0  0  2  0  0  3  0  0  0  0  0  0
  160.2200  208.4640  156.2240 N   0  0  0  0  0  0  0  0  0  0  0  0
  161.0820  205.4700  149.8290 C   0  0  0  0  0  0  0  0  0  0  0  0
  161.0810  206.0960  152.1280 C   0  0  0  0  0  0  0  0  0  0  0  0
  160.8300  208.4890  152.7900 N   0  0  0  0  0  2  0  0  0  0  0  0
  161.0240  207.1310  153.1150 N   0  0  0  0  0  0  0  0  0  0  0  0
  159.6490  209.5990  155.9600 C   0  0  0  0  0  3  0  0  0  0  0  0
  161.1970  204.7520  152.5070 C   0  0  0  0  0  3  0  0  0  0  0  0
  161.2540  203.7640  151.5230 C   0  0  0  0  0  3  0  0  0  0  0  0
  161.1950  204.1200  150.1750 C   0  0  0  0  0  3  0  0  0  0  0  0
  160.9310  208.1220  155.0520 C   0  0  1  0  0  3  0  0  0  0  0  0
  160.9740  206.9200  154.5270 C   0  0  0  0  0  2  0  0  0  0  0  0
  160.8740  209.1000  154.0530 N   0  0  2  0  0  0  0  0  0  0  0  0
  160.4880  211.5060  154.5680 C   0  0  1  0  0  3  0  0  0  0  0  0
  159.6680  212.5010  153.7620 C   0  0  0  0  0  2  0  0  0  0  0  0
  159.3080  213.2370  155.0380 C   0  0  2  0  0  3  0  0  0  0  0  0
  160.1170  212.2380  155.8440 C   0  0  0  0  0  2  0  0  0  0  0  0
  157.9620  213.0660  155.3060 F   0  0  0  0  0  0  0  0  0  0  0  0
  161.0150  205.8590  148.3870 C   0  0  1  0  0  3  0  0  0  0  0  0
  162.6600  207.5380  148.1600 O   0  0  0  0  0  0  0  0  0  0  0  0
  161.4690  207.2720  148.1980 C   0  0  0  0  0  3  0  0  0  0  0  0
  161.8130  205.0020  147.6240 O   0  0  0  0  0  0  0  0  0  0  0  0
  161.2320  205.0010  146.3540 C   0  0  0  0  0  3  0  0  0  0  0  0
  161.5980  203.7150  145.6410 C   0  0  0  0  0  2  0  0  0  0  0  0
  162.3260  204.9980  145.3070 C   0  0  0  0  0  2  0  0  0  0  0  0
  1  5  1  0  0  0  0
  2 15  1  0  0  0  0
  2  8  1  1  0  0  0
  4 11  1  0  0  0  0
  4  1  2  0  0  0  0
  5  9  2  0  0  0  0
  5  7  1  0  0  0  0
  6  7  1  0  0  0  0
  7 13  1  0  0  0  0
  8  3  2  0  0  0  0
 10  9  1  0  0  0  0
 11 10  2  0  0  0  0
 12 13  1  6  0  0  0
 12  3  1  0  0  0  0
 14  6  1  6  0  0  0
 14  2  1  0  0  0  0
 14 12  1  0  0  0  0
 15 16  1  6  0  0  0
 15 18  1  0  0  0  0
 16 17  1  0  0  0  0
 17 19  1  1  0  0  0
 17 18  1  0  0  0  0
 20 22  1  1  0  0  0
 20  4  1  0  0  0  0
 21 22  2  0  0  0  0
 23 20  1  0  0  0  0
 24 23  1  0  0  0  0
 25 24  1  0  0  0  0
 26 25  1  0  0  0  0
 26 24  1  0  0  0  0
M  END
>  <MODEL>
3

>  <REMARK>
 VINA RESULT:      -8.0      2.643      3.887
  Name = 
  5 active torsions:
  status: ('A' for Active; 'I' for Inactive)
    1  A    between atoms: C_2  and  O_9
    2  A    between atoms: C_3  and  C_8
    3  A    between atoms: C_6  and  C_20
    4  A    between atoms: O_9  and  C_20
    5  A    between atoms: C_10  and  C_20
                            x       y       z     vdW  Elec       q    Type
                         _______ _______ _______ _____ _____    ______ ____

>  <TORSDO>
F 5

$$$$
=
 OpenBabel11072414223D

 26 30  0  0  1  0  0  0  0  0999 V2000
  161.1510  204.6510  147.8640 N   0  0  0  0  0  0  0  0  0  0  0  0
  161.5880  208.0740  151.9570 C   0  0  2  0  0  3  0  0  0  0  0  0
  162.4840  209.6900  150.5120 N   0  0  0  0  0  0  0  0  0  0  0  0
  161.2360  203.6910  146.9020 C   0  0  0  0  0  0  0  0  0  0  0  0
  161.6120  205.9160  147.6640 C   0  0  0  0  0  0  0  0  0  0  0  0
  160.9900  206.5830  149.9860 N   0  0  0  0  0  2  0  0  0  0  0  0
  161.4940  206.8900  148.7060 N   0  0  0  0  0  0  0  0  0  0  0  0
  162.4170  209.3230  151.7550 C   0  0  0  0  0  3  0  0  0  0  0  0
  162.1920  206.2530  146.4330 C   0  0  0  0  0  3  0  0  0  0  0  0
  162.2900  205.2840  145.4330 C   0  0  0  0  0  3  0  0  0  0  0  0
  161.8120  203.9940  145.6650 C   0  0  0  0  0  3  0  0  0  0  0  0
  161.6920  208.7590  149.8050 C   0  0  1  0  0  3  0  0  0  0  0  0
  162.0210  208.2170  148.6570 C   0  0  0  0  0  2  0  0  0  0  0  0
  161.0440  207.8310  150.6270 N   0  0  2  0  0  0  0  0  0  0  0  0
  160.4920  208.3190  153.0060 C   0  0  1  0  0  3  0  0  0  0  0  0
  160.8590  207.8280  154.3980 C   0  0  0  0  0  2  0  0  0  0  0  0
  160.8700  209.2600  154.9000 C   0  0  2  0  0  3  0  0  0  0  0  0
  160.5130  209.7510  153.5090 C   0  0  0  0  0  2  0  0  0  0  0  0
  162.1650  209.6340  155.2040 F   0  0  0  0  0  0  0  0  0  0  0  0
  160.7250  202.3090  147.1590 C   0  0  1  0  0  3  0  0  0  0  0  0
  160.0100  201.3510  145.1230 O   0  0  0  0  0  0  0  0  0  0  0  0
  160.9020  201.4450  145.9500 C   0  0  0  0  0  3  0  0  0  0  0  0
  161.4010  201.7440  148.2430 O   0  0  0  0  0  0  0  0  0  0  0  0
  160.4270  201.5750  149.2290 C   0  0  0  0  0  3  0  0  0  0  0  0
  160.7700  202.4450  150.4220 C   0  0  0  0  0  2  0  0  0  0  0  0
  161.0650  200.9610  150.4590 C   0  0  0  0  0  2  0  0  0  0  0  0
  2  8  1  6  0  0  0
  2 15  1  0  0  0  0
  3  8  2  0  0  0  0
  4 20  1  0  0  0  0
  4  1  2  0  0  0  0
  5  1  1  0  0  0  0
  5  7  1  0  0  0  0
  7  6  1  0  0  0  0
  9  5  2  0  0  0  0
 10 11  2  0  0  0  0
 10  9  1  0  0  0  0
 11  4  1  0  0  0  0
 12 13  1  6  0  0  0
 12  3  1  0  0  0  0
 12 14  1  0  0  0  0
 13  7  1  0  0  0  0
 14  6  1  6  0  0  0
 14  2  1  0  0  0  0
 15 18  1  1  0  0  0
 15 16  1  0  0  0  0
 16 17  1  0  0  0  0
 17 19  1  6  0  0  0
 18 17  1  0  0  0  0
 20 22  1  6  0  0  0
 20 23  1  0  0  0  0
 21 22  2  0  0  0  0
 23 24  1  0  0  0  0
 24 25  1  0  0  0  0
 24 26  1  0  0  0  0
 25 26  1  0  0  0  0
M  END
>  <MODEL>
4

>  <REMARK>
 VINA RESULT:      -7.6      1.773      3.896
  Name = 
  5 active torsions:
  status: ('A' for Active; 'I' for Inactive)
    1  A    between atoms: C_2  and  O_9
    2  A    between atoms: C_3  and  C_8
    3  A    between atoms: C_6  and  C_20
    4  A    between atoms: O_9  and  C_20
    5  A    between atoms: C_10  and  C_20
                            x       y       z     vdW  Elec       q    Type
                         _______ _______ _______ _____ _____    ______ ____

>  <TORSDO>
F 5

$$$$
=
 OpenBabel11072414223D

 26 30  0  0  1  0  0  0  0  0999 V2000
  161.2100  207.6050  151.9150 N   0  0  0  0  0  0  0  0  0  0  0  0
  162.1580  205.6040  147.0410 C   0  0  2  0  0  3  0  0  0  0  0  0
  161.7970  203.4350  147.8580 N   0  0  0  0  0  0  0  0  0  0  0  0
  161.1970  208.1210  153.1750 C   0  0  0  0  0  0  0  0  0  0  0  0
  161.1070  206.2670  151.6820 C   0  0  0  0  0  0  0  0  0  0  0  0
  161.3210  206.6100  149.2200 N   0  0  0  0  0  2  0  0  0  0  0  0
  161.1200  205.7760  150.3380 N   0  0  0  0  0  0  0  0  0  0  0  0
  162.3730  204.1120  146.9130 C   0  0  0  0  0  3  0  0  0  0  0  0
  160.9810  205.3860  152.7650 C   0  0  0  0  0  3  0  0  0  0  0  0
  160.9670  205.8930  154.0650 C   0  0  0  0  0  3  0  0  0  0  0  0
  161.0770  207.2680  154.2760 C   0  0  0  0  0  3  0  0  0  0  0  0
  161.1340  204.3960  148.6530 C   0  0  1  0  0  3  0  0  0  0  0  0
  161.1160  204.3960  149.9650 C   0  0  0  0  0  2  0  0  0  0  0  0
  161.2250  205.7000  148.1560 N   0  0  2  0  0  0  0  0  0  0  0  0
  161.5810  206.1780  145.7370 C   0  0  1  0  0  3  0  0  0  0  0  0
  161.8950  205.3390  144.5090 C   0  0  0  0  0  2  0  0  0  0  0  0
  160.4210  205.0150  144.3540 C   0  0  2  0  0  3  0  0  0  0  0  0
  160.1080  205.8450  145.5860 C   0  0  0  0  0  2  0  0  0  0  0  0
  160.2100  203.6770  144.6310 F   0  0  0  0  0  0  0  0  0  0  0  0
  161.3190  209.5950  153.3940 C   0  0  1  0  0  3  0  0  0  0  0  0
  159.4030  210.7950  152.7110 O   0  0  0  0  0  0  0  0  0  0  0  0
  160.4950  210.3490  152.3980 C   0  0  0  0  0  3  0  0  0  0  0  0
  160.9050  209.9210  154.6890 O   0  0  0  0  0  0  0  0  0  0  0  0
  161.9480  210.6810  155.2220 C   0  0  0  0  0  3  0  0  0  0  0  0
  162.2550  210.1900  156.6220 C   0  0  0  0  0  2  0  0  0  0  0  0
  161.4400  211.4490  156.4240 C   0  0  0  0  0  2  0  0  0  0  0  0
  1  4  1  0  0  0  0
  2  8  1  6  0  0  0
  2 14  1  0  0  0  0
  3 12  1  0  0  0  0
  4 20  1  0  0  0  0
  4 11  2  0  0  0  0
  5  1  2  0  0  0  0
  5  9  1  0  0  0  0
  6  7  1  0  0  0  0
  7  5  1  0  0  0  0
  8  3  2  0  0  0  0
  9 10  2  0  0  0  0
 10 11  1  0  0  0  0
 12 13  1  1  0  0  0
 13  7  1  0  0  0  0
 14 12  1  0  0  0  0
 14  6  1  1  0  0  0
 15 16  1  6  0  0  0
 15  2  1  0  0  0  0
 17 16  1  0  0  0  0
 17 19  1  1  0  0  0
 17 18  1  0  0  0  0
 18 15  1  0  0  0  0
 20 22  1  6  0  0  0
 20 23  1  0  0  0  0
 22 21  2  0  0  0  0
 23 24  1  0  0  0  0
 24 26  1  0  0  0  0
 24 25  1  0  0  0  0
 26 25  1  0  0  0  0
M  END
>  <MODEL>
5

>  <REMARK>
 VINA RESULT:      -7.4      4.026      8.113
  Name = 
  5 active torsions:
  status: ('A' for Active; 'I' for Inactive)
    1  A    between atoms: C_2  and  O_9
    2  A    between atoms: C_3  and  C_8
    3  A    between atoms: C_6  and  C_20
    4  A    between atoms: O_9  and  C_20
    5  A    between atoms: C_10  and  C_20
                            x       y       z     vdW  Elec       q    Type
                         _______ _______ _______ _____ _____    ______ ____

>  <TORSDO>
F 5

$$$$
=
 OpenBabel11072414223D

 26 30  0  0  1  0  0  0  0  0999 V2000
  161.1920  207.4850  151.7550 N   0  0  0  0  0  0  0  0  0  0  0  0
  161.5850  203.9520  147.7520 C   0  0  2  0  0  3  0  0  0  0  0  0
  161.0950  202.2070  149.2400 N   0  0  0  0  0  0  0  0  0  0  0  0
  161.3210  208.3730  152.7800 C   0  0  0  0  0  0  0  0  0  0  0  0
  160.9520  206.1630  151.9710 C   0  0  0  0  0  0  0  0  0  0  0  0
  161.0090  205.6820  149.5230 N   0  0  0  0  0  2  0  0  0  0  0  0
  160.8200  205.2720  150.8580 N   0  0  0  0  0  0  0  0  0  0  0  0
  161.6560  202.4830  148.1030 C   0  0  0  0  0  3  0  0  0  0  0  0
  160.8310  205.6890  153.2850 C   0  0  0  0  0  3  0  0  0  0  0  0
  160.9610  206.5800  154.3510 C   0  0  0  0  0  3  0  0  0  0  0  0
  161.2080  207.9310  154.1010 C   0  0  0  0  0  3  0  0  0  0  0  0
  160.5830  203.4370  149.7110 C   0  0  1  0  0  3  0  0  0  0  0  0
  160.6640  203.8550  150.9520 C   0  0  0  0  0  2  0  0  0  0  0  0
  160.7520  204.4980  148.8150 N   0  0  2  0  0  0  0  0  0  0  0  0
  160.9640  204.1440  146.3590 C   0  0  1  0  0  3  0  0  0  0  0  0
  160.7610  205.6010  145.9760 C   0  0  0  0  0  2  0  0  0  0  0  0
  161.7940  205.4540  144.8740 C   0  0  2  0  0  3  0  0  0  0  0  0
  162.0030  204.0020  145.2620 C   0  0  0  0  0  2  0  0  0  0  0  0
  162.9210  206.1870  145.1960 F   0  0  0  0  0  0  0  0  0  0  0  0
  161.5900  209.8180  152.5060 C   0  0  1  0  0  3  0  0  0  0  0  0
  161.9540  210.6070  150.3110 O   0  0  0  0  0  0  0  0  0  0  0  0
  162.3980  209.9780  151.2570 C   0  0  0  0  0  3  0  0  0  0  0  0
  160.3840  210.5120  152.3780 O   0  0  0  0  0  0  0  0  0  0  0  0
  160.3760  211.4230  153.4360 C   0  0  0  0  0  3  0  0  0  0  0  0
  158.9940  211.4500  154.0580 C   0  0  0  0  0  2  0  0  0  0  0  0
  159.4190  212.5520  153.1120 C   0  0  0  0  0  2  0  0  0  0  0  0
  1  5  2  0  0  0  0
  1  4  1  0  0  0  0
  2  8  1  1  0  0  0
  2 14  1  0  0  0  0
  3 12  1  0  0  0  0
  4 11  2  0  0  0  0
  5  9  1  0  0  0  0
  6  7  1  0  0  0  0
  7 13  1  0  0  0  0
  7  5  1  0  0  0  0
  8  3  2  0  0  0  0
  9 10  2  0  0  0  0
 11 10  1  0  0  0  0
 12 13  1  1  0  0  0
 14  6  1  1  0  0  0
 14 12  1  0  0  0  0
 15 18  1  6  0  0  0
 15  2  1  0  0  0  0
 16 15  1  0  0  0  0
 17 19  1  1  0  0  0
 17 18  1  0  0  0  0
 17 16  1  0  0  0  0
 20 22  1  6  0  0  0
 20  4  1  0  0  0  0
 21 22  2  0  0  0  0
 23 20  1  0  0  0  0
 23 24  1  0  0  0  0
 24 25  1  0  0  0  0
 26 24  1  0  0  0  0
 26 25  1  0  0  0  0
M  END
>  <MODEL>
6

>  <REMARK>
 VINA RESULT:      -7.4      3.373      7.603
  Name = 
  5 active torsions:
  status: ('A' for Active; 'I' for Inactive)
    1  A    between atoms: C_2  and  O_9
    2  A    between atoms: C_3  and  C_8
    3  A    between atoms: C_6  and  C_20
    4  A    between atoms: O_9  and  C_20
    5  A    between atoms: C_10  and  C_20
                            x       y       z     vdW  Elec       q    Type
                         _______ _______ _______ _____ _____    ______ ____

>  <TORSDO>
F 5

$$$$
=
 OpenBabel11072414223D

 26 30  0  0  1  0  0  0  0  0999 V2000
  161.3470  204.8390  148.8730 N   0  0  0  0  0  0  0  0  0  0  0  0
  161.5210  208.2070  153.0310 C   0  0  2  0  0  3  0  0  0  0  0  0
  162.1190  209.9580  151.5910 N   0  0  0  0  0  0  0  0  0  0  0  0
  161.5130  203.9200  147.8820 C   0  0  0  0  0  0  0  0  0  0  0  0
  161.6230  206.1590  148.6850 C   0  0  0  0  0  0  0  0  0  0  0  0
  161.0330  206.6890  151.0510 N   0  0  0  0  0  2  0  0  0  0  0  0
  161.4270  207.0870  149.7580 N   0  0  0  0  0  0  0  0  0  0  0  0
  162.1640  209.5600  152.8250 C   0  0  0  0  0  3  0  0  0  0  0  0
  162.0910  206.5970  147.4380 C   0  0  0  0  0  3  0  0  0  0  0  0
  162.2690  205.6710  146.4090 C   0  0  0  0  0  3  0  0  0  0  0  0
  161.9810  204.3230  146.6280 C   0  0  0  0  0  3  0  0  0  0  0  0
  161.4250  208.9430  150.8960 C   0  0  1  0  0  3  0  0  0  0  0  0
  161.7680  208.4740  149.7200 C   0  0  0  0  0  2  0  0  0  0  0  0
  160.9500  207.9190  151.7220 N   0  0  2  0  0  0  0  0  0  0  0  0
  160.4560  208.2790  154.1360 C   0  0  1  0  0  3  0  0  0  0  0  0
  160.6110  207.2080  155.2050 C   0  0  0  0  0  2  0  0  0  0  0  0
  160.9350  208.2790  156.2300 C   0  0  2  0  0  3  0  0  0  0  0  0
  160.7890  209.3470  155.1610 C   0  0  0  0  0  2  0  0  0  0  0  0
  162.2620  208.1760  156.6030 F   0  0  0  0  0  0  0  0  0  0  0  0
  161.2060  202.4770  148.1250 C   0  0  1  0  0  3  0  0  0  0  0  0
  160.9530  201.1860  150.0860 O   0  0  0  0  0  0  0  0  0  0  0  0
  160.7640  202.2590  149.5370 C   0  0  0  0  0  3  0  0  0  0  0  0
  160.2060  202.0470  147.2480 O   0  0  0  0  0  0  0  0  0  0  0  0
  160.8760  201.7150  146.0690 C   0  0  0  0  0  3  0  0  0  0  0  0
  159.8650  201.5440  144.9540 C   0  0  0  0  0  2  0  0  0  0  0  0
  160.4550  200.3270  145.6320 C   0  0  0  0  0  2  0  0  0  0  0  0
  2  8  1  6  0  0  0
  2 15  1  0  0  0  0
  3  8  2  0  0  0  0
  4 20  1  0  0  0  0
  4  1  2  0  0  0  0
  5  1  1  0  0  0  0
  5  7  1  0  0  0  0
  7  6  1  0  0  0  0
  9  5  2  0  0  0  0
 10 11  2  0  0  0  0
 10  9  1  0  0  0  0
 11  4  1  0  0  0  0
 12 13  1  6  0  0  0
 12  3  1  0  0  0  0
 12 14  1  0  0  0  0
 13  7  1  0  0  0  0
 14  6  1  6  0  0  0
 14  2  1  0  0  0  0
 15 18  1  1  0  0  0
 15 16  1  0  0  0  0
 16 17  1  0  0  0  0
 17 19  1  6  0  0  0
 18 17  1  0  0  0  0
 20 22  1  1  0  0  0
 22 21  2  0  0  0  0
 23 20  1  0  0  0  0
 24 23  1  0  0  0  0
 25 26  1  0  0  0  0
 25 24  1  0  0  0  0
 26 24  1  0  0  0  0
M  END
>  <MODEL>
7

>  <REMARK>
 VINA RESULT:      -7.3      2.292      3.927
  Name = 
  5 active torsions:
  status: ('A' for Active; 'I' for Inactive)
    1  A    between atoms: C_2  and  O_9
    2  A    between atoms: C_3  and  C_8
    3  A    between atoms: C_6  and  C_20
    4  A    between atoms: O_9  and  C_20
    5  A    between atoms: C_10  and  C_20
                            x       y       z     vdW  Elec       q    Type
                         _______ _______ _______ _____ _____    ______ ____

>  <TORSDO>
F 5

$$$$
=
 OpenBabel11072414223D

 26 30  0  0  1  0  0  0  0  0999 V2000
  161.2250  204.4890  149.5970 N   0  0  0  0  0  0  0  0  0  0  0  0
  160.6500  208.5300  153.0610 C   0  0  2  0  0  3  0  0  0  0  0  0
  160.7360  207.0140  154.8480 N   0  0  0  0  0  0  0  0  0  0  0  0
  161.1440  203.4740  148.6930 C   0  0  0  0  0  0  0  0  0  0  0  0
  161.2410  204.2600  150.9390 C   0  0  0  0  0  0  0  0  0  0  0  0
  161.3260  206.7050  151.4250 N   0  0  0  0  0  2  0  0  0  0  0  0
  161.3330  205.3610  151.8490 N   0  0  0  0  0  0  0  0  0  0  0  0
  160.3260  208.1950  154.5000 C   0  0  0  0  0  3  0  0  0  0  0  0
  161.1730  202.9430  151.4160 C   0  0  0  0  0  3  0  0  0  0  0  0
  161.0880  201.8880  150.5060 C   0  0  0  0  0  3  0  0  0  0  0  0
  161.0720  202.1500  149.1360 C   0  0  0  0  0  3  0  0  0  0  0  0
  161.3870  206.4940  153.7080 C   0  0  1  0  0  3  0  0  0  0  0  0
  161.2620  205.2620  153.2720 C   0  0  0  0  0  2  0  0  0  0  0  0
  161.4600  207.3950  152.6400 N   0  0  2  0  0  0  0  0  0  0  0  0
  161.4120  209.8620  152.9770 C   0  0  1  0  0  3  0  0  0  0  0  0
  160.6270  210.9730  152.2980 C   0  0  0  0  0  2  0  0  0  0  0  0
  160.5730  211.7360  153.6080 C   0  0  2  0  0  3  0  0  0  0  0  0
  161.3490  210.6230  154.2890 C   0  0  0  0  0  2  0  0  0  0  0  0
  159.2750  211.7520  154.0820 F   0  0  0  0  0  0  0  0  0  0  0  0
  161.1230  203.7620  147.2260 C   0  0  1  0  0  3  0  0  0  0  0  0
  162.5280  204.9990  145.7860 O   0  0  0  0  0  0  0  0  0  0  0  0
  162.0330  204.9040  146.8970 C   0  0  0  0  0  3  0  0  0  0  0  0
  161.5160  202.6280  146.5110 O   0  0  0  0  0  0  0  0  0  0  0  0
  160.3600  201.8530  146.3970 C   0  0  0  0  0  3  0  0  0  0  0  0
  160.7110  200.5290  145.7490 C   0  0  0  0  0  2  0  0  0  0  0  0
  160.0590  201.6220  144.9310 C   0  0  0  0  0  2  0  0  0  0  0  0
  1  5  1  0  0  0  0
  2  8  1  1  0  0  0
  4 11  1  0  0  0  0
  4  1  2  0  0  0  0
  5  9  2  0  0  0  0
  5  7  1  0  0  0  0
  6  7  1  0  0  0  0
  7 13  1  0  0  0  0
  8  3  2  0  0  0  0
 10  9  1  0  0  0  0
 11 10  2  0  0  0  0
 12 13  1  6  0  0  0
 12  3  1  0  0  0  0
 14  6  1  6  0  0  0
 14  2  1  0  0  0  0
 14 12  1  0  0  0  0
 15 16  1  6  0  0  0
 15  2  1  0  0  0  0
 15 18  1  0  0  0  0
 16 17  1  0  0  0  0
 17 19  1  1  0  0  0
 17 18  1  0  0  0  0
 20 22  1  1  0  0  0
 20  4  1  0  0  0  0
 21 22  2  0  0  0  0
 23 20  1  0  0  0  0
 24 23  1  0  0  0  0
 25 24  1  0  0  0  0
 26 25  1  0  0  0  0
 26 24  1  0  0  0  0
M  END
>  <MODEL>
8

>  <REMARK>
 VINA RESULT:      -7.1      1.518      2.355
  Name = 
  5 active torsions:
  status: ('A' for Active; 'I' for Inactive)
    1  A    between atoms: C_2  and  O_9
    2  A    between atoms: C_3  and  C_8
    3  A    between atoms: C_6  and  C_20
    4  A    between atoms: O_9  and  C_20
    5  A    between atoms: C_10  and  C_20
                            x       y       z     vdW  Elec       q    Type
                         _______ _______ _______ _____ _____    ______ ____

>  <TORSDO>
F 5

$$$$
=
 OpenBabel11072414223D

 26 30  0  0  1  0  0  0  0  0999 V2000
  161.5680  208.6200  150.7770 N   0  0  0  0  0  0  0  0  0  0  0  0
  161.0160  204.0570  148.0330 C   0  0  2  0  0  3  0  0  0  0  0  0
  161.7420  205.1390  146.0820 N   0  0  0  0  0  0  0  0  0  0  0  0
  161.4830  209.8040  151.4450 C   0  0  0  0  0  0  0  0  0  0  0  0
  161.9030  208.5580  149.4580 C   0  0  0  0  0  0  0  0  0  0  0  0
  161.6510  206.0770  149.4400 N   0  0  0  0  0  2  0  0  0  0  0  0
  161.9850  207.2880  148.8030 N   0  0  0  0  0  0  0  0  0  0  0  0
  161.0640  204.1230  146.5220 C   0  0  0  0  0  3  0  0  0  0  0  0
  162.1720  209.7430  148.7580 C   0  0  0  0  0  3  0  0  0  0  0  0
  162.0880  210.9670  149.4230 C   0  0  0  0  0  3  0  0  0  0  0  0
  161.7410  211.0030  150.7740 C   0  0  0  0  0  3  0  0  0  0  0  0
  162.2220  205.7940  147.2370 C   0  0  1  0  0  3  0  0  0  0  0  0
  162.2310  207.0950  147.4090 C   0  0  0  0  0  2  0  0  0  0  0  0
  161.9100  205.1360  148.4310 N   0  0  2  0  0  0  0  0  0  0  0  0
  161.4950  202.6820  148.5260 C   0  0  1  0  0  3  0  0  0  0  0  0
  160.9210  202.2850  149.8770 C   0  0  0  0  0  2  0  0  0  0  0  0
  160.1560  201.1520  149.2190 C   0  0  2  0  0  3  0  0  0  0  0  0
  160.7210  201.5540  147.8690 C   0  0  0  0  0  2  0  0  0  0  0  0
  158.8020  201.4270  149.2540 F   0  0  0  0  0  0  0  0  0  0  0  0
  161.1060  209.8350  152.8910 C   0  0  1  0  0  3  0  0  0  0  0  0
  160.5840  211.7980  154.0950 O   0  0  0  0  0  0  0  0  0  0  0  0
  160.2680  211.0360  153.1950 C   0  0  0  0  0  3  0  0  0  0  0  0
  160.4020  208.6740  153.2260 O   0  0  0  0  0  0  0  0  0  0  0  0
  161.2260  207.9990  154.1290 C   0  0  0  0  0  3  0  0  0  0  0  0
  161.0790  206.5060  153.9150 C   0  0  0  0  0  2  0  0  0  0  0  0
  160.3660  207.1780  155.0680 C   0  0  0  0  0  2  0  0  0  0  0  0
  1  4  1  0  0  0  0
  2  8  1  6  0  0  0
  2 14  1  0  0  0  0
  2 15  1  0  0  0  0
  3  8  2  0  0  0  0
  3 12  1  0  0  0  0
  4 20  1  0  0  0  0
  5  1  2  0  0  0  0
  7  6  1  0  0  0  0
  7  5  1  0  0  0  0
  9 10  2  0  0  0  0
  9  5  1  0  0  0  0
 10 11  1  0  0  0  0
 11  4  2  0  0  0  0
 12 13  1  1  0  0  0
 12 14  1  0  0  0  0
 13  7  1  0  0  0  0
 14  6  1  1  0  0  0
 15 18  1  6  0  0  0
 15 16  1  0  0  0  0
 17 19  1  6  0  0  0
 17 16  1  0  0  0  0
 18 17  1  0  0  0  0
 20 22  1  6  0  0  0
 20 23  1  0  0  0  0
 22 21  2  0  0  0  0
 23 24  1  0  0  0  0
 24 26  1  0  0  0  0
 25 24  1  0  0  0  0
 25 26  1  0  0  0  0
M  END
>  <MODEL>
9

>  <REMARK>
 VINA RESULT:      -7.1      3.774      8.396
  Name = 
  5 active torsions:
  status: ('A' for Active; 'I' for Inactive)
    1  A    between atoms: C_2  and  O_9
    2  A    between atoms: C_3  and  C_8
    3  A    between atoms: C_6  and  C_20
    4  A    between atoms: O_9  and  C_20
    5  A    between atoms: C_10  and  C_20
                            x       y       z     vdW  Elec       q    Type
                         _______ _______ _______ _____ _____    ______ ____

>  <TORSDO>
F 5

$$$$
