=
 OpenBabel11072415153D

 40 44  0  0  1  0  0  0  0  0999 V2000
  160.8170  212.9620  150.5270 C   0  0  2  0  0  3  0  0  0  0  0  0
  159.9180  210.5780  156.3500 C   0  0  0  0  0  2  0  0  0  0  0  0
  160.2750  208.2290  154.7790 C   0  0  0  0  0  2  0  0  0  0  0  0
  159.3340  212.8970  150.7280 C   0  0  1  0  0  3  0  0  0  0  0  0
  160.4870  210.6890  153.8670 C   0  0  2  0  0  3  0  0  0  0  0  0
  160.6550  209.7380  151.2480 N   0  0  0  0  0  2  0  0  0  0  0  0
  161.6600  210.6550  150.7990 C   0  0  0  0  0  0  0  0  0  0  0  0
  162.4880  210.0570  155.5150 C   0  0  0  0  0  2  0  0  0  0  0  0
  161.0530  214.1310  149.6910 N   0  0  0  0  0  2  0  0  0  0  0  0
  158.9640  212.9860  152.1740 C   0  0  0  0  0  0  0  0  0  0  0  0
  158.8650  214.1120  149.9830 C   0  0  2  0  0  3  0  0  0  0  0  0
  160.8420  209.1970  153.7230 C   0  0  2  0  0  0  0  0  0  0  0  0
  160.8520  208.6920  152.2580 C   0  0  2  0  0  3  0  0  0  0  0  0
  161.7180  206.3150  151.9820 C   0  0  2  0  0  3  0  0  0  0  0  0
  160.9940  206.0050  153.1650 O   0  0  0  0  0  0  0  0  0  0  0  0
  157.5940  212.0720  154.0890 C   0  0  1  0  0  3  0  0  0  0  0  0
  159.5370  213.8140  152.9360 O   0  0  0  0  0  0  0  0  0  0  0  0
  161.3060  211.7130  149.8120 C   0  0  0  0  0  2  0  0  0  0  0  0
  158.2670  210.8560  154.7150 C   0  0  0  0  0  2  0  0  0  0  0  0
  161.9430  210.2130  154.0950 C   0  0  1  0  0  3  0  0  0  0  0  0
  157.5890  213.7940  149.2290 C   0  0  0  0  0  1  0  0  0  0  0  0
  161.5870  206.1570  154.4150 C   0  0  0  0  0  3  0  0  0  0  0  0
  161.0150  211.3550  157.0670 C   0  0  0  0  0  2  0  0  0  0  0  0
  162.0580  207.8100  151.9270 C   0  0  0  0  0  2  0  0  0  0  0  0
  162.8380  210.5940  151.2420 O   0  0  0  0  0  0  0  0  0  0  0  0
  162.3240  211.3530  156.2880 C   0  0  0  0  0  2  0  0  0  0  0  0
  159.6620  211.1380  155.0260 N   0  0  1  0  0  0  0  0  0  0  0  0
  157.9280  212.1410  152.6760 N   0  0  0  0  0  2  0  0  0  0  0  0
  161.2570  207.1780  155.1990 C   0  0  0  0  0  3  0  0  0  0  0  0
  159.8780  214.4530  149.0760 O   0  0  0  0  0  0  0  0  0  0  0  0
  160.9460  205.8510  150.7480 C   0  0  0  0  0  0  0  0  0  0  0  0
  160.5200  206.9360  150.0020 F   0  0  0  0  0  0  0  0  0  0  0  0
  159.8420  205.1210  151.1490 F   0  0  0  0  0  0  0  0  0  0  0  0
  161.7510  205.0460  149.9630 F   0  0  0  0  0  0  0  0  0  0  0  0
  156.0860  211.9520  154.2350 C   0  0  0  0  0  2  0  0  0  0  0  0
  155.5400  213.0350  155.1180 C   0  0  0  0  0  0  0  0  0  0  0  0
  155.1440  214.0770  154.6190 O   0  0  0  0  0  0  0  0  0  0  0  0
  156.6660  213.5580  157.2600 C   0  0  0  0  0  1  0  0  0  0  0  0
  155.4810  211.5170  156.9670 O   0  0  0  0  0  1  0  0  0  0  0  0
  155.4840  212.8670  156.6090 C   0  0  2  0  0  3  0  0  0  0  0  0
  1 18  1  6  0  0  0
  1  4  1  0  0  0  0
  2 23  1  0  0  0  0
  3 29  1  0  0  0  0
  4 10  1  1  0  0  0
  5 20  1  0  0  0  0
  5 27  1  0  0  0  0
  6 13  1  0  0  0  0
  7 25  2  0  0  0  0
  7  6  1  0  0  0  0
  8 26  1  0  0  0  0
  9  1  1  0  0  0  0
 10 28  1  0  0  0  0
 10 17  2  0  0  0  0
 11  4  1  0  0  0  0
 12  5  1  0  0  0  0
 12 20  1  0  0  0  0
 12  3  1  0  0  0  0
 13 12  1  0  0  0  0
 14 15  1  0  0  0  0
 15 22  1  0  0  0  0
 16 35  1  0  0  0  0
 16 19  1  0  0  0  0
 18  7  1  0  0  0  0
 19 27  1  0  0  0  0
 20  8  1  0  0  0  0
 21 11  1  0  0  0  0
 22 29  2  0  0  0  0
 24 14  1  0  0  0  0
 24 13  1  0  0  0  0
 26 23  1  0  0  0  0
 27  2  1  0  0  0  0
 28 16  1  0  0  0  0
 30  9  1  0  0  0  0
 30 11  1  0  0  0  0
 31 33  1  0  0  0  0
 31 14  1  0  0  0  0
 32 31  1  0  0  0  0
 34 31  1  0  0  0  0
 35 36  1  0  0  0  0
 36 40  1  0  0  0  0
 37 36  2  0  0  0  0
 40 39  1  0  0  0  0
 40 38  1  0  0  0  0
M  END
>  <MODEL>
1

>  <REMARK>
 VINA RESULT:      -4.5      0.000      0.000
  Name = 
  4 active torsions:
  status: ('A' for Active; 'I' for Inactive)
    1  A    between atoms: C_6  and  C_7
    2  A    between atoms: C_6  and  C_22
    3  A    between atoms: C_7  and  C_21
    4  A    between atoms: C_13  and  C_19
                            x       y       z     vdW  Elec       q    Type
                         _______ _______ _______ _____ _____    ______ ____

>  <TORSDO>
F 4

$$$$
=
 OpenBabel11072415153D

 40 44  0  0  1  0  0  0  0  0999 V2000
  160.9110  211.5920  153.7820 C   0  0  2  0  0  3  0  0  0  0  0  0
  162.5340  211.4760  147.6370 C   0  0  0  0  0  2  0  0  0  0  0  0
  159.8830  212.5140  147.5470 C   0  0  0  0  0  2  0  0  0  0  0  0
  160.6420  210.1970  153.3050 C   0  0  1  0  0  3  0  0  0  0  0  0
  161.2070  211.9740  149.7570 C   0  0  2  0  0  3  0  0  0  0  0  0
  158.9080  212.4090  151.2790 N   0  0  0  0  0  2  0  0  0  0  0  0
  159.5500  213.0900  152.3640 C   0  0  0  0  0  0  0  0  0  0  0  0
  162.2230  214.0790  148.4710 C   0  0  0  0  0  2  0  0  0  0  0  0
  161.3210  211.4630  155.1730 N   0  0  0  0  0  2  0  0  0  0  0  0
  161.5210  209.8240  152.1530 C   0  0  0  0  0  0  0  0  0  0  0  0
  160.9800  209.3830  154.5180 C   0  0  2  0  0  3  0  0  0  0  0  0
  160.0840  212.7600  149.0550 C   0  0  2  0  0  0  0  0  0  0  0  0
  158.7990  212.9150  149.9070 C   0  0  2  0  0  3  0  0  0  0  0  0
  157.0490  214.4530  148.8810 C   0  0  2  0  0  3  0  0  0  0  0  0
  157.3840  213.8610  147.6330 O   0  0  0  0  0  0  0  0  0  0  0  0
  161.7070  208.8000  149.8520 C   0  0  1  0  0  3  0  0  0  0  0  0
  162.7470  210.1250  152.1550 O   0  0  0  0  0  0  0  0  0  0  0  0
  159.6460  212.4310  153.6960 C   0  0  0  0  0  2  0  0  0  0  0  0
  161.3420  209.8100  148.7700 C   0  0  0  0  0  2  0  0  0  0  0  0
  161.3310  213.5070  149.5730 C   0  0  1  0  0  3  0  0  0  0  0  0
  159.9770  208.2580  154.6790 C   0  0  0  0  0  1  0  0  0  0  0  0
  158.4120  214.3860  146.8560 C   0  0  0  0  0  3  0  0  0  0  0  0
  163.8160  212.2910  147.7430 C   0  0  0  0  0  2  0  0  0  0  0  0
  158.2140  214.3280  149.8730 C   0  0  0  0  0  2  0  0  0  0  0  0
  160.0530  214.2340  152.2040 O   0  0  0  0  0  0  0  0  0  0  0  0
  163.6360  213.5370  148.6000 C   0  0  0  0  0  2  0  0  0  0  0  0
  162.0710  211.0570  148.9580 N   0  0  1  0  0  0  0  0  0  0  0  0
  160.9590  209.0920  151.0640 N   0  0  0  0  0  2  0  0  0  0  0  0
  159.5860  213.7680  146.7830 C   0  0  0  0  0  3  0  0  0  0  0  0
  160.9080  210.2430  155.6230 O   0  0  0  0  0  0  0  0  0  0  0  0
  155.7560  213.8500  149.4280 C   0  0  0  0  0  0  0  0  0  0  0  0
  155.5480  214.2470  150.7370 F   0  0  0  0  0  0  0  0  0  0  0  0
  155.8430  212.4700  149.3840 F   0  0  0  0  0  0  0  0  0  0  0  0
  154.6840  214.2530  148.6520 F   0  0  0  0  0  0  0  0  0  0  0  0
  161.3570  207.3990  149.3810 C   0  0  0  0  0  2  0  0  0  0  0  0
  162.1680  207.0130  148.1790 C   0  0  0  0  0  0  0  0  0  0  0  0
  163.1200  207.7030  147.8480 O   0  0  0  0  0  0  0  0  0  0  0  0
  161.3470  204.6790  148.2710 C   0  0  0  0  0  1  0  0  0  0  0  0
  162.9200  205.3590  146.6220 O   0  0  0  0  0  1  0  0  0  0  0  0
  161.8230  205.7990  147.3660 C   0  0  2  0  0  3  0  0  0  0  0  0
  1 18  1  1  0  0  0
  1  9  1  0  0  0  0
  2 23  1  0  0  0  0
  2 27  1  0  0  0  0
  3 12  1  0  0  0  0
  4 10  1  6  0  0  0
  4  1  1  0  0  0  0
  4 11  1  0  0  0  0
  6  7  1  0  0  0  0
  7 18  1  0  0  0  0
  8 26  1  0  0  0  0
  8 20  1  0  0  0  0
  9 30  1  0  0  0  0
 10 17  2  0  0  0  0
 11 21  1  0  0  0  0
 11 30  1  0  0  0  0
 12 20  1  0  0  0  0
 12  5  1  0  0  0  0
 12 13  1  0  0  0  0
 13  6  1  0  0  0  0
 14 31  1  0  0  0  0
 14 24  1  0  0  0  0
 15 14  1  0  0  0  0
 16 28  1  0  0  0  0
 19 27  1  0  0  0  0
 19 16  1  0  0  0  0
 20  5  1  0  0  0  0
 22 15  1  0  0  0  0
 23 26  1  0  0  0  0
 24 13  1  0  0  0  0
 25  7  2  0  0  0  0
 27  5  1  0  0  0  0
 28 10  1  0  0  0  0
 29 22  2  0  0  0  0
 29  3  1  0  0  0  0
 31 32  1  0  0  0  0
 33 31  1  0  0  0  0
 34 31  1  0  0  0  0
 35 16  1  0  0  0  0
 36 35  1  0  0  0  0
 37 36  2  0  0  0  0
 39 40  1  0  0  0  0
 40 36  1  0  0  0  0
 40 38  1  0  0  0  0
M  END
>  <MODEL>
2

>  <REMARK>
 VINA RESULT:      -2.1      3.485      8.367
  Name = 
  4 active torsions:
  status: ('A' for Active; 'I' for Inactive)
    1  A    between atoms: C_6  and  C_7
    2  A    between atoms: C_6  and  C_22
    3  A    between atoms: C_7  and  C_21
    4  A    between atoms: C_13  and  C_19
                            x       y       z     vdW  Elec       q    Type
                         _______ _______ _______ _____ _____    ______ ____

>  <TORSDO>
F 4

$$$$
