=
 OpenBabel11072413133D

 34 39  0  0  1  0  0  0  0  0999 V2000
  158.6870  212.9410  152.5370 C   0  0  0  0  0  2  0  0  0  0  0  0
  160.7610  212.7300  151.0320 C   0  0  0  0  0  3  0  0  0  0  0  0
  157.6590  214.3080  155.9630 C   0  0  1  0  0  3  0  0  0  0  0  0
  159.0710  214.4520  156.5900 C   0  0  0  0  0  2  0  0  0  0  0  0
  159.6030  213.1680  157.2320 C   0  0  0  0  0  2  0  0  0  0  0  0
  157.5020  213.4250  154.6980 C   0  0  2  0  0  3  0  0  0  0  0  0
  160.9030  211.2720  156.1990 C   0  0  0  0  0  2  0  0  0  0  0  0
  157.5930  210.9040  154.1980 C   0  0  0  0  0  2  0  0  0  0  0  0
  160.5470  208.9930  153.8960 C   0  0  2  0  0  3  0  0  0  0  0  0
  159.6730  209.9040  153.0740 C   0  0  1  0  0  3  0  0  0  0  0  0
  158.5460  210.2500  153.6160 C   0  0  0  0  0  2  0  0  0  0  0  0
  160.2630  210.8850  152.1310 C   0  0  0  0  0  0  0  0  0  0  0  0
  158.1240  212.0730  154.9590 C   0  0  1  0  0  3  0  0  0  0  0  0
  160.9000  212.7570  156.5470 C   0  0  0  0  0  2  0  0  0  0  0  0
  161.8310  209.6210  154.4820 C   0  0  0  0  0  2  0  0  0  0  0  0
  158.8490  213.1130  154.0580 C   0  0  1  0  0  3  0  0  0  0  0  0
  161.7160  211.0810  154.9270 C   0  0  0  0  0  2  0  0  0  0  0  0
  161.6620  211.7690  150.7380 N   0  0  0  0  0  0  0  0  0  0  0  0
  161.3700  210.6600  151.4020 N   0  0  0  0  0  0  0  0  0  0  0  0
  159.8550  212.2030  151.9280 C   0  0  1  0  0  3  0  0  0  0  0  0
  161.1940  205.3050  153.3190 C   0  0  0  0  0  3  0  0  0  0  0  0
  161.2960  205.2420  151.9210 C   0  0  0  0  0  0  0  0  0  0  0  0
  160.9270  207.6350  151.7970 C   0  0  0  0  0  3  0  0  0  0  0  0
  161.1660  206.4120  151.1650 C   0  0  0  0  0  3  0  0  0  0  0  0
  160.8230  207.6980  153.1950 C   0  0  0  0  0  0  0  0  0  0  0  0
  160.9530  206.5280  153.9510 C   0  0  0  0  0  3  0  0  0  0  0  0
  161.2340  204.0500  149.7360 C   0  0  0  0  0  1  0  0  0  0  0  0
  161.5600  203.9480  151.2160 C   0  0  0  0  0  3  0  0  0  0  0  0
  160.7780  202.8100  151.8470 C   0  0  0  0  0  1  0  0  0  0  0  0
  156.6770  213.9340  156.9700 N   0  0  0  0  0  2  0  0  0  0  0  0
  154.6650  212.7620  156.8690 O   0  0  0  0  0  0  0  0  0  0  0  0
  155.3950  213.8200  156.2960 C   0  0  1  0  0  3  0  0  0  0  0  0
  153.1490  214.4430  156.5740 O   0  0  0  0  0  1  0  0  0  0  0  0
  154.3010  214.0650  157.2610 C   0  0  1  0  0  3  0  0  0  0  0  0
  1 16  1  0  0  0  0
  2 20  1  0  0  0  0
  3  4  1  0  0  0  0
  3 30  1  1  0  0  0
  4  5  1  0  0  0  0
  6 13  1  0  0  0  0
  6  3  1  0  0  0  0
  7 14  1  0  0  0  0
  8 13  1  0  0  0  0
  9 15  1  0  0  0  0
 10 11  1  0  0  0  0
 10  9  1  0  0  0  0
 11  8  1  0  0  0  0
 12 10  1  0  0  0  0
 14  5  1  0  0  0  0
 15 17  1  0  0  0  0
 16  6  1  0  0  0  0
 16 13  1  0  0  0  0
 17  7  1  0  0  0  0
 18  2  2  0  0  0  0
 18 19  1  0  0  0  0
 19 12  2  0  0  0  0
 20 12  1  0  0  0  0
 20  1  1  0  0  0  0
 21 26  1  0  0  0  0
 22 21  2  0  0  0  0
 23 25  1  0  0  0  0
 24 23  2  0  0  0  0
 24 22  1  0  0  0  0
 25  9  1  0  0  0  0
 25 26  2  0  0  0  0
 27 28  1  0  0  0  0
 28 29  1  0  0  0  0
 28 22  1  0  0  0  0
 31 34  1  0  0  0  0
 32 31  1  0  0  0  0
 32 30  1  0  0  0  0
 32 34  1  0  0  0  0
 33 34  1  0  0  0  0
M  END
>  <MODEL>
1

>  <REMARK>
 VINA RESULT:      -5.1      0.000      0.000
  Name = 
  4 active torsions:
  status: ('A' for Active; 'I' for Inactive)
    1  A    between atoms: C_4  and  N_25
    2  A    between atoms: C_9  and  C_10
    3  A    between atoms: C_13  and  N_25
    4  A    between atoms: C_15  and  C_24
                            x       y       z     vdW  Elec       q    Type
                         _______ _______ _______ _____ _____    ______ ____

>  <TORSDO>
F 4

$$$$
=
 OpenBabel11072413133D

 34 39  0  0  1  0  0  0  0  0999 V2000
  162.4250  211.6380  139.1440 C   0  0  0  0  0  2  0  0  0  0  0  0
  163.7390  213.6960  139.9480 C   0  0  0  0  0  3  0  0  0  0  0  0
  159.3330  210.7410  137.0720 C   0  0  1  0  0  3  0  0  0  0  0  0
  158.6460  212.1320  137.0640 C   0  0  0  0  0  2  0  0  0  0  0  0
  157.7760  212.4050  138.2940 C   0  0  0  0  0  2  0  0  0  0  0  0
  160.4500  210.4780  138.1140 C   0  0  2  0  0  3  0  0  0  0  0  0
  158.4090  213.3870  140.5270 C   0  0  0  0  0  2  0  0  0  0  0  0
  160.5400  210.1400  140.6620 C   0  0  0  0  0  2  0  0  0  0  0  0
  160.3420  212.7190  143.0660 C   0  0  2  0  0  3  0  0  0  0  0  0
  161.3530  212.0510  142.1710 C   0  0  1  0  0  3  0  0  0  0  0  0
  160.9470  210.9840  141.5550 C   0  0  0  0  0  2  0  0  0  0  0  0
  162.3990  212.8390  141.4740 C   0  0  0  0  0  0  0  0  0  0  0  0
  159.9400  210.8410  139.4890 C   0  0  1  0  0  3  0  0  0  0  0  0
  158.3010  213.6340  139.0260 C   0  0  0  0  0  2  0  0  0  0  0  0
  159.7800  214.0720  142.5740 C   0  0  0  0  0  2  0  0  0  0  0  0
  160.9440  211.7700  138.7500 C   0  0  1  0  0  3  0  0  0  0  0  0
  159.5800  214.2000  141.0610 C   0  0  0  0  0  2  0  0  0  0  0  0
  163.8190  214.4230  141.0820 N   0  0  0  0  0  2  0  0  0  0  0  0
  163.0090  213.9150  142.0000 N   0  0  0  0  0  0  0  0  0  0  0  0
  162.8320  212.6790  140.1590 C   0  0  0  0  0  0  0  0  0  0  0  0
  160.3740  212.4000  146.8400 C   0  0  0  0  0  3  0  0  0  0  0  0
  161.6630  212.8570  147.1610 C   0  0  0  0  0  0  0  0  0  0  0  0
  162.0970  213.2470  144.8080 C   0  0  0  0  0  3  0  0  0  0  0  0
  162.5190  213.2840  146.1390 C   0  0  0  0  0  3  0  0  0  0  0  0
  160.8100  212.7880  144.4870 C   0  0  0  0  0  0  0  0  0  0  0  0
  159.9540  212.3620  145.5080 C   0  0  0  0  0  3  0  0  0  0  0  0
  162.2670  211.5270  149.1760 C   0  0  0  0  0  1  0  0  0  0  0  0
  162.1390  212.9170  148.5790 C   0  0  0  0  0  3  0  0  0  0  0  0
  161.2150  213.7700  149.4310 C   0  0  0  0  0  1  0  0  0  0  0  0
  158.3460  209.6720  137.1020 N   0  0  0  0  0  2  0  0  0  0  0  0
  156.0220  209.5250  137.0190 O   0  0  0  0  0  0  0  0  0  0  0  0
  157.0960  210.2560  137.5580 C   0  0  1  0  0  3  0  0  0  0  0  0
  155.4400  209.9280  139.1890 O   0  0  0  0  0  1  0  0  0  0  0  0
  156.3470  209.2670  138.3640 C   0  0  1  0  0  3  0  0  0  0  0  0
  1 20  1  0  0  0  0
  2 20  2  0  0  0  0
  2 18  1  0  0  0  0
  3 30  1  1  0  0  0
  3  6  1  0  0  0  0
  4  3  1  0  0  0  0
  4  5  1  0  0  0  0
  5 14  1  0  0  0  0
  6 16  1  0  0  0  0
  6 13  1  0  0  0  0
  7 17  1  0  0  0  0
  8 11  1  0  0  0  0
  9 25  1  0  0  0  0
 10  9  1  0  0  0  0
 11 10  1  0  0  0  0
 12 19  2  0  0  0  0
 12 10  1  0  0  0  0
 13  8  1  0  0  0  0
 14  7  1  0  0  0  0
 15  9  1  0  0  0  0
 16  1  1  0  0  0  0
 16 13  1  0  0  0  0
 17 15  1  0  0  0  0
 18 19  1  0  0  0  0
 20 12  1  0  0  0  0
 21 22  1  0  0  0  0
 22 28  1  0  0  0  0
 23 24  1  0  0  0  0
 24 22  2  0  0  0  0
 25 23  2  0  0  0  0
 25 26  1  0  0  0  0
 26 21  2  0  0  0  0
 28 27  1  0  0  0  0
 28 29  1  0  0  0  0
 30 32  1  0  0  0  0
 31 32  1  0  0  0  0
 31 34  1  0  0  0  0
 32 34  1  0  0  0  0
 34 33  1  0  0  0  0
M  END
>  <MODEL>
2

>  <REMARK>
 VINA RESULT:      -3.7     10.868     14.305
  Name = 
  4 active torsions:
  status: ('A' for Active; 'I' for Inactive)
    1  A    between atoms: C_4  and  N_25
    2  A    between atoms: C_9  and  C_10
    3  A    between atoms: C_13  and  N_25
    4  A    between atoms: C_15  and  C_24
                            x       y       z     vdW  Elec       q    Type
                         _______ _______ _______ _____ _____    ______ ____

>  <TORSDO>
F 4

$$$$
=
 OpenBabel11072413133D

 34 39  0  0  1  0  0  0  0  0999 V2000
  159.3090  212.5750  152.2960 C   0  0  0  0  0  2  0  0  0  0  0  0
  161.3220  212.1320  150.7590 C   0  0  0  0  0  3  0  0  0  0  0  0
  158.5000  214.0100  155.7520 C   0  0  1  0  0  3  0  0  0  0  0  0
  159.9260  213.9710  156.3610 C   0  0  0  0  0  2  0  0  0  0  0  0
  160.3050  212.6230  156.9800 C   0  0  0  0  0  2  0  0  0  0  0  0
  158.2200  213.1700  154.4790 C   0  0  2  0  0  3  0  0  0  0  0  0
  161.3490  210.5960  155.9060 C   0  0  0  0  0  2  0  0  0  0  0  0
  157.9940  210.6650  153.9460 C   0  0  0  0  0  2  0  0  0  0  0  0
  160.6870  208.4100  153.5800 C   0  0  2  0  0  3  0  0  0  0  0  0
  159.9220  209.4330  152.7820 C   0  0  1  0  0  3  0  0  0  0  0  0
  158.8530  209.9060  153.3440 C   0  0  0  0  0  2  0  0  0  0  0  0
  160.6150  210.3470  151.8420 C   0  0  0  0  0  0  0  0  0  0  0  0
  158.6740  211.7480  154.7140 C   0  0  1  0  0  3  0  0  0  0  0  0
  161.5330  212.0650  156.2710 C   0  0  0  0  0  2  0  0  0  0  0  0
  162.0450  208.8670  154.1550 C   0  0  0  0  0  2  0  0  0  0  0  0
  159.5100  212.7050  153.8160 C   0  0  1  0  0  3  0  0  0  0  0  0
  162.1170  210.3250  154.6200 C   0  0  0  0  0  2  0  0  0  0  0  0
  162.0950  211.0720  150.4400 N   0  0  0  0  0  0  0  0  0  0  0  0
  161.6770  209.9980  151.0950 N   0  0  0  0  0  0  0  0  0  0  0  0
  160.3700  211.7070  151.6620 C   0  0  1  0  0  3  0  0  0  0  0  0
  161.0860  204.6960  152.9510 C   0  0  0  0  0  3  0  0  0  0  0  0
  160.9530  204.6200  151.5550 C   0  0  0  0  0  0  0  0  0  0  0  0
  160.6630  207.0250  151.4640 C   0  0  0  0  0  3  0  0  0  0  0  0
  160.7460  205.7900  150.8160 C   0  0  0  0  0  3  0  0  0  0  0  0
  160.7930  207.1010  152.8600 C   0  0  0  0  0  0  0  0  0  0  0  0
  161.0000  205.9310  153.5990 C   0  0  0  0  0  3  0  0  0  0  0  0
  162.1130  202.4210  151.4430 C   0  0  0  0  0  1  0  0  0  0  0  0
  161.0470  203.3130  150.8330 C   0  0  0  0  0  3  0  0  0  0  0  0
  161.3250  203.5220  149.3540 C   0  0  0  0  0  1  0  0  0  0  0  0
  157.4920  213.7450  156.7680 N   0  0  0  0  0  2  0  0  0  0  0  0
  155.4950  213.2730  155.6620 O   0  0  0  0  0  0  0  0  0  0  0  0
  156.2390  214.2960  156.2810 C   0  0  1  0  0  3  0  0  0  0  0  0
  153.9780  214.4520  156.8930 O   0  0  0  0  0  1  0  0  0  0  0  0
  155.1050  213.6360  156.9650 C   0  0  1  0  0  3  0  0  0  0  0  0
  1 16  1  0  0  0  0
  2 20  1  0  0  0  0
  3  4  1  0  0  0  0
  3 30  1  1  0  0  0
  4  5  1  0  0  0  0
  6 13  1  0  0  0  0
  6  3  1  0  0  0  0
  7 14  1  0  0  0  0
  8 13  1  0  0  0  0
  9 15  1  0  0  0  0
 10 11  1  0  0  0  0
 10  9  1  0  0  0  0
 11  8  1  0  0  0  0
 12 10  1  0  0  0  0
 14  5  1  0  0  0  0
 15 17  1  0  0  0  0
 16  6  1  0  0  0  0
 16 13  1  0  0  0  0
 17  7  1  0  0  0  0
 18  2  2  0  0  0  0
 18 19  1  0  0  0  0
 19 12  2  0  0  0  0
 20 12  1  0  0  0  0
 20  1  1  0  0  0  0
 21 26  1  0  0  0  0
 22 21  2  0  0  0  0
 23 25  1  0  0  0  0
 24 23  2  0  0  0  0
 24 22  1  0  0  0  0
 25  9  1  0  0  0  0
 25 26  2  0  0  0  0
 28 27  1  0  0  0  0
 28 22  1  0  0  0  0
 29 28  1  0  0  0  0
 31 32  1  0  0  0  0
 31 34  1  0  0  0  0
 32 30  1  0  0  0  0
 32 34  1  0  0  0  0
 33 34  1  0  0  0  0
M  END
>  <MODEL>
3

>  <REMARK>
 VINA RESULT:      -3.3      0.848      1.032
  Name = 
  4 active torsions:
  status: ('A' for Active; 'I' for Inactive)
    1  A    between atoms: C_4  and  N_25
    2  A    between atoms: C_9  and  C_10
    3  A    between atoms: C_13  and  N_25
    4  A    between atoms: C_15  and  C_24
                            x       y       z     vdW  Elec       q    Type
                         _______ _______ _______ _____ _____    ______ ____

>  <TORSDO>
F 4

$$$$
