=
 OpenBabel11072412453D

 55 59  0  0  1  0  0  0  0  0999 V2000
  160.4320  213.0850  151.8290 C   0  0  0  0  0  2  0  0  0  0  0  0
  159.1650  212.4670  152.4240 C   0  0  2  0  0  3  0  0  0  0  0  0
  162.0860  206.6140  150.2420 C   0  0  0  0  0  2  0  0  0  0  0  0
  160.5480  211.3230  156.0270 C   0  0  2  0  0  3  0  0  0  0  0  0
  159.2280  212.1380  153.9220 C   0  0  2  0  0  0  0  0  0  0  0  0
  159.8490  205.0420  152.6530 O   0  0  0  0  0  0  0  0  0  0  0  0
  160.5960  207.3060  152.6020 C   0  0  0  0  0  0  0  0  0  0  0  0
  159.8330  209.9800  155.7510 C   0  0  1  0  0  3  0  0  0  0  0  0
  160.4560  212.3940  154.8710 C   0  0  2  0  0  0  0  0  0  0  0  0
  161.1940  208.2630  154.8470 C   0  0  2  0  0  3  0  0  0  0  0  0
  161.1040  208.2790  151.8300 C   0  0  0  0  0  3  0  0  0  0  0  0
  164.1380  211.6080  155.5890 F   0  0  0  0  0  0  0  0  0  0  0  0
  159.4010  211.0290  152.8870 C   0  0  1  0  0  3  0  0  0  0  0  0
  162.5690  209.0370  149.9440 C   0  0  0  0  0  2  0  0  0  0  0  0
  161.9910  211.1890  156.5350 C   0  0  0  0  0  2  0  0  0  0  0  0
  160.1180  207.5980  153.9930 C   0  0  0  0  0  2  0  0  0  0  0  0
  162.2820  207.2620  155.1880 C   0  0  0  0  0  1  0  0  0  0  0  0
  158.1330  210.2220  152.6560 C   0  0  0  0  0  1  0  0  0  0  0  0
  161.6780  212.5120  154.1410 O   0  0  0  0  0  0  0  0  0  0  0  0
  161.9390  210.3720  149.5540 C   0  0  1  0  0  3  0  0  0  0  0  0
  160.6300  208.7970  156.0800 N   0  0  0  0  0  2  0  0  0  0  0  0
  162.9650  210.9020  155.3910 C   0  0  1  0  0  3  0  0  0  0  0  0
  162.3530  211.2750  154.0410 C   0  0  0  0  0  2  0  0  0  0  0  0
  161.1700  205.6370  150.8230 N   0  0  0  0  0  2  0  0  0  0  0  0
  161.6990  211.2060  150.8010 C   0  0  0  0  0  2  0  0  0  0  0  0
  157.9680  212.1780  154.5300 O   0  0  0  0  0  1  0  0  0  0  0  0
  160.5050  205.9390  152.0560 C   0  0  0  0  0  0  0  0  0  0  0  0
  160.8180  212.4110  150.5170 C   0  0  0  0  0  2  0  0  0  0  0  0
  161.5200  208.0260  150.3980 C   0  0  1  0  0  3  0  0  0  0  0  0
  158.9110  214.0840  155.7440 F   0  0  0  0  0  0  0  0  0  0  0  0
  160.2610  213.7740  155.5430 C   0  0  0  0  0  3  0  0  0  0  0  0
  160.9700  213.9050  156.7450 F   0  0  0  0  0  0  0  0  0  0  0  0
  157.6360  210.9150  156.3380 C   0  0  0  0  0  3  0  0  0  0  0  0
  158.5400  209.9490  156.4960 C   0  0  0  0  0  3  0  0  0  0  0  0
  156.3570  210.8750  157.1160 C   0  0  1  0  0  3  0  0  0  0  0  0
  154.5630  212.4750  157.2080 O   0  0  0  0  0  0  0  0  0  0  0  0
  155.8080  212.2660  157.2160 C   0  0  0  0  0  0  0  0  0  0  0  0
  156.6880  213.3460  157.2580 O   0  0  0  0  0  1  0  0  0  0  0  0
  155.3230  209.9000  156.5180 C   0  0  1  0  0  3  0  0  0  0  0  0
  154.0750  210.0930  157.1230 O   0  0  0  0  0  1  0  0  0  0  0  0
  155.1820  210.1110  155.0040 C   0  0  1  0  0  3  0  0  0  0  0  0
  154.3470  209.1340  154.4360 O   0  0  0  0  0  1  0  0  0  0  0  0
  155.1920  212.0270  153.4210 C   0  0  0  0  0  1  0  0  0  0  0  0
  154.6050  211.4900  154.7130 C   0  0  0  0  0  2  0  0  0  0  0  0
  162.8820  211.1250  148.6210 C   0  0  0  0  0  2  0  0  0  0  0  0
  162.4650  212.6470  145.9370 C   0  0  2  0  0  3  0  0  0  0  0  0
  160.7650  211.3210  147.0120 O   0  0  0  0  0  1  0  0  0  0  0  0
  162.3790  212.4700  148.3440 N   0  0  0  0  0  0  0  0  0  0  0  0
  161.5520  212.4740  147.1330 C   0  0  1  0  0  3  0  0  0  0  0  0
  163.5360  213.2960  148.0030 C   0  0  0  0  0  2  0  0  0  0  0  0
  163.7200  213.2810  146.4900 C   0  0  0  0  0  2  0  0  0  0  0  0
  161.8230  213.4980  144.8330 C   0  0  0  0  0  2  0  0  0  0  0  0
  162.3990  213.2400  143.4440 C   0  0  0  0  0  2  0  0  0  0  0  0
  162.5850  214.2090  141.4720 C   0  0  0  0  0  1  0  0  0  0  0  0
  161.6670  213.9370  142.4840 O   0  0  0  0  0  0  0  0  0  0  0  0
  2  1  1  6  0  0  0
  2 13  1  0  0  0  0
  2  5  1  0  0  0  0
  3 29  1  0  0  0  0
  3 24  1  0  0  0  0
  4 15  1  6  0  0  0
  5 26  1  1  0  0  0
  5  9  1  0  0  0  0
  7 16  1  0  0  0  0
  8  4  1  0  0  0  0
  8 21  1  0  0  0  0
  8 34  1  1  0  0  0
  9 31  1  1  0  0  0
  9  4  1  0  0  0  0
 10 17  1  1  0  0  0
 10 21  1  0  0  0  0
 11  7  2  0  0  0  0
 13 18  1  1  0  0  0
 13  5  1  0  0  0  0
 16 10  1  0  0  0  0
 19  9  1  0  0  0  0
 20 45  1  6  0  0  0
 20 14  1  0  0  0  0
 20 25  1  0  0  0  0
 22 12  1  1  0  0  0
 22 15  1  0  0  0  0
 23 19  1  0  0  0  0
 23 22  1  0  0  0  0
 24 27  1  0  0  0  0
 27  7  1  0  0  0  0
 27  6  2  0  0  0  0
 28 25  1  0  0  0  0
 28  1  1  0  0  0  0
 29 14  1  1  0  0  0
 29 11  1  0  0  0  0
 31 30  1  0  0  0  0
 31 32  1  0  0  0  0
 33 34  2  0  0  0  0
 35 33  1  6  0  0  0
 35 37  1  0  0  0  0
 36 37  2  0  0  0  0
 37 38  1  0  0  0  0
 39 35  1  0  0  0  0
 39 40  1  1  0  0  0
 41 42  1  1  0  0  0
 41 39  1  0  0  0  0
 43 44  1  0  0  0  0
 44 41  1  0  0  0  0
 46 52  1  6  0  0  0
 46 51  1  0  0  0  0
 46 49  1  0  0  0  0
 48 45  1  0  0  0  0
 49 47  1  6  0  0  0
 49 48  1  0  0  0  0
 50 48  1  0  0  0  0
 51 50  1  0  0  0  0
 53 52  1  0  0  0  0
 54 55  1  0  0  0  0
 55 53  1  0  0  0  0
M  END
>  <MODEL>
1

>  <REMARK>
 VINA RESULT:      10.0      0.000      0.000
  Name = 
  12 active torsions:
  status: ('A' for Active; 'I' for Inactive)
    1  A    between atoms: C_1  and  C_10
    2  A    between atoms: C_10  and  C_44
    3  A    between atoms: C_11  and  C_15
    4  A    between atoms: C_11  and  C_16
    5  A    between atoms: N_12  and  C_14
    6  A    between atoms: C_13  and  C_24
    7  A    between atoms: C_14  and  C_40
    8  A    between atoms: C_16  and  C_27
    9  A    between atoms: C_19  and  C_27
   10  A    between atoms: O_20  and  C_44
   11  A    between atoms: C_23  and  C_35
   12  A    between atoms: C_27  and  C_28
                            x       y       z     vdW  Elec       q    Type
                         _______ _______ _______ _____ _____    ______ ____

>  <TORSDO>
F 12

$$$$
=
 OpenBabel11072412453D

 55 59  0  0  1  0  0  0  0  0999 V2000
  160.8940  212.1970  151.9830 C   0  0  0  0  0  2  0  0  0  0  0  0
  159.5150  211.8640  152.5540 C   0  0  2  0  0  3  0  0  0  0  0  0
  161.9320  205.4150  152.2130 C   0  0  0  0  0  2  0  0  0  0  0  0
  160.4130  211.5480  156.4650 C   0  0  2  0  0  3  0  0  0  0  0  0
  159.3990  211.9200  154.0840 C   0  0  2  0  0  0  0  0  0  0  0  0
  159.3130  204.7070  154.6470 O   0  0  0  0  0  0  0  0  0  0  0  0
  160.3170  206.8090  154.1410 C   0  0  0  0  0  0  0  0  0  0  0  0
  159.5760  210.2480  156.4380 C   0  0  1  0  0  3  0  0  0  0  0  0
  160.5530  212.2970  155.0820 C   0  0  2  0  0  0  0  0  0  0  0  0
  160.8090  208.2450  156.1440 C   0  0  2  0  0  3  0  0  0  0  0  0
  161.0040  207.5070  153.2240 C   0  0  0  0  0  3  0  0  0  0  0  0
  164.0360  211.3940  156.4030 F   0  0  0  0  0  0  0  0  0  0  0  0
  159.5380  210.5750  153.3740 C   0  0  1  0  0  3  0  0  0  0  0  0
  162.7170  207.6320  151.3990 C   0  0  0  0  0  2  0  0  0  0  0  0
  161.7760  211.4200  157.1590 C   0  0  0  0  0  2  0  0  0  0  0  0
  159.7480  207.4840  155.3530 C   0  0  0  0  0  2  0  0  0  0  0  0
  161.7370  207.2700  156.8440 C   0  0  0  0  0  1  0  0  0  0  0  0
  158.2130  209.8510  153.1950 C   0  0  0  0  0  1  0  0  0  0  0  0
  161.8440  212.1180  154.4960 O   0  0  0  0  0  0  0  0  0  0  0  0
  162.2850  208.8760  150.6260 C   0  0  1  0  0  3  0  0  0  0  0  0
  160.1970  209.1210  157.1350 N   0  0  0  0  0  2  0  0  0  0  0  0
  162.8140  210.7680  156.2420 C   0  0  1  0  0  3  0  0  0  0  0  0
  162.3770  210.8420  154.7800 C   0  0  0  0  0  2  0  0  0  0  0  0
  160.8590  204.7020  152.8980 N   0  0  0  0  0  2  0  0  0  0  0  0
  162.0260  210.0150  151.5980 C   0  0  0  0  0  2  0  0  0  0  0  0
  158.1000  212.2240  154.5090 O   0  0  0  0  0  1  0  0  0  0  0  0
  160.1200  205.3630  153.9340 C   0  0  0  0  0  0  0  0  0  0  0  0
  161.3210  211.1830  150.9280 C   0  0  0  0  0  2  0  0  0  0  0  0
  161.5210  206.8650  151.9550 C   0  0  1  0  0  3  0  0  0  0  0  0
  159.5070  214.4530  154.5680 F   0  0  0  0  0  0  0  0  0  0  0  0
  160.4560  213.8130  155.3730 C   0  0  0  0  0  3  0  0  0  0  0  0
  160.2140  214.0990  156.7240 F   0  0  0  0  0  0  0  0  0  0  0  0
  157.5360  211.6040  156.6490 C   0  0  0  0  0  3  0  0  0  0  0  0
  158.2240  210.5210  157.0080 C   0  0  0  0  0  3  0  0  0  0  0  0
  156.1920  211.8690  157.2550 C   0  0  1  0  0  3  0  0  0  0  0  0
  154.5880  213.6570  157.1260 O   0  0  0  0  0  1  0  0  0  0  0  0
  155.7620  213.2580  156.8890 C   0  0  0  0  0  0  0  0  0  0  0  0
  156.6550  214.0960  156.2260 O   0  0  0  0  0  0  0  0  0  0  0  0
  155.1350  210.8230  156.8470 C   0  0  1  0  0  3  0  0  0  0  0  0
  153.8590  211.2560  157.2260 O   0  0  0  0  0  1  0  0  0  0  0  0
  155.1520  210.5900  155.3300 C   0  0  1  0  0  3  0  0  0  0  0  0
  154.3920  209.4580  154.9870 O   0  0  0  0  0  1  0  0  0  0  0  0
  155.4970  212.1580  153.4330 C   0  0  0  0  0  1  0  0  0  0  0  0
  154.5940  211.8040  154.6010 C   0  0  0  0  0  2  0  0  0  0  0  0
  163.3920  209.2820  149.6590 C   0  0  0  0  0  2  0  0  0  0  0  0
  161.2220  207.2960  148.6360 C   0  0  2  0  0  3  0  0  0  0  0  0
  161.0750  209.6900  148.4030 O   0  0  0  0  0  1  0  0  0  0  0  0
  163.2150  208.6320  148.3600 N   0  0  0  0  0  0  0  0  0  0  0  0
  161.7930  208.5520  148.0110 C   0  0  1  0  0  3  0  0  0  0  0  0
  163.6340  207.2410  148.5180 C   0  0  0  0  0  2  0  0  0  0  0  0
  162.4140  206.3990  148.8700 C   0  0  0  0  0  2  0  0  0  0  0  0
  160.1620  206.6330  147.7460 C   0  0  0  0  0  2  0  0  0  0  0  0
  160.7380  205.6460  146.7350 C   0  0  0  0  0  2  0  0  0  0  0  0
  161.0210  205.0940  144.6180 C   0  0  0  0  0  1  0  0  0  0  0  0
  160.4650  206.0750  145.4370 O   0  0  0  0  0  0  0  0  0  0  0  0
  2  1  1  1  0  0  0
  2 13  1  0  0  0  0
  2  5  1  0  0  0  0
  3 24  1  0  0  0  0
  4 15  1  6  0  0  0
  5 26  1  1  0  0  0
  5  9  1  0  0  0  0
  7 16  1  0  0  0  0
  8  4  1  0  0  0  0
  8 34  1  1  0  0  0
  8 21  1  0  0  0  0
  9 31  1  1  0  0  0
  9  4  1  0  0  0  0
 10 17  1  1  0  0  0
 10 21  1  0  0  0  0
 11  7  2  0  0  0  0
 13 18  1  6  0  0  0
 13  5  1  0  0  0  0
 16 10  1  0  0  0  0
 19 23  1  0  0  0  0
 19  9  1  0  0  0  0
 20 45  1  6  0  0  0
 20 14  1  0  0  0  0
 20 25  1  0  0  0  0
 22 12  1  6  0  0  0
 22 15  1  0  0  0  0
 23 22  1  0  0  0  0
 24 27  1  0  0  0  0
 27  7  1  0  0  0  0
 27  6  2  0  0  0  0
 28 25  1  0  0  0  0
 28  1  1  0  0  0  0
 29 14  1  1  0  0  0
 29  3  1  0  0  0  0
 29 11  1  0  0  0  0
 30 31  1  0  0  0  0
 31 32  1  0  0  0  0
 33 34  2  0  0  0  0
 35 33  1  6  0  0  0
 37 36  1  0  0  0  0
 37 35  1  0  0  0  0
 38 37  2  0  0  0  0
 39 40  1  6  0  0  0
 39 35  1  0  0  0  0
 41 42  1  1  0  0  0
 41 39  1  0  0  0  0
 43 44  1  0  0  0  0
 44 41  1  0  0  0  0
 46 52  1  6  0  0  0
 46 51  1  0  0  0  0
 48 50  1  0  0  0  0
 48 45  1  0  0  0  0
 49 48  1  0  0  0  0
 49 47  1  1  0  0  0
 49 46  1  0  0  0  0
 50 51  1  0  0  0  0
 53 52  1  0  0  0  0
 54 55  1  0  0  0  0
 55 53  1  0  0  0  0
M  END
>  <MODEL>
2

>  <REMARK>
 VINA RESULT:      11.5      2.564      3.116
  Name = 
  12 active torsions:
  status: ('A' for Active; 'I' for Inactive)
    1  A    between atoms: C_1  and  C_10
    2  A    between atoms: C_10  and  C_44
    3  A    between atoms: C_11  and  C_15
    4  A    between atoms: C_11  and  C_16
    5  A    between atoms: N_12  and  C_14
    6  A    between atoms: C_13  and  C_24
    7  A    between atoms: C_14  and  C_40
    8  A    between atoms: C_16  and  C_27
    9  A    between atoms: C_19  and  C_27
   10  A    between atoms: O_20  and  C_44
   11  A    between atoms: C_23  and  C_35
   12  A    between atoms: C_27  and  C_28
                            x       y       z     vdW  Elec       q    Type
                         _______ _______ _______ _____ _____    ______ ____

>  <TORSDO>
F 12

$$$$
