=
 OpenBabel11072413183D

 27 28  0  0  1  0  0  0  0  0999 V2000
  161.6810  207.8000  150.3000 C   0  0  0  0  0  0  0  0  0  0  0  0
  162.9360  207.6840  150.2690 O   0  0  0  0  0  0  0  0  0  0  0  0
  161.0230  208.1840  151.5120 N   0  0  0  0  0  2  0  0  0  0  0  0
  161.7420  208.5340  152.7280 C   0  0  2  0  0  3  0  0  0  0  0  0
  160.5530  208.1970  154.7730 C   0  0  0  0  0  0  0  0  0  0  0  0
  160.3550  209.6240  154.5590 C   0  0  0  0  0  0  0  0  0  0  0  0
  161.2950  207.6330  153.8350 C   0  0  0  0  0  3  0  0  0  0  0  0
  159.4800  210.3130  155.2360 N   0  0  0  0  0  0  0  0  0  0  0  0
  161.3410  210.2570  153.2060 S   0  0  0  0  0  0  0  0  0  0  0  0
  158.8770  206.8870  155.8340 O   0  0  0  0  0  0  0  0  0  0  0  0
  160.0120  207.4270  155.9080 C   0  0  0  0  0  0  0  0  0  0  0  0
  160.7500  207.2940  157.0780 O   0  0  0  0  0  1  0  0  0  0  0  0
  157.9340  212.0930  154.3550 C   0  0  0  0  0  1  0  0  0  0  0  0
  159.1640  211.7050  155.0940 C   0  0  0  0  0  0  0  0  0  0  0  0
  159.8960  212.6060  155.5840 O   0  0  0  0  0  0  0  0  0  0  0  0
  160.9440  207.5530  149.1360 O   0  0  0  0  0  0  0  0  0  0  0  0
  160.6520  203.8750  149.1460 N   0  0  0  0  0  2  0  0  0  0  0  0
  162.0360  205.9290  147.7060 C   0  0  0  0  0  2  0  0  0  0  0  0
  160.6930  205.2330  149.6800 C   0  0  0  0  0  2  0  0  0  0  0  0
  161.9930  204.5280  147.0810 C   0  0  1  0  0  3  0  0  0  0  0  0
  160.8020  206.2580  148.5570 C   0  0  1  0  0  0  0  0  0  0  0  0
  159.6480  206.2190  147.7910 F   0  0  0  0  0  0  0  0  0  0  0  0
  161.5360  202.2350  147.7140 N   0  0  0  0  0  2  0  0  0  0  0  0
  161.4340  203.4870  148.0150 C   0  0  0  0  0  0  0  0  0  0  0  0
  161.0360  205.7920  145.1180 N   0  0  0  0  0  1  0  0  0  0  0  0
  161.2950  204.5470  145.7530 C   0  0  0  0  0  0  0  0  0  0  0  0
  160.9060  203.4790  145.2110 O   0  0  0  0  0  0  0  0  0  0  0  0
  1  3  1  0  0  0  0
  2  1  2  0  0  0  0
  4  3  1  6  0  0  0
  4  9  1  0  0  0  0
  4  7  1  0  0  0  0
  5 11  1  0  0  0  0
  6  5  1  0  0  0  0
  6  8  2  0  0  0  0
  7  5  2  0  0  0  0
  9  6  1  0  0  0  0
 10 11  2  0  0  0  0
 11 12  1  0  0  0  0
 13 14  1  0  0  0  0
 14  8  1  0  0  0  0
 14 15  2  0  0  0  0
 16  1  1  0  0  0  0
 17 19  1  0  0  0  0
 18 21  1  0  0  0  0
 20 26  1  6  0  0  0
 20 18  1  0  0  0  0
 20 24  1  0  0  0  0
 21 22  1  6  0  0  0
 21 16  1  0  0  0  0
 21 19  1  0  0  0  0
 23 24  2  0  0  0  0
 24 17  1  0  0  0  0
 25 26  1  0  0  0  0
 27 26  2  0  0  0  0
M  END
>  <MODEL>
1

>  <REMARK>
 VINA RESULT:      -7.2      0.000      0.000
  Name = 
  6 active torsions:
  status: ('A' for Active; 'I' for Inactive)
    1  A    between atoms: C_2  and  O_13
    2  A    between atoms: C_3  and  N_26
    3  A    between atoms: C_4  and  C_15
    4  A    between atoms: C_9  and  C_12
    5  A    between atoms: O_13  and  C_20
    6  A    between atoms: N_17  and  C_18
                            x       y       z     vdW  Elec       q    Type
                         _______ _______ _______ _____ _____    ______ ____

>  <TORSDO>
F 6

$$$$
=
 OpenBabel11072413183D

 27 28  0  0  1  0  0  0  0  0999 V2000
  161.6840  209.7820  151.5520 C   0  0  0  0  0  0  0  0  0  0  0  0
  162.8890  210.1150  151.7160 O   0  0  0  0  0  0  0  0  0  0  0  0
  161.3570  208.6070  150.8010 N   0  0  0  0  0  2  0  0  0  0  0  0
  162.3640  207.7040  150.2640 C   0  0  2  0  0  3  0  0  0  0  0  0
  161.6650  206.3350  148.4350 C   0  0  0  0  0  0  0  0  0  0  0  0
  161.5270  205.4110  149.5520 C   0  0  0  0  0  0  0  0  0  0  0  0
  162.1230  207.5200  148.8000 C   0  0  0  0  0  3  0  0  0  0  0  0
  160.8870  204.2810  149.4440 N   0  0  0  0  0  0  0  0  0  0  0  0
  162.2130  206.0650  151.0710 S   0  0  0  0  0  0  0  0  0  0  0  0
  160.3730  206.5670  146.4520 O   0  0  0  0  0  1  0  0  0  0  0  0
  161.3480  206.0190  147.0300 C   0  0  0  0  0  0  0  0  0  0  0  0
  162.1250  205.1040  146.3280 O   0  0  0  0  0  0  0  0  0  0  0  0
  160.7350  201.8650  150.1310 C   0  0  0  0  0  1  0  0  0  0  0  0
  160.6490  203.3090  150.4720 C   0  0  0  0  0  0  0  0  0  0  0  0
  160.3780  203.6460  151.6550 O   0  0  0  0  0  0  0  0  0  0  0  0
  160.6750  210.5730  152.1140 O   0  0  0  0  0  0  0  0  0  0  0  0
  158.4080  211.1040  154.9760 N   0  0  0  0  0  2  0  0  0  0  0  0
  161.2190  211.0950  154.4170 C   0  0  0  0  0  2  0  0  0  0  0  0
  158.8730  211.1270  153.5930 C   0  0  0  0  0  2  0  0  0  0  0  0
  160.7870  211.0340  155.8890 C   0  0  1  0  0  3  0  0  0  0  0  0
  160.2220  210.4300  153.4580 C   0  0  1  0  0  0  0  0  0  0  0  0
  160.0720  209.0850  153.7540 F   0  0  0  0  0  0  0  0  0  0  0  0
  158.8350  211.4550  157.2610 N   0  0  0  0  0  2  0  0  0  0  0  0
  159.3090  211.2620  156.0750 C   0  0  0  0  0  0  0  0  0  0  0  0
  162.6170  209.6680  156.9610 N   0  0  0  0  0  1  0  0  0  0  0  0
  161.2620  209.7710  156.5420 C   0  0  0  0  0  0  0  0  0  0  0  0
  160.4880  208.7900  156.6960 O   0  0  0  0  0  0  0  0  0  0  0  0
  1  2  2  0  0  0  0
  1 16  1  0  0  0  0
  3  1  1  0  0  0  0
  4  3  1  1  0  0  0
  4  9  1  0  0  0  0
  5  7  2  0  0  0  0
  5  6  1  0  0  0  0
  6  9  1  0  0  0  0
  7  4  1  0  0  0  0
  8  6  2  0  0  0  0
  8 14  1  0  0  0  0
 10 11  1  0  0  0  0
 11  5  1  0  0  0  0
 12 11  2  0  0  0  0
 13 14  1  0  0  0  0
 14 15  2  0  0  0  0
 16 21  1  0  0  0  0
 17 24  1  0  0  0  0
 18 20  1  0  0  0  0
 19 17  1  0  0  0  0
 20 24  1  0  0  0  0
 20 26  1  6  0  0  0
 21 19  1  0  0  0  0
 21 22  1  1  0  0  0
 21 18  1  0  0  0  0
 24 23  2  0  0  0  0
 26 27  2  0  0  0  0
 26 25  1  0  0  0  0
M  END
>  <MODEL>
2

>  <REMARK>
 VINA RESULT:      -6.6      2.669      8.744
  Name = 
  6 active torsions:
  status: ('A' for Active; 'I' for Inactive)
    1  A    between atoms: C_2  and  O_13
    2  A    between atoms: C_3  and  N_26
    3  A    between atoms: C_4  and  C_15
    4  A    between atoms: C_9  and  C_12
    5  A    between atoms: O_13  and  C_20
    6  A    between atoms: N_17  and  C_18
                            x       y       z     vdW  Elec       q    Type
                         _______ _______ _______ _____ _____    ______ ____

>  <TORSDO>
F 6

$$$$
=
 OpenBabel11072413183D

 27 28  0  0  1  0  0  0  0  0999 V2000
  161.7650  209.5240  150.9310 C   0  0  0  0  0  0  0  0  0  0  0  0
  162.9290  210.0080  150.9580 O   0  0  0  0  0  0  0  0  0  0  0  0
  160.8540  209.7790  152.0060 N   0  0  0  0  0  2  0  0  0  0  0  0
  161.1730  210.6520  153.1260 C   0  0  2  0  0  3  0  0  0  0  0  0
  160.7040  209.7740  155.2980 C   0  0  0  0  0  0  0  0  0  0  0  0
  159.5320  210.6080  155.0670 C   0  0  0  0  0  0  0  0  0  0  0  0
  161.5700  209.8150  154.3000 C   0  0  0  0  0  3  0  0  0  0  0  0
  158.4690  210.5340  155.8170 N   0  0  0  0  0  0  0  0  0  0  0  0
  159.6880  211.6170  153.5970 S   0  0  0  0  0  0  0  0  0  0  0  0
  160.1060  208.0990  156.8760 O   0  0  0  0  0  0  0  0  0  0  0  0
  160.9430  208.9640  156.5070 C   0  0  0  0  0  0  0  0  0  0  0  0
  162.0990  209.1520  157.2560 O   0  0  0  0  0  1  0  0  0  0  0  0
  157.0590  212.5200  156.4500 C   0  0  0  0  0  1  0  0  0  0  0  0
  157.2440  211.2670  155.6720 C   0  0  0  0  0  0  0  0  0  0  0  0
  156.3280  210.8830  154.8980 O   0  0  0  0  0  0  0  0  0  0  0  0
  161.3770  208.7400  149.8390 O   0  0  0  0  0  0  0  0  0  0  0  0
  161.9480  205.5260  148.1210 N   0  0  0  0  0  2  0  0  0  0  0  0
  160.4240  206.5630  150.3140 C   0  0  0  0  0  2  0  0  0  0  0  0
  161.7990  206.9680  148.2810 C   0  0  0  0  0  2  0  0  0  0  0  0
  160.5790  205.0400  150.2150 C   0  0  1  0  0  3  0  0  0  0  0  0
  161.6230  207.3390  149.7500 C   0  0  1  0  0  0  0  0  0  0  0  0
  162.7830  207.0290  150.4400 F   0  0  0  0  0  0  0  0  0  0  0  0
  161.2040  203.3480  148.5970 N   0  0  0  0  0  2  0  0  0  0  0  0
  161.2080  204.5990  148.9170 C   0  0  0  0  0  0  0  0  0  0  0  0
  161.2350  205.1960  152.6460 N   0  0  0  0  0  1  0  0  0  0  0  0
  161.2870  204.4860  151.4160 C   0  0  0  0  0  0  0  0  0  0  0  0
  161.9510  203.4190  151.3410 O   0  0  0  0  0  0  0  0  0  0  0  0
  1  2  2  0  0  0  0
  1  3  1  0  0  0  0
  4  3  1  6  0  0  0
  4  9  1  0  0  0  0
  4  7  1  0  0  0  0
  5 11  1  0  0  0  0
  6  5  1  0  0  0  0
  6  8  2  0  0  0  0
  7  5  2  0  0  0  0
  9  6  1  0  0  0  0
 11 10  2  0  0  0  0
 11 12  1  0  0  0  0
 14  8  1  0  0  0  0
 14 13  1  0  0  0  0
 15 14  2  0  0  0  0
 16  1  1  0  0  0  0
 17 19  1  0  0  0  0
 17 24  1  0  0  0  0
 19 21  1  0  0  0  0
 20 18  1  0  0  0  0
 20 26  1  1  0  0  0
 21 16  1  0  0  0  0
 21 18  1  0  0  0  0
 21 22  1  1  0  0  0
 23 24  2  0  0  0  0
 24 20  1  0  0  0  0
 26 25  1  0  0  0  0
 27 26  2  0  0  0  0
M  END
>  <MODEL>
3

>  <REMARK>
 VINA RESULT:      -6.4      2.323      3.103
  Name = 
  6 active torsions:
  status: ('A' for Active; 'I' for Inactive)
    1  A    between atoms: C_2  and  O_13
    2  A    between atoms: C_3  and  N_26
    3  A    between atoms: C_4  and  C_15
    4  A    between atoms: C_9  and  C_12
    5  A    between atoms: O_13  and  C_20
    6  A    between atoms: N_17  and  C_18
                            x       y       z     vdW  Elec       q    Type
                         _______ _______ _______ _____ _____    ______ ____

>  <TORSDO>
F 6

$$$$
=
 OpenBabel11072413183D

 27 28  0  0  1  0  0  0  0  0999 V2000
  161.4220  208.4650  149.9800 C   0  0  0  0  0  0  0  0  0  0  0  0
  162.2980  209.1650  149.4030 O   0  0  0  0  0  0  0  0  0  0  0  0
  161.0550  208.7460  151.3350 N   0  0  0  0  0  2  0  0  0  0  0  0
  161.5910  209.8730  152.0850 C   0  0  2  0  0  3  0  0  0  0  0  0
  161.3290  209.7630  154.4570 C   0  0  0  0  0  0  0  0  0  0  0  0
  160.2150  210.6250  154.0860 C   0  0  0  0  0  0  0  0  0  0  0  0
  162.0600  209.3910  153.4210 C   0  0  0  0  0  3  0  0  0  0  0  0
  159.2540  210.9150  154.9180 N   0  0  0  0  0  0  0  0  0  0  0  0
  160.2690  211.1110  152.3650 S   0  0  0  0  0  0  0  0  0  0  0  0
  162.1010  210.1590  156.6720 O   0  0  0  0  0  1  0  0  0  0  0  0
  161.6490  209.3360  155.8330 C   0  0  0  0  0  0  0  0  0  0  0  0
  161.4590  208.0130  156.2150 O   0  0  0  0  0  0  0  0  0  0  0  0
  158.1890  213.1920  154.7970 C   0  0  0  0  0  1  0  0  0  0  0  0
  158.0900  211.7140  154.6640 C   0  0  0  0  0  0  0  0  0  0  0  0
  156.9920  211.1990  154.3260 O   0  0  0  0  0  0  0  0  0  0  0  0
  160.8160  207.4160  149.2800 O   0  0  0  0  0  0  0  0  0  0  0  0
  161.5470  203.9660  148.1970 N   0  0  0  0  0  2  0  0  0  0  0  0
  160.0750  205.3220  150.2480 C   0  0  0  0  0  2  0  0  0  0  0  0
  161.2890  205.3980  148.0790 C   0  0  0  0  0  2  0  0  0  0  0  0
  160.3490  203.8240  150.4410 C   0  0  1  0  0  3  0  0  0  0  0  0
  161.1710  206.0460  149.4530 C   0  0  1  0  0  0  0  0  0  0  0  0
  162.3910  205.9640  150.1030 F   0  0  0  0  0  0  0  0  0  0  0  0
  161.0140  201.8850  149.1500 N   0  0  0  0  0  2  0  0  0  0  0  0
  160.9340  203.1730  149.2150 C   0  0  0  0  0  0  0  0  0  0  0  0
  161.1970  204.5560  152.7020 N   0  0  0  0  0  1  0  0  0  0  0  0
  161.1680  203.5760  151.6730 C   0  0  0  0  0  0  0  0  0  0  0  0
  161.8560  202.5280  151.7930 O   0  0  0  0  0  0  0  0  0  0  0  0
  1  3  1  0  0  0  0
  2  1  2  0  0  0  0
  4  3  1  6  0  0  0
  4  9  1  0  0  0  0
  4  7  1  0  0  0  0
  5 11  1  0  0  0  0
  6  5  1  0  0  0  0
  6  8  2  0  0  0  0
  7  5  2  0  0  0  0
  9  6  1  0  0  0  0
 11 12  2  0  0  0  0
 11 10  1  0  0  0  0
 14 13  1  0  0  0  0
 14  8  1  0  0  0  0
 15 14  2  0  0  0  0
 16 21  1  0  0  0  0
 16  1  1  0  0  0  0
 17 24  1  0  0  0  0
 18 20  1  0  0  0  0
 19 17  1  0  0  0  0
 19 21  1  0  0  0  0
 20 26  1  1  0  0  0
 21 22  1  1  0  0  0
 21 18  1  0  0  0  0
 23 24  2  0  0  0  0
 24 20  1  0  0  0  0
 26 27  2  0  0  0  0
 26 25  1  0  0  0  0
M  END
>  <MODEL>
4

>  <REMARK>
 VINA RESULT:      -6.3      2.122      3.048
  Name = 
  6 active torsions:
  status: ('A' for Active; 'I' for Inactive)
    1  A    between atoms: C_2  and  O_13
    2  A    between atoms: C_3  and  N_26
    3  A    between atoms: C_4  and  C_15
    4  A    between atoms: C_9  and  C_12
    5  A    between atoms: O_13  and  C_20
    6  A    between atoms: N_17  and  C_18
                            x       y       z     vdW  Elec       q    Type
                         _______ _______ _______ _____ _____    ______ ____

>  <TORSDO>
F 6

$$$$
=
 OpenBabel11072413183D

 27 28  0  0  1  0  0  0  0  0999 V2000
  161.5200  208.0760  149.5250 C   0  0  0  0  0  0  0  0  0  0  0  0
  162.3180  208.6980  148.7720 O   0  0  0  0  0  0  0  0  0  0  0  0
  161.3590  208.4760  150.8900 N   0  0  0  0  0  2  0  0  0  0  0  0
  162.0220  209.6400  151.4590 C   0  0  2  0  0  3  0  0  0  0  0  0
  160.9120  210.6720  153.3060 C   0  0  0  0  0  0  0  0  0  0  0  0
  160.4940  211.5300  152.2060 C   0  0  0  0  0  0  0  0  0  0  0  0
  161.7260  209.7030  152.9240 C   0  0  0  0  0  3  0  0  0  0  0  0
  159.5270  212.3950  152.3280 N   0  0  0  0  0  0  0  0  0  0  0  0
  161.3630  211.1640  150.6840 S   0  0  0  0  0  0  0  0  0  0  0  0
  161.2430  211.4440  155.5310 O   0  0  0  0  0  1  0  0  0  0  0  0
  160.5020  210.8370  154.7130 C   0  0  0  0  0  0  0  0  0  0  0  0
  159.2890  210.3180  155.1530 O   0  0  0  0  0  0  0  0  0  0  0  0
  159.8160  214.4210  150.8630 C   0  0  0  0  0  1  0  0  0  0  0  0
  158.9990  213.2650  151.3160 C   0  0  0  0  0  0  0  0  0  0  0  0
  157.8670  213.0710  150.7980 O   0  0  0  0  0  0  0  0  0  0  0  0
  160.7960  206.9960  149.0080 O   0  0  0  0  0  0  0  0  0  0  0  0
  161.4790  203.4960  148.0590 N   0  0  0  0  0  2  0  0  0  0  0  0
  160.0760  204.9510  150.0910 C   0  0  0  0  0  2  0  0  0  0  0  0
  161.2240  204.9230  147.8850 C   0  0  0  0  0  2  0  0  0  0  0  0
  160.3500  203.4620  150.3430 C   0  0  1  0  0  3  0  0  0  0  0  0
  161.1500  205.6330  149.2320 C   0  0  1  0  0  0  0  0  0  0  0  0
  162.3890  205.5730  149.8480 F   0  0  0  0  0  0  0  0  0  0  0  0
  160.9670  201.4630  149.1210 N   0  0  0  0  0  2  0  0  0  0  0  0
  160.8940  202.7530  149.1300 C   0  0  0  0  0  0  0  0  0  0  0  0
  161.1920  204.2440  152.5890 N   0  0  0  0  0  1  0  0  0  0  0  0
  161.2060  203.2650  151.5590 C   0  0  0  0  0  0  0  0  0  0  0  0
  161.9590  202.2610  151.6650 O   0  0  0  0  0  0  0  0  0  0  0  0
  1  3  1  0  0  0  0
  2  1  2  0  0  0  0
  4  3  1  6  0  0  0
  4  7  1  0  0  0  0
  5 11  1  0  0  0  0
  6  8  2  0  0  0  0
  6  5  1  0  0  0  0
  7  5  2  0  0  0  0
  9  4  1  0  0  0  0
  9  6  1  0  0  0  0
 11 12  2  0  0  0  0
 11 10  1  0  0  0  0
 13 14  1  0  0  0  0
 14  8  1  0  0  0  0
 15 14  2  0  0  0  0
 16 21  1  0  0  0  0
 16  1  1  0  0  0  0
 17 24  1  0  0  0  0
 18 20  1  0  0  0  0
 19 17  1  0  0  0  0
 19 21  1  0  0  0  0
 20 26  1  1  0  0  0
 21 22  1  1  0  0  0
 21 18  1  0  0  0  0
 23 24  2  0  0  0  0
 24 20  1  0  0  0  0
 26 27  2  0  0  0  0
 26 25  1  0  0  0  0
M  END
>  <MODEL>
5

>  <REMARK>
 VINA RESULT:      -6.2      2.649      3.639
  Name = 
  6 active torsions:
  status: ('A' for Active; 'I' for Inactive)
    1  A    between atoms: C_2  and  O_13
    2  A    between atoms: C_3  and  N_26
    3  A    between atoms: C_4  and  C_15
    4  A    between atoms: C_9  and  C_12
    5  A    between atoms: O_13  and  C_20
    6  A    between atoms: N_17  and  C_18
                            x       y       z     vdW  Elec       q    Type
                         _______ _______ _______ _____ _____    ______ ____

>  <TORSDO>
F 6

$$$$
=
 OpenBabel11072413183D

 27 28  0  0  1  0  0  0  0  0999 V2000
  161.3290  208.7880  151.8650 C   0  0  0  0  0  0  0  0  0  0  0  0
  162.5680  209.0200  151.8390 O   0  0  0  0  0  0  0  0  0  0  0  0
  160.4240  209.7650  152.3910 N   0  0  0  0  0  2  0  0  0  0  0  0
  160.8520  211.0820  152.8400 C   0  0  2  0  0  3  0  0  0  0  0  0
  160.0700  211.7520  154.9950 C   0  0  0  0  0  0  0  0  0  0  0  0
  159.1210  212.4300  154.1230 C   0  0  0  0  0  0  0  0  0  0  0  0
  160.9860  211.0700  154.3290 C   0  0  0  0  0  3  0  0  0  0  0  0
  158.0220  212.9640  154.5750 N   0  0  0  0  0  0  0  0  0  0  0  0
  159.5820  212.3260  152.3970 S   0  0  0  0  0  0  0  0  0  0  0  0
  160.2790  212.8820  157.0770 O   0  0  0  0  0  0  0  0  0  0  0  0
  160.0530  211.8030  156.4690 C   0  0  0  0  0  0  0  0  0  0  0  0
  159.7930  210.6520  157.2050 O   0  0  0  0  0  1  0  0  0  0  0  0
  155.5780  213.4640  154.2420 C   0  0  0  0  0  1  0  0  0  0  0  0
  156.9940  213.6220  153.8200 C   0  0  0  0  0  0  0  0  0  0  0  0
  157.2610  214.3340  152.8160 O   0  0  0  0  0  0  0  0  0  0  0  0
  160.8530  207.5670  151.3720 O   0  0  0  0  0  0  0  0  0  0  0  0
  162.6150  207.3230  148.1400 N   0  0  0  0  0  2  0  0  0  0  0  0
  160.3090  206.2190  149.4340 C   0  0  0  0  0  2  0  0  0  0  0  0
  162.1080  207.9350  149.3640 C   0  0  0  0  0  2  0  0  0  0  0  0
  160.8210  205.5140  148.1700 C   0  0  1  0  0  3  0  0  0  0  0  0
  161.4190  206.9000  150.2470 C   0  0  1  0  0  0  0  0  0  0  0  0
  162.3540  205.9750  150.6800 F   0  0  0  0  0  0  0  0  0  0  0  0
  162.2640  205.9410  146.2720 N   0  0  0  0  0  2  0  0  0  0  0  0
  161.8930  206.2960  147.4570 C   0  0  0  0  0  0  0  0  0  0  0  0
  160.8300  203.4960  149.6850 N   0  0  0  0  0  1  0  0  0  0  0  0
  161.2360  204.1030  148.4650 C   0  0  0  0  0  0  0  0  0  0  0  0
  161.9650  203.4610  147.6640 O   0  0  0  0  0  0  0  0  0  0  0  0
  1  3  1  0  0  0  0
  2  1  2  0  0  0  0
  4  3  1  1  0  0  0
  4  7  1  0  0  0  0
  5 11  1  0  0  0  0
  6  8  2  0  0  0  0
  6  5  1  0  0  0  0
  7  5  2  0  0  0  0
  9  4  1  0  0  0  0
  9  6  1  0  0  0  0
 11 10  2  0  0  0  0
 11 12  1  0  0  0  0
 14 13  1  0  0  0  0
 14  8  1  0  0  0  0
 15 14  2  0  0  0  0
 16  1  1  0  0  0  0
 17 19  1  0  0  0  0
 18 21  1  0  0  0  0
 19 21  1  0  0  0  0
 20 26  1  1  0  0  0
 20 18  1  0  0  0  0
 21 22  1  1  0  0  0
 21 16  1  0  0  0  0
 23 24  2  0  0  0  0
 24 17  1  0  0  0  0
 24 20  1  0  0  0  0
 26 25  1  0  0  0  0
 27 26  2  0  0  0  0
M  END
>  <MODEL>
6

>  <REMARK>
 VINA RESULT:      -6.1      2.303      3.350
  Name = 
  6 active torsions:
  status: ('A' for Active; 'I' for Inactive)
    1  A    between atoms: C_2  and  O_13
    2  A    between atoms: C_3  and  N_26
    3  A    between atoms: C_4  and  C_15
    4  A    between atoms: C_9  and  C_12
    5  A    between atoms: O_13  and  C_20
    6  A    between atoms: N_17  and  C_18
                            x       y       z     vdW  Elec       q    Type
                         _______ _______ _______ _____ _____    ______ ____

>  <TORSDO>
F 6

$$$$
=
 OpenBabel11072413183D

 27 28  0  0  1  0  0  0  0  0999 V2000
  160.9080  208.9290  152.2950 C   0  0  0  0  0  0  0  0  0  0  0  0
  162.0110  209.0700  152.8890 O   0  0  0  0  0  0  0  0  0  0  0  0
  160.8270  208.1390  151.1040 N   0  0  0  0  0  2  0  0  0  0  0  0
  161.9600  207.4030  150.5630 C   0  0  2  0  0  3  0  0  0  0  0  0
  161.5780  206.2830  148.4870 C   0  0  0  0  0  0  0  0  0  0  0  0
  161.4070  205.1920  149.4370 C   0  0  0  0  0  0  0  0  0  0  0  0
  161.8900  207.4280  149.0690 C   0  0  0  0  0  3  0  0  0  0  0  0
  160.8850  204.0480  149.0940 N   0  0  0  0  0  0  0  0  0  0  0  0
  161.8720  205.6540  151.1020 S   0  0  0  0  0  0  0  0  0  0  0  0
  160.3090  206.2680  146.4760 O   0  0  0  0  0  1  0  0  0  0  0  0
  161.4380  206.1630  147.0240 C   0  0  0  0  0  0  0  0  0  0  0  0
  162.5560  205.9270  146.2330 O   0  0  0  0  0  0  0  0  0  0  0  0
  160.1360  201.6560  149.3200 C   0  0  0  0  0  1  0  0  0  0  0  0
  160.6290  202.9160  149.9370 C   0  0  0  0  0  0  0  0  0  0  0  0
  160.8190  202.9580  151.1810 O   0  0  0  0  0  0  0  0  0  0  0  0
  159.7670  209.5510  152.8170 O   0  0  0  0  0  0  0  0  0  0  0  0
  160.0850  212.5210  154.9830 N   0  0  0  0  0  2  0  0  0  0  0  0
  158.2510  211.4250  153.0720 C   0  0  0  0  0  2  0  0  0  0  0  0
  160.2230  211.1310  154.5600 C   0  0  0  0  0  2  0  0  0  0  0  0
  158.0820  212.9020  153.4530 C   0  0  1  0  0  3  0  0  0  0  0  0
  159.7060  210.9390  153.1380 C   0  0  1  0  0  0  0  0  0  0  0  0
  160.5070  211.6510  152.2610 F   0  0  0  0  0  0  0  0  0  0  0  0
  158.7620  214.4530  155.1850 N   0  0  0  0  0  2  0  0  0  0  0  0
  158.9520  213.3100  154.6140 C   0  0  0  0  0  0  0  0  0  0  0  0
  157.1280  214.1120  151.4560 N   0  0  0  0  0  1  0  0  0  0  0  0
  158.2560  213.7940  152.2600 C   0  0  0  0  0  0  0  0  0  0  0  0
  159.3910  214.2380  151.9440 O   0  0  0  0  0  0  0  0  0  0  0  0
  1 16  1  0  0  0  0
  1  2  2  0  0  0  0
  3  1  1  0  0  0  0
  4  9  1  0  0  0  0
  4  3  1  1  0  0  0
  5  7  2  0  0  0  0
  5  6  1  0  0  0  0
  6  9  1  0  0  0  0
  7  4  1  0  0  0  0
  8  6  2  0  0  0  0
  8 14  1  0  0  0  0
 10 11  1  0  0  0  0
 11  5  1  0  0  0  0
 12 11  2  0  0  0  0
 13 14  1  0  0  0  0
 14 15  2  0  0  0  0
 16 21  1  0  0  0  0
 18 21  1  0  0  0  0
 18 20  1  0  0  0  0
 19 17  1  0  0  0  0
 20 26  1  6  0  0  0
 20 24  1  0  0  0  0
 21 22  1  6  0  0  0
 21 19  1  0  0  0  0
 24 17  1  0  0  0  0
 24 23  2  0  0  0  0
 25 26  1  0  0  0  0
 27 26  2  0  0  0  0
M  END
>  <MODEL>
7

>  <REMARK>
 VINA RESULT:      -6.1      3.084      8.943
  Name = 
  6 active torsions:
  status: ('A' for Active; 'I' for Inactive)
    1  A    between atoms: C_2  and  O_13
    2  A    between atoms: C_3  and  N_26
    3  A    between atoms: C_4  and  C_15
    4  A    between atoms: C_9  and  C_12
    5  A    between atoms: O_13  and  C_20
    6  A    between atoms: N_17  and  C_18
                            x       y       z     vdW  Elec       q    Type
                         _______ _______ _______ _____ _____    ______ ____

>  <TORSDO>
F 6

$$$$
=
 OpenBabel11072413183D

 27 28  0  0  1  0  0  0  0  0999 V2000
  160.9820  207.4210  153.6830 C   0  0  0  0  0  0  0  0  0  0  0  0
  161.5840  207.3530  154.7890 O   0  0  0  0  0  0  0  0  0  0  0  0
  160.4450  208.6690  153.2310 N   0  0  0  0  0  2  0  0  0  0  0  0
  160.6240  209.9180  153.9560 C   0  0  2  0  0  3  0  0  0  0  0  0
  158.6220  211.1000  154.5040 C   0  0  0  0  0  0  0  0  0  0  0  0
  159.0530  211.8090  153.3080 C   0  0  0  0  0  0  0  0  0  0  0  0
  159.4500  210.1320  154.8570 C   0  0  0  0  0  3  0  0  0  0  0  0
  158.2740  212.6380  152.6720 N   0  0  0  0  0  0  0  0  0  0  0  0
  160.6870  211.3140  152.7700 S   0  0  0  0  0  0  0  0  0  0  0  0
  156.2750  211.0080  154.8800 O   0  0  0  0  0  0  0  0  0  0  0  0
  157.4020  211.4040  155.2770 C   0  0  0  0  0  0  0  0  0  0  0  0
  157.4870  212.1400  156.4530 O   0  0  0  0  0  1  0  0  0  0  0  0
  157.6800  213.1830  150.2880 C   0  0  0  0  0  1  0  0  0  0  0  0
  158.5640  213.3640  151.4690 C   0  0  0  0  0  0  0  0  0  0  0  0
  159.5420  214.1540  151.3900 O   0  0  0  0  0  0  0  0  0  0  0  0
  160.8490  206.2640  152.9060 O   0  0  0  0  0  0  0  0  0  0  0  0
  162.6700  207.3580  149.8890 N   0  0  0  0  0  2  0  0  0  0  0  0
  160.3130  205.8790  150.5740 C   0  0  0  0  0  2  0  0  0  0  0  0
  162.1530  207.4090  151.2530 C   0  0  0  0  0  2  0  0  0  0  0  0
  160.8340  205.7600  149.1350 C   0  0  1  0  0  3  0  0  0  0  0  0
  161.4220  206.1190  151.6080 C   0  0  1  0  0  0  0  0  0  0  0  0
  162.3260  205.0700  151.6180 F   0  0  0  0  0  0  0  0  0  0  0  0
  162.3250  206.9060  147.6090 N   0  0  0  0  0  2  0  0  0  0  0  0
  161.9390  206.7380  148.8300 C   0  0  0  0  0  0  0  0  0  0  0  0
  160.7960  203.2960  149.6740 N   0  0  0  0  0  1  0  0  0  0  0  0
  161.2100  204.3450  148.8090 C   0  0  0  0  0  0  0  0  0  0  0  0
  161.9130  204.0780  147.7990 O   0  0  0  0  0  0  0  0  0  0  0  0
  1  2  2  0  0  0  0
  3  1  1  0  0  0  0
  4  3  1  6  0  0  0
  4  7  1  0  0  0  0
  5  7  2  0  0  0  0
  5 11  1  0  0  0  0
  6  5  1  0  0  0  0
  8  6  2  0  0  0  0
  9  6  1  0  0  0  0
  9  4  1  0  0  0  0
 10 11  2  0  0  0  0
 11 12  1  0  0  0  0
 13 14  1  0  0  0  0
 14  8  1  0  0  0  0
 15 14  2  0  0  0  0
 16  1  1  0  0  0  0
 17 19  1  0  0  0  0
 18 21  1  0  0  0  0
 19 21  1  0  0  0  0
 20 26  1  1  0  0  0
 20 18  1  0  0  0  0
 21 22  1  6  0  0  0
 21 16  1  0  0  0  0
 23 24  2  0  0  0  0
 24 20  1  0  0  0  0
 24 17  1  0  0  0  0
 26 25  1  0  0  0  0
 27 26  2  0  0  0  0
M  END
>  <MODEL>
8

>  <REMARK>
 VINA RESULT:      -6.0      2.534      3.833
  Name = 
  6 active torsions:
  status: ('A' for Active; 'I' for Inactive)
    1  A    between atoms: C_2  and  O_13
    2  A    between atoms: C_3  and  N_26
    3  A    between atoms: C_4  and  C_15
    4  A    between atoms: C_9  and  C_12
    5  A    between atoms: O_13  and  C_20
    6  A    between atoms: N_17  and  C_18
                            x       y       z     vdW  Elec       q    Type
                         _______ _______ _______ _____ _____    ______ ____

>  <TORSDO>
F 6

$$$$
=
 OpenBabel11072413183D

 27 28  0  0  1  0  0  0  0  0999 V2000
  161.2060  207.4780  152.0300 C   0  0  0  0  0  0  0  0  0  0  0  0
  160.4560  206.8450  152.8220 O   0  0  0  0  0  0  0  0  0  0  0  0
  161.1570  207.2110  150.6240 N   0  0  0  0  0  2  0  0  0  0  0  0
  160.2110  206.2800  150.0270 C   0  0  2  0  0  3  0  0  0  0  0  0
  160.9360  204.0080  149.8830 C   0  0  0  0  0  0  0  0  0  0  0  0
  161.2180  204.4840  148.5360 C   0  0  0  0  0  0  0  0  0  0  0  0
  160.3900  204.9330  150.6530 C   0  0  0  0  0  3  0  0  0  0  0  0
  161.9520  203.8070  147.6990 N   0  0  0  0  0  0  0  0  0  0  0  0
  160.5550  206.1190  148.2340 S   0  0  0  0  0  0  0  0  0  0  0  0
  160.9220  201.6400  149.6690 O   0  0  0  0  0  0  0  0  0  0  0  0
  161.2060  202.6440  150.3740 C   0  0  0  0  0  0  0  0  0  0  0  0
  161.7740  202.4530  151.6280 O   0  0  0  0  0  1  0  0  0  0  0  0
  161.3740  203.9550  145.2540 C   0  0  0  0  0  1  0  0  0  0  0  0
  162.3330  204.1810  146.3680 C   0  0  0  0  0  0  0  0  0  0  0  0
  163.4520  204.7030  146.1190 O   0  0  0  0  0  0  0  0  0  0  0  0
  162.0810  208.4430  152.5430 O   0  0  0  0  0  0  0  0  0  0  0  0
  161.3090  211.0400  155.0470 N   0  0  0  0  0  2  0  0  0  0  0  0
  160.1740  209.9340  152.6600 C   0  0  0  0  0  2  0  0  0  0  0  0
  161.8270  209.7850  154.5120 C   0  0  0  0  0  2  0  0  0  0  0  0
  159.6150  211.2740  153.1580 C   0  0  1  0  0  3  0  0  0  0  0  0
  161.6570  209.7260  152.9980 C   0  0  1  0  0  0  0  0  0  0  0  0
  162.4410  210.7060  152.4120 F   0  0  0  0  0  0  0  0  0  0  0  0
  159.5840  212.6320  155.1640 N   0  0  0  0  0  2  0  0  0  0  0  0
  160.1280  211.6500  154.5240 C   0  0  0  0  0  0  0  0  0  0  0  0
  159.2640  213.6460  152.3750 N   0  0  0  0  0  1  0  0  0  0  0  0
  159.8230  212.3600  152.1450 C   0  0  0  0  0  0  0  0  0  0  0  0
  160.4580  212.1390  151.0800 O   0  0  0  0  0  0  0  0  0  0  0  0
  1 16  1  0  0  0  0
  1  2  2  0  0  0  0
  3  1  1  0  0  0  0
  4  3  1  1  0  0  0
  4  7  1  0  0  0  0
  5 11  1  0  0  0  0
  5  7  2  0  0  0  0
  6  5  1  0  0  0  0
  8  6  2  0  0  0  0
  9  6  1  0  0  0  0
  9  4  1  0  0  0  0
 10 11  2  0  0  0  0
 11 12  1  0  0  0  0
 13 14  1  0  0  0  0
 14  8  1  0  0  0  0
 15 14  2  0  0  0  0
 16 21  1  0  0  0  0
 18 21  1  0  0  0  0
 18 20  1  0  0  0  0
 19 17  1  0  0  0  0
 20 26  1  6  0  0  0
 20 24  1  0  0  0  0
 21 22  1  6  0  0  0
 21 19  1  0  0  0  0
 24 17  1  0  0  0  0
 24 23  2  0  0  0  0
 26 25  1  0  0  0  0
 27 26  2  0  0  0  0
M  END
>  <MODEL>
9

>  <REMARK>
 VINA RESULT:      -6.0      3.119      8.433
  Name = 
  6 active torsions:
  status: ('A' for Active; 'I' for Inactive)
    1  A    between atoms: C_2  and  O_13
    2  A    between atoms: C_3  and  N_26
    3  A    between atoms: C_4  and  C_15
    4  A    between atoms: C_9  and  C_12
    5  A    between atoms: O_13  and  C_20
    6  A    between atoms: N_17  and  C_18
                            x       y       z     vdW  Elec       q    Type
                         _______ _______ _______ _____ _____    ______ ____

>  <TORSDO>
F 6

$$$$
