=
 OpenBabel11072411493D

 53 60  0  0  1  0  0  0  0  0999 V2000
  161.7760  209.9310  154.2320 C   0  0  0  0  0  2  0  0  0  0  0  0
  160.9100  207.2170  154.3500 C   0  0  0  0  0  0  0  0  0  0  0  0
  161.9720  207.5490  153.6260 C   0  0  0  0  0  0  0  0  0  0  0  0
  162.3010  206.5120  152.2170 S   0  0  0  0  0  0  0  0  0  0  0  0
  160.6690  205.7200  152.4600 C   0  0  2  0  0  3  0  0  0  0  0  0
  162.7490  208.7930  153.9270 C   0  0  0  0  0  2  0  0  0  0  0  0
  160.5050  208.0290  155.5600 C   0  0  2  0  0  0  0  0  0  0  0  0
  159.1650  207.7680  155.8740 O   0  0  0  0  0  1  0  0  0  0  0  0
  160.1760  206.0130  153.8720 C   0  0  0  0  0  2  0  0  0  0  0  0
  160.7380  209.5550  155.3160 C   0  0  2  0  0  3  0  0  0  0  0  0
  161.0590  206.2770  157.1180 O   0  0  0  0  0  1  0  0  0  0  0  0
  161.3700  207.5850  156.7370 C   0  0  0  0  0  2  0  0  0  0  0  0
  160.7590  204.2130  152.2650 C   0  0  0  0  0  2  0  0  0  0  0  0
  161.6240  203.8360  151.0690 C   0  0  0  0  0  2  0  0  0  0  0  0
  160.8490  203.9660  149.7680 C   0  0  0  0  0  2  0  0  0  0  0  0
  161.6500  203.3960  148.5960 C   0  0  2  0  0  3  0  0  0  0  0  0
  161.9920  206.6390  147.2930 C   0  0  2  0  0  3  0  0  0  0  0  0
  161.5930  204.2930  147.3580 C   0  0  1  0  0  3  0  0  0  0  0  0
  160.3460  204.9390  147.2480 O   0  0  0  0  0  0  0  0  0  0  0  0
  160.6230  206.2420  146.8020 C   0  0  0  0  0  2  0  0  0  0  0  0
  162.6970  205.3230  147.4140 C   0  0  0  0  0  2  0  0  0  0  0  0
  161.7430  208.6590  148.7970 C   0  0  0  0  0  0  0  0  0  0  0  0
  161.6170  209.4170  147.7960 O   0  0  0  0  0  0  0  0  0  0  0  0
  161.8790  207.2460  148.6110 N   0  0  0  0  0  2  0  0  0  0  0  0
  160.7930  208.7620  151.1830 C   0  0  0  0  0  1  0  0  0  0  0  0
  162.6130  210.1980  150.4710 C   0  0  0  0  0  2  0  0  0  0  0  0
  161.7590  209.2350  150.1530 C   0  0  0  0  0  0  0  0  0  0  0  0
  161.2700  201.9460  148.2690 C   0  0  2  0  0  0  0  0  0  0  0  0
  160.1970  201.4250  148.9810 C   0  0  0  0  0  0  0  0  0  0  0  0
  161.6580  201.0820  149.2920 N   0  0  0  0  0  2  0  0  0  0  0  0
  158.9650  201.3140  149.2090 O   0  0  0  0  0  0  0  0  0  0  0  0
  161.5950  201.3450  146.8900 C   0  0  1  0  0  3  0  0  0  0  0  0
  160.9570  200.0970  146.7250 O   0  0  0  0  0  0  0  0  0  0  0  0
  160.3790  201.1900  146.0560 C   0  0  0  0  0  2  0  0  0  0  0  0
  159.4650  210.4080  155.2220 C   0  0  0  0  0  2  0  0  0  0  0  0
  158.2180  212.2630  154.1020 C   0  0  1  0  0  3  0  0  0  0  0  0
  159.7770  210.8470  152.7530 C   0  0  0  0  0  2  0  0  0  0  0  0
  156.5010  213.7090  154.5710 N   0  0  0  0  0  2  0  0  0  0  0  0
  157.5240  212.9200  155.2530 C   0  0  1  0  0  3  0  0  0  0  0  0
  156.5890  213.5960  153.3090 N   0  0  0  0  0  0  0  0  0  0  0  0
  156.8850  211.9170  156.0860 N   0  0  0  0  0  1  0  0  0  0  0  0
  159.5720  211.8780  151.6440 C   0  0  0  0  0  2  0  0  0  0  0  0
  157.6690  212.7330  152.9940 C   0  0  0  0  0  0  0  0  0  0  0  0
  159.5020  211.4730  154.1260 C   0  0  2  0  0  3  0  0  0  0  0  0
  158.1040  212.3370  151.6030 C   0  0  1  0  0  3  0  0  0  0  0  0
  158.7430  213.1820  149.4630 C   0  0  1  0  0  3  0  0  0  0  0  0
  157.9340  213.4470  150.6570 N   0  0  1  0  0  0  0  0  0  0  0  0
  156.7390  213.1800  149.8540 C   0  0  1  0  0  3  0  0  0  0  0  0
  155.9190  214.4510  149.7090 C   0  0  0  0  0  1  0  0  0  0  0  0
  157.5330  212.9340  148.5920 C   0  0  0  0  0  2  0  0  0  0  0  0
  159.4520  214.4510  149.0150 C   0  0  0  0  0  2  0  0  0  0  0  0
  160.8650  212.8380  148.4960 C   0  0  0  0  0  1  0  0  0  0  0  0
  160.4870  214.1310  148.1360 O   0  0  0  0  0  0  0  0  0  0  0  0
  1 10  1  0  0  0  0
  2  7  1  0  0  0  0
  3  6  1  0  0  0  0
  3  2  2  0  0  0  0
  4  5  1  0  0  0  0
  4  3  1  0  0  0  0
  5 13  1  1  0  0  0
  5  9  1  0  0  0  0
  6  1  1  0  0  0  0
  7  8  1  1  0  0  0
  7 12  1  0  0  0  0
  9  2  1  0  0  0  0
 10 35  1  6  0  0  0
 10  7  1  0  0  0  0
 12 11  1  0  0  0  0
 14 13  1  0  0  0  0
 15 14  1  0  0  0  0
 16 15  1  1  0  0  0
 17 21  1  0  0  0  0
 17 24  1  1  0  0  0
 18 21  1  0  0  0  0
 18 16  1  1  0  0  0
 19 18  1  0  0  0  0
 20 19  1  0  0  0  0
 20 17  1  0  0  0  0
 22 27  1  0  0  0  0
 23 22  2  0  0  0  0
 24 22  1  0  0  0  0
 27 26  2  0  0  0  0
 27 25  1  0  0  0  0
 28 16  1  1  0  0  0
 28 29  1  0  0  0  0
 28 30  1  0  0  0  0
 29 31  2  0  0  0  0
 29 30  1  0  0  0  0
 32 34  1  6  0  0  0
 32 28  1  0  0  0  0
 33 32  1  0  0  0  0
 34 33  1  0  0  0  0
 36 43  1  6  0  0  0
 36 44  1  0  0  0  0
 36 39  1  0  0  0  0
 37 44  1  0  0  0  0
 38 39  1  0  0  0  0
 39 41  1  1  0  0  0
 40 38  1  0  0  0  0
 42 37  1  0  0  0  0
 43 40  2  0  0  0  0
 44 35  1  1  0  0  0
 45 42  1  1  0  0  0
 45 43  1  0  0  0  0
 46 51  1  6  0  0  0
 46 47  1  0  0  0  0
 47 45  1  1  0  0  0
 48 49  1  6  0  0  0
 48 47  1  0  0  0  0
 50 46  1  0  0  0  0
 50 48  1  0  0  0  0
 53 52  1  0  0  0  0
 53 51  1  0  0  0  0
M  END
>  <MODEL>
1

>  <REMARK>
 VINA RESULT:      -3.3      0.000      0.000
  Name = 
  15 active torsions:
  status: ('A' for Active; 'I' for Inactive)
    1  A    between atoms: C_1  and  C_3
    2  A    between atoms: C_1  and  C_37
    3  A    between atoms: C_2  and  C_25
    4  A    between atoms: C_2  and  C_37
    5  A    between atoms: C_4  and  C_23
    6  A    between atoms: C_4  and  C_25
    7  A    between atoms: C_16  and  C_26
    8  A    between atoms: O_18  and  C_43
    9  A    between atoms: C_24  and  C_49
   10  A    between atoms: C_24  and  C_50
   11  A    between atoms: C_27  and  C_43
   12  A    between atoms: C_31  and  N_53
   13  A    between atoms: C_32  and  C_33
   14  A    between atoms: C_34  and  C_37
   15  A    between atoms: N_35  and  C_52
                            x       y       z     vdW  Elec       q    Type
                         _______ _______ _______ _____ _____    ______ ____

>  <TORSDO>
F 15

$$$$
=
 OpenBabel11072411493D

 53 60  0  0  1  0  0  0  0  0999 V2000
  159.5940  213.1710  154.9710 C   0  0  0  0  0  2  0  0  0  0  0  0
  159.7230  210.3970  154.3260 C   0  0  0  0  0  0  0  0  0  0  0  0
  160.8350  211.0790  154.5700 C   0  0  0  0  0  0  0  0  0  0  0  0
  162.3000  210.4850  153.7510 S   0  0  0  0  0  0  0  0  0  0  0  0
  161.2480  209.3770  152.7430 C   0  0  2  0  0  3  0  0  0  0  0  0
  160.8040  212.3340  155.3850 C   0  0  0  0  0  2  0  0  0  0  0  0
  158.4030  210.8090  154.9400 C   0  0  2  0  0  0  0  0  0  0  0  0
  157.3490  210.2430  154.2130 O   0  0  0  0  0  1  0  0  0  0  0  0
  159.8880  209.2300  153.4160 C   0  0  0  0  0  2  0  0  0  0  0  0
  158.2730  212.3650  154.9990 C   0  0  2  0  0  3  0  0  0  0  0  0
  159.1710  209.1340  156.4920 O   0  0  0  0  0  1  0  0  0  0  0  0
  158.3550  210.2610  156.3640 C   0  0  0  0  0  2  0  0  0  0  0  0
  161.8850  208.0020  152.5990 C   0  0  0  0  0  2  0  0  0  0  0  0
  160.8800  206.9400  152.1730 C   0  0  0  0  0  2  0  0  0  0  0  0
  160.3920  207.1840  150.7550 C   0  0  0  0  0  2  0  0  0  0  0  0
  160.5120  205.9140  149.9100 C   0  0  2  0  0  3  0  0  0  0  0  0
  161.3770  202.5110  149.9180 C   0  0  2  0  0  3  0  0  0  0  0  0
  160.9070  204.6930  150.7440 C   0  0  1  0  0  3  0  0  0  0  0  0
  159.7920  203.8780  151.0220 O   0  0  0  0  0  0  0  0  0  0  0  0
  160.2450  202.5530  150.9130 C   0  0  0  0  0  2  0  0  0  0  0  0
  161.9580  203.8880  150.0150 C   0  0  0  0  0  2  0  0  0  0  0  0
  161.1940  201.1790  147.7730 C   0  0  0  0  0  0  0  0  0  0  0  0
  161.9180  200.2650  148.2530 O   0  0  0  0  0  0  0  0  0  0  0  0
  160.8420  202.3080  148.5800 N   0  0  0  0  0  2  0  0  0  0  0  0
  160.6420  199.7630  145.7010 C   0  0  0  0  0  1  0  0  0  0  0  0
  160.3910  202.1750  145.7010 C   0  0  0  0  0  2  0  0  0  0  0  0
  160.7240  201.0850  146.3800 C   0  0  0  0  0  0  0  0  0  0  0  0
  161.4290  206.0970  148.6940 C   0  0  2  0  0  0  0  0  0  0  0  0
  160.8190  205.9790  147.4520 C   0  0  0  0  0  0  0  0  0  0  0  0
  161.6840  204.8760  148.0710 N   0  0  0  0  0  2  0  0  0  0  0  0
  160.1010  206.4260  146.5210 O   0  0  0  0  0  0  0  0  0  0  0  0
  162.7130  206.9370  148.8030 C   0  0  1  0  0  3  0  0  0  0  0  0
  162.9510  207.6460  147.6060 O   0  0  0  0  0  0  0  0  0  0  0  0
  162.4340  208.3880  148.6820 C   0  0  0  0  0  2  0  0  0  0  0  0
  157.2040  212.9720  154.0780 C   0  0  0  0  0  2  0  0  0  0  0  0
  156.6970  213.7960  151.7740 C   0  0  1  0  0  3  0  0  0  0  0  0
  158.9730  212.8860  152.2750 C   0  0  0  0  0  2  0  0  0  0  0  0
  154.8750  214.4500  150.5440 N   0  0  0  0  0  2  0  0  0  0  0  0
  155.3200  214.3570  151.9330 C   0  0  1  0  0  3  0  0  0  0  0  0
  155.7840  214.0830  149.7370 N   0  0  0  0  0  0  0  0  0  0  0  0
  154.4770  213.4140  152.6470 N   0  0  0  0  0  1  0  0  0  0  0  0
  159.3670  213.4310  150.9040 C   0  0  0  0  0  2  0  0  0  0  0  0
  156.9350  213.7070  150.4750 C   0  0  0  0  0  0  0  0  0  0  0  0
  157.7640  213.6520  152.8290 C   0  0  2  0  0  3  0  0  0  0  0  0
  158.2330  213.2050  149.8890 C   0  0  1  0  0  3  0  0  0  0  0  0
  159.7850  213.3290  148.0780 C   0  0  1  0  0  3  0  0  0  0  0  0
  158.5340  213.8730  148.6160 N   0  0  1  0  0  0  0  0  0  0  0  0
  157.8190  213.1670  147.5520 C   0  0  1  0  0  3  0  0  0  0  0  0
  157.1850  214.1690  146.6010 C   0  0  0  0  0  1  0  0  0  0  0  0
  159.0870  212.6140  146.9440 C   0  0  0  0  0  2  0  0  0  0  0  0
  160.6540  214.4510  147.5270 C   0  0  0  0  0  2  0  0  0  0  0  0
  162.3730  213.0700  147.5960 C   0  0  0  0  0  1  0  0  0  0  0  0
  161.9530  214.3300  148.0200 O   0  0  0  0  0  0  0  0  0  0  0  0
  1 10  1  0  0  0  0
  1  6  1  0  0  0  0
  2  3  2  0  0  0  0
  2  7  1  0  0  0  0
  3  6  1  0  0  0  0
  4  3  1  0  0  0  0
  5 13  1  1  0  0  0
  5  9  1  0  0  0  0
  5  4  1  0  0  0  0
  7  8  1  6  0  0  0
  7 10  1  0  0  0  0
  7 12  1  0  0  0  0
  9  2  1  0  0  0  0
 10 35  1  6  0  0  0
 12 11  1  0  0  0  0
 14 13  1  0  0  0  0
 15 14  1  0  0  0  0
 16 15  1  1  0  0  0
 17 24  1  6  0  0  0
 17 21  1  0  0  0  0
 17 20  1  0  0  0  0
 18 16  1  6  0  0  0
 18 19  1  0  0  0  0
 20 19  1  0  0  0  0
 21 18  1  0  0  0  0
 22 23  2  0  0  0  0
 22 24  1  0  0  0  0
 25 27  1  0  0  0  0
 26 27  2  0  0  0  0
 27 22  1  0  0  0  0
 28 32  1  0  0  0  0
 28 16  1  1  0  0  0
 29 30  1  0  0  0  0
 29 28  1  0  0  0  0
 30 28  1  0  0  0  0
 31 29  2  0  0  0  0
 32 34  1  1  0  0  0
 33 34  1  0  0  0  0
 33 32  1  0  0  0  0
 36 43  1  6  0  0  0
 36 39  1  0  0  0  0
 36 44  1  0  0  0  0
 37 44  1  0  0  0  0
 38 39  1  0  0  0  0
 39 41  1  1  0  0  0
 40 43  2  0  0  0  0
 40 38  1  0  0  0  0
 42 37  1  0  0  0  0
 44 35  1  1  0  0  0
 45 43  1  0  0  0  0
 45 42  1  1  0  0  0
 46 51  1  6  0  0  0
 46 47  1  0  0  0  0
 47 45  1  1  0  0  0
 48 49  1  6  0  0  0
 48 47  1  0  0  0  0
 50 48  1  0  0  0  0
 50 46  1  0  0  0  0
 51 53  1  0  0  0  0
 52 53  1  0  0  0  0
M  END
>  <MODEL>
2

>  <REMARK>
 VINA RESULT:      -2.9      1.936      4.713
  Name = 
  15 active torsions:
  status: ('A' for Active; 'I' for Inactive)
    1  A    between atoms: C_1  and  C_3
    2  A    between atoms: C_1  and  C_37
    3  A    between atoms: C_2  and  C_25
    4  A    between atoms: C_2  and  C_37
    5  A    between atoms: C_4  and  C_23
    6  A    between atoms: C_4  and  C_25
    7  A    between atoms: C_16  and  C_26
    8  A    between atoms: O_18  and  C_43
    9  A    between atoms: C_24  and  C_49
   10  A    between atoms: C_24  and  C_50
   11  A    between atoms: C_27  and  C_43
   12  A    between atoms: C_31  and  N_53
   13  A    between atoms: C_32  and  C_33
   14  A    between atoms: C_34  and  C_37
   15  A    between atoms: N_35  and  C_52
                            x       y       z     vdW  Elec       q    Type
                         _______ _______ _______ _____ _____    ______ ____

>  <TORSDO>
F 15

$$$$
=
 OpenBabel11072411493D

 53 60  0  0  1  0  0  0  0  0999 V2000
  161.5060  210.8170  156.5630 C   0  0  0  0  0  2  0  0  0  0  0  0
  160.9530  208.7210  154.7100 C   0  0  0  0  0  0  0  0  0  0  0  0
  162.1600  209.2730  154.7540 C   0  0  0  0  0  0  0  0  0  0  0  0
  163.0740  209.2540  153.2270 S   0  0  0  0  0  0  0  0  0  0  0  0
  161.5570  208.7040  152.3640 C   0  0  2  0  0  3  0  0  0  0  0  0
  162.6410  209.9700  155.9890 C   0  0  0  0  0  2  0  0  0  0  0  0
  160.0630  208.6920  155.9330 C   0  0  2  0  0  0  0  0  0  0  0  0
  158.7350  208.4790  155.5420 O   0  0  0  0  0  1  0  0  0  0  0  0
  160.5690  208.1560  153.3880 C   0  0  0  0  0  2  0  0  0  0  0  0
  160.2010  210.0100  156.7600 C   0  0  2  0  0  3  0  0  0  0  0  0
  159.5200  206.5250  156.8340 O   0  0  0  0  0  1  0  0  0  0  0  0
  160.5010  207.5190  156.8070 C   0  0  0  0  0  2  0  0  0  0  0  0
  161.8720  207.6200  151.3440 C   0  0  0  0  0  2  0  0  0  0  0  0
  160.7130  206.6510  151.1510 C   0  0  0  0  0  2  0  0  0  0  0  0
  160.1070  206.7890  149.7650 C   0  0  0  0  0  2  0  0  0  0  0  0
  160.4780  205.5930  148.8850 C   0  0  2  0  0  3  0  0  0  0  0  0
  161.3530  202.1930  148.9420 C   0  0  2  0  0  3  0  0  0  0  0  0
  161.0610  204.4320  149.6940 C   0  0  1  0  0  3  0  0  0  0  0  0
  160.0450  203.6470  150.2730 O   0  0  0  0  0  0  0  0  0  0  0  0
  160.4730  202.3150  150.1600 C   0  0  0  0  0  2  0  0  0  0  0  0
  161.9290  203.5680  148.8070 C   0  0  0  0  0  2  0  0  0  0  0  0
  160.7960  200.7890  146.9100 C   0  0  0  0  0  0  0  0  0  0  0  0
  161.7070  199.9670  147.2000 O   0  0  0  0  0  0  0  0  0  0  0  0
  160.5320  201.8990  147.7760 N   0  0  0  0  0  2  0  0  0  0  0  0
  159.3960  201.7810  144.9960 C   0  0  0  0  0  1  0  0  0  0  0  0
  159.8260  199.4000  145.1610 C   0  0  0  0  0  2  0  0  0  0  0  0
  160.0130  200.6080  145.6750 C   0  0  0  0  0  0  0  0  0  0  0  0
  161.3830  205.9810  147.7090 C   0  0  2  0  0  0  0  0  0  0  0  0
  162.4080  206.8720  148.0020 C   0  0  0  0  0  0  0  0  0  0  0  0
  161.1190  207.2820  147.2810 N   0  0  0  0  0  2  0  0  0  0  0  0
  163.5350  207.1460  148.4890 O   0  0  0  0  0  0  0  0  0  0  0  0
  161.5570  205.0330  146.5100 C   0  0  1  0  0  3  0  0  0  0  0  0
  161.5420  205.7520  145.2960 O   0  0  0  0  0  0  0  0  0  0  0  0
  162.7990  205.3220  145.7540 C   0  0  0  0  0  2  0  0  0  0  0  0
  158.9570  210.9120  156.7710 C   0  0  0  0  0  2  0  0  0  0  0  0
  157.5670  212.2640  155.1930 C   0  0  1  0  0  3  0  0  0  0  0  0
  159.8990  211.6370  154.5400 C   0  0  0  0  0  2  0  0  0  0  0  0
  155.3850  212.9310  154.9640 N   0  0  0  0  0  2  0  0  0  0  0  0
  156.3330  212.5210  155.9980 C   0  0  1  0  0  3  0  0  0  0  0  0
  155.9300  212.9640  153.8180 N   0  0  0  0  0  0  0  0  0  0  0  0
  155.8730  211.2880  156.6130 N   0  0  0  0  0  1  0  0  0  0  0  0
  159.7120  212.6070  153.3760 C   0  0  0  0  0  2  0  0  0  0  0  0
  157.2910  212.5880  153.9400 C   0  0  0  0  0  0  0  0  0  0  0  0
  158.9630  212.0030  155.7000 C   0  0  2  0  0  3  0  0  0  0  0  0
  158.2870  212.4960  152.8080 C   0  0  1  0  0  3  0  0  0  0  0  0
  158.7900  213.2070  150.5840 C   0  0  1  0  0  3  0  0  0  0  0  0
  158.0450  213.5390  151.8030 N   0  0  1  0  0  0  0  0  0  0  0  0
  156.8120  213.2050  151.0880 C   0  0  1  0  0  3  0  0  0  0  0  0
  155.9640  214.4530  150.9080 C   0  0  0  0  0  1  0  0  0  0  0  0
  157.5370  212.8860  149.8020 C   0  0  0  0  0  2  0  0  0  0  0  0
  159.4520  214.4520  150.0150 C   0  0  0  0  0  2  0  0  0  0  0  0
  160.9960  212.9160  149.6620 C   0  0  0  0  0  1  0  0  0  0  0  0
  160.4630  214.0870  149.1260 O   0  0  0  0  0  0  0  0  0  0  0  0
  1 10  1  0  0  0  0
  2  3  2  0  0  0  0
  2  7  1  0  0  0  0
  3  6  1  0  0  0  0
  4  3  1  0  0  0  0
  5 13  1  6  0  0  0
  5  4  1  0  0  0  0
  5  9  1  0  0  0  0
  6  1  1  0  0  0  0
  7  8  1  6  0  0  0
  7 10  1  0  0  0  0
  7 12  1  0  0  0  0
  9  2  1  0  0  0  0
 10 35  1  6  0  0  0
 12 11  1  0  0  0  0
 14 13  1  0  0  0  0
 15 14  1  0  0  0  0
 16 15  1  1  0  0  0
 17 24  1  6  0  0  0
 17 20  1  0  0  0  0
 18 16  1  6  0  0  0
 18 19  1  0  0  0  0
 20 19  1  0  0  0  0
 21 17  1  0  0  0  0
 21 18  1  0  0  0  0
 22 23  2  0  0  0  0
 22 24  1  0  0  0  0
 25 27  1  0  0  0  0
 26 27  2  0  0  0  0
 27 22  1  0  0  0  0
 28 29  1  0  0  0  0
 28 16  1  1  0  0  0
 29 31  2  0  0  0  0
 30 28  1  0  0  0  0
 30 29  1  0  0  0  0
 32 34  1  1  0  0  0
 32 28  1  0  0  0  0
 33 34  1  0  0  0  0
 33 32  1  0  0  0  0
 36 43  1  6  0  0  0
 36 44  1  0  0  0  0
 36 39  1  0  0  0  0
 37 44  1  0  0  0  0
 38 39  1  0  0  0  0
 39 41  1  6  0  0  0
 40 43  2  0  0  0  0
 40 38  1  0  0  0  0
 42 37  1  0  0  0  0
 44 35  1  1  0  0  0
 45 42  1  1  0  0  0
 45 43  1  0  0  0  0
 46 51  1  6  0  0  0
 46 47  1  0  0  0  0
 47 45  1  1  0  0  0
 48 49  1  6  0  0  0
 48 47  1  0  0  0  0
 50 46  1  0  0  0  0
 50 48  1  0  0  0  0
 53 52  1  0  0  0  0
 53 51  1  0  0  0  0
M  END
>  <MODEL>
3

>  <REMARK>
 VINA RESULT:      -1.4      1.522      4.215
  Name = 
  15 active torsions:
  status: ('A' for Active; 'I' for Inactive)
    1  A    between atoms: C_1  and  C_3
    2  A    between atoms: C_1  and  C_37
    3  A    between atoms: C_2  and  C_25
    4  A    between atoms: C_2  and  C_37
    5  A    between atoms: C_4  and  C_23
    6  A    between atoms: C_4  and  C_25
    7  A    between atoms: C_16  and  C_26
    8  A    between atoms: O_18  and  C_43
    9  A    between atoms: C_24  and  C_49
   10  A    between atoms: C_24  and  C_50
   11  A    between atoms: C_27  and  C_43
   12  A    between atoms: C_31  and  N_53
   13  A    between atoms: C_32  and  C_33
   14  A    between atoms: C_34  and  C_37
   15  A    between atoms: N_35  and  C_52
                            x       y       z     vdW  Elec       q    Type
                         _______ _______ _______ _____ _____    ______ ____

>  <TORSDO>
F 15

$$$$
=
 OpenBabel11072411493D

 53 60  0  0  1  0  0  0  0  0999 V2000
  162.9990  205.0570  147.0060 C   0  0  0  0  0  2  0  0  0  0  0  0
  161.5960  204.8190  144.5340 C   0  0  0  0  0  0  0  0  0  0  0  0
  162.8950  205.0920  144.5420 C   0  0  0  0  0  0  0  0  0  0  0  0
  163.4950  206.0320  143.1550 S   0  0  0  0  0  0  0  0  0  0  0  0
  161.7610  206.3410  142.6560 C   0  0  2  0  0  3  0  0  0  0  0  0
  163.7500  204.7280  145.7160 C   0  0  0  0  0  2  0  0  0  0  0  0
  160.9530  204.0480  145.6660 C   0  0  2  0  0  0  0  0  0  0  0  0
  159.5700  204.2680  145.6590 O   0  0  0  0  0  1  0  0  0  0  0  0
  160.8540  205.3320  143.3500 C   0  0  0  0  0  2  0  0  0  0  0  0
  161.5790  204.4430  147.0420 C   0  0  2  0  0  3  0  0  0  0  0  0
  160.2960  201.7800  146.1420 O   0  0  0  0  0  1  0  0  0  0  0  0
  161.2050  202.5610  145.4250 C   0  0  0  0  0  2  0  0  0  0  0  0
  161.5950  206.2090  141.1490 C   0  0  0  0  0  2  0  0  0  0  0  0
  162.1820  207.3970  140.3960 C   0  0  0  0  0  2  0  0  0  0  0  0
  161.1450  208.4910  140.2050 C   0  0  0  0  0  2  0  0  0  0  0  0
  161.4190  209.2860  138.9270 C   0  0  2  0  0  3  0  0  0  0  0  0
  162.9850  211.8200  140.7860 C   0  0  2  0  0  3  0  0  0  0  0  0
  162.6260  210.2160  139.0650 C   0  0  1  0  0  3  0  0  0  0  0  0
  162.3580  211.4900  138.5290 O   0  0  0  0  0  0  0  0  0  0  0  0
  162.9620  212.4110  139.4000 C   0  0  0  0  0  2  0  0  0  0  0  0
  163.0150  210.3460  140.5200 C   0  0  0  0  0  2  0  0  0  0  0  0
  161.7220  212.5200  142.8650 C   0  0  0  0  0  0  0  0  0  0  0  0
  162.8020  212.6520  143.5040 O   0  0  0  0  0  0  0  0  0  0  0  0
  161.7510  212.1580  141.4800 N   0  0  0  0  0  2  0  0  0  0  0  0
  160.3980  212.9980  145.0160 C   0  0  0  0  0  1  0  0  0  0  0  0
  159.2910  212.6630  142.8850 C   0  0  0  0  0  2  0  0  0  0  0  0
  160.4360  212.7310  143.5520 C   0  0  0  0  0  0  0  0  0  0  0  0
  160.1800  210.0310  138.4160 C   0  0  2  0  0  0  0  0  0  0  0  0
  159.3140  209.2930  137.6190 C   0  0  0  0  0  0  0  0  0  0  0  0
  160.2960  210.3270  137.0580 N   0  0  0  0  0  2  0  0  0  0  0  0
  158.4110  208.4300  137.4640 O   0  0  0  0  0  0  0  0  0  0  0  0
  159.6150  211.2330  139.1930 C   0  0  1  0  0  3  0  0  0  0  0  0
  158.7100  211.9650  138.3950 O   0  0  0  0  0  0  0  0  0  0  0  0
  158.1470  211.1310  139.3760 C   0  0  0  0  0  2  0  0  0  0  0  0
  160.6430  205.2010  147.9960 C   0  0  0  0  0  2  0  0  0  0  0  0
  161.1630  205.1110  150.4390 C   0  0  0  0  0  0  0  0  0  0  0  0
  160.8780  207.3350  149.3300 C   0  0  0  0  0  2  0  0  0  0  0  0
  161.2640  203.5530  152.1190 N   0  0  0  0  0  0  0  0  0  0  0  0
  161.3760  203.6480  150.6650 C   0  0  1  0  0  3  0  0  0  0  0  0
  161.0800  204.6920  152.6480 N   0  0  0  0  0  0  0  0  0  0  0  0
  160.3030  202.8880  150.0480 N   0  0  0  0  0  1  0  0  0  0  0  0
  161.4120  207.9260  150.6340 C   0  0  0  0  0  2  0  0  0  0  0  0
  161.0490  205.6780  151.6300 C   0  0  0  0  0  0  0  0  0  0  0  0
  161.3560  205.8870  149.1620 C   0  0  2  0  0  3  0  0  0  0  0  0
  160.8460  207.1590  151.8420 C   0  0  1  0  0  3  0  0  0  0  0  0
  161.1170  209.0090  153.3290 C   0  0  1  0  0  3  0  0  0  0  0  0
  161.4830  207.6090  153.0870 N   0  0  1  0  0  0  0  0  0  0  0  0
  160.6130  207.2340  154.2030 C   0  0  1  0  0  3  0  0  0  0  0  0
  161.4470  206.6640  155.3390 C   0  0  0  0  0  1  0  0  0  0  0  0
  160.2370  208.6660  154.5090 C   0  0  0  0  0  2  0  0  0  0  0  0
  162.3310  209.7970  153.7990 C   0  0  0  0  0  2  0  0  0  0  0  0
  162.7220  210.7420  155.7540 C   0  0  0  0  0  1  0  0  0  0  0  0
  161.9240  210.8520  154.6160 O   0  0  0  0  0  0  0  0  0  0  0  0
  1 10  1  0  0  0  0
  2  3  2  0  0  0  0
  2  7  1  0  0  0  0
  3  6  1  0  0  0  0
  4  3  1  0  0  0  0
  5 13  1  6  0  0  0
  5  4  1  0  0  0  0
  5  9  1  0  0  0  0
  6  1  1  0  0  0  0
  7  8  1  1  0  0  0
  7 10  1  0  0  0  0
  9  2  1  0  0  0  0
 10 35  1  6  0  0  0
 12  7  1  0  0  0  0
 12 11  1  0  0  0  0
 14 13  1  0  0  0  0
 15 14  1  0  0  0  0
 16 15  1  1  0  0  0
 17 24  1  1  0  0  0
 18 16  1  1  0  0  0
 18 21  1  0  0  0  0
 19 18  1  0  0  0  0
 19 20  1  0  0  0  0
 20 17  1  0  0  0  0
 21 17  1  0  0  0  0
 22 23  2  0  0  0  0
 22 27  1  0  0  0  0
 24 22  1  0  0  0  0
 26 27  2  0  0  0  0
 27 25  1  0  0  0  0
 28 16  1  1  0  0  0
 28 32  1  0  0  0  0
 29 28  1  0  0  0  0
 30 29  1  0  0  0  0
 30 28  1  0  0  0  0
 31 29  2  0  0  0  0
 32 34  1  1  0  0  0
 33 32  1  0  0  0  0
 33 34  1  0  0  0  0
 36 39  1  0  0  0  0
 36 43  2  0  0  0  0
 37 42  1  0  0  0  0
 38 40  2  0  0  0  0
 39 41  1  6  0  0  0
 39 38  1  0  0  0  0
 43 45  1  0  0  0  0
 43 40  1  0  0  0  0
 44 35  1  6  0  0  0
 44 37  1  0  0  0  0
 44 36  1  0  0  0  0
 45 42  1  6  0  0  0
 46 51  1  1  0  0  0
 46 50  1  0  0  0  0
 47 45  1  6  0  0  0
 47 46  1  0  0  0  0
 47 48  1  0  0  0  0
 48 50  1  0  0  0  0
 48 49  1  1  0  0  0
 51 53  1  0  0  0  0
 53 52  1  0  0  0  0
M  END
>  <MODEL>
4

>  <REMARK>
 VINA RESULT:      -0.6      5.757      9.937
  Name = 
  15 active torsions:
  status: ('A' for Active; 'I' for Inactive)
    1  A    between atoms: C_1  and  C_3
    2  A    between atoms: C_1  and  C_37
    3  A    between atoms: C_2  and  C_25
    4  A    between atoms: C_2  and  C_37
    5  A    between atoms: C_4  and  C_23
    6  A    between atoms: C_4  and  C_25
    7  A    between atoms: C_16  and  C_26
    8  A    between atoms: O_18  and  C_43
    9  A    between atoms: C_24  and  C_49
   10  A    between atoms: C_24  and  C_50
   11  A    between atoms: C_27  and  C_43
   12  A    between atoms: C_31  and  N_53
   13  A    between atoms: C_32  and  C_33
   14  A    between atoms: C_34  and  C_37
   15  A    between atoms: N_35  and  C_52
                            x       y       z     vdW  Elec       q    Type
                         _______ _______ _______ _____ _____    ______ ____

>  <TORSDO>
F 15

$$$$
