=
 OpenBabel11072410293D

 32 36  0  0  1  0  0  0  0  0999 V2000
  161.3590  206.2450  151.5150 C   0  0  0  0  0  0  0  0  0  0  0  0
  161.7270  206.4290  148.7440 C   0  0  2  0  0  3  0  0  0  0  0  0
  161.3310  208.4680  153.1710 N   0  0  0  0  0  0  0  0  0  0  0  0
  161.1070  206.0940  152.8840 C   0  0  0  0  0  3  0  0  0  0  0  0
  161.5690  208.6290  151.8400 C   0  0  0  0  0  0  0  0  0  0  0  0
  161.3840  205.1460  150.5900 N   0  0  0  0  0  0  0  0  0  0  0  0
  161.7850  207.6560  149.6240 C   0  0  0  0  0  0  0  0  0  0  0  0
  161.5770  207.5130  150.9950 C   0  0  0  0  0  0  0  0  0  0  0  0
  160.3510  206.2580  148.1150 C   0  0  0  0  0  1  0  0  0  0  0  0
  162.1350  205.2600  149.4480 O   0  0  0  0  0  0  0  0  0  0  0  0
  161.0980  207.2310  153.7040 C   0  0  0  0  0  0  0  0  0  0  0  0
  162.0000  208.9380  149.1090 C   0  0  0  0  0  3  0  0  0  0  0  0
  161.7940  209.8920  151.2870 C   0  0  0  0  0  3  0  0  0  0  0  0
  162.0030  210.0150  149.9450 N   0  0  0  0  0  0  0  0  0  0  0  0
  160.7050  203.8930  150.9070 C   0  0  2  0  0  3  0  0  0  0  0  0
  160.7550  203.6280  152.4060 C   0  0  0  0  0  1  0  0  0  0  0  0
  161.2700  202.7350  150.0790 C   0  0  1  0  0  3  0  0  0  0  0  0
  161.5150  201.6080  150.8740 O   0  0  0  0  0  1  0  0  0  0  0  0
  160.3770  202.3970  148.8880 C   0  0  2  0  0  3  0  0  0  0  0  0
  159.2540  201.6740  149.3010 O   0  0  0  0  0  1  0  0  0  0  0  0
  161.1630  201.5930  147.8610 C   0  0  0  0  0  2  0  0  0  0  0  0
  160.9160  202.1130  146.4570 C   0  0  0  0  0  2  0  0  0  0  0  0
  161.1520  203.6100  146.3930 C   0  0  0  0  0  2  0  0  0  0  0  0
  162.3370  205.4120  145.2030 C   0  0  0  0  0  2  0  0  0  0  0  0
  163.3610  204.6600  146.0270 C   0  0  0  0  0  2  0  0  0  0  0  0
  162.2240  203.9100  145.3660 C   0  0  0  0  0  3  0  0  0  0  0  0
  160.8400  207.0800  155.1650 C   0  0  0  0  0  2  0  0  0  0  0  0
  160.9950  210.3670  157.2610 C   0  0  0  0  0  3  0  0  0  0  0  0
  159.7740  210.2220  156.6960 N   0  0  0  0  0  0  0  0  0  0  0  0
  160.7730  208.4040  155.8540 C   0  0  0  0  0  0  0  0  0  0  0  0
  161.9880  209.0880  156.7910 S   0  0  0  0  0  0  0  0  0  0  0  0
  159.6460  209.1380  155.9320 N   0  0  0  0  0  0  0  0  0  0  0  0
  1  4  1  0  0  0  0
  2  9  1  1  0  0  0
  2 10  1  0  0  0  0
  2  7  1  0  0  0  0
  3 11  1  0  0  0  0
  4 11  2  0  0  0  0
  5  3  2  0  0  0  0
  6 15  1  0  0  0  0
  6  1  1  0  0  0  0
  7  8  1  0  0  0  0
  8  1  2  0  0  0  0
  8  5  1  0  0  0  0
 10  6  1  0  0  0  0
 11 27  1  0  0  0  0
 12  7  2  0  0  0  0
 12 14  1  0  0  0  0
 13  5  1  0  0  0  0
 14 13  2  0  0  0  0
 15 16  1  1  0  0  0
 17 18  1  1  0  0  0
 17 15  1  0  0  0  0
 19 20  1  1  0  0  0
 19 17  1  0  0  0  0
 21 19  1  0  0  0  0
 22 21  1  0  0  0  0
 23 22  1  0  0  0  0
 24 26  1  0  0  0  0
 24 25  1  0  0  0  0
 26 25  1  0  0  0  0
 26 23  1  0  0  0  0
 27 30  1  0  0  0  0
 29 28  2  0  0  0  0
 30 32  2  0  0  0  0
 30 31  1  0  0  0  0
 31 28  1  0  0  0  0
 32 29  1  0  0  0  0
M  END
>  <MODEL>
1

>  <REMARK>
 VINA RESULT:      -8.2      0.000      0.000
  Name = 
  9 active torsions:
  status: ('A' for Active; 'I' for Inactive)
    1  A    between atoms: C_2  and  C_12
    2  A    between atoms: C_2  and  C_26
    3  A    between atoms: C_4  and  C_27
    4  A    between atoms: C_4  and  C_32
    5  A    between atoms: C_5  and  N_19
    6  A    between atoms: C_5  and  C_27
    7  A    between atoms: C_15  and  C_17
    8  A    between atoms: C_15  and  C_32
    9  A    between atoms: C_17  and  C_18
                            x       y       z     vdW  Elec       q    Type
                         _______ _______ _______ _____ _____    ______ ____

>  <TORSDO>
F 9

$$$$
=
 OpenBabel11072410293D

 32 36  0  0  1  0  0  0  0  0999 V2000
  161.5130  207.7430  149.7290 C   0  0  0  0  0  0  0  0  0  0  0  0
  160.8450  205.5270  151.3070 C   0  0  2  0  0  3  0  0  0  0  0  0
  161.9140  210.2710  150.7940 N   0  0  0  0  0  0  0  0  0  0  0  0
  161.9080  208.7980  148.8970 C   0  0  0  0  0  3  0  0  0  0  0  0
  161.5380  209.2520  151.6150 C   0  0  0  0  0  0  0  0  0  0  0  0
  161.2910  206.4040  149.2570 N   0  0  0  0  0  0  0  0  0  0  0  0
  160.9890  206.9040  151.9130 C   0  0  0  0  0  0  0  0  0  0  0  0
  161.3410  207.9700  151.0870 C   0  0  0  0  0  0  0  0  0  0  0  0
  162.1190  204.7100  151.4650 C   0  0  0  0  0  1  0  0  0  0  0  0
  160.4260  205.5950  149.9470 O   0  0  0  0  0  0  0  0  0  0  0  0
  162.1040  210.0690  149.4560 C   0  0  0  0  0  0  0  0  0  0  0  0
  160.8220  207.1410  153.2800 C   0  0  0  0  0  3  0  0  0  0  0  0
  161.3550  209.4490  152.9870 C   0  0  0  0  0  3  0  0  0  0  0  0
  161.0030  208.3970  153.7800 N   0  0  0  0  0  0  0  0  0  0  0  0
  161.8980  205.9470  148.0100 C   0  0  2  0  0  3  0  0  0  0  0  0
  162.9030  206.9720  147.5030 C   0  0  0  0  0  1  0  0  0  0  0  0
  160.8260  205.6010  146.9710 C   0  0  1  0  0  3  0  0  0  0  0  0
  160.0660  206.7250  146.6240 O   0  0  0  0  0  1  0  0  0  0  0  0
  161.4230  204.9260  145.7390 C   0  0  2  0  0  3  0  0  0  0  0  0
  160.4790  204.8510  144.7100 O   0  0  0  0  0  1  0  0  0  0  0  0
  161.9120  203.5290  146.0980 C   0  0  0  0  0  2  0  0  0  0  0  0
  160.9120  202.4740  145.6650 C   0  0  0  0  0  2  0  0  0  0  0  0
  160.6330  201.5050  146.7990 C   0  0  0  0  0  2  0  0  0  0  0  0
  160.1160  202.0140  149.1530 C   0  0  0  0  0  2  0  0  0  0  0  0
  161.2170  200.9740  149.1420 C   0  0  0  0  0  2  0  0  0  0  0  0
  161.1950  202.0620  148.0900 C   0  0  0  0  0  3  0  0  0  0  0  0
  162.5160  211.2000  148.5770 C   0  0  0  0  0  2  0  0  0  0  0  0
  159.4210  213.5250  148.0810 C   0  0  0  0  0  3  0  0  0  0  0  0
  159.5270  212.6520  147.0530 N   0  0  0  0  0  0  0  0  0  0  0  0
  161.3540  212.0640  148.2090 C   0  0  0  0  0  0  0  0  0  0  0  0
  160.7050  213.2950  149.1500 S   0  0  0  0  0  0  0  0  0  0  0  0
  160.5820  211.8400  147.1270 N   0  0  0  0  0  0  0  0  0  0  0  0
  1  8  1  0  0  0  0
  2  9  1  6  0  0  0
  2  7  1  0  0  0  0
  3  5  1  0  0  0  0
  4 11  1  0  0  0  0
  4  1  2  0  0  0  0
  5 13  1  0  0  0  0
  6  1  1  0  0  0  0
  6 10  1  0  0  0  0
  7 12  2  0  0  0  0
  8  5  2  0  0  0  0
  8  7  1  0  0  0  0
 10  2  1  0  0  0  0
 11  3  2  0  0  0  0
 12 14  1  0  0  0  0
 13 14  2  0  0  0  0
 15 16  1  6  0  0  0
 15  6  1  0  0  0  0
 17 18  1  6  0  0  0
 17 15  1  0  0  0  0
 19 20  1  6  0  0  0
 19 21  1  0  0  0  0
 19 17  1  0  0  0  0
 22 21  1  0  0  0  0
 22 23  1  0  0  0  0
 23 26  1  0  0  0  0
 25 24  1  0  0  0  0
 26 25  1  0  0  0  0
 26 24  1  0  0  0  0
 27 11  1  0  0  0  0
 28 31  1  0  0  0  0
 29 32  1  0  0  0  0
 29 28  2  0  0  0  0
 30 27  1  0  0  0  0
 30 31  1  0  0  0  0
 32 30  2  0  0  0  0
M  END
>  <MODEL>
2

>  <REMARK>
 VINA RESULT:      -7.9      2.661      5.291
  Name = 
  9 active torsions:
  status: ('A' for Active; 'I' for Inactive)
    1  A    between atoms: C_2  and  C_12
    2  A    between atoms: C_2  and  C_26
    3  A    between atoms: C_4  and  C_27
    4  A    between atoms: C_4  and  C_32
    5  A    between atoms: C_5  and  N_19
    6  A    between atoms: C_5  and  C_27
    7  A    between atoms: C_15  and  C_17
    8  A    between atoms: C_15  and  C_32
    9  A    between atoms: C_17  and  C_18
                            x       y       z     vdW  Elec       q    Type
                         _______ _______ _______ _____ _____    ______ ____

>  <TORSDO>
F 9

$$$$
=
 OpenBabel11072410293D

 32 36  0  0  1  0  0  0  0  0999 V2000
  161.4250  207.3080  151.8210 C   0  0  0  0  0  0  0  0  0  0  0  0
  161.8880  206.9630  149.0800 C   0  0  2  0  0  3  0  0  0  0  0  0
  161.2390  209.8070  153.0040 N   0  0  0  0  0  0  0  0  0  0  0  0
  161.1280  207.4150  153.1860 C   0  0  0  0  0  3  0  0  0  0  0  0
  161.5200  209.7170  151.6750 C   0  0  0  0  0  0  0  0  0  0  0  0
  161.5320  206.0510  151.1320 N   0  0  0  0  0  0  0  0  0  0  0  0
  161.8610  208.3400  149.7020 C   0  0  0  0  0  0  0  0  0  0  0  0
  161.6070  208.4580  151.0680 C   0  0  0  0  0  0  0  0  0  0  0  0
  160.5460  206.6040  148.4580 C   0  0  0  0  0  1  0  0  0  0  0  0
  162.3190  205.9760  150.0120 O   0  0  0  0  0  0  0  0  0  0  0  0
  161.0400  208.6890  153.7640 C   0  0  0  0  0  0  0  0  0  0  0  0
  162.0400  209.5050  148.9500 C   0  0  0  0  0  3  0  0  0  0  0  0
  161.7120  210.8560  150.8890 C   0  0  0  0  0  3  0  0  0  0  0  0
  161.9660  210.7240  149.5560 N   0  0  0  0  0  0  0  0  0  0  0  0
  160.8940  204.8520  151.6710 C   0  0  2  0  0  3  0  0  0  0  0  0
  160.9850  204.8420  153.1910 C   0  0  0  0  0  1  0  0  0  0  0  0
  161.4740  203.5860  151.0320 C   0  0  1  0  0  3  0  0  0  0  0  0
  161.8860  202.6650  152.0030 O   0  0  0  0  0  1  0  0  0  0  0  0
  160.5050  202.9550  150.0370 C   0  0  2  0  0  3  0  0  0  0  0  0
  160.5310  201.5610  150.1370 O   0  0  0  0  0  1  0  0  0  0  0  0
  160.8650  203.3800  148.6200 C   0  0  0  0  0  2  0  0  0  0  0  0
  161.0870  202.1730  147.7280 C   0  0  0  0  0  2  0  0  0  0  0  0
  161.2260  202.5980  146.2780 C   0  0  0  0  0  2  0  0  0  0  0  0
  162.6240  204.3890  145.3280 C   0  0  0  0  0  2  0  0  0  0  0  0
  161.2230  204.5660  144.7820 C   0  0  0  0  0  2  0  0  0  0  0  0
  161.4250  204.0970  146.2070 C   0  0  0  0  0  3  0  0  0  0  0  0
  160.7330  208.8140  155.2180 C   0  0  0  0  0  2  0  0  0  0  0  0
  159.5570  212.3490  156.3790 C   0  0  0  0  0  3  0  0  0  0  0  0
  158.5020  211.6120  155.9610 N   0  0  0  0  0  0  0  0  0  0  0  0
  160.1450  210.1480  155.5460 C   0  0  0  0  0  0  0  0  0  0  0  0
  160.9770  211.4610  156.1830 S   0  0  0  0  0  0  0  0  0  0  0  0
  158.8210  210.3970  155.5140 N   0  0  0  0  0  0  0  0  0  0  0  0
  1  4  1  0  0  0  0
  2  9  1  1  0  0  0
  2  7  1  0  0  0  0
  2 10  1  0  0  0  0
  3 11  1  0  0  0  0
  4 11  2  0  0  0  0
  5  3  2  0  0  0  0
  6 15  1  0  0  0  0
  6  1  1  0  0  0  0
  7  8  1  0  0  0  0
  8  5  1  0  0  0  0
  8  1  2  0  0  0  0
 10  6  1  0  0  0  0
 11 27  1  0  0  0  0
 12 14  1  0  0  0  0
 12  7  2  0  0  0  0
 13  5  1  0  0  0  0
 14 13  2  0  0  0  0
 15 16  1  1  0  0  0
 17 15  1  0  0  0  0
 17 18  1  1  0  0  0
 19 20  1  6  0  0  0
 19 17  1  0  0  0  0
 21 19  1  0  0  0  0
 22 21  1  0  0  0  0
 23 22  1  0  0  0  0
 24 26  1  0  0  0  0
 25 24  1  0  0  0  0
 25 26  1  0  0  0  0
 26 23  1  0  0  0  0
 27 30  1  0  0  0  0
 29 28  2  0  0  0  0
 30 31  1  0  0  0  0
 31 28  1  0  0  0  0
 32 30  2  0  0  0  0
 32 29  1  0  0  0  0
M  END
>  <MODEL>
3

>  <REMARK>
 VINA RESULT:      -7.5      1.233      1.462
  Name = 
  9 active torsions:
  status: ('A' for Active; 'I' for Inactive)
    1  A    between atoms: C_2  and  C_12
    2  A    between atoms: C_2  and  C_26
    3  A    between atoms: C_4  and  C_27
    4  A    between atoms: C_4  and  C_32
    5  A    between atoms: C_5  and  N_19
    6  A    between atoms: C_5  and  C_27
    7  A    between atoms: C_15  and  C_17
    8  A    between atoms: C_15  and  C_32
    9  A    between atoms: C_17  and  C_18
                            x       y       z     vdW  Elec       q    Type
                         _______ _______ _______ _____ _____    ______ ____

>  <TORSDO>
F 9

$$$$
=
 OpenBabel11072410293D

 32 36  0  0  1  0  0  0  0  0999 V2000
  161.3230  206.9660  151.0240 C   0  0  0  0  0  0  0  0  0  0  0  0
  161.5200  206.1080  153.6840 C   0  0  2  0  0  3  0  0  0  0  0  0
  160.7340  205.2410  148.9360 N   0  0  0  0  0  0  0  0  0  0  0  0
  161.1750  207.4660  149.7250 C   0  0  0  0  0  3  0  0  0  0  0  0
  160.8670  204.7430  150.1960 C   0  0  0  0  0  0  0  0  0  0  0  0
  161.6210  207.7930  152.1610 N   0  0  0  0  0  0  0  0  0  0  0  0
  161.2640  205.1280  152.5630 C   0  0  0  0  0  0  0  0  0  0  0  0
  161.1560  205.6090  151.2580 C   0  0  0  0  0  0  0  0  0  0  0  0
  160.2250  206.5240  154.3680 C   0  0  0  0  0  1  0  0  0  0  0  0
  162.2660  207.2350  153.2340 O   0  0  0  0  0  0  0  0  0  0  0  0
  160.8780  206.5760  148.6830 C   0  0  0  0  0  0  0  0  0  0  0  0
  161.0910  203.7590  152.7890 C   0  0  0  0  0  3  0  0  0  0  0  0
  160.7070  203.3810  150.4640 C   0  0  0  0  0  3  0  0  0  0  0  0
  160.8230  202.9250  151.7440 N   0  0  0  0  0  0  0  0  0  0  0  0
  161.3330  209.2250  152.1320 C   0  0  2  0  0  3  0  0  0  0  0  0
  162.4160  209.9680  151.3620 C   0  0  0  0  0  1  0  0  0  0  0  0
  161.1280  209.7730  153.5480 C   0  0  1  0  0  3  0  0  0  0  0  0
  162.2360  210.5150  153.9760 O   0  0  0  0  0  1  0  0  0  0  0  0
  159.8360  210.5780  153.6660 C   0  0  2  0  0  3  0  0  0  0  0  0
  159.3600  210.9370  152.4020 O   0  0  0  0  0  1  0  0  0  0  0  0
  160.0760  211.8260  154.5040 C   0  0  0  0  0  2  0  0  0  0  0  0
  158.7660  212.4130  154.9950 C   0  0  0  0  0  2  0  0  0  0  0  0
  157.8390  211.3170  155.4850 C   0  0  0  0  0  2  0  0  0  0  0  0
  155.5420  210.4540  155.2720 C   0  0  0  0  0  2  0  0  0  0  0  0
  155.5520  211.4460  156.4150 C   0  0  0  0  0  2  0  0  0  0  0  0
  156.4040  211.6980  155.1890 C   0  0  0  0  0  3  0  0  0  0  0  0
  160.7280  207.0980  147.2940 C   0  0  0  0  0  2  0  0  0  0  0  0
  162.0520  204.4810  144.7200 C   0  0  0  0  0  3  0  0  0  0  0  0
  160.8280  204.9260  144.3560 N   0  0  0  0  0  0  0  0  0  0  0  0
  161.0610  206.0570  146.2750 C   0  0  0  0  0  0  0  0  0  0  0  0
  162.5020  205.1990  146.1780 S   0  0  0  0  0  0  0  0  0  0  0  0
  160.2860  205.8020  145.2020 N   0  0  0  0  0  0  0  0  0  0  0  0
  1  8  1  0  0  0  0
  1  6  1  0  0  0  0
  2  9  1  6  0  0  0
  3  5  1  0  0  0  0
  4  1  2  0  0  0  0
  5 13  2  0  0  0  0
  5  8  1  0  0  0  0
  6 10  1  0  0  0  0
  7 12  1  0  0  0  0
  7  2  1  0  0  0  0
  8  7  2  0  0  0  0
 10  2  1  0  0  0  0
 11  3  2  0  0  0  0
 11  4  1  0  0  0  0
 13 14  1  0  0  0  0
 14 12  2  0  0  0  0
 15 16  1  1  0  0  0
 15  6  1  0  0  0  0
 15 17  1  0  0  0  0
 17 19  1  0  0  0  0
 17 18  1  6  0  0  0
 19 20  1  6  0  0  0
 19 21  1  0  0  0  0
 21 22  1  0  0  0  0
 22 23  1  0  0  0  0
 24 25  1  0  0  0  0
 26 24  1  0  0  0  0
 26 23  1  0  0  0  0
 26 25  1  0  0  0  0
 27 11  1  0  0  0  0
 28 31  1  0  0  0  0
 29 28  2  0  0  0  0
 29 32  1  0  0  0  0
 30 27  1  0  0  0  0
 31 30  1  0  0  0  0
 32 30  2  0  0  0  0
M  END
>  <MODEL>
4

>  <REMARK>
 VINA RESULT:      -7.3      3.880      9.016
  Name = 
  9 active torsions:
  status: ('A' for Active; 'I' for Inactive)
    1  A    between atoms: C_2  and  C_12
    2  A    between atoms: C_2  and  C_26
    3  A    between atoms: C_4  and  C_27
    4  A    between atoms: C_4  and  C_32
    5  A    between atoms: C_5  and  N_19
    6  A    between atoms: C_5  and  C_27
    7  A    between atoms: C_15  and  C_17
    8  A    between atoms: C_15  and  C_32
    9  A    between atoms: C_17  and  C_18
                            x       y       z     vdW  Elec       q    Type
                         _______ _______ _______ _____ _____    ______ ____

>  <TORSDO>
F 9

$$$$
=
 OpenBabel11072410293D

 32 36  0  0  1  0  0  0  0  0999 V2000
  161.3080  208.7610  151.6960 C   0  0  0  0  0  0  0  0  0  0  0  0
  162.3490  208.0790  149.1870 C   0  0  2  0  0  3  0  0  0  0  0  0
  160.5180  211.3400  152.3370 N   0  0  0  0  0  0  0  0  0  0  0  0
  160.7350  209.0270  152.9460 C   0  0  0  0  0  3  0  0  0  0  0  0
  161.0660  211.0930  151.1160 C   0  0  0  0  0  0  0  0  0  0  0  0
  161.7370  207.4530  151.2850 N   0  0  0  0  0  0  0  0  0  0  0  0
  161.9930  209.5080  149.5230 C   0  0  0  0  0  0  0  0  0  0  0  0
  161.4600  209.7920  150.7800 C   0  0  0  0  0  0  0  0  0  0  0  0
  161.2260  207.3870  148.4280 C   0  0  0  0  0  1  0  0  0  0  0  0
  162.7320  207.3470  150.3470 O   0  0  0  0  0  0  0  0  0  0  0  0
  160.3440  210.3380  153.2500 C   0  0  0  0  0  0  0  0  0  0  0  0
  162.1390  210.5530  148.6060 C   0  0  0  0  0  3  0  0  0  0  0  0
  161.2350  212.1100  150.1720 C   0  0  0  0  0  3  0  0  0  0  0  0
  161.7640  211.8180  148.9500 N   0  0  0  0  0  0  0  0  0  0  0  0
  161.1940  206.2580  151.9270 C   0  0  2  0  0  3  0  0  0  0  0  0
  161.4630  206.2930  153.4250 C   0  0  0  0  0  1  0  0  0  0  0  0
  161.7230  204.9860  151.2570 C   0  0  1  0  0  3  0  0  0  0  0  0
  162.6620  204.3330  152.0660 O   0  0  0  0  0  1  0  0  0  0  0  0
  160.5920  204.0470  150.8440 C   0  0  2  0  0  3  0  0  0  0  0  0
  160.8130  202.7590  151.3380 O   0  0  0  0  0  1  0  0  0  0  0  0
  160.4790  204.0080  149.3260 C   0  0  0  0  0  2  0  0  0  0  0  0
  161.3540  202.9150  148.7420 C   0  0  0  0  0  2  0  0  0  0  0  0
  161.4770  203.0750  147.2380 C   0  0  0  0  0  2  0  0  0  0  0  0
  162.7740  204.4090  145.6240 C   0  0  0  0  0  2  0  0  0  0  0  0
  161.3580  204.9470  145.6270 C   0  0  0  0  0  2  0  0  0  0  0  0
  161.9860  204.4650  146.9180 C   0  0  0  0  0  3  0  0  0  0  0  0
  159.7420  210.6330  154.5820 C   0  0  0  0  0  2  0  0  0  0  0  0
  162.2060  209.2260  157.2610 C   0  0  0  0  0  3  0  0  0  0  0  0
  161.0830  208.4730  157.2090 N   0  0  0  0  0  0  0  0  0  0  0  0
  160.5380  210.0300  155.6940 C   0  0  0  0  0  0  0  0  0  0  0  0
  162.0740  210.5110  156.1770 S   0  0  0  0  0  0  0  0  0  0  0  0
  160.1700  208.9060  156.3400 N   0  0  0  0  0  0  0  0  0  0  0  0
  1  4  1  0  0  0  0
  2  9  1  1  0  0  0
  2  7  1  0  0  0  0
  2 10  1  0  0  0  0
  3 11  1  0  0  0  0
  4 11  2  0  0  0  0
  5  3  2  0  0  0  0
  6  1  1  0  0  0  0
  6 15  1  0  0  0  0
  7  8  1  0  0  0  0
  8  5  1  0  0  0  0
  8  1  2  0  0  0  0
 10  6  1  0  0  0  0
 11 27  1  0  0  0  0
 12 14  1  0  0  0  0
 12  7  2  0  0  0  0
 13  5  1  0  0  0  0
 14 13  2  0  0  0  0
 15 16  1  1  0  0  0
 17 15  1  0  0  0  0
 17 18  1  1  0  0  0
 19 17  1  0  0  0  0
 19 20  1  6  0  0  0
 21 19  1  0  0  0  0
 22 21  1  0  0  0  0
 23 22  1  0  0  0  0
 24 25  1  0  0  0  0
 24 26  1  0  0  0  0
 25 26  1  0  0  0  0
 26 23  1  0  0  0  0
 27 30  1  0  0  0  0
 29 28  2  0  0  0  0
 30 31  1  0  0  0  0
 30 32  2  0  0  0  0
 31 28  1  0  0  0  0
 32 29  1  0  0  0  0
M  END
>  <MODEL>
5

>  <REMARK>
 VINA RESULT:      -7.2      1.658      2.369
  Name = 
  9 active torsions:
  status: ('A' for Active; 'I' for Inactive)
    1  A    between atoms: C_2  and  C_12
    2  A    between atoms: C_2  and  C_26
    3  A    between atoms: C_4  and  C_27
    4  A    between atoms: C_4  and  C_32
    5  A    between atoms: C_5  and  N_19
    6  A    between atoms: C_5  and  C_27
    7  A    between atoms: C_15  and  C_17
    8  A    between atoms: C_15  and  C_32
    9  A    between atoms: C_17  and  C_18
                            x       y       z     vdW  Elec       q    Type
                         _______ _______ _______ _____ _____    ______ ____

>  <TORSDO>
F 9

$$$$
=
 OpenBabel11072410293D

 32 36  0  0  1  0  0  0  0  0999 V2000
  160.2460  210.6660  153.1470 C   0  0  0  0  0  0  0  0  0  0  0  0
  160.2680  208.9770  155.3820 C   0  0  2  0  0  3  0  0  0  0  0  0
  159.2290  213.2420  153.2290 N   0  0  0  0  0  0  0  0  0  0  0  0
  160.3220  211.4830  152.0120 C   0  0  0  0  0  3  0  0  0  0  0  0
  159.1560  212.4600  154.3400 C   0  0  0  0  0  0  0  0  0  0  0  0
  160.7550  209.3220  153.1880 N   0  0  0  0  0  0  0  0  0  0  0  0
  159.6430  210.3520  155.4460 C   0  0  0  0  0  0  0  0  0  0  0  0
  159.6750  211.1600  154.3100 C   0  0  0  0  0  0  0  0  0  0  0  0
  161.6940  208.9860  155.9150 C   0  0  0  0  0  1  0  0  0  0  0  0
  160.1980  208.4310  154.0690 O   0  0  0  0  0  0  0  0  0  0  0  0
  159.8000  212.7830  152.0750 C   0  0  0  0  0  0  0  0  0  0  0  0
  159.0700  210.8600  156.6150 C   0  0  0  0  0  3  0  0  0  0  0  0
  158.5860  212.9290  155.5270 C   0  0  0  0  0  3  0  0  0  0  0  0
  158.5560  212.1240  156.6270 N   0  0  0  0  0  0  0  0  0  0  0  0
  161.7770  208.8860  152.2400 C   0  0  2  0  0  3  0  0  0  0  0  0
  162.6070  210.0750  151.7730 C   0  0  0  0  0  1  0  0  0  0  0  0
  161.1550  208.1020  151.0810 C   0  0  1  0  0  3  0  0  0  0  0  0
  161.7770  208.4070  149.8640 O   0  0  0  0  0  1  0  0  0  0  0  0
  161.1510  206.5990  151.3470 C   0  0  2  0  0  3  0  0  0  0  0  0
  162.3590  206.1950  151.9220 O   0  0  0  0  0  1  0  0  0  0  0  0
  160.9170  205.8420  150.0460 C   0  0  0  0  0  2  0  0  0  0  0  0
  160.5520  204.3950  150.3160 C   0  0  0  0  0  2  0  0  0  0  0  0
  161.0240  203.5050  149.1810 C   0  0  0  0  0  2  0  0  0  0  0  0
  161.1530  201.1280  148.5470 C   0  0  0  0  0  2  0  0  0  0  0  0
  161.1450  201.1960  150.0590 C   0  0  0  0  0  2  0  0  0  0  0  0
  160.3110  202.1700  149.2550 C   0  0  0  0  0  3  0  0  0  0  0  0
  159.8670  213.6590  150.8700 C   0  0  0  0  0  2  0  0  0  0  0  0
  156.9880  213.4330  148.2460 C   0  0  0  0  0  3  0  0  0  0  0  0
  156.4870  213.4130  149.5020 N   0  0  0  0  0  0  0  0  0  0  0  0
  158.6710  213.4830  149.9930 C   0  0  0  0  0  0  0  0  0  0  0  0
  158.6720  213.4960  148.3130 S   0  0  0  0  0  0  0  0  0  0  0  0
  157.4090  213.4520  150.4640 N   0  0  0  0  0  0  0  0  0  0  0  0
  1  6  1  0  0  0  0
  1  8  1  0  0  0  0
  2  7  1  0  0  0  0
  2  9  1  6  0  0  0
  3  5  1  0  0  0  0
  4 11  1  0  0  0  0
  4  1  2  0  0  0  0
  5 13  1  0  0  0  0
  6 10  1  0  0  0  0
  7 12  2  0  0  0  0
  8  5  2  0  0  0  0
  8  7  1  0  0  0  0
 10  2  1  0  0  0  0
 11  3  2  0  0  0  0
 12 14  1  0  0  0  0
 13 14  2  0  0  0  0
 15 16  1  6  0  0  0
 15  6  1  0  0  0  0
 17 18  1  6  0  0  0
 17 19  1  0  0  0  0
 17 15  1  0  0  0  0
 19 20  1  6  0  0  0
 21 22  1  0  0  0  0
 21 19  1  0  0  0  0
 23 26  1  0  0  0  0
 23 22  1  0  0  0  0
 24 26  1  0  0  0  0
 24 25  1  0  0  0  0
 26 25  1  0  0  0  0
 27 11  1  0  0  0  0
 28 31  1  0  0  0  0
 28 29  2  0  0  0  0
 29 32  1  0  0  0  0
 30 32  2  0  0  0  0
 30 27  1  0  0  0  0
 31 30  1  0  0  0  0
M  END
>  <MODEL>
6

>  <REMARK>
 VINA RESULT:      -7.0      3.681      6.561
  Name = 
  9 active torsions:
  status: ('A' for Active; 'I' for Inactive)
    1  A    between atoms: C_2  and  C_12
    2  A    between atoms: C_2  and  C_26
    3  A    between atoms: C_4  and  C_27
    4  A    between atoms: C_4  and  C_32
    5  A    between atoms: C_5  and  N_19
    6  A    between atoms: C_5  and  C_27
    7  A    between atoms: C_15  and  C_17
    8  A    between atoms: C_15  and  C_32
    9  A    between atoms: C_17  and  C_18
                            x       y       z     vdW  Elec       q    Type
                         _______ _______ _______ _____ _____    ______ ____

>  <TORSDO>
F 9

$$$$
=
 OpenBabel11072410293D

 32 36  0  0  1  0  0  0  0  0999 V2000
  161.2630  208.7850  152.0690 C   0  0  0  0  0  0  0  0  0  0  0  0
  162.3210  208.1570  149.5530 C   0  0  2  0  0  3  0  0  0  0  0  0
  160.4430  211.3430  152.7510 N   0  0  0  0  0  0  0  0  0  0  0  0
  160.6830  209.0230  153.3220 C   0  0  0  0  0  3  0  0  0  0  0  0
  160.9970  211.1240  151.5270 C   0  0  0  0  0  0  0  0  0  0  0  0
  161.7080  207.4890  151.6380 N   0  0  0  0  0  0  0  0  0  0  0  0
  161.9470  209.5760  149.9120 C   0  0  0  0  0  0  0  0  0  0  0  0
  161.4070  209.8330  151.1720 C   0  0  0  0  0  0  0  0  0  0  0  0
  161.2070  207.4650  148.7780 C   0  0  0  0  0  1  0  0  0  0  0  0
  162.7070  207.4100  150.7020 O   0  0  0  0  0  0  0  0  0  0  0  0
  160.2760  210.3250  153.6460 C   0  0  0  0  0  0  0  0  0  0  0  0
  162.0840  210.6370  149.0130 C   0  0  0  0  0  3  0  0  0  0  0  0
  161.1580  212.1580  150.6020 C   0  0  0  0  0  3  0  0  0  0  0  0
  161.6940  211.8930  149.3760 N   0  0  0  0  0  0  0  0  0  0  0  0
  161.1760  206.2770  152.2580 C   0  0  2  0  0  3  0  0  0  0  0  0
  161.5460  206.2310  153.7340 C   0  0  0  0  0  1  0  0  0  0  0  0
  161.6230  205.0270  151.4930 C   0  0  1  0  0  3  0  0  0  0  0  0
  162.7750  204.4660  152.0570 O   0  0  0  0  0  1  0  0  0  0  0  0
  160.4990  204.0000  151.3750 C   0  0  2  0  0  3  0  0  0  0  0  0
  160.6640  202.9770  152.3130 O   0  0  0  0  0  1  0  0  0  0  0  0
  160.4760  203.4160  149.9690 C   0  0  0  0  0  2  0  0  0  0  0  0
  161.2060  204.3190  148.9920 C   0  0  0  0  0  2  0  0  0  0  0  0
  161.5390  203.5670  147.7170 C   0  0  0  0  0  2  0  0  0  0  0  0
  162.7040  204.5230  145.7680 C   0  0  0  0  0  2  0  0  0  0  0  0
  161.5420  203.7030  145.2480 C   0  0  0  0  0  2  0  0  0  0  0  0
  161.3930  204.4950  146.5290 C   0  0  0  0  0  3  0  0  0  0  0  0
  159.6660  210.5900  154.9810 C   0  0  0  0  0  2  0  0  0  0  0  0
  156.8590  213.3000  155.0230 C   0  0  0  0  0  3  0  0  0  0  0  0
  156.3370  212.0810  154.7510 N   0  0  0  0  0  0  0  0  0  0  0  0
  158.5020  211.5210  154.8810 C   0  0  0  0  0  0  0  0  0  0  0  0
  158.5320  213.1720  155.1860 S   0  0  0  0  0  0  0  0  0  0  0  0
  157.2360  211.1000  154.6840 N   0  0  0  0  0  0  0  0  0  0  0  0
  1  4  1  0  0  0  0
  2  9  1  1  0  0  0
  2  7  1  0  0  0  0
  2 10  1  0  0  0  0
  3 11  1  0  0  0  0
  4 11  2  0  0  0  0
  5  3  2  0  0  0  0
  6  1  1  0  0  0  0
  6 15  1  0  0  0  0
  7  8  1  0  0  0  0
  8  5  1  0  0  0  0
  8  1  2  0  0  0  0
 10  6  1  0  0  0  0
 11 27  1  0  0  0  0
 12 14  1  0  0  0  0
 12  7  2  0  0  0  0
 13  5  1  0  0  0  0
 14 13  2  0  0  0  0
 15 16  1  1  0  0  0
 17 18  1  1  0  0  0
 17 15  1  0  0  0  0
 19 17  1  0  0  0  0
 19 20  1  1  0  0  0
 21 19  1  0  0  0  0
 22 21  1  0  0  0  0
 23 22  1  0  0  0  0
 24 26  1  0  0  0  0
 25 24  1  0  0  0  0
 25 26  1  0  0  0  0
 26 23  1  0  0  0  0
 28 31  1  0  0  0  0
 29 28  2  0  0  0  0
 30 27  1  0  0  0  0
 30 31  1  0  0  0  0
 32 29  1  0  0  0  0
 32 30  2  0  0  0  0
M  END
>  <MODEL>
7

>  <REMARK>
 VINA RESULT:      -6.9      2.403      3.023
  Name = 
  9 active torsions:
  status: ('A' for Active; 'I' for Inactive)
    1  A    between atoms: C_2  and  C_12
    2  A    between atoms: C_2  and  C_26
    3  A    between atoms: C_4  and  C_27
    4  A    between atoms: C_4  and  C_32
    5  A    between atoms: C_5  and  N_19
    6  A    between atoms: C_5  and  C_27
    7  A    between atoms: C_15  and  C_17
    8  A    between atoms: C_15  and  C_32
    9  A    between atoms: C_17  and  C_18
                            x       y       z     vdW  Elec       q    Type
                         _______ _______ _______ _____ _____    ______ ____

>  <TORSDO>
F 9

$$$$
=
 OpenBabel11072410293D

 32 36  0  0  1  0  0  0  0  0999 V2000
  161.2670  206.8810  150.7500 C   0  0  0  0  0  0  0  0  0  0  0  0
  161.6380  206.2630  153.4570 C   0  0  2  0  0  3  0  0  0  0  0  0
  160.5960  204.9710  148.8570 N   0  0  0  0  0  0  0  0  0  0  0  0
  161.0330  207.2640  149.4230 C   0  0  0  0  0  3  0  0  0  0  0  0
  160.8130  204.5880  150.1450 C   0  0  0  0  0  0  0  0  0  0  0  0
  161.6130  207.8100  151.7910 N   0  0  0  0  0  0  0  0  0  0  0  0
  161.3390  205.1840  152.4420 C   0  0  0  0  0  0  0  0  0  0  0  0
  161.1450  205.5470  151.1100 C   0  0  0  0  0  0  0  0  0  0  0  0
  160.3770  206.7150  154.1790 C   0  0  0  0  0  1  0  0  0  0  0  0
  162.3320  207.3580  152.8680 O   0  0  0  0  0  0  0  0  0  0  0  0
  160.6960  206.2810  148.4820 C   0  0  0  0  0  0  0  0  0  0  0  0
  161.2090  203.8380  152.7950 C   0  0  0  0  0  3  0  0  0  0  0  0
  160.6990  203.2520  150.5390 C   0  0  0  0  0  3  0  0  0  0  0  0
  160.9000  202.9110  151.8440 N   0  0  0  0  0  0  0  0  0  0  0  0
  161.2920  209.2280  151.6570 C   0  0  2  0  0  3  0  0  0  0  0  0
  162.2790  209.9080  150.7170 C   0  0  0  0  0  1  0  0  0  0  0  0
  161.2130  209.9070  153.0280 C   0  0  1  0  0  3  0  0  0  0  0  0
  162.3790  210.6300  153.3100 O   0  0  0  0  0  1  0  0  0  0  0  0
  159.9670  210.7780  153.1620 C   0  0  2  0  0  3  0  0  0  0  0  0
  160.3160  212.1280  153.2590 O   0  0  0  0  0  1  0  0  0  0  0  0
  159.1700  210.3590  154.3890 C   0  0  0  0  0  2  0  0  0  0  0  0
  159.6160  211.1300  155.6180 C   0  0  0  0  0  2  0  0  0  0  0  0
  160.0890  210.1800  156.7020 C   0  0  0  0  0  2  0  0  0  0  0  0
  162.4530  209.7650  157.2590 C   0  0  0  0  0  2  0  0  0  0  0  0
  161.7430  208.4280  157.2610 C   0  0  0  0  0  2  0  0  0  0  0  0
  161.3570  209.4860  156.2490 C   0  0  0  0  0  3  0  0  0  0  0  0
  160.4530  206.6770  147.0650 C   0  0  0  0  0  2  0  0  0  0  0  0
  162.6870  204.4410  144.7780 C   0  0  0  0  0  3  0  0  0  0  0  0
  161.5470  204.7830  144.1370 N   0  0  0  0  0  0  0  0  0  0  0  0
  161.1540  205.7670  146.1100 C   0  0  0  0  0  0  0  0  0  0  0  0
  162.6690  205.0780  146.3390 S   0  0  0  0  0  0  0  0  0  0  0  0
  160.7070  205.5220  144.8620 N   0  0  0  0  0  0  0  0  0  0  0  0
  1  8  1  0  0  0  0
  1  6  1  0  0  0  0
  2  9  1  6  0  0  0
  3  5  1  0  0  0  0
  4  1  2  0  0  0  0
  5 13  2  0  0  0  0
  5  8  1  0  0  0  0
  6 10  1  0  0  0  0
  7 12  1  0  0  0  0
  7  2  1  0  0  0  0
  8  7  2  0  0  0  0
 10  2  1  0  0  0  0
 11  3  2  0  0  0  0
 11  4  1  0  0  0  0
 13 14  1  0  0  0  0
 14 12  2  0  0  0  0
 15 16  1  6  0  0  0
 15  6  1  0  0  0  0
 15 17  1  0  0  0  0
 17 19  1  0  0  0  0
 17 18  1  6  0  0  0
 19 20  1  1  0  0  0
 19 21  1  0  0  0  0
 21 22  1  0  0  0  0
 22 23  1  0  0  0  0
 24 25  1  0  0  0  0
 26 23  1  0  0  0  0
 26 24  1  0  0  0  0
 26 25  1  0  0  0  0
 27 11  1  0  0  0  0
 28 31  1  0  0  0  0
 29 28  2  0  0  0  0
 29 32  1  0  0  0  0
 30 31  1  0  0  0  0
 30 27  1  0  0  0  0
 32 30  2  0  0  0  0
M  END
>  <MODEL>
8

>  <REMARK>
 VINA RESULT:      -6.9      3.465      8.817
  Name = 
  9 active torsions:
  status: ('A' for Active; 'I' for Inactive)
    1  A    between atoms: C_2  and  C_12
    2  A    between atoms: C_2  and  C_26
    3  A    between atoms: C_4  and  C_27
    4  A    between atoms: C_4  and  C_32
    5  A    between atoms: C_5  and  N_19
    6  A    between atoms: C_5  and  C_27
    7  A    between atoms: C_15  and  C_17
    8  A    between atoms: C_15  and  C_32
    9  A    between atoms: C_17  and  C_18
                            x       y       z     vdW  Elec       q    Type
                         _______ _______ _______ _____ _____    ______ ____

>  <TORSDO>
F 9

$$$$
=
 OpenBabel11072410293D

 32 36  0  0  1  0  0  0  0  0999 V2000
  161.1060  207.2610  152.0050 C   0  0  0  0  0  0  0  0  0  0  0  0
  161.4830  210.0290  151.7890 C   0  0  2  0  0  3  0  0  0  0  0  0
  161.4560  205.5320  149.8680 N   0  0  0  0  0  0  0  0  0  0  0  0
  160.9640  205.8810  152.1930 C   0  0  0  0  0  3  0  0  0  0  0  0
  161.6040  206.8710  149.6740 C   0  0  0  0  0  0  0  0  0  0  0  0
  160.9480  208.2230  153.0620 N   0  0  0  0  0  0  0  0  0  0  0  0
  161.6170  209.1240  150.5850 C   0  0  0  0  0  0  0  0  0  0  0  0
  161.4370  207.7520  150.7510 C   0  0  0  0  0  0  0  0  0  0  0  0
  162.8380  210.3290  152.4150 C   0  0  0  0  0  1  0  0  0  0  0  0
  160.5660  209.5000  152.7420 O   0  0  0  0  0  0  0  0  0  0  0  0
  161.1450  205.0240  151.0980 C   0  0  0  0  0  0  0  0  0  0  0  0
  161.9550  209.6080  149.3180 C   0  0  0  0  0  3  0  0  0  0  0  0
  161.9350  207.3960  148.4230 C   0  0  0  0  0  3  0  0  0  0  0  0
  162.1010  208.7420  148.2750 N   0  0  0  0  0  0  0  0  0  0  0  0
  161.0920  207.8210  154.4590 C   0  0  2  0  0  3  0  0  0  0  0  0
  160.3430  206.5200  154.7160 C   0  0  0  0  0  1  0  0  0  0  0  0
  160.6660  208.9500  155.4030 C   0  0  1  0  0  3  0  0  0  0  0  0
  159.7820  208.4880  156.3870 O   0  0  0  0  0  1  0  0  0  0  0  0
  161.8670  209.6620  156.0180 C   0  0  2  0  0  3  0  0  0  0  0  0
  162.3250  208.9750  157.1460 O   0  0  0  0  0  1  0  0  0  0  0  0
  161.4870  211.0870  156.3970 C   0  0  0  0  0  2  0  0  0  0  0  0
  160.6620  211.7400  155.3040 C   0  0  0  0  0  2  0  0  0  0  0  0
  159.4580  212.4500  155.8960 C   0  0  0  0  0  2  0  0  0  0  0  0
  157.1420  212.4430  155.0570 C   0  0  0  0  0  2  0  0  0  0  0  0
  157.9320  211.4560  154.2230 C   0  0  0  0  0  2  0  0  0  0  0  0
  158.2220  211.5970  155.7030 C   0  0  0  0  0  3  0  0  0  0  0  0
  160.9870  203.5530  151.2850 C   0  0  0  0  0  2  0  0  0  0  0  0
  160.8300  201.2910  148.1090 C   0  0  0  0  0  3  0  0  0  0  0  0
  161.1630  202.5580  147.7720 N   0  0  0  0  0  0  0  0  0  0  0  0
  160.8860  202.8380  149.9770 C   0  0  0  0  0  0  0  0  0  0  0  0
  160.5640  201.2020  149.7710 S   0  0  0  0  0  0  0  0  0  0  0  0
  161.2060  203.4080  148.7980 N   0  0  0  0  0  0  0  0  0  0  0  0
  1  4  1  0  0  0  0
  1  6  1  0  0  0  0
  2  9  1  1  0  0  0
  2 10  1  0  0  0  0
  3 11  1  0  0  0  0
  5  3  2  0  0  0  0
  5  8  1  0  0  0  0
  6 15  1  0  0  0  0
  7  8  1  0  0  0  0
  7  2  1  0  0  0  0
  8  1  2  0  0  0  0
 10  6  1  0  0  0  0
 11 27  1  0  0  0  0
 11  4  2  0  0  0  0
 12  7  2  0  0  0  0
 13  5  1  0  0  0  0
 14 13  2  0  0  0  0
 14 12  1  0  0  0  0
 15 16  1  6  0  0  0
 15 17  1  0  0  0  0
 17 19  1  0  0  0  0
 17 18  1  1  0  0  0
 19 21  1  0  0  0  0
 19 20  1  1  0  0  0
 22 23  1  0  0  0  0
 22 21  1  0  0  0  0
 24 26  1  0  0  0  0
 25 24  1  0  0  0  0
 25 26  1  0  0  0  0
 26 23  1  0  0  0  0
 28 31  1  0  0  0  0
 29 28  2  0  0  0  0
 29 32  1  0  0  0  0
 30 27  1  0  0  0  0
 31 30  1  0  0  0  0
 32 30  2  0  0  0  0
M  END
>  <MODEL>
9

>  <REMARK>
 VINA RESULT:      -6.5      3.518      8.286
  Name = 
  9 active torsions:
  status: ('A' for Active; 'I' for Inactive)
    1  A    between atoms: C_2  and  C_12
    2  A    between atoms: C_2  and  C_26
    3  A    between atoms: C_4  and  C_27
    4  A    between atoms: C_4  and  C_32
    5  A    between atoms: C_5  and  N_19
    6  A    between atoms: C_5  and  C_27
    7  A    between atoms: C_15  and  C_17
    8  A    between atoms: C_15  and  C_32
    9  A    between atoms: C_17  and  C_18
                            x       y       z     vdW  Elec       q    Type
                         _______ _______ _______ _____ _____    ______ ____

>  <TORSDO>
F 9

$$$$
