=
 OpenBabel11072414563D

 57 66  0  0  1  0  0  0  0  0999 V2000
  160.1190  213.5390  142.7280 C   0  0  2  0  0  3  0  0  0  0  0  0
  161.8540  214.4530  146.5720 C   0  0  0  0  0  2  0  0  0  0  0  0
  158.5260  213.8430  146.0470 C   0  0  1  0  0  3  0  0  0  0  0  0
  160.8490  212.5940  149.1040 C   0  0  1  0  0  3  0  0  0  0  0  0
  160.5690  212.1180  143.0460 C   0  0  2  0  0  3  0  0  0  0  0  0
  164.0830  211.6390  145.9810 O   0  0  0  0  0  1  0  0  0  0  0  0
  161.4600  210.8640  146.4050 O   0  0  0  0  0  0  0  0  0  0  0  0
  159.1680  212.6080  145.7890 O   0  0  0  0  0  0  0  0  0  0  0  0
  156.7840  212.6360  147.2260 C   0  0  2  0  0  3  0  0  0  0  0  0
  163.2260  212.3980  146.7850 C   0  0  2  0  0  0  0  0  0  0  0  0
  164.0420  212.9110  147.9670 C   0  0  0  0  0  1  0  0  0  0  0  0
  162.3470  213.5890  143.4860 C   0  0  1  0  0  3  0  0  0  0  0  0
  161.9450  211.2410  141.3590 C   0  0  1  0  0  3  0  0  0  0  0  0
  156.9180  212.0360  145.9590 O   0  0  0  0  0  0  0  0  0  0  0  0
  155.4810  213.1020  147.3870 O   0  0  0  0  0  1  0  0  0  0  0  0
  158.6720  213.7180  148.5750 C   0  0  2  0  0  3  0  0  0  0  0  0
  163.2700  213.9290  144.6580 C   0  0  0  0  0  2  0  0  0  0  0  0
  161.9660  212.1760  143.4900 N   0  0  2  0  0  0  0  0  0  0  0  0
  157.8790  212.7820  145.2610 C   0  0  1  0  0  0  0  0  0  0  0  0
  161.6790  211.3920  148.6800 C   0  0  0  0  0  2  0  0  0  0  0  0
  162.0850  211.5050  147.2380 C   0  0  0  0  0  0  0  0  0  0  0  0
  162.6910  213.5810  146.0010 C   0  0  0  0  0  0  0  0  0  0  0  0
  160.5150  211.2700  141.8060 C   0  0  0  0  0  2  0  0  0  0  0  0
  157.8550  212.7580  143.7340 C   0  0  0  0  0  2  0  0  0  0  0  0
  157.7630  213.7980  147.3430 C   0  0  1  0  0  3  0  0  0  0  0  0
  161.0880  214.4230  143.4620 C   0  0  0  0  0  2  0  0  0  0  0  0
  159.3960  212.3800  148.7010 C   0  0  0  0  0  2  0  0  0  0  0  0
  157.9260  213.9580  149.7300 O   0  0  0  0  0  1  0  0  0  0  0  0
  162.7680  211.5220  142.5300 N   0  0  0  0  0  2  0  0  0  0  0  0
  158.6650  213.8910  143.0790 C   0  0  2  0  0  3  0  0  0  0  0  0
  155.7930  214.3860  140.5500 C   0  0  0  0  0  2  0  0  0  0  0  0
  158.4530  212.4410  138.6980 O   0  0  0  0  0  1  0  0  0  0  0  0
  157.7870  212.9170  139.8310 C   0  0  2  0  0  3  0  0  0  0  0  0
  156.3600  213.4140  139.5000 C   0  0  2  0  0  3  0  0  0  0  0  0
  157.9570  214.4530  141.8460 C   0  0  1  0  0  3  0  0  0  0  0  0
  158.6150  213.9950  140.5260 C   0  0  0  0  0  2  0  0  0  0  0  0
  156.4420  214.1870  141.9160 C   0  0  0  0  0  2  0  0  0  0  0  0
  156.2290  214.0190  138.1010 C   0  0  0  0  0  2  0  0  0  0  0  0
  154.9070  214.3710  137.8330 O   0  0  0  0  0  1  0  0  0  0  0  0
  162.2870  209.9080  140.7900 C   0  0  0  0  0  0  0  0  0  0  0  0
  161.3220  209.1500  140.1390 O   0  0  0  0  0  0  0  0  0  0  0  0
  163.4630  209.4710  140.8860 O   0  0  0  0  0  1  0  0  0  0  0  0
  159.9890  211.9320  151.2940 N   0  0  0  0  0  0  0  0  0  0  0  0
  160.9710  212.7850  150.6080 C   0  0  2  0  0  3  0  0  0  0  0  0
  159.7390  213.3690  151.1270 C   0  0  0  0  0  2  0  0  0  0  0  0
  160.4630  211.7610  152.6540 C   0  0  0  0  0  2  0  0  0  0  0  0
  161.3900  210.5510  152.7250 C   0  0  0  0  0  2  0  0  0  0  0  0
  160.6550  209.2850  153.1730 C   0  0  1  0  0  3  0  0  0  0  0  0
  161.4170  208.7120  150.8610 C   0  0  2  0  0  3  0  0  0  0  0  0
  162.2160  207.8900  151.8340 C   0  0  1  0  0  3  0  0  0  0  0  0
  160.7560  208.1880  152.1210 C   0  0  1  0  0  3  0  0  0  0  0  0
  162.3730  207.6520  150.3470 C   0  0  0  0  0  2  0  0  0  0  0  0
  161.1780  208.8050  154.5360 C   0  0  2  0  0  3  0  0  0  0  0  0
  160.1840  207.8670  155.2000 C   0  0  0  0  0  2  0  0  0  0  0  0
  160.3580  209.2760  155.7500 C   0  0  2  0  0  3  0  0  0  0  0  0
  159.1130  210.0860  155.4100 C   0  0  0  0  0  2  0  0  0  0  0  0
  158.8090  211.0430  156.5390 C   0  0  0  0  0  1  0  0  0  0  0  0
  1  5  1  0  0  0  0
  1 30  1  0  0  0  0
  1 26  1  1  0  0  0
  3  8  1  1  0  0  0
  3 25  1  0  0  0  0
  4 20  1  1  0  0  0
  4 44  1  0  0  0  0
  5 23  1  6  0  0  0
  5 18  1  0  0  0  0
  6 10  1  0  0  0  0
  7 21  2  0  0  0  0
  9 25  1  0  0  0  0
  9 15  1  6  0  0  0
 10 21  1  0  0  0  0
 10 11  1  1  0  0  0
 12 26  1  1  0  0  0
 12 18  1  0  0  0  0
 12 17  1  0  0  0  0
 13 40  1  1  0  0  0
 13 23  1  0  0  0  0
 13 29  1  0  0  0  0
 14  9  1  0  0  0  0
 16 27  1  0  0  0  0
 16 28  1  1  0  0  0
 17 22  1  0  0  0  0
 18 29  1  6  0  0  0
 19 24  1  6  0  0  0
 19  8  1  0  0  0  0
 19 14  1  0  0  0  0
 19  3  1  0  0  0  0
 21 20  1  0  0  0  0
 22  2  2  0  0  0  0
 22 10  1  0  0  0  0
 25 16  1  0  0  0  0
 27  4  1  0  0  0  0
 30 24  1  0  0  0  0
 31 37  1  0  0  0  0
 32 33  1  0  0  0  0
 33 36  1  0  0  0  0
 34 33  1  0  0  0  0
 34 31  1  0  0  0  0
 35 37  1  0  0  0  0
 35 30  1  0  0  0  0
 36 35  1  0  0  0  0
 38 34  1  0  0  0  0
 39 38  1  0  0  0  0
 40 42  1  0  0  0  0
 41 40  2  0  0  0  0
 43 46  1  0  0  0  0
 44 45  1  0  0  0  0
 44 43  1  0  0  0  0
 45 43  1  0  0  0  0
 46 47  1  0  0  0  0
 47 48  1  0  0  0  0
 48 53  1  0  0  0  0
 49 50  1  0  0  0  0
 49 51  1  0  0  0  0
 50 51  1  0  0  0  0
 51 48  1  0  0  0  0
 52 49  1  0  0  0  0
 52 50  1  0  0  0  0
 53 54  1  0  0  0  0
 53 55  1  0  0  0  0
 54 55  1  0  0  0  0
 56 55  1  0  0  0  0
 56 57  1  0  0  0  0
M  END
>  <MODEL>
1

>  <REMARK>
 VINA RESULT:       5.3      0.000      0.000
  Name = 
  10 active torsions:
  status: ('A' for Active; 'I' for Inactive)
    1  A    between atoms: C_1  and  C_23
    2  A    between atoms: C_4  and  N_5
    3  A    between atoms: C_4  and  C_7
    4  A    between atoms: C_7  and  C_43
    5  A    between atoms: C_11  and  C_32
    6  A    between atoms: C_13  and  C_35
    7  A    between atoms: C_16  and  C_45
    8  A    between atoms: C_30  and  C_43
    9  A    between atoms: C_37  and  C_43
   10  A    between atoms: C_38  and  C_57
                            x       y       z     vdW  Elec       q    Type
                         _______ _______ _______ _____ _____    ______ ____

>  <TORSDO>
F 10

$$$$
=
 OpenBabel11072414563D

 57 66  0  0  1  0  0  0  0  0999 V2000
  159.8640  213.4370  142.3150 C   0  0  2  0  0  3  0  0  0  0  0  0
  161.7580  214.4530  146.0570 C   0  0  0  0  0  2  0  0  0  0  0  0
  158.3830  214.0560  145.6430 C   0  0  1  0  0  3  0  0  0  0  0  0
  160.6890  212.8270  148.7200 C   0  0  1  0  0  3  0  0  0  0  0  0
  160.2190  212.0090  142.7120 C   0  0  2  0  0  3  0  0  0  0  0  0
  163.7650  211.4540  145.5940 O   0  0  0  0  0  1  0  0  0  0  0  0
  161.1060  210.8980  146.1220 O   0  0  0  0  0  0  0  0  0  0  0  0
  158.9280  212.7640  145.4480 O   0  0  0  0  0  0  0  0  0  0  0  0
  156.5900  213.0520  146.9320 C   0  0  2  0  0  3  0  0  0  0  0  0
  162.9860  212.3200  146.3680 C   0  0  2  0  0  0  0  0  0  0  0  0
  163.8670  212.8420  147.4980 C   0  0  0  0  0  1  0  0  0  0  0  0
  162.1090  213.3710  143.0210 C   0  0  1  0  0  3  0  0  0  0  0  0
  161.4850  210.9350  141.0520 C   0  0  1  0  0  3  0  0  0  0  0  0
  156.6490  212.3680  145.7010 O   0  0  0  0  0  0  0  0  0  0  0  0
  155.3290  213.6190  147.0910 O   0  0  0  0  0  1  0  0  0  0  0  0
  158.5850  214.0730  148.1710 C   0  0  2  0  0  3  0  0  0  0  0  0
  163.0830  213.7130  144.1490 C   0  0  0  0  0  2  0  0  0  0  0  0
  161.6270  211.9920  143.1200 N   0  0  2  0  0  0  0  0  0  0  0  0
  157.6420  212.9990  144.9380 C   0  0  1  0  0  0  0  0  0  0  0  0
  161.4210  211.5440  148.3540 C   0  0  0  0  0  2  0  0  0  0  0  0
  161.7960  211.5400  146.8990 C   0  0  0  0  0  0  0  0  0  0  0  0
  162.5160  213.4890  145.5230 C   0  0  0  0  0  0  0  0  0  0  0  0
  160.0730  211.0940  141.5280 C   0  0  0  0  0  2  0  0  0  0  0  0
  157.5770  212.8840  143.4160 C   0  0  0  0  0  2  0  0  0  0  0  0
  157.6520  214.1440  146.9550 C   0  0  1  0  0  3  0  0  0  0  0  0
  160.9110  214.2910  142.9730 C   0  0  0  0  0  2  0  0  0  0  0  0
  159.2150  212.6960  148.3630 C   0  0  0  0  0  2  0  0  0  0  0  0
  157.8880  214.4350  149.3240 O   0  0  0  0  0  1  0  0  0  0  0  0
  162.3560  211.2240  142.1850 N   0  0  0  0  0  2  0  0  0  0  0  0
  158.4470  213.9140  142.6750 C   0  0  2  0  0  3  0  0  0  0  0  0
  155.6090  214.3300  140.0940 C   0  0  0  0  0  2  0  0  0  0  0  0
  158.3370  212.4200  138.3060 O   0  0  0  0  0  1  0  0  0  0  0  0
  157.6430  212.8930  139.4220 C   0  0  2  0  0  3  0  0  0  0  0  0
  156.2130  213.3590  139.0630 C   0  0  2  0  0  3  0  0  0  0  0  0
  157.7500  214.4510  141.4260 C   0  0  1  0  0  3  0  0  0  0  0  0
  158.4390  213.9940  140.1210 C   0  0  0  0  0  2  0  0  0  0  0  0
  156.2400  214.1560  141.4720 C   0  0  0  0  0  2  0  0  0  0  0  0
  156.0940  213.9490  137.6570 C   0  0  0  0  0  2  0  0  0  0  0  0
  154.7570  214.0720  137.2800 O   0  0  0  0  0  1  0  0  0  0  0  0
  161.7160  209.5480  140.5600 C   0  0  0  0  0  0  0  0  0  0  0  0
  161.0870  209.0950  139.4070 O   0  0  0  0  0  0  0  0  0  0  0  0
  162.4990  208.7860  141.1840 O   0  0  0  0  0  1  0  0  0  0  0  0
  159.6750  212.6320  150.9360 N   0  0  0  0  0  0  0  0  0  0  0  0
  160.8640  213.0990  150.2070 C   0  0  2  0  0  3  0  0  0  0  0  0
  159.8580  214.0600  150.6480 C   0  0  0  0  0  2  0  0  0  0  0  0
  160.0790  212.4430  152.3160 C   0  0  0  0  0  2  0  0  0  0  0  0
  159.1050  213.1700  153.2390 C   0  0  0  0  0  2  0  0  0  0  0  0
  158.7920  212.3620  154.5000 C   0  0  1  0  0  3  0  0  0  0  0  0
  156.9080  213.0270  156.0050 C   0  0  2  0  0  3  0  0  0  0  0  0
  156.6850  213.6690  154.6640 C   0  0  1  0  0  3  0  0  0  0  0  0
  157.2900  212.2800  154.7420 C   0  0  1  0  0  3  0  0  0  0  0  0
  155.6240  213.7910  155.7380 C   0  0  0  0  0  2  0  0  0  0  0  0
  159.4250  210.9640  154.4240 C   0  0  2  0  0  3  0  0  0  0  0  0
  159.0230  210.1190  155.6210 C   0  0  0  0  0  2  0  0  0  0  0  0
  160.4470  210.6510  155.5320 C   0  0  2  0  0  3  0  0  0  0  0  0
  160.6190  211.7480  156.5750 C   0  0  0  0  0  2  0  0  0  0  0  0
  161.9870  211.6320  157.2080 C   0  0  0  0  0  1  0  0  0  0  0  0
  1 30  1  0  0  0  0
  1  5  1  0  0  0  0
  1 26  1  1  0  0  0
  3  8  1  1  0  0  0
  3 25  1  0  0  0  0
  4 20  1  1  0  0  0
  4 44  1  0  0  0  0
  5 23  1  6  0  0  0
  5 18  1  0  0  0  0
  6 10  1  0  0  0  0
  7 21  2  0  0  0  0
  9 25  1  0  0  0  0
  9 15  1  6  0  0  0
 10 21  1  0  0  0  0
 10 11  1  1  0  0  0
 12 26  1  1  0  0  0
 12 18  1  0  0  0  0
 12 17  1  0  0  0  0
 13 40  1  1  0  0  0
 13 23  1  0  0  0  0
 13 29  1  0  0  0  0
 14  9  1  0  0  0  0
 16 27  1  0  0  0  0
 16 28  1  1  0  0  0
 17 22  1  0  0  0  0
 18 29  1  6  0  0  0
 19 24  1  6  0  0  0
 19  8  1  0  0  0  0
 19  3  1  0  0  0  0
 19 14  1  0  0  0  0
 21 20  1  0  0  0  0
 22  2  2  0  0  0  0
 22 10  1  0  0  0  0
 25 16  1  0  0  0  0
 27  4  1  0  0  0  0
 30 24  1  0  0  0  0
 31 37  1  0  0  0  0
 32 33  1  0  0  0  0
 33 36  1  0  0  0  0
 34 33  1  0  0  0  0
 34 31  1  0  0  0  0
 35 37  1  0  0  0  0
 35 30  1  0  0  0  0
 36 35  1  0  0  0  0
 38 34  1  0  0  0  0
 39 38  1  0  0  0  0
 40 42  1  0  0  0  0
 41 40  2  0  0  0  0
 43 46  1  0  0  0  0
 44 45  1  0  0  0  0
 44 43  1  0  0  0  0
 45 43  1  0  0  0  0
 46 47  1  0  0  0  0
 47 48  1  0  0  0  0
 48 51  1  0  0  0  0
 50 51  1  0  0  0  0
 50 52  1  0  0  0  0
 50 49  1  0  0  0  0
 51 49  1  0  0  0  0
 52 49  1  0  0  0  0
 53 48  1  0  0  0  0
 53 55  1  0  0  0  0
 53 54  1  0  0  0  0
 55 54  1  0  0  0  0
 55 56  1  0  0  0  0
 56 57  1  0  0  0  0
M  END
>  <MODEL>
2

>  <REMARK>
 VINA RESULT:       7.6      1.420      2.517
  Name = 
  10 active torsions:
  status: ('A' for Active; 'I' for Inactive)
    1  A    between atoms: C_1  and  C_23
    2  A    between atoms: C_4  and  N_5
    3  A    between atoms: C_4  and  C_7
    4  A    between atoms: C_7  and  C_43
    5  A    between atoms: C_11  and  C_32
    6  A    between atoms: C_13  and  C_35
    7  A    between atoms: C_16  and  C_45
    8  A    between atoms: C_30  and  C_43
    9  A    between atoms: C_37  and  C_43
   10  A    between atoms: C_38  and  C_57
                            x       y       z     vdW  Elec       q    Type
                         _______ _______ _______ _____ _____    ______ ____

>  <TORSDO>
F 10

$$$$
=
 OpenBabel11072414563D

 57 66  0  0  1  0  0  0  0  0999 V2000
  159.9510  210.8410  153.4960 C   0  0  2  0  0  3  0  0  0  0  0  0
  159.9220  207.4590  150.8160 C   0  0  0  0  0  2  0  0  0  0  0  0
  160.3440  210.7090  149.8250 C   0  0  1  0  0  3  0  0  0  0  0  0
  162.2660  207.4160  148.4970 C   0  0  1  0  0  3  0  0  0  0  0  0
  161.4150  210.4650  153.6910 C   0  0  2  0  0  3  0  0  0  0  0  0
  162.5800  206.0850  152.8840 O   0  0  0  0  0  1  0  0  0  0  0  0
  163.3820  208.3010  151.4330 O   0  0  0  0  0  0  0  0  0  0  0  0
  161.5050  210.4030  150.5750 O   0  0  0  0  0  0  0  0  0  0  0  0
  161.7460  211.8550  148.2110 C   0  0  2  0  0  3  0  0  0  0  0  0
  161.9980  206.3890  151.6500 C   0  0  2  0  0  0  0  0  0  0  0  0
  161.7680  205.0720  150.9150 C   0  0  0  0  0  1  0  0  0  0  0  0
  160.1060  208.5220  153.8730 C   0  0  1  0  0  3  0  0  0  0  0  0
  161.9300  210.1160  155.9540 C   0  0  1  0  0  3  0  0  0  0  0  0
  162.0610  212.3800  149.4810 O   0  0  0  0  0  0  0  0  0  0  0  0
  161.3040  212.8790  147.3780 O   0  0  0  0  0  1  0  0  0  0  0  0
  161.0160  209.4480  147.7300 C   0  0  2  0  0  3  0  0  0  0  0  0
  160.0440  207.1360  153.2290 C   0  0  0  0  0  2  0  0  0  0  0  0
  161.4790  209.0230  153.9500 N   0  0  2  0  0  0  0  0  0  0  0  0
  161.1980  211.7600  150.3970 C   0  0  1  0  0  0  0  0  0  0  0  0
  163.3630  207.0150  149.4720 C   0  0  0  0  0  2  0  0  0  0  0  0
  162.9480  207.2970  150.8890 C   0  0  0  0  0  0  0  0  0  0  0  0
  160.6640  207.0800  151.8610 C   0  0  0  0  0  0  0  0  0  0  0  0
  161.9730  211.1730  154.8930 C   0  0  0  0  0  2  0  0  0  0  0  0
  160.8910  212.4770  151.7110 C   0  0  0  0  0  2  0  0  0  0  0  0
  160.6560  210.8010  148.3560 C   0  0  1  0  0  3  0  0  0  0  0  0
  159.2640  209.5490  153.1520 C   0  0  0  0  0  2  0  0  0  0  0  0
  162.3620  208.9080  148.2050 C   0  0  0  0  0  2  0  0  0  0  0  0
  161.0180  209.5560  146.3380 O   0  0  0  0  0  1  0  0  0  0  0  0
  161.9250  208.8250  155.2760 N   0  0  0  0  0  2  0  0  0  0  0  0
  159.6580  211.9260  152.4480 C   0  0  2  0  0  3  0  0  0  0  0  0
  158.4870  214.3500  155.2120 C   0  0  0  0  0  2  0  0  0  0  0  0
  155.6530  211.8920  154.7490 O   0  0  0  0  0  1  0  0  0  0  0  0
  156.9760  212.3330  154.6640 C   0  0  2  0  0  3  0  0  0  0  0  0
  157.2550  213.5190  155.6160 C   0  0  2  0  0  3  0  0  0  0  0  0
  158.8290  213.0450  153.0800 C   0  0  1  0  0  3  0  0  0  0  0  0
  157.3370  212.6690  153.2190 C   0  0  0  0  0  2  0  0  0  0  0  0
  159.4770  213.5330  154.3880 C   0  0  0  0  0  2  0  0  0  0  0  0
  156.0500  214.4370  155.8250 C   0  0  0  0  0  2  0  0  0  0  0  0
  155.0630  213.8020  156.5760 O   0  0  0  0  0  1  0  0  0  0  0  0
  163.1140  210.2270  156.8510 C   0  0  0  0  0  0  0  0  0  0  0  0
  163.5790  211.4730  157.2550 O   0  0  0  0  0  0  0  0  0  0  0  0
  163.6910  209.1840  157.2570 O   0  0  0  0  0  1  0  0  0  0  0  0
  161.5890  205.3870  147.3150 N   0  0  0  0  0  0  0  0  0  0  0  0
  162.4070  206.6050  147.2190 C   0  0  2  0  0  3  0  0  0  0  0  0
  163.0410  205.3260  147.5200 C   0  0  0  0  0  2  0  0  0  0  0  0
  161.3540  204.9320  145.9580 C   0  0  0  0  0  2  0  0  0  0  0  0
  162.0180  203.5750  145.7490 C   0  0  0  0  0  2  0  0  0  0  0  0
  161.1420  202.4210  146.2440 C   0  0  1  0  0  3  0  0  0  0  0  0
  159.8740  201.5470  148.2140 C   0  0  2  0  0  3  0  0  0  0  0  0
  161.1560  202.1540  148.7140 C   0  0  1  0  0  3  0  0  0  0  0  0
  160.4310  202.7860  147.5410 C   0  0  1  0  0  3  0  0  0  0  0  0
  160.1230  201.6630  149.7070 C   0  0  0  0  0  2  0  0  0  0  0  0
  160.1440  201.9910  145.1580 C   0  0  2  0  0  3  0  0  0  0  0  0
  159.1820  200.9420  145.6900 C   0  0  0  0  0  2  0  0  0  0  0  0
  160.2660  200.5250  144.7060 C   0  0  2  0  0  3  0  0  0  0  0  0
  161.3100  199.7060  145.4550 C   0  0  0  0  0  2  0  0  0  0  0  0
  161.1250  198.2400  145.1370 C   0  0  0  0  0  1  0  0  0  0  0  0
  1 26  1  6  0  0  0
  1  5  1  0  0  0  0
  2 22  2  0  0  0  0
  3 19  1  0  0  0  0
  3  8  1  1  0  0  0
  4 27  1  6  0  0  0
  4 20  1  0  0  0  0
  5 18  1  0  0  0  0
  5 23  1  1  0  0  0
  9 15  1  6  0  0  0
  9 25  1  0  0  0  0
  9 14  1  0  0  0  0
 10 11  1  6  0  0  0
 10 22  1  0  0  0  0
 10  6  1  0  0  0  0
 12 26  1  6  0  0  0
 12 18  1  0  0  0  0
 13 40  1  1  0  0  0
 14 19  1  0  0  0  0
 16 28  1  6  0  0  0
 16 27  1  0  0  0  0
 16 25  1  0  0  0  0
 17 12  1  0  0  0  0
 18 29  1  1  0  0  0
 19  8  1  0  0  0  0
 19 24  1  1  0  0  0
 20 21  1  0  0  0  0
 21  7  2  0  0  0  0
 21 10  1  0  0  0  0
 22 17  1  0  0  0  0
 23 13  1  0  0  0  0
 24 30  1  0  0  0  0
 25  3  1  0  0  0  0
 29 13  1  0  0  0  0
 30 35  1  0  0  0  0
 30  1  1  0  0  0  0
 31 34  1  0  0  0  0
 33 32  1  0  0  0  0
 33 34  1  0  0  0  0
 34 38  1  0  0  0  0
 35 36  1  0  0  0  0
 35 37  1  0  0  0  0
 36 33  1  0  0  0  0
 37 31  1  0  0  0  0
 38 39  1  0  0  0  0
 40 41  2  0  0  0  0
 40 42  1  0  0  0  0
 43 45  1  0  0  0  0
 44 43  1  0  0  0  0
 44 45  1  0  0  0  0
 44  4  1  0  0  0  0
 46 43  1  0  0  0  0
 47 46  1  0  0  0  0
 47 48  1  0  0  0  0
 48 51  1  0  0  0  0
 49 50  1  0  0  0  0
 49 52  1  0  0  0  0
 50 52  1  0  0  0  0
 51 49  1  0  0  0  0
 51 50  1  0  0  0  0
 53 54  1  0  0  0  0
 53 48  1  0  0  0  0
 55 53  1  0  0  0  0
 55 56  1  0  0  0  0
 55 54  1  0  0  0  0
 57 56  1  0  0  0  0
M  END
>  <MODEL>
3

>  <REMARK>
 VINA RESULT:       8.1      5.380     10.967
  Name = 
  10 active torsions:
  status: ('A' for Active; 'I' for Inactive)
    1  A    between atoms: C_1  and  C_23
    2  A    between atoms: C_4  and  N_5
    3  A    between atoms: C_4  and  C_7
    4  A    between atoms: C_7  and  C_43
    5  A    between atoms: C_11  and  C_32
    6  A    between atoms: C_13  and  C_35
    7  A    between atoms: C_16  and  C_45
    8  A    between atoms: C_30  and  C_43
    9  A    between atoms: C_37  and  C_43
   10  A    between atoms: C_38  and  C_57
                            x       y       z     vdW  Elec       q    Type
                         _______ _______ _______ _____ _____    ______ ____

>  <TORSDO>
F 10

$$$$
