=
 OpenBabel11072414283D

 47 51  0  0  1  0  0  0  0  0999 V2000
  158.9230  213.2570  151.3850 C   0  0  0  0  0  0  0  0  0  0  0  0
  158.3300  211.9380  153.5180 C   0  0  0  0  0  2  0  0  0  0  0  0
  159.7680  211.4650  153.4880 C   0  0  0  0  0  0  0  0  0  0  0  0
  156.9670  213.6900  152.6550 O   0  0  0  0  0  0  0  0  0  0  0  0
  158.0260  213.0200  152.5260 C   0  0  0  0  0  0  0  0  0  0  0  0
  160.0990  212.6260  151.3410 C   0  0  0  0  0  3  0  0  0  0  0  0
  160.5450  211.6820  152.3900 C   0  0  0  0  0  0  0  0  0  0  0  0
  159.1040  213.8750  148.8990 C   0  0  1  0  0  3  0  0  0  0  0  0
  157.0000  214.4280  150.2540 C   0  0  0  0  0  2  0  0  0  0  0  0
  158.4580  212.6980  148.2620 N   0  0  0  0  0  0  0  0  0  0  0  0
  158.5190  214.2160  150.2910 C   0  0  1  0  0  3  0  0  0  0  0  0
  156.3580  213.8600  148.9920 C   0  0  0  0  0  2  0  0  0  0  0  0
  157.0290  212.5410  148.6110 C   0  0  0  0  0  2  0  0  0  0  0  0
  157.3540  212.4730  146.2060 F   0  0  0  0  0  0  0  0  0  0  0  0
  158.5660  212.7910  146.7930 C   0  0  0  0  0  0  0  0  0  0  0  0
  158.9310  214.0730  146.4020 F   0  0  0  0  0  0  0  0  0  0  0  0
  159.5090  211.8950  146.3230 F   0  0  0  0  0  0  0  0  0  0  0  0
  160.6210  213.7100  148.9590 C   0  0  0  0  0  2  0  0  0  0  0  0
  161.0070  212.2650  148.6120 C   0  0  1  0  0  3  0  0  0  0  0  0
  161.9120  212.1030  147.4990 N   0  0  0  0  0  0  0  0  0  0  0  0
  162.3980  212.0660  148.8560 N   0  0  0  0  0  2  0  0  0  0  0  0
  162.4050  213.3530  146.9180 C   0  0  0  0  0  1  0  0  0  0  0  0
  162.2440  210.1590  153.3230 C   0  0  0  0  0  2  0  0  0  0  0  0
  161.9490  211.1110  152.2500 C   0  0  1  0  0  3  0  0  0  0  0  0
  162.0580  209.6490  151.9590 N   0  0  0  0  0  0  0  0  0  0  0  0
  160.7850  208.9220  151.9300 C   0  0  0  0  0  2  0  0  0  0  0  0
  160.9840  207.4480  152.1620 C   0  0  0  0  0  0  0  0  0  0  0  0
  161.4650  206.8980  153.4540 C   0  0  2  0  0  3  0  0  0  0  0  0
  161.2270  205.1680  151.7350 C   0  0  0  0  0  3  0  0  0  0  0  0
  161.6790  205.4130  153.1730 C   0  0  0  0  0  3  0  0  0  0  0  0
  160.8590  206.5150  151.2360 C   0  0  0  0  0  0  0  0  0  0  0  0
  160.3950  207.0560  154.5200 C   0  0  0  0  0  1  0  0  0  0  0  0
  160.4470  206.7850  149.9270 O   0  0  0  0  0  0  0  0  0  0  0  0
  161.3420  207.1620  148.9470 N   0  0  0  0  0  2  0  0  0  0  0  0
  161.8060  205.9650  148.2590 C   0  0  2  0  0  3  0  0  0  0  0  0
  162.0720  206.2850  146.7930 C   0  0  0  0  0  2  0  0  0  0  0  0
  162.8790  204.8770  145.9690 S   0  0  0  0  0  0  0  0  0  0  0  0
  160.6480  205.8930  144.7750 C   0  0  0  0  0  1  0  0  0  0  0  0
  161.4780  204.6260  144.8380 C   0  0  0  0  0  2  0  0  0  0  0  0
  160.7680  204.8520  148.3640 C   0  0  0  0  0  2  0  0  0  0  0  0
  161.3570  203.6740  148.9070 O   0  0  0  0  0  0  0  0  0  0  0  0
  160.8730  201.2840  149.4110 C   0  0  0  0  0  1  0  0  0  0  0  0
  160.7830  202.1980  147.2240 O   0  0  0  0  0  0  0  0  0  0  0  0
  161.0010  202.4050  148.4480 C   0  0  0  0  0  0  0  0  0  0  0  0
  160.2450  210.7230  154.6830 C   0  0  0  0  0  0  0  0  0  0  0  0
  159.3510  209.7550  155.3820 C   0  0  0  0  0  1  0  0  0  0  0  0
  161.4020  210.9090  155.1450 O   0  0  0  0  0  0  0  0  0  0  0  0
  1  5  1  0  0  0  0
  3  2  1  0  0  0  0
  3 45  1  0  0  0  0
  5  4  2  0  0  0  0
  5  2  1  0  0  0  0
  6  1  2  0  0  0  0
  6  7  1  0  0  0  0
  7  3  2  0  0  0  0
  8 18  1  1  0  0  0
  8 11  1  0  0  0  0
  9 11  1  0  0  0  0
 10 13  1  0  0  0  0
 10  8  1  0  0  0  0
 11  1  1  1  0  0  0
 12  9  1  0  0  0  0
 13 12  1  0  0  0  0
 14 15  1  0  0  0  0
 15 10  1  0  0  0  0
 16 15  1  0  0  0  0
 17 15  1  0  0  0  0
 19 21  1  0  0  0  0
 19 18  1  6  0  0  0
 20 19  1  0  0  0  0
 20 21  1  0  0  0  0
 22 20  1  0  0  0  0
 24  7  1  1  0  0  0
 24 23  1  0  0  0  0
 25 24  1  0  0  0  0
 25 23  1  0  0  0  0
 26 25  1  0  0  0  0
 26 27  1  0  0  0  0
 27 28  1  0  0  0  0
 28 32  1  1  0  0  0
 29 30  2  0  0  0  0
 30 28  1  0  0  0  0
 31 29  1  0  0  0  0
 31 27  2  0  0  0  0
 33 31  1  0  0  0  0
 34 33  1  0  0  0  0
 35 36  1  6  0  0  0
 35 40  1  0  0  0  0
 35 34  1  0  0  0  0
 37 36  1  0  0  0  0
 38 39  1  0  0  0  0
 39 37  1  0  0  0  0
 40 41  1  0  0  0  0
 43 44  2  0  0  0  0
 44 41  1  0  0  0  0
 44 42  1  0  0  0  0
 45 47  2  0  0  0  0
 45 46  1  0  0  0  0
M  END
>  <MODEL>
1

>  <REMARK>
 VINA RESULT:      -6.7      0.000      0.000
  Name = 
  17 active torsions:
  status: ('A' for Active; 'I' for Inactive)
    1  A    between atoms: C_2  and  C_26
    2  A    between atoms: C_4  and  C_21
    3  A    between atoms: C_6  and  C_26
    4  A    between atoms: O_8  and  C_42
    5  A    between atoms: O_8  and  N_47
    6  A    between atoms: S_9  and  C_16
    7  A    between atoms: S_9  and  C_46
    8  A    between atoms: C_11  and  C_12
    9  A    between atoms: C_11  and  N_25
   10  A    between atoms: C_13  and  C_45
   11  A    between atoms: C_14  and  C_16
   12  A    between atoms: C_14  and  C_35
   13  A    between atoms: C_14  and  N_47
   14  A    between atoms: N_20  and  C_32
   15  A    between atoms: C_24  and  O_41
   16  A    between atoms: C_28  and  C_30
   17  A    between atoms: C_35  and  O_41
                            x       y       z     vdW  Elec       q    Type
                         _______ _______ _______ _____ _____    ______ ____

>  <TORSDO>
F 17

$$$$
=
 OpenBabel11072414283D

 47 51  0  0  1  0  0  0  0  0999 V2000
  159.6920  212.4840  152.7930 C   0  0  0  0  0  0  0  0  0  0  0  0
  159.6250  212.9420  150.2580 C   0  0  0  0  0  2  0  0  0  0  0  0
  160.7990  211.9890  150.1710 C   0  0  0  0  0  0  0  0  0  0  0  0
  157.8340  213.5010  151.7250 O   0  0  0  0  0  0  0  0  0  0  0  0
  158.9780  212.9850  151.6100 C   0  0  0  0  0  0  0  0  0  0  0  0
  160.8430  211.8270  152.6290 C   0  0  0  0  0  3  0  0  0  0  0  0
  161.4470  211.5830  151.2990 C   0  0  0  0  0  0  0  0  0  0  0  0
  158.5730  211.4140  154.8430 C   0  0  1  0  0  3  0  0  0  0  0  0
  160.0840  213.4700  155.0790 C   0  0  0  0  0  2  0  0  0  0  0  0
  159.6440  210.4970  155.3090 N   0  0  0  0  0  0  0  0  0  0  0  0
  159.1150  212.7000  154.1720 C   0  0  1  0  0  3  0  0  0  0  0  0
  160.6160  212.6190  156.2290 C   0  0  0  0  0  2  0  0  0  0  0  0
  160.8740  211.1920  155.7470 C   0  0  0  0  0  2  0  0  0  0  0  0
  158.5260  208.5380  155.9510 F   0  0  0  0  0  0  0  0  0  0  0  0
  159.1550  209.6740  156.4330 C   0  0  0  0  0  0  0  0  0  0  0  0
  160.2020  209.2910  157.2600 F   0  0  0  0  0  0  0  0  0  0  0  0
  158.2300  210.3810  157.1790 F   0  0  0  0  0  0  0  0  0  0  0  0
  157.5810  210.6910  153.9340 C   0  0  0  0  0  2  0  0  0  0  0  0
  156.2700  211.4880  153.8480 C   0  0  1  0  0  3  0  0  0  0  0  0
  155.1420  210.9250  154.5500 N   0  0  0  0  0  0  0  0  0  0  0  0
  155.9220  211.9860  155.1370 N   0  0  0  0  0  2  0  0  0  0  0  0
  155.4370  209.7180  155.3250 C   0  0  0  0  0  1  0  0  0  0  0  0
  162.9150  210.0310  152.5300 C   0  0  0  0  0  2  0  0  0  0  0  0
  162.7120  210.7390  151.2630 C   0  0  1  0  0  3  0  0  0  0  0  0
  162.5380  209.2560  151.3410 N   0  0  0  0  0  0  0  0  0  0  0  0
  161.1570  208.8000  151.5320 C   0  0  0  0  0  2  0  0  0  0  0  0
  161.0940  207.3150  151.7690 C   0  0  0  0  0  0  0  0  0  0  0  0
  161.5370  206.6860  153.0380 C   0  0  2  0  0  3  0  0  0  0  0  0
  160.8860  205.0290  151.3540 C   0  0  0  0  0  3  0  0  0  0  0  0
  161.4560  205.1870  152.7620 C   0  0  0  0  0  3  0  0  0  0  0  0
  160.7460  206.4200  150.8620 C   0  0  0  0  0  0  0  0  0  0  0  0
  160.5770  207.0390  154.1600 C   0  0  0  0  0  1  0  0  0  0  0  0
  160.3170  206.7610  149.5750 O   0  0  0  0  0  0  0  0  0  0  0  0
  160.2260  205.8220  148.5670 N   0  0  0  0  0  2  0  0  0  0  0  0
  161.5680  205.3560  148.2490 C   0  0  2  0  0  3  0  0  0  0  0  0
  162.0690  206.0510  146.9880 C   0  0  0  0  0  2  0  0  0  0  0  0
  162.5950  204.8260  145.7500 S   0  0  0  0  0  0  0  0  0  0  0  0
  160.2490  206.0810  145.1520 C   0  0  0  0  0  1  0  0  0  0  0  0
  161.4800  205.5030  144.4830 C   0  0  0  0  0  2  0  0  0  0  0  0
  161.5740  203.8440  148.0410 C   0  0  0  0  0  2  0  0  0  0  0  0
  160.4250  203.2570  148.6420 O   0  0  0  0  0  0  0  0  0  0  0  0
  161.5740  201.0500  148.7450 C   0  0  0  0  0  1  0  0  0  0  0  0
  159.2800  201.3490  149.2690 O   0  0  0  0  0  0  0  0  0  0  0  0
  160.3590  201.8860  148.9000 C   0  0  0  0  0  0  0  0  0  0  0  0
  161.2180  211.5790  148.8060 C   0  0  0  0  0  0  0  0  0  0  0  0
  161.5430  212.6040  147.7730 C   0  0  0  0  0  1  0  0  0  0  0  0
  161.2880  210.3630  148.4850 O   0  0  0  0  0  0  0  0  0  0  0  0
  2  5  1  0  0  0  0
  3  2  1  0  0  0  0
  3  7  2  0  0  0  0
  5  4  2  0  0  0  0
  5  1  1  0  0  0  0
  6  1  2  0  0  0  0
  7  6  1  0  0  0  0
  8 18  1  6  0  0  0
  8 10  1  0  0  0  0
  9 12  1  0  0  0  0
 10 13  1  0  0  0  0
 10 15  1  0  0  0  0
 11  1  1  6  0  0  0
 11  8  1  0  0  0  0
 11  9  1  0  0  0  0
 13 12  1  0  0  0  0
 14 15  1  0  0  0  0
 15 17  1  0  0  0  0
 15 16  1  0  0  0  0
 19 18  1  1  0  0  0
 19 20  1  0  0  0  0
 19 21  1  0  0  0  0
 20 21  1  0  0  0  0
 20 22  1  0  0  0  0
 24  7  1  1  0  0  0
 24 25  1  0  0  0  0
 24 23  1  0  0  0  0
 25 26  1  0  0  0  0
 25 23  1  0  0  0  0
 26 27  1  0  0  0  0
 27 28  1  0  0  0  0
 28 32  1  1  0  0  0
 29 30  2  0  0  0  0
 30 28  1  0  0  0  0
 31 29  1  0  0  0  0
 31 27  2  0  0  0  0
 33 31  1  0  0  0  0
 34 33  1  0  0  0  0
 35 36  1  6  0  0  0
 35 34  1  0  0  0  0
 37 36  1  0  0  0  0
 39 38  1  0  0  0  0
 39 37  1  0  0  0  0
 40 35  1  0  0  0  0
 40 41  1  0  0  0  0
 41 44  1  0  0  0  0
 42 44  1  0  0  0  0
 44 43  2  0  0  0  0
 45  3  1  0  0  0  0
 46 45  1  0  0  0  0
 47 45  2  0  0  0  0
M  END
>  <MODEL>
2

>  <REMARK>
 VINA RESULT:      -6.6      3.476      5.424
  Name = 
  17 active torsions:
  status: ('A' for Active; 'I' for Inactive)
    1  A    between atoms: C_2  and  C_26
    2  A    between atoms: C_4  and  C_21
    3  A    between atoms: C_6  and  C_26
    4  A    between atoms: O_8  and  C_42
    5  A    between atoms: O_8  and  N_47
    6  A    between atoms: S_9  and  C_16
    7  A    between atoms: S_9  and  C_46
    8  A    between atoms: C_11  and  C_12
    9  A    between atoms: C_11  and  N_25
   10  A    between atoms: C_13  and  C_45
   11  A    between atoms: C_14  and  C_16
   12  A    between atoms: C_14  and  C_35
   13  A    between atoms: C_14  and  N_47
   14  A    between atoms: N_20  and  C_32
   15  A    between atoms: C_24  and  O_41
   16  A    between atoms: C_28  and  C_30
   17  A    between atoms: C_35  and  O_41
                            x       y       z     vdW  Elec       q    Type
                         _______ _______ _______ _____ _____    ______ ____

>  <TORSDO>
F 17

$$$$
=
 OpenBabel11072414283D

 47 51  0  0  1  0  0  0  0  0999 V2000
  159.2040  213.0220  151.1880 C   0  0  0  0  0  0  0  0  0  0  0  0
  158.6780  211.6570  153.3090 C   0  0  0  0  0  2  0  0  0  0  0  0
  160.0870  211.1190  153.1740 C   0  0  0  0  0  0  0  0  0  0  0  0
  157.3510  213.4990  152.5910 O   0  0  0  0  0  0  0  0  0  0  0  0
  158.3660  212.7860  152.3730 C   0  0  0  0  0  0  0  0  0  0  0  0
  160.3430  212.3400  151.0500 C   0  0  0  0  0  3  0  0  0  0  0  0
  160.8060  211.3390  152.0370 C   0  0  0  0  0  0  0  0  0  0  0  0
  159.1100  213.6350  148.6950 C   0  0  1  0  0  3  0  0  0  0  0  0
  157.3150  214.4530  150.3310 C   0  0  0  0  0  2  0  0  0  0  0  0
  158.2280  212.5620  148.1680 N   0  0  0  0  0  0  0  0  0  0  0  0
  158.7810  214.0380  150.1530 C   0  0  1  0  0  3  0  0  0  0  0  0
  156.4290  213.9890  149.1780 C   0  0  0  0  0  2  0  0  0  0  0  0
  156.8550  212.5950  148.7190 C   0  0  0  0  0  2  0  0  0  0  0  0
  158.0630  213.9810  146.3080 F   0  0  0  0  0  0  0  0  0  0  0  0
  158.1380  212.6540  146.6980 C   0  0  0  0  0  0  0  0  0  0  0  0
  159.2440  212.0720  146.0950 F   0  0  0  0  0  0  0  0  0  0  0  0
  156.9950  212.0190  146.2470 F   0  0  0  0  0  0  0  0  0  0  0  0
  160.5840  213.2670  148.5410 C   0  0  0  0  0  2  0  0  0  0  0  0
  161.3160  214.3530  147.7380 C   0  0  1  0  0  3  0  0  0  0  0  0
  162.7110  214.1050  147.4670 N   0  0  0  0  0  0  0  0  0  0  0  0
  161.7070  213.8340  146.4690 N   0  0  0  0  0  2  0  0  0  0  0  0
  163.2060  212.8030  147.9190 C   0  0  0  0  0  1  0  0  0  0  0  0
  162.4920  209.7220  152.8240 C   0  0  0  0  0  2  0  0  0  0  0  0
  162.1700  210.7100  151.7920 C   0  0  1  0  0  3  0  0  0  0  0  0
  162.1920  209.2510  151.4660 N   0  0  0  0  0  0  0  0  0  0  0  0
  160.8880  208.5820  151.5100 C   0  0  0  0  0  2  0  0  0  0  0  0
  161.0330  207.1000  151.7270 C   0  0  0  0  0  0  0  0  0  0  0  0
  161.5180  206.5210  153.0050 C   0  0  2  0  0  3  0  0  0  0  0  0
  161.1770  204.8160  151.2780 C   0  0  0  0  0  3  0  0  0  0  0  0
  161.6670  205.0310  152.7090 C   0  0  0  0  0  3  0  0  0  0  0  0
  160.8530  206.1800  150.7970 C   0  0  0  0  0  0  0  0  0  0  0  0
  160.4770  206.7120  154.0930 C   0  0  0  0  0  1  0  0  0  0  0  0
  160.4250  206.4760  149.4990 O   0  0  0  0  0  0  0  0  0  0  0  0
  161.3110  206.8550  148.5110 N   0  0  0  0  0  2  0  0  0  0  0  0
  161.4150  205.7720  147.5430 C   0  0  2  0  0  3  0  0  0  0  0  0
  162.0880  204.5670  148.1910 C   0  0  0  0  0  2  0  0  0  0  0  0
  160.9340  203.1630  148.2760 S   0  0  0  0  0  0  0  0  0  0  0  0
  160.8150  201.1770  146.4110 C   0  0  0  0  0  1  0  0  0  0  0  0
  161.4460  202.5340  146.6490 C   0  0  0  0  0  2  0  0  0  0  0  0
  162.2170  206.2180  146.3250 C   0  0  0  0  0  2  0  0  0  0  0  0
  162.1840  205.2150  145.3150 O   0  0  0  0  0  0  0  0  0  0  0  0
  159.8790  204.6470  144.5650 C   0  0  0  0  0  1  0  0  0  0  0  0
  161.4680  205.7330  143.1790 O   0  0  0  0  0  0  0  0  0  0  0  0
  161.2180  205.2280  144.3070 C   0  0  0  0  0  0  0  0  0  0  0  0
  160.5990  210.3140  154.3120 C   0  0  0  0  0  0  0  0  0  0  0  0
  161.8290  210.7330  155.0450 C   0  0  0  0  0  1  0  0  0  0  0  0
  160.0220  209.2530  154.6700 O   0  0  0  0  0  0  0  0  0  0  0  0
  1  5  1  0  0  0  0
  3  2  1  0  0  0  0
  3 45  1  0  0  0  0
  5  4  2  0  0  0  0
  5  2  1  0  0  0  0
  6  1  2  0  0  0  0
  6  7  1  0  0  0  0
  7  3  2  0  0  0  0
  8 18  1  1  0  0  0
  8 11  1  0  0  0  0
 10  8  1  0  0  0  0
 10 13  1  0  0  0  0
 11  9  1  0  0  0  0
 11  1  1  1  0  0  0
 12  9  1  0  0  0  0
 13 12  1  0  0  0  0
 14 15  1  0  0  0  0
 15 10  1  0  0  0  0
 16 15  1  0  0  0  0
 17 15  1  0  0  0  0
 19 18  1  1  0  0  0
 20 19  1  0  0  0  0
 20 22  1  0  0  0  0
 21 20  1  0  0  0  0
 21 19  1  0  0  0  0
 24  7  1  1  0  0  0
 24 23  1  0  0  0  0
 25 26  1  0  0  0  0
 25 24  1  0  0  0  0
 25 23  1  0  0  0  0
 26 27  1  0  0  0  0
 27 28  1  0  0  0  0
 28 32  1  1  0  0  0
 29 30  2  0  0  0  0
 30 28  1  0  0  0  0
 31 29  1  0  0  0  0
 31 27  2  0  0  0  0
 33 31  1  0  0  0  0
 34 33  1  0  0  0  0
 35 40  1  6  0  0  0
 35 36  1  0  0  0  0
 35 34  1  0  0  0  0
 36 37  1  0  0  0  0
 38 39  1  0  0  0  0
 39 37  1  0  0  0  0
 41 40  1  0  0  0  0
 43 44  2  0  0  0  0
 44 42  1  0  0  0  0
 44 41  1  0  0  0  0
 45 47  2  0  0  0  0
 45 46  1  0  0  0  0
M  END
>  <MODEL>
3

>  <REMARK>
 VINA RESULT:      -6.4      1.460      2.156
  Name = 
  17 active torsions:
  status: ('A' for Active; 'I' for Inactive)
    1  A    between atoms: C_2  and  C_26
    2  A    between atoms: C_4  and  C_21
    3  A    between atoms: C_6  and  C_26
    4  A    between atoms: O_8  and  C_42
    5  A    between atoms: O_8  and  N_47
    6  A    between atoms: S_9  and  C_16
    7  A    between atoms: S_9  and  C_46
    8  A    between atoms: C_11  and  C_12
    9  A    between atoms: C_11  and  N_25
   10  A    between atoms: C_13  and  C_45
   11  A    between atoms: C_14  and  C_16
   12  A    between atoms: C_14  and  C_35
   13  A    between atoms: C_14  and  N_47
   14  A    between atoms: N_20  and  C_32
   15  A    between atoms: C_24  and  O_41
   16  A    between atoms: C_28  and  C_30
   17  A    between atoms: C_35  and  O_41
                            x       y       z     vdW  Elec       q    Type
                         _______ _______ _______ _____ _____    ______ ____

>  <TORSDO>
F 17

$$$$
=
 OpenBabel11072414283D

 47 51  0  0  1  0  0  0  0  0999 V2000
  159.4640  211.6280  152.2400 C   0  0  0  0  0  0  0  0  0  0  0  0
  159.7880  213.3610  150.3600 C   0  0  0  0  0  2  0  0  0  0  0  0
  160.8710  212.4340  149.8490 C   0  0  0  0  0  0  0  0  0  0  0  0
  157.8710  213.3230  151.7720 O   0  0  0  0  0  0  0  0  0  0  0  0
  158.9680  212.7810  151.4730 C   0  0  0  0  0  0  0  0  0  0  0  0
  160.5620  210.9930  151.8220 C   0  0  0  0  0  3  0  0  0  0  0  0
  161.3180  211.4010  150.6170 C   0  0  0  0  0  0  0  0  0  0  0  0
  159.2980  211.7180  154.8010 C   0  0  1  0  0  3  0  0  0  0  0  0
  157.2130  211.3910  153.3480 C   0  0  0  0  0  2  0  0  0  0  0  0
  158.9960  213.1550  155.0200 N   0  0  0  0  0  0  0  0  0  0  0  0
  158.7250  211.1660  153.4730 C   0  0  1  0  0  3  0  0  0  0  0  0
  156.6930  212.4460  154.3210 C   0  0  0  0  0  2  0  0  0  0  0  0
  157.7040  213.5870  154.4440 C   0  0  0  0  0  2  0  0  0  0  0  0
  159.9020  214.4500  156.7530 F   0  0  0  0  0  0  0  0  0  0  0  0
  158.9810  213.4570  156.4650 C   0  0  0  0  0  0  0  0  0  0  0  0
  157.7230  213.8820  156.8700 F   0  0  0  0  0  0  0  0  0  0  0  0
  159.3310  212.3350  157.1940 F   0  0  0  0  0  0  0  0  0  0  0  0
  160.7960  211.4420  154.9160 C   0  0  0  0  0  2  0  0  0  0  0  0
  161.0420  210.2620  155.8680 C   0  0  1  0  0  3  0  0  0  0  0  0
  162.4230  209.8980  156.0780 N   0  0  0  0  0  0  0  0  0  0  0  0
  161.7220  210.7170  157.0360 N   0  0  0  0  0  2  0  0  0  0  0  0
  163.3980  210.7730  155.4230 C   0  0  0  0  0  1  0  0  0  0  0  0
  163.0000  209.7570  151.3530 C   0  0  0  0  0  2  0  0  0  0  0  0
  162.4940  210.5240  150.2130 C   0  0  1  0  0  3  0  0  0  0  0  0
  162.2900  209.0450  150.2830 N   0  0  0  0  0  0  0  0  0  0  0  0
  160.9940  208.6190  150.8220 C   0  0  0  0  0  2  0  0  0  0  0  0
  161.0900  207.2780  151.4970 C   0  0  0  0  0  0  0  0  0  0  0  0
  161.6890  207.0990  152.8430 C   0  0  2  0  0  3  0  0  0  0  0  0
  161.0660  204.9660  151.8090 C   0  0  0  0  0  3  0  0  0  0  0  0
  161.7290  205.5860  153.0380 C   0  0  0  0  0  3  0  0  0  0  0  0
  160.7570  206.1270  150.9400 C   0  0  0  0  0  0  0  0  0  0  0  0
  160.7930  207.7150  153.9010 C   0  0  0  0  0  1  0  0  0  0  0  0
  160.1970  206.0280  149.6630 O   0  0  0  0  0  0  0  0  0  0  0  0
  160.9070  206.3710  148.5300 N   0  0  0  0  0  2  0  0  0  0  0  0
  161.9260  205.3570  148.2990 C   0  0  2  0  0  3  0  0  0  0  0  0
  162.7950  205.7620  147.1130 C   0  0  0  0  0  2  0  0  0  0  0  0
  161.8530  205.6360  145.5610 S   0  0  0  0  0  0  0  0  0  0  0  0
  160.6380  203.2690  144.9640 C   0  0  0  0  0  1  0  0  0  0  0  0
  161.9110  203.8190  145.5740 C   0  0  0  0  0  2  0  0  0  0  0  0
  161.2810  204.0020  148.0270 C   0  0  0  0  0  2  0  0  0  0  0  0
  161.4470  203.1400  149.1490 O   0  0  0  0  0  0  0  0  0  0  0  0
  160.5050  201.2150  147.8800 C   0  0  0  0  0  1  0  0  0  0  0  0
  160.8090  201.2010  150.2320 O   0  0  0  0  0  0  0  0  0  0  0  0
  160.9250  201.8450  149.1550 C   0  0  0  0  0  0  0  0  0  0  0  0
  161.4340  212.7500  148.5110 C   0  0  0  0  0  0  0  0  0  0  0  0
  162.3310  213.9270  148.3250 C   0  0  0  0  0  1  0  0  0  0  0  0
  161.1530  212.0480  147.5050 O   0  0  0  0  0  0  0  0  0  0  0  0
  2  5  1  0  0  0  0
  3  2  1  0  0  0  0
  3  7  2  0  0  0  0
  5  4  2  0  0  0  0
  5  1  1  0  0  0  0
  6  1  2  0  0  0  0
  7  6  1  0  0  0  0
  8 18  1  6  0  0  0
  8 10  1  0  0  0  0
  9 11  1  0  0  0  0
  9 12  1  0  0  0  0
 10 15  1  0  0  0  0
 11  1  1  6  0  0  0
 11  8  1  0  0  0  0
 12 13  1  0  0  0  0
 13 10  1  0  0  0  0
 15 14  1  0  0  0  0
 15 16  1  0  0  0  0
 15 17  1  0  0  0  0
 19 18  1  6  0  0  0
 19 20  1  0  0  0  0
 19 21  1  0  0  0  0
 20 21  1  0  0  0  0
 22 20  1  0  0  0  0
 24 25  1  0  0  0  0
 24  7  1  1  0  0  0
 24 23  1  0  0  0  0
 25 26  1  0  0  0  0
 25 23  1  0  0  0  0
 26 27  1  0  0  0  0
 27 28  1  0  0  0  0
 28 30  1  0  0  0  0
 28 32  1  1  0  0  0
 29 30  2  0  0  0  0
 31 27  2  0  0  0  0
 31 29  1  0  0  0  0
 33 31  1  0  0  0  0
 34 33  1  0  0  0  0
 35 36  1  6  0  0  0
 35 34  1  0  0  0  0
 37 39  1  0  0  0  0
 37 36  1  0  0  0  0
 38 39  1  0  0  0  0
 40 35  1  0  0  0  0
 40 41  1  0  0  0  0
 41 44  1  0  0  0  0
 42 44  1  0  0  0  0
 44 43  2  0  0  0  0
 45  3  1  0  0  0  0
 46 45  1  0  0  0  0
 47 45  2  0  0  0  0
M  END
>  <MODEL>
4

>  <REMARK>
 VINA RESULT:      -6.1      3.359      5.112
  Name = 
  17 active torsions:
  status: ('A' for Active; 'I' for Inactive)
    1  A    between atoms: C_2  and  C_26
    2  A    between atoms: C_4  and  C_21
    3  A    between atoms: C_6  and  C_26
    4  A    between atoms: O_8  and  C_42
    5  A    between atoms: O_8  and  N_47
    6  A    between atoms: S_9  and  C_16
    7  A    between atoms: S_9  and  C_46
    8  A    between atoms: C_11  and  C_12
    9  A    between atoms: C_11  and  N_25
   10  A    between atoms: C_13  and  C_45
   11  A    between atoms: C_14  and  C_16
   12  A    between atoms: C_14  and  C_35
   13  A    between atoms: C_14  and  N_47
   14  A    between atoms: N_20  and  C_32
   15  A    between atoms: C_24  and  O_41
   16  A    between atoms: C_28  and  C_30
   17  A    between atoms: C_35  and  O_41
                            x       y       z     vdW  Elec       q    Type
                         _______ _______ _______ _____ _____    ______ ____

>  <TORSDO>
F 17

$$$$
=
 OpenBabel11072414283D

 47 51  0  0  1  0  0  0  0  0999 V2000
  158.8830  212.1570  154.8660 C   0  0  0  0  0  0  0  0  0  0  0  0
  158.5360  209.7310  155.6650 C   0  0  0  0  0  2  0  0  0  0  0  0
  160.0090  209.5440  155.3680 C   0  0  0  0  0  0  0  0  0  0  0  0
  156.9670  211.4730  156.0860 O   0  0  0  0  0  0  0  0  0  0  0  0
  158.0760  211.1560  155.5800 C   0  0  0  0  0  0  0  0  0  0  0  0
  160.1100  211.8290  154.4530 C   0  0  0  0  0  3  0  0  0  0  0  0
  160.7010  210.4890  154.6730 C   0  0  0  0  0  0  0  0  0  0  0  0
  157.2280  213.6040  153.5380 C   0  0  1  0  0  3  0  0  0  0  0  0
  157.9060  214.2210  155.9310 C   0  0  0  0  0  2  0  0  0  0  0  0
  155.9300  213.0400  153.9860 N   0  0  0  0  0  0  0  0  0  0  0  0
  158.3310  213.5410  154.6230 C   0  0  1  0  0  3  0  0  0  0  0  0
  156.3970  214.4260  156.0240 C   0  0  0  0  0  2  0  0  0  0  0  0
  155.6670  213.2210  155.4300 C   0  0  0  0  0  2  0  0  0  0  0  0
  154.0520  214.4430  154.0800 F   0  0  0  0  0  0  0  0  0  0  0  0
  154.8200  213.6590  153.2350 C   0  0  0  0  0  0  0  0  0  0  0  0
  155.3010  214.4530  152.2020 F   0  0  0  0  0  0  0  0  0  0  0  0
  153.9960  212.6830  152.7030 F   0  0  0  0  0  0  0  0  0  0  0  0
  157.6950  212.9570  152.2360 C   0  0  0  0  0  2  0  0  0  0  0  0
  157.7840  214.0140  151.1250 C   0  0  1  0  0  3  0  0  0  0  0  0
  159.1040  214.2680  150.6000 N   0  0  0  0  0  0  0  0  0  0  0  0
  158.1890  213.3980  149.9040 N   0  0  0  0  0  2  0  0  0  0  0  0
  160.1590  213.4090  151.1420 C   0  0  0  0  0  1  0  0  0  0  0  0
  162.3340  208.9780  153.6110 C   0  0  0  0  0  2  0  0  0  0  0  0
  162.1430  210.2930  154.2290 C   0  0  1  0  0  3  0  0  0  0  0  0
  162.3870  210.1730  152.7580 N   0  0  0  0  0  0  0  0  0  0  0  0
  161.1810  210.1730  151.9240 C   0  0  0  0  0  2  0  0  0  0  0  0
  161.4870  209.7540  150.5110 C   0  0  0  0  0  0  0  0  0  0  0  0
  161.6580  210.7290  149.4050 C   0  0  2  0  0  3  0  0  0  0  0  0
  161.7440  208.4070  148.6240 C   0  0  0  0  0  3  0  0  0  0  0  0
  161.7740  209.8610  148.1550 C   0  0  0  0  0  3  0  0  0  0  0  0
  161.5300  208.5040  150.0880 C   0  0  0  0  0  0  0  0  0  0  0  0
  162.9460  211.5100  149.5920 C   0  0  0  0  0  1  0  0  0  0  0  0
  161.3690  207.4020  150.9340 O   0  0  0  0  0  0  0  0  0  0  0  0
  160.5520  206.3410  150.5980 N   0  0  0  0  0  2  0  0  0  0  0  0
  161.3110  205.4220  149.7610 C   0  0  2  0  0  3  0  0  0  0  0  0
  160.6940  205.3660  148.3680 C   0  0  0  0  0  2  0  0  0  0  0  0
  161.9050  204.7480  147.1590 S   0  0  0  0  0  0  0  0  0  0  0  0
  161.0290  204.8610  144.5790 C   0  0  0  0  0  1  0  0  0  0  0  0
  161.1860  205.7310  145.8090 C   0  0  0  0  0  2  0  0  0  0  0  0
  161.3250  204.0260  150.3750 C   0  0  0  0  0  2  0  0  0  0  0  0
  161.5820  203.0460  149.3740 O   0  0  0  0  0  0  0  0  0  0  0  0
  160.6830  201.2820  147.8630 C   0  0  0  0  0  1  0  0  0  0  0  0
  159.9870  201.5470  150.1150 O   0  0  0  0  0  0  0  0  0  0  0  0
  160.7250  201.9610  149.1810 C   0  0  0  0  0  0  0  0  0  0  0  0
  160.6190  208.2700  155.8290 C   0  0  0  0  0  0  0  0  0  0  0  0
  161.6530  208.2700  156.9050 C   0  0  0  0  0  1  0  0  0  0  0  0
  160.2950  207.1690  155.3110 O   0  0  0  0  0  0  0  0  0  0  0  0
  1  5  1  0  0  0  0
  3  2  1  0  0  0  0
  3 45  1  0  0  0  0
  5  2  1  0  0  0  0
  5  4  2  0  0  0  0
  6  7  1  0  0  0  0
  6  1  2  0  0  0  0
  7  3  2  0  0  0  0
  8 18  1  6  0  0  0
  8 10  1  0  0  0  0
  8 11  1  0  0  0  0
  9 12  1  0  0  0  0
 10 13  1  0  0  0  0
 11  1  1  1  0  0  0
 11  9  1  0  0  0  0
 13 12  1  0  0  0  0
 15 10  1  0  0  0  0
 15 14  1  0  0  0  0
 16 15  1  0  0  0  0
 17 15  1  0  0  0  0
 19 18  1  1  0  0  0
 20 19  1  0  0  0  0
 20 22  1  0  0  0  0
 21 20  1  0  0  0  0
 21 19  1  0  0  0  0
 23 24  1  0  0  0  0
 24  7  1  6  0  0  0
 25 23  1  0  0  0  0
 25 24  1  0  0  0  0
 26 25  1  0  0  0  0
 27 26  1  0  0  0  0
 28 32  1  1  0  0  0
 28 27  1  0  0  0  0
 29 31  1  0  0  0  0
 30 29  2  0  0  0  0
 30 28  1  0  0  0  0
 31 27  2  0  0  0  0
 31 33  1  0  0  0  0
 34 33  1  0  0  0  0
 35 36  1  6  0  0  0
 35 40  1  0  0  0  0
 35 34  1  0  0  0  0
 37 36  1  0  0  0  0
 38 39  1  0  0  0  0
 39 37  1  0  0  0  0
 41 40  1  0  0  0  0
 42 44  1  0  0  0  0
 44 41  1  0  0  0  0
 44 43  2  0  0  0  0
 45 46  1  0  0  0  0
 47 45  2  0  0  0  0
M  END
>  <MODEL>
5

>  <REMARK>
 VINA RESULT:      -4.6      2.908      4.352
  Name = 
  17 active torsions:
  status: ('A' for Active; 'I' for Inactive)
    1  A    between atoms: C_2  and  C_26
    2  A    between atoms: C_4  and  C_21
    3  A    between atoms: C_6  and  C_26
    4  A    between atoms: O_8  and  C_42
    5  A    between atoms: O_8  and  N_47
    6  A    between atoms: S_9  and  C_16
    7  A    between atoms: S_9  and  C_46
    8  A    between atoms: C_11  and  C_12
    9  A    between atoms: C_11  and  N_25
   10  A    between atoms: C_13  and  C_45
   11  A    between atoms: C_14  and  C_16
   12  A    between atoms: C_14  and  C_35
   13  A    between atoms: C_14  and  N_47
   14  A    between atoms: N_20  and  C_32
   15  A    between atoms: C_24  and  O_41
   16  A    between atoms: C_28  and  C_30
   17  A    between atoms: C_35  and  O_41
                            x       y       z     vdW  Elec       q    Type
                         _______ _______ _______ _____ _____    ______ ____

>  <TORSDO>
F 17

$$$$
=
 OpenBabel11072414283D

 47 51  0  0  1  0  0  0  0  0999 V2000
  160.5110  206.2440  151.4830 C   0  0  0  0  0  0  0  0  0  0  0  0
  161.3950  206.1690  153.9030 C   0  0  0  0  0  2  0  0  0  0  0  0
  161.6000  207.6620  153.7520 C   0  0  0  0  0  0  0  0  0  0  0  0
  160.1540  204.3900  152.9190 O   0  0  0  0  0  0  0  0  0  0  0  0
  160.6380  205.5430  152.7690 C   0  0  0  0  0  0  0  0  0  0  0  0
  160.9180  207.5120  151.3900 C   0  0  0  0  0  3  0  0  0  0  0  0
  161.5040  208.2540  152.5290 C   0  0  0  0  0  0  0  0  0  0  0  0
  160.6820  205.7570  148.9670 C   0  0  1  0  0  3  0  0  0  0  0  0
  159.6600  204.0500  150.5810 C   0  0  0  0  0  2  0  0  0  0  0  0
  161.9690  205.0190  148.9030 N   0  0  0  0  0  0  0  0  0  0  0  0
  159.9130  205.5350  150.2910 C   0  0  1  0  0  3  0  0  0  0  0  0
  160.5570  203.1300  149.7590 C   0  0  0  0  0  2  0  0  0  0  0  0
  161.9560  203.7340  149.6370 C   0  0  0  0  0  2  0  0  0  0  0  0
  162.6050  203.3970  147.3330 F   0  0  0  0  0  0  0  0  0  0  0  0
  162.3290  204.7440  147.4990 C   0  0  0  0  0  0  0  0  0  0  0  0
  161.2960  205.0990  146.6420 F   0  0  0  0  0  0  0  0  0  0  0  0
  163.4650  205.4510  147.1470 F   0  0  0  0  0  0  0  0  0  0  0  0
  160.8820  207.2450  148.6840 C   0  0  0  0  0  2  0  0  0  0  0  0
  162.3300  207.5070  148.2420 C   0  0  1  0  0  3  0  0  0  0  0  0
  162.7160  208.8930  148.1360 N   0  0  0  0  0  0  0  0  0  0  0  0
  163.0550  208.1200  149.3050 N   0  0  0  0  0  2  0  0  0  0  0  0
  161.6940  209.8520  148.5580 C   0  0  0  0  0  1  0  0  0  0  0  0
  160.9760  210.3020  151.2620 C   0  0  0  0  0  2  0  0  0  0  0  0
  161.8340  209.7220  152.2980 C   0  0  1  0  0  3  0  0  0  0  0  0
  160.7770  210.7160  152.6570 N   0  0  0  0  0  0  0  0  0  0  0  0
  159.5070  210.1410  153.1110 C   0  0  0  0  0  2  0  0  0  0  0  0
  158.6410  211.1720  153.7830 C   0  0  0  0  0  0  0  0  0  0  0  0
  158.0620  210.9740  155.1350 C   0  0  2  0  0  3  0  0  0  0  0  0
  157.2960  213.0530  154.0870 C   0  0  0  0  0  3  0  0  0  0  0  0
  157.1360  212.1720  155.3250 C   0  0  0  0  0  3  0  0  0  0  0  0
  158.2260  212.2920  153.2190 C   0  0  0  0  0  0  0  0  0  0  0  0
  159.1570  211.0160  156.1850 C   0  0  0  0  0  1  0  0  0  0  0  0
  158.6090  212.6910  151.9350 O   0  0  0  0  0  0  0  0  0  0  0  0
  159.1430  213.9410  151.6920 N   0  0  0  0  0  2  0  0  0  0  0  0
  159.1400  214.1740  150.2550 C   0  0  2  0  0  3  0  0  0  0  0  0
  157.7890  213.7740  149.6720 C   0  0  0  0  0  2  0  0  0  0  0  0
  157.6400  214.3550  147.9540 S   0  0  0  0  0  0  0  0  0  0  0  0
  157.7370  212.5600  145.9040 C   0  0  0  0  0  1  0  0  0  0  0  0
  157.2560  212.6890  147.3350 C   0  0  0  0  0  2  0  0  0  0  0  0
  160.2500  213.3740  149.5810 C   0  0  0  0  0  2  0  0  0  0  0  0
  160.9780  214.2000  148.6780 O   0  0  0  0  0  0  0  0  0  0  0  0
  161.2810  213.1890  146.4220 C   0  0  0  0  0  1  0  0  0  0  0  0
  163.0690  213.5510  147.9380 O   0  0  0  0  0  0  0  0  0  0  0  0
  161.8320  213.6530  147.7180 C   0  0  0  0  0  0  0  0  0  0  0  0
  161.9550  208.4080  154.9870 C   0  0  0  0  0  0  0  0  0  0  0  0
  161.5230  207.9090  156.3250 C   0  0  0  0  0  1  0  0  0  0  0  0
  162.6060  209.4830  154.9320 O   0  0  0  0  0  0  0  0  0  0  0  0
  1  5  1  0  0  0  0
  3  2  1  0  0  0  0
  3 45  1  0  0  0  0
  5  4  2  0  0  0  0
  5  2  1  0  0  0  0
  6  1  2  0  0  0  0
  6  7  1  0  0  0  0
  7  3  2  0  0  0  0
  8 18  1  1  0  0  0
  8 11  1  0  0  0  0
 10  8  1  0  0  0  0
 10 13  1  0  0  0  0
 11  9  1  0  0  0  0
 11  1  1  1  0  0  0
 12  9  1  0  0  0  0
 13 12  1  0  0  0  0
 14 15  1  0  0  0  0
 15 10  1  0  0  0  0
 16 15  1  0  0  0  0
 17 15  1  0  0  0  0
 19 18  1  1  0  0  0
 19 21  1  0  0  0  0
 20 19  1  0  0  0  0
 20 22  1  0  0  0  0
 20 21  1  0  0  0  0
 23 24  1  0  0  0  0
 23 25  1  0  0  0  0
 24  7  1  1  0  0  0
 24 25  1  0  0  0  0
 25 26  1  0  0  0  0
 26 27  1  0  0  0  0
 27 28  1  0  0  0  0
 28 30  1  0  0  0  0
 28 32  1  1  0  0  0
 29 30  2  0  0  0  0
 31 27  2  0  0  0  0
 31 29  1  0  0  0  0
 33 31  1  0  0  0  0
 34 33  1  0  0  0  0
 35 40  1  6  0  0  0
 35 34  1  0  0  0  0
 36 35  1  0  0  0  0
 37 36  1  0  0  0  0
 38 39  1  0  0  0  0
 39 37  1  0  0  0  0
 41 40  1  0  0  0  0
 42 44  1  0  0  0  0
 44 43  2  0  0  0  0
 44 41  1  0  0  0  0
 45 46  1  0  0  0  0
 47 45  2  0  0  0  0
M  END
>  <MODEL>
6

>  <REMARK>
 VINA RESULT:      -4.3      3.344      7.659
  Name = 
  17 active torsions:
  status: ('A' for Active; 'I' for Inactive)
    1  A    between atoms: C_2  and  C_26
    2  A    between atoms: C_4  and  C_21
    3  A    between atoms: C_6  and  C_26
    4  A    between atoms: O_8  and  C_42
    5  A    between atoms: O_8  and  N_47
    6  A    between atoms: S_9  and  C_16
    7  A    between atoms: S_9  and  C_46
    8  A    between atoms: C_11  and  C_12
    9  A    between atoms: C_11  and  N_25
   10  A    between atoms: C_13  and  C_45
   11  A    between atoms: C_14  and  C_16
   12  A    between atoms: C_14  and  C_35
   13  A    between atoms: C_14  and  N_47
   14  A    between atoms: N_20  and  C_32
   15  A    between atoms: C_24  and  O_41
   16  A    between atoms: C_28  and  C_30
   17  A    between atoms: C_35  and  O_41
                            x       y       z     vdW  Elec       q    Type
                         _______ _______ _______ _____ _____    ______ ____

>  <TORSDO>
F 17

$$$$
=
 OpenBabel11072414283D

 47 51  0  0  1  0  0  0  0  0999 V2000
  158.8220  212.3290  154.9070 C   0  0  0  0  0  0  0  0  0  0  0  0
  158.6420  209.8400  155.5540 C   0  0  0  0  0  2  0  0  0  0  0  0
  160.1250  209.7730  155.2540 C   0  0  0  0  0  0  0  0  0  0  0  0
  156.9560  211.4410  156.0720 O   0  0  0  0  0  0  0  0  0  0  0  0
  158.0850  211.2320  155.5540 C   0  0  0  0  0  0  0  0  0  0  0  0
  160.0680  212.1120  154.4820 C   0  0  0  0  0  3  0  0  0  0  0  0
  160.7500  210.8050  154.6210 C   0  0  0  0  0  0  0  0  0  0  0  0
  157.1480  213.7650  153.5910 C   0  0  1  0  0  3  0  0  0  0  0  0
  157.6080  214.2040  156.0730 C   0  0  0  0  0  2  0  0  0  0  0  0
  155.8720  213.0650  153.8890 N   0  0  0  0  0  0  0  0  0  0  0  0
  158.1750  213.6840  154.7460 C   0  0  1  0  0  3  0  0  0  0  0  0
  156.0840  214.2850  156.0700 C   0  0  0  0  0  2  0  0  0  0  0  0
  155.4980  213.0890  155.3200 C   0  0  0  0  0  2  0  0  0  0  0  0
  153.9810  214.4510  153.9390 F   0  0  0  0  0  0  0  0  0  0  0  0
  154.7690  213.6660  153.1140 C   0  0  0  0  0  0  0  0  0  0  0  0
  155.2590  214.4530  152.0800 F   0  0  0  0  0  0  0  0  0  0  0  0
  153.9620  212.6770  152.5800 F   0  0  0  0  0  0  0  0  0  0  0  0
  157.7530  213.2790  152.2760 C   0  0  0  0  0  2  0  0  0  0  0  0
  157.7300  214.4110  151.2370 C   0  0  1  0  0  3  0  0  0  0  0  0
  158.8310  214.4340  150.3040 N   0  0  0  0  0  0  0  0  0  0  0  0
  157.5600  213.8640  149.9310 N   0  0  0  0  0  2  0  0  0  0  0  0
  159.7660  213.3140  150.4260 C   0  0  0  0  0  1  0  0  0  0  0  0
  162.5990  209.3600  153.8660 C   0  0  0  0  0  2  0  0  0  0  0  0
  162.2030  210.7360  154.1740 C   0  0  1  0  0  3  0  0  0  0  0  0
  162.4560  210.3160  152.7610 N   0  0  0  0  0  0  0  0  0  0  0  0
  161.2620  209.9350  152.0010 C   0  0  0  0  0  2  0  0  0  0  0  0
  161.5960  209.6210  150.5670 C   0  0  0  0  0  0  0  0  0  0  0  0
  161.6080  210.6550  149.5020 C   0  0  2  0  0  3  0  0  0  0  0  0
  162.0030  208.4030  148.6200 C   0  0  0  0  0  3  0  0  0  0  0  0
  161.8200  209.8640  148.2140 C   0  0  0  0  0  3  0  0  0  0  0  0
  161.8060  208.4080  150.0900 C   0  0  0  0  0  0  0  0  0  0  0  0
  162.7770  211.6020  149.7060 C   0  0  0  0  0  1  0  0  0  0  0  0
  161.8160  207.2610  150.8900 O   0  0  0  0  0  0  0  0  0  0  0  0
  161.8770  205.9950  150.3430 N   0  0  0  0  0  2  0  0  0  0  0  0
  160.5220  205.5550  150.0430 C   0  0  2  0  0  3  0  0  0  0  0  0
  160.1590  204.3680  150.9280 C   0  0  0  0  0  2  0  0  0  0  0  0
  161.3670  204.1850  152.2760 S   0  0  0  0  0  0  0  0  0  0  0  0
  160.8300  201.9610  150.7940 C   0  0  0  0  0  1  0  0  0  0  0  0
  161.9000  202.5480  151.6910 C   0  0  0  0  0  2  0  0  0  0  0  0
  160.3990  205.1620  148.5750 C   0  0  0  0  0  2  0  0  0  0  0  0
  161.4260  204.2400  148.2210 O   0  0  0  0  0  0  0  0  0  0  0  0
  163.4970  204.6020  146.8860 C   0  0  0  0  0  1  0  0  0  0  0  0
  161.3990  204.0680  145.9160 O   0  0  0  0  0  0  0  0  0  0  0  0
  162.0500  204.2890  146.9730 C   0  0  0  0  0  0  0  0  0  0  0  0
  160.8210  208.5190  155.6400 C   0  0  0  0  0  0  0  0  0  0  0  0
  160.8130  207.3370  154.7300 C   0  0  0  0  0  1  0  0  0  0  0  0
  161.4130  208.4180  156.7460 O   0  0  0  0  0  0  0  0  0  0  0  0
  1  5  1  0  0  0  0
  2  5  1  0  0  0  0
  3  2  1  0  0  0  0
  3 45  1  0  0  0  0
  5  4  2  0  0  0  0
  6  7  1  0  0  0  0
  6  1  2  0  0  0  0
  7  3  2  0  0  0  0
  8 18  1  6  0  0  0
  8 10  1  0  0  0  0
  8 11  1  0  0  0  0
 10 13  1  0  0  0  0
 11  1  1  1  0  0  0
 11  9  1  0  0  0  0
 12  9  1  0  0  0  0
 13 12  1  0  0  0  0
 15 10  1  0  0  0  0
 15 14  1  0  0  0  0
 16 15  1  0  0  0  0
 17 15  1  0  0  0  0
 19 18  1  1  0  0  0
 20 22  1  0  0  0  0
 20 19  1  0  0  0  0
 21 20  1  0  0  0  0
 21 19  1  0  0  0  0
 23 24  1  0  0  0  0
 24  7  1  6  0  0  0
 25 23  1  0  0  0  0
 25 24  1  0  0  0  0
 26 25  1  0  0  0  0
 27 26  1  0  0  0  0
 28 32  1  1  0  0  0
 28 27  1  0  0  0  0
 29 31  1  0  0  0  0
 30 29  2  0  0  0  0
 30 28  1  0  0  0  0
 31 27  2  0  0  0  0
 31 33  1  0  0  0  0
 34 33  1  0  0  0  0
 35 40  1  6  0  0  0
 35 34  1  0  0  0  0
 35 36  1  0  0  0  0
 36 37  1  0  0  0  0
 38 39  1  0  0  0  0
 39 37  1  0  0  0  0
 41 40  1  0  0  0  0
 42 44  1  0  0  0  0
 43 44  2  0  0  0  0
 44 41  1  0  0  0  0
 45 47  2  0  0  0  0
 46 45  1  0  0  0  0
M  END
>  <MODEL>
7

>  <REMARK>
 VINA RESULT:      -4.2      3.043      4.741
  Name = 
  17 active torsions:
  status: ('A' for Active; 'I' for Inactive)
    1  A    between atoms: C_2  and  C_26
    2  A    between atoms: C_4  and  C_21
    3  A    between atoms: C_6  and  C_26
    4  A    between atoms: O_8  and  C_42
    5  A    between atoms: O_8  and  N_47
    6  A    between atoms: S_9  and  C_16
    7  A    between atoms: S_9  and  C_46
    8  A    between atoms: C_11  and  C_12
    9  A    between atoms: C_11  and  N_25
   10  A    between atoms: C_13  and  C_45
   11  A    between atoms: C_14  and  C_16
   12  A    between atoms: C_14  and  C_35
   13  A    between atoms: C_14  and  N_47
   14  A    between atoms: N_20  and  C_32
   15  A    between atoms: C_24  and  O_41
   16  A    between atoms: C_28  and  C_30
   17  A    between atoms: C_35  and  O_41
                            x       y       z     vdW  Elec       q    Type
                         _______ _______ _______ _____ _____    ______ ____

>  <TORSDO>
F 17

$$$$
