=
 OpenBabel11072414303D

 65 70  0  0  1  0  0  0  0  0999 V2000
  160.1630  212.2800  154.0880 O   0  0  0  0  0  0  0  0  0  0  0  0
  162.1750  212.3480  147.7260 C   0  0  1  0  0  3  0  0  0  0  0  0
  158.5090  211.6840  152.5810 O   0  0  0  0  0  0  0  0  0  0  0  0
  160.5660  207.2800  153.7240 N   0  0  0  0  0  0  0  0  0  0  0  0
  158.7910  213.7370  151.3980 C   0  0  0  0  0  3  0  0  0  0  0  0
  163.3320  214.4340  147.4780 O   0  0  0  0  0  0  0  0  0  0  0  0
  162.0250  203.5840  146.1500 C   0  0  0  0  0  3  0  0  0  0  0  0
  162.3930  208.1760  147.8040 N   0  0  0  0  0  2  0  0  0  0  0  0
  162.1370  211.1740  146.7270 C   0  0  2  0  0  3  0  0  0  0  0  0
  160.4520  207.7760  152.5190 C   0  0  0  0  0  0  0  0  0  0  0  0
  162.7400  213.0940  145.2680 P   0  0  2  0  0  0  0  0  0  0  0  0
  160.0460  209.1980  152.3610 C   0  0  0  0  0  3  0  0  0  0  0  0
  163.1410  211.8760  151.2250 C   0  0  0  0  0  2  0  0  0  0  0  0
  161.3680  202.2730  146.2000 C   0  0  0  0  0  3  0  0  0  0  0  0
  161.9280  211.5980  145.3890 O   0  0  0  0  0  0  0  0  0  0  0  0
  160.3570  208.1010  154.9250 C   0  0  0  0  0  2  0  0  0  0  0  0
  158.1170  213.0140  152.3110 C   0  0  0  0  0  0  0  0  0  0  0  0
  162.9070  212.0050  148.8940 O   0  0  0  0  0  0  0  0  0  0  0  0
  160.5520  206.9160  151.3950 N   0  0  0  0  0  2  0  0  0  0  0  0
  161.5710  209.2720  148.3270 C   0  0  0  0  0  2  0  0  0  0  0  0
  161.0840  212.7800  150.4480 C   0  0  0  0  0  0  0  0  0  0  0  0
  160.4760  204.3540  147.9170 C   0  0  1  0  0  3  0  0  0  0  0  0
  160.3130  202.8730  148.3110 C   0  0  0  0  0  2  0  0  0  0  0  0
  161.5900  207.1190  150.3900 C   0  0  2  0  0  3  0  0  0  0  0  0
  160.8050  209.5460  154.6700 C   0  0  0  0  0  2  0  0  0  0  0  0
  162.3980  212.2290  150.1820 C   0  0  0  0  0  0  0  0  0  0  0  0
  160.6890  205.1590  149.1730 C   0  0  0  0  0  3  0  0  0  0  0  0
  162.3360  205.8910  146.8970 C   0  0  0  0  0  2  0  0  0  0  0  0
  159.6460  211.3990  153.3410 C   0  0  0  0  0  0  0  0  0  0  0  0
  160.5600  201.9740  147.1690 N   0  0  0  0  0  0  0  0  0  0  0  0
  164.1210  212.9460  144.6450 O   0  0  0  0  0  1  0  0  0  0  0  0
  161.6360  204.5580  146.9760 C   0  0  0  0  0  0  0  0  0  0  0  0
  161.6050  206.9520  147.7450 C   0  0  1  0  0  3  0  0  0  0  0  0
  162.8470  213.4210  146.9810 C   0  0  0  0  0  0  0  0  0  0  0  0
  161.0630  210.1830  147.1990 C   0  0  2  0  0  3  0  0  0  0  0  0
  160.1570  210.0310  153.4090 C   0  0  0  0  0  0  0  0  0  0  0  0
  161.8240  214.2630  144.4270 O   0  0  0  0  0  0  0  0  0  0  0  0
  160.0170  213.2280  150.7980 C   0  0  0  0  0  0  0  0  0  0  0  0
  161.2420  206.3900  149.1120 C   0  0  0  0  0  0  0  0  0  0  0  0
  156.8570  213.4400  154.4460 C   0  0  0  0  0  0  0  0  0  0  0  0
  156.7330  211.3140  156.6990 C   0  0  0  0  0  2  0  0  0  0  0  0
  156.9950  213.5550  153.1220 C   0  0  0  0  0  3  0  0  0  0  0  0
  157.8730  212.8430  155.1960 O   0  0  0  0  0  0  0  0  0  0  0  0
  154.7350  212.6140  155.5900 C   0  0  2  0  0  3  0  0  0  0  0  0
  155.5600  211.3010  155.6760 C   0  0  2  0  0  3  0  0  0  0  0  0
  157.6450  212.5350  156.5670 C   0  0  2  0  0  3  0  0  0  0  0  0
  155.5490  213.8190  155.1110 C   0  0  0  0  0  2  0  0  0  0  0  0
  154.4770  210.1480  157.2600 C   0  0  0  0  0  1  0  0  0  0  0  0
  154.7690  210.1650  155.8960 O   0  0  0  0  0  0  0  0  0  0  0  0
  154.4710  214.2210  157.1120 C   0  0  0  0  0  1  0  0  0  0  0  0
  154.1030  212.9080  156.8000 O   0  0  0  0  0  0  0  0  0  0  0  0
  158.9110  212.3240  157.2600 N   0  0  0  0  0  2  0  0  0  0  0  0
  159.3270  210.9400  157.0710 C   0  0  0  0  0  2  0  0  0  0  0  0
  160.8450  210.8320  156.9270 C   0  0  0  0  0  2  0  0  0  0  0  0
  161.5170  212.0940  157.2140 N   0  0  0  0  0  2  0  0  0  0  0  0
  162.9360  211.9750  156.8720 C   0  0  0  0  0  1  0  0  0  0  0  0
  162.8660  206.5880  150.9050 C   0  0  0  0  0  0  0  0  0  0  0  0
  163.9150  206.1420  151.2970 C   0  0  0  0  0  3  0  0  0  0  0  0
  160.3810  209.4120  146.0680 C   0  0  0  0  0  2  0  0  0  0  0  0
  159.7400  210.3140  145.2110 O   0  0  0  0  0  0  0  0  0  0  0  0
  159.5740  211.4770  145.9900 C   0  0  0  0  0  2  0  0  0  0  0  0
  158.8040  213.7110  145.4360 O   0  0  0  0  0  1  0  0  0  0  0  0
  158.4520  212.3530  145.4280 C   0  0  2  0  0  3  0  0  0  0  0  0
  157.2550  212.1670  146.2040 N   0  0  0  0  0  0  0  0  0  0  0  0
  156.9350  213.0210  147.1070 C   0  0  0  0  0  2  0  0  0  0  0  0
  2 34  1  6  0  0  0
  2 18  1  0  0  0  0
  3 29  1  0  0  0  0
  4 16  1  0  0  0  0
  5 17  2  0  0  0  0
  7 14  1  0  0  0  0
  7 32  2  0  0  0  0
  8 20  1  0  0  0  0
  9 15  1  6  0  0  0
  9 35  1  0  0  0  0
  9  2  1  0  0  0  0
 10  4  2  0  0  0  0
 11 37  2  6  0  0  0
 11 15  1  0  0  0  0
 11 34  1  0  0  0  0
 12 10  1  0  0  0  0
 12 36  2  0  0  0  0
 14 30  2  0  0  0  0
 17  3  1  0  0  0  0
 17 42  1  0  0  0  0
 18 26  1  0  0  0  0
 19 10  1  0  0  0  0
 21 38  3  0  0  0  0
 22 23  1  1  0  0  0
 22 27  1  0  0  0  0
 24 57  1  1  0  0  0
 24 19  1  0  0  0  0
 25 16  1  0  0  0  0
 26 21  1  0  0  0  0
 26 13  2  0  0  0  0
 28 32  1  0  0  0  0
 29 36  1  0  0  0  0
 29  1  2  0  0  0  0
 30 23  1  0  0  0  0
 31 11  1  0  0  0  0
 32 22  1  0  0  0  0
 33 28  1  1  0  0  0
 33  8  1  0  0  0  0
 33 39  1  0  0  0  0
 34  6  2  0  0  0  0
 35 59  1  6  0  0  0
 35 20  1  0  0  0  0
 36 25  1  0  0  0  0
 38  5  1  0  0  0  0
 39 27  2  0  0  0  0
 39 24  1  0  0  0  0
 40 47  1  0  0  0  0
 40 43  1  0  0  0  0
 42 40  2  0  0  0  0
 43 46  1  0  0  0  0
 44 45  1  0  0  0  0
 44 51  1  1  0  0  0
 45 49  1  1  0  0  0
 45 41  1  0  0  0  0
 46 41  1  0  0  0  0
 46 52  1  6  0  0  0
 47 44  1  0  0  0  0
 49 48  1  0  0  0  0
 51 50  1  0  0  0  0
 53 52  1  0  0  0  0
 54 53  1  0  0  0  0
 54 55  1  0  0  0  0
 56 55  1  0  0  0  0
 57 58  3  0  0  0  0
 60 61  1  0  0  0  0
 60 59  1  0  0  0  0
 63 62  1  1  0  0  0
 63 61  1  0  0  0  0
 63 64  1  0  0  0  0
 64 65  2  0  0  0  0
M  END
>  <MODEL>
1

>  <REMARK>
 VINA RESULT:      13.9      0.000      0.000
  Name = 
  13 active torsions:
  status: ('A' for Active; 'I' for Inactive)
    1  A    between atoms: N_1  and  C_52
    2  A    between atoms: N_1  and  C_61
    3  A    between atoms: N_3  and  C_44
    4  A    between atoms: O_4  and  C_13
    5  A    between atoms: O_4  and  C_49
    6  A    between atoms: N_10  and  C_47
    7  A    between atoms: C_12  and  C_40
    8  A    between atoms: C_13  and  C_47
    9  A    between atoms: C_19  and  C_29
   10  A    between atoms: O_39  and  C_46
   11  A    between atoms: C_44  and  C_61
   12  A    between atoms: C_49  and  C_58
   13  A    between atoms: C_50  and  O_62
                            x       y       z     vdW  Elec       q    Type
                         _______ _______ _______ _____ _____    ______ ____

>  <TORSDO>
F 13

$$$$
=
 OpenBabel11072414303D

 65 70  0  0  1  0  0  0  0  0999 V2000
  160.0470  212.4580  154.0440 O   0  0  0  0  0  0  0  0  0  0  0  0
  161.7210  211.9650  147.6030 C   0  0  1  0  0  3  0  0  0  0  0  0
  158.3540  211.6220  152.7030 O   0  0  0  0  0  0  0  0  0  0  0  0
  160.7180  207.4750  154.1680 N   0  0  0  0  0  0  0  0  0  0  0  0
  158.4560  213.5520  151.3030 C   0  0  0  0  0  3  0  0  0  0  0  0
  162.7410  214.0710  147.0790 O   0  0  0  0  0  0  0  0  0  0  0  0
  161.9960  203.0880  146.9380 C   0  0  0  0  0  3  0  0  0  0  0  0
  162.1830  207.8410  148.0920 N   0  0  0  0  0  2  0  0  0  0  0  0
  161.6990  210.6920  146.7330 C   0  0  2  0  0  3  0  0  0  0  0  0
  160.5140  207.8350  152.9270 C   0  0  0  0  0  0  0  0  0  0  0  0
  162.1140  212.4780  145.0540 P   0  0  2  0  0  0  0  0  0  0  0  0
  160.0190  209.2100  152.6490 C   0  0  0  0  0  3  0  0  0  0  0  0
  162.8920  211.9120  151.0720 C   0  0  0  0  0  2  0  0  0  0  0  0
  161.4190  201.7570  147.1580 C   0  0  0  0  0  3  0  0  0  0  0  0
  161.3970  210.9630  145.3730 O   0  0  0  0  0  0  0  0  0  0  0  0
  160.5240  208.4060  155.2890 C   0  0  0  0  0  2  0  0  0  0  0  0
  157.8730  212.8940  152.3220 C   0  0  0  0  0  0  0  0  0  0  0  0
  162.5310  211.7840  148.7570 O   0  0  0  0  0  0  0  0  0  0  0  0
  160.6060  206.8690  151.8930 N   0  0  0  0  0  2  0  0  0  0  0  0
  161.3270  208.9410  148.5480 C   0  0  0  0  0  2  0  0  0  0  0  0
  160.7480  212.6220  150.3260 C   0  0  0  0  0  0  0  0  0  0  0  0
  160.4980  203.9570  148.7030 C   0  0  1  0  0  3  0  0  0  0  0  0
  160.4410  202.5190  149.2540 C   0  0  0  0  0  2  0  0  0  0  0  0
  161.5770  207.0190  150.8150 C   0  0  2  0  0  3  0  0  0  0  0  0
  160.8750  209.8370  154.8630 C   0  0  0  0  0  2  0  0  0  0  0  0
  162.0760  212.1160  150.0420 C   0  0  0  0  0  0  0  0  0  0  0  0
  160.7290  204.8990  149.8560 C   0  0  0  0  0  3  0  0  0  0  0  0
  162.2120  205.4740  147.4270 C   0  0  0  0  0  2  0  0  0  0  0  0
  159.5430  211.4780  153.4220 C   0  0  0  0  0  0  0  0  0  0  0  0
  160.6810  201.5190  148.1980 N   0  0  0  0  0  0  0  0  0  0  0  0
  163.4670  212.3370  144.3720 O   0  0  0  0  0  1  0  0  0  0  0  0
  161.5940  204.1220  147.6820 C   0  0  0  0  0  0  0  0  0  0  0  0
  161.4650  206.5780  148.2040 C   0  0  1  0  0  3  0  0  0  0  0  0
  162.2900  212.9870  146.7160 C   0  0  0  0  0  0  0  0  0  0  0  0
  160.7100  209.7010  147.3630 C   0  0  2  0  0  3  0  0  0  0  0  0
  160.1350  210.1530  153.5990 C   0  0  0  0  0  0  0  0  0  0  0  0
  161.0910  213.5030  144.1530 O   0  0  0  0  0  0  0  0  0  0  0  0
  159.6770  213.0480  150.6890 C   0  0  0  0  0  0  0  0  0  0  0  0
  161.2060  206.1430  149.6390 C   0  0  0  0  0  0  0  0  0  0  0  0
  156.7100  213.4920  154.4710 C   0  0  0  0  0  0  0  0  0  0  0  0
  156.8620  211.6460  156.9560 C   0  0  0  0  0  2  0  0  0  0  0  0
  156.7640  213.4580  153.1360 C   0  0  0  0  0  3  0  0  0  0  0  0
  157.8060  213.0520  155.2180 O   0  0  0  0  0  0  0  0  0  0  0  0
  154.7190  212.6800  155.8370 C   0  0  2  0  0  3  0  0  0  0  0  0
  155.6360  211.4400  156.0200 C   0  0  2  0  0  3  0  0  0  0  0  0
  157.6790  212.8950  156.6270 C   0  0  2  0  0  3  0  0  0  0  0  0
  155.4200  213.8670  155.1710 C   0  0  0  0  0  2  0  0  0  0  0  0
  154.9310  209.4340  155.3180 C   0  0  0  0  0  1  0  0  0  0  0  0
  154.9380  210.2910  156.4190 O   0  0  0  0  0  0  0  0  0  0  0  0
  153.9130  214.4510  156.9240 C   0  0  0  0  0  1  0  0  0  0  0  0
  154.1390  213.0760  157.0440 O   0  0  0  0  0  0  0  0  0  0  0  0
  158.9940  212.8460  157.2560 N   0  0  0  0  0  2  0  0  0  0  0  0
  160.0040  212.6540  156.2230 C   0  0  0  0  0  2  0  0  0  0  0  0
  161.4040  212.5520  156.8270 C   0  0  0  0  0  2  0  0  0  0  0  0
  161.9070  211.1830  156.8250 N   0  0  0  0  0  2  0  0  0  0  0  0
  163.3690  211.2050  156.8890 C   0  0  0  0  0  1  0  0  0  0  0  0
  162.9060  206.6120  151.3060 C   0  0  0  0  0  0  0  0  0  0  0  0
  163.9930  206.2570  151.6870 C   0  0  0  0  0  3  0  0  0  0  0  0
  160.0170  208.7820  146.3580 C   0  0  0  0  0  2  0  0  0  0  0  0
  160.9490  207.8790  145.8340 O   0  0  0  0  0  0  0  0  0  0  0  0
  160.1620  206.8530  145.2720 C   0  0  0  0  0  2  0  0  0  0  0  0
  162.3950  205.9570  144.9540 O   0  0  0  0  0  1  0  0  0  0  0  0
  161.0440  205.7870  144.6160 C   0  0  2  0  0  3  0  0  0  0  0  0
  160.8980  205.8490  143.1870 N   0  0  0  0  0  0  0  0  0  0  0  0
  161.9380  205.8730  142.4350 C   0  0  0  0  0  2  0  0  0  0  0  0
  2 34  1  6  0  0  0
  2 18  1  0  0  0  0
  3 29  1  0  0  0  0
  4 16  1  0  0  0  0
  5 17  2  0  0  0  0
  7 14  1  0  0  0  0
  7 32  2  0  0  0  0
  8 33  1  0  0  0  0
  8 20  1  0  0  0  0
  9 15  1  6  0  0  0
  9 35  1  0  0  0  0
  9  2  1  0  0  0  0
 10  4  2  0  0  0  0
 11 37  2  6  0  0  0
 11 15  1  0  0  0  0
 11 34  1  0  0  0  0
 12 10  1  0  0  0  0
 12 36  2  0  0  0  0
 14 30  2  0  0  0  0
 17  3  1  0  0  0  0
 17 42  1  0  0  0  0
 18 26  1  0  0  0  0
 19 10  1  0  0  0  0
 21 38  3  0  0  0  0
 22 23  1  1  0  0  0
 22 27  1  0  0  0  0
 24 57  1  1  0  0  0
 24 19  1  0  0  0  0
 25 16  1  0  0  0  0
 26 21  1  0  0  0  0
 26 13  2  0  0  0  0
 28 32  1  0  0  0  0
 29 36  1  0  0  0  0
 29  1  2  0  0  0  0
 30 23  1  0  0  0  0
 31 11  1  0  0  0  0
 32 22  1  0  0  0  0
 33 28  1  1  0  0  0
 33 39  1  0  0  0  0
 34  6  2  0  0  0  0
 35 59  1  6  0  0  0
 35 20  1  0  0  0  0
 36 25  1  0  0  0  0
 38  5  1  0  0  0  0
 39 27  2  0  0  0  0
 39 24  1  0  0  0  0
 40 47  1  0  0  0  0
 40 43  1  0  0  0  0
 42 40  2  0  0  0  0
 43 46  1  0  0  0  0
 44 45  1  0  0  0  0
 44 51  1  1  0  0  0
 45 49  1  1  0  0  0
 45 41  1  0  0  0  0
 46 41  1  0  0  0  0
 46 52  1  1  0  0  0
 47 44  1  0  0  0  0
 48 49  1  0  0  0  0
 50 51  1  0  0  0  0
 53 54  1  0  0  0  0
 53 52  1  0  0  0  0
 55 54  1  0  0  0  0
 55 56  1  0  0  0  0
 57 58  3  0  0  0  0
 60 59  1  0  0  0  0
 61 60  1  0  0  0  0
 63 62  1  6  0  0  0
 63 61  1  0  0  0  0
 64 63  1  0  0  0  0
 65 64  2  0  0  0  0
M  END
>  <MODEL>
2

>  <REMARK>
 VINA RESULT:      15.8      1.417      2.310
  Name = 
  13 active torsions:
  status: ('A' for Active; 'I' for Inactive)
    1  A    between atoms: N_1  and  C_52
    2  A    between atoms: N_1  and  C_61
    3  A    between atoms: N_3  and  C_44
    4  A    between atoms: O_4  and  C_13
    5  A    between atoms: O_4  and  C_49
    6  A    between atoms: N_10  and  C_47
    7  A    between atoms: C_12  and  C_40
    8  A    between atoms: C_13  and  C_47
    9  A    between atoms: C_19  and  C_29
   10  A    between atoms: O_39  and  C_46
   11  A    between atoms: C_44  and  C_61
   12  A    between atoms: C_49  and  C_58
   13  A    between atoms: C_50  and  O_62
                            x       y       z     vdW  Elec       q    Type
                         _______ _______ _______ _____ _____    ______ ____

>  <TORSDO>
F 13

$$$$
