=
 OpenBabel11072413433D

 44 50  0  0  1  0  0  0  0  0999 V2000
  160.8790  211.4000  154.0170 O   0  0  0  0  0  0  0  0  0  0  0  0
  160.0650  209.3100  156.4700 C   0  0  1  0  0  3  0  0  0  0  0  0
  160.0980  212.3090  154.8120 C   0  0  2  0  0  3  0  0  0  0  0  0
  158.1310  211.2190  156.1390 C   0  0  0  0  0  1  0  0  0  0  0  0
  160.6760  204.9360  152.6210 C   0  0  0  0  0  2  0  0  0  0  0  0
  161.4290  211.0790  149.5460 C   0  0  0  0  0  3  0  0  0  0  0  0
  161.4270  206.6080  147.2590 O   0  0  0  0  0  0  0  0  0  0  0  0
  162.0440  204.8840  151.9390 C   0  0  2  0  0  0  0  0  0  0  0  0
  160.1760  212.4710  151.9650 C   0  0  0  0  0  0  0  0  0  0  0  0
  161.5930  210.4670  151.9820 C   0  0  0  0  0  3  0  0  0  0  0  0
  160.2430  212.9380  150.6860 C   0  0  0  0  0  0  0  0  0  0  0  0
  161.6650  208.3270  148.8000 N   0  0  0  0  0  2  0  0  0  0  0  0
  160.8650  204.8140  149.6800 C   0  0  2  0  0  3  0  0  0  0  0  0
  162.0510  207.9130  151.0580 O   0  0  0  0  0  0  0  0  0  0  0  0
  161.8090  207.8480  156.3830 C   0  0  0  0  0  2  0  0  0  0  0  0
  160.9390  203.9350  148.4410 C   0  0  0  0  0  1  0  0  0  0  0  0
  160.3930  206.3310  153.1530 C   0  0  0  0  0  2  0  0  0  0  0  0
  160.9410  211.4370  152.6240 C   0  0  0  0  0  0  0  0  0  0  0  0
  159.6190  211.6110  156.1020 C   0  0  1  0  0  3  0  0  0  0  0  0
  161.2660  207.8300  154.9640 C   0  0  1  0  0  3  0  0  0  0  0  0
  161.2050  207.0240  148.4250 C   0  0  0  0  0  0  0  0  0  0  0  0
  161.2840  212.5650  149.6920 C   0  0  0  0  0  2  0  0  0  0  0  0
  159.3280  213.2470  152.6340 N   0  0  0  0  0  0  0  0  0  0  0  0
  159.3620  209.0340  154.2030 O   0  0  0  0  0  0  0  0  0  0  0  0
  160.7940  206.4230  154.6170 C   0  0  0  0  0  2  0  0  0  0  0  0
  159.4180  214.0040  150.5970 N   0  0  0  0  0  0  0  0  0  0  0  0
  158.9670  213.0490  154.0390 C   0  0  2  0  0  3  0  0  0  0  0  0
  160.1500  208.7680  155.0970 C   0  0  0  0  0  0  0  0  0  0  0  0
  160.8840  208.4760  157.2570 O   0  0  0  0  0  0  0  0  0  0  0  0
  160.5560  210.6370  156.5510 O   0  0  0  0  0  0  0  0  0  0  0  0
  158.8520  214.1530  151.7930 N   0  0  0  0  0  0  0  0  0  0  0  0
  160.3390  206.2160  149.3560 C   0  0  0  0  0  2  0  0  0  0  0  0
  162.2000  204.8390  150.4220 C   0  0  2  0  0  3  0  0  0  0  0  0
  162.3350  203.5690  151.2600 C   0  0  0  0  0  2  0  0  0  0  0  0
  161.7960  208.7590  150.1600 C   0  0  0  0  0  0  0  0  0  0  0  0
  161.6250  210.1780  150.5250 C   0  0  0  0  0  0  0  0  0  0  0  0
  163.1500  205.3580  152.6460 O   0  0  0  0  0  1  0  0  0  0  0  0
  158.6800  214.3840  154.7140 C   0  0  0  0  0  2  0  0  0  0  0  0
  157.2260  214.4530  155.1470 C   0  0  2  0  0  3  0  0  0  0  0  0
  157.1100  214.0710  156.4850 O   0  0  0  0  0  1  0  0  0  0  0  0
  156.4350  213.5610  154.3160 N   0  0  0  0  0  2  0  0  0  0  0  0
  155.5310  214.4520  152.2570 C   0  0  0  0  0  2  0  0  0  0  0  0
  154.5310  213.4720  152.8280 C   0  0  0  0  0  2  0  0  0  0  0  0
  155.3490  214.3460  153.7580 C   0  0  0  0  0  3  0  0  0  0  0  0
  2 28  1  6  0  0  0
  2 30  1  0  0  0  0
  2 29  1  0  0  0  0
  3  1  1  6  0  0  0
  3 19  1  0  0  0  0
  5 17  1  0  0  0  0
  6 22  1  0  0  0  0
  6 36  2  0  0  0  0
  7 21  2  0  0  0  0
  8  5  1  0  0  0  0
  8 37  1  1  0  0  0
  9 18  1  0  0  0  0
  9 23  1  0  0  0  0
 10 18  2  0  0  0  0
 11  9  2  0  0  0  0
 12 35  1  0  0  0  0
 13 16  1  6  0  0  0
 13 33  1  0  0  0  0
 15 29  1  0  0  0  0
 17 25  1  0  0  0  0
 18  1  1  0  0  0  0
 19  4  1  6  0  0  0
 19 30  1  0  0  0  0
 20 25  1  1  0  0  0
 20 28  1  0  0  0  0
 20 15  1  0  0  0  0
 21 12  1  0  0  0  0
 21 32  1  0  0  0  0
 22 11  1  0  0  0  0
 23 27  1  0  0  0  0
 24 28  2  0  0  0  0
 26 11  1  0  0  0  0
 26 31  2  0  0  0  0
 27 38  1  1  0  0  0
 27  3  1  0  0  0  0
 31 23  1  0  0  0  0
 32 13  1  0  0  0  0
 33 34  1  1  0  0  0
 33  8  1  0  0  0  0
 34  8  1  0  0  0  0
 35 36  1  0  0  0  0
 35 14  2  0  0  0  0
 36 10  1  0  0  0  0
 38 39  1  0  0  0  0
 39 40  1  1  0  0  0
 41 39  1  0  0  0  0
 42 43  1  0  0  0  0
 42 44  1  0  0  0  0
 43 44  1  0  0  0  0
 44 41  1  0  0  0  0
M  END
>  <MODEL>
1

>  <REMARK>
 VINA RESULT:      -5.2      0.000      0.000
  Name = 
  4 active torsions:
  status: ('A' for Active; 'I' for Inactive)
    1  A    between atoms: C_8  and  C_18
    2  A    between atoms: C_8  and  N_31
    3  A    between atoms: C_18  and  C_33
    4  A    between atoms: N_31  and  C_44
                            x       y       z     vdW  Elec       q    Type
                         _______ _______ _______ _____ _____    ______ ____

>  <TORSDO>
F 4

$$$$
=
 OpenBabel11072413433D

 44 50  0  0  1  0  0  0  0  0999 V2000
  161.4890  210.5280  153.0060 O   0  0  0  0  0  0  0  0  0  0  0  0
  160.3250  208.7900  155.5900 C   0  0  1  0  0  3  0  0  0  0  0  0
  160.8120  211.5990  153.6870 C   0  0  2  0  0  3  0  0  0  0  0  0
  158.6760  210.8990  155.0160 C   0  0  0  0  0  1  0  0  0  0  0  0
  160.4640  204.0470  152.1530 C   0  0  0  0  0  2  0  0  0  0  0  0
  162.1300  209.7400  148.6060 C   0  0  0  0  0  3  0  0  0  0  0  0
  161.6010  205.1220  146.7060 O   0  0  0  0  0  0  0  0  0  0  0  0
  161.8340  203.7570  151.5370 C   0  0  2  0  0  0  0  0  0  0  0  0
  161.0000  211.4950  150.8430 C   0  0  0  0  0  0  0  0  0  0  0  0
  162.1350  209.3320  151.0900 C   0  0  0  0  0  3  0  0  0  0  0  0
  161.1690  211.8320  149.5330 C   0  0  0  0  0  0  0  0  0  0  0  0
  162.0190  206.9250  148.1060 N   0  0  0  0  0  2  0  0  0  0  0  0
  160.7280  203.6400  149.2430 C   0  0  2  0  0  3  0  0  0  0  0  0
  162.2750  206.6680  150.4050 O   0  0  0  0  0  0  0  0  0  0  0  0
  161.8580  207.1110  155.7010 C   0  0  0  0  0  2  0  0  0  0  0  0
  160.7220  202.6520  148.0880 C   0  0  0  0  0  1  0  0  0  0  0  0
  160.3550  205.5090  152.5520 C   0  0  0  0  0  2  0  0  0  0  0  0
  161.5990  210.4320  151.6190 C   0  0  0  0  0  0  0  0  0  0  0  0
  160.2030  211.0880  155.0090 C   0  0  1  0  0  3  0  0  0  0  0  0
  161.3630  207.0370  154.2670 C   0  0  1  0  0  3  0  0  0  0  0  0
  161.4010  205.6650  147.8230 C   0  0  0  0  0  0  0  0  0  0  0  0
  162.1820  211.2390  148.6200 C   0  0  0  0  0  2  0  0  0  0  0  0
  160.2440  212.4320  151.4070 N   0  0  0  0  0  0  0  0  0  0  0  0
  159.6630  208.4080  153.3260 O   0  0  0  0  0  0  0  0  0  0  0  0
  160.7180  205.6790  154.0200 C   0  0  0  0  0  2  0  0  0  0  0  0
  160.4980  212.9850  149.3190 N   0  0  0  0  0  0  0  0  0  0  0  0
  159.8150  212.4090  152.8070 C   0  0  2  0  0  3  0  0  0  0  0  0
  160.3800  208.1210  154.2720 C   0  0  0  0  0  0  0  0  0  0  0  0
  161.0000  207.9300  156.4790 O   0  0  0  0  0  0  0  0  0  0  0  0
  160.9870  210.0430  155.5790 O   0  0  0  0  0  0  0  0  0  0  0  0
  159.9200  213.3130  150.4730 N   0  0  0  0  0  0  0  0  0  0  0  0
  160.4040  205.0640  148.7800 C   0  0  0  0  0  2  0  0  0  0  0  0
  162.0300  203.5570  150.0380 C   0  0  2  0  0  3  0  0  0  0  0  0
  161.9670  202.3600  150.9850 C   0  0  0  0  0  2  0  0  0  0  0  0
  162.1640  207.4560  149.4290 C   0  0  0  0  0  0  0  0  0  0  0  0
  162.1730  208.9120  149.6660 C   0  0  0  0  0  0  0  0  0  0  0  0
  162.9700  204.1430  152.2480 O   0  0  0  0  0  1  0  0  0  0  0  0
  159.6880  213.8240  153.3540 C   0  0  0  0  0  2  0  0  0  0  0  0
  158.2310  214.2480  153.3850 C   0  0  2  0  0  3  0  0  0  0  0  0
  157.7740  214.2850  154.7040 O   0  0  0  0  0  1  0  0  0  0  0  0
  157.4390  213.2990  152.6220 N   0  0  0  0  0  2  0  0  0  0  0  0
  157.0880  214.4440  150.5210 C   0  0  0  0  0  2  0  0  0  0  0  0
  156.1120  213.2920  150.6010 C   0  0  0  0  0  2  0  0  0  0  0  0
  156.4740  214.0650  151.8530 C   0  0  0  0  0  3  0  0  0  0  0  0
  2 28  1  6  0  0  0
  2 29  1  0  0  0  0
  3  1  1  6  0  0  0
  3 19  1  0  0  0  0
  5 17  1  0  0  0  0
  6 22  1  0  0  0  0
  6 36  2  0  0  0  0
  7 21  2  0  0  0  0
  8  5  1  0  0  0  0
  8 37  1  1  0  0  0
  9 23  1  0  0  0  0
  9 18  1  0  0  0  0
 10 18  2  0  0  0  0
 11  9  2  0  0  0  0
 12 35  1  0  0  0  0
 13 16  1  6  0  0  0
 13 33  1  0  0  0  0
 15 29  1  0  0  0  0
 17 25  1  0  0  0  0
 18  1  1  0  0  0  0
 19  4  1  6  0  0  0
 19 30  1  0  0  0  0
 20 25  1  1  0  0  0
 20 28  1  0  0  0  0
 20 15  1  0  0  0  0
 21 12  1  0  0  0  0
 21 32  1  0  0  0  0
 22 11  1  0  0  0  0
 23 27  1  0  0  0  0
 24 28  2  0  0  0  0
 26 11  1  0  0  0  0
 26 31  2  0  0  0  0
 27 38  1  1  0  0  0
 27  3  1  0  0  0  0
 30  2  1  0  0  0  0
 31 23  1  0  0  0  0
 32 13  1  0  0  0  0
 33 34  1  1  0  0  0
 33  8  1  0  0  0  0
 34  8  1  0  0  0  0
 35 36  1  0  0  0  0
 35 14  2  0  0  0  0
 36 10  1  0  0  0  0
 38 39  1  0  0  0  0
 39 40  1  1  0  0  0
 41 39  1  0  0  0  0
 42 43  1  0  0  0  0
 42 44  1  0  0  0  0
 43 44  1  0  0  0  0
 44 41  1  0  0  0  0
M  END
>  <MODEL>
2

>  <REMARK>
 VINA RESULT:      -2.6      1.316      1.574
  Name = 
  4 active torsions:
  status: ('A' for Active; 'I' for Inactive)
    1  A    between atoms: C_8  and  C_18
    2  A    between atoms: C_8  and  N_31
    3  A    between atoms: C_18  and  C_33
    4  A    between atoms: N_31  and  C_44
                            x       y       z     vdW  Elec       q    Type
                         _______ _______ _______ _____ _____    ______ ____

>  <TORSDO>
F 4

$$$$
