=
 OpenBabel11072411593D

 45 50  0  0  1  0  0  0  0  0999 V2000
  161.7350  210.6150  149.5010 C   0  0  1  0  0  3  0  0  0  0  0  0
  161.3750  208.4100  150.5440 N   0  0  0  0  0  0  0  0  0  0  0  0
  161.7990  209.0940  149.3190 C   0  0  0  0  0  2  0  0  0  0  0  0
  161.5080  210.4590  151.9170 C   0  0  2  0  0  3  0  0  0  0  0  0
  162.3020  210.9940  150.7960 N   0  0  0  0  0  2  0  0  0  0  0  0
  160.7150  209.1830  151.5950 C   0  0  0  0  0  2  0  0  0  0  0  0
  160.8400  206.1200  150.0040 C   0  0  0  0  0  3  0  0  0  0  0  0
  161.0320  204.6300  150.1230 C   0  0  1  0  0  3  0  0  0  0  0  0
  161.8140  205.8870  152.8590 C   0  0  0  0  0  0  0  0  0  0  0  0
  161.6340  202.8330  151.6750 N   0  0  0  0  0  1  0  0  0  0  0  0
  160.8390  204.8570  152.6540 N   0  0  0  0  0  2  0  0  0  0  0  0
  162.5590  206.4780  151.7120 C   0  0  0  0  0  2  0  0  0  0  0  0
  161.5700  206.9930  150.7070 C   0  0  0  0  0  0  0  0  0  0  0  0
  160.7470  203.9680  151.4920 C   0  0  1  0  0  3  0  0  0  0  0  0
  161.9900  206.3530  154.0140 O   0  0  0  0  0  0  0  0  0  0  0  0
  160.4770  203.9270  149.0320 O   0  0  0  0  0  0  0  0  0  0  0  0
  161.5270  203.3930  148.2600 C   0  0  0  0  0  2  0  0  0  0  0  0
  161.1550  203.3650  146.7820 C   0  0  2  0  0  3  0  0  0  0  0  0
  159.4910  202.6370  144.5090 O   0  0  0  0  0  0  0  0  0  0  0  0
  160.1070  200.4540  144.8270 O   0  0  0  0  0  1  0  0  0  0  0  0
  161.0210  201.9940  146.3070 N   0  0  0  0  0  2  0  0  0  0  0  0
  160.1950  201.6530  145.1950 C   0  0  0  0  0  0  0  0  0  0  0  0
  162.1700  204.0630  146.0030 N   0  0  0  0  0  2  0  0  0  0  0  0
  162.0740  206.4550  146.2970 N   0  0  0  0  0  2  0  0  0  0  0  0
  161.6070  205.3270  145.5440 C   0  0  1  0  0  0  0  0  0  0  0  0
  161.3730  205.5990  144.0710 C   0  0  0  0  0  1  0  0  0  0  0  0
  160.7850  205.9450  146.4260 O   0  0  0  0  0  0  0  0  0  0  0  0
  162.3620  212.9430  148.4440 C   0  0  0  0  0  2  0  0  0  0  0  0
  163.5750  210.9340  147.8460 O   0  0  0  0  0  1  0  0  0  0  0  0
  161.5620  212.2300  147.3570 C   0  0  1  0  0  3  0  0  0  0  0  0
  162.3830  211.4330  148.3670 C   0  0  1  0  0  0  0  0  0  0  0  0
  160.0820  212.3140  147.6910 C   0  0  0  0  0  1  0  0  0  0  0  0
  160.6320  211.5360  152.5630 C   0  0  0  0  0  2  0  0  0  0  0  0
  160.8390  210.3460  154.7840 C   0  0  0  0  0  0  0  0  0  0  0  0
  159.0000  210.3230  156.3780 C   0  0  0  0  0  3  0  0  0  0  0  0
  156.5070  212.5070  154.1820 C   0  0  0  0  0  3  0  0  0  0  0  0
  156.5710  212.6280  156.8990 O   0  0  0  0  0  0  0  0  0  0  0  0
  160.0710  211.1230  153.8940 C   0  0  0  0  0  0  0  0  0  0  0  0
  158.7730  211.5010  154.2710 C   0  0  0  0  0  0  0  0  0  0  0  0
  158.2610  211.1000  155.4890 C   0  0  0  0  0  0  0  0  0  0  0  0
  155.6670  210.5490  155.8750 O   0  0  0  0  0  0  0  0  0  0  0  0
  157.8480  212.3480  153.4410 C   0  0  0  0  0  3  0  0  0  0  0  0
  160.2990  209.9480  156.0180 C   0  0  0  0  0  3  0  0  0  0  0  0
  162.1070  209.9830  154.4710 F   0  0  0  0  0  0  0  0  0  0  0  0
  156.6590  211.6700  155.7460 S   0  0  0  0  0  0  0  0  0  0  0  0
  1  3  1  6  0  0  0
  1  5  1  0  0  0  0
  2 13  1  0  0  0  0
  2  6  1  0  0  0  0
  3  2  1  0  0  0  0
  4 33  1  6  0  0  0
  5  4  1  0  0  0  0
  6  4  1  0  0  0  0
  7  8  1  0  0  0  0
  7 13  2  0  0  0  0
  8 16  1  6  0  0  0
  8 14  1  0  0  0  0
  9 15  2  0  0  0  0
 11  9  1  0  0  0  0
 12  9  1  0  0  0  0
 13 12  1  0  0  0  0
 14 10  1  1  0  0  0
 14 11  1  0  0  0  0
 17 16  1  0  0  0  0
 18 17  1  1  0  0  0
 19 22  2  0  0  0  0
 20 22  1  0  0  0  0
 21 18  1  0  0  0  0
 22 21  1  0  0  0  0
 23 18  1  0  0  0  0
 24 27  1  0  0  0  0
 25 26  1  6  0  0  0
 25 23  1  0  0  0  0
 25 24  1  0  0  0  0
 25 27  1  0  0  0  0
 30 32  1  1  0  0  0
 30 31  1  0  0  0  0
 30 28  1  0  0  0  0
 31 29  1  6  0  0  0
 31 28  1  0  0  0  0
 31  1  1  0  0  0  0
 33 38  1  0  0  0  0
 34 43  1  0  0  0  0
 36 45  1  0  0  0  0
 38 39  1  0  0  0  0
 38 34  2  0  0  0  0
 39 40  2  0  0  0  0
 40 45  1  0  0  0  0
 40 35  1  0  0  0  0
 42 36  2  0  0  0  0
 42 39  1  0  0  0  0
 43 35  2  0  0  0  0
 44 34  1  0  0  0  0
 45 41  2  0  0  0  0
 45 37  2  0  0  0  0
M  END
>  <MODEL>
1

>  <REMARK>
 VINA RESULT:      -7.6      0.000      0.000
  Name = 
  10 active torsions:
  status: ('A' for Active; 'I' for Inactive)
    1  A    between atoms: O_3  and  C_11
    2  A    between atoms: O_3  and  C_40
    3  A    between atoms: C_4  and  N_22
    4  A    between atoms: C_4  and  N_32
    5  A    between atoms: C_4  and  C_40
    6  A    between atoms: C_10  and  C_18
    7  A    between atoms: C_12  and  C_15
    8  A    between atoms: C_12  and  C_29
    9  A    between atoms: N_21  and  C_39
   10  A    between atoms: N_22  and  C_34
                            x       y       z     vdW  Elec       q    Type
                         _______ _______ _______ _____ _____    ______ ____

>  <TORSDO>
F 10

$$$$
=
 OpenBabel11072411593D

 45 50  0  0  1  0  0  0  0  0999 V2000
  158.3970  212.8290  154.2410 C   0  0  1  0  0  3  0  0  0  0  0  0
  160.0930  211.2480  153.4010 N   0  0  0  0  0  0  0  0  0  0  0  0
  159.2860  211.6230  154.5660 C   0  0  0  0  0  2  0  0  0  0  0  0
  158.7710  212.6390  151.8460 C   0  0  2  0  0  3  0  0  0  0  0  0
  157.7710  212.6580  152.9290 N   0  0  0  0  0  2  0  0  0  0  0  0
  160.1710  212.1690  152.2680 C   0  0  0  0  0  2  0  0  0  0  0  0
  160.9390  209.3060  152.2450 C   0  0  0  0  0  3  0  0  0  0  0  0
  161.7240  208.0230  152.1700 C   0  0  1  0  0  3  0  0  0  0  0  0
  160.6480  208.2810  155.0770 C   0  0  0  0  0  0  0  0  0  0  0  0
  162.3860  206.0330  153.4380 N   0  0  0  0  0  1  0  0  0  0  0  0
  160.4330  207.1720  154.1960 N   0  0  0  0  0  2  0  0  0  0  0  0
  161.4350  209.4690  154.6390 C   0  0  0  0  0  2  0  0  0  0  0  0
  160.8280  210.0110  153.3770 C   0  0  0  0  0  0  0  0  0  0  0  0
  161.2420  206.8250  153.0240 C   0  0  1  0  0  3  0  0  0  0  0  0
  160.1010  208.2880  156.2100 O   0  0  0  0  0  0  0  0  0  0  0  0
  162.0520  207.6700  150.8430 O   0  0  0  0  0  0  0  0  0  0  0  0
  160.8600  207.4520  150.1270 C   0  0  0  0  0  2  0  0  0  0  0  0
  160.9370  206.1600  149.3210 C   0  0  2  0  0  3  0  0  0  0  0  0
  162.4720  205.1760  147.0540 O   0  0  0  0  0  1  0  0  0  0  0  0
  160.9260  206.1320  145.6620 O   0  0  0  0  0  0  0  0  0  0  0  0
  160.5390  206.3880  147.9380 N   0  0  0  0  0  2  0  0  0  0  0  0
  161.3070  205.9040  146.8380 C   0  0  0  0  0  0  0  0  0  0  0  0
  160.0790  205.1480  149.9240 N   0  0  0  0  0  2  0  0  0  0  0  0
  160.8500  203.4680  151.4730 N   0  0  0  0  0  2  0  0  0  0  0  0
  160.8660  203.9370  150.1180 C   0  0  1  0  0  0  0  0  0  0  0  0
  160.9040  202.8440  149.0680 C   0  0  0  0  0  1  0  0  0  0  0  0
  161.9610  204.0810  150.9020 O   0  0  0  0  0  0  0  0  0  0  0  0
  155.9490  212.5670  155.1760 C   0  0  0  0  0  2  0  0  0  0  0  0
  157.7770  213.2140  156.6270 O   0  0  0  0  0  1  0  0  0  0  0  0
  156.1440  214.0730  155.0250 C   0  0  1  0  0  3  0  0  0  0  0  0
  157.3350  213.1600  155.3070 C   0  0  1  0  0  0  0  0  0  0  0  0
  155.9890  214.4520  153.5610 C   0  0  0  0  0  1  0  0  0  0  0  0
  158.8130  213.9650  151.0830 C   0  0  0  0  0  2  0  0  0  0  0  0
  156.9740  213.9100  149.3480 C   0  0  0  0  0  0  0  0  0  0  0  0
  157.4760  213.5840  146.9900 C   0  0  0  0  0  3  0  0  0  0  0  0
  161.4210  213.3480  147.4230 C   0  0  0  0  0  3  0  0  0  0  0  0
  160.2410  214.4520  145.2340 O   0  0  0  0  0  0  0  0  0  0  0  0
  158.3460  213.8450  149.6590 C   0  0  0  0  0  0  0  0  0  0  0  0
  159.2700  213.6610  148.6180 C   0  0  0  0  0  0  0  0  0  0  0  0
  158.8280  213.5320  147.3160 C   0  0  0  0  0  0  0  0  0  0  0  0
  160.0560  211.9870  145.5030 O   0  0  0  0  0  0  0  0  0  0  0  0
  160.7620  213.5980  148.7920 C   0  0  0  0  0  3  0  0  0  0  0  0
  156.5460  213.7770  148.0170 C   0  0  0  0  0  3  0  0  0  0  0  0
  156.0520  214.1150  150.3200 F   0  0  0  0  0  0  0  0  0  0  0  0
  160.1230  213.3130  146.2040 S   0  0  0  0  0  0  0  0  0  0  0  0
  1  3  1  1  0  0  0
  1 31  1  0  0  0  0
  2  3  1  0  0  0  0
  4 33  1  1  0  0  0
  4  6  1  0  0  0  0
  4  5  1  0  0  0  0
  5  1  1  0  0  0  0
  6  2  1  0  0  0  0
  7 13  2  0  0  0  0
  8 16  1  6  0  0  0
  8  7  1  0  0  0  0
  8 14  1  0  0  0  0
  9 15  2  0  0  0  0
 11  9  1  0  0  0  0
 12  9  1  0  0  0  0
 13  2  1  0  0  0  0
 13 12  1  0  0  0  0
 14 10  1  1  0  0  0
 14 11  1  0  0  0  0
 17 16  1  0  0  0  0
 18 23  1  0  0  0  0
 18 17  1  1  0  0  0
 20 22  2  0  0  0  0
 21 18  1  0  0  0  0
 22 19  1  0  0  0  0
 22 21  1  0  0  0  0
 23 25  1  0  0  0  0
 25 26  1  6  0  0  0
 25 27  1  0  0  0  0
 25 24  1  0  0  0  0
 27 24  1  0  0  0  0
 28 31  1  0  0  0  0
 30 32  1  6  0  0  0
 30 28  1  0  0  0  0
 30 31  1  0  0  0  0
 31 29  1  1  0  0  0
 34 38  1  0  0  0  0
 34 44  1  0  0  0  0
 35 40  2  0  0  0  0
 35 43  1  0  0  0  0
 36 42  2  0  0  0  0
 37 45  2  0  0  0  0
 38 33  1  0  0  0  0
 39 42  1  0  0  0  0
 39 38  2  0  0  0  0
 40 39  1  0  0  0  0
 41 45  2  0  0  0  0
 43 34  2  0  0  0  0
 45 40  1  0  0  0  0
 45 36  1  0  0  0  0
M  END
>  <MODEL>
2

>  <REMARK>
 VINA RESULT:      -7.5      3.091      6.585
  Name = 
  10 active torsions:
  status: ('A' for Active; 'I' for Inactive)
    1  A    between atoms: O_3  and  C_11
    2  A    between atoms: O_3  and  C_40
    3  A    between atoms: C_4  and  N_22
    4  A    between atoms: C_4  and  N_32
    5  A    between atoms: C_4  and  C_40
    6  A    between atoms: C_10  and  C_18
    7  A    between atoms: C_12  and  C_15
    8  A    between atoms: C_12  and  C_29
    9  A    between atoms: N_21  and  C_39
   10  A    between atoms: N_22  and  C_34
                            x       y       z     vdW  Elec       q    Type
                         _______ _______ _______ _____ _____    ______ ____

>  <TORSDO>
F 10

$$$$
=
 OpenBabel11072411593D

 45 50  0  0  1  0  0  0  0  0999 V2000
  161.7550  210.8120  149.4450 C   0  0  1  0  0  3  0  0  0  0  0  0
  161.3990  208.6020  150.4800 N   0  0  0  0  0  0  0  0  0  0  0  0
  161.8520  209.2920  149.2680 C   0  0  0  0  0  2  0  0  0  0  0  0
  161.4500  210.6550  151.8530 C   0  0  2  0  0  3  0  0  0  0  0  0
  162.2720  211.2030  150.7580 N   0  0  0  0  0  2  0  0  0  0  0  0
  160.6910  209.3650  151.5070 C   0  0  0  0  0  2  0  0  0  0  0  0
  160.9630  206.3040  149.8890 C   0  0  0  0  0  3  0  0  0  0  0  0
  161.1790  204.8180  150.0150 C   0  0  1  0  0  3  0  0  0  0  0  0
  161.7100  206.0750  152.8110 C   0  0  0  0  0  0  0  0  0  0  0  0
  161.6960  203.0250  151.6030 N   0  0  0  0  0  1  0  0  0  0  0  0
  160.7790  205.0240  152.5240 N   0  0  0  0  0  2  0  0  0  0  0  0
  162.5310  206.6910  151.7300 C   0  0  0  0  0  2  0  0  0  0  0  0
  161.6130  207.1890  150.6510 C   0  0  0  0  0  0  0  0  0  0  0  0
  160.8010  204.1410  151.3550 C   0  0  1  0  0  3  0  0  0  0  0  0
  161.7820  206.5380  153.9790 O   0  0  0  0  0  0  0  0  0  0  0  0
  160.7290  204.1090  148.8810 O   0  0  0  0  0  0  0  0  0  0  0  0
  161.6450  204.3150  147.8310 C   0  0  0  0  0  2  0  0  0  0  0  0
  161.5920  203.1650  146.8310 C   0  0  2  0  0  3  0  0  0  0  0  0
  162.0770  205.9300  146.0650 O   0  0  0  0  0  1  0  0  0  0  0  0
  161.3860  205.4080  143.9460 O   0  0  0  0  0  0  0  0  0  0  0  0
  161.3660  203.6630  145.4800 N   0  0  0  0  0  2  0  0  0  0  0  0
  161.6020  205.0240  145.1240 C   0  0  0  0  0  0  0  0  0  0  0  0
  160.5340  202.2350  147.2000 N   0  0  0  0  0  2  0  0  0  0  0  0
  160.7250  200.6480  149.0080 N   0  0  0  0  0  2  0  0  0  0  0  0
  161.1520  201.0070  147.6860 C   0  0  1  0  0  0  0  0  0  0  0  0
  161.4090  199.8330  146.7610 C   0  0  0  0  0  1  0  0  0  0  0  0
  161.9900  201.1620  148.7390 O   0  0  0  0  0  0  0  0  0  0  0  0
  162.3650  213.1500  148.3990 C   0  0  0  0  0  2  0  0  0  0  0  0
  163.6500  211.1680  147.8610 O   0  0  0  0  0  1  0  0  0  0  0  0
  161.6260  212.4110  147.2860 C   0  0  1  0  0  3  0  0  0  0  0  0
  162.4260  211.6400  148.3330 C   0  0  1  0  0  0  0  0  0  0  0  0
  160.1330  212.4600  147.5620 C   0  0  0  0  0  1  0  0  0  0  0  0
  160.5340  211.7170  152.4670 C   0  0  0  0  0  2  0  0  0  0  0  0
  160.8740  210.6360  154.7270 C   0  0  0  0  0  0  0  0  0  0  0  0
  159.1170  210.6520  156.4090 C   0  0  0  0  0  3  0  0  0  0  0  0
  156.4730  212.6810  154.2420 C   0  0  0  0  0  3  0  0  0  0  0  0
  156.6660  212.9300  156.9440 O   0  0  0  0  0  0  0  0  0  0  0  0
  160.0480  211.3550  153.8420 C   0  0  0  0  0  0  0  0  0  0  0  0
  158.7610  211.7260  154.2650 C   0  0  0  0  0  0  0  0  0  0  0  0
  158.3180  211.3710  155.5240 C   0  0  0  0  0  0  0  0  0  0  0  0
  155.7580  210.7890  156.0620 O   0  0  0  0  0  0  0  0  0  0  0  0
  157.7790  212.5150  153.4440 C   0  0  0  0  0  3  0  0  0  0  0  0
  160.4040  210.2860  156.0040 C   0  0  0  0  0  3  0  0  0  0  0  0
  162.1330  210.2840  154.3690 F   0  0  0  0  0  0  0  0  0  0  0  0
  156.7180  211.9220  155.8330 S   0  0  0  0  0  0  0  0  0  0  0  0
  1  3  1  6  0  0  0
  1  5  1  0  0  0  0
  2 13  1  0  0  0  0
  2  6  1  0  0  0  0
  3  2  1  0  0  0  0
  4 33  1  6  0  0  0
  5  4  1  0  0  0  0
  6  4  1  0  0  0  0
  7  8  1  0  0  0  0
  7 13  2  0  0  0  0
  8 16  1  6  0  0  0
  8 14  1  0  0  0  0
  9 15  2  0  0  0  0
 11  9  1  0  0  0  0
 12  9  1  0  0  0  0
 13 12  1  0  0  0  0
 14 10  1  1  0  0  0
 14 11  1  0  0  0  0
 17 16  1  0  0  0  0
 18 23  1  0  0  0  0
 18 17  1  1  0  0  0
 20 22  2  0  0  0  0
 21 18  1  0  0  0  0
 22 21  1  0  0  0  0
 22 19  1  0  0  0  0
 23 25  1  0  0  0  0
 25 26  1  6  0  0  0
 25 27  1  0  0  0  0
 25 24  1  0  0  0  0
 27 24  1  0  0  0  0
 30 32  1  1  0  0  0
 30 31  1  0  0  0  0
 30 28  1  0  0  0  0
 31 29  1  6  0  0  0
 31 28  1  0  0  0  0
 31  1  1  0  0  0  0
 33 38  1  0  0  0  0
 34 43  1  0  0  0  0
 36 45  1  0  0  0  0
 38 39  1  0  0  0  0
 38 34  2  0  0  0  0
 39 40  2  0  0  0  0
 40 45  1  0  0  0  0
 40 35  1  0  0  0  0
 42 36  2  0  0  0  0
 42 39  1  0  0  0  0
 43 35  2  0  0  0  0
 44 34  1  0  0  0  0
 45 41  2  0  0  0  0
 45 37  2  0  0  0  0
M  END
>  <MODEL>
3

>  <REMARK>
 VINA RESULT:      -6.7      1.115      2.166
  Name = 
  10 active torsions:
  status: ('A' for Active; 'I' for Inactive)
    1  A    between atoms: O_3  and  C_11
    2  A    between atoms: O_3  and  C_40
    3  A    between atoms: C_4  and  N_22
    4  A    between atoms: C_4  and  N_32
    5  A    between atoms: C_4  and  C_40
    6  A    between atoms: C_10  and  C_18
    7  A    between atoms: C_12  and  C_15
    8  A    between atoms: C_12  and  C_29
    9  A    between atoms: N_21  and  C_39
   10  A    between atoms: N_22  and  C_34
                            x       y       z     vdW  Elec       q    Type
                         _______ _______ _______ _____ _____    ______ ____

>  <TORSDO>
F 10

$$$$
=
 OpenBabel11072411593D

 45 50  0  0  1  0  0  0  0  0999 V2000
  159.6600  211.6480  154.5020 C   0  0  1  0  0  3  0  0  0  0  0  0
  160.7500  209.9540  153.0800 N   0  0  0  0  0  0  0  0  0  0  0  0
  160.2910  210.2520  154.4400 C   0  0  0  0  0  2  0  0  0  0  0  0
  159.5120  211.8450  152.0830 C   0  0  2  0  0  3  0  0  0  0  0  0
  158.7710  211.8540  153.3580 N   0  0  0  0  0  2  0  0  0  0  0  0
  160.8200  211.0390  152.1020 C   0  0  0  0  0  2  0  0  0  0  0  0
  160.7570  208.0830  151.5560 C   0  0  0  0  0  3  0  0  0  0  0  0
  161.1860  206.7070  151.1190 C   0  0  1  0  0  3  0  0  0  0  0  0
  161.1600  206.7250  154.2300 C   0  0  0  0  0  0  0  0  0  0  0  0
  161.7750  204.4700  151.9290 N   0  0  0  0  0  1  0  0  0  0  0  0
  160.4480  205.8100  153.3880 N   0  0  0  0  0  2  0  0  0  0  0  0
  162.0030  207.8080  153.6480 C   0  0  0  0  0  2  0  0  0  0  0  0
  161.1600  208.6250  152.7110 C   0  0  0  0  0  0  0  0  0  0  0  0
  160.7550  205.5000  151.9880 C   0  0  1  0  0  3  0  0  0  0  0  0
  161.0120  206.6630  155.4780 O   0  0  0  0  0  0  0  0  0  0  0  0
  160.9990  206.4970  149.7360 O   0  0  0  0  0  0  0  0  0  0  0  0
  162.0210  205.6510  149.2670 C   0  0  0  0  0  2  0  0  0  0  0  0
  161.4650  204.6110  148.3000 C   0  0  2  0  0  3  0  0  0  0  0  0
  162.7820  205.2870  145.7940 O   0  0  0  0  0  1  0  0  0  0  0  0
  160.7960  206.1440  145.0450 O   0  0  0  0  0  0  0  0  0  0  0  0
  160.7730  205.2540  147.1910 N   0  0  0  0  0  2  0  0  0  0  0  0
  161.4350  205.5840  145.9710 C   0  0  0  0  0  0  0  0  0  0  0  0
  160.5550  203.7170  149.0020 N   0  0  0  0  0  2  0  0  0  0  0  0
  160.0650  201.3700  149.2710 N   0  0  0  0  0  2  0  0  0  0  0  0
  160.7790  202.3610  148.5180 C   0  0  1  0  0  0  0  0  0  0  0  0
  160.9070  202.0630  147.0370 C   0  0  0  0  0  1  0  0  0  0  0  0
  161.4420  201.5460  149.3730 O   0  0  0  0  0  0  0  0  0  0  0  0
  159.0040  213.3770  156.3760 C   0  0  0  0  0  2  0  0  0  0  0  0
  157.6770  211.3870  155.9930 O   0  0  0  0  0  1  0  0  0  0  0  0
  159.6700  212.2280  157.1290 C   0  0  1  0  0  3  0  0  0  0  0  0
  158.9290  211.9730  155.8190 C   0  0  1  0  0  0  0  0  0  0  0  0
  161.1780  212.3390  156.9750 C   0  0  0  0  0  1  0  0  0  0  0  0
  159.7130  213.2580  151.5280 C   0  0  0  0  0  2  0  0  0  0  0  0
  157.7280  213.8110  150.0630 C   0  0  0  0  0  0  0  0  0  0  0  0
  157.9090  213.7980  147.6370 C   0  0  0  0  0  3  0  0  0  0  0  0
  161.7590  212.8140  147.5040 C   0  0  0  0  0  3  0  0  0  0  0  0
  160.5920  214.4530  145.6730 O   0  0  0  0  0  0  0  0  0  0  0  0
  159.0860  213.4580  150.1770 C   0  0  0  0  0  0  0  0  0  0  0  0
  159.8440  213.2920  149.0060 C   0  0  0  0  0  0  0  0  0  0  0  0
  159.2530  213.4590  147.7700 C   0  0  0  0  0  0  0  0  0  0  0  0
  159.9650  212.0470  145.6060 O   0  0  0  0  0  0  0  0  0  0  0  0
  161.3060  212.9430  148.9700 C   0  0  0  0  0  3  0  0  0  0  0  0
  157.1460  213.9760  148.7950 C   0  0  0  0  0  3  0  0  0  0  0  0
  156.9680  214.0090  151.1680 F   0  0  0  0  0  0  0  0  0  0  0  0
  160.3590  213.2070  146.4760 S   0  0  0  0  0  0  0  0  0  0  0  0
  1  3  1  1  0  0  0
  1 31  1  0  0  0  0
  2  3  1  0  0  0  0
  4 33  1  1  0  0  0
  4  6  1  0  0  0  0
  4  5  1  0  0  0  0
  5  1  1  0  0  0  0
  6  2  1  0  0  0  0
  7 13  2  0  0  0  0
  8 16  1  6  0  0  0
  8  7  1  0  0  0  0
  8 14  1  0  0  0  0
  9 15  2  0  0  0  0
 11  9  1  0  0  0  0
 12  9  1  0  0  0  0
 13  2  1  0  0  0  0
 13 12  1  0  0  0  0
 14 10  1  1  0  0  0
 14 11  1  0  0  0  0
 17 16  1  0  0  0  0
 18 23  1  0  0  0  0
 18 17  1  1  0  0  0
 19 22  1  0  0  0  0
 20 22  2  0  0  0  0
 21 18  1  0  0  0  0
 22 21  1  0  0  0  0
 24 27  1  0  0  0  0
 25 26  1  6  0  0  0
 25 23  1  0  0  0  0
 25 24  1  0  0  0  0
 25 27  1  0  0  0  0
 28 30  1  0  0  0  0
 30 32  1  6  0  0  0
 31 29  1  1  0  0  0
 31 28  1  0  0  0  0
 31 30  1  0  0  0  0
 34 38  1  0  0  0  0
 34 44  1  0  0  0  0
 35 40  2  0  0  0  0
 35 43  1  0  0  0  0
 36 42  2  0  0  0  0
 37 45  2  0  0  0  0
 38 33  1  0  0  0  0
 39 38  2  0  0  0  0
 40 39  1  0  0  0  0
 41 45  2  0  0  0  0
 42 39  1  0  0  0  0
 43 34  2  0  0  0  0
 45 36  1  0  0  0  0
 45 40  1  0  0  0  0
M  END
>  <MODEL>
4

>  <REMARK>
 VINA RESULT:      -6.2      2.904      6.058
  Name = 
  10 active torsions:
  status: ('A' for Active; 'I' for Inactive)
    1  A    between atoms: O_3  and  C_11
    2  A    between atoms: O_3  and  C_40
    3  A    between atoms: C_4  and  N_22
    4  A    between atoms: C_4  and  N_32
    5  A    between atoms: C_4  and  C_40
    6  A    between atoms: C_10  and  C_18
    7  A    between atoms: C_12  and  C_15
    8  A    between atoms: C_12  and  C_29
    9  A    between atoms: N_21  and  C_39
   10  A    between atoms: N_22  and  C_34
                            x       y       z     vdW  Elec       q    Type
                         _______ _______ _______ _____ _____    ______ ____

>  <TORSDO>
F 10

$$$$
=
 OpenBabel11072411593D

 45 50  0  0  1  0  0  0  0  0999 V2000
  161.9730  210.5070  149.4070 C   0  0  1  0  0  3  0  0  0  0  0  0
  161.5830  209.1890  151.4540 N   0  0  0  0  0  0  0  0  0  0  0  0
  161.5800  210.5420  150.8880 C   0  0  0  0  0  2  0  0  0  0  0  0
  161.6870  208.0980  149.2410 C   0  0  2  0  0  3  0  0  0  0  0  0
  161.2760  209.4160  148.7230 N   0  0  0  0  0  2  0  0  0  0  0  0
  162.1950  208.1030  150.6910 C   0  0  0  0  0  2  0  0  0  0  0  0
  161.0420  209.8720  153.7050 C   0  0  0  0  0  3  0  0  0  0  0  0
  160.4430  209.6510  155.0690 C   0  0  1  0  0  3  0  0  0  0  0  0
  161.3920  206.8830  154.0160 C   0  0  0  0  0  0  0  0  0  0  0  0
  160.0230  207.9620  156.7940 N   0  0  0  0  0  1  0  0  0  0  0  0
  161.7810  207.4900  155.2540 N   0  0  0  0  0  2  0  0  0  0  0  0
  160.4630  207.5750  153.0780 C   0  0  0  0  0  2  0  0  0  0  0  0
  161.0240  208.9300  152.7550 C   0  0  0  0  0  0  0  0  0  0  0  0
  161.0600  208.5500  155.9650 C   0  0  1  0  0  3  0  0  0  0  0  0
  161.9010  205.7830  153.6780 O   0  0  0  0  0  0  0  0  0  0  0  0
  160.2020  210.8620  155.7540 O   0  0  0  0  0  0  0  0  0  0  0  0
  160.2550  211.9200  154.8270 C   0  0  0  0  0  2  0  0  0  0  0  0
  158.8620  212.4760  154.5560 C   0  0  2  0  0  3  0  0  0  0  0  0
  158.5730  212.1900  151.6740 O   0  0  0  0  0  1  0  0  0  0  0  0
  158.8560  214.4530  151.4760 O   0  0  0  0  0  0  0  0  0  0  0  0
  158.9250  213.6060  153.6380 N   0  0  0  0  0  2  0  0  0  0  0  0
  158.7880  213.4470  152.2270 C   0  0  0  0  0  0  0  0  0  0  0  0
  158.2400  212.8870  155.8070 N   0  0  0  0  0  2  0  0  0  0  0  0
  155.9840  212.8620  156.6630 N   0  0  0  0  0  2  0  0  0  0  0  0
  157.0080  212.1270  155.9780 C   0  0  1  0  0  0  0  0  0  0  0  0
  156.5020  211.1900  154.8980 C   0  0  0  0  0  1  0  0  0  0  0  0
  156.6920  211.8230  157.2600 O   0  0  0  0  0  0  0  0  0  0  0  0
  161.7790  211.8270  147.1370 C   0  0  0  0  0  2  0  0  0  0  0  0
  160.8330  212.7150  149.1820 O   0  0  0  0  0  1  0  0  0  0  0  0
  162.9030  212.5290  147.8960 C   0  0  1  0  0  3  0  0  0  0  0  0
  161.7720  211.8330  148.6500 C   0  0  1  0  0  0  0  0  0  0  0  0
  164.1720  211.7010  147.7840 C   0  0  0  0  0  1  0  0  0  0  0  0
  162.6560  207.3880  148.2920 C   0  0  0  0  0  2  0  0  0  0  0  0
  162.1250  205.7060  146.4800 C   0  0  0  0  0  0  0  0  0  0  0  0
  161.2180  203.5140  147.0210 C   0  0  0  0  0  3  0  0  0  0  0  0
  161.1770  204.0320  150.9620 C   0  0  0  0  0  3  0  0  0  0  0  0
  161.6640  201.6230  149.7970 O   0  0  0  0  0  0  0  0  0  0  0  0
  162.1680  206.0380  147.8480 C   0  0  0  0  0  0  0  0  0  0  0  0
  161.7420  205.0870  148.7900 C   0  0  0  0  0  0  0  0  0  0  0  0
  161.2770  203.8570  148.3690 C   0  0  0  0  0  0  0  0  0  0  0  0
  159.3450  202.5090  149.6470 O   0  0  0  0  0  0  0  0  0  0  0  0
  161.7550  205.2860  150.2800 C   0  0  0  0  0  3  0  0  0  0  0  0
  161.6480  204.4490  146.0730 C   0  0  0  0  0  3  0  0  0  0  0  0
  162.5530  206.5840  145.5400 F   0  0  0  0  0  0  0  0  0  0  0  0
  160.8080  202.8500  149.6830 S   0  0  0  0  0  0  0  0  0  0  0  0
  1  3  1  1  0  0  0
  2 13  1  0  0  0  0
  3  2  1  0  0  0  0
  4 33  1  6  0  0  0
  4  6  1  0  0  0  0
  5  4  1  0  0  0  0
  5  1  1  0  0  0  0
  6  2  1  0  0  0  0
  7  8  1  0  0  0  0
  8 16  1  1  0  0  0
  8 14  1  0  0  0  0
  9 11  1  0  0  0  0
 11 14  1  0  0  0  0
 12  9  1  0  0  0  0
 13 12  1  0  0  0  0
 13  7  2  0  0  0  0
 14 10  1  6  0  0  0
 15  9  2  0  0  0  0
 17 16  1  0  0  0  0
 18 17  1  1  0  0  0
 18 23  1  0  0  0  0
 19 22  1  0  0  0  0
 20 22  2  0  0  0  0
 21 18  1  0  0  0  0
 22 21  1  0  0  0  0
 23 25  1  0  0  0  0
 24 27  1  0  0  0  0
 25 26  1  6  0  0  0
 25 24  1  0  0  0  0
 25 27  1  0  0  0  0
 28 30  1  0  0  0  0
 28 31  1  0  0  0  0
 30 32  1  1  0  0  0
 30 31  1  0  0  0  0
 31 29  1  1  0  0  0
 31  1  1  0  0  0  0
 34 38  1  0  0  0  0
 35 40  2  0  0  0  0
 38 33  1  0  0  0  0
 38 39  2  0  0  0  0
 39 42  1  0  0  0  0
 40 39  1  0  0  0  0
 40 45  1  0  0  0  0
 41 45  2  0  0  0  0
 42 36  2  0  0  0  0
 43 34  2  0  0  0  0
 43 35  1  0  0  0  0
 44 34  1  0  0  0  0
 45 37  2  0  0  0  0
 45 36  1  0  0  0  0
M  END
>  <MODEL>
5

>  <REMARK>
 VINA RESULT:      -6.1      3.592      9.033
  Name = 
  10 active torsions:
  status: ('A' for Active; 'I' for Inactive)
    1  A    between atoms: O_3  and  C_11
    2  A    between atoms: O_3  and  C_40
    3  A    between atoms: C_4  and  N_22
    4  A    between atoms: C_4  and  N_32
    5  A    between atoms: C_4  and  C_40
    6  A    between atoms: C_10  and  C_18
    7  A    between atoms: C_12  and  C_15
    8  A    between atoms: C_12  and  C_29
    9  A    between atoms: N_21  and  C_39
   10  A    between atoms: N_22  and  C_34
                            x       y       z     vdW  Elec       q    Type
                         _______ _______ _______ _____ _____    ______ ____

>  <TORSDO>
F 10

$$$$
=
 OpenBabel11072411593D

 45 50  0  0  1  0  0  0  0  0999 V2000
  162.0690  210.4190  149.4050 C   0  0  1  0  0  3  0  0  0  0  0  0
  161.5840  209.0280  151.3830 N   0  0  0  0  0  0  0  0  0  0  0  0
  161.6340  210.4030  150.8750 C   0  0  0  0  0  2  0  0  0  0  0  0
  161.7250  208.0280  149.1280 C   0  0  2  0  0  3  0  0  0  0  0  0
  161.3640  209.3780  148.6570 N   0  0  0  0  0  2  0  0  0  0  0  0
  162.1900  207.9590  150.5910 C   0  0  0  0  0  2  0  0  0  0  0  0
  160.9250  209.6570  153.6170 C   0  0  0  0  0  3  0  0  0  0  0  0
  160.2770  209.3950  154.9520 C   0  0  1  0  0  3  0  0  0  0  0  0
  161.3710  206.6790  153.9030 C   0  0  0  0  0  0  0  0  0  0  0  0
  159.8480  207.6670  156.6350 N   0  0  0  0  0  1  0  0  0  0  0  0
  161.6850  207.2810  155.1640 N   0  0  0  0  0  2  0  0  0  0  0  0
  160.4570  207.3510  152.9360 C   0  0  0  0  0  2  0  0  0  0  0  0
  160.9810  208.7290  152.6550 C   0  0  0  0  0  0  0  0  0  0  0  0
  160.8960  208.3030  155.8580 C   0  0  1  0  0  3  0  0  0  0  0  0
  161.9330  205.6030  153.5720 O   0  0  0  0  0  0  0  0  0  0  0  0
  159.9640  210.5860  155.6420 O   0  0  0  0  0  0  0  0  0  0  0  0
  159.8880  211.6380  154.7090 C   0  0  0  0  0  2  0  0  0  0  0  0
  158.4680  212.1860  154.6210 C   0  0  2  0  0  3  0  0  0  0  0  0
  156.1950  213.4510  155.9260 O   0  0  0  0  0  0  0  0  0  0  0  0
  155.7400  211.4530  156.9480 O   0  0  0  0  0  1  0  0  0  0  0  0
  157.5800  211.4730  155.5300 N   0  0  0  0  0  2  0  0  0  0  0  0
  156.4740  212.1100  156.1660 C   0  0  0  0  0  0  0  0  0  0  0  0
  157.9770  212.0710  153.2540 N   0  0  0  0  0  2  0  0  0  0  0  0
  158.7140  213.6680  151.6040 N   0  0  0  0  0  2  0  0  0  0  0  0
  157.8310  213.4130  152.7050 C   0  0  1  0  0  0  0  0  0  0  0  0
  156.4720  214.0780  152.5960 C   0  0  0  0  0  1  0  0  0  0  0  0
  158.9050  214.2220  152.8670 O   0  0  0  0  0  0  0  0  0  0  0  0
  161.7880  211.8220  147.1950 C   0  0  0  0  0  2  0  0  0  0  0  0
  161.1300  212.7300  149.3410 O   0  0  0  0  0  1  0  0  0  0  0  0
  163.0400  212.3920  147.8560 C   0  0  1  0  0  3  0  0  0  0  0  0
  161.9250  211.7820  148.7010 C   0  0  1  0  0  0  0  0  0  0  0  0
  164.2090  211.4540  147.6040 C   0  0  0  0  0  1  0  0  0  0  0  0
  162.7020  207.3320  148.1780 C   0  0  0  0  0  2  0  0  0  0  0  0
  162.1950  205.6870  146.3260 C   0  0  0  0  0  0  0  0  0  0  0  0
  161.2610  203.4930  146.8110 C   0  0  0  0  0  3  0  0  0  0  0  0
  161.1470  203.9420  150.7590 C   0  0  0  0  0  3  0  0  0  0  0  0
  161.6390  201.5500  149.5620 O   0  0  0  0  0  0  0  0  0  0  0  0
  162.2130  205.9940  147.7010 C   0  0  0  0  0  0  0  0  0  0  0  0
  161.7620  205.0300  148.6170 C   0  0  0  0  0  0  0  0  0  0  0  0
  161.2970  203.8110  148.1660 C   0  0  0  0  0  0  0  0  0  0  0  0
  159.3300  202.4570  149.3820 O   0  0  0  0  0  0  0  0  0  0  0  0
  161.7470  205.2040  150.1110 C   0  0  0  0  0  3  0  0  0  0  0  0
  161.7170  204.4410  145.8880 C   0  0  0  0  0  3  0  0  0  0  0  0
  162.6470  206.5780  145.4110 F   0  0  0  0  0  0  0  0  0  0  0  0
  160.7940  202.7860  149.4530 S   0  0  0  0  0  0  0  0  0  0  0  0
  1  3  1  1  0  0  0
  2 13  1  0  0  0  0
  3  2  1  0  0  0  0
  4 33  1  6  0  0  0
  4  6  1  0  0  0  0
  5  4  1  0  0  0  0
  5  1  1  0  0  0  0
  6  2  1  0  0  0  0
  7  8  1  0  0  0  0
  8 16  1  1  0  0  0
  8 14  1  0  0  0  0
  9 11  1  0  0  0  0
 11 14  1  0  0  0  0
 12  9  1  0  0  0  0
 13 12  1  0  0  0  0
 13  7  2  0  0  0  0
 14 10  1  6  0  0  0
 15  9  2  0  0  0  0
 17 16  1  0  0  0  0
 18 17  1  6  0  0  0
 18 21  1  0  0  0  0
 19 22  2  0  0  0  0
 21 22  1  0  0  0  0
 22 20  1  0  0  0  0
 23 18  1  0  0  0  0
 24 25  1  0  0  0  0
 24 27  1  0  0  0  0
 25 26  1  6  0  0  0
 25 27  1  0  0  0  0
 25 23  1  0  0  0  0
 28 30  1  0  0  0  0
 28 31  1  0  0  0  0
 30 32  1  6  0  0  0
 30 31  1  0  0  0  0
 31 29  1  1  0  0  0
 31  1  1  0  0  0  0
 34 38  1  0  0  0  0
 35 40  2  0  0  0  0
 38 33  1  0  0  0  0
 38 39  2  0  0  0  0
 39 42  1  0  0  0  0
 40 39  1  0  0  0  0
 40 45  1  0  0  0  0
 41 45  2  0  0  0  0
 42 36  2  0  0  0  0
 43 34  2  0  0  0  0
 43 35  1  0  0  0  0
 44 34  1  0  0  0  0
 45 37  2  0  0  0  0
 45 36  1  0  0  0  0
M  END
>  <MODEL>
6

>  <REMARK>
 VINA RESULT:      -6.0      3.452      8.992
  Name = 
  10 active torsions:
  status: ('A' for Active; 'I' for Inactive)
    1  A    between atoms: O_3  and  C_11
    2  A    between atoms: O_3  and  C_40
    3  A    between atoms: C_4  and  N_22
    4  A    between atoms: C_4  and  N_32
    5  A    between atoms: C_4  and  C_40
    6  A    between atoms: C_10  and  C_18
    7  A    between atoms: C_12  and  C_15
    8  A    between atoms: C_12  and  C_29
    9  A    between atoms: N_21  and  C_39
   10  A    between atoms: N_22  and  C_34
                            x       y       z     vdW  Elec       q    Type
                         _______ _______ _______ _____ _____    ______ ____

>  <TORSDO>
F 10

$$$$
=
 OpenBabel11072411593D

 45 50  0  0  1  0  0  0  0  0999 V2000
  160.5190  209.2920  154.2500 C   0  0  1  0  0  3  0  0  0  0  0  0
  161.2990  207.9120  152.3610 N   0  0  0  0  0  0  0  0  0  0  0  0
  160.8720  207.8820  153.7630 C   0  0  0  0  0  2  0  0  0  0  0  0
  160.4710  210.2120  152.0000 C   0  0  2  0  0  3  0  0  0  0  0  0
  159.7140  209.9890  153.2450 N   0  0  0  0  0  2  0  0  0  0  0  0
  161.5990  209.2020  151.7400 C   0  0  0  0  0  2  0  0  0  0  0  0
  160.9360  206.5830  150.3800 C   0  0  0  0  0  3  0  0  0  0  0  0
  161.1010  205.3390  149.5460 C   0  0  1  0  0  3  0  0  0  0  0  0
  161.1480  204.4680  152.5320 C   0  0  0  0  0  0  0  0  0  0  0  0
  161.2970  202.8990  149.6550 N   0  0  0  0  0  1  0  0  0  0  0  0
  160.2650  203.9640  151.5220 N   0  0  0  0  0  2  0  0  0  0  0  0
  162.1580  205.5170  152.2160 C   0  0  0  0  0  2  0  0  0  0  0  0
  161.4550  206.6960  151.6070 C   0  0  0  0  0  0  0  0  0  0  0  0
  160.4800  204.0230  150.0740 C   0  0  1  0  0  3  0  0  0  0  0  0
  161.0190  204.0760  153.7210 O   0  0  0  0  0  0  0  0  0  0  0  0
  160.8480  205.5700  148.1770 O   0  0  0  0  0  0  0  0  0  0  0  0
  162.0440  205.3750  147.4600 C   0  0  0  0  0  2  0  0  0  0  0  0
  161.9010  204.2290  146.4650 C   0  0  2  0  0  3  0  0  0  0  0  0
  160.0150  205.8410  144.9440 O   0  0  0  0  0  1  0  0  0  0  0  0
  161.5000  205.8370  143.2010 O   0  0  0  0  0  0  0  0  0  0  0  0
  162.1660  204.6870  145.1070 N   0  0  0  0  0  2  0  0  0  0  0  0
  161.2270  205.4710  144.3730 C   0  0  0  0  0  0  0  0  0  0  0  0
  160.5600  203.6670  146.5460 N   0  0  0  0  0  2  0  0  0  0  0  0
  160.7690  201.3080  147.0050 N   0  0  0  0  0  2  0  0  0  0  0  0
  160.5950  202.3160  145.9990 C   0  0  1  0  0  0  0  0  0  0  0  0
  159.7060  201.9100  144.8400 C   0  0  0  0  0  1  0  0  0  0  0  0
  161.7820  201.6750  146.1240 O   0  0  0  0  0  0  0  0  0  0  0  0
  159.2500  210.6620  156.1060 C   0  0  0  0  0  2  0  0  0  0  0  0
  159.0500  208.2520  155.9770 O   0  0  0  0  0  1  0  0  0  0  0  0
  160.4540  210.0620  156.8270 C   0  0  1  0  0  3  0  0  0  0  0  0
  159.8320  209.3500  155.6280 C   0  0  1  0  0  0  0  0  0  0  0  0
  161.6930  210.8750  156.4890 C   0  0  0  0  0  1  0  0  0  0  0  0
  160.9520  211.6590  151.8740 C   0  0  0  0  0  2  0  0  0  0  0  0
  159.0610  213.0650  150.9560 C   0  0  0  0  0  0  0  0  0  0  0  0
  159.0370  213.7830  148.6320 C   0  0  0  0  0  3  0  0  0  0  0  0
  162.4870  212.0810  147.6270 C   0  0  0  0  0  3  0  0  0  0  0  0
  161.6320  214.4280  146.5490 O   0  0  0  0  0  0  0  0  0  0  0  0
  160.2900  212.4080  150.7520 C   0  0  0  0  0  0  0  0  0  0  0  0
  160.8840  212.4610  149.4800 C   0  0  0  0  0  0  0  0  0  0  0  0
  160.2580  213.1360  148.4520 C   0  0  0  0  0  0  0  0  0  0  0  0
  160.4120  212.3640  145.8900 O   0  0  0  0  0  0  0  0  0  0  0  0
  162.2020  211.8340  149.1200 C   0  0  0  0  0  3  0  0  0  0  0  0
  158.4400  213.7450  149.8960 C   0  0  0  0  0  3  0  0  0  0  0  0
  158.4680  213.0620  152.1750 F   0  0  0  0  0  0  0  0  0  0  0  0
  161.1550  213.0730  146.9850 S   0  0  0  0  0  0  0  0  0  0  0  0
  1  3  1  6  0  0  0
  1 31  1  0  0  0  0
  2  3  1  0  0  0  0
  4 33  1  1  0  0  0
  4  5  1  0  0  0  0
  5  1  1  0  0  0  0
  6  4  1  0  0  0  0
  6  2  1  0  0  0  0
  7 13  2  0  0  0  0
  8 16  1  6  0  0  0
  8 14  1  0  0  0  0
  8  7  1  0  0  0  0
  9 15  2  0  0  0  0
 11  9  1  0  0  0  0
 12  9  1  0  0  0  0
 13 12  1  0  0  0  0
 13  2  1  0  0  0  0
 14 10  1  1  0  0  0
 14 11  1  0  0  0  0
 17 16  1  0  0  0  0
 18 23  1  0  0  0  0
 18 17  1  1  0  0  0
 20 22  2  0  0  0  0
 21 18  1  0  0  0  0
 22 19  1  0  0  0  0
 22 21  1  0  0  0  0
 25 26  1  6  0  0  0
 25 27  1  0  0  0  0
 25 23  1  0  0  0  0
 25 24  1  0  0  0  0
 27 24  1  0  0  0  0
 28 30  1  0  0  0  0
 30 32  1  6  0  0  0
 31 29  1  1  0  0  0
 31 28  1  0  0  0  0
 31 30  1  0  0  0  0
 34 44  1  0  0  0  0
 35 43  1  0  0  0  0
 36 42  2  0  0  0  0
 37 45  2  0  0  0  0
 38 34  1  0  0  0  0
 38 33  1  0  0  0  0
 39 38  2  0  0  0  0
 40 35  2  0  0  0  0
 40 39  1  0  0  0  0
 41 45  2  0  0  0  0
 42 39  1  0  0  0  0
 43 34  2  0  0  0  0
 45 36  1  0  0  0  0
 45 40  1  0  0  0  0
M  END
>  <MODEL>
7

>  <REMARK>
 VINA RESULT:      -5.7      2.599      5.600
  Name = 
  10 active torsions:
  status: ('A' for Active; 'I' for Inactive)
    1  A    between atoms: O_3  and  C_11
    2  A    between atoms: O_3  and  C_40
    3  A    between atoms: C_4  and  N_22
    4  A    between atoms: C_4  and  N_32
    5  A    between atoms: C_4  and  C_40
    6  A    between atoms: C_10  and  C_18
    7  A    between atoms: C_12  and  C_15
    8  A    between atoms: C_12  and  C_29
    9  A    between atoms: N_21  and  C_39
   10  A    between atoms: N_22  and  C_34
                            x       y       z     vdW  Elec       q    Type
                         _______ _______ _______ _____ _____    ______ ____

>  <TORSDO>
F 10

$$$$
=
 OpenBabel11072411593D

 45 50  0  0  1  0  0  0  0  0999 V2000
  161.1210  207.5760  154.1030 C   0  0  1  0  0  3  0  0  0  0  0  0
  161.6940  206.1960  152.1420 N   0  0  0  0  0  0  0  0  0  0  0  0
  161.2070  206.1590  153.5240 C   0  0  0  0  0  2  0  0  0  0  0  0
  161.3590  208.6340  151.9270 C   0  0  2  0  0  3  0  0  0  0  0  0
  160.5180  208.4860  153.1290 N   0  0  0  0  0  2  0  0  0  0  0  0
  162.2730  207.4360  151.6280 C   0  0  0  0  0  2  0  0  0  0  0  0
  161.2210  205.1130  150.0380 C   0  0  0  0  0  3  0  0  0  0  0  0
  161.1750  203.9190  149.1200 C   0  0  1  0  0  3  0  0  0  0  0  0
  160.7490  202.8780  152.0200 C   0  0  0  0  0  0  0  0  0  0  0  0
  160.8010  201.4990  149.0450 N   0  0  0  0  0  1  0  0  0  0  0  0
  159.8710  202.6570  150.9100 N   0  0  0  0  0  2  0  0  0  0  0  0
  161.9960  203.6800  151.8670 C   0  0  0  0  0  2  0  0  0  0  0  0
  161.6380  205.0260  151.3060 C   0  0  0  0  0  0  0  0  0  0  0  0
  160.2250  202.7540  149.4910 C   0  0  1  0  0  3  0  0  0  0  0  0
  160.4260  202.4530  153.1600 O   0  0  0  0  0  0  0  0  0  0  0  0
  161.1070  204.2880  147.7590 O   0  0  0  0  0  0  0  0  0  0  0  0
  162.4020  204.2200  147.2110 C   0  0  0  0  0  2  0  0  0  0  0  0
  162.7170  205.4740  146.4030 C   0  0  2  0  0  3  0  0  0  0  0  0
  163.2150  207.3550  148.5660 O   0  0  0  0  0  1  0  0  0  0  0  0
  161.2260  208.3730  148.0660 O   0  0  0  0  0  0  0  0  0  0  0  0
  161.7970  206.5520  146.7410 N   0  0  0  0  0  2  0  0  0  0  0  0
  162.0540  207.4620  147.8090 C   0  0  0  0  0  0  0  0  0  0  0  0
  162.6350  205.1790  144.9790 N   0  0  0  0  0  2  0  0  0  0  0  0
  160.8550  205.9010  143.5190 N   0  0  0  0  0  2  0  0  0  0  0  0
  161.2280  205.0560  144.6160 C   0  0  1  0  0  0  0  0  0  0  0  0
  160.5170  203.7180  144.6580 C   0  0  0  0  0  1  0  0  0  0  0  0
  160.4790  206.1630  144.8330 O   0  0  0  0  0  0  0  0  0  0  0  0
  159.6680  208.9590  155.8080 C   0  0  0  0  0  2  0  0  0  0  0  0
  159.7280  206.5400  155.8950 O   0  0  0  0  0  1  0  0  0  0  0  0
  160.9110  208.5590  156.5990 C   0  0  1  0  0  3  0  0  0  0  0  0
  160.3980  207.6810  155.4590 C   0  0  1  0  0  0  0  0  0  0  0  0
  162.0640  209.4680  156.2080 C   0  0  0  0  0  1  0  0  0  0  0  0
  162.1250  209.9590  151.9240 C   0  0  0  0  0  2  0  0  0  0  0  0
  160.3920  211.7540  152.3370 C   0  0  0  0  0  0  0  0  0  0  0  0
  159.7140  213.2820  150.5700 C   0  0  0  0  0  3  0  0  0  0  0  0
  162.1260  211.8010  147.7780 C   0  0  0  0  0  3  0  0  0  0  0  0
  161.4870  214.4410  147.9250 O   0  0  0  0  0  0  0  0  0  0  0  0
  161.2940  211.1220  151.4590 C   0  0  0  0  0  0  0  0  0  0  0  0
  161.4010  211.5950  150.1410 C   0  0  0  0  0  0  0  0  0  0  0  0
  160.6190  212.6520  149.7190 C   0  0  0  0  0  0  0  0  0  0  0  0
  159.6900  212.8750  147.2150 O   0  0  0  0  0  0  0  0  0  0  0  0
  162.3350  211.0410  149.1010 C   0  0  0  0  0  3  0  0  0  0  0  0
  159.6050  212.8270  151.8880 C   0  0  0  0  0  3  0  0  0  0  0  0
  160.2780  211.3470  153.6250 F   0  0  0  0  0  0  0  0  0  0  0  0
  160.9080  213.0650  148.0750 S   0  0  0  0  0  0  0  0  0  0  0  0
  1  3  1  6  0  0  0
  1 31  1  0  0  0  0
  2  3  1  0  0  0  0
  4 33  1  1  0  0  0
  4  5  1  0  0  0  0
  5  1  1  0  0  0  0
  6  4  1  0  0  0  0
  6  2  1  0  0  0  0
  7 13  2  0  0  0  0
  8 16  1  6  0  0  0
  8 14  1  0  0  0  0
  8  7  1  0  0  0  0
  9 15  2  0  0  0  0
 11  9  1  0  0  0  0
 12  9  1  0  0  0  0
 13 12  1  0  0  0  0
 13  2  1  0  0  0  0
 14 10  1  1  0  0  0
 14 11  1  0  0  0  0
 17 16  1  0  0  0  0
 18 21  1  0  0  0  0
 18 17  1  1  0  0  0
 21 22  1  0  0  0  0
 22 20  2  0  0  0  0
 22 19  1  0  0  0  0
 23 18  1  0  0  0  0
 24 25  1  0  0  0  0
 24 27  1  0  0  0  0
 25 26  1  1  0  0  0
 25 27  1  0  0  0  0
 25 23  1  0  0  0  0
 28 30  1  0  0  0  0
 30 32  1  6  0  0  0
 31 28  1  0  0  0  0
 31 29  1  1  0  0  0
 31 30  1  0  0  0  0
 34 44  1  0  0  0  0
 35 43  2  0  0  0  0
 36 45  1  0  0  0  0
 36 42  2  0  0  0  0
 37 45  2  0  0  0  0
 38 33  1  0  0  0  0
 38 34  2  0  0  0  0
 39 38  1  0  0  0  0
 40 39  2  0  0  0  0
 40 35  1  0  0  0  0
 41 45  2  0  0  0  0
 42 39  1  0  0  0  0
 43 34  1  0  0  0  0
 45 40  1  0  0  0  0
M  END
>  <MODEL>
8

>  <REMARK>
 VINA RESULT:      -5.5      2.763      5.514
  Name = 
  10 active torsions:
  status: ('A' for Active; 'I' for Inactive)
    1  A    between atoms: O_3  and  C_11
    2  A    between atoms: O_3  and  C_40
    3  A    between atoms: C_4  and  N_22
    4  A    between atoms: C_4  and  N_32
    5  A    between atoms: C_4  and  C_40
    6  A    between atoms: C_10  and  C_18
    7  A    between atoms: C_12  and  C_15
    8  A    between atoms: C_12  and  C_29
    9  A    between atoms: N_21  and  C_39
   10  A    between atoms: N_22  and  C_34
                            x       y       z     vdW  Elec       q    Type
                         _______ _______ _______ _____ _____    ______ ____

>  <TORSDO>
F 10

$$$$
=
 OpenBabel11072411593D

 45 50  0  0  1  0  0  0  0  0999 V2000
  160.6480  207.5400  154.4860 C   0  0  1  0  0  3  0  0  0  0  0  0
  161.3910  206.4150  152.4220 N   0  0  0  0  0  0  0  0  0  0  0  0
  160.8780  206.2000  153.7790 C   0  0  0  0  0  2  0  0  0  0  0  0
  160.8350  208.8220  152.4290 C   0  0  2  0  0  3  0  0  0  0  0  0
  159.9840  208.4820  153.5840 N   0  0  0  0  0  2  0  0  0  0  0  0
  161.8640  207.7460  152.0460 C   0  0  0  0  0  2  0  0  0  0  0  0
  160.9420  205.4590  150.2520 C   0  0  0  0  0  3  0  0  0  0  0  0
  161.0220  204.3610  149.2240 C   0  0  1  0  0  3  0  0  0  0  0  0
  160.9950  203.0090  152.0250 C   0  0  0  0  0  0  0  0  0  0  0  0
  161.0440  201.9290  148.9280 N   0  0  0  0  0  1  0  0  0  0  0  0
  160.0830  202.7410  150.9530 N   0  0  0  0  0  2  0  0  0  0  0  0
  162.0790  204.0220  151.8770 C   0  0  0  0  0  2  0  0  0  0  0  0
  161.4630  205.3310  151.4770 C   0  0  0  0  0  0  0  0  0  0  0  0
  160.3060  203.0240  149.5320 C   0  0  1  0  0  3  0  0  0  0  0  0
  160.8340  202.4360  153.1330 O   0  0  0  0  0  0  0  0  0  0  0  0
  160.7910  204.8320  147.9130 O   0  0  0  0  0  0  0  0  0  0  0  0
  161.9840  205.3970  147.4220 C   0  0  0  0  0  2  0  0  0  0  0  0
  161.6890  206.5730  146.4980 C   0  0  2  0  0  3  0  0  0  0  0  0
  163.2520  207.6460  148.7060 O   0  0  0  0  0  0  0  0  0  0  0  0
  161.6520  209.2600  148.9820 O   0  0  0  0  0  1  0  0  0  0  0  0
  161.2770  207.7420  147.2640 N   0  0  0  0  0  2  0  0  0  0  0  0
  162.0530  208.2520  148.3480 C   0  0  0  0  0  0  0  0  0  0  0  0
  160.6450  206.2090  145.5490 N   0  0  0  0  0  2  0  0  0  0  0  0
  161.0030  203.9820  144.6920 N   0  0  0  0  0  2  0  0  0  0  0  0
  161.2420  205.3840  144.5060 C   0  0  1  0  0  0  0  0  0  0  0  0
  161.2660  205.8380  143.0590 C   0  0  0  0  0  1  0  0  0  0  0  0
  162.2440  204.5710  144.9170 O   0  0  0  0  0  0  0  0  0  0  0  0
  159.6620  208.7040  156.6320 C   0  0  0  0  0  2  0  0  0  0  0  0
  158.7980  206.5780  155.8570 O   0  0  0  0  0  1  0  0  0  0  0  0
  160.5780  207.6110  157.1750 C   0  0  1  0  0  3  0  0  0  0  0  0
  159.8870  207.4460  155.8230 C   0  0  1  0  0  0  0  0  0  0  0  0
  162.0210  208.0770  157.0790 C   0  0  0  0  0  1  0  0  0  0  0  0
  161.4740  210.2050  152.5760 C   0  0  0  0  0  2  0  0  0  0  0  0
  161.9150  210.9300  154.9580 C   0  0  0  0  0  0  0  0  0  0  0  0
  160.2750  212.2230  156.2060 C   0  0  0  0  0  3  0  0  0  0  0  0
  157.5870  212.4330  153.2840 C   0  0  0  0  0  3  0  0  0  0  0  0
  157.9700  214.4380  155.0820 O   0  0  0  0  0  0  0  0  0  0  0  0
  161.0650  210.9160  153.8350 C   0  0  0  0  0  0  0  0  0  0  0  0
  159.8270  211.5740  153.9140 C   0  0  0  0  0  0  0  0  0  0  0  0
  159.4530  212.2070  155.0820 C   0  0  0  0  0  0  0  0  0  0  0  0
  156.9110  212.3490  155.9190 O   0  0  0  0  0  0  0  0  0  0  0  0
  158.8290  211.6660  152.7930 C   0  0  0  0  0  3  0  0  0  0  0  0
  161.5160  211.5800  156.1370 C   0  0  0  0  0  3  0  0  0  0  0  0
  163.1300  210.3310  154.9150 F   0  0  0  0  0  0  0  0  0  0  0  0
  157.9030  212.9440  154.9600 S   0  0  0  0  0  0  0  0  0  0  0  0
  1  3  1  6  0  0  0
  1 31  1  0  0  0  0
  2  3  1  0  0  0  0
  4 33  1  1  0  0  0
  4  5  1  0  0  0  0
  5  1  1  0  0  0  0
  6  2  1  0  0  0  0
  6  4  1  0  0  0  0
  7 13  2  0  0  0  0
  8 16  1  6  0  0  0
  8 14  1  0  0  0  0
  8  7  1  0  0  0  0
  9 15  2  0  0  0  0
 11  9  1  0  0  0  0
 12  9  1  0  0  0  0
 13 12  1  0  0  0  0
 13  2  1  0  0  0  0
 14 10  1  1  0  0  0
 14 11  1  0  0  0  0
 17 16  1  0  0  0  0
 18 21  1  0  0  0  0
 18 17  1  1  0  0  0
 21 22  1  0  0  0  0
 22 19  2  0  0  0  0
 22 20  1  0  0  0  0
 23 18  1  0  0  0  0
 24 27  1  0  0  0  0
 25 26  1  6  0  0  0
 25 24  1  0  0  0  0
 25 27  1  0  0  0  0
 25 23  1  0  0  0  0
 28 30  1  0  0  0  0
 30 32  1  6  0  0  0
 31 29  1  6  0  0  0
 31 28  1  0  0  0  0
 31 30  1  0  0  0  0
 33 38  1  0  0  0  0
 34 43  1  0  0  0  0
 36 45  1  0  0  0  0
 38 39  1  0  0  0  0
 38 34  2  0  0  0  0
 39 40  2  0  0  0  0
 40 35  1  0  0  0  0
 42 36  2  0  0  0  0
 42 39  1  0  0  0  0
 43 35  2  0  0  0  0
 44 34  1  0  0  0  0
 45 37  2  0  0  0  0
 45 40  1  0  0  0  0
 45 41  2  0  0  0  0
M  END
>  <MODEL>
9

>  <REMARK>
 VINA RESULT:      -5.3      2.333      4.695
  Name = 
  10 active torsions:
  status: ('A' for Active; 'I' for Inactive)
    1  A    between atoms: O_3  and  C_11
    2  A    between atoms: O_3  and  C_40
    3  A    between atoms: C_4  and  N_22
    4  A    between atoms: C_4  and  N_32
    5  A    between atoms: C_4  and  C_40
    6  A    between atoms: C_10  and  C_18
    7  A    between atoms: C_12  and  C_15
    8  A    between atoms: C_12  and  C_29
    9  A    between atoms: N_21  and  C_39
   10  A    between atoms: N_22  and  C_34
                            x       y       z     vdW  Elec       q    Type
                         _______ _______ _______ _____ _____    ______ ____

>  <TORSDO>
F 10

$$$$
