=
 OpenBabel11072415293D

 59 65  0  0  1  0  0  0  0  0999 V2000
  161.2580  206.0270  150.0280 O   0  0  0  0  0  0  0  0  0  0  0  0
  160.3940  204.8800  152.0000 N   0  0  0  0  0  0  0  0  0  0  0  0
  162.2730  207.7560  151.3530 C   0  0  1  0  0  3  0  0  0  0  0  0
  162.2540  206.5230  152.2170 C   0  0  0  0  0  2  0  0  0  0  0  0
  161.5300  205.5510  151.3250 C   0  0  2  0  0  0  0  0  0  0  0  0
  159.2540  204.6990  151.0980 C   0  0  0  0  0  1  0  0  0  0  0  0
  161.6110  204.1130  151.5830 C   0  0  2  0  0  3  0  0  0  0  0  0
  162.0120  207.2100  149.9400 C   0  0  2  0  0  3  0  0  0  0  0  0
  160.3480  201.4300  150.4320 C   0  0  2  0  0  3  0  0  0  0  0  0
  161.4670  203.2720  150.3000 C   0  0  1  0  0  3  0  0  0  0  0  0
  161.8300  201.8060  150.5270 C   0  0  2  0  0  0  0  0  0  0  0  0
  161.3760  200.7280  149.5580 C   0  0  2  0  0  3  0  0  0  0  0  0
  162.2840  201.3990  151.7830 O   0  0  0  0  0  1  0  0  0  0  0  0
  160.0230  202.8830  150.1040 C   0  0  0  0  0  2  0  0  0  0  0  0
  161.3690  201.2070  148.0990 C   0  0  1  0  0  3  0  0  0  0  0  0
  161.5180  198.9970  147.1940 O   0  0  0  0  0  1  0  0  0  0  0  0
  162.1370  200.2470  147.2020 C   0  0  0  0  0  2  0  0  0  0  0  0
  159.9440  201.4240  147.5850 C   0  0  0  0  0  2  0  0  0  0  0  0
  159.8960  201.8200  146.1110 C   0  0  2  0  0  3  0  0  0  0  0  0
  160.4070  200.7920  145.3170 O   0  0  0  0  0  1  0  0  0  0  0  0
  163.0050  205.2300  147.7610 O   0  0  0  0  0  1  0  0  0  0  0  0
  162.2160  204.7450  146.7260 C   0  0  0  0  0  0  0  0  0  0  0  0
  160.6600  203.0840  145.8900 C   0  0  0  0  0  0  0  0  0  0  0  0
  162.1730  205.4130  145.4950 C   0  0  0  0  0  0  0  0  0  0  0  0
  161.3730  204.9100  144.4570 C   0  0  0  0  0  0  0  0  0  0  0  0
  160.6240  203.7470  144.6550 C   0  0  0  0  0  3  0  0  0  0  0  0
  162.9230  206.5700  145.3090 O   0  0  0  0  0  1  0  0  0  0  0  0
  161.3130  205.5970  143.1380 C   0  0  0  0  0  1  0  0  0  0  0  0
  161.4640  203.5830  146.9190 C   0  0  0  0  0  3  0  0  0  0  0  0
  161.3690  208.1980  148.9740 C   0  0  0  0  0  2  0  0  0  0  0  0
  162.3090  208.6220  148.0350 O   0  0  0  0  0  1  0  0  0  0  0  0
  161.2450  208.7870  151.8550 C   0  0  0  0  0  2  0  0  0  0  0  0
  161.6330  210.2220  151.5260 C   0  0  0  0  0  2  0  0  0  0  0  0
  160.8000  211.1440  152.2780 N   0  0  0  0  0  2  0  0  0  0  0  0
  160.2320  212.3120  151.6800 C   0  0  0  0  0  0  0  0  0  0  0  0
  160.5060  212.5810  150.4340 N   0  0  0  0  0  0  0  0  0  0  0  0
  159.4110  214.4050  152.4930 O   0  0  0  0  0  0  0  0  0  0  0  0
  159.3350  213.1480  152.5160 C   0  0  0  0  0  0  0  0  0  0  0  0
  158.3620  212.4970  153.3470 N   0  0  0  0  0  2  0  0  0  0  0  0
  157.0770  214.4480  153.7850 O   0  0  0  0  0  0  0  0  0  0  0  0
  157.3450  213.1290  154.1880 C   0  0  2  0  0  0  0  0  0  0  0  0
  157.7400  214.2840  155.0260 C   0  0  0  0  0  2  0  0  0  0  0  0
  156.0660  212.3260  154.4420 C   0  0  0  0  0  2  0  0  0  0  0  0
  156.3080  210.9280  154.9110 C   0  0  0  0  0  0  0  0  0  0  0  0
  157.3110  210.6680  155.6260 O   0  0  0  0  0  1  0  0  0  0  0  0
  155.4420  209.9110  154.5330 O   0  0  0  0  0  0  0  0  0  0  0  0
  160.0070  213.7100  149.6620 C   0  0  0  0  0  2  0  0  0  0  0  0
  159.3960  212.5460  146.0790 C   0  0  0  0  0  3  0  0  0  0  0  0
  159.3550  213.2130  148.4140 C   0  0  0  0  0  0  0  0  0  0  0  0
  157.2840  212.7470  147.2370 C   0  0  0  0  0  3  0  0  0  0  0  0
  157.9580  213.1300  148.3990 C   0  0  0  0  0  3  0  0  0  0  0  0
  158.0020  212.4590  146.0770 C   0  0  0  0  0  3  0  0  0  0  0  0
  160.0930  212.9170  147.2420 C   0  0  0  0  0  0  0  0  0  0  0  0
  161.5310  213.0010  147.1990 N   0  0  0  0  0  0  0  0  0  0  0  0
  163.6760  212.4920  147.9810 O   0  0  0  0  0  1  0  0  0  0  0  0
  162.3580  212.0360  147.9200 C   0  0  0  0  0  2  0  0  0  0  0  0
  162.1550  214.0240  146.3590 C   0  0  0  0  0  2  0  0  0  0  0  0
  162.6910  214.4520  144.2640 C   0  0  0  0  0  1  0  0  0  0  0  0
  162.7740  213.4620  145.2410 O   0  0  0  0  0  0  0  0  0  0  0  0
  1  5  1  0  0  0  0
  3 32  1  1  0  0  0
  3  4  1  0  0  0  0
  5  7  1  0  0  0  0
  5  2  1  0  0  0  0
  5  4  1  1  0  0  0
  6  2  1  0  0  0  0
  7  2  1  1  0  0  0
  8 30  1  6  0  0  0
  8  1  1  0  0  0  0
  8  3  1  0  0  0  0
  9 14  1  6  0  0  0
  9 11  1  0  0  0  0
 10 14  1  1  0  0  0
 10 11  1  0  0  0  0
 10  7  1  0  0  0  0
 11 13  1  1  0  0  0
 12 15  1  6  0  0  0
 12  9  1  0  0  0  0
 12 11  1  0  0  0  0
 15 17  1  6  0  0  0
 16 17  1  0  0  0  0
 18 15  1  0  0  0  0
 19 20  1  6  0  0  0
 19 18  1  0  0  0  0
 22 29  1  0  0  0  0
 22 21  1  0  0  0  0
 23 19  1  0  0  0  0
 23 29  2  0  0  0  0
 24 22  2  0  0  0  0
 25 26  2  0  0  0  0
 25 24  1  0  0  0  0
 26 23  1  0  0  0  0
 27 24  1  0  0  0  0
 28 25  1  0  0  0  0
 31 30  1  0  0  0  0
 33 32  1  0  0  0  0
 33 34  1  0  0  0  0
 35 34  1  0  0  0  0
 35 38  1  0  0  0  0
 36 35  2  0  0  0  0
 37 38  2  0  0  0  0
 38 39  1  0  0  0  0
 39 41  1  0  0  0  0
 40 41  1  0  0  0  0
 40 42  1  0  0  0  0
 41 43  1  1  0  0  0
 41 42  1  0  0  0  0
 43 44  1  0  0  0  0
 44 45  1  0  0  0  0
 46 44  2  0  0  0  0
 47 36  1  0  0  0  0
 48 53  1  0  0  0  0
 49 47  1  0  0  0  0
 50 51  2  0  0  0  0
 51 49  1  0  0  0  0
 52 48  2  0  0  0  0
 52 50  1  0  0  0  0
 53 49  2  0  0  0  0
 54 53  1  0  0  0  0
 54 56  1  0  0  0  0
 56 55  1  0  0  0  0
 57 54  1  0  0  0  0
 58 59  1  0  0  0  0
 59 57  1  0  0  0  0
M  END
>  <MODEL>
1

>  <REMARK>
 VINA RESULT:      -3.4      0.000      0.000
  Name = 
  20 active torsions:
  status: ('A' for Active; 'I' for Inactive)
    1  A    between atoms: C_5  and  C_18
    2  A    between atoms: C_5  and  C_28
    3  A    between atoms: C_7  and  C_19
    4  A    between atoms: C_7  and  N_36
    5  A    between atoms: C_8  and  C_58
    6  A    between atoms: C_13  and  C_51
    7  A    between atoms: C_13  and  N_56
    8  A    between atoms: C_14  and  N_17
    9  A    between atoms: C_14  and  O_57
   10  A    between atoms: C_15  and  C_25
   11  A    between atoms: N_17  and  C_45
   12  A    between atoms: N_17  and  C_49
   13  A    between atoms: C_18  and  C_47
   14  A    between atoms: C_21  and  N_22
   15  A    between atoms: C_21  and  C_55
   16  A    between atoms: C_23  and  C_55
   17  A    between atoms: C_29  and  C_51
   18  A    between atoms: C_30  and  C_59
   19  A    between atoms: C_31  and  C_47
   20  A    between atoms: C_32  and  C_47
                            x       y       z     vdW  Elec       q    Type
                         _______ _______ _______ _____ _____    ______ ____

>  <TORSDO>
F 20

$$$$
=
 OpenBabel11072415293D

 59 65  0  0  1  0  0  0  0  0999 V2000
  160.9360  210.7020  152.9590 O   0  0  0  0  0  0  0  0  0  0  0  0
  161.9620  209.2920  154.6630 N   0  0  0  0  0  0  0  0  0  0  0  0
  160.7730  208.8780  151.4030 C   0  0  1  0  0  3  0  0  0  0  0  0
  160.7030  208.2650  152.7760 C   0  0  0  0  0  2  0  0  0  0  0  0
  160.8980  209.4750  153.6480 C   0  0  2  0  0  0  0  0  0  0  0  0
  162.7450  210.5150  154.8600 C   0  0  0  0  0  1  0  0  0  0  0  0
  160.5250  209.4330  155.0620 C   0  0  2  0  0  3  0  0  0  0  0  0
  160.5110  210.3710  151.6600 C   0  0  2  0  0  3  0  0  0  0  0  0
  158.6840  210.8630  157.2260 C   0  0  2  0  0  3  0  0  0  0  0  0
  160.1130  210.8130  155.6080 C   0  0  1  0  0  3  0  0  0  0  0  0
  158.5970  210.9680  155.7000 C   0  0  2  0  0  0  0  0  0  0  0  0
  157.9700  212.0390  156.5760 C   0  0  2  0  0  3  0  0  0  0  0  0
  157.7740  209.9300  155.2560 O   0  0  0  0  0  1  0  0  0  0  0  0
  160.2040  210.8150  157.1130 C   0  0  0  0  0  2  0  0  0  0  0  0
  158.7880  213.3390  156.5980 C   0  0  1  0  0  3  0  0  0  0  0  0
  160.9940  214.2070  156.9220 O   0  0  0  0  0  1  0  0  0  0  0  0
  160.1750  213.1060  157.1780 C   0  0  0  0  0  2  0  0  0  0  0  0
  158.8690  213.9750  155.2080 C   0  0  0  0  0  2  0  0  0  0  0  0
  157.5140  214.4510  154.6900 C   0  0  2  0  0  3  0  0  0  0  0  0
  156.4880  213.6830  155.2430 O   0  0  0  0  0  1  0  0  0  0  0  0
  159.8680  213.9980  150.4150 O   0  0  0  0  0  1  0  0  0  0  0  0
  158.6670  214.1340  151.1000 C   0  0  0  0  0  0  0  0  0  0  0  0
  157.4770  214.3800  153.1980 C   0  0  0  0  0  0  0  0  0  0  0  0
  157.4530  214.1670  150.4010 C   0  0  0  0  0  0  0  0  0  0  0  0
  156.2460  214.3020  151.1060 C   0  0  0  0  0  0  0  0  0  0  0  0
  156.2620  214.4040  152.5000 C   0  0  0  0  0  3  0  0  0  0  0  0
  157.4500  214.0650  149.0130 O   0  0  0  0  0  1  0  0  0  0  0  0
  154.9420  214.3350  150.3900 C   0  0  0  0  0  1  0  0  0  0  0  0
  158.6770  214.2370  152.4940 C   0  0  0  0  0  3  0  0  0  0  0  0
  161.1090  211.3200  150.6290 C   0  0  0  0  0  2  0  0  0  0  0  0
  162.4840  211.1110  150.5350 O   0  0  0  0  0  1  0  0  0  0  0  0
  162.1220  208.5590  150.7330 C   0  0  0  0  0  2  0  0  0  0  0  0
  162.2560  209.1690  149.3440 C   0  0  0  0  0  2  0  0  0  0  0  0
  162.6180  208.1390  148.3850 N   0  0  0  0  0  2  0  0  0  0  0  0
  161.9230  206.8910  148.3150 C   0  0  0  0  0  0  0  0  0  0  0  0
  160.9640  206.6540  149.1660 N   0  0  0  0  0  0  0  0  0  0  0  0
  163.4190  205.3210  147.3100 O   0  0  0  0  0  0  0  0  0  0  0  0
  162.3220  205.9380  147.2510 C   0  0  0  0  0  0  0  0  0  0  0  0
  161.4270  205.7180  146.1500 N   0  0  0  0  0  2  0  0  0  0  0  0
  162.7720  205.0260  144.3170 O   0  0  0  0  0  0  0  0  0  0  0  0
  161.5940  204.7780  145.0410 C   0  0  2  0  0  0  0  0  0  0  0  0
  161.5500  205.3050  143.6580 C   0  0  0  0  0  2  0  0  0  0  0  0
  161.4110  203.2930  145.3630 C   0  0  0  0  0  2  0  0  0  0  0  0
  160.1990  202.6790  144.7390 C   0  0  0  0  0  0  0  0  0  0  0  0
  160.0060  201.4380  144.8250 O   0  0  0  0  0  1  0  0  0  0  0  0
  159.3020  203.4740  144.0400 O   0  0  0  0  0  0  0  0  0  0  0  0
  160.1430  205.4530  149.2310 C   0  0  0  0  0  2  0  0  0  0  0  0
  160.9520  202.4760  151.4790 C   0  0  0  0  0  3  0  0  0  0  0  0
  160.5760  204.6130  150.3870 C   0  0  0  0  0  0  0  0  0  0  0  0
  161.1840  204.5280  152.7360 C   0  0  0  0  0  3  0  0  0  0  0  0
  160.8500  205.2630  151.5960 C   0  0  0  0  0  3  0  0  0  0  0  0
  161.2320  203.1350  152.6780 C   0  0  0  0  0  3  0  0  0  0  0  0
  160.6270  203.2000  150.3190 C   0  0  0  0  0  0  0  0  0  0  0  0
  160.3380  202.4800  149.1030 N   0  0  0  0  0  0  0  0  0  0  0  0
  158.5160  201.3520  150.0400 O   0  0  0  0  0  1  0  0  0  0  0  0
  159.0100  201.9190  148.8650 C   0  0  0  0  0  2  0  0  0  0  0  0
  161.3750  202.3830  148.0740 C   0  0  0  0  0  2  0  0  0  0  0  0
  161.9470  200.4280  148.9170 C   0  0  0  0  0  1  0  0  0  0  0  0
  161.6190  201.0560  147.7170 O   0  0  0  0  0  0  0  0  0  0  0  0
  1  5  1  0  0  0  0
  2  6  1  0  0  0  0
  3 32  1  1  0  0  0
  3  8  1  0  0  0  0
  3  4  1  0  0  0  0
  5  4  1  6  0  0  0
  5  2  1  0  0  0  0
  5  7  1  0  0  0  0
  7  2  1  1  0  0  0
  7 10  1  0  0  0  0
  8 30  1  6  0  0  0
  8  1  1  0  0  0  0
  9 14  1  6  0  0  0
 10 11  1  0  0  0  0
 10 14  1  1  0  0  0
 11 13  1  6  0  0  0
 11 12  1  0  0  0  0
 11  9  1  0  0  0  0
 12 15  1  6  0  0  0
 12  9  1  0  0  0  0
 15 18  1  6  0  0  0
 15 17  1  0  0  0  0
 16 17  1  0  0  0  0
 19 18  1  0  0  0  0
 19 20  1  1  0  0  0
 21 22  1  0  0  0  0
 22 29  1  0  0  0  0
 23 19  1  0  0  0  0
 24 22  2  0  0  0  0
 24 25  1  0  0  0  0
 25 26  2  0  0  0  0
 26 23  1  0  0  0  0
 27 24  1  0  0  0  0
 28 25  1  0  0  0  0
 29 23  2  0  0  0  0
 31 30  1  0  0  0  0
 33 32  1  0  0  0  0
 34 33  1  0  0  0  0
 35 34  1  0  0  0  0
 35 36  2  0  0  0  0
 36 47  1  0  0  0  0
 38 37  2  0  0  0  0
 38 35  1  0  0  0  0
 39 38  1  0  0  0  0
 40 41  1  0  0  0  0
 41 43  1  1  0  0  0
 41 39  1  0  0  0  0
 42 40  1  0  0  0  0
 42 41  1  0  0  0  0
 44 45  1  0  0  0  0
 44 43  1  0  0  0  0
 46 44  2  0  0  0  0
 47 49  1  0  0  0  0
 48 52  1  0  0  0  0
 49 51  2  0  0  0  0
 51 50  1  0  0  0  0
 52 50  2  0  0  0  0
 53 49  1  0  0  0  0
 53 48  2  0  0  0  0
 54 53  1  0  0  0  0
 56 54  1  0  0  0  0
 56 55  1  0  0  0  0
 57 54  1  0  0  0  0
 59 57  1  0  0  0  0
 59 58  1  0  0  0  0
M  END
>  <MODEL>
2

>  <REMARK>
 VINA RESULT:      -2.7      2.766     11.097
  Name = 
  20 active torsions:
  status: ('A' for Active; 'I' for Inactive)
    1  A    between atoms: C_5  and  C_18
    2  A    between atoms: C_5  and  C_28
    3  A    between atoms: C_7  and  C_19
    4  A    between atoms: C_7  and  N_36
    5  A    between atoms: C_8  and  C_58
    6  A    between atoms: C_13  and  C_51
    7  A    between atoms: C_13  and  N_56
    8  A    between atoms: C_14  and  N_17
    9  A    between atoms: C_14  and  O_57
   10  A    between atoms: C_15  and  C_25
   11  A    between atoms: N_17  and  C_45
   12  A    between atoms: N_17  and  C_49
   13  A    between atoms: C_18  and  C_47
   14  A    between atoms: C_21  and  N_22
   15  A    between atoms: C_21  and  C_55
   16  A    between atoms: C_23  and  C_55
   17  A    between atoms: C_29  and  C_51
   18  A    between atoms: C_30  and  C_59
   19  A    between atoms: C_31  and  C_47
   20  A    between atoms: C_32  and  C_47
                            x       y       z     vdW  Elec       q    Type
                         _______ _______ _______ _____ _____    ______ ____

>  <TORSDO>
F 20

$$$$
=
 OpenBabel11072415293D

 59 65  0  0  1  0  0  0  0  0999 V2000
  161.3650  205.8280  149.8410 O   0  0  0  0  0  0  0  0  0  0  0  0
  160.3700  204.5940  151.6950 N   0  0  0  0  0  0  0  0  0  0  0  0
  162.3340  207.4600  151.3150 C   0  0  1  0  0  3  0  0  0  0  0  0
  162.2430  206.1820  152.1070 C   0  0  0  0  0  2  0  0  0  0  0  0
  161.5550  205.2760  151.1230 C   0  0  2  0  0  0  0  0  0  0  0  0
  159.2800  204.4870  150.7210 C   0  0  0  0  0  1  0  0  0  0  0  0
  161.5950  203.8250  151.3040 C   0  0  2  0  0  3  0  0  0  0  0  0
  162.1440  206.9980  149.8610 C   0  0  2  0  0  3  0  0  0  0  0  0
  159.7210  201.9070  149.5920 C   0  0  2  0  0  3  0  0  0  0  0  0
  161.5090  203.0590  149.9710 C   0  0  1  0  0  3  0  0  0  0  0  0
  161.1060  201.5990  150.1690 C   0  0  2  0  0  0  0  0  0  0  0  0
  160.5570  200.7740  149.0170 C   0  0  2  0  0  3  0  0  0  0  0  0
  160.9210  201.1090  151.4640 O   0  0  0  0  0  1  0  0  0  0  0  0
  160.1810  203.3330  149.3090 C   0  0  0  0  0  2  0  0  0  0  0  0
  161.2160  201.1200  147.6740 C   0  0  1  0  0  3  0  0  0  0  0  0
  162.3820  199.2630  146.7160 O   0  0  0  0  0  1  0  0  0  0  0  0
  162.5460  200.3970  147.5120 C   0  0  0  0  0  2  0  0  0  0  0  0
  160.2820  200.8290  146.4980 C   0  0  0  0  0  2  0  0  0  0  0  0
  159.5210  202.0640  146.0210 C   0  0  2  0  0  3  0  0  0  0  0  0
  158.7650  201.7590  144.8870 O   0  0  0  0  0  1  0  0  0  0  0  0
  163.3960  204.7650  147.3290 O   0  0  0  0  0  1  0  0  0  0  0  0
  162.4040  204.4850  146.3970 C   0  0  0  0  0  0  0  0  0  0  0  0
  160.4730  203.1790  145.7330 C   0  0  0  0  0  0  0  0  0  0  0  0
  162.3300  205.2130  145.2030 C   0  0  0  0  0  0  0  0  0  0  0  0
  161.3240  204.9180  144.2680 C   0  0  0  0  0  0  0  0  0  0  0  0
  160.4030  203.9010  144.5330 C   0  0  0  0  0  3  0  0  0  0  0  0
  163.2520  206.2240  144.9490 O   0  0  0  0  0  1  0  0  0  0  0  0
  161.2250  205.6730  142.9890 C   0  0  0  0  0  1  0  0  0  0  0  0
  161.4800  203.4700  146.6580 C   0  0  0  0  0  3  0  0  0  0  0  0
  161.5760  208.0500  148.9170 C   0  0  0  0  0  2  0  0  0  0  0  0
  162.5860  208.9260  148.5210 O   0  0  0  0  0  1  0  0  0  0  0  0
  161.2990  208.4840  151.8150 C   0  0  0  0  0  2  0  0  0  0  0  0
  161.8750  209.8840  151.9720 C   0  0  0  0  0  2  0  0  0  0  0  0
  161.0740  210.6450  152.9150 N   0  0  0  0  0  2  0  0  0  0  0  0
  160.3280  211.7990  152.5180 C   0  0  0  0  0  0  0  0  0  0  0  0
  160.4050  212.2060  151.2820 N   0  0  0  0  0  0  0  0  0  0  0  0
  159.9910  212.9460  154.5880 O   0  0  0  0  0  0  0  0  0  0  0  0
  159.4840  212.4610  153.5420 C   0  0  0  0  0  0  0  0  0  0  0  0
  158.0690  212.5530  153.3150 N   0  0  0  0  0  2  0  0  0  0  0  0
  155.8000  212.6400  154.0190 O   0  0  0  0  0  0  0  0  0  0  0  0
  157.0730  213.2190  154.1560 C   0  0  2  0  0  0  0  0  0  0  0  0
  155.9660  213.9470  153.4960 C   0  0  0  0  0  2  0  0  0  0  0  0
  157.4530  213.4490  155.6210 C   0  0  0  0  0  2  0  0  0  0  0  0
  157.1170  212.3060  156.5240 C   0  0  0  0  0  0  0  0  0  0  0  0
  155.9390  212.1570  156.9400 O   0  0  0  0  0  1  0  0  0  0  0  0
  158.1120  211.4270  156.9270 O   0  0  0  0  0  0  0  0  0  0  0  0
  159.7070  213.3440  150.7000 C   0  0  0  0  0  2  0  0  0  0  0  0
  160.0470  213.9650  146.9500 C   0  0  0  0  0  3  0  0  0  0  0  0
  160.2650  213.6340  149.3460 C   0  0  0  0  0  0  0  0  0  0  0  0
  162.2430  213.8470  147.9540 C   0  0  0  0  0  3  0  0  0  0  0  0
  161.6580  213.6590  149.2080 C   0  0  0  0  0  3  0  0  0  0  0  0
  161.4380  213.9970  146.8250 C   0  0  0  0  0  3  0  0  0  0  0  0
  159.4400  213.7900  148.2050 C   0  0  0  0  0  0  0  0  0  0  0  0
  158.0020  213.7560  148.2890 N   0  0  0  0  0  0  0  0  0  0  0  0
  156.3330  213.9830  146.6660 O   0  0  0  0  0  1  0  0  0  0  0  0
  157.2090  213.0770  147.2650 C   0  0  0  0  0  2  0  0  0  0  0  0
  157.3460  214.3480  149.4560 C   0  0  0  0  0  2  0  0  0  0  0  0
  155.1940  214.4510  149.9200 C   0  0  0  0  0  1  0  0  0  0  0  0
  156.2720  213.5690  149.8900 O   0  0  0  0  0  0  0  0  0  0  0  0
  1  8  1  0  0  0  0
  1  5  1  0  0  0  0
  3 32  1  1  0  0  0
  3  4  1  0  0  0  0
  5  7  1  0  0  0  0
  5  2  1  0  0  0  0
  5  4  1  1  0  0  0
  6  2  1  0  0  0  0
  7  2  1  1  0  0  0
  8 30  1  6  0  0  0
  8  3  1  0  0  0  0
  9 14  1  6  0  0  0
  9 11  1  0  0  0  0
 10 14  1  6  0  0  0
 10 11  1  0  0  0  0
 10  7  1  0  0  0  0
 11 13  1  1  0  0  0
 12 15  1  6  0  0  0
 12  9  1  0  0  0  0
 12 11  1  0  0  0  0
 15 18  1  6  0  0  0
 16 17  1  0  0  0  0
 17 15  1  0  0  0  0
 19 20  1  6  0  0  0
 19 18  1  0  0  0  0
 22 29  1  0  0  0  0
 22 21  1  0  0  0  0
 23 19  1  0  0  0  0
 23 29  2  0  0  0  0
 24 22  2  0  0  0  0
 25 26  2  0  0  0  0
 25 24  1  0  0  0  0
 26 23  1  0  0  0  0
 27 24  1  0  0  0  0
 28 25  1  0  0  0  0
 31 30  1  0  0  0  0
 32 33  1  0  0  0  0
 33 34  1  0  0  0  0
 35 34  1  0  0  0  0
 35 38  1  0  0  0  0
 36 35  2  0  0  0  0
 38 37  2  0  0  0  0
 39 38  1  0  0  0  0
 39 41  1  0  0  0  0
 40 41  1  0  0  0  0
 41 43  1  1  0  0  0
 42 40  1  0  0  0  0
 42 41  1  0  0  0  0
 43 44  1  0  0  0  0
 44 46  2  0  0  0  0
 44 45  1  0  0  0  0
 47 36  1  0  0  0  0
 48 53  1  0  0  0  0
 49 47  1  0  0  0  0
 50 51  2  0  0  0  0
 51 49  1  0  0  0  0
 52 48  2  0  0  0  0
 52 50  1  0  0  0  0
 53 54  1  0  0  0  0
 53 49  2  0  0  0  0
 54 57  1  0  0  0  0
 55 56  1  0  0  0  0
 56 54  1  0  0  0  0
 57 59  1  0  0  0  0
 59 58  1  0  0  0  0
M  END
>  <MODEL>
3

>  <REMARK>
 VINA RESULT:      -2.1      1.579      2.663
  Name = 
  20 active torsions:
  status: ('A' for Active; 'I' for Inactive)
    1  A    between atoms: C_5  and  C_18
    2  A    between atoms: C_5  and  C_28
    3  A    between atoms: C_7  and  C_19
    4  A    between atoms: C_7  and  N_36
    5  A    between atoms: C_8  and  C_58
    6  A    between atoms: C_13  and  C_51
    7  A    between atoms: C_13  and  N_56
    8  A    between atoms: C_14  and  N_17
    9  A    between atoms: C_14  and  O_57
   10  A    between atoms: C_15  and  C_25
   11  A    between atoms: N_17  and  C_45
   12  A    between atoms: N_17  and  C_49
   13  A    between atoms: C_18  and  C_47
   14  A    between atoms: C_21  and  N_22
   15  A    between atoms: C_21  and  C_55
   16  A    between atoms: C_23  and  C_55
   17  A    between atoms: C_29  and  C_51
   18  A    between atoms: C_30  and  C_59
   19  A    between atoms: C_31  and  C_47
   20  A    between atoms: C_32  and  C_47
                            x       y       z     vdW  Elec       q    Type
                         _______ _______ _______ _____ _____    ______ ____

>  <TORSDO>
F 20

$$$$
=
 OpenBabel11072415293D

 59 65  0  0  1  0  0  0  0  0999 V2000
  160.8870  211.4490  152.6400 O   0  0  0  0  0  0  0  0  0  0  0  0
  161.8860  209.7400  154.0650 N   0  0  0  0  0  0  0  0  0  0  0  0
  160.7990  209.9670  150.7500 C   0  0  1  0  0  3  0  0  0  0  0  0
  160.6990  209.0940  151.9730 C   0  0  0  0  0  2  0  0  0  0  0  0
  160.8490  210.1100  153.0720 C   0  0  2  0  0  0  0  0  0  0  0  0
  162.6420  210.9080  154.5240 C   0  0  0  0  0  1  0  0  0  0  0  0
  160.4360  209.7850  154.4380 C   0  0  2  0  0  3  0  0  0  0  0  0
  160.5060  211.3770  151.2890 C   0  0  2  0  0  3  0  0  0  0  0  0
  158.8940  210.6990  157.0650 C   0  0  2  0  0  3  0  0  0  0  0  0
  159.9860  211.0270  155.2310 C   0  0  1  0  0  3  0  0  0  0  0  0
  158.5070  210.9660  155.6070 C   0  0  2  0  0  0  0  0  0  0  0  0
  157.9450  211.8360  156.7180 C   0  0  2  0  0  3  0  0  0  0  0  0
  157.7340  209.8850  155.1760 O   0  0  0  0  0  1  0  0  0  0  0  0
  160.3610  210.8670  156.6830 C   0  0  0  0  0  2  0  0  0  0  0  0
  158.6030  213.2220  156.7750 C   0  0  1  0  0  3  0  0  0  0  0  0
  160.7080  214.3330  157.0260 O   0  0  0  0  0  1  0  0  0  0  0  0
  160.0450  213.1260  157.2540 C   0  0  0  0  0  2  0  0  0  0  0  0
  158.5150  213.9430  155.4280 C   0  0  0  0  0  2  0  0  0  0  0  0
  157.0980  214.4010  155.0890 C   0  0  2  0  0  3  0  0  0  0  0  0
  156.1600  213.5520  155.6810 O   0  0  0  0  0  1  0  0  0  0  0  0
  159.0100  214.4530  150.5770 O   0  0  0  0  0  1  0  0  0  0  0  0
  157.8830  214.4470  151.3880 C   0  0  0  0  0  0  0  0  0  0  0  0
  156.9080  214.4430  153.6080 C   0  0  0  0  0  0  0  0  0  0  0  0
  156.6020  214.4450  150.8200 C   0  0  0  0  0  0  0  0  0  0  0  0
  155.4700  214.4370  151.6510 C   0  0  0  0  0  0  0  0  0  0  0  0
  155.6270  214.4320  153.0400 C   0  0  0  0  0  3  0  0  0  0  0  0
  156.4590  214.4510  149.4360 O   0  0  0  0  0  1  0  0  0  0  0  0
  154.0990  214.4290  151.0750 C   0  0  0  0  0  1  0  0  0  0  0  0
  158.0330  214.4430  152.7780 C   0  0  0  0  0  3  0  0  0  0  0  0
  161.1180  212.5170  150.4850 C   0  0  0  0  0  2  0  0  0  0  0  0
  160.5410  212.5660  149.2160 O   0  0  0  0  0  1  0  0  0  0  0  0
  162.1720  209.8000  150.0740 C   0  0  0  0  0  2  0  0  0  0  0  0
  162.7130  208.3800  150.1690 C   0  0  0  0  0  2  0  0  0  0  0  0
  162.6690  207.7460  148.8620 N   0  0  0  0  0  2  0  0  0  0  0  0
  161.7830  206.6600  148.5760 C   0  0  0  0  0  0  0  0  0  0  0  0
  161.0250  206.1960  149.5300 N   0  0  0  0  0  0  0  0  0  0  0  0
  162.1900  206.8230  146.2260 O   0  0  0  0  0  0  0  0  0  0  0  0
  161.7630  206.1330  147.1900 C   0  0  0  0  0  0  0  0  0  0  0  0
  161.2580  204.8080  146.9630 N   0  0  0  0  0  2  0  0  0  0  0  0
  161.7350  204.8360  144.6350 O   0  0  0  0  0  0  0  0  0  0  0  0
  161.2130  204.0770  145.6960 C   0  0  2  0  0  0  0  0  0  0  0  0
  160.3400  204.5910  144.6160 C   0  0  0  0  0  2  0  0  0  0  0  0
  161.7520  202.6450  145.7080 C   0  0  0  0  0  2  0  0  0  0  0  0
  160.8180  201.6470  146.3130 C   0  0  0  0  0  0  0  0  0  0  0  0
  159.5750  201.7820  146.1700 O   0  0  0  0  0  0  0  0  0  0  0  0
  161.3210  200.5900  147.0580 O   0  0  0  0  0  1  0  0  0  0  0  0
  160.0580  205.1130  149.4170 C   0  0  0  0  0  2  0  0  0  0  0  0
  161.8140  202.9180  151.9990 C   0  0  0  0  0  3  0  0  0  0  0  0
  160.5310  203.9370  150.2060 C   0  0  0  0  0  0  0  0  0  0  0  0
  160.7180  201.5210  150.3590 C   0  0  0  0  0  3  0  0  0  0  0  0
  160.2370  202.6610  149.7110 C   0  0  0  0  0  3  0  0  0  0  0  0
  161.5080  201.6500  151.5010 C   0  0  0  0  0  3  0  0  0  0  0  0
  161.3290  204.0760  151.3670 C   0  0  0  0  0  0  0  0  0  0  0  0
  161.6740  205.3660  151.9110 N   0  0  0  0  0  0  0  0  0  0  0  0
  163.8750  205.8010  152.5720 O   0  0  0  0  0  1  0  0  0  0  0  0
  162.9380  206.0110  151.5600 C   0  0  0  0  0  2  0  0  0  0  0  0
  160.7050  206.0580  152.7620 C   0  0  0  0  0  2  0  0  0  0  0  0
  160.3840  206.2970  154.9290 C   0  0  0  0  0  1  0  0  0  0  0  0
  160.4350  205.3340  153.9240 O   0  0  0  0  0  0  0  0  0  0  0  0
  1  5  1  0  0  0  0
  2  6  1  0  0  0  0
  3 32  1  1  0  0  0
  3  8  1  0  0  0  0
  3  4  1  0  0  0  0
  5  4  1  6  0  0  0
  5  2  1  0  0  0  0
  5  7  1  0  0  0  0
  7  2  1  1  0  0  0
  7 10  1  0  0  0  0
  8 30  1  6  0  0  0
  8  1  1  0  0  0  0
  9 14  1  6  0  0  0
 10 11  1  0  0  0  0
 10 14  1  1  0  0  0
 11 13  1  6  0  0  0
 11 12  1  0  0  0  0
 11  9  1  0  0  0  0
 12 15  1  6  0  0  0
 12  9  1  0  0  0  0
 15 18  1  6  0  0  0
 15 17  1  0  0  0  0
 16 17  1  0  0  0  0
 19 18  1  0  0  0  0
 19 20  1  1  0  0  0
 21 22  1  0  0  0  0
 22 29  1  0  0  0  0
 23 19  1  0  0  0  0
 24 22  2  0  0  0  0
 24 25  1  0  0  0  0
 25 26  2  0  0  0  0
 26 23  1  0  0  0  0
 27 24  1  0  0  0  0
 28 25  1  0  0  0  0
 29 23  2  0  0  0  0
 31 30  1  0  0  0  0
 32 33  1  0  0  0  0
 34 33  1  0  0  0  0
 35 34  1  0  0  0  0
 35 36  2  0  0  0  0
 37 38  2  0  0  0  0
 38 35  1  0  0  0  0
 39 38  1  0  0  0  0
 40 41  1  0  0  0  0
 41 43  1  1  0  0  0
 41 39  1  0  0  0  0
 42 40  1  0  0  0  0
 42 41  1  0  0  0  0
 43 44  1  0  0  0  0
 44 46  1  0  0  0  0
 45 44  2  0  0  0  0
 47 36  1  0  0  0  0
 47 49  1  0  0  0  0
 49 53  1  0  0  0  0
 50 52  2  0  0  0  0
 51 49  2  0  0  0  0
 51 50  1  0  0  0  0
 52 48  1  0  0  0  0
 53 54  1  0  0  0  0
 53 48  2  0  0  0  0
 54 57  1  0  0  0  0
 56 54  1  0  0  0  0
 56 55  1  0  0  0  0
 57 59  1  0  0  0  0
 59 58  1  0  0  0  0
M  END
>  <MODEL>
4

>  <REMARK>
 VINA RESULT:      -1.6      2.678     11.071
  Name = 
  20 active torsions:
  status: ('A' for Active; 'I' for Inactive)
    1  A    between atoms: C_5  and  C_18
    2  A    between atoms: C_5  and  C_28
    3  A    between atoms: C_7  and  C_19
    4  A    between atoms: C_7  and  N_36
    5  A    between atoms: C_8  and  C_58
    6  A    between atoms: C_13  and  C_51
    7  A    between atoms: C_13  and  N_56
    8  A    between atoms: C_14  and  N_17
    9  A    between atoms: C_14  and  O_57
   10  A    between atoms: C_15  and  C_25
   11  A    between atoms: N_17  and  C_45
   12  A    between atoms: N_17  and  C_49
   13  A    between atoms: C_18  and  C_47
   14  A    between atoms: C_21  and  N_22
   15  A    between atoms: C_21  and  C_55
   16  A    between atoms: C_23  and  C_55
   17  A    between atoms: C_29  and  C_51
   18  A    between atoms: C_30  and  C_59
   19  A    between atoms: C_31  and  C_47
   20  A    between atoms: C_32  and  C_47
                            x       y       z     vdW  Elec       q    Type
                         _______ _______ _______ _____ _____    ______ ____

>  <TORSDO>
F 20

$$$$
=
 OpenBabel11072415293D

 59 65  0  0  1  0  0  0  0  0999 V2000
  161.2190  210.2660  152.1140 O   0  0  0  0  0  0  0  0  0  0  0  0
  162.2790  208.9120  153.8430 N   0  0  0  0  0  0  0  0  0  0  0  0
  161.1440  208.4240  150.5730 C   0  0  1  0  0  3  0  0  0  0  0  0
  161.0810  207.8200  151.9520 C   0  0  0  0  0  2  0  0  0  0  0  0
  161.2210  209.0450  152.8150 C   0  0  2  0  0  0  0  0  0  0  0  0
  163.0120  210.1660  154.0370 C   0  0  0  0  0  1  0  0  0  0  0  0
  160.8340  209.0020  154.2250 C   0  0  2  0  0  3  0  0  0  0  0  0
  160.8220  209.9070  150.8140 C   0  0  2  0  0  3  0  0  0  0  0  0
  159.6220  210.4600  156.7780 C   0  0  2  0  0  3  0  0  0  0  0  0
  160.3630  210.3710  154.7520 C   0  0  1  0  0  3  0  0  0  0  0  0
  158.9810  210.2960  155.3970 C   0  0  2  0  0  0  0  0  0  0  0  0
  158.4960  211.3850  156.3390 C   0  0  2  0  0  3  0  0  0  0  0  0
  158.2900  209.0820  155.3980 O   0  0  0  0  0  1  0  0  0  0  0  0
  160.9780  210.6360  156.1040 C   0  0  0  0  0  2  0  0  0  0  0  0
  158.9780  212.7830  155.9260 C   0  0  1  0  0  3  0  0  0  0  0  0
  160.3840  214.4530  156.9050 O   0  0  0  0  0  1  0  0  0  0  0  0
  160.3280  213.1050  156.5500 C   0  0  0  0  0  2  0  0  0  0  0  0
  159.0210  212.9370  154.4050 C   0  0  0  0  0  2  0  0  0  0  0  0
  158.0490  213.9930  153.8840 C   0  0  2  0  0  3  0  0  0  0  0  0
  156.7530  213.7160  154.3240 O   0  0  0  0  0  1  0  0  0  0  0  0
  155.7160  214.0250  149.5740 O   0  0  0  0  0  1  0  0  0  0  0  0
  156.9140  214.0840  150.2760 C   0  0  0  0  0  0  0  0  0  0  0  0
  158.0970  214.0490  152.3920 C   0  0  0  0  0  0  0  0  0  0  0  0
  158.1280  214.2290  149.5930 C   0  0  0  0  0  0  0  0  0  0  0  0
  159.3310  214.2890  150.3150 C   0  0  0  0  0  0  0  0  0  0  0  0
  159.3110  214.2040  151.7100 C   0  0  0  0  0  3  0  0  0  0  0  0
  158.1360  214.3120  148.2040 O   0  0  0  0  0  1  0  0  0  0  0  0
  160.6350  214.4480  149.6160 C   0  0  0  0  0  1  0  0  0  0  0  0
  156.9000  213.9980  151.6710 C   0  0  0  0  0  3  0  0  0  0  0  0
  161.3950  210.8690  149.7800 C   0  0  0  0  0  2  0  0  0  0  0  0
  162.5600  211.4550  150.2730 O   0  0  0  0  0  1  0  0  0  0  0  0
  162.5110  208.1500  149.9220 C   0  0  0  0  0  2  0  0  0  0  0  0
  162.4030  207.3830  148.6110 C   0  0  0  0  0  2  0  0  0  0  0  0
  161.6570  206.1540  148.8180 N   0  0  0  0  0  2  0  0  0  0  0  0
  161.8040  205.0240  147.9530 C   0  0  0  0  0  0  0  0  0  0  0  0
  162.5980  205.1170  146.9230 N   0  0  0  0  0  0  0  0  0  0  0  0
  159.8160  203.7020  148.0740 O   0  0  0  0  0  0  0  0  0  0  0  0
  161.0530  203.7920  148.2950 C   0  0  0  0  0  0  0  0  0  0  0  0
  161.7660  202.6880  148.8740 N   0  0  0  0  0  2  0  0  0  0  0  0
  162.0140  200.3320  148.6750 O   0  0  0  0  0  0  0  0  0  0  0  0
  161.2360  201.3680  149.2190 C   0  0  2  0  0  0  0  0  0  0  0  0
  160.7180  200.5090  148.1300 C   0  0  0  0  0  2  0  0  0  0  0  0
  160.8930  201.1270  150.6910 C   0  0  0  0  0  2  0  0  0  0  0  0
  161.4980  202.1220  151.6290 C   0  0  0  0  0  0  0  0  0  0  0  0
  160.7990  203.0650  152.0830 O   0  0  0  0  0  1  0  0  0  0  0  0
  162.8380  202.0230  151.9740 O   0  0  0  0  0  0  0  0  0  0  0  0
  162.8800  204.0690  145.9510 C   0  0  0  0  0  2  0  0  0  0  0  0
  159.5030  203.8510  144.1860 C   0  0  0  0  0  3  0  0  0  0  0  0
  161.5980  203.5600  145.3800 C   0  0  0  0  0  0  0  0  0  0  0  0
  159.9890  201.7450  145.2680 C   0  0  0  0  0  3  0  0  0  0  0  0
  161.2140  202.2540  145.7070 C   0  0  0  0  0  3  0  0  0  0  0  0
  159.1330  202.5440  144.5110 C   0  0  0  0  0  3  0  0  0  0  0  0
  160.7370  204.3760  144.6070 C   0  0  0  0  0  0  0  0  0  0  0  0
  161.0770  205.7320  144.2550 N   0  0  0  0  0  0  0  0  0  0  0  0
  160.3400  206.4520  146.3550 O   0  0  0  0  0  1  0  0  0  0  0  0
  160.5720  206.8570  145.0400 C   0  0  0  0  0  2  0  0  0  0  0  0
  162.0000  205.9650  143.1430 C   0  0  0  0  0  2  0  0  0  0  0  0
  162.1400  206.5740  141.0290 C   0  0  0  0  0  1  0  0  0  0  0  0
  161.3610  205.8270  141.9090 O   0  0  0  0  0  0  0  0  0  0  0  0
  1  5  1  0  0  0  0
  2  6  1  0  0  0  0
  3 32  1  1  0  0  0
  3  8  1  0  0  0  0
  3  4  1  0  0  0  0
  5  4  1  6  0  0  0
  5  2  1  0  0  0  0
  5  7  1  0  0  0  0
  7  2  1  1  0  0  0
  7 10  1  0  0  0  0
  8 30  1  6  0  0  0
  8  1  1  0  0  0  0
  9 14  1  6  0  0  0
 10 11  1  0  0  0  0
 10 14  1  1  0  0  0
 11 13  1  6  0  0  0
 11 12  1  0  0  0  0
 11  9  1  0  0  0  0
 12 15  1  6  0  0  0
 12  9  1  0  0  0  0
 15 18  1  6  0  0  0
 15 17  1  0  0  0  0
 17 16  1  0  0  0  0
 19 20  1  6  0  0  0
 19 18  1  0  0  0  0
 21 22  1  0  0  0  0
 22 29  1  0  0  0  0
 23 19  1  0  0  0  0
 24 22  2  0  0  0  0
 24 25  1  0  0  0  0
 25 26  2  0  0  0  0
 26 23  1  0  0  0  0
 27 24  1  0  0  0  0
 28 25  1  0  0  0  0
 29 23  2  0  0  0  0
 30 31  1  0  0  0  0
 33 34  1  0  0  0  0
 33 32  1  0  0  0  0
 35 38  1  0  0  0  0
 35 34  1  0  0  0  0
 36 35  2  0  0  0  0
 37 38  2  0  0  0  0
 38 39  1  0  0  0  0
 39 41  1  0  0  0  0
 40 41  1  0  0  0  0
 41 43  1  1  0  0  0
 42 40  1  0  0  0  0
 42 41  1  0  0  0  0
 43 44  1  0  0  0  0
 44 46  2  0  0  0  0
 44 45  1  0  0  0  0
 47 36  1  0  0  0  0
 48 52  2  0  0  0  0
 48 53  1  0  0  0  0
 49 51  1  0  0  0  0
 49 47  1  0  0  0  0
 50 51  2  0  0  0  0
 52 50  1  0  0  0  0
 53 49  2  0  0  0  0
 54 53  1  0  0  0  0
 54 56  1  0  0  0  0
 56 55  1  0  0  0  0
 57 54  1  0  0  0  0
 58 59  1  0  0  0  0
 59 57  1  0  0  0  0
M  END
>  <MODEL>
5

>  <REMARK>
 VINA RESULT:      -1.4      2.728     10.351
  Name = 
  20 active torsions:
  status: ('A' for Active; 'I' for Inactive)
    1  A    between atoms: C_5  and  C_18
    2  A    between atoms: C_5  and  C_28
    3  A    between atoms: C_7  and  C_19
    4  A    between atoms: C_7  and  N_36
    5  A    between atoms: C_8  and  C_58
    6  A    between atoms: C_13  and  C_51
    7  A    between atoms: C_13  and  N_56
    8  A    between atoms: C_14  and  N_17
    9  A    between atoms: C_14  and  O_57
   10  A    between atoms: C_15  and  C_25
   11  A    between atoms: N_17  and  C_45
   12  A    between atoms: N_17  and  C_49
   13  A    between atoms: C_18  and  C_47
   14  A    between atoms: C_21  and  N_22
   15  A    between atoms: C_21  and  C_55
   16  A    between atoms: C_23  and  C_55
   17  A    between atoms: C_29  and  C_51
   18  A    between atoms: C_30  and  C_59
   19  A    between atoms: C_31  and  C_47
   20  A    between atoms: C_32  and  C_47
                            x       y       z     vdW  Elec       q    Type
                         _______ _______ _______ _____ _____    ______ ____

>  <TORSDO>
F 20

$$$$
=
 OpenBabel11072415293D

 59 65  0  0  1  0  0  0  0  0999 V2000
  161.0750  205.6250  150.0060 O   0  0  0  0  0  0  0  0  0  0  0  0
  160.1150  204.5420  151.9700 N   0  0  0  0  0  0  0  0  0  0  0  0
  162.0260  207.3970  151.3220 C   0  0  1  0  0  3  0  0  0  0  0  0
  161.9630  206.1920  152.2240 C   0  0  0  0  0  2  0  0  0  0  0  0
  161.2830  205.1910  151.3300 C   0  0  2  0  0  0  0  0  0  0  0  0
  159.0190  204.3320  151.0190 C   0  0  0  0  0  1  0  0  0  0  0  0
  161.3500  203.7620  151.6380 C   0  0  2  0  0  3  0  0  0  0  0  0
  161.8330  206.8050  149.9160 C   0  0  2  0  0  3  0  0  0  0  0  0
  160.4780  200.8830  150.6050 C   0  0  2  0  0  3  0  0  0  0  0  0
  161.2670  202.8810  150.3770 C   0  0  1  0  0  3  0  0  0  0  0  0
  161.8810  201.4990  150.5990 C   0  0  2  0  0  0  0  0  0  0  0  0
  161.5520  200.3390  149.6750 C   0  0  2  0  0  3  0  0  0  0  0  0
  162.4730  201.2020  151.8280 O   0  0  0  0  0  1  0  0  0  0  0  0
  159.8980  202.2550  150.2810 C   0  0  0  0  0  2  0  0  0  0  0  0
  161.3760  200.7770  148.2140 C   0  0  1  0  0  3  0  0  0  0  0  0
  162.5660  199.3370  146.7190 O   0  0  0  0  0  1  0  0  0  0  0  0
  161.3130  199.5740  147.2830 C   0  0  0  0  0  2  0  0  0  0  0  0
  160.1500  201.6760  148.0400 C   0  0  0  0  0  2  0  0  0  0  0  0
  159.8530  202.0040  146.5790 C   0  0  2  0  0  3  0  0  0  0  0  0
  160.0280  200.8700  145.7830 O   0  0  0  0  0  1  0  0  0  0  0  0
  160.9320  205.4210  143.2360 O   0  0  0  0  0  1  0  0  0  0  0  0
  161.2290  204.8110  144.4480 C   0  0  0  0  0  0  0  0  0  0  0  0
  160.7320  203.1160  146.1090 C   0  0  0  0  0  0  0  0  0  0  0  0
  162.3080  205.2600  145.2200 C   0  0  0  0  0  0  0  0  0  0  0  0
  162.5960  204.6350  146.4450 C   0  0  0  0  0  0  0  0  0  0  0  0
  161.8060  203.5710  146.8860 C   0  0  0  0  0  3  0  0  0  0  0  0
  163.0880  206.3210  144.7710 O   0  0  0  0  0  1  0  0  0  0  0  0
  163.7330  205.0950  147.2880 C   0  0  0  0  0  1  0  0  0  0  0  0
  160.4430  203.7450  144.8940 C   0  0  0  0  0  3  0  0  0  0  0  0
  161.2400  207.7600  148.8880 C   0  0  0  0  0  2  0  0  0  0  0  0
  161.6190  207.3700  147.6040 O   0  0  0  0  0  1  0  0  0  0  0  0
  160.9760  208.4430  151.7390 C   0  0  0  0  0  2  0  0  0  0  0  0
  161.5630  209.8370  151.9130 C   0  0  0  0  0  2  0  0  0  0  0  0
  160.8680  210.5360  152.9810 N   0  0  0  0  0  2  0  0  0  0  0  0
  160.3450  211.8560  152.8080 C   0  0  0  0  0  0  0  0  0  0  0  0
  160.5370  212.4660  151.6720 N   0  0  0  0  0  0  0  0  0  0  0  0
  159.6860  213.6750  154.2100 O   0  0  0  0  0  0  0  0  0  0  0  0
  159.5870  212.4500  153.9350 C   0  0  0  0  0  0  0  0  0  0  0  0
  158.7210  211.6040  154.7070 N   0  0  0  0  0  2  0  0  0  0  0  0
  158.5650  212.3970  156.9420 O   0  0  0  0  0  0  0  0  0  0  0  0
  157.8400  211.9980  155.8070 C   0  0  2  0  0  0  0  0  0  0  0  0
  157.8450  211.1810  157.0410 C   0  0  0  0  0  2  0  0  0  0  0  0
  156.7080  212.9710  155.4680 C   0  0  0  0  0  2  0  0  0  0  0  0
  155.6570  212.3950  154.5740 C   0  0  0  0  0  0  0  0  0  0  0  0
  154.9940  213.1490  153.8150 O   0  0  0  0  0  0  0  0  0  0  0  0
  155.3930  211.0330  154.6040 O   0  0  0  0  0  1  0  0  0  0  0  0
  160.0650  213.7970  151.3150 C   0  0  0  0  0  2  0  0  0  0  0  0
  157.4030  213.5950  148.5870 C   0  0  0  0  0  3  0  0  0  0  0  0
  158.7580  213.6890  150.6010 C   0  0  0  0  0  0  0  0  0  0  0  0
  156.3360  213.7580  150.7500 C   0  0  0  0  0  3  0  0  0  0  0  0
  157.5900  213.7740  151.3660 C   0  0  0  0  0  3  0  0  0  0  0  0
  156.2430  213.6730  149.3610 C   0  0  0  0  0  3  0  0  0  0  0  0
  158.6720  213.5960  149.1900 C   0  0  0  0  0  0  0  0  0  0  0  0
  159.8440  213.5220  148.3540 N   0  0  0  0  0  0  0  0  0  0  0  0
  160.3290  213.2260  146.0850 O   0  0  0  0  0  1  0  0  0  0  0  0
  159.8570  214.1390  147.0290 C   0  0  0  0  0  2  0  0  0  0  0  0
  161.0510  212.8840  148.8810 C   0  0  0  0  0  2  0  0  0  0  0  0
  162.9890  212.8550  147.8310 C   0  0  0  0  0  1  0  0  0  0  0  0
  162.1880  213.6580  148.6390 O   0  0  0  0  0  0  0  0  0  0  0  0
  1  5  1  0  0  0  0
  3 32  1  1  0  0  0
  3  4  1  0  0  0  0
  5  7  1  0  0  0  0
  5  2  1  0  0  0  0
  5  4  1  1  0  0  0
  6  2  1  0  0  0  0
  7  2  1  1  0  0  0
  8 30  1  6  0  0  0
  8  1  1  0  0  0  0
  8  3  1  0  0  0  0
  9 14  1  6  0  0  0
 10 14  1  1  0  0  0
 10 11  1  0  0  0  0
 10  7  1  0  0  0  0
 11  9  1  0  0  0  0
 11 13  1  1  0  0  0
 12 15  1  6  0  0  0
 12 11  1  0  0  0  0
 12  9  1  0  0  0  0
 15 17  1  6  0  0  0
 16 17  1  0  0  0  0
 18 15  1  0  0  0  0
 19 20  1  6  0  0  0
 19 18  1  0  0  0  0
 21 22  1  0  0  0  0
 22 29  2  0  0  0  0
 22 24  1  0  0  0  0
 23 19  1  0  0  0  0
 23 26  2  0  0  0  0
 24 25  2  0  0  0  0
 25 26  1  0  0  0  0
 25 28  1  0  0  0  0
 27 24  1  0  0  0  0
 29 23  1  0  0  0  0
 31 30  1  0  0  0  0
 32 33  1  0  0  0  0
 33 34  1  0  0  0  0
 35 34  1  0  0  0  0
 35 38  1  0  0  0  0
 36 35  2  0  0  0  0
 38 37  2  0  0  0  0
 38 39  1  0  0  0  0
 39 41  1  0  0  0  0
 40 42  1  0  0  0  0
 41 43  1  6  0  0  0
 41 40  1  0  0  0  0
 41 42  1  0  0  0  0
 44 46  1  0  0  0  0
 44 43  1  0  0  0  0
 45 44  2  0  0  0  0
 47 36  1  0  0  0  0
 48 53  2  0  0  0  0
 48 52  1  0  0  0  0
 49 47  1  0  0  0  0
 49 51  2  0  0  0  0
 50 51  1  0  0  0  0
 52 50  2  0  0  0  0
 53 49  1  0  0  0  0
 54 57  1  0  0  0  0
 54 53  1  0  0  0  0
 55 56  1  0  0  0  0
 56 54  1  0  0  0  0
 58 59  1  0  0  0  0
 59 57  1  0  0  0  0
M  END
>  <MODEL>
6

>  <REMARK>
 VINA RESULT:      -1.1      1.346      2.184
  Name = 
  20 active torsions:
  status: ('A' for Active; 'I' for Inactive)
    1  A    between atoms: C_5  and  C_18
    2  A    between atoms: C_5  and  C_28
    3  A    between atoms: C_7  and  C_19
    4  A    between atoms: C_7  and  N_36
    5  A    between atoms: C_8  and  C_58
    6  A    between atoms: C_13  and  C_51
    7  A    between atoms: C_13  and  N_56
    8  A    between atoms: C_14  and  N_17
    9  A    between atoms: C_14  and  O_57
   10  A    between atoms: C_15  and  C_25
   11  A    between atoms: N_17  and  C_45
   12  A    between atoms: N_17  and  C_49
   13  A    between atoms: C_18  and  C_47
   14  A    between atoms: C_21  and  N_22
   15  A    between atoms: C_21  and  C_55
   16  A    between atoms: C_23  and  C_55
   17  A    between atoms: C_29  and  C_51
   18  A    between atoms: C_30  and  C_59
   19  A    between atoms: C_31  and  C_47
   20  A    between atoms: C_32  and  C_47
                            x       y       z     vdW  Elec       q    Type
                         _______ _______ _______ _____ _____    ______ ____

>  <TORSDO>
F 20

$$$$
=
 OpenBabel11072415293D

 59 65  0  0  1  0  0  0  0  0999 V2000
  160.5730  205.1430  150.1150 O   0  0  0  0  0  0  0  0  0  0  0  0
  160.4220  204.0290  152.2800 N   0  0  0  0  0  0  0  0  0  0  0  0
  162.1310  206.7720  150.9480 C   0  0  1  0  0  3  0  0  0  0  0  0
  162.3440  205.5300  151.7710 C   0  0  0  0  0  2  0  0  0  0  0  0
  161.2720  204.6270  151.2230 C   0  0  2  0  0  0  0  0  0  0  0  0
  159.0180  203.9460  151.8680 C   0  0  0  0  0  1  0  0  0  0  0  0
  161.3380  203.1830  151.4490 C   0  0  2  0  0  3  0  0  0  0  0  0
  161.3240  206.2700  149.7390 C   0  0  2  0  0  3  0  0  0  0  0  0
  161.9390  201.1720  149.0600 C   0  0  2  0  0  3  0  0  0  0  0  0
  160.6660  202.3770  150.3220 C   0  0  1  0  0  3  0  0  0  0  0  0
  161.3540  202.5850  148.9740 C   0  0  2  0  0  0  0  0  0  0  0  0
  161.1530  201.6050  147.8310 C   0  0  2  0  0  3  0  0  0  0  0  0
  162.4270  203.4760  148.8830 O   0  0  0  0  0  1  0  0  0  0  0  0
  161.1580  200.9510  150.3510 C   0  0  0  0  0  2  0  0  0  0  0  0
  159.7280  201.0350  147.7840 C   0  0  1  0  0  3  0  0  0  0  0  0
  157.6090  201.0310  148.8970 O   0  0  0  0  0  1  0  0  0  0  0  0
  158.9450  201.4080  149.0360 C   0  0  0  0  0  2  0  0  0  0  0  0
  158.9880  201.4740  146.5190 C   0  0  0  0  0  2  0  0  0  0  0  0
  159.9010  201.5750  145.2990 C   0  0  2  0  0  3  0  0  0  0  0  0
  160.7940  200.5010  145.2730 O   0  0  0  0  0  1  0  0  0  0  0  0
  159.8770  206.4630  144.9450 O   0  0  0  0  0  1  0  0  0  0  0  0
  160.5940  205.2910  145.1520 C   0  0  0  0  0  0  0  0  0  0  0  0
  160.6400  202.8720  145.3120 C   0  0  0  0  0  0  0  0  0  0  0  0
  161.9720  205.3400  145.4020 C   0  0  0  0  0  0  0  0  0  0  0  0
  162.6850  204.1480  145.6120 C   0  0  0  0  0  0  0  0  0  0  0  0
  162.0170  202.9210  145.5700 C   0  0  0  0  0  3  0  0  0  0  0  0
  162.6260  206.5670  145.4400 O   0  0  0  0  0  1  0  0  0  0  0  0
  164.1480  204.1710  145.8840 C   0  0  0  0  0  1  0  0  0  0  0  0
  159.9320  204.0610  145.1110 C   0  0  0  0  0  3  0  0  0  0  0  0
  160.4430  207.3170  149.0700 C   0  0  0  0  0  2  0  0  0  0  0  0
  161.2160  208.1250  148.2370 O   0  0  0  0  0  1  0  0  0  0  0  0
  161.4420  207.8670  151.7830 C   0  0  0  0  0  2  0  0  0  0  0  0
  162.2950  209.1170  151.9450 C   0  0  0  0  0  2  0  0  0  0  0  0
  161.8730  210.1300  150.9920 N   0  0  0  0  0  2  0  0  0  0  0  0
  161.1240  211.2810  151.3910 C   0  0  0  0  0  0  0  0  0  0  0  0
  160.7720  211.4020  152.6410 N   0  0  0  0  0  0  0  0  0  0  0  0
  160.2400  213.3750  150.6530 O   0  0  0  0  0  0  0  0  0  0  0  0
  160.8070  212.2920  150.3540 C   0  0  0  0  0  0  0  0  0  0  0  0
  161.1730  212.0200  148.9920 N   0  0  0  0  0  2  0  0  0  0  0  0
  161.1850  212.2120  146.6230 O   0  0  0  0  0  0  0  0  0  0  0  0
  161.0170  212.9020  147.8350 C   0  0  2  0  0  0  0  0  0  0  0  0
  162.1930  213.1450  146.9690 C   0  0  0  0  0  2  0  0  0  0  0  0
  159.7840  213.8090  147.8220 C   0  0  0  0  0  2  0  0  0  0  0  0
  158.7180  213.3740  146.8690 C   0  0  0  0  0  0  0  0  0  0  0  0
  157.8910  212.4880  147.2110 O   0  0  0  0  0  1  0  0  0  0  0  0
  158.6580  213.9250  145.5970 O   0  0  0  0  0  0  0  0  0  0  0  0
  160.0260  212.5080  153.2260 C   0  0  0  0  0  2  0  0  0  0  0  0
  158.0430  210.5840  155.8600 C   0  0  0  0  0  3  0  0  0  0  0  0
  158.9150  211.9720  154.0670 C   0  0  0  0  0  0  0  0  0  0  0  0
  156.5190  211.7210  154.3680 C   0  0  0  0  0  3  0  0  0  0  0  0
  157.6030  212.2570  153.6700 C   0  0  0  0  0  3  0  0  0  0  0  0
  156.7390  210.8820  155.4600 C   0  0  0  0  0  3  0  0  0  0  0  0
  159.1470  211.1250  155.1780 C   0  0  0  0  0  0  0  0  0  0  0  0
  160.4770  210.7870  155.6190 N   0  0  0  0  0  0  0  0  0  0  0  0
  160.4600  212.4530  157.2610 O   0  0  0  0  0  1  0  0  0  0  0  0
  161.2780  211.7440  156.3800 C   0  0  0  0  0  2  0  0  0  0  0  0
  160.9870  209.4400  155.3610 C   0  0  0  0  0  2  0  0  0  0  0  0
  161.7650  208.0880  156.9190 C   0  0  0  0  0  1  0  0  0  0  0  0
  162.1280  209.1700  156.1190 O   0  0  0  0  0  0  0  0  0  0  0  0
  1  5  1  0  0  0  0
  3  4  1  0  0  0  0
  3 32  1  1  0  0  0
  5  7  1  0  0  0  0
  5  4  1  1  0  0  0
  5  2  1  0  0  0  0
  6  2  1  0  0  0  0
  7  2  1  1  0  0  0
  8 30  1  1  0  0  0
  8  1  1  0  0  0  0
  8  3  1  0  0  0  0
  9 14  1  1  0  0  0
 10 14  1  1  0  0  0
 10  7  1  0  0  0  0
 11 13  1  6  0  0  0
 11  9  1  0  0  0  0
 11 10  1  0  0  0  0
 12 15  1  1  0  0  0
 12 11  1  0  0  0  0
 12  9  1  0  0  0  0
 15 18  1  6  0  0  0
 15 17  1  0  0  0  0
 16 17  1  0  0  0  0
 19 20  1  1  0  0  0
 19 23  1  0  0  0  0
 19 18  1  0  0  0  0
 21 22  1  0  0  0  0
 22 24  1  0  0  0  0
 23 26  2  0  0  0  0
 24 27  1  0  0  0  0
 24 25  2  0  0  0  0
 25 28  1  0  0  0  0
 26 25  1  0  0  0  0
 29 22  2  0  0  0  0
 29 23  1  0  0  0  0
 31 30  1  0  0  0  0
 32 33  1  0  0  0  0
 34 35  1  0  0  0  0
 34 33  1  0  0  0  0
 35 36  2  0  0  0  0
 36 47  1  0  0  0  0
 38 37  2  0  0  0  0
 38 35  1  0  0  0  0
 39 38  1  0  0  0  0
 40 42  1  0  0  0  0
 40 41  1  0  0  0  0
 41 43  1  1  0  0  0
 41 39  1  0  0  0  0
 42 41  1  0  0  0  0
 44 45  1  0  0  0  0
 44 43  1  0  0  0  0
 46 44  2  0  0  0  0
 47 49  1  0  0  0  0
 49 53  1  0  0  0  0
 50 52  2  0  0  0  0
 51 49  2  0  0  0  0
 51 50  1  0  0  0  0
 52 48  1  0  0  0  0
 53 54  1  0  0  0  0
 53 48  2  0  0  0  0
 54 56  1  0  0  0  0
 56 55  1  0  0  0  0
 57 54  1  0  0  0  0
 57 59  1  0  0  0  0
 59 58  1  0  0  0  0
M  END
>  <MODEL>
7

>  <REMARK>
 VINA RESULT:      -1.0      2.149      5.530
  Name = 
  20 active torsions:
  status: ('A' for Active; 'I' for Inactive)
    1  A    between atoms: C_5  and  C_18
    2  A    between atoms: C_5  and  C_28
    3  A    between atoms: C_7  and  C_19
    4  A    between atoms: C_7  and  N_36
    5  A    between atoms: C_8  and  C_58
    6  A    between atoms: C_13  and  C_51
    7  A    between atoms: C_13  and  N_56
    8  A    between atoms: C_14  and  N_17
    9  A    between atoms: C_14  and  O_57
   10  A    between atoms: C_15  and  C_25
   11  A    between atoms: N_17  and  C_45
   12  A    between atoms: N_17  and  C_49
   13  A    between atoms: C_18  and  C_47
   14  A    between atoms: C_21  and  N_22
   15  A    between atoms: C_21  and  C_55
   16  A    between atoms: C_23  and  C_55
   17  A    between atoms: C_29  and  C_51
   18  A    between atoms: C_30  and  C_59
   19  A    between atoms: C_31  and  C_47
   20  A    between atoms: C_32  and  C_47
                            x       y       z     vdW  Elec       q    Type
                         _______ _______ _______ _____ _____    ______ ____

>  <TORSDO>
F 20

$$$$
=
 OpenBabel11072415293D

 59 65  0  0  1  0  0  0  0  0999 V2000
  160.8770  205.2740  146.3960 O   0  0  0  0  0  0  0  0  0  0  0  0
  161.6260  207.5900  146.5470 N   0  0  0  0  0  0  0  0  0  0  0  0
  161.9980  204.9420  144.2970 C   0  0  1  0  0  3  0  0  0  0  0  0
  162.7890  205.9920  145.0320 C   0  0  0  0  0  2  0  0  0  0  0  0
  161.9550  206.1720  146.2710 C   0  0  2  0  0  0  0  0  0  0  0  0
  160.2640  207.7440  147.0650 C   0  0  0  0  0  1  0  0  0  0  0  0
  162.5250  206.8120  147.4570 C   0  0  2  0  0  3  0  0  0  0  0  0
  161.1180  204.3200  145.3920 C   0  0  2  0  0  3  0  0  0  0  0  0
  162.2470  207.4590  150.5590 C   0  0  2  0  0  3  0  0  0  0  0  0
  161.8840  206.3120  148.7660 C   0  0  1  0  0  3  0  0  0  0  0  0
  162.8940  206.2320  149.9090 C   0  0  2  0  0  0  0  0  0  0  0  0
  162.4360  206.1770  151.3560 C   0  0  2  0  0  3  0  0  0  0  0  0
  164.2330  206.5460  149.6630 O   0  0  0  0  0  1  0  0  0  0  0  0
  161.1880  207.4540  149.4620 C   0  0  0  0  0  2  0  0  0  0  0  0
  161.1410  205.3720  151.5370 C   0  0  1  0  0  3  0  0  0  0  0  0
  161.1450  203.1690  150.6050 O   0  0  0  0  0  1  0  0  0  0  0  0
  161.4380  203.8960  151.7590 C   0  0  0  0  0  2  0  0  0  0  0  0
  160.2810  205.9390  152.6690 C   0  0  0  0  0  2  0  0  0  0  0  0
  161.1050  206.4310  153.8560 C   0  0  2  0  0  3  0  0  0  0  0  0
  160.9070  205.6000  154.9600 O   0  0  0  0  0  1  0  0  0  0  0  0
  159.9830  210.9710  152.3900 O   0  0  0  0  0  1  0  0  0  0  0  0
  160.1710  210.0730  153.4330 C   0  0  0  0  0  0  0  0  0  0  0  0
  160.7430  207.8420  154.1890 C   0  0  0  0  0  0  0  0  0  0  0  0
  159.9870  210.4820  154.7600 C   0  0  0  0  0  0  0  0  0  0  0  0
  160.1780  209.5630  155.8050 C   0  0  0  0  0  0  0  0  0  0  0  0
  160.5500  208.2480  155.5170 C   0  0  0  0  0  3  0  0  0  0  0  0
  159.6170  211.7950  155.0360 O   0  0  0  0  0  1  0  0  0  0  0  0
  159.9850  209.9690  157.2240 C   0  0  0  0  0  1  0  0  0  0  0  0
  160.5440  208.7560  153.1500 C   0  0  0  0  0  3  0  0  0  0  0  0
  159.8150  203.7010  144.9010 C   0  0  0  0  0  2  0  0  0  0  0  0
  159.4870  202.5990  145.6900 O   0  0  0  0  0  1  0  0  0  0  0  0
  161.2290  205.5660  143.1180 C   0  0  0  0  0  2  0  0  0  0  0  0
  162.1180  206.3950  142.2000 C   0  0  0  0  0  2  0  0  0  0  0  0
  161.3690  206.8010  141.0230 N   0  0  0  0  0  2  0  0  0  0  0  0
  161.5870  208.0620  140.3840 C   0  0  0  0  0  0  0  0  0  0  0  0
  162.4520  208.8900  140.9010 N   0  0  0  0  0  0  0  0  0  0  0  0
  161.0010  207.6670  138.1010 O   0  0  0  0  0  0  0  0  0  0  0  0
  160.8240  208.3480  139.1450 C   0  0  0  0  0  0  0  0  0  0  0  0
  159.8630  209.4150  139.1580 N   0  0  0  0  0  2  0  0  0  0  0  0
  159.6560  210.4340  137.0210 O   0  0  0  0  0  0  0  0  0  0  0  0
  158.9630  209.8160  138.0760 C   0  0  2  0  0  0  0  0  0  0  0  0
  158.8020  211.2600  137.7920 C   0  0  0  0  0  2  0  0  0  0  0  0
  157.9680  208.7630  137.5820 C   0  0  0  0  0  2  0  0  0  0  0  0
  156.5550  209.0190  137.9970 C   0  0  0  0  0  0  0  0  0  0  0  0
  156.3070  209.8570  138.9020 O   0  0  0  0  0  1  0  0  0  0  0  0
  155.5200  208.3100  137.4040 O   0  0  0  0  0  0  0  0  0  0  0  0
  162.8120  210.2010  140.3800 C   0  0  0  0  0  2  0  0  0  0  0  0
  161.2010  213.5360  141.3020 C   0  0  0  0  0  3  0  0  0  0  0  0
  161.9350  211.2410  140.9950 C   0  0  0  0  0  0  0  0  0  0  0  0
  160.3150  211.7890  142.7180 C   0  0  0  0  0  3  0  0  0  0  0  0
  161.1020  210.8490  142.0490 C   0  0  0  0  0  3  0  0  0  0  0  0
  160.3670  213.1320  142.3470 C   0  0  0  0  0  3  0  0  0  0  0  0
  161.9900  212.6020  140.6080 C   0  0  0  0  0  0  0  0  0  0  0  0
  162.8420  213.0620  139.5410 N   0  0  0  0  0  0  0  0  0  0  0  0
  162.2340  212.1080  137.4930 O   0  0  0  0  0  1  0  0  0  0  0  0
  162.3010  213.3070  138.2050 C   0  0  0  0  0  2  0  0  0  0  0  0
  164.2460  213.3550  139.8310 C   0  0  0  0  0  2  0  0  0  0  0  0
  165.7850  213.2700  138.2550 C   0  0  0  0  0  1  0  0  0  0  0  0
  164.8320  214.1160  138.8170 O   0  0  0  0  0  0  0  0  0  0  0  0
  2  6  1  0  0  0  0
  3 32  1  6  0  0  0
  3  4  1  0  0  0  0
  3  8  1  0  0  0  0
  5  4  1  6  0  0  0
  5  1  1  0  0  0  0
  5  2  1  0  0  0  0
  5  7  1  0  0  0  0
  7  2  1  6  0  0  0
  7 10  1  0  0  0  0
  8 30  1  6  0  0  0
  8  1  1  0  0  0  0
  9 14  1  6  0  0  0
  9 12  1  0  0  0  0
 10 14  1  1  0  0  0
 10 11  1  0  0  0  0
 11 13  1  6  0  0  0
 11  9  1  0  0  0  0
 11 12  1  0  0  0  0
 12 15  1  6  0  0  0
 15 17  1  1  0  0  0
 15 18  1  0  0  0  0
 16 17  1  0  0  0  0
 18 19  1  0  0  0  0
 19 23  1  0  0  0  0
 19 20  1  1  0  0  0
 21 22  1  0  0  0  0
 22 24  1  0  0  0  0
 23 26  2  0  0  0  0
 24 27  1  0  0  0  0
 24 25  2  0  0  0  0
 25 28  1  0  0  0  0
 26 25  1  0  0  0  0
 29 22  2  0  0  0  0
 29 23  1  0  0  0  0
 30 31  1  0  0  0  0
 33 32  1  0  0  0  0
 34 33  1  0  0  0  0
 35 36  2  0  0  0  0
 35 34  1  0  0  0  0
 37 38  2  0  0  0  0
 38 39  1  0  0  0  0
 38 35  1  0  0  0  0
 40 42  1  0  0  0  0
 40 41  1  0  0  0  0
 41 43  1  6  0  0  0
 41 39  1  0  0  0  0
 42 41  1  0  0  0  0
 43 44  1  0  0  0  0
 44 45  1  0  0  0  0
 46 44  2  0  0  0  0
 47 36  1  0  0  0  0
 47 49  1  0  0  0  0
 48 52  1  0  0  0  0
 49 51  2  0  0  0  0
 51 50  1  0  0  0  0
 52 50  2  0  0  0  0
 53 49  1  0  0  0  0
 53 48  2  0  0  0  0
 54 57  1  0  0  0  0
 54 53  1  0  0  0  0
 55 56  1  0  0  0  0
 56 54  1  0  0  0  0
 58 59  1  0  0  0  0
 59 57  1  0  0  0  0
M  END
>  <MODEL>
8

>  <REMARK>
 VINA RESULT:      -0.7      4.952     10.080
  Name = 
  20 active torsions:
  status: ('A' for Active; 'I' for Inactive)
    1  A    between atoms: C_5  and  C_18
    2  A    between atoms: C_5  and  C_28
    3  A    between atoms: C_7  and  C_19
    4  A    between atoms: C_7  and  N_36
    5  A    between atoms: C_8  and  C_58
    6  A    between atoms: C_13  and  C_51
    7  A    between atoms: C_13  and  N_56
    8  A    between atoms: C_14  and  N_17
    9  A    between atoms: C_14  and  O_57
   10  A    between atoms: C_15  and  C_25
   11  A    between atoms: N_17  and  C_45
   12  A    between atoms: N_17  and  C_49
   13  A    between atoms: C_18  and  C_47
   14  A    between atoms: C_21  and  N_22
   15  A    between atoms: C_21  and  C_55
   16  A    between atoms: C_23  and  C_55
   17  A    between atoms: C_29  and  C_51
   18  A    between atoms: C_30  and  C_59
   19  A    between atoms: C_31  and  C_47
   20  A    between atoms: C_32  and  C_47
                            x       y       z     vdW  Elec       q    Type
                         _______ _______ _______ _____ _____    ______ ____

>  <TORSDO>
F 20

$$$$
=
 OpenBabel11072415293D

 59 65  0  0  1  0  0  0  0  0999 V2000
  160.5750  209.3520  154.2290 O   0  0  0  0  0  0  0  0  0  0  0  0
  160.7730  209.0640  156.6430 N   0  0  0  0  0  0  0  0  0  0  0  0
  160.4410  206.9820  153.8550 C   0  0  1  0  0  3  0  0  0  0  0  0
  159.8730  207.2220  155.2280 C   0  0  0  0  0  2  0  0  0  0  0  0
  160.0870  208.7040  155.3800 C   0  0  2  0  0  0  0  0  0  0  0  0
  161.7220  210.1650  156.4530 C   0  0  0  0  0  1  0  0  0  0  0  0
  159.3490  209.4560  156.3950 C   0  0  2  0  0  3  0  0  0  0  0  0
  160.4520  208.3820  153.2190 C   0  0  2  0  0  3  0  0  0  0  0  0
  157.3060  211.8770  156.6800 C   0  0  2  0  0  3  0  0  0  0  0  0
  159.1180  210.9250  155.9920 C   0  0  1  0  0  3  0  0  0  0  0  0
  157.7280  211.1490  155.4000 C   0  0  2  0  0  0  0  0  0  0  0  0
  157.1240  212.5410  155.3230 C   0  0  2  0  0  3  0  0  0  0  0  0
  156.8690  210.0600  155.2360 O   0  0  0  0  0  1  0  0  0  0  0  0
  158.7290  211.7320  157.2060 C   0  0  0  0  0  2  0  0  0  0  0  0
  158.1710  213.6250  155.0270 C   0  0  1  0  0  3  0  0  0  0  0  0
  160.5190  213.3100  155.3600 O   0  0  0  0  0  1  0  0  0  0  0  0
  159.3190  213.5660  156.0240 C   0  0  0  0  0  2  0  0  0  0  0  0
  158.6830  213.5340  153.5880 C   0  0  0  0  0  2  0  0  0  0  0  0
  157.7030  214.1100  152.5690 C   0  0  2  0  0  3  0  0  0  0  0  0
  156.4630  213.4760  152.6770 O   0  0  0  0  0  1  0  0  0  0  0  0
  156.9920  213.1200  147.8220 O   0  0  0  0  0  1  0  0  0  0  0  0
  157.8620  213.4890  148.8410 C   0  0  0  0  0  0  0  0  0  0  0  0
  158.2480  213.9640  151.1860 C   0  0  0  0  0  0  0  0  0  0  0  0
  159.2100  213.7510  148.5600 C   0  0  0  0  0  0  0  0  0  0  0  0
  160.0780  214.1250  149.5980 C   0  0  0  0  0  0  0  0  0  0  0  0
  159.5950  214.2350  150.9050 C   0  0  0  0  0  3  0  0  0  0  0  0
  159.6800  213.6380  147.2550 O   0  0  0  0  0  1  0  0  0  0  0  0
  161.5130  214.4140  149.3270 C   0  0  0  0  0  1  0  0  0  0  0  0
  157.3850  213.5990  150.1490 C   0  0  0  0  0  3  0  0  0  0  0  0
  161.4970  208.5890  152.1300 C   0  0  0  0  0  2  0  0  0  0  0  0
  162.0890  209.8430  152.2740 O   0  0  0  0  0  1  0  0  0  0  0  0
  161.8160  206.2970  153.9470 C   0  0  0  0  0  2  0  0  0  0  0  0
  161.9580  205.1170  152.9950 C   0  0  0  0  0  2  0  0  0  0  0  0
  161.6510  205.5370  151.6390 N   0  0  0  0  0  2  0  0  0  0  0  0
  161.5980  204.6090  150.5520 C   0  0  0  0  0  0  0  0  0  0  0  0
  161.8790  203.3560  150.7780 N   0  0  0  0  0  0  0  0  0  0  0  0
  160.4290  204.4740  148.4710 O   0  0  0  0  0  0  0  0  0  0  0  0
  161.2020  205.1280  149.2200 C   0  0  0  0  0  0  0  0  0  0  0  0
  161.7070  206.4050  148.8000 N   0  0  0  0  0  2  0  0  0  0  0  0
  162.4370  207.9740  147.1710 O   0  0  0  0  0  0  0  0  0  0  0  0
  161.3890  207.1260  147.5670 C   0  0  2  0  0  0  0  0  0  0  0  0
  161.2490  208.5980  147.6260 C   0  0  0  0  0  2  0  0  0  0  0  0
  160.8440  206.2930  146.4030 C   0  0  0  0  0  2  0  0  0  0  0  0
  161.8960  205.5750  145.6220 C   0  0  0  0  0  0  0  0  0  0  0  0
  161.6280  205.1090  144.4840 O   0  0  0  0  0  0  0  0  0  0  0  0
  163.1610  205.3960  146.1650 O   0  0  0  0  0  1  0  0  0  0  0  0
  161.8610  202.2760  149.8020 C   0  0  0  0  0  2  0  0  0  0  0  0
  158.6790  200.9860  148.1320 C   0  0  0  0  0  3  0  0  0  0  0  0
  160.4510  201.8530  149.5510 C   0  0  0  0  0  0  0  0  0  0  0  0
  158.1530  201.8360  150.3330 C   0  0  0  0  0  3  0  0  0  0  0  0
  159.5010  202.1360  150.5390 C   0  0  0  0  0  3  0  0  0  0  0  0
  157.7420  201.2650  149.1290 C   0  0  0  0  0  3  0  0  0  0  0  0
  160.0430  201.2680  148.3270 C   0  0  0  0  0  0  0  0  0  0  0  0
  160.9770  200.9710  147.2700 N   0  0  0  0  0  0  0  0  0  0  0  0
  161.8420  199.0600  146.2350 O   0  0  0  0  0  1  0  0  0  0  0  0
  161.9030  199.8470  147.3860 C   0  0  0  0  0  2  0  0  0  0  0  0
  160.9330  201.7660  146.0420 C   0  0  0  0  0  2  0  0  0  0  0  0
  159.4470  202.5330  144.6060 C   0  0  0  0  0  1  0  0  0  0  0  0
  159.8950  201.3570  145.2030 O   0  0  0  0  0  0  0  0  0  0  0  0
  1  5  1  0  0  0  0
  3 32  1  1  0  0  0
  3  4  1  0  0  0  0
  5  4  1  6  0  0  0
  5  7  1  0  0  0  0
  5  2  1  0  0  0  0
  6  2  1  0  0  0  0
  7  2  1  1  0  0  0
  8 30  1  6  0  0  0
  8  3  1  0  0  0  0
  8  1  1  0  0  0  0
  9 14  1  1  0  0  0
 10  7  1  0  0  0  0
 10 14  1  1  0  0  0
 11 13  1  6  0  0  0
 11 10  1  0  0  0  0
 11  9  1  0  0  0  0
 12 15  1  1  0  0  0
 12 11  1  0  0  0  0
 12  9  1  0  0  0  0
 15 18  1  6  0  0  0
 15 17  1  0  0  0  0
 16 17  1  0  0  0  0
 19 20  1  6  0  0  0
 19 18  1  0  0  0  0
 21 22  1  0  0  0  0
 22 29  1  0  0  0  0
 23 19  1  0  0  0  0
 24 22  2  0  0  0  0
 24 25  1  0  0  0  0
 25 26  2  0  0  0  0
 26 23  1  0  0  0  0
 27 24  1  0  0  0  0
 28 25  1  0  0  0  0
 29 23  2  0  0  0  0
 30 31  1  0  0  0  0
 33 32  1  0  0  0  0
 34 33  1  0  0  0  0
 35 36  2  0  0  0  0
 35 34  1  0  0  0  0
 37 38  2  0  0  0  0
 38 35  1  0  0  0  0
 39 38  1  0  0  0  0
 40 41  1  0  0  0  0
 40 42  1  0  0  0  0
 41 43  1  6  0  0  0
 41 42  1  0  0  0  0
 41 39  1  0  0  0  0
 44 46  1  0  0  0  0
 44 43  1  0  0  0  0
 45 44  2  0  0  0  0
 47 36  1  0  0  0  0
 48 53  2  0  0  0  0
 48 52  1  0  0  0  0
 49 47  1  0  0  0  0
 49 51  2  0  0  0  0
 50 51  1  0  0  0  0
 52 50  2  0  0  0  0
 53 49  1  0  0  0  0
 54 56  1  0  0  0  0
 54 53  1  0  0  0  0
 55 56  1  0  0  0  0
 57 54  1  0  0  0  0
 58 59  1  0  0  0  0
 59 57  1  0  0  0  0
M  END
>  <MODEL>
9

>  <REMARK>
 VINA RESULT:      -0.5      2.475     10.687
  Name = 
  20 active torsions:
  status: ('A' for Active; 'I' for Inactive)
    1  A    between atoms: C_5  and  C_18
    2  A    between atoms: C_5  and  C_28
    3  A    between atoms: C_7  and  C_19
    4  A    between atoms: C_7  and  N_36
    5  A    between atoms: C_8  and  C_58
    6  A    between atoms: C_13  and  C_51
    7  A    between atoms: C_13  and  N_56
    8  A    between atoms: C_14  and  N_17
    9  A    between atoms: C_14  and  O_57
   10  A    between atoms: C_15  and  C_25
   11  A    between atoms: N_17  and  C_45
   12  A    between atoms: N_17  and  C_49
   13  A    between atoms: C_18  and  C_47
   14  A    between atoms: C_21  and  N_22
   15  A    between atoms: C_21  and  C_55
   16  A    between atoms: C_23  and  C_55
   17  A    between atoms: C_29  and  C_51
   18  A    between atoms: C_30  and  C_59
   19  A    between atoms: C_31  and  C_47
   20  A    between atoms: C_32  and  C_47
                            x       y       z     vdW  Elec       q    Type
                         _______ _______ _______ _____ _____    ______ ____

>  <TORSDO>
F 20

$$$$
