=
 OpenBabel11072410093D

 43 49  0  0  1  0  0  0  0  0999 V2000
  160.2370  210.4110  151.9660 C   0  0  1  0  0  3  0  0  0  0  0  0
  162.6060  211.3610  151.5350 C   0  0  0  0  0  2  0  0  0  0  0  0
  161.0920  211.6240  151.5290 C   0  0  1  0  0  3  0  0  0  0  0  0
  160.1210  206.7810  151.3010 C   0  0  0  0  0  2  0  0  0  0  0  0
  161.3120  205.8920  151.5730 C   0  0  1  0  0  3  0  0  0  0  0  0
  162.3700  209.0210  152.4000 C   0  0  2  0  0  3  0  0  0  0  0  0
  161.5150  205.9310  153.0690 C   0  0  0  0  0  2  0  0  0  0  0  0
  160.9720  209.0630  151.7810 C   0  0  1  0  0  3  0  0  0  0  0  0
  162.2370  208.2370  153.6860 C   0  0  0  0  0  2  0  0  0  0  0  0
  162.9940  210.3960  152.6510 C   0  0  0  0  0  2  0  0  0  0  0  0
  161.0420  207.3120  153.4990 C   0  0  1  0  0  3  0  0  0  0  0  0
  160.2040  207.8750  152.3490 C   0  0  2  0  0  3  0  0  0  0  0  0
  159.6320  210.6130  153.3300 C   0  0  0  0  0  0  0  0  0  0  0  0
  158.5710  211.0970  155.8800 C   0  0  0  0  0  0  0  0  0  0  0  0
  160.7950  211.1130  156.7650 F   0  0  0  0  0  0  0  0  0  0  0  0
  158.2470  210.7310  153.5100 C   0  0  0  0  0  3  0  0  0  0  0  0
  157.7170  210.9710  154.7790 C   0  0  0  0  0  0  0  0  0  0  0  0
  159.9560  210.9780  155.7060 C   0  0  0  0  0  0  0  0  0  0  0  0
  156.3770  211.0900  154.9360 F   0  0  0  0  0  0  0  0  0  0  0  0
  160.4840  210.7490  154.4330 C   0  0  0  0  0  3  0  0  0  0  0  0
  158.0460  211.3470  157.1420 O   0  0  0  0  0  1  0  0  0  0  0  0
  161.1490  204.5050  151.0350 C   0  0  0  0  0  0  0  0  0  0  0  0
  160.9040  203.3750  151.9760 C   0  0  0  0  0  1  0  0  0  0  0  0
  161.1880  204.2290  149.7260 C   0  0  0  0  0  3  0  0  0  0  0  0
  162.0770  206.2130  148.8360 O   0  0  0  0  0  0  0  0  0  0  0  0
  161.4140  205.1650  148.6020 C   0  0  0  0  0  0  0  0  0  0  0  0
  160.8460  204.9370  147.2230 C   0  0  1  0  0  3  0  0  0  0  0  0
  161.3350  205.6100  144.6430 C   0  0  2  0  0  3  0  0  0  0  0  0
  163.2000  204.3050  146.6550 O   0  0  0  0  0  1  0  0  0  0  0  0
  161.5500  204.1390  144.8290 C   0  0  0  0  0  2  0  0  0  0  0  0
  161.4640  205.8470  146.1660 C   0  0  1  0  0  0  0  0  0  0  0  0
  161.8510  204.3510  146.2860 C   0  0  1  0  0  0  0  0  0  0  0  0
  160.1840  206.1580  145.3990 C   0  0  0  0  0  2  0  0  0  0  0  0
  160.6630  212.1850  150.1660 C   0  0  1  0  0  3  0  0  0  0  0  0
  160.2540  213.5250  150.2510 O   0  0  0  0  0  0  0  0  0  0  0  0
  158.8620  213.4720  150.3530 C   0  0  0  0  0  1  0  0  0  0  0  0
  161.7030  211.9780  149.1480 N   0  0  0  0  0  0  0  0  0  0  0  0
  161.2290  210.9580  148.2270 C   0  0  0  0  0  2  0  0  0  0  0  0
  161.9360  209.6450  148.5080 C   0  0  0  0  0  1  0  0  0  0  0  0
  161.9250  213.2010  148.3820 C   0  0  0  0  0  2  0  0  0  0  0  0
  162.9430  212.9690  147.3160 C   0  0  0  0  0  0  0  0  0  0  0  0
  162.6920  213.3600  146.0070 O   0  0  0  0  0  0  0  0  0  0  0  0
  164.0200  212.3840  147.6000 O   0  0  0  0  0  1  0  0  0  0  0  0
  1 13  1  1  0  0  0
  2 10  1  0  0  0  0
  3 34  1  6  0  0  0
  3  2  1  0  0  0  0
  3  1  1  0  0  0  0
  4  5  1  0  0  0  0
  4 12  1  0  0  0  0
  5 22  1  1  0  0  0
  5  7  1  0  0  0  0
  6 10  1  1  0  0  0
  6  9  1  0  0  0  0
  7 11  1  0  0  0  0
  8  1  1  0  0  0  0
  8 12  1  0  0  0  0
  8  6  1  0  0  0  0
 11  9  1  0  0  0  0
 12 11  1  0  0  0  0
 13 16  2  0  0  0  0
 13 20  1  0  0  0  0
 14 21  1  0  0  0  0
 16 17  1  0  0  0  0
 17 19  1  0  0  0  0
 17 14  2  0  0  0  0
 18 14  1  0  0  0  0
 18 15  1  0  0  0  0
 20 18  2  0  0  0  0
 22 23  1  0  0  0  0
 24 22  2  0  0  0  0
 26 25  2  0  0  0  0
 26 24  1  0  0  0  0
 27 26  1  0  0  0  0
 28 30  1  0  0  0  0
 28 33  1  0  0  0  0
 28 31  1  0  0  0  0
 30 32  1  0  0  0  0
 31 32  1  0  0  0  0
 31 27  1  0  0  0  0
 32 29  1  0  0  0  0
 32 27  1  0  0  0  0
 33 31  1  0  0  0  0
 34 35  1  0  0  0  0
 35 36  1  0  0  0  0
 37 34  1  0  0  0  0
 38 39  1  0  0  0  0
 38 37  1  0  0  0  0
 40 37  1  0  0  0  0
 41 43  1  0  0  0  0
 41 40  1  0  0  0  0
 42 41  2  0  0  0  0
M  END
>  <MODEL>
1

>  <REMARK>
 VINA RESULT:      -2.4      0.000      0.000
  Name = 
  10 active torsions:
  status: ('A' for Active; 'I' for Inactive)
    1  A    between atoms: C_1  and  C_2
    2  A    between atoms: C_3  and  C_33
    3  A    between atoms: C_5  and  C_26
    4  A    between atoms: C_9  and  C_30
    5  A    between atoms: C_12  and  C_14
    6  A    between atoms: C_18  and  N_43
    7  A    between atoms: O_19  and  C_30
    8  A    between atoms: C_24  and  C_26
    9  A    between atoms: C_30  and  N_43
   10  A    between atoms: C_33  and  N_43
                            x       y       z     vdW  Elec       q    Type
                         _______ _______ _______ _____ _____    ______ ____

>  <TORSDO>
F 10

$$$$
=
 OpenBabel11072410093D

 43 49  0  0  1  0  0  0  0  0999 V2000
  160.5370  210.5480  151.5310 C   0  0  1  0  0  3  0  0  0  0  0  0
  162.9880  211.3300  151.2440 C   0  0  0  0  0  2  0  0  0  0  0  0
  161.4980  211.6870  151.1180 C   0  0  1  0  0  3  0  0  0  0  0  0
  160.2310  206.9100  150.9780 C   0  0  0  0  0  2  0  0  0  0  0  0
  161.3390  205.9590  151.3670 C   0  0  1  0  0  3  0  0  0  0  0  0
  162.5380  209.0440  152.1660 C   0  0  2  0  0  3  0  0  0  0  0  0
  161.4370  206.0420  152.8720 C   0  0  0  0  0  2  0  0  0  0  0  0
  161.1930  209.1510  151.4440 C   0  0  1  0  0  3  0  0  0  0  0  0
  162.2630  208.3190  153.4630 C   0  0  0  0  0  2  0  0  0  0  0  0
  163.2310  210.3860  152.4170 C   0  0  0  0  0  2  0  0  0  0  0  0
  161.0270  207.4640  153.2200 C   0  0  1  0  0  3  0  0  0  0  0  0
  160.3110  208.0360  151.9930 C   0  0  2  0  0  3  0  0  0  0  0  0
  159.8510  210.8390  152.8380 C   0  0  0  0  0  0  0  0  0  0  0  0
  158.6360  211.4910  155.2810 C   0  0  0  0  0  0  0  0  0  0  0  0
  160.8050  211.6210  156.2860 F   0  0  0  0  0  0  0  0  0  0  0  0
  158.4560  210.9400  152.9310 C   0  0  0  0  0  3  0  0  0  0  0  0
  157.8490  211.2630  154.1460 C   0  0  0  0  0  0  0  0  0  0  0  0
  160.0310  211.3890  155.1940 C   0  0  0  0  0  0  0  0  0  0  0  0
  156.5000  211.3650  154.2180 F   0  0  0  0  0  0  0  0  0  0  0  0
  160.6350  211.0760  153.9750 C   0  0  0  0  0  3  0  0  0  0  0  0
  158.0350  211.8230  156.4890 O   0  0  0  0  0  1  0  0  0  0  0  0
  161.1250  204.5660  150.8650 C   0  0  0  0  0  0  0  0  0  0  0  0
  160.8190  203.4740  151.8320 C   0  0  0  0  0  1  0  0  0  0  0  0
  161.1700  204.2520  149.5640 C   0  0  0  0  0  3  0  0  0  0  0  0
  162.1520  206.1730  148.6340 O   0  0  0  0  0  0  0  0  0  0  0  0
  161.4510  205.1460  148.4190 C   0  0  0  0  0  0  0  0  0  0  0  0
  160.8950  204.9020  147.0380 C   0  0  1  0  0  3  0  0  0  0  0  0
  161.2890  205.6960  144.4760 C   0  0  2  0  0  3  0  0  0  0  0  0
  163.2950  204.5270  146.4350 O   0  0  0  0  0  1  0  0  0  0  0  0
  161.6520  204.2490  144.6160 C   0  0  0  0  0  2  0  0  0  0  0  0
  161.4080  205.9000  146.0040 C   0  0  1  0  0  0  0  0  0  0  0  0
  161.9450  204.4480  146.0770 C   0  0  1  0  0  0  0  0  0  0  0  0
  160.0960  206.1030  145.2550 C   0  0  0  0  0  2  0  0  0  0  0  0
  161.2050  212.2230  149.7090 C   0  0  1  0  0  3  0  0  0  0  0  0
  161.3460  211.2300  148.7260 O   0  0  0  0  0  0  0  0  0  0  0  0
  162.4110  211.6570  147.9310 C   0  0  0  0  0  1  0  0  0  0  0  0
  159.8980  212.8920  149.6500 N   0  0  0  0  0  0  0  0  0  0  0  0
  159.8400  213.8550  150.7380 C   0  0  0  0  0  2  0  0  0  0  0  0
  158.3960  214.0890  151.1380 C   0  0  0  0  0  1  0  0  0  0  0  0
  159.7520  213.6270  148.3970 C   0  0  0  0  0  2  0  0  0  0  0  0
  158.7320  212.9730  147.5260 C   0  0  0  0  0  0  0  0  0  0  0  0
  159.1010  212.4170  146.3080 O   0  0  0  0  0  0  0  0  0  0  0  0
  157.5260  212.9590  147.8820 O   0  0  0  0  0  1  0  0  0  0  0  0
  1 13  1  1  0  0  0
  2 10  1  0  0  0  0
  3 34  1  6  0  0  0
  3  2  1  0  0  0  0
  3  1  1  0  0  0  0
  4  5  1  0  0  0  0
  4 12  1  0  0  0  0
  5 22  1  1  0  0  0
  5  7  1  0  0  0  0
  6 10  1  1  0  0  0
  6  9  1  0  0  0  0
  7 11  1  0  0  0  0
  8  1  1  0  0  0  0
  8 12  1  0  0  0  0
  8  6  1  0  0  0  0
 11  9  1  0  0  0  0
 12 11  1  0  0  0  0
 13 16  2  0  0  0  0
 13 20  1  0  0  0  0
 14 21  1  0  0  0  0
 16 17  1  0  0  0  0
 17 19  1  0  0  0  0
 17 14  2  0  0  0  0
 18 14  1  0  0  0  0
 18 15  1  0  0  0  0
 20 18  2  0  0  0  0
 22 23  1  0  0  0  0
 24 22  2  0  0  0  0
 26 25  2  0  0  0  0
 26 24  1  0  0  0  0
 27 26  1  0  0  0  0
 28 30  1  0  0  0  0
 28 33  1  0  0  0  0
 28 31  1  0  0  0  0
 30 32  1  0  0  0  0
 31 32  1  0  0  0  0
 31 27  1  0  0  0  0
 32 29  1  0  0  0  0
 32 27  1  0  0  0  0
 33 31  1  0  0  0  0
 35 34  1  0  0  0  0
 36 35  1  0  0  0  0
 37 34  1  0  0  0  0
 37 38  1  0  0  0  0
 38 39  1  0  0  0  0
 40 37  1  0  0  0  0
 41 43  1  0  0  0  0
 41 40  1  0  0  0  0
 42 41  2  0  0  0  0
M  END
>  <MODEL>
2

>  <REMARK>
 VINA RESULT:      -2.1      1.228      2.029
  Name = 
  10 active torsions:
  status: ('A' for Active; 'I' for Inactive)
    1  A    between atoms: C_1  and  C_2
    2  A    between atoms: C_3  and  C_33
    3  A    between atoms: C_5  and  C_26
    4  A    between atoms: C_9  and  C_30
    5  A    between atoms: C_12  and  C_14
    6  A    between atoms: C_18  and  N_43
    7  A    between atoms: O_19  and  C_30
    8  A    between atoms: C_24  and  C_26
    9  A    between atoms: C_30  and  N_43
   10  A    between atoms: C_33  and  N_43
                            x       y       z     vdW  Elec       q    Type
                         _______ _______ _______ _____ _____    ______ ____

>  <TORSDO>
F 10

$$$$
=
 OpenBabel11072410093D

 43 49  0  0  1  0  0  0  0  0999 V2000
  160.3740  209.9000  152.5940 C   0  0  1  0  0  3  0  0  0  0  0  0
  160.9650  211.3990  150.5680 C   0  0  0  0  0  2  0  0  0  0  0  0
  160.1980  211.2680  151.8920 C   0  0  1  0  0  3  0  0  0  0  0  0
  160.3560  206.3320  151.6440 C   0  0  0  0  0  2  0  0  0  0  0  0
  161.3060  205.7900  150.6020 C   0  0  1  0  0  3  0  0  0  0  0  0
  161.9950  209.1220  150.7400 C   0  0  2  0  0  3  0  0  0  0  0  0
  162.6880  205.9520  151.1880 C   0  0  0  0  0  2  0  0  0  0  0  0
  160.7890  208.7770  151.6160 C   0  0  1  0  0  3  0  0  0  0  0  0
  163.1750  208.3930  151.3420 C   0  0  0  0  0  2  0  0  0  0  0  0
  162.2760  210.6210  150.6100 C   0  0  0  0  0  2  0  0  0  0  0  0
  162.6030  207.1870  152.0730 C   0  0  1  0  0  3  0  0  0  0  0  0
  161.1160  207.4620  152.3140 C   0  0  2  0  0  3  0  0  0  0  0  0
  161.2310  210.0080  153.8260 C   0  0  0  0  0  0  0  0  0  0  0  0
  162.8420  210.0840  156.1210 C   0  0  0  0  0  0  0  0  0  0  0  0
  161.2520  208.6880  157.2410 F   0  0  0  0  0  0  0  0  0  0  0  0
  162.4350  210.7260  153.8230 C   0  0  0  0  0  3  0  0  0  0  0  0
  163.2370  210.7660  154.9650 C   0  0  0  0  0  0  0  0  0  0  0  0
  161.6380  209.3660  156.1290 C   0  0  0  0  0  0  0  0  0  0  0  0
  164.4020  211.4580  154.9450 F   0  0  0  0  0  0  0  0  0  0  0  0
  160.8430  209.3200  154.9820 C   0  0  0  0  0  3  0  0  0  0  0  0
  163.6440  210.1130  157.2550 O   0  0  0  0  0  1  0  0  0  0  0  0
  160.9980  204.3830  150.1970 C   0  0  0  0  0  0  0  0  0  0  0  0
  161.0020  203.3040  151.2250 C   0  0  0  0  0  1  0  0  0  0  0  0
  160.6870  204.0450  148.9400 C   0  0  0  0  0  3  0  0  0  0  0  0
  159.9790  206.0070  147.8590 O   0  0  0  0  0  0  0  0  0  0  0  0
  160.6150  204.9220  147.7500 C   0  0  0  0  0  0  0  0  0  0  0  0
  161.2220  204.5470  146.4210 C   0  0  1  0  0  3  0  0  0  0  0  0
  161.6100  205.5930  143.9510 C   0  0  2  0  0  3  0  0  0  0  0  0
  162.4030  206.7410  146.6490 O   0  0  0  0  0  1  0  0  0  0  0  0
  162.9300  205.4170  144.6350 C   0  0  0  0  0  2  0  0  0  0  0  0
  160.8690  205.5270  145.3070 C   0  0  1  0  0  0  0  0  0  0  0  0
  162.2650  205.5210  145.9800 C   0  0  1  0  0  0  0  0  0  0  0  0
  160.6410  204.5000  144.2040 C   0  0  0  0  0  2  0  0  0  0  0  0
  158.7220  211.6340  151.6810 C   0  0  1  0  0  3  0  0  0  0  0  0
  157.9140  211.2120  152.7490 O   0  0  0  0  0  0  0  0  0  0  0  0
  158.4190  211.8760  153.8690 C   0  0  0  0  0  1  0  0  0  0  0  0
  158.5600  213.0650  151.3850 N   0  0  0  0  0  0  0  0  0  0  0  0
  159.8870  213.6490  151.2680 C   0  0  0  0  0  2  0  0  0  0  0  0
  159.9810  214.4530  149.9840 C   0  0  0  0  0  1  0  0  0  0  0  0
  157.8770  213.2530  150.1080 C   0  0  0  0  0  2  0  0  0  0  0  0
  156.5330  213.8650  150.3230 C   0  0  0  0  0  0  0  0  0  0  0  0
  155.9870  213.9320  151.5980 O   0  0  0  0  0  1  0  0  0  0  0  0
  155.8770  214.2890  149.3370 O   0  0  0  0  0  0  0  0  0  0  0  0
  1 13  1  1  0  0  0
  2 10  1  0  0  0  0
  2  3  1  0  0  0  0
  3 34  1  6  0  0  0
  3  1  1  0  0  0  0
  4 12  1  0  0  0  0
  5 22  1  1  0  0  0
  5  7  1  0  0  0  0
  5  4  1  0  0  0  0
  6 10  1  1  0  0  0
  6  9  1  0  0  0  0
  6  8  1  0  0  0  0
  7 11  1  0  0  0  0
  8 12  1  0  0  0  0
  8  1  1  0  0  0  0
  9 11  1  0  0  0  0
 11 12  1  0  0  0  0
 13 20  1  0  0  0  0
 14 18  1  0  0  0  0
 14 21  1  0  0  0  0
 16 13  2  0  0  0  0
 16 17  1  0  0  0  0
 17 14  2  0  0  0  0
 18 15  1  0  0  0  0
 19 17  1  0  0  0  0
 20 18  2  0  0  0  0
 22 23  1  0  0  0  0
 24 22  2  0  0  0  0
 26 25  2  0  0  0  0
 26 24  1  0  0  0  0
 27 26  1  0  0  0  0
 28 33  1  0  0  0  0
 28 30  1  0  0  0  0
 28 31  1  0  0  0  0
 30 32  1  0  0  0  0
 31 32  1  0  0  0  0
 31 27  1  0  0  0  0
 32 27  1  0  0  0  0
 32 29  1  0  0  0  0
 33 31  1  0  0  0  0
 34 35  1  0  0  0  0
 35 36  1  0  0  0  0
 37 34  1  0  0  0  0
 38 37  1  0  0  0  0
 39 38  1  0  0  0  0
 40 41  1  0  0  0  0
 40 37  1  0  0  0  0
 41 42  1  0  0  0  0
 43 41  2  0  0  0  0
M  END
>  <MODEL>
3

>  <REMARK>
 VINA RESULT:      -1.6      2.475      3.620
  Name = 
  10 active torsions:
  status: ('A' for Active; 'I' for Inactive)
    1  A    between atoms: C_1  and  C_2
    2  A    between atoms: C_3  and  C_33
    3  A    between atoms: C_5  and  C_26
    4  A    between atoms: C_9  and  C_30
    5  A    between atoms: C_12  and  C_14
    6  A    between atoms: C_18  and  N_43
    7  A    between atoms: O_19  and  C_30
    8  A    between atoms: C_24  and  C_26
    9  A    between atoms: C_30  and  N_43
   10  A    between atoms: C_33  and  N_43
                            x       y       z     vdW  Elec       q    Type
                         _______ _______ _______ _____ _____    ______ ____

>  <TORSDO>
F 10

$$$$
=
 OpenBabel11072410093D

 43 49  0  0  1  0  0  0  0  0999 V2000
  160.4590  209.3740  151.6820 C   0  0  1  0  0  3  0  0  0  0  0  0
  162.2810  211.1400  151.1690 C   0  0  0  0  0  2  0  0  0  0  0  0
  160.9700  210.8180  151.9030 C   0  0  1  0  0  3  0  0  0  0  0  0
  160.0400  207.0380  148.8530 C   0  0  0  0  0  2  0  0  0  0  0  0
  161.2100  206.6330  147.9870 C   0  0  1  0  0  3  0  0  0  0  0  0
  162.5250  208.8290  150.2320 C   0  0  2  0  0  3  0  0  0  0  0  0
  162.1400  205.8640  148.8940 C   0  0  0  0  0  2  0  0  0  0  0  0
  161.0060  208.7390  150.3830 C   0  0  1  0  0  3  0  0  0  0  0  0
  163.0640  207.4590  150.5750 C   0  0  0  0  0  2  0  0  0  0  0  0
  163.1840  209.9140  151.0880 C   0  0  0  0  0  2  0  0  0  0  0  0
  161.9440  206.4730  150.2750 C   0  0  1  0  0  3  0  0  0  0  0  0
  160.6360  207.2680  150.2300 C   0  0  2  0  0  3  0  0  0  0  0  0
  160.6250  208.5260  152.9130 C   0  0  0  0  0  0  0  0  0  0  0  0
  160.8210  206.9810  155.2460 C   0  0  0  0  0  0  0  0  0  0  0  0
  160.5560  208.9740  156.5470 F   0  0  0  0  0  0  0  0  0  0  0  0
  160.8000  207.1370  152.8310 C   0  0  0  0  0  3  0  0  0  0  0  0
  160.8990  206.3670  153.9920 C   0  0  0  0  0  0  0  0  0  0  0  0
  160.6480  208.3690  155.3340 C   0  0  0  0  0  0  0  0  0  0  0  0
  161.0610  205.0250  153.8960 F   0  0  0  0  0  0  0  0  0  0  0  0
  160.5390  209.1350  154.1710 C   0  0  0  0  0  3  0  0  0  0  0  0
  160.9080  206.2150  156.4020 O   0  0  0  0  0  1  0  0  0  0  0  0
  160.8040  205.8640  146.7690 C   0  0  0  0  0  0  0  0  0  0  0  0
  159.7790  206.4320  145.8480 C   0  0  0  0  0  1  0  0  0  0  0  0
  161.3450  204.6830  146.4480 C   0  0  0  0  0  3  0  0  0  0  0  0
  163.5670  204.0030  146.7960 O   0  0  0  0  0  0  0  0  0  0  0  0
  162.3710  203.9170  147.1900 C   0  0  0  0  0  0  0  0  0  0  0  0
  162.0340  203.0130  148.3500 C   0  0  1  0  0  3  0  0  0  0  0  0
  159.9100  201.6960  149.4010 C   0  0  2  0  0  3  0  0  0  0  0  0
  161.0200  201.5670  146.5770 O   0  0  0  0  0  1  0  0  0  0  0  0
  160.9110  200.7070  148.8860 C   0  0  0  0  0  2  0  0  0  0  0  0
  160.5320  202.8160  148.5340 C   0  0  1  0  0  0  0  0  0  0  0  0
  161.4310  201.7210  147.9050 C   0  0  1  0  0  0  0  0  0  0  0  0
  160.5090  202.8830  150.0570 C   0  0  0  0  0  2  0  0  0  0  0  0
  159.9090  211.8750  151.5680 C   0  0  1  0  0  3  0  0  0  0  0  0
  159.3440  212.4410  152.7230 O   0  0  0  0  0  0  0  0  0  0  0  0
  158.2830  211.5970  153.0570 C   0  0  0  0  0  1  0  0  0  0  0  0
  160.4330  212.8900  150.6430 N   0  0  0  0  0  0  0  0  0  0  0  0
  160.2750  212.3830  149.2890 C   0  0  0  0  0  2  0  0  0  0  0  0
  161.4530  212.8190  148.4390 C   0  0  0  0  0  1  0  0  0  0  0  0
  159.6660  214.1280  150.7470 C   0  0  0  0  0  2  0  0  0  0  0  0
  158.4290  214.0440  149.9170 C   0  0  0  0  0  0  0  0  0  0  0  0
  158.4450  214.4500  148.5890 O   0  0  0  0  0  0  0  0  0  0  0  0
  157.3580  213.6370  150.4350 O   0  0  0  0  0  1  0  0  0  0  0  0
  1  3  1  0  0  0  0
  1 13  1  1  0  0  0
  2  3  1  0  0  0  0
  3 34  1  6  0  0  0
  4 12  1  0  0  0  0
  5 22  1  6  0  0  0
  5  4  1  0  0  0  0
  5  7  1  0  0  0  0
  6  8  1  0  0  0  0
  6  9  1  1  0  0  0
  6 10  1  0  0  0  0
  7 11  1  0  0  0  0
  8  1  1  0  0  0  0
 10  2  1  0  0  0  0
 11  9  1  0  0  0  0
 12 11  1  0  0  0  0
 12  8  1  0  0  0  0
 13 20  1  0  0  0  0
 14 18  1  0  0  0  0
 14 21  1  0  0  0  0
 16 13  2  0  0  0  0
 16 17  1  0  0  0  0
 17 14  2  0  0  0  0
 18 15  1  0  0  0  0
 19 17  1  0  0  0  0
 20 18  2  0  0  0  0
 23 22  1  0  0  0  0
 24 22  2  0  0  0  0
 24 26  1  0  0  0  0
 25 26  2  0  0  0  0
 26 27  1  0  0  0  0
 27 31  1  0  0  0  0
 28 33  1  0  0  0  0
 29 32  1  0  0  0  0
 30 28  1  0  0  0  0
 31 28  1  0  0  0  0
 31 33  1  0  0  0  0
 32 27  1  0  0  0  0
 32 31  1  0  0  0  0
 32 30  1  0  0  0  0
 34 35  1  0  0  0  0
 35 36  1  0  0  0  0
 37 40  1  0  0  0  0
 37 34  1  0  0  0  0
 38 37  1  0  0  0  0
 39 38  1  0  0  0  0
 41 43  1  0  0  0  0
 41 40  1  0  0  0  0
 42 41  2  0  0  0  0
M  END
>  <MODEL>
4

>  <REMARK>
 VINA RESULT:      -0.4      2.253      3.940
  Name = 
  10 active torsions:
  status: ('A' for Active; 'I' for Inactive)
    1  A    between atoms: C_1  and  C_2
    2  A    between atoms: C_3  and  C_33
    3  A    between atoms: C_5  and  C_26
    4  A    between atoms: C_9  and  C_30
    5  A    between atoms: C_12  and  C_14
    6  A    between atoms: C_18  and  N_43
    7  A    between atoms: O_19  and  C_30
    8  A    between atoms: C_24  and  C_26
    9  A    between atoms: C_30  and  N_43
   10  A    between atoms: C_33  and  N_43
                            x       y       z     vdW  Elec       q    Type
                         _______ _______ _______ _____ _____    ______ ____

>  <TORSDO>
F 10

$$$$
=
 OpenBabel11072410093D

 43 49  0  0  1  0  0  0  0  0999 V2000
  160.9910  209.1060  150.1050 C   0  0  1  0  0  3  0  0  0  0  0  0
  162.7410  207.2390  150.4990 C   0  0  0  0  0  2  0  0  0  0  0  0
  161.7320  207.8750  149.5300 C   0  0  1  0  0  3  0  0  0  0  0  0
  159.3240  210.0490  153.2620 C   0  0  0  0  0  2  0  0  0  0  0  0
  160.0620  210.0220  154.5810 C   0  0  1  0  0  3  0  0  0  0  0  0
  162.3440  208.9360  152.2990 C   0  0  2  0  0  3  0  0  0  0  0  0
  161.1380  211.0750  154.4660 C   0  0  0  0  0  2  0  0  0  0  0  0
  160.9710  209.1230  151.6510 C   0  0  1  0  0  3  0  0  0  0  0  0
  162.7830  210.3090  152.7560 C   0  0  0  0  0  2  0  0  0  0  0  0
  163.3930  208.2940  151.3870 C   0  0  0  0  0  2  0  0  0  0  0  0
  161.5090  211.1080  152.9910 C   0  0  1  0  0  3  0  0  0  0  0  0
  160.3820  210.4030  152.2320 C   0  0  2  0  0  3  0  0  0  0  0  0
  161.4580  210.3880  149.4710 C   0  0  0  0  0  0  0  0  0  0  0  0
  162.3440  212.8260  148.4030 C   0  0  0  0  0  0  0  0  0  0  0  0
  160.5550  213.9360  149.5430 F   0  0  0  0  0  0  0  0  0  0  0  0
  162.5840  210.4290  148.6370 C   0  0  0  0  0  3  0  0  0  0  0  0
  163.0260  211.6420  148.1040 C   0  0  0  0  0  0  0  0  0  0  0  0
  161.2160  212.7900  149.2340 C   0  0  0  0  0  0  0  0  0  0  0  0
  164.1210  211.6660  147.3060 F   0  0  0  0  0  0  0  0  0  0  0  0
  160.7830  211.5780  149.7740 C   0  0  0  0  0  3  0  0  0  0  0  0
  162.7880  214.0350  147.8830 O   0  0  0  0  0  1  0  0  0  0  0  0
  159.1660  210.2190  155.7620 C   0  0  0  0  0  0  0  0  0  0  0  0
  159.0740  209.1550  156.8020 C   0  0  0  0  0  1  0  0  0  0  0  0
  158.4500  211.3350  155.9470 C   0  0  0  0  0  3  0  0  0  0  0  0
  159.1070  213.5100  155.3490 O   0  0  0  0  0  0  0  0  0  0  0  0
  158.3700  212.5240  155.0700 C   0  0  0  0  0  0  0  0  0  0  0  0
  157.4190  212.6140  153.9020 C   0  0  1  0  0  3  0  0  0  0  0  0
  156.4330  214.4520  152.1700 C   0  0  2  0  0  3  0  0  0  0  0  0
  159.3310  213.7790  152.7840 O   0  0  0  0  0  1  0  0  0  0  0  0
  157.2920  213.4720  151.4300 C   0  0  0  0  0  2  0  0  0  0  0  0
  157.0890  214.0520  153.5120 C   0  0  1  0  0  0  0  0  0  0  0  0
  158.0690  213.1830  152.6840 C   0  0  1  0  0  0  0  0  0  0  0  0
  155.6030  213.8480  153.2390 C   0  0  0  0  0  2  0  0  0  0  0  0
  160.7690  206.8050  149.0000 C   0  0  1  0  0  3  0  0  0  0  0  0
  160.6540  206.8420  147.6000 O   0  0  0  0  0  0  0  0  0  0  0  0
  161.9540  207.0550  147.1380 C   0  0  0  0  0  1  0  0  0  0  0  0
  161.1220  205.4680  149.4990 N   0  0  0  0  0  0  0  0  0  0  0  0
  160.6900  205.3810  150.8850 C   0  0  0  0  0  2  0  0  0  0  0  0
  161.2170  204.1020  151.5070 C   0  0  0  0  0  1  0  0  0  0  0  0
  160.4170  204.4330  148.7480 C   0  0  0  0  0  2  0  0  0  0  0  0
  161.3900  203.4870  148.1270 C   0  0  0  0  0  0  0  0  0  0  0  0
  162.3380  203.9470  147.2230 O   0  0  0  0  0  0  0  0  0  0  0  0
  161.3250  202.2610  148.3990 O   0  0  0  0  0  1  0  0  0  0  0  0
  1 13  1  1  0  0  0
  1  8  1  0  0  0  0
  2 10  1  0  0  0  0
  3 34  1  1  0  0  0
  3  1  1  0  0  0  0
  3  2  1  0  0  0  0
  4  5  1  0  0  0  0
  5 22  1  1  0  0  0
  6 10  1  6  0  0  0
  6  9  1  0  0  0  0
  7  5  1  0  0  0  0
  8 12  1  0  0  0  0
  8  6  1  0  0  0  0
  9 11  1  0  0  0  0
 11  7  1  0  0  0  0
 12 11  1  0  0  0  0
 12  4  1  0  0  0  0
 13 20  1  0  0  0  0
 14 18  1  0  0  0  0
 16 13  2  0  0  0  0
 17 14  2  0  0  0  0
 17 16  1  0  0  0  0
 18 15  1  0  0  0  0
 18 20  2  0  0  0  0
 19 17  1  0  0  0  0
 21 14  1  0  0  0  0
 22 24  2  0  0  0  0
 22 23  1  0  0  0  0
 26 25  2  0  0  0  0
 26 24  1  0  0  0  0
 27 26  1  0  0  0  0
 28 33  1  0  0  0  0
 28 31  1  0  0  0  0
 30 28  1  0  0  0  0
 30 32  1  0  0  0  0
 31 27  1  0  0  0  0
 32 29  1  0  0  0  0
 32 31  1  0  0  0  0
 32 27  1  0  0  0  0
 33 31  1  0  0  0  0
 34 37  1  0  0  0  0
 35 34  1  0  0  0  0
 36 35  1  0  0  0  0
 37 38  1  0  0  0  0
 38 39  1  0  0  0  0
 40 37  1  0  0  0  0
 41 43  1  0  0  0  0
 41 40  1  0  0  0  0
 42 41  2  0  0  0  0
M  END
>  <MODEL>
5

>  <REMARK>
 VINA RESULT:      -0.1      2.778      8.013
  Name = 
  10 active torsions:
  status: ('A' for Active; 'I' for Inactive)
    1  A    between atoms: C_1  and  C_2
    2  A    between atoms: C_3  and  C_33
    3  A    between atoms: C_5  and  C_26
    4  A    between atoms: C_9  and  C_30
    5  A    between atoms: C_12  and  C_14
    6  A    between atoms: C_18  and  N_43
    7  A    between atoms: O_19  and  C_30
    8  A    between atoms: C_24  and  C_26
    9  A    between atoms: C_30  and  N_43
   10  A    between atoms: C_33  and  N_43
                            x       y       z     vdW  Elec       q    Type
                         _______ _______ _______ _____ _____    ______ ____

>  <TORSDO>
F 10

$$$$
=
 OpenBabel11072410093D

 43 49  0  0  1  0  0  0  0  0999 V2000
  160.8730  208.8520  150.3710 C   0  0  1  0  0  3  0  0  0  0  0  0
  162.7020  207.0200  150.3800 C   0  0  0  0  0  2  0  0  0  0  0  0
  161.5440  207.6800  149.6160 C   0  0  1  0  0  3  0  0  0  0  0  0
  159.6850  209.5590  153.7950 C   0  0  0  0  0  2  0  0  0  0  0  0
  160.6150  209.4770  154.9830 C   0  0  1  0  0  3  0  0  0  0  0  0
  162.5470  208.5970  152.3210 C   0  0  2  0  0  3  0  0  0  0  0  0
  161.6380  210.5680  154.7740 C   0  0  0  0  0  2  0  0  0  0  0  0
  161.0870  208.7780  151.9000 C   0  0  1  0  0  3  0  0  0  0  0  0
  163.0200  209.9530  152.7910 C   0  0  0  0  0  2  0  0  0  0  0  0
  163.4590  208.0410  151.2240 C   0  0  0  0  0  2  0  0  0  0  0  0
  161.7800  210.6980  153.2650 C   0  0  1  0  0  3  0  0  0  0  0  0
  160.5660  210.0040  152.6420 C   0  0  2  0  0  3  0  0  0  0  0  0
  161.2090  210.1830  149.7540 C   0  0  0  0  0  0  0  0  0  0  0  0
  161.8660  212.7060  148.7200 C   0  0  0  0  0  0  0  0  0  0  0  0
  160.1830  213.6790  150.1170 F   0  0  0  0  0  0  0  0  0  0  0  0
  162.2270  210.3140  148.7990 C   0  0  0  0  0  3  0  0  0  0  0  0
  162.5540  211.5690  148.2820 C   0  0  0  0  0  0  0  0  0  0  0  0
  160.8470  212.5800  149.6740 C   0  0  0  0  0  0  0  0  0  0  0  0
  163.5440  211.6810  147.3640 F   0  0  0  0  0  0  0  0  0  0  0  0
  160.5300  211.3250  150.1960 C   0  0  0  0  0  3  0  0  0  0  0  0
  162.1970  213.9570  148.2150 O   0  0  0  0  0  1  0  0  0  0  0  0
  159.9050  209.5780  156.2960 C   0  0  0  0  0  0  0  0  0  0  0  0
  159.7050  208.3530  157.1210 C   0  0  0  0  0  1  0  0  0  0  0  0
  159.4550  210.7400  156.7870 C   0  0  0  0  0  3  0  0  0  0  0  0
  160.4610  212.8480  156.5410 O   0  0  0  0  0  0  0  0  0  0  0  0
  159.5310  212.0820  156.1680 C   0  0  0  0  0  0  0  0  0  0  0  0
  158.5220  212.5740  155.1600 C   0  0  1  0  0  3  0  0  0  0  0  0
  155.8490  212.5230  154.7100 C   0  0  2  0  0  3  0  0  0  0  0  0
  157.3440  213.4670  157.1800 O   0  0  0  0  0  1  0  0  0  0  0  0
  156.2840  213.9270  155.0010 C   0  0  0  0  0  2  0  0  0  0  0  0
  157.1370  211.9630  155.3570 C   0  0  1  0  0  0  0  0  0  0  0  0
  157.4590  213.4170  155.7860 C   0  0  1  0  0  0  0  0  0  0  0  0
  156.8050  211.7470  153.8850 C   0  0  0  0  0  2  0  0  0  0  0  0
  160.5350  206.6130  149.1710 C   0  0  1  0  0  3  0  0  0  0  0  0
  160.2710  206.6750  147.7930 O   0  0  0  0  0  0  0  0  0  0  0  0
  161.4750  207.0790  147.2130 C   0  0  0  0  0  1  0  0  0  0  0  0
  160.9460  205.2700  149.6040 N   0  0  0  0  0  0  0  0  0  0  0  0
  160.4620  205.0720  150.9610 C   0  0  0  0  0  2  0  0  0  0  0  0
  161.2660  203.9770  151.6370 C   0  0  0  0  0  1  0  0  0  0  0  0
  160.3350  204.2460  148.7610 C   0  0  0  0  0  2  0  0  0  0  0  0
  161.3870  203.3840  148.1460 C   0  0  0  0  0  0  0  0  0  0  0  0
  161.3460  202.0050  148.3040 O   0  0  0  0  0  1  0  0  0  0  0  0
  162.3340  203.9140  147.5110 O   0  0  0  0  0  0  0  0  0  0  0  0
  1 13  1  6  0  0  0
  1  8  1  0  0  0  0
  2 10  1  0  0  0  0
  3 34  1  1  0  0  0
  3  1  1  0  0  0  0
  3  2  1  0  0  0  0
  4  5  1  0  0  0  0
  5 22  1  1  0  0  0
  6 10  1  6  0  0  0
  6  9  1  0  0  0  0
  7  5  1  0  0  0  0
  8  6  1  0  0  0  0
  8 12  1  0  0  0  0
  9 11  1  0  0  0  0
 11  7  1  0  0  0  0
 12 11  1  0  0  0  0
 12  4  1  0  0  0  0
 13 20  1  0  0  0  0
 14 18  1  0  0  0  0
 16 13  2  0  0  0  0
 17 14  2  0  0  0  0
 17 16  1  0  0  0  0
 18 15  1  0  0  0  0
 18 20  2  0  0  0  0
 19 17  1  0  0  0  0
 21 14  1  0  0  0  0
 22 24  2  0  0  0  0
 22 23  1  0  0  0  0
 26 25  2  0  0  0  0
 26 24  1  0  0  0  0
 27 31  1  0  0  0  0
 27 32  1  0  0  0  0
 27 26  1  0  0  0  0
 28 30  1  0  0  0  0
 28 31  1  0  0  0  0
 30 32  1  0  0  0  0
 31 32  1  0  0  0  0
 32 29  1  0  0  0  0
 33 28  1  0  0  0  0
 33 31  1  0  0  0  0
 34 37  1  0  0  0  0
 35 34  1  0  0  0  0
 36 35  1  0  0  0  0
 37 38  1  0  0  0  0
 38 39  1  0  0  0  0
 40 37  1  0  0  0  0
 41 42  1  0  0  0  0
 41 40  1  0  0  0  0
 43 41  2  0  0  0  0
M  END
>  <MODEL>
6

>  <REMARK>
 VINA RESULT:       0.1      2.683      8.258
  Name = 
  10 active torsions:
  status: ('A' for Active; 'I' for Inactive)
    1  A    between atoms: C_1  and  C_2
    2  A    between atoms: C_3  and  C_33
    3  A    between atoms: C_5  and  C_26
    4  A    between atoms: C_9  and  C_30
    5  A    between atoms: C_12  and  C_14
    6  A    between atoms: C_18  and  N_43
    7  A    between atoms: O_19  and  C_30
    8  A    between atoms: C_24  and  C_26
    9  A    between atoms: C_30  and  N_43
   10  A    between atoms: C_33  and  N_43
                            x       y       z     vdW  Elec       q    Type
                         _______ _______ _______ _____ _____    ______ ____

>  <TORSDO>
F 10

$$$$
=
 OpenBabel11072410093D

 43 49  0  0  1  0  0  0  0  0999 V2000
  160.8540  209.4030  149.7450 C   0  0  1  0  0  3  0  0  0  0  0  0
  162.5800  207.7490  150.7400 C   0  0  0  0  0  2  0  0  0  0  0  0
  161.7120  208.1330  149.5310 C   0  0  1  0  0  3  0  0  0  0  0  0
  158.6970  210.8180  152.3870 C   0  0  0  0  0  2  0  0  0  0  0  0
  159.2240  211.0800  153.7780 C   0  0  1  0  0  3  0  0  0  0  0  0
  161.8610  209.7250  152.1020 C   0  0  2  0  0  3  0  0  0  0  0  0
  160.2730  212.1550  153.6190 C   0  0  0  0  0  2  0  0  0  0  0  0
  160.5970  209.7060  151.2390 C   0  0  1  0  0  3  0  0  0  0  0  0
  162.1830  211.1820  152.3440 C   0  0  0  0  0  2  0  0  0  0  0  0
  163.0560  208.9860  151.4930 C   0  0  0  0  0  2  0  0  0  0  0  0
  160.8640  211.9340  152.2340 C   0  0  1  0  0  3  0  0  0  0  0  0
  159.8880  211.0350  151.4710 C   0  0  2  0  0  3  0  0  0  0  0  0
  161.3730  210.5700  148.9490 C   0  0  0  0  0  0  0  0  0  0  0  0
  162.2650  212.8200  147.5330 C   0  0  0  0  0  0  0  0  0  0  0  0
  160.0110  213.2380  146.8440 F   0  0  0  0  0  0  0  0  0  0  0  0
  162.7310  210.9170  148.9530 C   0  0  0  0  0  3  0  0  0  0  0  0
  163.1770  212.0370  148.2480 C   0  0  0  0  0  0  0  0  0  0  0  0
  160.9070  212.4760  147.5230 C   0  0  0  0  0  0  0  0  0  0  0  0
  164.4920  212.3640  148.2680 F   0  0  0  0  0  0  0  0  0  0  0  0
  160.4630  211.3620  148.2390 C   0  0  0  0  0  3  0  0  0  0  0  0
  162.7050  213.9410  146.8390 O   0  0  0  0  0  1  0  0  0  0  0  0
  158.1530  211.4410  154.7570 C   0  0  0  0  0  0  0  0  0  0  0  0
  156.8160  211.8740  154.2590 C   0  0  0  0  0  1  0  0  0  0  0  0
  158.3310  211.3680  156.0820 C   0  0  0  0  0  3  0  0  0  0  0  0
  160.2960  211.8880  157.2580 O   0  0  0  0  0  0  0  0  0  0  0  0
  159.5510  210.9700  156.8180 C   0  0  0  0  0  0  0  0  0  0  0  0
  159.9530  209.5290  157.0130 C   0  0  1  0  0  3  0  0  0  0  0  0
  160.8700  207.4200  155.5760 C   0  0  2  0  0  3  0  0  0  0  0  0
  162.0220  210.2230  155.7880 O   0  0  0  0  0  1  0  0  0  0  0  0
  161.9280  207.8740  156.5350 C   0  0  0  0  0  2  0  0  0  0  0  0
  160.1410  208.7790  155.6970 C   0  0  1  0  0  0  0  0  0  0  0  0
  161.3460  209.2600  156.5450 C   0  0  1  0  0  0  0  0  0  0  0  0
  159.4930  207.4670  156.1220 C   0  0  0  0  0  2  0  0  0  0  0  0
  160.8740  206.9270  149.0840 C   0  0  1  0  0  3  0  0  0  0  0  0
  160.8390  206.7950  147.6860 O   0  0  0  0  0  0  0  0  0  0  0  0
  162.1480  207.0410  147.2680 C   0  0  0  0  0  1  0  0  0  0  0  0
  161.3080  205.6920  149.7540 N   0  0  0  0  0  0  0  0  0  0  0  0
  161.1770  205.8930  151.1880 C   0  0  0  0  0  2  0  0  0  0  0  0
  161.1930  204.5520  151.8970 C   0  0  0  0  0  1  0  0  0  0  0  0
  160.4470  204.5730  149.3810 C   0  0  0  0  0  2  0  0  0  0  0  0
  161.2090  203.5770  148.5740 C   0  0  0  0  0  0  0  0  0  0  0  0
  162.3280  203.9670  147.8500 O   0  0  0  0  0  0  0  0  0  0  0  0
  160.8130  202.3840  148.5210 O   0  0  0  0  0  1  0  0  0  0  0  0
  1 13  1  1  0  0  0
  1  8  1  0  0  0  0
  2 10  1  0  0  0  0
  3 34  1  1  0  0  0
  3  1  1  0  0  0  0
  3  2  1  0  0  0  0
  4  5  1  0  0  0  0
  5 22  1  1  0  0  0
  6 10  1  6  0  0  0
  6  9  1  0  0  0  0
  7  5  1  0  0  0  0
  8 12  1  0  0  0  0
  8  6  1  0  0  0  0
 11  9  1  0  0  0  0
 11  7  1  0  0  0  0
 12 11  1  0  0  0  0
 12  4  1  0  0  0  0
 13 16  1  0  0  0  0
 14 17  1  0  0  0  0
 15 18  1  0  0  0  0
 17 19  1  0  0  0  0
 17 16  2  0  0  0  0
 18 14  2  0  0  0  0
 18 20  1  0  0  0  0
 20 13  2  0  0  0  0
 21 14  1  0  0  0  0
 22 24  2  0  0  0  0
 23 22  1  0  0  0  0
 24 26  1  0  0  0  0
 26 27  1  0  0  0  0
 26 25  2  0  0  0  0
 28 31  1  0  0  0  0
 28 33  1  0  0  0  0
 28 30  1  0  0  0  0
 29 32  1  0  0  0  0
 30 32  1  0  0  0  0
 31 33  1  0  0  0  0
 31 32  1  0  0  0  0
 31 27  1  0  0  0  0
 32 27  1  0  0  0  0
 34 37  1  0  0  0  0
 35 34  1  0  0  0  0
 36 35  1  0  0  0  0
 37 38  1  0  0  0  0
 38 39  1  0  0  0  0
 40 37  1  0  0  0  0
 41 40  1  0  0  0  0
 42 41  2  0  0  0  0
 43 41  1  0  0  0  0
M  END
>  <MODEL>
7

>  <REMARK>
 VINA RESULT:       0.3      2.818      8.109
  Name = 
  10 active torsions:
  status: ('A' for Active; 'I' for Inactive)
    1  A    between atoms: C_1  and  C_2
    2  A    between atoms: C_3  and  C_33
    3  A    between atoms: C_5  and  C_26
    4  A    between atoms: C_9  and  C_30
    5  A    between atoms: C_12  and  C_14
    6  A    between atoms: C_18  and  N_43
    7  A    between atoms: O_19  and  C_30
    8  A    between atoms: C_24  and  C_26
    9  A    between atoms: C_30  and  N_43
   10  A    between atoms: C_33  and  N_43
                            x       y       z     vdW  Elec       q    Type
                         _______ _______ _______ _____ _____    ______ ____

>  <TORSDO>
F 10

$$$$
=
 OpenBabel11072410093D

 43 49  0  0  1  0  0  0  0  0999 V2000
  159.8880  210.2130  152.6000 C   0  0  1  0  0  3  0  0  0  0  0  0
  160.7330  212.4920  151.7090 C   0  0  0  0  0  2  0  0  0  0  0  0
  159.7560  211.7540  152.6370 C   0  0  1  0  0  3  0  0  0  0  0  0
  160.2450  207.5730  150.0420 C   0  0  0  0  0  2  0  0  0  0  0  0
  161.3920  207.5800  149.0590 C   0  0  1  0  0  3  0  0  0  0  0  0
  161.8490  210.3890  150.9280 C   0  0  2  0  0  3  0  0  0  0  0  0
  162.6390  207.3860  149.8870 C   0  0  0  0  0  2  0  0  0  0  0  0
  160.5320  209.7000  151.2910 C   0  0  1  0  0  3  0  0  0  0  0  0
  162.9480  209.4190  151.2980 C   0  0  0  0  0  2  0  0  0  0  0  0
  162.0600  211.7480  151.6000 C   0  0  0  0  0  2  0  0  0  0  0  0
  162.3300  208.0290  151.2310 C   0  0  1  0  0  3  0  0  0  0  0  0
  160.8100  208.2010  151.3040 C   0  0  2  0  0  3  0  0  0  0  0  0
  160.5110  209.6720  153.8590 C   0  0  0  0  0  0  0  0  0  0  0  0
  161.7180  208.5700  156.1370 C   0  0  0  0  0  0  0  0  0  0  0  0
  160.4340  206.5760  155.8110 F   0  0  0  0  0  0  0  0  0  0  0  0
  161.4620  210.4050  154.5810 C   0  0  0  0  0  3  0  0  0  0  0  0
  162.0630  209.8580  155.7170 C   0  0  0  0  0  0  0  0  0  0  0  0
  160.7660  207.8330  155.4200 C   0  0  0  0  0  0  0  0  0  0  0  0
  162.9870  210.5760  156.4010 F   0  0  0  0  0  0  0  0  0  0  0  0
  160.1750  208.3790  154.2790 C   0  0  0  0  0  3  0  0  0  0  0  0
  162.3230  208.0190  157.2610 O   0  0  0  0  0  1  0  0  0  0  0  0
  161.2420  206.5640  147.9710 C   0  0  0  0  0  0  0  0  0  0  0  0
  161.3810  206.9850  146.5470 C   0  0  0  0  0  1  0  0  0  0  0  0
  161.0100  205.2690  148.2180 C   0  0  0  0  0  3  0  0  0  0  0  0
  160.2120  205.2410  150.4270 O   0  0  0  0  0  0  0  0  0  0  0  0
  160.8350  204.6080  149.5310 C   0  0  0  0  0  0  0  0  0  0  0  0
  161.4080  203.2480  149.8420 C   0  0  1  0  0  3  0  0  0  0  0  0
  160.6240  200.6590  150.0150 C   0  0  2  0  0  3  0  0  0  0  0  0
  160.3070  202.5920  147.6930 O   0  0  0  0  0  1  0  0  0  0  0  0
  161.5680  200.8230  148.8630 C   0  0  0  0  0  2  0  0  0  0  0  0
  160.3360  202.1790  150.0290 C   0  0  1  0  0  0  0  0  0  0  0  0
  161.1840  202.2710  148.7350 C   0  0  1  0  0  0  0  0  0  0  0  0
  160.9770  201.4600  151.2110 C   0  0  0  0  0  2  0  0  0  0  0  0
  158.3200  212.2270  152.3700 C   0  0  1  0  0  3  0  0  0  0  0  0
  157.6540  212.5890  153.5520 O   0  0  0  0  0  0  0  0  0  0  0  0
  157.0860  211.4050  154.0240 C   0  0  0  0  0  1  0  0  0  0  0  0
  158.2850  213.2910  151.3560 N   0  0  0  0  0  0  0  0  0  0  0  0
  157.6020  212.7660  150.1840 C   0  0  0  0  0  2  0  0  0  0  0  0
  157.9680  213.5930  148.9660 C   0  0  0  0  0  1  0  0  0  0  0  0
  157.5210  214.4380  151.8390 C   0  0  0  0  0  2  0  0  0  0  0  0
  156.0630  214.2310  151.5990 C   0  0  0  0  0  0  0  0  0  0  0  0
  155.5590  214.2210  150.3050 O   0  0  0  0  0  0  0  0  0  0  0  0
  155.2830  214.1010  152.5760 O   0  0  0  0  0  1  0  0  0  0  0  0
  1  3  1  0  0  0  0
  1 13  1  1  0  0  0
  2  3  1  0  0  0  0
  3 34  1  6  0  0  0
  4 12  1  0  0  0  0
  5 22  1  6  0  0  0
  5  7  1  0  0  0  0
  5  4  1  0  0  0  0
  6  8  1  0  0  0  0
  6  9  1  1  0  0  0
  6 10  1  0  0  0  0
  7 11  1  0  0  0  0
  8 12  1  0  0  0  0
  8  1  1  0  0  0  0
 10  2  1  0  0  0  0
 11  9  1  0  0  0  0
 11 12  1  0  0  0  0
 13 20  2  0  0  0  0
 13 16  1  0  0  0  0
 14 21  1  0  0  0  0
 16 17  2  0  0  0  0
 17 14  1  0  0  0  0
 17 19  1  0  0  0  0
 18 15  1  0  0  0  0
 18 14  2  0  0  0  0
 20 18  1  0  0  0  0
 22 24  2  0  0  0  0
 23 22  1  0  0  0  0
 24 26  1  0  0  0  0
 26 27  1  0  0  0  0
 26 25  2  0  0  0  0
 27 31  1  0  0  0  0
 28 31  1  0  0  0  0
 28 33  1  0  0  0  0
 29 32  1  0  0  0  0
 30 28  1  0  0  0  0
 31 33  1  0  0  0  0
 32 30  1  0  0  0  0
 32 27  1  0  0  0  0
 32 31  1  0  0  0  0
 34 35  1  0  0  0  0
 35 36  1  0  0  0  0
 37 40  1  0  0  0  0
 37 34  1  0  0  0  0
 38 37  1  0  0  0  0
 39 38  1  0  0  0  0
 41 40  1  0  0  0  0
 41 43  1  0  0  0  0
 42 41  2  0  0  0  0
M  END
>  <MODEL>
8

>  <REMARK>
 VINA RESULT:       0.4      3.011      4.539
  Name = 
  10 active torsions:
  status: ('A' for Active; 'I' for Inactive)
    1  A    between atoms: C_1  and  C_2
    2  A    between atoms: C_3  and  C_33
    3  A    between atoms: C_5  and  C_26
    4  A    between atoms: C_9  and  C_30
    5  A    between atoms: C_12  and  C_14
    6  A    between atoms: C_18  and  N_43
    7  A    between atoms: O_19  and  C_30
    8  A    between atoms: C_24  and  C_26
    9  A    between atoms: C_30  and  N_43
   10  A    between atoms: C_33  and  N_43
                            x       y       z     vdW  Elec       q    Type
                         _______ _______ _______ _____ _____    ______ ____

>  <TORSDO>
F 10

$$$$
