=
 OpenBabel11072411443D

 49 55  0  0  1  0  0  0  0  0999 V2000
  156.9990  211.0880  155.5940 C   0  0  0  0  0  2  0  0  0  0  0  0
  161.7640  209.4890  155.6600 C   0  0  0  0  0  3  0  0  0  0  0  0
  158.0800  212.4650  153.6390 C   0  0  1  0  0  3  0  0  0  0  0  0
  158.0400  213.8230  152.9200 C   0  0  0  0  0  2  0  0  0  0  0  0
  161.9020  210.9070  152.6750 C   0  0  2  0  0  3  0  0  0  0  0  0
  156.9870  212.2870  154.6780 C   0  0  0  0  0  0  0  0  0  0  0  0
  160.1880  211.3140  155.5390 C   0  0  0  0  0  3  0  0  0  0  0  0
  157.9850  211.1990  156.7670 C   0  0  2  0  0  3  0  0  0  0  0  0
  162.4320  209.3210  149.5580 S   0  0  0  0  0  0  0  0  0  0  0  0
  161.3900  210.7320  155.1410 C   0  0  0  0  0  0  0  0  0  0  0  0
  158.0780  212.5080  157.2600 O   0  0  0  0  0  1  0  0  0  0  0  0
  160.9290  208.8240  156.5680 C   0  0  0  0  0  0  0  0  0  0  0  0
  160.4870  211.2940  150.6880 O   0  0  0  0  0  0  0  0  0  0  0  0
  160.5300  211.3790  152.0990 C   0  0  1  0  0  3  0  0  0  0  0  0
  155.9430  213.1290  154.7560 C   0  0  0  0  0  3  0  0  0  0  0  0
  161.6620  208.8570  151.1640 C   0  0  2  0  0  3  0  0  0  0  0  0
  162.3130  209.4540  152.4120 C   0  0  0  0  0  2  0  0  0  0  0  0
  159.7100  209.3980  156.9370 C   0  0  0  0  0  3  0  0  0  0  0  0
  155.8450  214.3790  153.9220 C   0  0  0  0  0  2  0  0  0  0  0  0
  158.0640  211.3310  152.6210 C   0  0  0  0  0  2  0  0  0  0  0  0
  161.7860  211.8080  148.7190 C   0  0  0  0  0  2  0  0  0  0  0  0
  159.3740  210.5630  152.6770 C   0  0  0  0  0  2  0  0  0  0  0  0
  161.5620  212.0480  150.1900 C   0  0  2  0  0  3  0  0  0  0  0  0
  162.7090  211.1370  149.7290 C   0  0  1  0  0  3  0  0  0  0  0  0
  159.3340  210.6470  156.4310 C   0  0  0  0  0  0  0  0  0  0  0  0
  156.6040  214.2260  152.6060 C   0  0  0  0  0  2  0  0  0  0  0  0
  162.2230  211.3960  154.0940 C   0  0  0  0  0  2  0  0  0  0  0  0
  160.1170  207.2570  149.4590 O   0  0  0  0  0  0  0  0  0  0  0  0
  160.6770  206.6660  150.4280 C   0  0  0  0  0  0  0  0  0  0  0  0
  161.5750  207.3990  151.2910 N   0  0  0  0  0  0  0  0  0  0  0  0
  160.4650  205.1790  150.5990 C   0  0  1  0  0  3  0  0  0  0  0  0
  159.7580  204.5990  149.3860 C   0  0  0  0  0  2  0  0  0  0  0  0
  161.2170  204.2620  149.6110 C   0  0  1  0  0  3  0  0  0  0  0  0
  160.5660  205.3600  146.7460 C   0  0  2  0  0  3  0  0  0  0  0  0
  160.2870  206.2240  145.6810 O   0  0  0  0  0  1  0  0  0  0  0  0
  162.0940  204.9710  148.5700 C   0  0  2  0  0  3  0  0  0  0  0  0
  162.1980  207.0090  147.3580 O   0  0  0  0  0  1  0  0  0  0  0  0
  161.3030  206.0690  147.8740 C   0  0  1  0  0  3  0  0  0  0  0  0
  162.4560  203.9780  147.4740 C   0  0  0  0  0  2  0  0  0  0  0  0
  161.4330  204.1600  146.3510 C   0  0  2  0  0  3  0  0  0  0  0  0
  161.3950  204.6750  143.8890 O   0  0  0  0  0  0  0  0  0  0  0  0
  163.3440  204.0490  144.9300 O   0  0  0  0  0  1  0  0  0  0  0  0
  162.1130  204.3020  145.0210 C   0  0  0  0  0  0  0  0  0  0  0  0
  162.5130  206.6940  152.1670 C   0  0  0  0  0  2  0  0  0  0  0  0
  161.2170  205.4470  154.0790 N   0  0  0  0  0  0  0  0  0  0  0  0
  161.7890  205.9960  153.2370 C   0  0  0  0  0  0  0  0  0  0  0  0
  161.3190  207.4860  157.0980 C   0  0  0  0  0  2  0  0  0  0  0  0
  159.3840  206.9830  156.1190 C   0  0  0  0  0  1  0  0  0  0  0  0
  160.1800  206.6800  157.2320 O   0  0  0  0  0  0  0  0  0  0  0  0
  1  8  1  0  0  0  0
  2 12  1  0  0  0  0
  3 20  1  6  0  0  0
  3  6  1  0  0  0  0
  4  3  1  0  0  0  0
  5 17  1  1  0  0  0
  5 27  1  0  0  0  0
  6 15  2  0  0  0  0
  6  1  1  0  0  0  0
  7 25  2  0  0  0  0
  8 11  1  6  0  0  0
  9 24  1  0  0  0  0
  9 16  1  0  0  0  0
 10  7  1  0  0  0  0
 10  2  2  0  0  0  0
 12 18  2  0  0  0  0
 12 47  1  0  0  0  0
 13 14  1  0  0  0  0
 14  5  1  0  0  0  0
 14 22  1  1  0  0  0
 16 30  1  1  0  0  0
 16 17  1  0  0  0  0
 19 15  1  0  0  0  0
 20 22  1  0  0  0  0
 23 21  1  6  0  0  0
 23 13  1  0  0  0  0
 24 21  1  6  0  0  0
 24 23  1  0  0  0  0
 25  8  1  0  0  0  0
 25 18  1  0  0  0  0
 26  4  1  0  0  0  0
 26 19  1  0  0  0  0
 27 10  1  0  0  0  0
 28 29  2  0  0  0  0
 29 30  1  0  0  0  0
 30 44  1  0  0  0  0
 31 29  1  6  0  0  0
 32 31  1  0  0  0  0
 33 32  1  6  0  0  0
 33 31  1  0  0  0  0
 34 35  1  6  0  0  0
 34 38  1  0  0  0  0
 36 39  1  6  0  0  0
 36 33  1  0  0  0  0
 38 37  1  6  0  0  0
 38 36  1  0  0  0  0
 40 43  1  6  0  0  0
 40 34  1  0  0  0  0
 40 39  1  0  0  0  0
 41 43  2  0  0  0  0
 42 43  1  0  0  0  0
 44 46  1  0  0  0  0
 46 45  3  0  0  0  0
 47 49  1  0  0  0  0
 48 49  1  0  0  0  0
M  END
>  <MODEL>
1

>  <REMARK>
 VINA RESULT:      -1.9      0.000      0.000
  Name = 
  8 active torsions:
  status: ('A' for Active; 'I' for Inactive)
    1  A    between atoms: C_6  and  O_23
    2  A    between atoms: C_6  and  C_24
    3  A    between atoms: C_13  and  C_19
    4  A    between atoms: C_16  and  C_47
    5  A    between atoms: C_27  and  C_34
    6  A    between atoms: C_30  and  N_37
    7  A    between atoms: C_34  and  N_37
    8  A    between atoms: C_38  and  C_46
                            x       y       z     vdW  Elec       q    Type
                         _______ _______ _______ _____ _____    ______ ____

>  <TORSDO>
F 8

$$$$
=
 OpenBabel11072411443D

 49 55  0  0  1  0  0  0  0  0999 V2000
  160.3710  206.0460  148.7990 C   0  0  0  0  0  2  0  0  0  0  0  0
  162.2740  210.3260  150.6230 C   0  0  0  0  0  3  0  0  0  0  0  0
  161.1360  205.3390  151.2080 C   0  0  1  0  0  3  0  0  0  0  0  0
  161.7140  204.1710  152.0240 C   0  0  0  0  0  2  0  0  0  0  0  0
  162.0520  208.7640  153.5290 C   0  0  2  0  0  3  0  0  0  0  0  0
  160.7780  204.9720  149.7780 C   0  0  0  0  0  0  0  0  0  0  0  0
  162.4660  207.9420  150.2960 C   0  0  0  0  0  3  0  0  0  0  0  0
  161.5450  206.8470  148.2150 C   0  0  2  0  0  3  0  0  0  0  0  0
  160.0160  209.6270  156.2900 S   0  0  0  0  0  0  0  0  0  0  0  0
  162.6530  209.0670  151.0960 C   0  0  0  0  0  0  0  0  0  0  0  0
  162.6810  206.0510  148.0110 O   0  0  0  0  0  1  0  0  0  0  0  0
  161.6970  210.4570  149.3530 C   0  0  0  0  0  0  0  0  0  0  0  0
  160.6040  207.1520  154.7140 O   0  0  0  0  0  0  0  0  0  0  0  0
  161.2790  207.4090  153.4990 C   0  0  1  0  0  3  0  0  0  0  0  0
  160.7280  203.6940  149.3680 C   0  0  0  0  0  3  0  0  0  0  0  0
  159.9050  209.7970  154.4610 C   0  0  2  0  0  3  0  0  0  0  0  0
  161.2280  210.0410  153.7330 C   0  0  0  0  0  2  0  0  0  0  0  0
  161.4810  209.3200  148.5680 C   0  0  0  0  0  3  0  0  0  0  0  0
  161.1510  202.5440  150.2440 C   0  0  0  0  0  2  0  0  0  0  0  0
  159.9440  205.9480  151.9360 C   0  0  0  0  0  2  0  0  0  0  0  0
  160.9220  207.2160  157.1070 C   0  0  0  0  0  2  0  0  0  0  0  0
  160.2640  207.3730  152.3560 C   0  0  0  0  0  2  0  0  0  0  0  0
  161.5610  207.1970  155.7430 C   0  0  2  0  0  3  0  0  0  0  0  0
  161.4690  208.5140  156.5260 C   0  0  1  0  0  3  0  0  0  0  0  0
  161.8690  208.0580  149.0310 C   0  0  0  0  0  0  0  0  0  0  0  0
  160.9650  202.8780  151.7220 C   0  0  0  0  0  2  0  0  0  0  0  0
  163.1700  208.9070  152.4880 C   0  0  0  0  0  2  0  0  0  0  0  0
  160.3650  212.5360  154.8420 O   0  0  0  0  0  0  0  0  0  0  0  0
  159.2160  212.2140  154.4200 C   0  0  0  0  0  0  0  0  0  0  0  0
  158.9340  210.8330  154.0980 N   0  0  0  0  0  0  0  0  0  0  0  0
  158.1960  213.3010  154.1730 C   0  0  1  0  0  3  0  0  0  0  0  0
  158.8220  214.4530  153.4060 C   0  0  0  0  0  2  0  0  0  0  0  0
  157.8200  213.5640  152.6990 C   0  0  1  0  0  3  0  0  0  0  0  0
  159.7700  214.2900  150.3520 C   0  0  2  0  0  3  0  0  0  0  0  0
  160.9270  214.4530  149.5830 O   0  0  0  0  0  1  0  0  0  0  0  0
  158.5270  212.6870  151.6580 C   0  0  2  0  0  3  0  0  0  0  0  0
  160.7150  212.1550  150.9060 O   0  0  0  0  0  1  0  0  0  0  0  0
  159.9360  213.2020  151.4050 C   0  0  1  0  0  3  0  0  0  0  0  0
  157.8030  212.8250  150.3260 C   0  0  0  0  0  2  0  0  0  0  0  0
  158.5360  213.9070  149.5280 C   0  0  2  0  0  3  0  0  0  0  0  0
  158.3100  212.2450  147.6540 O   0  0  0  0  0  1  0  0  0  0  0  0
  159.6260  214.1120  147.4180 O   0  0  0  0  0  0  0  0  0  0  0  0
  158.8450  213.4340  148.1390 C   0  0  0  0  0  0  0  0  0  0  0  0
  157.7770  210.4790  153.2720 C   0  0  0  0  0  2  0  0  0  0  0  0
  155.5640  210.6620  154.6720 N   0  0  0  0  0  0  0  0  0  0  0  0
  156.5390  210.5810  154.0550 C   0  0  0  0  0  0  0  0  0  0  0  0
  161.2680  211.7990  148.8620 C   0  0  0  0  0  2  0  0  0  0  0  0
  163.1590  212.4200  147.8640 C   0  0  0  0  0  1  0  0  0  0  0  0
  161.8340  212.0440  147.6030 O   0  0  0  0  0  0  0  0  0  0  0  0
  1  6  1  0  0  0  0
  2 10  1  0  0  0  0
  3 20  1  1  0  0  0
  3  4  1  0  0  0  0
  5 27  1  6  0  0  0
  5 17  1  0  0  0  0
  6  3  1  0  0  0  0
  7 10  2  0  0  0  0
  8 11  1  1  0  0  0
  8  1  1  0  0  0  0
  8 25  1  0  0  0  0
  9 24  1  0  0  0  0
 10 27  1  0  0  0  0
 12  2  2  0  0  0  0
 13 23  1  0  0  0  0
 14 22  1  6  0  0  0
 14  5  1  0  0  0  0
 14 13  1  0  0  0  0
 15  6  2  0  0  0  0
 15 19  1  0  0  0  0
 16 30  1  1  0  0  0
 16  9  1  0  0  0  0
 17 16  1  0  0  0  0
 18 25  2  0  0  0  0
 18 12  1  0  0  0  0
 19 26  1  0  0  0  0
 20 22  1  0  0  0  0
 23 24  1  0  0  0  0
 23 21  1  1  0  0  0
 24 21  1  1  0  0  0
 25  7  1  0  0  0  0
 26  4  1  0  0  0  0
 29 28  2  0  0  0  0
 30 29  1  0  0  0  0
 31 29  1  6  0  0  0
 32 31  1  0  0  0  0
 33 32  1  6  0  0  0
 33 31  1  0  0  0  0
 34 35  1  6  0  0  0
 34 38  1  0  0  0  0
 36 39  1  6  0  0  0
 36 33  1  0  0  0  0
 38 37  1  6  0  0  0
 38 36  1  0  0  0  0
 40 43  1  6  0  0  0
 40 39  1  0  0  0  0
 40 34  1  0  0  0  0
 41 43  1  0  0  0  0
 42 43  2  0  0  0  0
 44 46  1  0  0  0  0
 44 30  1  0  0  0  0
 46 45  3  0  0  0  0
 47 12  1  0  0  0  0
 49 48  1  0  0  0  0
 49 47  1  0  0  0  0
M  END
>  <MODEL>
2

>  <REMARK>
 VINA RESULT:       0.1      2.594      8.502
  Name = 
  8 active torsions:
  status: ('A' for Active; 'I' for Inactive)
    1  A    between atoms: C_6  and  O_23
    2  A    between atoms: C_6  and  C_24
    3  A    between atoms: C_13  and  C_19
    4  A    between atoms: C_16  and  C_47
    5  A    between atoms: C_27  and  C_34
    6  A    between atoms: C_30  and  N_37
    7  A    between atoms: C_34  and  N_37
    8  A    between atoms: C_38  and  C_46
                            x       y       z     vdW  Elec       q    Type
                         _______ _______ _______ _____ _____    ______ ____

>  <TORSDO>
F 8

$$$$
