=
 OpenBabel11072409563D

 48 53  0  0  1  0  0  0  0  0999 V2000
  162.0540  209.5130  150.2630 C   0  0  1  0  0  3  0  0  0  0  0  0
  161.1230  206.1170  147.7410 C   0  0  0  0  0  2  0  0  0  0  0  0
  160.8480  203.8180  149.1630 O   0  0  0  0  0  0  0  0  0  0  0  0
  161.6890  208.3360  149.3400 C   0  0  2  0  0  3  0  0  0  0  0  0
  160.2920  206.2090  149.0350 C   0  0  1  0  0  3  0  0  0  0  0  0
  160.6260  202.6760  149.9550 C   0  0  0  0  0  2  0  0  0  0  0  0
  160.8690  205.1780  151.2090 C   0  0  2  0  0  3  0  0  0  0  0  0
  160.2290  204.9000  149.8340 C   0  0  2  0  0  3  0  0  0  0  0  0
  160.7880  207.2870  150.0120 C   0  0  1  0  0  3  0  0  0  0  0  0
  161.4910  206.5550  151.1410 C   0  0  0  0  0  2  0  0  0  0  0  0
  161.4730  202.7200  151.2420 C   0  0  0  0  0  2  0  0  0  0  0  0
  162.6040  206.3380  148.0250 C   0  0  0  0  0  2  0  0  0  0  0  0
  161.9380  204.1450  151.5640 C   0  0  0  0  0  2  0  0  0  0  0  0
  162.8690  207.7550  148.5370 C   0  0  0  0  0  2  0  0  0  0  0  0
  162.4630  210.7980  149.5470 C   0  0  0  0  0  2  0  0  0  0  0  0
  161.4390  211.1400  148.4810 C   0  0  0  0  0  2  0  0  0  0  0  0
  161.6020  212.5580  147.9430 C   0  0  0  0  0  0  0  0  0  0  0  0
  161.7900  213.4440  149.0080 O   0  0  0  0  0  1  0  0  0  0  0  0
  162.7220  212.6120  147.1130 O   0  0  0  0  0  1  0  0  0  0  0  0
  160.4020  212.9180  147.1750 N   0  0  0  0  0  0  0  0  0  0  0  0
  160.3580  212.7370  144.7120 C   0  0  0  0  0  0  0  0  0  0  0  0
  161.1120  214.0040  144.4860 C   0  0  0  0  0  1  0  0  0  0  0  0
  160.1140  212.2440  145.9320 C   0  0  0  0  0  3  0  0  0  0  0  0
  159.9390  211.9500  143.5200 C   0  0  0  0  0  2  0  0  0  0  0  0
  160.9410  212.0930  142.3850 C   0  0  0  0  0  2  0  0  0  0  0  0
  159.8500  211.7420  140.1280 C   0  0  0  0  0  0  0  0  0  0  0  0
  159.3930  212.9190  140.1250 O   0  0  0  0  0  0  0  0  0  0  0  0
  160.5460  211.2440  141.2740 N   0  0  0  0  0  2  0  0  0  0  0  0
  159.7020  210.9060  138.9800 N   0  0  0  0  0  2  0  0  0  0  0  0
  158.9930  211.3360  137.7860 C   0  0  0  0  0  2  0  0  0  0  0  0
  154.8580  209.8630  138.2000 N   0  0  0  0  0  2  0  0  0  0  0  0
  156.0540  209.4510  138.9230 C   0  0  0  0  0  2  0  0  0  0  0  0
  155.3030  210.9280  137.3160 C   0  0  0  0  0  2  0  0  0  0  0  0
  156.5740  211.4890  137.9040 C   0  0  1  0  0  3  0  0  0  0  0  0
  157.0030  210.5580  138.9630 N   0  0  2  0  0  0  0  0  0  0  0  0
  157.6880  210.5750  137.6610 C   0  0  2  0  0  3  0  0  0  0  0  0
  158.0960  213.7150  147.3420 C   0  0  0  0  0  1  0  0  0  0  0  0
  159.5450  213.9920  147.6750 C   0  0  0  0  0  2  0  0  0  0  0  0
  160.9980  209.7670  151.3440 C   0  0  0  0  0  2  0  0  0  0  0  0
  160.7670  211.2600  153.4150 N   0  0  0  0  0  2  0  0  0  0  0  0
  162.7310  210.1160  152.9440 O   0  0  0  0  0  0  0  0  0  0  0  0
  161.5520  210.3860  152.5980 C   0  0  0  0  0  0  0  0  0  0  0  0
  159.6100  213.0990  151.3150 O   0  0  0  0  0  0  0  0  0  0  0  0
  157.6940  212.7980  154.3150 C   0  0  0  0  0  2  0  0  0  0  0  0
  159.3730  211.6080  153.1570 C   0  0  2  0  0  3  0  0  0  0  0  0
  159.2760  212.9300  152.4790 C   0  0  0  0  0  0  0  0  0  0  0  0
  158.6670  211.7120  154.4290 N   0  0  0  0  0  2  0  0  0  0  0  0
  158.4530  214.1810  153.4130 S   0  0  0  0  0  0  0  0  0  0  0  0
  1 15  1  6  0  0  0
  1 39  1  0  0  0  0
  2 12  1  0  0  0  0
  3  6  1  0  0  0  0
  4  9  1  0  0  0  0
  4  1  1  1  0  0  0
  5  2  1  6  0  0  0
  5  8  1  0  0  0  0
  5  9  1  0  0  0  0
  6 11  1  0  0  0  0
  7 10  1  6  0  0  0
  7 13  1  0  0  0  0
  8  3  1  6  0  0  0
  8  7  1  0  0  0  0
  9 10  1  1  0  0  0
 11 13  1  0  0  0  0
 12 14  1  0  0  0  0
 14  4  1  0  0  0  0
 16 15  1  0  0  0  0
 17 16  1  0  0  0  0
 17 18  1  0  0  0  0
 19 17  1  0  0  0  0
 20 38  1  0  0  0  0
 20 17  1  0  0  0  0
 21 23  2  0  0  0  0
 22 21  1  0  0  0  0
 23 20  1  0  0  0  0
 24 21  1  0  0  0  0
 25 24  1  0  0  0  0
 26 28  1  0  0  0  0
 27 26  2  0  0  0  0
 28 25  1  0  0  0  0
 29 26  1  0  0  0  0
 30 29  1  0  0  0  0
 31 32  1  0  0  0  0
 33 31  1  0  0  0  0
 34 33  1  6  0  0  0
 34 35  1  0  0  0  0
 35 32  1  6  0  0  0
 36 30  1  1  0  0  0
 36 34  1  0  0  0  0
 36 35  1  0  0  0  0
 37 38  1  0  0  0  0
 39 42  1  0  0  0  0
 42 41  2  0  0  0  0
 42 40  1  0  0  0  0
 43 46  2  0  0  0  0
 44 47  1  0  0  0  0
 45 40  1  1  0  0  0
 45 47  1  0  0  0  0
 46 45  1  0  0  0  0
 46 48  1  0  0  0  0
 48 44  1  0  0  0  0
M  END
>  <MODEL>
1

>  <REMARK>
 VINA RESULT:      -6.7      0.000      0.000
  Name = 
  15 active torsions:
  status: ('A' for Active; 'I' for Inactive)
    1  A    between atoms: C_1  and  C_4
    2  A    between atoms: C_1  and  C_17
    3  A    between atoms: C_5  and  C_30
    4  A    between atoms: C_5  and  C_33
    5  A    between atoms: C_10  and  N_22
    6  A    between atoms: C_11  and  C_12
    7  A    between atoms: C_12  and  C_30
    8  A    between atoms: C_12  and  C_40
    9  A    between atoms: C_17  and  N_36
   10  A    between atoms: N_22  and  C_33
   11  A    between atoms: N_22  and  C_38
   12  A    between atoms: C_28  and  N_34
   13  A    between atoms: C_29  and  C_32
   14  A    between atoms: C_32  and  N_47
   15  A    between atoms: C_40  and  C_46
                            x       y       z     vdW  Elec       q    Type
                         _______ _______ _______ _____ _____    ______ ____

>  <TORSDO>
F 15

$$$$
=
 OpenBabel11072409563D

 48 53  0  0  1  0  0  0  0  0999 V2000
  161.7970  209.0860  151.1530 C   0  0  1  0  0  3  0  0  0  0  0  0
  160.9350  206.1320  148.1050 C   0  0  0  0  0  2  0  0  0  0  0  0
  160.7880  203.6140  149.1170 O   0  0  0  0  0  0  0  0  0  0  0  0
  161.4540  208.0680  150.0490 C   0  0  2  0  0  3  0  0  0  0  0  0
  160.1350  205.9650  149.4110 C   0  0  1  0  0  3  0  0  0  0  0  0
  160.6320  202.3450  149.7060 C   0  0  0  0  0  2  0  0  0  0  0  0
  160.8090  204.6060  151.3660 C   0  0  2  0  0  3  0  0  0  0  0  0
  160.1450  204.5380  149.9760 C   0  0  2  0  0  3  0  0  0  0  0  0
  160.6140  206.8810  150.5490 C   0  0  1  0  0  3  0  0  0  0  0  0
  161.3740  206.0000  151.5220 C   0  0  0  0  0  2  0  0  0  0  0  0
  161.5100  202.2060  150.9650 C   0  0  0  0  0  2  0  0  0  0  0  0
  162.4130  206.3650  148.3940 C   0  0  0  0  0  2  0  0  0  0  0  0
  161.9270  203.5740  151.5170 C   0  0  0  0  0  2  0  0  0  0  0  0
  162.6350  207.6840  149.1360 C   0  0  0  0  0  2  0  0  0  0  0  0
  162.5450  210.3310  150.6800 C   0  0  0  0  0  2  0  0  0  0  0  0
  161.5500  211.4020  150.2720 C   0  0  0  0  0  2  0  0  0  0  0  0
  161.7130  211.8290  148.8160 C   0  0  0  0  0  0  0  0  0  0  0  0
  162.9750  212.4050  148.6360 O   0  0  0  0  0  1  0  0  0  0  0  0
  161.6110  210.7090  147.9910 O   0  0  0  0  0  1  0  0  0  0  0  0
  160.6520  212.7890  148.4800 N   0  0  0  0  0  0  0  0  0  0  0  0
  160.3760  213.3960  146.1010 C   0  0  0  0  0  0  0  0  0  0  0  0
  161.6280  214.2030  146.0370 C   0  0  0  0  0  1  0  0  0  0  0  0
  160.0010  212.7200  147.1940 C   0  0  0  0  0  3  0  0  0  0  0  0
  159.5580  213.2730  144.8640 C   0  0  0  0  0  2  0  0  0  0  0  0
  160.0260  212.1060  144.0080 C   0  0  0  0  0  2  0  0  0  0  0  0
  160.9280  212.2250  141.6470 C   0  0  0  0  0  0  0  0  0  0  0  0
  162.0840  211.8910  142.0320 O   0  0  0  0  0  0  0  0  0  0  0  0
  159.8870  212.4450  142.6010 N   0  0  0  0  0  2  0  0  0  0  0  0
  160.6430  212.3620  140.2530 N   0  0  0  0  0  2  0  0  0  0  0  0
  161.6530  212.1730  139.2250 C   0  0  0  0  0  2  0  0  0  0  0  0
  160.0700  208.3510  137.7000 N   0  0  0  0  0  2  0  0  0  0  0  0
  160.7050  208.6330  138.9800 C   0  0  0  0  0  2  0  0  0  0  0  0
  160.0160  209.6340  137.0170 C   0  0  0  0  0  2  0  0  0  0  0  0
  160.1000  210.7030  138.0780 C   0  0  1  0  0  3  0  0  0  0  0  0
  160.4880  210.0320  139.3320 N   0  0  2  0  0  0  0  0  0  0  0  0
  161.4710  210.8180  138.5700 C   0  0  2  0  0  3  0  0  0  0  0  0
  158.9740  214.4500  149.1170 C   0  0  0  0  0  1  0  0  0  0  0  0
  160.3120  213.8280  149.4510 C   0  0  0  0  0  2  0  0  0  0  0  0
  160.5910  209.4360  152.0300 C   0  0  0  0  0  2  0  0  0  0  0  0
  160.5040  210.3260  154.4330 N   0  0  0  0  0  2  0  0  0  0  0  0
  161.3770  208.2340  153.9330 O   0  0  0  0  0  0  0  0  0  0  0  0
  160.8520  209.2950  153.5040 C   0  0  0  0  0  0  0  0  0  0  0  0
  160.3560  212.9270  155.9660 O   0  0  0  0  0  0  0  0  0  0  0  0
  157.6020  212.2710  153.7850 C   0  0  0  0  0  2  0  0  0  0  0  0
  159.8410  211.5760  154.0730 C   0  0  2  0  0  3  0  0  0  0  0  0
  159.5050  212.3650  155.2890 C   0  0  0  0  0  0  0  0  0  0  0  0
  158.5900  211.2690  153.3880 N   0  0  0  0  0  2  0  0  0  0  0  0
  157.7780  212.6020  155.5640 S   0  0  0  0  0  0  0  0  0  0  0  0
  1 15  1  6  0  0  0
  1 39  1  0  0  0  0
  2 12  1  0  0  0  0
  3  6  1  0  0  0  0
  4  9  1  0  0  0  0
  4  1  1  1  0  0  0
  5  2  1  6  0  0  0
  5  8  1  0  0  0  0
  5  9  1  0  0  0  0
  6 11  1  0  0  0  0
  7 13  1  6  0  0  0
  7 10  1  0  0  0  0
  8  3  1  6  0  0  0
  8  7  1  0  0  0  0
  9 10  1  1  0  0  0
 11 13  1  0  0  0  0
 12 14  1  0  0  0  0
 14  4  1  0  0  0  0
 16 15  1  0  0  0  0
 17 16  1  0  0  0  0
 18 17  1  0  0  0  0
 19 17  1  0  0  0  0
 20 17  1  0  0  0  0
 20 38  1  0  0  0  0
 21 23  2  0  0  0  0
 22 21  1  0  0  0  0
 23 20  1  0  0  0  0
 24 21  1  0  0  0  0
 25 24  1  0  0  0  0
 26 27  2  0  0  0  0
 26 28  1  0  0  0  0
 28 25  1  0  0  0  0
 29 26  1  0  0  0  0
 30 29  1  0  0  0  0
 31 32  1  0  0  0  0
 33 31  1  0  0  0  0
 34 33  1  6  0  0  0
 34 36  1  0  0  0  0
 34 35  1  0  0  0  0
 35 32  1  6  0  0  0
 36 30  1  1  0  0  0
 36 35  1  0  0  0  0
 37 38  1  0  0  0  0
 39 42  1  0  0  0  0
 42 41  2  0  0  0  0
 42 40  1  0  0  0  0
 44 48  1  0  0  0  0
 45 40  1  1  0  0  0
 45 46  1  0  0  0  0
 46 48  1  0  0  0  0
 46 43  2  0  0  0  0
 47 44  1  0  0  0  0
 47 45  1  0  0  0  0
M  END
>  <MODEL>
2

>  <REMARK>
 VINA RESULT:      -6.6      2.031      2.266
  Name = 
  15 active torsions:
  status: ('A' for Active; 'I' for Inactive)
    1  A    between atoms: C_1  and  C_4
    2  A    between atoms: C_1  and  C_17
    3  A    between atoms: C_5  and  C_30
    4  A    between atoms: C_5  and  C_33
    5  A    between atoms: C_10  and  N_22
    6  A    between atoms: C_11  and  C_12
    7  A    between atoms: C_12  and  C_30
    8  A    between atoms: C_12  and  C_40
    9  A    between atoms: C_17  and  N_36
   10  A    between atoms: N_22  and  C_33
   11  A    between atoms: N_22  and  C_38
   12  A    between atoms: C_28  and  N_34
   13  A    between atoms: C_29  and  C_32
   14  A    between atoms: C_32  and  N_47
   15  A    between atoms: C_40  and  C_46
                            x       y       z     vdW  Elec       q    Type
                         _______ _______ _______ _____ _____    ______ ____

>  <TORSDO>
F 15

$$$$
=
 OpenBabel11072409563D

 48 53  0  0  1  0  0  0  0  0999 V2000
  161.5210  208.0460  149.3320 C   0  0  1  0  0  3  0  0  0  0  0  0
  161.1080  206.5290  153.3680 C   0  0  0  0  0  2  0  0  0  0  0  0
  161.5260  208.4520  155.2430 O   0  0  0  0  0  0  0  0  0  0  0  0
  161.3310  207.4800  150.7510 C   0  0  2  0  0  3  0  0  0  0  0  0
  160.4300  207.8900  153.1160 C   0  0  1  0  0  3  0  0  0  0  0  0
  161.6620  209.5030  156.1680 C   0  0  0  0  0  2  0  0  0  0  0  0
  161.4690  210.1130  153.4320 C   0  0  2  0  0  3  0  0  0  0  0  0
  160.7580  208.9590  154.1670 C   0  0  2  0  0  3  0  0  0  0  0  0
  160.7750  208.5080  151.7510 C   0  0  1  0  0  3  0  0  0  0  0  0
  161.7500  209.6390  152.0240 C   0  0  0  0  0  2  0  0  0  0  0  0
  162.6170  210.5900  155.6380 C   0  0  0  0  0  2  0  0  0  0  0  0
  162.5220  206.5090  152.8000 C   0  0  0  0  0  2  0  0  0  0  0  0
  162.7790  210.5060  154.1160 C   0  0  0  0  0  2  0  0  0  0  0  0
  162.5130  206.6430  151.2760 C   0  0  0  0  0  2  0  0  0  0  0  0
  162.2080  209.4080  149.2610 C   0  0  0  0  0  2  0  0  0  0  0  0
  161.5430  210.2640  148.1990 C   0  0  0  0  0  2  0  0  0  0  0  0
  161.8540  211.7480  148.3620 C   0  0  0  0  0  0  0  0  0  0  0  0
  161.5980  212.1390  149.6800 O   0  0  0  0  0  1  0  0  0  0  0  0
  163.2030  211.9710  148.0840 O   0  0  0  0  0  1  0  0  0  0  0  0
  161.0240  212.5150  147.4230 N   0  0  0  0  0  0  0  0  0  0  0  0
  161.1930  212.9230  144.9930 C   0  0  0  0  0  0  0  0  0  0  0  0
  159.9290  212.2040  144.6620 C   0  0  0  0  0  1  0  0  0  0  0  0
  161.6210  213.1020  146.2480 C   0  0  0  0  0  3  0  0  0  0  0  0
  161.9590  213.5410  143.8760 C   0  0  0  0  0  2  0  0  0  0  0  0
  162.3740  212.4980  142.8500 C   0  0  0  0  0  2  0  0  0  0  0  0
  161.4730  211.9010  140.5620 C   0  0  0  0  0  0  0  0  0  0  0  0
  161.7400  210.6790  140.7350 O   0  0  0  0  0  0  0  0  0  0  0  0
  161.8580  212.8680  141.5420 N   0  0  0  0  0  2  0  0  0  0  0  0
  160.7610  212.3270  139.3980 N   0  0  0  0  0  2  0  0  0  0  0  0
  160.3530  211.4060  138.3500 C   0  0  0  0  0  2  0  0  0  0  0  0
  156.0540  210.9770  139.2280 N   0  0  0  0  0  2  0  0  0  0  0  0
  156.9970  209.9710  138.7590 C   0  0  0  0  0  2  0  0  0  0  0  0
  156.8460  212.1830  139.4000 C   0  0  0  0  0  2  0  0  0  0  0  0
  158.2810  211.7490  139.5670 C   0  0  1  0  0  3  0  0  0  0  0  0
  158.3410  210.3210  139.2040 N   0  0  2  0  0  0  0  0  0  0  0  0
  158.8400  211.3490  138.2770 C   0  0  2  0  0  3  0  0  0  0  0  0
  159.2990  214.1670  147.9530 C   0  0  0  0  0  1  0  0  0  0  0  0
  159.6060  212.7030  147.7320 C   0  0  0  0  0  2  0  0  0  0  0  0
  162.1510  207.0320  148.3710 C   0  0  0  0  0  2  0  0  0  0  0  0
  160.8560  204.9850  147.5310 N   0  0  0  0  0  2  0  0  0  0  0  0
  160.5760  207.0850  146.5810 O   0  0  0  0  0  0  0  0  0  0  0  0
  161.1620  206.3800  147.4450 C   0  0  0  0  0  0  0  0  0  0  0  0
  161.6780  202.0930  147.2200 O   0  0  0  0  0  0  0  0  0  0  0  0
  160.6460  203.0520  150.5040 C   0  0  0  0  0  2  0  0  0  0  0  0
  161.4210  204.0720  148.5200 C   0  0  2  0  0  3  0  0  0  0  0  0
  161.1330  202.6580  148.1590 C   0  0  0  0  0  0  0  0  0  0  0  0
  160.7990  204.3320  149.8140 N   0  0  0  0  0  2  0  0  0  0  0  0
  160.1060  201.7960  149.3060 S   0  0  0  0  0  0  0  0  0  0  0  0
  1 39  1  6  0  0  0
  3  6  1  0  0  0  0
  4  1  1  6  0  0  0
  4 14  1  0  0  0  0
  4  9  1  0  0  0  0
  5  2  1  1  0  0  0
  5  8  1  0  0  0  0
  7 10  1  6  0  0  0
  7 13  1  0  0  0  0
  7  8  1  0  0  0  0
  8  3  1  1  0  0  0
  9 10  1  1  0  0  0
  9  5  1  0  0  0  0
 11  6  1  0  0  0  0
 12  2  1  0  0  0  0
 13 11  1  0  0  0  0
 14 12  1  0  0  0  0
 15  1  1  0  0  0  0
 16 17  1  0  0  0  0
 16 15  1  0  0  0  0
 17 18  1  0  0  0  0
 19 17  1  0  0  0  0
 20 38  1  0  0  0  0
 20 17  1  0  0  0  0
 21 23  2  0  0  0  0
 22 21  1  0  0  0  0
 23 20  1  0  0  0  0
 24 21  1  0  0  0  0
 25 24  1  0  0  0  0
 26 27  2  0  0  0  0
 26 28  1  0  0  0  0
 28 25  1  0  0  0  0
 29 26  1  0  0  0  0
 30 29  1  0  0  0  0
 31 33  1  0  0  0  0
 32 31  1  0  0  0  0
 34 33  1  6  0  0  0
 35 32  1  6  0  0  0
 35 34  1  0  0  0  0
 36 30  1  1  0  0  0
 36 35  1  0  0  0  0
 36 34  1  0  0  0  0
 38 37  1  0  0  0  0
 41 42  2  0  0  0  0
 42 40  1  0  0  0  0
 42 39  1  0  0  0  0
 43 46  2  0  0  0  0
 45 40  1  6  0  0  0
 45 47  1  0  0  0  0
 46 45  1  0  0  0  0
 46 48  1  0  0  0  0
 47 44  1  0  0  0  0
 48 44  1  0  0  0  0
M  END
>  <MODEL>
3

>  <REMARK>
 VINA RESULT:      -6.3      3.045      5.465
  Name = 
  15 active torsions:
  status: ('A' for Active; 'I' for Inactive)
    1  A    between atoms: C_1  and  C_4
    2  A    between atoms: C_1  and  C_17
    3  A    between atoms: C_5  and  C_30
    4  A    between atoms: C_5  and  C_33
    5  A    between atoms: C_10  and  N_22
    6  A    between atoms: C_11  and  C_12
    7  A    between atoms: C_12  and  C_30
    8  A    between atoms: C_12  and  C_40
    9  A    between atoms: C_17  and  N_36
   10  A    between atoms: N_22  and  C_33
   11  A    between atoms: N_22  and  C_38
   12  A    between atoms: C_28  and  N_34
   13  A    between atoms: C_29  and  C_32
   14  A    between atoms: C_32  and  N_47
   15  A    between atoms: C_40  and  C_46
                            x       y       z     vdW  Elec       q    Type
                         _______ _______ _______ _____ _____    ______ ____

>  <TORSDO>
F 15

$$$$
=
 OpenBabel11072409563D

 48 53  0  0  1  0  0  0  0  0999 V2000
  160.9690  209.2770  151.4920 C   0  0  1  0  0  3  0  0  0  0  0  0
  161.2050  209.8050  155.7850 C   0  0  0  0  0  2  0  0  0  0  0  0
  159.5760  211.7910  156.6730 O   0  0  0  0  0  0  0  0  0  0  0  0
  161.0520  209.4120  153.0240 C   0  0  2  0  0  3  0  0  0  0  0  0
  159.7760  209.8270  155.2090 C   0  0  1  0  0  3  0  0  0  0  0  0
  158.6490  212.7640  157.0910 C   0  0  0  0  0  2  0  0  0  0  0  0
  158.5490  211.8350  154.4410 C   0  0  2  0  0  3  0  0  0  0  0  0
  158.9240  211.0100  155.6890 C   0  0  2  0  0  3  0  0  0  0  0  0
  159.7320  209.8610  153.6720 C   0  0  1  0  0  3  0  0  0  0  0  0
  159.3440  211.2760  153.2820 C   0  0  0  0  0  2  0  0  0  0  0  0
  158.4320  213.8280  155.9970 C   0  0  0  0  0  2  0  0  0  0  0  0
  162.1410  210.6830  154.9620 C   0  0  0  0  0  2  0  0  0  0  0  0
  158.8680  213.3190  154.6180 C   0  0  0  0  0  2  0  0  0  0  0  0
  162.3060  210.1440  153.5410 C   0  0  0  0  0  2  0  0  0  0  0  0
  162.0500  210.0240  150.7140 C   0  0  0  0  0  2  0  0  0  0  0  0
  161.4950  211.3410  150.2020 C   0  0  0  0  0  2  0  0  0  0  0  0
  161.8880  211.6200  148.7550 C   0  0  0  0  0  0  0  0  0  0  0  0
  163.2800  211.7230  148.6590 O   0  0  0  0  0  1  0  0  0  0  0  0
  161.4620  210.5640  147.9480 O   0  0  0  0  0  1  0  0  0  0  0  0
  161.2450  212.8660  148.3170 N   0  0  0  0  0  0  0  0  0  0  0  0
  161.0550  213.1440  145.8700 C   0  0  0  0  0  0  0  0  0  0  0  0
  159.8760  212.2420  145.7380 C   0  0  0  0  0  1  0  0  0  0  0  0
  161.6040  213.4560  147.0500 C   0  0  0  0  0  3  0  0  0  0  0  0
  161.5840  213.7900  144.6380 C   0  0  0  0  0  2  0  0  0  0  0  0
  162.3260  212.7880  143.7660 C   0  0  0  0  0  2  0  0  0  0  0  0
  161.7180  211.8620  141.4910 C   0  0  0  0  0  0  0  0  0  0  0  0
  162.7770  212.3210  140.9800 O   0  0  0  0  0  0  0  0  0  0  0  0
  161.3920  212.1490  142.8530 N   0  0  0  0  0  2  0  0  0  0  0  0
  160.8470  211.0290  140.7230 N   0  0  0  0  0  2  0  0  0  0  0  0
  161.1020  210.7070  139.3280 C   0  0  0  0  0  2  0  0  0  0  0  0
  162.2900  206.4680  139.0960 N   0  0  0  0  0  2  0  0  0  0  0  0
  162.1220  207.3090  140.2740 C   0  0  0  0  0  2  0  0  0  0  0  0
  161.9290  207.3190  137.9740 C   0  0  0  0  0  2  0  0  0  0  0  0
  161.0540  208.4200  138.5170 C   0  0  1  0  0  3  0  0  0  0  0  0
  161.1520  208.3590  139.9870 N   0  0  2  0  0  0  0  0  0  0  0  0
  161.8660  209.4010  139.2340 C   0  0  2  0  0  3  0  0  0  0  0  0
  158.8820  213.4090  148.6370 C   0  0  0  0  0  1  0  0  0  0  0  0
  160.2790  213.5070  149.2090 C   0  0  0  0  0  2  0  0  0  0  0  0
  160.8310  207.8210  151.0330 C   0  0  0  0  0  2  0  0  0  0  0  0
  162.4080  206.3970  149.6000 N   0  0  0  0  0  2  0  0  0  0  0  0
  163.0470  207.2200  151.6730 O   0  0  0  0  0  0  0  0  0  0  0  0
  162.1470  207.1330  150.7990 C   0  0  0  0  0  0  0  0  0  0  0  0
  160.5620  204.1060  148.9070 O   0  0  0  0  0  0  0  0  0  0  0  0
  161.6650  206.0800  146.1400 C   0  0  0  0  0  2  0  0  0  0  0  0
  161.4720  206.2660  148.4870 C   0  0  2  0  0  3  0  0  0  0  0  0
  161.2190  204.8330  148.1750 C   0  0  0  0  0  0  0  0  0  0  0  0
  162.0600  206.8780  147.3000 N   0  0  0  0  0  2  0  0  0  0  0  0
  161.7590  204.3180  146.5760 S   0  0  0  0  0  0  0  0  0  0  0  0
  1 15  1  6  0  0  0
  3  6  1  0  0  0  0
  4  1  1  6  0  0  0
  4 14  1  0  0  0  0
  4  9  1  0  0  0  0
  5  8  1  0  0  0  0
  5  2  1  6  0  0  0
  7 10  1  6  0  0  0
  7 13  1  0  0  0  0
  7  8  1  0  0  0  0
  8  3  1  1  0  0  0
  9 10  1  1  0  0  0
  9  5  1  0  0  0  0
 11  6  1  0  0  0  0
 12  2  1  0  0  0  0
 13 11  1  0  0  0  0
 14 12  1  0  0  0  0
 16 15  1  0  0  0  0
 17 16  1  0  0  0  0
 18 17  1  0  0  0  0
 19 17  1  0  0  0  0
 20 17  1  0  0  0  0
 20 38  1  0  0  0  0
 21 23  2  0  0  0  0
 22 21  1  0  0  0  0
 23 20  1  0  0  0  0
 24 21  1  0  0  0  0
 25 24  1  0  0  0  0
 26 28  1  0  0  0  0
 27 26  2  0  0  0  0
 28 25  1  0  0  0  0
 29 26  1  0  0  0  0
 30 29  1  0  0  0  0
 31 32  1  0  0  0  0
 33 31  1  0  0  0  0
 34 33  1  6  0  0  0
 34 36  1  0  0  0  0
 34 35  1  0  0  0  0
 35 32  1  6  0  0  0
 36 30  1  1  0  0  0
 36 35  1  0  0  0  0
 37 38  1  0  0  0  0
 39  1  1  0  0  0  0
 40 42  1  0  0  0  0
 42 39  1  0  0  0  0
 42 41  2  0  0  0  0
 44 48  1  0  0  0  0
 44 47  1  0  0  0  0
 45 40  1  1  0  0  0
 46 45  1  0  0  0  0
 46 43  2  0  0  0  0
 47 45  1  0  0  0  0
 48 46  1  0  0  0  0
M  END
>  <MODEL>
4

>  <REMARK>
 VINA RESULT:      -6.0      3.358      6.395
  Name = 
  15 active torsions:
  status: ('A' for Active; 'I' for Inactive)
    1  A    between atoms: C_1  and  C_4
    2  A    between atoms: C_1  and  C_17
    3  A    between atoms: C_5  and  C_30
    4  A    between atoms: C_5  and  C_33
    5  A    between atoms: C_10  and  N_22
    6  A    between atoms: C_11  and  C_12
    7  A    between atoms: C_12  and  C_30
    8  A    between atoms: C_12  and  C_40
    9  A    between atoms: C_17  and  N_36
   10  A    between atoms: N_22  and  C_33
   11  A    between atoms: N_22  and  C_38
   12  A    between atoms: C_28  and  N_34
   13  A    between atoms: C_29  and  C_32
   14  A    between atoms: C_32  and  N_47
   15  A    between atoms: C_40  and  C_46
                            x       y       z     vdW  Elec       q    Type
                         _______ _______ _______ _____ _____    ______ ____

>  <TORSDO>
F 15

$$$$
=
 OpenBabel11072409563D

 48 53  0  0  1  0  0  0  0  0999 V2000
  161.6370  210.0230  152.0360 C   0  0  1  0  0  3  0  0  0  0  0  0
  161.8320  205.9670  153.5460 C   0  0  0  0  0  2  0  0  0  0  0  0
  161.4200  204.1180  151.5980 O   0  0  0  0  0  0  0  0  0  0  0  0
  161.7490  208.5950  152.6010 C   0  0  2  0  0  3  0  0  0  0  0  0
  162.5740  206.1980  152.2160 C   0  0  1  0  0  3  0  0  0  0  0  0
  161.2920  203.2020  150.5370 C   0  0  0  0  0  2  0  0  0  0  0  0
  161.6140  205.9310  149.9500 C   0  0  2  0  0  3  0  0  0  0  0  0
  162.2500  205.1640  151.1280 C   0  0  2  0  0  3  0  0  0  0  0  0
  162.3070  207.5780  151.5910 C   0  0  1  0  0  3  0  0  0  0  0  0
  161.3700  207.3470  150.4200 C   0  0  0  0  0  2  0  0  0  0  0  0
  160.4030  203.7730  149.4160 C   0  0  0  0  0  2  0  0  0  0  0  0
  160.4420  206.5900  153.5120 C   0  0  0  0  0  2  0  0  0  0  0  0
  160.2960  205.3000  149.5010 C   0  0  0  0  0  2  0  0  0  0  0  0
  160.5140  208.1120  153.3870 C   0  0  0  0  0  2  0  0  0  0  0  0
  161.9210  210.1540  150.5410 C   0  0  0  0  0  2  0  0  0  0  0  0
  161.7160  211.5940  150.1050 C   0  0  0  0  0  2  0  0  0  0  0  0
  161.9790  211.7990  148.6160 C   0  0  0  0  0  0  0  0  0  0  0  0
  163.3580  211.8570  148.3890 O   0  0  0  0  0  1  0  0  0  0  0  0
  161.4530  210.7230  147.9000 O   0  0  0  0  0  1  0  0  0  0  0  0
  161.3300  213.0440  148.1850 N   0  0  0  0  0  0  0  0  0  0  0  0
  160.9290  213.2320  145.7540 C   0  0  0  0  0  0  0  0  0  0  0  0
  159.7180  212.3620  145.7650 C   0  0  0  0  0  1  0  0  0  0  0  0
  161.5900  213.5720  146.8670 C   0  0  0  0  0  3  0  0  0  0  0  0
  161.3620  213.8120  144.4540 C   0  0  0  0  0  2  0  0  0  0  0  0
  160.6890  213.1100  143.2860 C   0  0  0  0  0  2  0  0  0  0  0  0
  161.5540  212.1650  141.1020 C   0  0  0  0  0  0  0  0  0  0  0  0
  160.4680  212.4310  140.5150 O   0  0  0  0  0  0  0  0  0  0  0  0
  161.6850  212.3910  142.5080 N   0  0  0  0  0  2  0  0  0  0  0  0
  162.6690  211.6610  140.3660 N   0  0  0  0  0  2  0  0  0  0  0  0
  162.6060  211.3900  138.9390 C   0  0  0  0  0  2  0  0  0  0  0  0
  160.5060  207.8710  137.3150 N   0  0  0  0  0  2  0  0  0  0  0  0
  160.0040  208.9030  138.2130 C   0  0  0  0  0  2  0  0  0  0  0  0
  161.8700  208.2690  137.0110 C   0  0  0  0  0  2  0  0  0  0  0  0
  161.9650  209.7530  137.2660 C   0  0  1  0  0  3  0  0  0  0  0  0
  160.7390  210.1420  137.9860 N   0  0  2  0  0  0  0  0  0  0  0  0
  162.0170  210.0130  138.7030 C   0  0  2  0  0  3  0  0  0  0  0  0
  159.0090  213.4190  148.8600 C   0  0  0  0  0  1  0  0  0  0  0  0
  160.4610  213.7460  149.1290 C   0  0  0  0  0  2  0  0  0  0  0  0
  160.3310  210.7170  152.4380 C   0  0  0  0  0  2  0  0  0  0  0  0
  159.2290  211.9720  154.3820 N   0  0  0  0  0  2  0  0  0  0  0  0
  161.4710  211.3750  154.4250 O   0  0  0  0  0  0  0  0  0  0  0  0
  160.3850  211.3710  153.7900 C   0  0  0  0  0  0  0  0  0  0  0  0
  158.0340  213.9400  152.4230 O   0  0  0  0  0  0  0  0  0  0  0  0
  155.6960  212.2950  154.5670 C   0  0  0  0  0  2  0  0  0  0  0  0
  157.9000  211.9850  153.7770 C   0  0  2  0  0  3  0  0  0  0  0  0
  157.5180  213.3650  153.3720 C   0  0  0  0  0  0  0  0  0  0  0  0
  156.9270  211.5300  154.7640 N   0  0  0  0  0  2  0  0  0  0  0  0
  156.1250  214.0280  154.2290 S   0  0  0  0  0  0  0  0  0  0  0  0
  1 15  1  6  0  0  0
  1 39  1  0  0  0  0
  4  1  1  6  0  0  0
  4 14  1  0  0  0  0
  5  2  1  1  0  0  0
  6  3  1  0  0  0  0
  7 13  1  1  0  0  0
  7 10  1  0  0  0  0
  7  8  1  0  0  0  0
  8  3  1  1  0  0  0
  8  5  1  0  0  0  0
  9 10  1  6  0  0  0
  9  5  1  0  0  0  0
  9  4  1  0  0  0  0
 11 13  1  0  0  0  0
 11  6  1  0  0  0  0
 12  2  1  0  0  0  0
 14 12  1  0  0  0  0
 16 15  1  0  0  0  0
 17 16  1  0  0  0  0
 18 17  1  0  0  0  0
 19 17  1  0  0  0  0
 20 17  1  0  0  0  0
 20 38  1  0  0  0  0
 21 22  1  0  0  0  0
 21 23  2  0  0  0  0
 23 20  1  0  0  0  0
 24 21  1  0  0  0  0
 25 24  1  0  0  0  0
 26 28  1  0  0  0  0
 27 26  2  0  0  0  0
 28 25  1  0  0  0  0
 29 26  1  0  0  0  0
 30 29  1  0  0  0  0
 31 32  1  0  0  0  0
 33 31  1  0  0  0  0
 34 33  1  1  0  0  0
 34 35  1  0  0  0  0
 34 36  1  0  0  0  0
 35 32  1  1  0  0  0
 35 36  1  0  0  0  0
 36 30  1  6  0  0  0
 37 38  1  0  0  0  0
 39 42  1  0  0  0  0
 42 40  1  0  0  0  0
 42 41  2  0  0  0  0
 43 46  2  0  0  0  0
 44 47  1  0  0  0  0
 45 40  1  1  0  0  0
 45 47  1  0  0  0  0
 46 45  1  0  0  0  0
 46 48  1  0  0  0  0
 48 44  1  0  0  0  0
M  END
>  <MODEL>
5

>  <REMARK>
 VINA RESULT:      -5.8      2.163      3.084
  Name = 
  15 active torsions:
  status: ('A' for Active; 'I' for Inactive)
    1  A    between atoms: C_1  and  C_4
    2  A    between atoms: C_1  and  C_17
    3  A    between atoms: C_5  and  C_30
    4  A    between atoms: C_5  and  C_33
    5  A    between atoms: C_10  and  N_22
    6  A    between atoms: C_11  and  C_12
    7  A    between atoms: C_12  and  C_30
    8  A    between atoms: C_12  and  C_40
    9  A    between atoms: C_17  and  N_36
   10  A    between atoms: N_22  and  C_33
   11  A    between atoms: N_22  and  C_38
   12  A    between atoms: C_28  and  N_34
   13  A    between atoms: C_29  and  C_32
   14  A    between atoms: C_32  and  N_47
   15  A    between atoms: C_40  and  C_46
                            x       y       z     vdW  Elec       q    Type
                         _______ _______ _______ _____ _____    ______ ____

>  <TORSDO>
F 15

$$$$
=
 OpenBabel11072409563D

 48 53  0  0  1  0  0  0  0  0999 V2000
  162.0830  209.7570  150.3210 C   0  0  1  0  0  3  0  0  0  0  0  0
  161.2270  206.3910  147.7330 C   0  0  0  0  0  2  0  0  0  0  0  0
  160.9150  204.0740  149.1190 O   0  0  0  0  0  0  0  0  0  0  0  0
  161.7450  208.5910  149.3740 C   0  0  2  0  0  3  0  0  0  0  0  0
  160.3590  206.4660  149.0040 C   0  0  1  0  0  3  0  0  0  0  0  0
  160.6720  202.9230  149.8910 C   0  0  0  0  0  2  0  0  0  0  0  0
  160.8770  205.4100  151.1810 C   0  0  2  0  0  3  0  0  0  0  0  0
  160.2760  205.1470  149.7860 C   0  0  2  0  0  3  0  0  0  0  0  0
  160.8270  207.5330  150.0080 C   0  0  1  0  0  3  0  0  0  0  0  0
  161.4980  206.7880  151.1470 C   0  0  0  0  0  2  0  0  0  0  0  0
  161.4820  202.9520  151.2010 C   0  0  0  0  0  2  0  0  0  0  0  0
  162.6990  206.6100  148.0610 C   0  0  0  0  0  2  0  0  0  0  0  0
  161.9370  204.3730  151.5530 C   0  0  0  0  0  2  0  0  0  0  0  0
  162.9480  208.0200  148.5970 C   0  0  0  0  0  2  0  0  0  0  0  0
  161.4530  211.0990  149.9500 C   0  0  0  0  0  2  0  0  0  0  0  0
  161.7920  211.4440  148.5120 C   0  0  0  0  0  2  0  0  0  0  0  0
  161.0090  212.6480  147.9970 C   0  0  0  0  0  0  0  0  0  0  0  0
  159.6580  212.3090  147.8740 O   0  0  0  0  0  1  0  0  0  0  0  0
  161.1240  213.6990  148.9070 O   0  0  0  0  0  1  0  0  0  0  0  0
  161.5620  213.0570  146.6990 N   0  0  0  0  0  0  0  0  0  0  0  0
  159.9140  213.1480  144.8610 C   0  0  0  0  0  0  0  0  0  0  0  0
  159.3310  214.4530  145.2870 C   0  0  0  0  0  1  0  0  0  0  0  0
  160.9580  212.5820  145.4770 C   0  0  0  0  0  3  0  0  0  0  0  0
  159.3580  212.4980  143.6430 C   0  0  0  0  0  2  0  0  0  0  0  0
  160.1230  212.9160  142.3970 C   0  0  0  0  0  2  0  0  0  0  0  0
  160.6000  211.6910  140.2350 C   0  0  0  0  0  0  0  0  0  0  0  0
  161.7650  212.1760  140.1750 O   0  0  0  0  0  0  0  0  0  0  0  0
  159.7020  212.1030  141.2690 N   0  0  0  0  0  2  0  0  0  0  0  0
  160.1760  210.7070  139.2890 N   0  0  0  0  0  2  0  0  0  0  0  0
  161.0260  210.2520  138.2010 C   0  0  0  0  0  2  0  0  0  0  0  0
  162.4790  206.2730  139.4220 N   0  0  0  0  0  2  0  0  0  0  0  0
  161.9310  207.3400  140.2480 C   0  0  0  0  0  2  0  0  0  0  0  0
  162.4060  206.7770  138.0610 C   0  0  0  0  0  2  0  0  0  0  0  0
  161.3480  207.8520  138.0430 C   0  0  1  0  0  3  0  0  0  0  0  0
  161.0230  208.1550  139.4480 N   0  0  2  0  0  0  0  0  0  0  0  0
  161.8610  209.0730  138.6610 C   0  0  2  0  0  3  0  0  0  0  0  0
  163.3910  213.8970  145.3100 C   0  0  0  0  0  1  0  0  0  0  0  0
  162.7500  213.9090  146.6790 C   0  0  0  0  0  2  0  0  0  0  0  0
  161.8620  209.4050  151.7960 C   0  0  0  0  0  2  0  0  0  0  0  0
  161.0370  210.4930  153.9650 N   0  0  0  0  0  2  0  0  0  0  0  0
  160.2840  211.1900  151.8830 O   0  0  0  0  0  0  0  0  0  0  0  0
  161.0170  210.4030  152.5370 C   0  0  0  0  0  0  0  0  0  0  0  0
  160.6450  207.6470  154.9010 O   0  0  0  0  0  0  0  0  0  0  0  0
  162.5090  209.7460  157.1110 C   0  0  0  0  0  2  0  0  0  0  0  0
  161.8820  209.6800  154.8350 C   0  0  2  0  0  3  0  0  0  0  0  0
  161.0830  208.6170  155.5030 C   0  0  0  0  0  0  0  0  0  0  0  0
  162.4440  210.5310  155.8780 N   0  0  0  0  0  2  0  0  0  0  0  0
  160.9930  208.7540  157.2610 S   0  0  0  0  0  0  0  0  0  0  0  0
  1 15  1  6  0  0  0
  1 39  1  0  0  0  0
  2 12  1  0  0  0  0
  3  6  1  0  0  0  0
  4  9  1  0  0  0  0
  4  1  1  1  0  0  0
  5  2  1  6  0  0  0
  5  8  1  0  0  0  0
  5  9  1  0  0  0  0
  6 11  1  0  0  0  0
  7 10  1  6  0  0  0
  7 13  1  0  0  0  0
  8  3  1  6  0  0  0
  8  7  1  0  0  0  0
  9 10  1  1  0  0  0
 11 13  1  0  0  0  0
 12 14  1  0  0  0  0
 14  4  1  0  0  0  0
 16 15  1  0  0  0  0
 17 16  1  0  0  0  0
 17 19  1  0  0  0  0
 18 17  1  0  0  0  0
 20 17  1  0  0  0  0
 21 22  1  0  0  0  0
 21 23  2  0  0  0  0
 23 20  1  0  0  0  0
 24 21  1  0  0  0  0
 25 24  1  0  0  0  0
 26 28  1  0  0  0  0
 27 26  2  0  0  0  0
 28 25  1  0  0  0  0
 29 26  1  0  0  0  0
 30 29  1  0  0  0  0
 31 32  1  0  0  0  0
 33 31  1  0  0  0  0
 34 33  1  1  0  0  0
 34 36  1  0  0  0  0
 34 35  1  0  0  0  0
 35 32  1  1  0  0  0
 36 30  1  6  0  0  0
 36 35  1  0  0  0  0
 37 38  1  0  0  0  0
 38 20  1  0  0  0  0
 39 42  1  0  0  0  0
 41 42  2  0  0  0  0
 42 40  1  0  0  0  0
 43 46  2  0  0  0  0
 44 48  1  0  0  0  0
 45 40  1  6  0  0  0
 45 46  1  0  0  0  0
 45 47  1  0  0  0  0
 46 48  1  0  0  0  0
 47 44  1  0  0  0  0
M  END
>  <MODEL>
6

>  <REMARK>
 VINA RESULT:      -5.7      2.460      3.387
  Name = 
  15 active torsions:
  status: ('A' for Active; 'I' for Inactive)
    1  A    between atoms: C_1  and  C_4
    2  A    between atoms: C_1  and  C_17
    3  A    between atoms: C_5  and  C_30
    4  A    between atoms: C_5  and  C_33
    5  A    between atoms: C_10  and  N_22
    6  A    between atoms: C_11  and  C_12
    7  A    between atoms: C_12  and  C_30
    8  A    between atoms: C_12  and  C_40
    9  A    between atoms: C_17  and  N_36
   10  A    between atoms: N_22  and  C_33
   11  A    between atoms: N_22  and  C_38
   12  A    between atoms: C_28  and  N_34
   13  A    between atoms: C_29  and  C_32
   14  A    between atoms: C_32  and  N_47
   15  A    between atoms: C_40  and  C_46
                            x       y       z     vdW  Elec       q    Type
                         _______ _______ _______ _____ _____    ______ ____

>  <TORSDO>
F 15

$$$$
=
 OpenBabel11072409563D

 48 53  0  0  1  0  0  0  0  0999 V2000
  161.5430  210.1640  150.4900 C   0  0  1  0  0  3  0  0  0  0  0  0
  160.4560  211.6510  154.4110 C   0  0  0  0  0  2  0  0  0  0  0  0
  160.2900  209.6670  156.2600 O   0  0  0  0  0  0  0  0  0  0  0  0
  161.1900  210.7330  151.8770 C   0  0  2  0  0  3  0  0  0  0  0  0
  161.5960  210.6150  154.4060 C   0  0  1  0  0  3  0  0  0  0  0  0
  160.3090  208.6160  157.1960 C   0  0  0  0  0  2  0  0  0  0  0  0
  161.3330  208.1630  154.6190 C   0  0  2  0  0  3  0  0  0  0  0  0
  161.4150  209.4780  155.4210 C   0  0  2  0  0  3  0  0  0  0  0  0
  161.8120  209.9420  153.0400 C   0  0  1  0  0  3  0  0  0  0  0  0
  161.2470  208.5380  153.1560 C   0  0  0  0  0  2  0  0  0  0  0  0
  159.9340  207.2760  156.5330 C   0  0  0  0  0  2  0  0  0  0  0  0
  159.2950  211.1920  153.5370 C   0  0  0  0  0  2  0  0  0  0  0  0
  160.1140  207.3280  155.0120 C   0  0  0  0  0  2  0  0  0  0  0  0
  159.7050  211.0990  152.0670 C   0  0  0  0  0  2  0  0  0  0  0  0
  162.1720  211.1610  149.5200 C   0  0  0  0  0  2  0  0  0  0  0  0
  161.2020  211.4600  148.3910 C   0  0  0  0  0  2  0  0  0  0  0  0
  160.8590  212.9430  148.2890 C   0  0  0  0  0  0  0  0  0  0  0  0
  159.4930  213.1250  148.5290 O   0  0  0  0  0  1  0  0  0  0  0  0
  161.5800  213.6520  149.2500 O   0  0  0  0  0  1  0  0  0  0  0  0
  161.2190  213.4240  146.9480 N   0  0  0  0  0  0  0  0  0  0  0  0
  159.4750  213.5120  145.2010 C   0  0  0  0  0  0  0  0  0  0  0  0
  159.4470  212.0370  144.9860 C   0  0  0  0  0  1  0  0  0  0  0  0
  160.2330  214.0960  146.1360 C   0  0  0  0  0  3  0  0  0  0  0  0
  158.5510  214.3550  144.3950 C   0  0  0  0  0  2  0  0  0  0  0  0
  158.6920  214.0610  142.9090 C   0  0  0  0  0  2  0  0  0  0  0  0
  160.9050  213.4770  141.8310 C   0  0  0  0  0  0  0  0  0  0  0  0
  160.6060  212.2500  141.7950 O   0  0  0  0  0  0  0  0  0  0  0  0
  160.0310  214.4120  142.4660 N   0  0  0  0  0  2  0  0  0  0  0  0
  162.1070  213.9460  141.2160 N   0  0  0  0  0  2  0  0  0  0  0  0
  163.0530  213.0530  140.5670 C   0  0  0  0  0  2  0  0  0  0  0  0
  161.8940  209.5430  138.1650 N   0  0  0  0  0  2  0  0  0  0  0  0
  162.3490  210.8520  137.7140 C   0  0  0  0  0  2  0  0  0  0  0  0
  161.9440  209.6090  139.6160 C   0  0  0  0  0  2  0  0  0  0  0  0
  162.9180  210.7040  139.9760 C   0  0  1  0  0  3  0  0  0  0  0  0
  163.2010  211.4480  138.7360 N   0  0  2  0  0  0  0  0  0  0  0  0
  162.3060  212.0130  139.7580 C   0  0  2  0  0  3  0  0  0  0  0  0
  162.8980  214.0940  145.3000 C   0  0  0  0  0  1  0  0  0  0  0  0
  162.5700  213.1670  146.4500 C   0  0  0  0  0  2  0  0  0  0  0  0
  162.3390  208.8580  150.5720 C   0  0  0  0  0  2  0  0  0  0  0  0
  161.6530  206.7070  149.3580 N   0  0  0  0  0  2  0  0  0  0  0  0
  162.6740  208.4680  148.2440 O   0  0  0  0  0  0  0  0  0  0  0  0
  162.2410  208.0110  149.3330 C   0  0  0  0  0  0  0  0  0  0  0  0
  162.9520  205.9820  151.9890 O   0  0  0  0  0  0  0  0  0  0  0  0
  160.1550  203.9660  151.0510 C   0  0  0  0  0  2  0  0  0  0  0  0
  161.0640  206.0850  150.5400 C   0  0  2  0  0  3  0  0  0  0  0  0
  162.1040  205.3830  151.3410 C   0  0  0  0  0  0  0  0  0  0  0  0
  160.0880  205.0880  150.1150 N   0  0  0  0  0  2  0  0  0  0  0  0
  161.8960  203.6340  151.4530 S   0  0  0  0  0  0  0  0  0  0  0  0
  1 15  1  1  0  0  0
  1 39  1  0  0  0  0
  3  6  1  0  0  0  0
  4  1  1  6  0  0  0
  4 14  1  0  0  0  0
  4  9  1  0  0  0  0
  5  2  1  6  0  0  0
  5  8  1  0  0  0  0
  7 10  1  6  0  0  0
  7 13  1  0  0  0  0
  7  8  1  0  0  0  0
  8  3  1  6  0  0  0
  9 10  1  1  0  0  0
  9  5  1  0  0  0  0
 11  6  1  0  0  0  0
 12  2  1  0  0  0  0
 13 11  1  0  0  0  0
 14 12  1  0  0  0  0
 16 15  1  0  0  0  0
 17 16  1  0  0  0  0
 17 18  1  0  0  0  0
 17 19  1  0  0  0  0
 20 17  1  0  0  0  0
 21 23  2  0  0  0  0
 22 21  1  0  0  0  0
 23 20  1  0  0  0  0
 24 21  1  0  0  0  0
 25 24  1  0  0  0  0
 26 28  1  0  0  0  0
 27 26  2  0  0  0  0
 28 25  1  0  0  0  0
 29 26  1  0  0  0  0
 30 29  1  0  0  0  0
 31 33  1  0  0  0  0
 32 31  1  0  0  0  0
 34 33  1  6  0  0  0
 35 32  1  6  0  0  0
 35 36  1  0  0  0  0
 35 34  1  0  0  0  0
 36 34  1  0  0  0  0
 36 30  1  1  0  0  0
 37 38  1  0  0  0  0
 38 20  1  0  0  0  0
 41 42  2  0  0  0  0
 42 40  1  0  0  0  0
 42 39  1  0  0  0  0
 44 48  1  0  0  0  0
 45 40  1  6  0  0  0
 45 46  1  0  0  0  0
 46 48  1  0  0  0  0
 46 43  2  0  0  0  0
 47 45  1  0  0  0  0
 47 44  1  0  0  0  0
M  END
>  <MODEL>
7

>  <REMARK>
 VINA RESULT:      -5.2      3.517      5.652
  Name = 
  15 active torsions:
  status: ('A' for Active; 'I' for Inactive)
    1  A    between atoms: C_1  and  C_4
    2  A    between atoms: C_1  and  C_17
    3  A    between atoms: C_5  and  C_30
    4  A    between atoms: C_5  and  C_33
    5  A    between atoms: C_10  and  N_22
    6  A    between atoms: C_11  and  C_12
    7  A    between atoms: C_12  and  C_30
    8  A    between atoms: C_12  and  C_40
    9  A    between atoms: C_17  and  N_36
   10  A    between atoms: N_22  and  C_33
   11  A    between atoms: N_22  and  C_38
   12  A    between atoms: C_28  and  N_34
   13  A    between atoms: C_29  and  C_32
   14  A    between atoms: C_32  and  N_47
   15  A    between atoms: C_40  and  C_46
                            x       y       z     vdW  Elec       q    Type
                         _______ _______ _______ _____ _____    ______ ____

>  <TORSDO>
F 15

$$$$
=
 OpenBabel11072409563D

 48 53  0  0  1  0  0  0  0  0999 V2000
  162.2010  209.7790  150.4070 C   0  0  1  0  0  3  0  0  0  0  0  0
  161.2800  206.4250  147.8250 C   0  0  0  0  0  2  0  0  0  0  0  0
  160.9600  204.1100  149.2120 O   0  0  0  0  0  0  0  0  0  0  0  0
  161.8390  208.6180  149.4620 C   0  0  2  0  0  3  0  0  0  0  0  0
  160.4280  206.5070  149.1060 C   0  0  1  0  0  3  0  0  0  0  0  0
  160.7150  202.9600  149.9850 C   0  0  0  0  0  2  0  0  0  0  0  0
  160.9610  205.4440  151.2770 C   0  0  2  0  0  3  0  0  0  0  0  0
  160.3410  205.1890  149.8880 C   0  0  2  0  0  3  0  0  0  0  0  0
  160.9190  207.5680  150.1060 C   0  0  1  0  0  3  0  0  0  0  0  0
  161.5960  206.8150  151.2370 C   0  0  0  0  0  2  0  0  0  0  0  0
  161.5410  202.9790  151.2860 C   0  0  0  0  0  2  0  0  0  0  0  0
  162.7580  206.6290  148.1360 C   0  0  0  0  0  2  0  0  0  0  0  0
  162.0150  204.3950  151.6340 C   0  0  0  0  0  2  0  0  0  0  0  0
  163.0280  208.0360  148.6710 C   0  0  0  0  0  2  0  0  0  0  0  0
  161.6100  211.1350  150.0250 C   0  0  0  0  0  2  0  0  0  0  0  0
  161.9270  211.4420  148.5730 C   0  0  0  0  0  2  0  0  0  0  0  0
  161.2080  212.6880  148.0660 C   0  0  0  0  0  0  0  0  0  0  0  0
  159.8250  212.4770  148.1000 O   0  0  0  0  0  1  0  0  0  0  0  0
  161.5150  213.7690  148.8940 O   0  0  0  0  0  1  0  0  0  0  0  0
  161.6560  212.9730  146.6960 N   0  0  0  0  0  0  0  0  0  0  0  0
  159.8670  213.0690  144.9950 C   0  0  0  0  0  0  0  0  0  0  0  0
  159.4390  214.4530  145.3490 C   0  0  0  0  0  1  0  0  0  0  0  0
  160.9090  212.4600  145.5730 C   0  0  0  0  0  3  0  0  0  0  0  0
  159.1540  212.3780  143.8870 C   0  0  0  0  0  2  0  0  0  0  0  0
  159.8320  212.6340  142.5500 C   0  0  0  0  0  2  0  0  0  0  0  0
  158.7920  211.8750  140.3710 C   0  0  0  0  0  0  0  0  0  0  0  0
  159.7520  211.0860  140.1460 O   0  0  0  0  0  0  0  0  0  0  0  0
  158.8270  212.7450  141.5050 N   0  0  0  0  0  2  0  0  0  0  0  0
  157.6500  211.8890  139.5120 N   0  0  0  0  0  2  0  0  0  0  0  0
  157.5510  211.0470  138.3310 C   0  0  0  0  0  2  0  0  0  0  0  0
  153.8050  208.9930  139.4210 N   0  0  0  0  0  2  0  0  0  0  0  0
  155.1140  208.4200  139.1370 C   0  0  0  0  0  2  0  0  0  0  0  0
  153.9940  210.4300  139.3170 C   0  0  0  0  0  2  0  0  0  0  0  0
  155.4640  210.6990  139.5210 C   0  0  1  0  0  3  0  0  0  0  0  0
  156.1500  209.3960  139.4550 N   0  0  2  0  0  0  0  0  0  0  0  0
  156.2140  210.3310  138.3220 C   0  0  2  0  0  3  0  0  0  0  0  0
  163.1880  213.9050  145.0330 C   0  0  0  0  0  1  0  0  0  0  0  0
  162.8850  213.7420  146.5060 C   0  0  0  0  0  2  0  0  0  0  0  0
  161.9600  209.4400  151.8810 C   0  0  0  0  0  2  0  0  0  0  0  0
  161.4870  210.6290  154.1020 N   0  0  0  0  0  2  0  0  0  0  0  0
  160.7910  211.5090  152.0700 O   0  0  0  0  0  0  0  0  0  0  0  0
  161.3770  210.5750  152.6770 C   0  0  0  0  0  0  0  0  0  0  0  0
  160.7660  207.7480  154.6640 O   0  0  0  0  0  0  0  0  0  0  0  0
  162.6520  209.3850  157.2190 C   0  0  0  0  0  2  0  0  0  0  0  0
  162.1880  209.6420  154.9180 C   0  0  2  0  0  3  0  0  0  0  0  0
  161.2480  208.5950  155.4040 C   0  0  0  0  0  0  0  0  0  0  0  0
  162.7500  210.3070  156.0880 N   0  0  0  0  0  2  0  0  0  0  0  0
  161.0450  208.5400  157.1560 S   0  0  0  0  0  0  0  0  0  0  0  0
  1 15  1  6  0  0  0
  1 39  1  0  0  0  0
  2 12  1  0  0  0  0
  3  6  1  0  0  0  0
  4  9  1  0  0  0  0
  4  1  1  1  0  0  0
  5  2  1  6  0  0  0
  5  8  1  0  0  0  0
  5  9  1  0  0  0  0
  6 11  1  0  0  0  0
  7 10  1  6  0  0  0
  7 13  1  0  0  0  0
  8  3  1  6  0  0  0
  8  7  1  0  0  0  0
  9 10  1  1  0  0  0
 11 13  1  0  0  0  0
 12 14  1  0  0  0  0
 14  4  1  0  0  0  0
 16 15  1  0  0  0  0
 17 18  1  0  0  0  0
 17 16  1  0  0  0  0
 17 19  1  0  0  0  0
 20 17  1  0  0  0  0
 21 22  1  0  0  0  0
 21 23  2  0  0  0  0
 23 20  1  0  0  0  0
 24 21  1  0  0  0  0
 25 24  1  0  0  0  0
 26 28  1  0  0  0  0
 27 26  2  0  0  0  0
 28 25  1  0  0  0  0
 29 26  1  0  0  0  0
 30 29  1  0  0  0  0
 32 31  1  0  0  0  0
 33 31  1  0  0  0  0
 34 33  1  6  0  0  0
 35 32  1  6  0  0  0
 35 34  1  0  0  0  0
 36 30  1  1  0  0  0
 36 35  1  0  0  0  0
 36 34  1  0  0  0  0
 37 38  1  0  0  0  0
 38 20  1  0  0  0  0
 39 42  1  0  0  0  0
 41 42  2  0  0  0  0
 42 40  1  0  0  0  0
 43 46  2  0  0  0  0
 45 40  1  6  0  0  0
 45 46  1  0  0  0  0
 45 47  1  0  0  0  0
 46 48  1  0  0  0  0
 47 44  1  0  0  0  0
 48 44  1  0  0  0  0
M  END
>  <MODEL>
8

>  <REMARK>
 VINA RESULT:      -5.0      1.950      2.588
  Name = 
  15 active torsions:
  status: ('A' for Active; 'I' for Inactive)
    1  A    between atoms: C_1  and  C_4
    2  A    between atoms: C_1  and  C_17
    3  A    between atoms: C_5  and  C_30
    4  A    between atoms: C_5  and  C_33
    5  A    between atoms: C_10  and  N_22
    6  A    between atoms: C_11  and  C_12
    7  A    between atoms: C_12  and  C_30
    8  A    between atoms: C_12  and  C_40
    9  A    between atoms: C_17  and  N_36
   10  A    between atoms: N_22  and  C_33
   11  A    between atoms: N_22  and  C_38
   12  A    between atoms: C_28  and  N_34
   13  A    between atoms: C_29  and  C_32
   14  A    between atoms: C_32  and  N_47
   15  A    between atoms: C_40  and  C_46
                            x       y       z     vdW  Elec       q    Type
                         _______ _______ _______ _____ _____    ______ ____

>  <TORSDO>
F 15

$$$$
=
 OpenBabel11072409563D

 48 53  0  0  1  0  0  0  0  0999 V2000
  160.3170  211.5410  152.3280 C   0  0  1  0  0  3  0  0  0  0  0  0
  158.4370  210.6810  156.1340 C   0  0  0  0  0  2  0  0  0  0  0  0
  156.3070  212.2970  156.6240 O   0  0  0  0  0  0  0  0  0  0  0  0
  159.6530  211.1830  153.6700 C   0  0  2  0  0  3  0  0  0  0  0  0
  157.4580  210.8960  154.9640 C   0  0  1  0  0  3  0  0  0  0  0  0
  155.1610  213.0960  156.7860 C   0  0  0  0  0  2  0  0  0  0  0  0
  156.4500  213.0540  154.2900 C   0  0  2  0  0  3  0  0  0  0  0  0
  156.3150  211.8730  155.2730 C   0  0  2  0  0  3  0  0  0  0  0  0
  158.1330  211.4150  153.6830 C   0  0  1  0  0  3  0  0  0  0  0  0
  157.7680  212.8840  153.5670 C   0  0  0  0  0  2  0  0  0  0  0  0
  155.3250  214.4530  156.0750 C   0  0  0  0  0  2  0  0  0  0  0  0
  159.5070  211.7660  156.1600 C   0  0  0  0  0  2  0  0  0  0  0  0
  156.4250  214.4030  155.0080 C   0  0  0  0  0  2  0  0  0  0  0  0
  160.3960  211.7030  154.9170 C   0  0  0  0  0  2  0  0  0  0  0  0
  161.1120  210.4110  151.6750 C   0  0  0  0  0  2  0  0  0  0  0  0
  160.3930  209.0910  151.8840 C   0  0  0  0  0  2  0  0  0  0  0  0
  161.3420  207.8970  151.8650 C   0  0  0  0  0  0  0  0  0  0  0  0
  161.0600  207.0930  150.7560 O   0  0  0  0  0  1  0  0  0  0  0  0
  162.6570  208.3520  151.7640 O   0  0  0  0  0  1  0  0  0  0  0  0
  161.1770  207.1370  153.1120 N   0  0  0  0  0  0  0  0  0  0  0  0
  161.3100  204.7240  152.5970 C   0  0  0  0  0  0  0  0  0  0  0  0
  162.7430  204.7690  152.1850 C   0  0  0  0  0  1  0  0  0  0  0  0
  160.6570  205.7920  153.0710 C   0  0  0  0  0  3  0  0  0  0  0  0
  160.6110  203.4110  152.5570 C   0  0  0  0  0  2  0  0  0  0  0  0
  161.2020  202.5040  151.4900 C   0  0  0  0  0  2  0  0  0  0  0  0
  161.1500  202.3140  148.9660 C   0  0  0  0  0  0  0  0  0  0  0  0
  161.8060  201.2350  148.9980 O   0  0  0  0  0  0  0  0  0  0  0  0
  160.9060  203.0430  150.1720 N   0  0  0  0  0  2  0  0  0  0  0  0
  160.6240  202.8040  147.7320 N   0  0  0  0  0  2  0  0  0  0  0  0
  160.8450  202.1290  146.4640 C   0  0  0  0  0  2  0  0  0  0  0  0
  161.7090  205.8090  144.1960 N   0  0  0  0  0  2  0  0  0  0  0  0
  160.4210  205.1930  144.4860 C   0  0  0  0  0  2  0  0  0  0  0  0
  162.6860  204.9670  144.8660 C   0  0  0  0  0  2  0  0  0  0  0  0
  161.9570  204.2260  145.9580 C   0  0  1  0  0  3  0  0  0  0  0  0
  160.5160  204.4300  145.7250 N   0  0  2  0  0  0  0  0  0  0  0  0
  161.1530  203.1480  145.3850 C   0  0  2  0  0  3  0  0  0  0  0  0
  160.6010  207.2930  155.4830 C   0  0  0  0  0  1  0  0  0  0  0  0
  161.5080  207.7880  154.3790 C   0  0  0  0  0  2  0  0  0  0  0  0
  159.3460  212.2050  151.3460 C   0  0  0  0  0  2  0  0  0  0  0  0
  159.9990  213.7310  149.3920 N   0  0  0  0  0  2  0  0  0  0  0  0
  160.1110  214.4490  151.5960 O   0  0  0  0  0  0  0  0  0  0  0  0
  159.8420  213.5140  150.7970 C   0  0  0  0  0  0  0  0  0  0  0  0
  161.7860  211.7110  148.0270 O   0  0  0  0  0  0  0  0  0  0  0  0
  159.0030  212.8510  146.0970 C   0  0  0  0  0  2  0  0  0  0  0  0
  159.6700  212.7510  148.3610 C   0  0  2  0  0  3  0  0  0  0  0  0
  160.8770  212.3910  147.5690 C   0  0  0  0  0  0  0  0  0  0  0  0
  158.7000  213.3380  147.4420 N   0  0  0  0  0  2  0  0  0  0  0  0
  160.8060  212.8410  145.8640 S   0  0  0  0  0  0  0  0  0  0  0  0
  1 39  1  6  0  0  0
  2 12  1  0  0  0  0
  3  6  1  0  0  0  0
  4  1  1  6  0  0  0
  4  9  1  0  0  0  0
  4 14  1  0  0  0  0
  5  8  1  0  0  0  0
  5  2  1  1  0  0  0
  7 10  1  1  0  0  0
  7 13  1  0  0  0  0
  7  8  1  0  0  0  0
  8  3  1  1  0  0  0
  9 10  1  1  0  0  0
  9  5  1  0  0  0  0
 11  6  1  0  0  0  0
 13 11  1  0  0  0  0
 14 12  1  0  0  0  0
 15 16  1  0  0  0  0
 15  1  1  0  0  0  0
 17 16  1  0  0  0  0
 17 20  1  0  0  0  0
 18 17  1  0  0  0  0
 19 17  1  0  0  0  0
 20 38  1  0  0  0  0
 21 23  2  0  0  0  0
 22 21  1  0  0  0  0
 23 20  1  0  0  0  0
 24 21  1  0  0  0  0
 25 24  1  0  0  0  0
 26 27  2  0  0  0  0
 26 28  1  0  0  0  0
 28 25  1  0  0  0  0
 29 26  1  0  0  0  0
 30 29  1  0  0  0  0
 31 32  1  0  0  0  0
 31 33  1  0  0  0  0
 34 33  1  6  0  0  0
 35 32  1  6  0  0  0
 35 34  1  0  0  0  0
 36 35  1  0  0  0  0
 36 34  1  0  0  0  0
 36 30  1  1  0  0  0
 38 37  1  0  0  0  0
 40 42  1  0  0  0  0
 42 39  1  0  0  0  0
 42 41  2  0  0  0  0
 44 47  1  0  0  0  0
 45 40  1  1  0  0  0
 46 43  2  0  0  0  0
 46 45  1  0  0  0  0
 47 45  1  0  0  0  0
 48 44  1  0  0  0  0
 48 46  1  0  0  0  0
M  END
>  <MODEL>
9

>  <REMARK>
 VINA RESULT:      -4.8      4.630      9.468
  Name = 
  15 active torsions:
  status: ('A' for Active; 'I' for Inactive)
    1  A    between atoms: C_1  and  C_4
    2  A    between atoms: C_1  and  C_17
    3  A    between atoms: C_5  and  C_30
    4  A    between atoms: C_5  and  C_33
    5  A    between atoms: C_10  and  N_22
    6  A    between atoms: C_11  and  C_12
    7  A    between atoms: C_12  and  C_30
    8  A    between atoms: C_12  and  C_40
    9  A    between atoms: C_17  and  N_36
   10  A    between atoms: N_22  and  C_33
   11  A    between atoms: N_22  and  C_38
   12  A    between atoms: C_28  and  N_34
   13  A    between atoms: C_29  and  C_32
   14  A    between atoms: C_32  and  N_47
   15  A    between atoms: C_40  and  C_46
                            x       y       z     vdW  Elec       q    Type
                         _______ _______ _______ _____ _____    ______ ____

>  <TORSDO>
F 15

$$$$
