=
 OpenBabel11072415173D

 58 62  0  0  1  0  0  0  0  0999 V2000
  162.1330  213.9680  149.3700 O   0  0  0  0  0  1  0  0  0  0  0  0
  161.8090  210.7680  150.1700 C   0  0  1  0  0  3  0  0  0  0  0  0
  160.9980  213.2000  149.1140 C   0  0  1  0  0  3  0  0  0  0  0  0
  161.4000  211.9620  148.2890 C   0  0  1  0  0  3  0  0  0  0  0  0
  161.1250  210.7400  148.9460 O   0  0  0  0  0  0  0  0  0  0  0  0
  161.0880  211.6930  151.1590 C   0  0  0  0  0  2  0  0  0  0  0  0
  160.3130  212.7900  150.4280 C   0  0  1  0  0  3  0  0  0  0  0  0
  161.9080  209.3590  150.7500 C   0  0  2  0  0  0  0  0  0  0  0  0
  160.9050  208.5160  150.2490 O   0  0  0  0  0  0  0  0  0  0  0  0
  162.0210  209.2260  152.1340 O   0  0  0  0  0  1  0  0  0  0  0  0
  162.2360  208.1510  149.9460 C   0  0  1  0  0  3  0  0  0  0  0  0
  162.4270  207.4480  147.4810 N   0  0  0  0  0  2  0  0  0  0  0  0
  161.5310  203.6750  147.4750 C   0  0  0  0  0  3  0  0  0  0  0  0
  161.2300  204.2680  148.7010 C   0  0  0  0  0  0  0  0  0  0  0  0
  162.1440  204.9030  146.4930 S   0  0  0  0  0  0  0  0  0  0  0  0
  161.4840  205.6020  148.8040 N   0  0  0  0  0  0  0  0  0  0  0  0
  162.0000  206.0950  147.6610 C   0  0  0  0  0  0  0  0  0  0  0  0
  160.6700  203.4930  149.8390 C   0  0  0  0  0  1  0  0  0  0  0  0
  162.8590  209.6130  148.1770 O   0  0  0  0  0  0  0  0  0  0  0  0
  162.5320  208.4460  148.5030 C   0  0  0  0  0  0  0  0  0  0  0  0
  160.0440  213.9620  151.3700 C   0  0  0  0  0  2  0  0  0  0  0  0
  157.6510  213.6190  152.0050 O   0  0  0  0  0  1  0  0  0  0  0  0
  158.9830  213.6530  152.4220 C   0  0  1  0  0  0  0  0  0  0  0  0
  159.3570  212.9310  153.7120 C   0  0  1  0  0  3  0  0  0  0  0  0
  159.1610  214.4390  153.6990 C   0  0  0  0  0  2  0  0  0  0  0  0
  157.6720  211.2620  153.5010 O   0  0  0  0  0  1  0  0  0  0  0  0
  158.1600  212.2500  154.3550 C   0  0  1  0  0  3  0  0  0  0  0  0
  158.5670  211.6470  155.6160 N   0  0  0  0  0  2  0  0  0  0  0  0
  159.8170  210.9780  155.8200 C   0  0  0  0  0  0  0  0  0  0  0  0
  161.4090  209.1110  155.3780 C   0  0  1  0  0  3  0  0  0  0  0  0
  161.9960  210.8100  157.0590 N   0  0  0  0  0  0  0  0  0  0  0  0
  160.0840  209.8120  155.2250 C   0  0  0  0  0  3  0  0  0  0  0  0
  160.8160  211.5550  156.7380 C   0  0  0  0  0  0  0  0  0  0  0  0
  162.2730  209.6840  156.4770 C   0  0  0  0  0  3  0  0  0  0  0  0
  160.6290  212.6860  157.2600 O   0  0  0  0  0  0  0  0  0  0  0  0
  161.1810  207.6250  155.6020 C   0  0  0  0  0  2  0  0  0  0  0  0
  160.3680  207.0130  154.4700 C   0  0  0  0  0  2  0  0  0  0  0  0
  160.7580  205.0110  153.2330 O   0  0  0  0  0  0  0  0  0  0  0  0
  161.2200  206.1050  153.6480 C   0  0  0  0  0  0  0  0  0  0  0  0
  162.5360  206.4510  153.3730 O   0  0  0  0  0  1  0  0  0  0  0  0
  160.7280  212.0040  146.9200 C   0  0  0  0  0  2  0  0  0  0  0  0
  160.5140  213.4420  146.4330 C   0  0  1  0  0  3  0  0  0  0  0  0
  161.3190  213.8290  145.1750 C   0  0  1  0  0  3  0  0  0  0  0  0
  162.6370  214.4530  145.5980 C   0  0  0  0  0  1  0  0  0  0  0  0
  161.6110  212.6770  144.2220 C   0  0  0  0  0  2  0  0  0  0  0  0
  161.7740  213.2080  142.8090 C   0  0  0  0  0  2  0  0  0  0  0  0
  162.0750  212.0690  141.8460 C   0  0  1  0  0  3  0  0  0  0  0  0
  160.8420  211.1990  141.6920 C   0  0  0  0  0  1  0  0  0  0  0  0
  162.5550  212.6030  140.4960 C   0  0  0  0  0  3  0  0  0  0  0  0
  163.2450  211.6220  139.7790 O   0  0  0  0  0  1  0  0  0  0  0  0
  163.3700  213.7140  140.6810 O   0  0  0  0  0  1  0  0  0  0  0  0
  159.0110  213.6720  146.2400 C   0  0  1  0  0  3  0  0  0  0  0  0
  158.0540  214.2430  144.0100 O   0  0  0  0  0  0  0  0  0  0  0  0
  158.5350  213.2730  144.8790 C   0  0  0  0  0  0  0  0  0  0  0  0
  158.5590  212.0650  144.5220 O   0  0  0  0  0  1  0  0  0  0  0  0
  158.2600  213.0400  147.2370 O   0  0  0  0  0  0  0  0  0  0  0  0
  157.8550  214.0710  148.0870 C   0  0  0  0  0  2  0  0  0  0  0  0
  156.4130  213.8570  148.4880 C   0  0  0  0  0  1  0  0  0  0  0  0
  2  8  1  0  0  0  0
  2  6  1  1  0  0  0
  3  1  1  1  0  0  0
  3  7  1  0  0  0  0
  4 41  1  6  0  0  0
  4  5  1  0  0  0  0
  4  3  1  0  0  0  0
  5  2  1  0  0  0  0
  7  6  1  0  0  0  0
  7 21  1  1  0  0  0
  8 10  1  1  0  0  0
  9  8  1  0  0  0  0
 11 20  1  6  0  0  0
 11  9  1  0  0  0  0
 11  8  1  0  0  0  0
 12 17  1  0  0  0  0
 12 20  1  0  0  0  0
 13 14  2  0  0  0  0
 14 16  1  0  0  0  0
 14 18  1  0  0  0  0
 15 13  1  0  0  0  0
 15 17  1  0  0  0  0
 17 16  2  0  0  0  0
 19 20  2  0  0  0  0
 21 23  1  0  0  0  0
 23 22  1  6  0  0  0
 23 25  1  0  0  0  0
 23 24  1  0  0  0  0
 24 27  1  1  0  0  0
 25 24  1  0  0  0  0
 27 26  1  6  0  0  0
 27 28  1  0  0  0  0
 28 29  1  0  0  0  0
 29 33  1  0  0  0  0
 30 36  1  1  0  0  0
 30 34  1  0  0  0  0
 32 30  1  0  0  0  0
 32 29  2  0  0  0  0
 33 31  1  0  0  0  0
 33 35  2  0  0  0  0
 34 31  2  0  0  0  0
 37 36  1  0  0  0  0
 38 39  2  0  0  0  0
 39 37  1  0  0  0  0
 40 39  1  0  0  0  0
 42 41  1  6  0  0  0
 43 44  1  1  0  0  0
 43 42  1  0  0  0  0
 45 43  1  0  0  0  0
 46 45  1  0  0  0  0
 47 48  1  6  0  0  0
 47 46  1  0  0  0  0
 49 51  1  0  0  0  0
 49 47  1  0  0  0  0
 50 49  1  0  0  0  0
 52 54  1  6  0  0  0
 52 42  1  0  0  0  0
 52 56  1  0  0  0  0
 53 54  2  0  0  0  0
 55 54  1  0  0  0  0
 56 57  1  0  0  0  0
 57 58  1  0  0  0  0
M  END
>  <MODEL>
1

>  <REMARK>
 VINA RESULT:      -5.1      0.000      0.000
  Name = 
  21 active torsions:
  status: ('A' for Active; 'I' for Inactive)
    1  A    between atoms: C_2  and  C_32
    2  A    between atoms: C_2  and  C_34
    3  A    between atoms: C_3  and  N_54
    4  A    between atoms: C_5  and  C_10
    5  A    between atoms: C_6  and  C_48
    6  A    between atoms: C_7  and  C_9
    7  A    between atoms: C_7  and  C_32
    8  A    between atoms: C_7  and  O_53
    9  A    between atoms: C_8  and  C_20
   10  A    between atoms: C_8  and  C_58
   11  A    between atoms: C_13  and  O_53
   12  A    between atoms: C_17  and  C_35
   13  A    between atoms: C_17  and  C_58
   14  A    between atoms: C_21  and  C_23
   15  A    between atoms: C_21  and  C_48
   16  A    between atoms: C_24  and  C_29
   17  A    between atoms: C_24  and  C_44
   18  A    between atoms: C_32  and  C_35
   19  A    between atoms: C_39  and  C_55
   20  A    between atoms: C_49  and  C_56
   21  A    between atoms: N_54  and  C_55
                            x       y       z     vdW  Elec       q    Type
                         _______ _______ _______ _____ _____    ______ ____

>  <TORSDO>
F 21

$$$$
=
 OpenBabel11072415173D

 58 62  0  0  1  0  0  0  0  0999 V2000
  159.6370  209.4490  151.4410 O   0  0  0  0  0  1  0  0  0  0  0  0
  161.7220  211.0730  149.4400 C   0  0  1  0  0  3  0  0  0  0  0  0
  161.0270  209.3480  151.4970 C   0  0  1  0  0  3  0  0  0  0  0  0
  161.5590  208.9170  150.1160 C   0  0  1  0  0  3  0  0  0  0  0  0
  162.4300  209.8660  149.5330 O   0  0  0  0  0  0  0  0  0  0  0  0
  161.6090  211.7290  150.8220 C   0  0  0  0  0  2  0  0  0  0  0  0
  161.6510  210.6830  151.9370 C   0  0  1  0  0  3  0  0  0  0  0  0
  162.4210  212.0210  148.4670 C   0  0  2  0  0  0  0  0  0  0  0  0
  161.9540  211.8590  147.1550 O   0  0  0  0  0  0  0  0  0  0  0  0
  163.8140  212.0770  148.4940 O   0  0  0  0  0  1  0  0  0  0  0  0
  161.7330  213.1240  147.7440 C   0  0  1  0  0  3  0  0  0  0  0  0
  159.2510  213.3450  147.1160 N   0  0  0  0  0  2  0  0  0  0  0  0
  159.2260  213.3200  143.2380 C   0  0  0  0  0  3  0  0  0  0  0  0
  160.4740  212.9540  143.7410 C   0  0  0  0  0  0  0  0  0  0  0  0
  158.2360  213.5910  144.5770 S   0  0  0  0  0  0  0  0  0  0  0  0
  160.5870  212.9070  145.0970 N   0  0  0  0  0  0  0  0  0  0  0  0
  159.4290  213.2420  145.7000 C   0  0  0  0  0  0  0  0  0  0  0  0
  161.6240  212.6410  142.8540 C   0  0  0  0  0  1  0  0  0  0  0  0
  159.9610  213.3140  149.3180 O   0  0  0  0  0  0  0  0  0  0  0  0
  160.2830  213.2740  148.1060 C   0  0  0  0  0  0  0  0  0  0  0  0
  161.0390  211.2520  153.2160 C   0  0  0  0  0  2  0  0  0  0  0  0
  162.3090  210.5750  155.2590 O   0  0  0  0  0  1  0  0  0  0  0  0
  161.2160  210.3360  154.4230 C   0  0  1  0  0  0  0  0  0  0  0  0
  160.0340  209.5530  154.9820 C   0  0  1  0  0  3  0  0  0  0  0  0
  161.0600  208.8720  154.0910 C   0  0  0  0  0  2  0  0  0  0  0  0
  161.4390  208.4380  156.5480 O   0  0  0  0  0  1  0  0  0  0  0  0
  160.2470  209.1510  156.4330 C   0  0  1  0  0  3  0  0  0  0  0  0
  160.3120  210.3470  157.2610 N   0  0  0  0  0  2  0  0  0  0  0  0
  159.5390  211.5300  157.0250 C   0  0  0  0  0  0  0  0  0  0  0  0
  157.3750  212.6940  156.6000 C   0  0  1  0  0  3  0  0  0  0  0  0
  159.4590  214.0030  156.5930 N   0  0  0  0  0  0  0  0  0  0  0  0
  158.2230  211.4640  156.7990 C   0  0  0  0  0  3  0  0  0  0  0  0
  160.2050  212.8450  156.9810 C   0  0  0  0  0  0  0  0  0  0  0  0
  158.1790  213.9550  156.3860 C   0  0  0  0  0  3  0  0  0  0  0  0
  161.4280  212.9520  157.2600 O   0  0  0  0  0  0  0  0  0  0  0  0
  156.4160  212.4730  155.4420 C   0  0  0  0  0  2  0  0  0  0  0  0
  155.8180  213.7870  154.9600 C   0  0  0  0  0  2  0  0  0  0  0  0
  154.4540  213.5400  153.0190 O   0  0  0  0  0  1  0  0  0  0  0  0
  155.6040  213.7510  153.4840 C   0  0  0  0  0  0  0  0  0  0  0  0
  156.6800  213.9160  152.6230 O   0  0  0  0  0  0  0  0  0  0  0  0
  162.2340  207.5530  150.2180 C   0  0  0  0  0  2  0  0  0  0  0  0
  161.2520  206.4080  149.9420 C   0  0  1  0  0  3  0  0  0  0  0  0
  161.2090  205.9270  148.4760 C   0  0  1  0  0  3  0  0  0  0  0  0
  160.0710  206.6260  147.7550 C   0  0  0  0  0  1  0  0  0  0  0  0
  162.4950  206.1530  147.6910 C   0  0  0  0  0  2  0  0  0  0  0  0
  162.2100  206.0600  146.2020 C   0  0  0  0  0  2  0  0  0  0  0  0
  162.3570  204.6230  145.7230 C   0  0  1  0  0  3  0  0  0  0  0  0
  161.9100  203.6770  146.8210 C   0  0  0  0  0  1  0  0  0  0  0  0
  161.5730  204.3920  144.4310 C   0  0  0  0  0  3  0  0  0  0  0  0
  161.4820  205.5650  143.6770 O   0  0  0  0  0  1  0  0  0  0  0  0
  160.2990  203.9170  144.7190 O   0  0  0  0  0  1  0  0  0  0  0  0
  161.5590  205.2600  150.9100 C   0  0  1  0  0  3  0  0  0  0  0  0
  160.5270  205.9320  153.0780 O   0  0  0  0  0  1  0  0  0  0  0  0
  161.6770  205.7150  152.3300 C   0  0  0  0  0  0  0  0  0  0  0  0
  162.8090  205.9120  152.8460 O   0  0  0  0  0  0  0  0  0  0  0  0
  160.6270  204.2240  150.7930 O   0  0  0  0  0  0  0  0  0  0  0  0
  161.3730  203.1140  150.3940 C   0  0  0  0  0  2  0  0  0  0  0  0
  160.4810  201.8930  150.3570 C   0  0  0  0  0  1  0  0  0  0  0  0
  2  5  1  0  0  0  0
  2  6  1  1  0  0  0
  3  1  1  6  0  0  0
  3  7  1  0  0  0  0
  4 41  1  1  0  0  0
  4  3  1  0  0  0  0
  5  4  1  0  0  0  0
  6  7  1  0  0  0  0
  7 21  1  1  0  0  0
  8 10  1  1  0  0  0
  8  2  1  0  0  0  0
  9 11  1  0  0  0  0
  9  8  1  0  0  0  0
 11 20  1  1  0  0  0
 11  8  1  0  0  0  0
 12 20  1  0  0  0  0
 13 14  2  0  0  0  0
 13 15  1  0  0  0  0
 14 16  1  0  0  0  0
 15 17  1  0  0  0  0
 16 17  2  0  0  0  0
 17 12  1  0  0  0  0
 18 14  1  0  0  0  0
 20 19  2  0  0  0  0
 21 23  1  0  0  0  0
 23 24  1  0  0  0  0
 23 22  1  1  0  0  0
 24 27  1  1  0  0  0
 25 23  1  0  0  0  0
 25 24  1  0  0  0  0
 27 26  1  6  0  0  0
 27 28  1  0  0  0  0
 29 28  1  0  0  0  0
 30 36  1  6  0  0  0
 30 32  1  0  0  0  0
 31 33  1  0  0  0  0
 32 29  2  0  0  0  0
 33 29  1  0  0  0  0
 33 35  2  0  0  0  0
 34 31  2  0  0  0  0
 34 30  1  0  0  0  0
 37 36  1  0  0  0  0
 38 39  1  0  0  0  0
 39 37  1  0  0  0  0
 40 39  2  0  0  0  0
 42 41  1  6  0  0  0
 42 52  1  0  0  0  0
 43 44  1  6  0  0  0
 43 42  1  0  0  0  0
 45 43  1  0  0  0  0
 46 45  1  0  0  0  0
 47 46  1  0  0  0  0
 47 48  1  1  0  0  0
 49 51  1  0  0  0  0
 49 47  1  0  0  0  0
 50 49  1  0  0  0  0
 52 56  1  1  0  0  0
 52 54  1  0  0  0  0
 54 55  2  0  0  0  0
 54 53  1  0  0  0  0
 57 56  1  0  0  0  0
 58 57  1  0  0  0  0
M  END
>  <MODEL>
2

>  <REMARK>
 VINA RESULT:      -4.1      3.022      7.419
  Name = 
  21 active torsions:
  status: ('A' for Active; 'I' for Inactive)
    1  A    between atoms: C_2  and  C_32
    2  A    between atoms: C_2  and  C_34
    3  A    between atoms: C_3  and  N_54
    4  A    between atoms: C_5  and  C_10
    5  A    between atoms: C_6  and  C_48
    6  A    between atoms: C_7  and  C_9
    7  A    between atoms: C_7  and  C_32
    8  A    between atoms: C_7  and  O_53
    9  A    between atoms: C_8  and  C_20
   10  A    between atoms: C_8  and  C_58
   11  A    between atoms: C_13  and  O_53
   12  A    between atoms: C_17  and  C_35
   13  A    between atoms: C_17  and  C_58
   14  A    between atoms: C_21  and  C_23
   15  A    between atoms: C_21  and  C_48
   16  A    between atoms: C_24  and  C_29
   17  A    between atoms: C_24  and  C_44
   18  A    between atoms: C_32  and  C_35
   19  A    between atoms: C_39  and  C_55
   20  A    between atoms: C_49  and  C_56
   21  A    between atoms: N_54  and  C_55
                            x       y       z     vdW  Elec       q    Type
                         _______ _______ _______ _____ _____    ______ ____

>  <TORSDO>
F 21

$$$$
=
 OpenBabel11072415173D

 58 62  0  0  1  0  0  0  0  0999 V2000
  163.6920  210.9360  152.4450 O   0  0  0  0  0  1  0  0  0  0  0  0
  160.5840  211.9190  151.8430 C   0  0  1  0  0  3  0  0  0  0  0  0
  162.5530  210.2000  152.7710 C   0  0  1  0  0  3  0  0  0  0  0  0
  161.6320  211.0600  153.6590 C   0  0  1  0  0  3  0  0  0  0  0  0
  160.3630  211.2980  153.0820 O   0  0  0  0  0  0  0  0  0  0  0  0
  161.0800  210.8920  150.8170 C   0  0  0  0  0  2  0  0  0  0  0  0
  161.8210  209.7400  151.4990 C   0  0  1  0  0  3  0  0  0  0  0  0
  159.2980  212.5740  151.3460 C   0  0  2  0  0  0  0  0  0  0  0  0
  159.2370  213.9330  151.6900 O   0  0  0  0  0  0  0  0  0  0  0  0
  158.0880  211.9380  151.6250 O   0  0  0  0  0  1  0  0  0  0  0  0
  159.2550  213.6400  150.3080 C   0  0  1  0  0  3  0  0  0  0  0  0
  160.9030  213.7970  148.3420 N   0  0  0  0  0  2  0  0  0  0  0  0
  158.9220  212.4260  145.3030 C   0  0  0  0  0  3  0  0  0  0  0  0
  158.0870  212.6440  146.3990 C   0  0  0  0  0  0  0  0  0  0  0  0
  160.4690  212.8970  145.7850 S   0  0  0  0  0  0  0  0  0  0  0  0
  158.6790  213.1490  147.5160 N   0  0  0  0  0  0  0  0  0  0  0  0
  160.0010  213.3370  147.3320 C   0  0  0  0  0  0  0  0  0  0  0  0
  156.6340  212.3360  146.3600 C   0  0  0  0  0  1  0  0  0  0  0  0
  161.4830  214.4530  150.4850 O   0  0  0  0  0  0  0  0  0  0  0  0
  160.6010  213.9760  149.7310 C   0  0  0  0  0  0  0  0  0  0  0  0
  162.7260  209.0290  150.4950 C   0  0  0  0  0  2  0  0  0  0  0  0
  160.6630  207.7050  150.0080 O   0  0  0  0  0  1  0  0  0  0  0  0
  162.0020  207.9510  149.6950 C   0  0  1  0  0  0  0  0  0  0  0  0
  162.5160  207.5260  148.3240 C   0  0  1  0  0  3  0  0  0  0  0  0
  162.7980  206.6760  149.5530 C   0  0  0  0  0  2  0  0  0  0  0  0
  160.7850  207.8640  146.7240 O   0  0  0  0  0  1  0  0  0  0  0  0
  161.4280  206.8840  147.4780 C   0  0  1  0  0  3  0  0  0  0  0  0
  162.0260  205.8980  146.5900 N   0  0  0  0  0  2  0  0  0  0  0  0
  161.5390  204.5600  146.4310 C   0  0  0  0  0  0  0  0  0  0  0  0
  161.0090  202.2930  147.3230 C   0  0  1  0  0  3  0  0  0  0  0  0
  160.7060  202.7340  144.9210 N   0  0  0  0  0  0  0  0  0  0  0  0
  161.5620  203.6890  147.4450 C   0  0  0  0  0  3  0  0  0  0  0  0
  161.0460  204.1100  145.1160 C   0  0  0  0  0  0  0  0  0  0  0  0
  160.7100  201.8820  145.9000 C   0  0  0  0  0  3  0  0  0  0  0  0
  160.9430  204.9230  144.1590 O   0  0  0  0  0  0  0  0  0  0  0  0
  161.9650  201.3050  147.9710 C   0  0  0  0  0  2  0  0  0  0  0  0
  161.2470  200.4200  148.9800 C   0  0  0  0  0  2  0  0  0  0  0  0
  159.4090  201.8330  149.5390 O   0  0  0  0  0  0  0  0  0  0  0  0
  160.4530  201.2520  149.9310 C   0  0  0  0  0  0  0  0  0  0  0  0
  160.8880  201.4130  151.2390 O   0  0  0  0  0  1  0  0  0  0  0  0
  161.4900  210.4230  155.0370 C   0  0  0  0  0  2  0  0  0  0  0  0
  160.2900  209.4720  155.1050 C   0  0  1  0  0  3  0  0  0  0  0  0
  160.6360  208.0130  155.4740 C   0  0  1  0  0  3  0  0  0  0  0  0
  160.0570  207.6930  156.8390 C   0  0  0  0  0  1  0  0  0  0  0  0
  160.1460  206.9690  154.4790 C   0  0  0  0  0  2  0  0  0  0  0  0
  161.1940  206.7530  153.4020 C   0  0  0  0  0  2  0  0  0  0  0  0
  161.4450  205.2670  153.1950 C   0  0  1  0  0  3  0  0  0  0  0  0
  160.2530  204.4780  153.7050 C   0  0  0  0  0  1  0  0  0  0  0  0
  161.7340  204.9570  151.7260 C   0  0  0  0  0  3  0  0  0  0  0  0
  160.5570  204.6760  151.0270 O   0  0  0  0  0  1  0  0  0  0  0  0
  162.6120  203.8850  151.6230 O   0  0  0  0  0  1  0  0  0  0  0  0
  159.2490  210.0680  156.0590 C   0  0  1  0  0  3  0  0  0  0  0  0
  158.9370  212.3690  156.9690 O   0  0  0  0  0  0  0  0  0  0  0  0
  159.7610  211.2640  156.8000 C   0  0  0  0  0  0  0  0  0  0  0  0
  160.9330  211.2770  157.2610 O   0  0  0  0  0  1  0  0  0  0  0  0
  158.0530  210.3640  155.3980 O   0  0  0  0  0  0  0  0  0  0  0  0
  157.2840  211.0500  156.3390 C   0  0  0  0  0  2  0  0  0  0  0  0
  155.9550  211.4300  155.7250 C   0  0  0  0  0  1  0  0  0  0  0  0
  2  6  1  6  0  0  0
  2  5  1  0  0  0  0
  3  1  1  6  0  0  0
  3  4  1  0  0  0  0
  4 41  1  1  0  0  0
  5  4  1  0  0  0  0
  6  7  1  0  0  0  0
  7 21  1  6  0  0  0
  7  3  1  0  0  0  0
  8 10  1  1  0  0  0
  8  9  1  0  0  0  0
  8  2  1  0  0  0  0
 11 20  1  1  0  0  0
 11  8  1  0  0  0  0
 11  9  1  0  0  0  0
 12 20  1  0  0  0  0
 13 15  1  0  0  0  0
 13 14  2  0  0  0  0
 14 16  1  0  0  0  0
 15 17  1  0  0  0  0
 17 16  2  0  0  0  0
 17 12  1  0  0  0  0
 18 14  1  0  0  0  0
 20 19  2  0  0  0  0
 23 22  1  1  0  0  0
 23 21  1  0  0  0  0
 24 27  1  6  0  0  0
 24 25  1  0  0  0  0
 24 23  1  0  0  0  0
 25 23  1  0  0  0  0
 27 26  1  6  0  0  0
 28 27  1  0  0  0  0
 29 28  1  0  0  0  0
 29 32  2  0  0  0  0
 30 32  1  0  0  0  0
 30 36  1  6  0  0  0
 31 33  1  0  0  0  0
 31 34  2  0  0  0  0
 33 29  1  0  0  0  0
 34 30  1  0  0  0  0
 35 33  2  0  0  0  0
 36 37  1  0  0  0  0
 37 39  1  0  0  0  0
 38 39  2  0  0  0  0
 39 40  1  0  0  0  0
 42 41  1  1  0  0  0
 42 43  1  0  0  0  0
 42 52  1  0  0  0  0
 43 44  1  1  0  0  0
 45 43  1  0  0  0  0
 46 45  1  0  0  0  0
 47 46  1  0  0  0  0
 47 48  1  6  0  0  0
 49 47  1  0  0  0  0
 50 49  1  0  0  0  0
 51 49  1  0  0  0  0
 52 56  1  6  0  0  0
 52 54  1  0  0  0  0
 54 53  2  0  0  0  0
 54 55  1  0  0  0  0
 56 57  1  0  0  0  0
 58 57  1  0  0  0  0
M  END
>  <MODEL>
3

>  <REMARK>
 VINA RESULT:      -3.9      3.507      9.587
  Name = 
  21 active torsions:
  status: ('A' for Active; 'I' for Inactive)
    1  A    between atoms: C_2  and  C_32
    2  A    between atoms: C_2  and  C_34
    3  A    between atoms: C_3  and  N_54
    4  A    between atoms: C_5  and  C_10
    5  A    between atoms: C_6  and  C_48
    6  A    between atoms: C_7  and  C_9
    7  A    between atoms: C_7  and  C_32
    8  A    between atoms: C_7  and  O_53
    9  A    between atoms: C_8  and  C_20
   10  A    between atoms: C_8  and  C_58
   11  A    between atoms: C_13  and  O_53
   12  A    between atoms: C_17  and  C_35
   13  A    between atoms: C_17  and  C_58
   14  A    between atoms: C_21  and  C_23
   15  A    between atoms: C_21  and  C_48
   16  A    between atoms: C_24  and  C_29
   17  A    between atoms: C_24  and  C_44
   18  A    between atoms: C_32  and  C_35
   19  A    between atoms: C_39  and  C_55
   20  A    between atoms: C_49  and  C_56
   21  A    between atoms: N_54  and  C_55
                            x       y       z     vdW  Elec       q    Type
                         _______ _______ _______ _____ _____    ______ ____

>  <TORSDO>
F 21

$$$$
=
 OpenBabel11072415173D

 58 62  0  0  1  0  0  0  0  0999 V2000
  162.5430  210.3780  153.2870 O   0  0  0  0  0  1  0  0  0  0  0  0
  160.0390  212.4190  152.5450 C   0  0  1  0  0  3  0  0  0  0  0  0
  161.3230  209.9700  152.7490 C   0  0  1  0  0  3  0  0  0  0  0  0
  160.1800  210.4530  153.6630 C   0  0  1  0  0  3  0  0  0  0  0  0
  159.2830  211.3340  153.0150 O   0  0  0  0  0  0  0  0  0  0  0  0
  160.8430  212.0060  151.3050 C   0  0  0  0  0  2  0  0  0  0  0  0
  161.1540  210.5080  151.3190 C   0  0  1  0  0  3  0  0  0  0  0  0
  159.1220  213.5920  152.2070 C   0  0  2  0  0  0  0  0  0  0  0  0
  157.8020  213.3610  152.6220 O   0  0  0  0  0  0  0  0  0  0  0  0
  159.1510  214.0920  150.9050 O   0  0  0  0  0  1  0  0  0  0  0  0
  158.4640  214.4530  153.2260 C   0  0  1  0  0  3  0  0  0  0  0  0
  157.8550  213.9540  155.6720 N   0  0  0  0  0  2  0  0  0  0  0  0
  153.9950  214.3120  155.8030 C   0  0  0  0  0  3  0  0  0  0  0  0
  154.4610  214.3030  154.4890 C   0  0  0  0  0  0  0  0  0  0  0  0
  155.3520  214.1260  156.7890 S   0  0  0  0  0  0  0  0  0  0  0  0
  155.8050  214.1580  154.3270 N   0  0  0  0  0  0  0  0  0  0  0  0
  156.4360  214.0540  155.5140 C   0  0  0  0  0  0  0  0  0  0  0  0
  153.5500  214.4530  153.3250 C   0  0  0  0  0  1  0  0  0  0  0  0
  160.0440  213.9250  154.9230 O   0  0  0  0  0  0  0  0  0  0  0  0
  158.8360  214.1090  154.6400 C   0  0  0  0  0  0  0  0  0  0  0  0
  162.3410  210.2090  150.4070 C   0  0  0  0  0  2  0  0  0  0  0  0
  161.6280  210.2670  148.0120 O   0  0  0  0  0  1  0  0  0  0  0  0
  161.9430  209.4840  149.1250 C   0  0  1  0  0  0  0  0  0  0  0  0
  162.3470  208.0310  148.8980 C   0  0  1  0  0  3  0  0  0  0  0  0
  160.9380  208.3800  149.3500 C   0  0  0  0  0  2  0  0  0  0  0  0
  163.4030  206.7840  147.1660 O   0  0  0  0  0  1  0  0  0  0  0  0
  162.3510  207.6620  147.4230 C   0  0  1  0  0  3  0  0  0  0  0  0
  161.0880  207.0230  147.0830 N   0  0  0  0  0  2  0  0  0  0  0  0
  160.9550  205.6390  146.7350 C   0  0  0  0  0  0  0  0  0  0  0  0
  160.7680  203.2280  147.3420 C   0  0  1  0  0  3  0  0  0  0  0  0
  160.8850  203.8590  144.9650 N   0  0  0  0  0  0  0  0  0  0  0  0
  160.9580  204.6860  147.6710 C   0  0  0  0  0  3  0  0  0  0  0  0
  160.8610  205.2450  145.3170 C   0  0  0  0  0  0  0  0  0  0  0  0
  160.8730  202.9230  145.8660 C   0  0  0  0  0  3  0  0  0  0  0  0
  160.7830  206.1190  144.4140 O   0  0  0  0  0  0  0  0  0  0  0  0
  161.7620  202.3900  148.1280 C   0  0  0  0  0  2  0  0  0  0  0  0
  161.2330  200.9840  148.3690 C   0  0  0  0  0  2  0  0  0  0  0  0
  159.0490  200.9560  149.3280 O   0  0  0  0  0  0  0  0  0  0  0  0
  160.2910  200.9730  149.5260 C   0  0  0  0  0  0  0  0  0  0  0  0
  160.7850  201.0180  150.8220 O   0  0  0  0  0  1  0  0  0  0  0  0
  159.4360  209.2570  154.2480 C   0  0  0  0  0  2  0  0  0  0  0  0
  160.0560  208.7910  155.5700 C   0  0  1  0  0  3  0  0  0  0  0  0
  161.0150  207.5880  155.4510 C   0  0  1  0  0  3  0  0  0  0  0  0
  161.0120  206.8150  156.7570 C   0  0  0  0  0  1  0  0  0  0  0  0
  160.6930  206.6240  154.3150 C   0  0  0  0  0  2  0  0  0  0  0  0
  161.8750  205.7010  154.0750 C   0  0  0  0  0  2  0  0  0  0  0  0
  161.7000  204.9460  152.7650 C   0  0  1  0  0  3  0  0  0  0  0  0
  160.2250  204.8640  152.4230 C   0  0  0  0  0  1  0  0  0  0  0  0
  162.5000  205.6050  151.6410 C   0  0  0  0  0  3  0  0  0  0  0  0
  162.5510  206.9920  151.8020 O   0  0  0  0  0  1  0  0  0  0  0  0
  161.9440  205.2930  150.4070 O   0  0  0  0  0  1  0  0  0  0  0  0
  160.7310  209.9920  156.2420 C   0  0  1  0  0  3  0  0  0  0  0  0
  160.2000  212.2450  157.1690 O   0  0  0  0  0  1  0  0  0  0  0  0
  159.7480  211.0020  156.7440 C   0  0  0  0  0  0  0  0  0  0  0  0
  158.5190  210.7300  156.7920 O   0  0  0  0  0  0  0  0  0  0  0  0
  161.6010  209.5920  157.2610 O   0  0  0  0  0  0  0  0  0  0  0  0
  162.8730  209.9360  156.8010 C   0  0  0  0  0  2  0  0  0  0  0  0
  163.1660  211.3760  157.1560 C   0  0  0  0  0  1  0  0  0  0  0  0
  2  6  1  6  0  0  0
  2  5  1  0  0  0  0
  3  1  1  1  0  0  0
  3  4  1  0  0  0  0
  4 41  1  6  0  0  0
  5  4  1  0  0  0  0
  6  7  1  0  0  0  0
  7 21  1  6  0  0  0
  7  3  1  0  0  0  0
  8 10  1  6  0  0  0
  8  2  1  0  0  0  0
  8  9  1  0  0  0  0
  8 11  1  0  0  0  0
  9 11  1  0  0  0  0
 11 20  1  1  0  0  0
 13 15  1  0  0  0  0
 14 13  2  0  0  0  0
 16 14  1  0  0  0  0
 16 17  2  0  0  0  0
 17 12  1  0  0  0  0
 17 15  1  0  0  0  0
 18 14  1  0  0  0  0
 20 19  2  0  0  0  0
 20 12  1  0  0  0  0
 23 22  1  6  0  0  0
 23 25  1  0  0  0  0
 23 21  1  0  0  0  0
 24 27  1  6  0  0  0
 24 23  1  0  0  0  0
 24 25  1  0  0  0  0
 27 26  1  1  0  0  0
 28 27  1  0  0  0  0
 29 28  1  0  0  0  0
 29 32  2  0  0  0  0
 30 32  1  0  0  0  0
 30 36  1  1  0  0  0
 31 33  1  0  0  0  0
 31 34  2  0  0  0  0
 33 29  1  0  0  0  0
 34 30  1  0  0  0  0
 35 33  2  0  0  0  0
 36 37  1  0  0  0  0
 37 39  1  0  0  0  0
 38 39  2  0  0  0  0
 39 40  1  0  0  0  0
 42 41  1  6  0  0  0
 42 52  1  0  0  0  0
 43 42  1  0  0  0  0
 43 44  1  1  0  0  0
 45 43  1  0  0  0  0
 46 45  1  0  0  0  0
 47 48  1  6  0  0  0
 47 46  1  0  0  0  0
 49 50  1  0  0  0  0
 49 47  1  0  0  0  0
 51 49  1  0  0  0  0
 52 54  1  1  0  0  0
 52 56  1  0  0  0  0
 54 55  2  0  0  0  0
 54 53  1  0  0  0  0
 57 58  1  0  0  0  0
 57 56  1  0  0  0  0
M  END
>  <MODEL>
4

>  <REMARK>
 VINA RESULT:      -3.4      4.271     10.279
  Name = 
  21 active torsions:
  status: ('A' for Active; 'I' for Inactive)
    1  A    between atoms: C_2  and  C_32
    2  A    between atoms: C_2  and  C_34
    3  A    between atoms: C_3  and  N_54
    4  A    between atoms: C_5  and  C_10
    5  A    between atoms: C_6  and  C_48
    6  A    between atoms: C_7  and  C_9
    7  A    between atoms: C_7  and  C_32
    8  A    between atoms: C_7  and  O_53
    9  A    between atoms: C_8  and  C_20
   10  A    between atoms: C_8  and  C_58
   11  A    between atoms: C_13  and  O_53
   12  A    between atoms: C_17  and  C_35
   13  A    between atoms: C_17  and  C_58
   14  A    between atoms: C_21  and  C_23
   15  A    between atoms: C_21  and  C_48
   16  A    between atoms: C_24  and  C_29
   17  A    between atoms: C_24  and  C_44
   18  A    between atoms: C_32  and  C_35
   19  A    between atoms: C_39  and  C_55
   20  A    between atoms: C_49  and  C_56
   21  A    between atoms: N_54  and  C_55
                            x       y       z     vdW  Elec       q    Type
                         _______ _______ _______ _____ _____    ______ ____

>  <TORSDO>
F 21

$$$$
=
 OpenBabel11072415173D

 58 62  0  0  1  0  0  0  0  0999 V2000
  162.0700  209.9910  152.0700 O   0  0  0  0  0  1  0  0  0  0  0  0
  162.1890  212.1880  149.5910 C   0  0  1  0  0  3  0  0  0  0  0  0
  161.0450  210.1980  151.1470 C   0  0  1  0  0  3  0  0  0  0  0  0
  160.6400  211.6850  151.1660 C   0  0  1  0  0  3  0  0  0  0  0  0
  160.8330  212.3320  149.9240 O   0  0  0  0  0  0  0  0  0  0  0  0
  162.4690  210.7560  149.1160 C   0  0  0  0  0  2  0  0  0  0  0  0
  161.4870  209.7630  149.7400 C   0  0  1  0  0  3  0  0  0  0  0  0
  162.5720  213.1850  148.5000 C   0  0  2  0  0  0  0  0  0  0  0  0
  162.5880  212.5890  147.2300 O   0  0  0  0  0  0  0  0  0  0  0  0
  163.7120  213.9650  148.6950 O   0  0  0  0  0  1  0  0  0  0  0  0
  161.6500  213.6280  147.4190 C   0  0  1  0  0  3  0  0  0  0  0  0
  159.5500  212.5580  146.3950 N   0  0  0  0  0  2  0  0  0  0  0  0
  160.3240  212.3400  142.6010 C   0  0  0  0  0  3  0  0  0  0  0  0
  161.4640  212.6670  143.3350 C   0  0  0  0  0  0  0  0  0  0  0  0
  159.0780  212.1470  143.7220 S   0  0  0  0  0  0  0  0  0  0  0  0
  161.3090  212.7460  144.6850 N   0  0  0  0  0  0  0  0  0  0  0  0
  160.0370  212.4900  145.0510 C   0  0  0  0  0  0  0  0  0  0  0  0
  162.7760  212.9240  142.6870 C   0  0  0  0  0  1  0  0  0  0  0  0
  159.7260  212.9880  148.6620 O   0  0  0  0  0  0  0  0  0  0  0  0
  160.2660  213.0560  147.5310 C   0  0  0  0  0  0  0  0  0  0  0  0
  162.0630  208.3500  149.6880 C   0  0  0  0  0  2  0  0  0  0  0  0
  161.3460  208.2450  147.2960 O   0  0  0  0  0  1  0  0  0  0  0  0
  161.5760  207.5490  148.4850 C   0  0  1  0  0  0  0  0  0  0  0  0
  161.8090  206.0440  148.4090 C   0  0  1  0  0  3  0  0  0  0  0  0
  160.4520  206.5960  148.8150 C   0  0  0  0  0  2  0  0  0  0  0  0
  163.0570  205.4300  146.4760 O   0  0  0  0  0  1  0  0  0  0  0  0
  161.7610  205.5270  146.9800 C   0  0  1  0  0  3  0  0  0  0  0  0
  161.1300  204.2150  146.9620 N   0  0  0  0  0  2  0  0  0  0  0  0
  161.0510  203.3460  148.0980 C   0  0  0  0  0  0  0  0  0  0  0  0
  160.7980  202.9460  150.5460 C   0  0  1  0  0  3  0  0  0  0  0  0
  161.2200  201.0320  149.0580 N   0  0  0  0  0  0  0  0  0  0  0  0
  160.9360  203.8340  149.3370 C   0  0  0  0  0  3  0  0  0  0  0  0
  161.1440  201.8870  147.9130 C   0  0  0  0  0  0  0  0  0  0  0  0
  161.0960  201.4910  150.2650 C   0  0  0  0  0  3  0  0  0  0  0  0
  161.1800  201.3890  146.7560 O   0  0  0  0  0  0  0  0  0  0  0  0
  161.6860  203.4620  151.6660 C   0  0  0  0  0  2  0  0  0  0  0  0
  160.9260  204.4130  152.5800 C   0  0  0  0  0  2  0  0  0  0  0  0
  162.7400  205.9590  152.6790 O   0  0  0  0  0  1  0  0  0  0  0  0
  161.5070  205.7850  152.5030 C   0  0  0  0  0  0  0  0  0  0  0  0
  160.6800  206.8750  152.2730 O   0  0  0  0  0  0  0  0  0  0  0  0
  159.1950  211.8270  151.6320 C   0  0  0  0  0  2  0  0  0  0  0  0
  159.0460  211.5360  153.1290 C   0  0  1  0  0  3  0  0  0  0  0  0
  160.1930  212.0690  154.0130 C   0  0  1  0  0  3  0  0  0  0  0  0
  159.7730  213.3870  154.6360 C   0  0  0  0  0  1  0  0  0  0  0  0
  160.6370  211.1240  155.1230 C   0  0  0  0  0  2  0  0  0  0  0  0
  160.8410  209.7290  154.5600 C   0  0  0  0  0  2  0  0  0  0  0  0
  161.5450  208.8440  155.5770 C   0  0  1  0  0  3  0  0  0  0  0  0
  162.2800  209.7140  156.5800 C   0  0  0  0  0  1  0  0  0  0  0  0
  160.5550  207.9070  156.2690 C   0  0  0  0  0  3  0  0  0  0  0  0
  160.8330  206.5700  155.9750 O   0  0  0  0  0  1  0  0  0  0  0  0
  159.2540  208.2130  155.8870 O   0  0  0  0  0  1  0  0  0  0  0  0
  157.6810  212.0570  153.5930 C   0  0  1  0  0  3  0  0  0  0  0  0
  157.8690  211.2290  155.9370 O   0  0  0  0  0  1  0  0  0  0  0  0
  157.1360  211.2950  154.7590 C   0  0  0  0  0  0  0  0  0  0  0  0
  156.0250  210.7070  154.6760 O   0  0  0  0  0  0  0  0  0  0  0  0
  157.7180  213.4280  153.8660 O   0  0  0  0  0  0  0  0  0  0  0  0
  157.0150  214.0220  152.8170 C   0  0  0  0  0  2  0  0  0  0  0  0
  155.5370  214.0250  153.1370 C   0  0  0  0  0  1  0  0  0  0  0  0
  2  6  1  6  0  0  0
  2  5  1  0  0  0  0
  3  4  1  0  0  0  0
  3  1  1  1  0  0  0
  4 41  1  6  0  0  0
  5  4  1  0  0  0  0
  6  7  1  0  0  0  0
  7 21  1  1  0  0  0
  7  3  1  0  0  0  0
  8 10  1  1  0  0  0
  8  2  1  0  0  0  0
  9 11  1  0  0  0  0
  9  8  1  0  0  0  0
 11 20  1  1  0  0  0
 11  8  1  0  0  0  0
 12 20  1  0  0  0  0
 13 14  2  0  0  0  0
 13 15  1  0  0  0  0
 14 16  1  0  0  0  0
 15 17  1  0  0  0  0
 16 17  2  0  0  0  0
 17 12  1  0  0  0  0
 18 14  1  0  0  0  0
 20 19  2  0  0  0  0
 23 22  1  6  0  0  0
 23 25  1  0  0  0  0
 23 21  1  0  0  0  0
 24 27  1  6  0  0  0
 24 23  1  0  0  0  0
 24 25  1  0  0  0  0
 27 26  1  1  0  0  0
 28 27  1  0  0  0  0
 28 29  1  0  0  0  0
 29 32  2  0  0  0  0
 30 36  1  1  0  0  0
 31 34  2  0  0  0  0
 32 30  1  0  0  0  0
 33 29  1  0  0  0  0
 33 31  1  0  0  0  0
 34 30  1  0  0  0  0
 35 33  2  0  0  0  0
 36 37  1  0  0  0  0
 39 37  1  0  0  0  0
 39 38  1  0  0  0  0
 40 39  2  0  0  0  0
 42 41  1  6  0  0  0
 42 52  1  0  0  0  0
 42 43  1  0  0  0  0
 43 44  1  1  0  0  0
 43 45  1  0  0  0  0
 46 45  1  0  0  0  0
 46 47  1  0  0  0  0
 47 49  1  0  0  0  0
 47 48  1  1  0  0  0
 50 49  1  0  0  0  0
 51 49  1  0  0  0  0
 52 56  1  1  0  0  0
 52 54  1  0  0  0  0
 54 53  1  0  0  0  0
 55 54  2  0  0  0  0
 57 58  1  0  0  0  0
 57 56  1  0  0  0  0
M  END
>  <MODEL>
5

>  <REMARK>
 VINA RESULT:      -3.2      3.172      9.093
  Name = 
  21 active torsions:
  status: ('A' for Active; 'I' for Inactive)
    1  A    between atoms: C_2  and  C_32
    2  A    between atoms: C_2  and  C_34
    3  A    between atoms: C_3  and  N_54
    4  A    between atoms: C_5  and  C_10
    5  A    between atoms: C_6  and  C_48
    6  A    between atoms: C_7  and  C_9
    7  A    between atoms: C_7  and  C_32
    8  A    between atoms: C_7  and  O_53
    9  A    between atoms: C_8  and  C_20
   10  A    between atoms: C_8  and  C_58
   11  A    between atoms: C_13  and  O_53
   12  A    between atoms: C_17  and  C_35
   13  A    between atoms: C_17  and  C_58
   14  A    between atoms: C_21  and  C_23
   15  A    between atoms: C_21  and  C_48
   16  A    between atoms: C_24  and  C_29
   17  A    between atoms: C_24  and  C_44
   18  A    between atoms: C_32  and  C_35
   19  A    between atoms: C_39  and  C_55
   20  A    between atoms: C_49  and  C_56
   21  A    between atoms: N_54  and  C_55
                            x       y       z     vdW  Elec       q    Type
                         _______ _______ _______ _____ _____    ______ ____

>  <TORSDO>
F 21

$$$$
=
 OpenBabel11072415173D

 58 62  0  0  1  0  0  0  0  0999 V2000
  163.7510  211.1860  147.8820 O   0  0  0  0  0  1  0  0  0  0  0  0
  161.3970  211.6290  150.1730 C   0  0  1  0  0  3  0  0  0  0  0  0
  162.4090  210.8470  147.7130 C   0  0  1  0  0  3  0  0  0  0  0  0
  161.9820  209.8900  148.8430 C   0  0  1  0  0  3  0  0  0  0  0  0
  160.9430  210.4090  149.6500 O   0  0  0  0  0  0  0  0  0  0  0  0
  161.3680  212.7140  149.0890 C   0  0  0  0  0  2  0  0  0  0  0  0
  161.5300  212.1080  147.6930 C   0  0  1  0  0  3  0  0  0  0  0  0
  160.5290  212.0500  151.3560 C   0  0  2  0  0  0  0  0  0  0  0  0
  159.7470  210.9880  151.8350 O   0  0  0  0  0  0  0  0  0  0  0  0
  159.7630  213.2090  151.2280 O   0  0  0  0  0  1  0  0  0  0  0  0
  160.6940  211.5220  152.7380 C   0  0  1  0  0  3  0  0  0  0  0  0
  161.9870  209.7100  154.0230 N   0  0  0  0  0  2  0  0  0  0  0  0
  159.9240  209.1600  157.2610 C   0  0  0  0  0  3  0  0  0  0  0  0
  159.2230  209.9320  156.3360 C   0  0  0  0  0  0  0  0  0  0  0  0
  161.3950  208.7660  156.5320 S   0  0  0  0  0  0  0  0  0  0  0  0
  159.8480  210.1670  155.1490 N   0  0  0  0  0  0  0  0  0  0  0  0
  161.0660  209.5900  155.1110 C   0  0  0  0  0  0  0  0  0  0  0  0
  157.8720  210.4800  156.6240 C   0  0  0  0  0  1  0  0  0  0  0  0
  162.7130  210.5180  151.9790 O   0  0  0  0  0  0  0  0  0  0  0  0
  161.8500  210.5740  152.8890 C   0  0  0  0  0  0  0  0  0  0  0  0
  162.0070  213.1730  146.7090 C   0  0  0  0  0  2  0  0  0  0  0  0
  159.9820  214.3550  145.8440 O   0  0  0  0  0  1  0  0  0  0  0  0
  161.0090  213.4430  145.5880 C   0  0  1  0  0  0  0  0  0  0  0  0
  161.3750  213.1540  144.1360 C   0  0  1  0  0  3  0  0  0  0  0  0
  160.5030  212.1860  144.9220 C   0  0  0  0  0  2  0  0  0  0  0  0
  161.3350  214.4530  142.1420 O   0  0  0  0  0  1  0  0  0  0  0  0
  160.5270  213.9540  143.1610 C   0  0  1  0  0  3  0  0  0  0  0  0
  159.5010  213.0910  142.5920 N   0  0  0  0  0  2  0  0  0  0  0  0
  159.5910  212.4820  141.2980 C   0  0  0  0  0  0  0  0  0  0  0  0
  160.2320  210.5990  139.7950 C   0  0  1  0  0  3  0  0  0  0  0  0
  159.3110  212.6580  138.8090 N   0  0  0  0  0  0  0  0  0  0  0  0
  160.1690  211.2880  141.1330 C   0  0  0  0  0  3  0  0  0  0  0  0
  159.0820  213.1980  140.1140 C   0  0  0  0  0  0  0  0  0  0  0  0
  159.8580  211.4940  138.6360 C   0  0  0  0  0  3  0  0  0  0  0  0
  158.4680  214.2900  140.2410 O   0  0  0  0  0  0  0  0  0  0  0  0
  161.6170  210.0100  139.5850 C   0  0  0  0  0  2  0  0  0  0  0  0
  161.8390  209.6220  138.1300 C   0  0  0  0  0  2  0  0  0  0  0  0
  160.8540  207.6960  137.1270 O   0  0  0  0  0  0  0  0  0  0  0  0
  161.6850  208.1480  137.9550 C   0  0  0  0  0  0  0  0  0  0  0  0
  162.4350  207.2770  138.7320 O   0  0  0  0  0  1  0  0  0  0  0  0
  161.5930  208.5350  148.2630 C   0  0  0  0  0  2  0  0  0  0  0  0
  162.5440  207.4230  148.7210 C   0  0  1  0  0  3  0  0  0  0  0  0
  162.7260  207.3120  150.2490 C   0  0  1  0  0  3  0  0  0  0  0  0
  161.5870  208.0360  150.9420 C   0  0  0  0  0  1  0  0  0  0  0  0
  162.7950  205.8870  150.7830 C   0  0  0  0  0  2  0  0  0  0  0  0
  161.4000  205.4070  151.1450 C   0  0  0  0  0  2  0  0  0  0  0  0
  161.4760  204.2490  152.1290 C   0  0  1  0  0  3  0  0  0  0  0  0
  160.9730  204.7050  153.4850 C   0  0  0  0  0  1  0  0  0  0  0  0
  160.6910  203.0410  151.6170 C   0  0  0  0  0  3  0  0  0  0  0  0
  161.5470  202.0080  151.2280 O   0  0  0  0  0  1  0  0  0  0  0  0
  159.8810  203.4100  150.5490 O   0  0  0  0  0  1  0  0  0  0  0  0
  162.0760  206.0990  148.1060 C   0  0  1  0  0  3  0  0  0  0  0  0
  159.6150  206.3670  148.4010 O   0  0  0  0  0  1  0  0  0  0  0  0
  160.6920  206.1780  147.5440 C   0  0  0  0  0  0  0  0  0  0  0  0
  160.4970  206.0660  146.3050 O   0  0  0  0  0  0  0  0  0  0  0  0
  162.9790  205.6300  147.1460 O   0  0  0  0  0  0  0  0  0  0  0  0
  162.5840  204.3140  146.8960 C   0  0  0  0  0  2  0  0  0  0  0  0
  163.3300  203.7830  145.6930 C   0  0  0  0  0  1  0  0  0  0  0  0
  2  6  1  6  0  0  0
  2  8  1  0  0  0  0
  3  1  1  1  0  0  0
  3  4  1  0  0  0  0
  4 41  1  6  0  0  0
  4  5  1  0  0  0  0
  5  2  1  0  0  0  0
  7 21  1  6  0  0  0
  7  3  1  0  0  0  0
  7  6  1  0  0  0  0
  8 10  1  6  0  0  0
  8  9  1  0  0  0  0
  8 11  1  0  0  0  0
  9 11  1  0  0  0  0
 11 20  1  6  0  0  0
 12 17  1  0  0  0  0
 14 18  1  0  0  0  0
 14 13  2  0  0  0  0
 15 13  1  0  0  0  0
 16 14  1  0  0  0  0
 17 16  2  0  0  0  0
 17 15  1  0  0  0  0
 19 20  2  0  0  0  0
 20 12  1  0  0  0  0
 23 22  1  1  0  0  0
 23 21  1  0  0  0  0
 24 27  1  6  0  0  0
 24 25  1  0  0  0  0
 24 23  1  0  0  0  0
 25 23  1  0  0  0  0
 27 26  1  6  0  0  0
 28 27  1  0  0  0  0
 29 28  1  0  0  0  0
 30 36  1  6  0  0  0
 30 32  1  0  0  0  0
 31 33  1  0  0  0  0
 32 29  2  0  0  0  0
 33 35  2  0  0  0  0
 33 29  1  0  0  0  0
 34 31  2  0  0  0  0
 34 30  1  0  0  0  0
 37 36  1  0  0  0  0
 38 39  2  0  0  0  0
 39 37  1  0  0  0  0
 39 40  1  0  0  0  0
 42 41  1  1  0  0  0
 42 43  1  0  0  0  0
 43 45  1  0  0  0  0
 43 44  1  1  0  0  0
 45 46  1  0  0  0  0
 46 47  1  0  0  0  0
 47 48  1  1  0  0  0
 49 47  1  0  0  0  0
 50 49  1  0  0  0  0
 51 49  1  0  0  0  0
 52 56  1  6  0  0  0
 52 42  1  0  0  0  0
 54 52  1  0  0  0  0
 54 53  1  0  0  0  0
 55 54  2  0  0  0  0
 57 56  1  0  0  0  0
 58 57  1  0  0  0  0
M  END
>  <MODEL>
6

>  <REMARK>
 VINA RESULT:      -3.1      3.270     10.790
  Name = 
  21 active torsions:
  status: ('A' for Active; 'I' for Inactive)
    1  A    between atoms: C_2  and  C_32
    2  A    between atoms: C_2  and  C_34
    3  A    between atoms: C_3  and  N_54
    4  A    between atoms: C_5  and  C_10
    5  A    between atoms: C_6  and  C_48
    6  A    between atoms: C_7  and  C_9
    7  A    between atoms: C_7  and  C_32
    8  A    between atoms: C_7  and  O_53
    9  A    between atoms: C_8  and  C_20
   10  A    between atoms: C_8  and  C_58
   11  A    between atoms: C_13  and  O_53
   12  A    between atoms: C_17  and  C_35
   13  A    between atoms: C_17  and  C_58
   14  A    between atoms: C_21  and  C_23
   15  A    between atoms: C_21  and  C_48
   16  A    between atoms: C_24  and  C_29
   17  A    between atoms: C_24  and  C_44
   18  A    between atoms: C_32  and  C_35
   19  A    between atoms: C_39  and  C_55
   20  A    between atoms: C_49  and  C_56
   21  A    between atoms: N_54  and  C_55
                            x       y       z     vdW  Elec       q    Type
                         _______ _______ _______ _____ _____    ______ ____

>  <TORSDO>
F 21

$$$$
=
 OpenBabel11072415173D

 58 62  0  0  1  0  0  0  0  0999 V2000
  160.0000  207.7080  149.4510 O   0  0  0  0  0  1  0  0  0  0  0  0
  162.0240  210.2220  148.6950 C   0  0  1  0  0  3  0  0  0  0  0  0
  161.3320  207.7990  149.8530 C   0  0  1  0  0  3  0  0  0  0  0  0
  162.2260  207.9670  148.6090 C   0  0  1  0  0  3  0  0  0  0  0  0
  162.9570  209.1770  148.6060 O   0  0  0  0  0  0  0  0  0  0  0  0
  161.4770  210.3220  150.1240 C   0  0  0  0  0  2  0  0  0  0  0  0
  161.5250  208.9680  150.8340 C   0  0  1  0  0  3  0  0  0  0  0  0
  162.6730  211.5430  148.2890 C   0  0  2  0  0  0  0  0  0  0  0  0
  162.4040  211.8680  146.9520 O   0  0  0  0  0  0  0  0  0  0  0  0
  164.0240  211.7260  148.5810 O   0  0  0  0  0  1  0  0  0  0  0  0
  161.9080  212.7660  147.9240 C   0  0  1  0  0  3  0  0  0  0  0  0
  159.5490  212.6100  146.9170 N   0  0  0  0  0  2  0  0  0  0  0  0
  160.0930  213.0320  143.1000 C   0  0  0  0  0  3  0  0  0  0  0  0
  161.3020  212.8400  143.7690 C   0  0  0  0  0  0  0  0  0  0  0  0
  158.8860  212.9640  144.2770 S   0  0  0  0  0  0  0  0  0  0  0  0
  161.2240  212.6570  145.1160 N   0  0  0  0  0  0  0  0  0  0  0  0
  159.9470  212.7060  145.5460 C   0  0  0  0  0  0  0  0  0  0  0  0
  162.6080  212.8430  143.0600 C   0  0  0  0  0  1  0  0  0  0  0  0
  159.9230  212.4510  149.1960 O   0  0  0  0  0  0  0  0  0  0  0  0
  160.4200  212.6110  148.0540 C   0  0  0  0  0  0  0  0  0  0  0  0
  160.5450  208.9520  152.0050 C   0  0  0  0  0  2  0  0  0  0  0  0
  162.3260  210.2270  153.2080 O   0  0  0  0  0  1  0  0  0  0  0  0
  161.1550  209.4720  153.3030 C   0  0  1  0  0  0  0  0  0  0  0  0
  160.3040  209.6100  154.5600 C   0  0  1  0  0  3  0  0  0  0  0  0
  161.2380  208.4230  154.3860 C   0  0  0  0  0  2  0  0  0  0  0  0
  162.2310  210.2890  155.7830 O   0  0  0  0  0  1  0  0  0  0  0  0
  160.8940  210.6050  155.5450 C   0  0  1  0  0  3  0  0  0  0  0  0
  160.8020  211.9480  154.9890 N   0  0  0  0  0  2  0  0  0  0  0  0
  159.5880  212.7060  154.9160 C   0  0  0  0  0  0  0  0  0  0  0  0
  157.7320  213.9910  155.9750 C   0  0  1  0  0  3  0  0  0  0  0  0
  157.6770  213.5890  153.5470 N   0  0  0  0  0  0  0  0  0  0  0  0
  158.9800  213.1480  156.0210 C   0  0  0  0  0  3  0  0  0  0  0  0
  158.9650  212.9680  153.6060 C   0  0  0  0  0  0  0  0  0  0  0  0
  157.0830  214.0360  154.6110 C   0  0  0  0  0  3  0  0  0  0  0  0
  159.5460  212.6290  152.5410 O   0  0  0  0  0  0  0  0  0  0  0  0
  156.7430  213.5010  157.0180 C   0  0  0  0  0  2  0  0  0  0  0  0
  155.4790  212.9540  156.3690 C   0  0  0  0  0  2  0  0  0  0  0  0
  154.7520  210.8630  157.2550 O   0  0  0  0  0  1  0  0  0  0  0  0
  155.4720  211.4630  156.4170 C   0  0  0  0  0  0  0  0  0  0  0  0
  156.2880  210.7390  155.5600 O   0  0  0  0  0  0  0  0  0  0  0  0
  163.1610  206.7690  148.4710 C   0  0  0  0  0  2  0  0  0  0  0  0
  162.5350  205.6500  147.6310 C   0  0  1  0  0  3  0  0  0  0  0  0
  161.4940  204.7850  148.3730 C   0  0  1  0  0  3  0  0  0  0  0  0
  161.4390  203.4110  147.7310 C   0  0  0  0  0  1  0  0  0  0  0  0
  161.7500  204.6160  149.8650 C   0  0  0  0  0  2  0  0  0  0  0  0
  160.4280  204.5090  150.6050 C   0  0  0  0  0  2  0  0  0  0  0  0
  160.6630  204.1340  152.0600 C   0  0  1  0  0  3  0  0  0  0  0  0
  161.6890  203.0200  152.1350 C   0  0  0  0  0  1  0  0  0  0  0  0
  161.0970  205.3520  152.8770 C   0  0  0  0  0  3  0  0  0  0  0  0
  162.3870  205.7610  152.5290 O   0  0  0  0  0  1  0  0  0  0  0  0
  161.0450  205.0640  154.2360 O   0  0  0  0  0  1  0  0  0  0  0  0
  161.9550  206.2670  146.3530 C   0  0  1  0  0  3  0  0  0  0  0  0
  163.1180  204.3660  145.2330 O   0  0  0  0  0  1  0  0  0  0  0  0
  162.3310  205.5050  145.1210 C   0  0  0  0  0  0  0  0  0  0  0  0
  161.9470  205.8940  143.9860 O   0  0  0  0  0  0  0  0  0  0  0  0
  160.5690  206.4240  146.4390 O   0  0  0  0  0  0  0  0  0  0  0  0
  160.0930  206.1170  145.1630 C   0  0  0  0  0  2  0  0  0  0  0  0
  158.7120  205.5090  145.2720 C   0  0  0  0  0  1  0  0  0  0  0  0
  2  6  1  1  0  0  0
  3  1  1  6  0  0  0
  3  7  1  0  0  0  0
  4 41  1  1  0  0  0
  4  3  1  0  0  0  0
  5  4  1  0  0  0  0
  5  2  1  0  0  0  0
  6  7  1  0  0  0  0
  7 21  1  1  0  0  0
  8 10  1  1  0  0  0
  8  2  1  0  0  0  0
  9 11  1  0  0  0  0
  9  8  1  0  0  0  0
 11 20  1  1  0  0  0
 11  8  1  0  0  0  0
 12 20  1  0  0  0  0
 13 14  2  0  0  0  0
 13 15  1  0  0  0  0
 14 16  1  0  0  0  0
 15 17  1  0  0  0  0
 16 17  2  0  0  0  0
 17 12  1  0  0  0  0
 18 14  1  0  0  0  0
 20 19  2  0  0  0  0
 21 23  1  0  0  0  0
 23 22  1  6  0  0  0
 23 25  1  0  0  0  0
 23 24  1  0  0  0  0
 24 27  1  1  0  0  0
 25 24  1  0  0  0  0
 27 26  1  6  0  0  0
 28 27  1  0  0  0  0
 29 28  1  0  0  0  0
 29 32  2  0  0  0  0
 30 32  1  0  0  0  0
 30 36  1  1  0  0  0
 31 33  1  0  0  0  0
 31 34  2  0  0  0  0
 33 29  1  0  0  0  0
 34 30  1  0  0  0  0
 35 33  2  0  0  0  0
 37 39  1  0  0  0  0
 37 36  1  0  0  0  0
 39 38  1  0  0  0  0
 40 39  2  0  0  0  0
 42 43  1  0  0  0  0
 42 41  1  1  0  0  0
 43 44  1  6  0  0  0
 43 45  1  0  0  0  0
 45 46  1  0  0  0  0
 46 47  1  0  0  0  0
 47 48  1  6  0  0  0
 47 49  1  0  0  0  0
 49 51  1  0  0  0  0
 50 49  1  0  0  0  0
 52 54  1  6  0  0  0
 52 56  1  0  0  0  0
 52 42  1  0  0  0  0
 54 53  1  0  0  0  0
 55 54  2  0  0  0  0
 57 58  1  0  0  0  0
 57 56  1  0  0  0  0
M  END
>  <MODEL>
7

>  <REMARK>
 VINA RESULT:      -2.9      2.898      7.894
  Name = 
  21 active torsions:
  status: ('A' for Active; 'I' for Inactive)
    1  A    between atoms: C_2  and  C_32
    2  A    between atoms: C_2  and  C_34
    3  A    between atoms: C_3  and  N_54
    4  A    between atoms: C_5  and  C_10
    5  A    between atoms: C_6  and  C_48
    6  A    between atoms: C_7  and  C_9
    7  A    between atoms: C_7  and  C_32
    8  A    between atoms: C_7  and  O_53
    9  A    between atoms: C_8  and  C_20
   10  A    between atoms: C_8  and  C_58
   11  A    between atoms: C_13  and  O_53
   12  A    between atoms: C_17  and  C_35
   13  A    between atoms: C_17  and  C_58
   14  A    between atoms: C_21  and  C_23
   15  A    between atoms: C_21  and  C_48
   16  A    between atoms: C_24  and  C_29
   17  A    between atoms: C_24  and  C_44
   18  A    between atoms: C_32  and  C_35
   19  A    between atoms: C_39  and  C_55
   20  A    between atoms: C_49  and  C_56
   21  A    between atoms: N_54  and  C_55
                            x       y       z     vdW  Elec       q    Type
                         _______ _______ _______ _____ _____    ______ ____

>  <TORSDO>
F 21

$$$$
=
 OpenBabel11072415173D

 58 62  0  0  1  0  0  0  0  0999 V2000
  160.1310  208.6350  150.4510 O   0  0  0  0  0  1  0  0  0  0  0  0
  161.9510  210.8330  148.7640 C   0  0  1  0  0  3  0  0  0  0  0  0
  161.5240  208.6180  150.3770 C   0  0  1  0  0  3  0  0  0  0  0  0
  161.9520  208.5710  148.8970 C   0  0  1  0  0  3  0  0  0  0  0  0
  162.7220  209.6900  148.5030 O   0  0  0  0  0  0  0  0  0  0  0  0
  161.9310  211.1250  150.2690 C   0  0  0  0  0  2  0  0  0  0  0  0
  162.1200  209.8460  151.0860 C   0  0  1  0  0  3  0  0  0  0  0  0
  162.5160  212.0330  148.0060 C   0  0  2  0  0  0  0  0  0  0  0  0
  161.9190  212.1820  146.7460 O   0  0  0  0  0  0  0  0  0  0  0  0
  163.9020  212.1570  147.9150 O   0  0  0  0  0  1  0  0  0  0  0  0
  161.7240  213.2430  147.6580 C   0  0  1  0  0  3  0  0  0  0  0  0
  159.1770  213.2480  147.3140 N   0  0  0  0  0  2  0  0  0  0  0  0
  158.7180  213.4910  143.4710 C   0  0  0  0  0  3  0  0  0  0  0  0
  160.0440  213.2230  143.8090 C   0  0  0  0  0  0  0  0  0  0  0  0
  157.8640  213.5640  144.9240 S   0  0  0  0  0  0  0  0  0  0  0  0
  160.3130  213.0930  145.1370 N   0  0  0  0  0  0  0  0  0  0  0  0
  159.2030  213.2630  145.8840 C   0  0  0  0  0  0  0  0  0  0  0  0
  161.1120  213.0930  142.7840 C   0  0  0  0  0  1  0  0  0  0  0  0
  160.1300  213.1380  149.4200 O   0  0  0  0  0  0  0  0  0  0  0  0
  160.3160  213.2160  148.1820 C   0  0  0  0  0  0  0  0  0  0  0  0
  161.5980  210.0460  152.5070 C   0  0  0  0  0  2  0  0  0  0  0  0
  162.7090  208.0470  153.5160 O   0  0  0  0  0  1  0  0  0  0  0  0
  161.5200  208.7480  153.3040 C   0  0  1  0  0  0  0  0  0  0  0  0
  160.3460  208.4820  154.2410 C   0  0  1  0  0  3  0  0  0  0  0  0
  160.3950  207.8420  152.8630 C   0  0  0  0  0  2  0  0  0  0  0  0
  161.4940  206.4620  154.7610 O   0  0  0  0  0  1  0  0  0  0  0  0
  160.6880  207.4570  155.3110 C   0  0  1  0  0  3  0  0  0  0  0  0
  161.3970  208.1130  156.4000 N   0  0  0  0  0  2  0  0  0  0  0  0
  161.2440  209.4970  156.7400 C   0  0  0  0  0  0  0  0  0  0  0  0
  159.8430  211.5230  157.1250 C   0  0  1  0  0  3  0  0  0  0  0  0
  162.2930  211.7180  157.2600 N   0  0  0  0  0  0  0  0  0  0  0  0
  160.0440  210.0860  156.7220 C   0  0  0  0  0  3  0  0  0  0  0  0
  162.4300  210.3060  157.0720 C   0  0  0  0  0  0  0  0  0  0  0  0
  161.1330  212.2990  157.2590 C   0  0  0  0  0  3  0  0  0  0  0  0
  163.5650  209.7690  157.1700 O   0  0  0  0  0  0  0  0  0  0  0  0
  158.9120  212.2080  156.1380 C   0  0  0  0  0  2  0  0  0  0  0  0
  157.9750  211.2080  155.4760 C   0  0  0  0  0  2  0  0  0  0  0  0
  155.8190  212.0050  154.8390 O   0  0  0  0  0  1  0  0  0  0  0  0
  157.0390  211.9060  154.5480 C   0  0  0  0  0  0  0  0  0  0  0  0
  157.5080  212.4160  153.3460 O   0  0  0  0  0  0  0  0  0  0  0  0
  162.6960  207.2720  148.6080 C   0  0  0  0  0  2  0  0  0  0  0  0
  161.7930  206.2340  147.9310 C   0  0  1  0  0  3  0  0  0  0  0  0
  162.1480  205.9220  146.4620 C   0  0  1  0  0  3  0  0  0  0  0  0
  163.0930  204.7350  146.4190 C   0  0  0  0  0  1  0  0  0  0  0  0
  160.9530  205.6270  145.5640 C   0  0  0  0  0  2  0  0  0  0  0  0
  161.1730  204.3150  144.8310 C   0  0  0  0  0  2  0  0  0  0  0  0
  160.0080  203.3690  145.0780 C   0  0  1  0  0  3  0  0  0  0  0  0
  158.9010  203.6620  144.0830 C   0  0  0  0  0  1  0  0  0  0  0  0
  160.4590  201.9100  145.0000 C   0  0  0  0  0  3  0  0  0  0  0  0
  159.3680  201.0490  144.8590 O   0  0  0  0  0  1  0  0  0  0  0  0
  161.1860  201.5690  146.1340 O   0  0  0  0  0  1  0  0  0  0  0  0
  161.7750  204.9680  148.7940 C   0  0  1  0  0  3  0  0  0  0  0  0
  160.0720  205.5240  150.5280 O   0  0  0  0  0  0  0  0  0  0  0  0
  161.3950  205.2410  150.2150 C   0  0  0  0  0  0  0  0  0  0  0  0
  162.2660  205.2240  151.1250 O   0  0  0  0  0  1  0  0  0  0  0  0
  160.9590  203.9780  148.2400 O   0  0  0  0  0  0  0  0  0  0  0  0
  161.3180  202.8030  148.9040 C   0  0  0  0  0  2  0  0  0  0  0  0
  160.0720  202.0850  149.3700 C   0  0  0  0  0  1  0  0  0  0  0  0
  2  6  1  1  0  0  0
  3  1  1  6  0  0  0
  3  7  1  0  0  0  0
  4 41  1  1  0  0  0
  4  3  1  0  0  0  0
  5  2  1  0  0  0  0
  5  4  1  0  0  0  0
  6  7  1  0  0  0  0
  7 21  1  1  0  0  0
  8 10  1  1  0  0  0
  8  2  1  0  0  0  0
  9 11  1  0  0  0  0
  9  8  1  0  0  0  0
 11  8  1  0  0  0  0
 11 20  1  1  0  0  0
 12 20  1  0  0  0  0
 13 14  2  0  0  0  0
 13 15  1  0  0  0  0
 14 16  1  0  0  0  0
 15 17  1  0  0  0  0
 16 17  2  0  0  0  0
 17 12  1  0  0  0  0
 18 14  1  0  0  0  0
 20 19  2  0  0  0  0
 21 23  1  0  0  0  0
 23 22  1  1  0  0  0
 23 24  1  0  0  0  0
 24 27  1  1  0  0  0
 25 23  1  0  0  0  0
 25 24  1  0  0  0  0
 27 26  1  6  0  0  0
 27 28  1  0  0  0  0
 28 29  1  0  0  0  0
 29 33  1  0  0  0  0
 30 36  1  6  0  0  0
 30 34  1  0  0  0  0
 32 29  2  0  0  0  0
 32 30  1  0  0  0  0
 33 35  2  0  0  0  0
 33 31  1  0  0  0  0
 34 31  2  0  0  0  0
 37 36  1  0  0  0  0
 39 38  1  0  0  0  0
 39 37  1  0  0  0  0
 40 39  2  0  0  0  0
 42 41  1  1  0  0  0
 42 52  1  0  0  0  0
 43 44  1  1  0  0  0
 43 42  1  0  0  0  0
 45 43  1  0  0  0  0
 46 47  1  0  0  0  0
 46 45  1  0  0  0  0
 47 48  1  6  0  0  0
 49 47  1  0  0  0  0
 49 51  1  0  0  0  0
 50 49  1  0  0  0  0
 52 56  1  6  0  0  0
 52 54  1  0  0  0  0
 54 53  2  0  0  0  0
 54 55  1  0  0  0  0
 56 57  1  0  0  0  0
 57 58  1  0  0  0  0
M  END
>  <MODEL>
8

>  <REMARK>
 VINA RESULT:      -2.9      3.042      7.485
  Name = 
  21 active torsions:
  status: ('A' for Active; 'I' for Inactive)
    1  A    between atoms: C_2  and  C_32
    2  A    between atoms: C_2  and  C_34
    3  A    between atoms: C_3  and  N_54
    4  A    between atoms: C_5  and  C_10
    5  A    between atoms: C_6  and  C_48
    6  A    between atoms: C_7  and  C_9
    7  A    between atoms: C_7  and  C_32
    8  A    between atoms: C_7  and  O_53
    9  A    between atoms: C_8  and  C_20
   10  A    between atoms: C_8  and  C_58
   11  A    between atoms: C_13  and  O_53
   12  A    between atoms: C_17  and  C_35
   13  A    between atoms: C_17  and  C_58
   14  A    between atoms: C_21  and  C_23
   15  A    between atoms: C_21  and  C_48
   16  A    between atoms: C_24  and  C_29
   17  A    between atoms: C_24  and  C_44
   18  A    between atoms: C_32  and  C_35
   19  A    between atoms: C_39  and  C_55
   20  A    between atoms: C_49  and  C_56
   21  A    between atoms: N_54  and  C_55
                            x       y       z     vdW  Elec       q    Type
                         _______ _______ _______ _____ _____    ______ ____

>  <TORSDO>
F 21

$$$$
=
 OpenBabel11072415173D

 58 62  0  0  1  0  0  0  0  0999 V2000
  161.8410  213.4830  150.0510 O   0  0  0  0  0  1  0  0  0  0  0  0
  161.7730  210.1960  150.4790 C   0  0  1  0  0  3  0  0  0  0  0  0
  160.7150  212.6830  149.8580 C   0  0  1  0  0  3  0  0  0  0  0  0
  161.0470  211.5780  148.8370 C   0  0  1  0  0  3  0  0  0  0  0  0
  160.9220  210.2730  149.3660 O   0  0  0  0  0  0  0  0  0  0  0  0
  161.1630  210.9520  151.6660 C   0  0  0  0  0  2  0  0  0  0  0  0
  160.2440  212.0800  151.1920 C   0  0  1  0  0  3  0  0  0  0  0  0
  162.0150  208.7370  150.8570 C   0  0  2  0  0  0  0  0  0  0  0  0
  161.0430  207.8870  150.3100 O   0  0  0  0  0  0  0  0  0  0  0  0
  162.2360  208.4360  152.2010 O   0  0  0  0  0  1  0  0  0  0  0  0
  162.3720  207.6730  149.8800 C   0  0  1  0  0  3  0  0  0  0  0  0
  162.3620  207.3300  147.3330 N   0  0  0  0  0  2  0  0  0  0  0  0
  161.5070  203.5760  146.8640 C   0  0  0  0  0  3  0  0  0  0  0  0
  161.3040  203.9830  148.1820 C   0  0  0  0  0  0  0  0  0  0  0  0
  162.0220  204.9430  146.0190 S   0  0  0  0  0  0  0  0  0  0  0  0
  161.5520  205.2940  148.4530 N   0  0  0  0  0  0  0  0  0  0  0  0
  161.9650  205.9550  147.3530 C   0  0  0  0  0  0  0  0  0  0  0  0
  160.8510  203.0440  149.2400 C   0  0  0  0  0  1  0  0  0  0  0  0
  162.8290  209.3840  148.2910 O   0  0  0  0  0  0  0  0  0  0  0  0
  162.5420  208.1760  148.4740 C   0  0  0  0  0  0  0  0  0  0  0  0
  160.0620  213.1130  152.3020 C   0  0  0  0  0  2  0  0  0  0  0  0
  157.9680  211.8380  152.7830 O   0  0  0  0  0  1  0  0  0  0  0  0
  158.7260  212.9850  153.0260 C   0  0  1  0  0  0  0  0  0  0  0  0
  158.4570  213.7750  154.3030 C   0  0  1  0  0  3  0  0  0  0  0  0
  157.8930  214.2430  152.9700 C   0  0  0  0  0  2  0  0  0  0  0  0
  156.7800  212.0900  154.4420 O   0  0  0  0  0  1  0  0  0  0  0  0
  157.3610  213.1440  155.1460 C   0  0  1  0  0  3  0  0  0  0  0  0
  157.9340  212.6440  156.3880 N   0  0  0  0  0  2  0  0  0  0  0  0
  159.3000  212.2360  156.5350 C   0  0  0  0  0  0  0  0  0  0  0  0
  161.1040  210.5180  156.4280 C   0  0  1  0  0  3  0  0  0  0  0  0
  161.6440  212.7720  157.2570 N   0  0  0  0  0  0  0  0  0  0  0  0
  159.6690  210.9670  156.3320 C   0  0  0  0  0  3  0  0  0  0  0  0
  160.3160  213.2150  156.9620 C   0  0  0  0  0  0  0  0  0  0  0  0
  162.0200  211.5470  157.0510 C   0  0  0  0  0  3  0  0  0  0  0  0
  160.0180  214.4320  157.0920 O   0  0  0  0  0  0  0  0  0  0  0  0
  161.1820  209.2070  157.1910 C   0  0  0  0  0  2  0  0  0  0  0  0
  159.9150  208.3830  157.0070 C   0  0  0  0  0  2  0  0  0  0  0  0
  159.1790  206.5950  155.6110 O   0  0  0  0  0  1  0  0  0  0  0  0
  160.1470  207.2830  156.0260 C   0  0  0  0  0  0  0  0  0  0  0  0
  161.4360  206.9960  155.6000 O   0  0  0  0  0  0  0  0  0  0  0  0
  160.1850  211.7420  147.5890 C   0  0  0  0  0  2  0  0  0  0  0  0
  159.9030  213.2170  147.2800 C   0  0  1  0  0  3  0  0  0  0  0  0
  160.6570  213.7800  146.0570 C   0  0  1  0  0  3  0  0  0  0  0  0
  161.9540  214.4180  146.5200 C   0  0  0  0  0  1  0  0  0  0  0  0
  160.9780  212.7560  144.9750 C   0  0  0  0  0  2  0  0  0  0  0  0
  161.8170  213.4030  143.8880 C   0  0  0  0  0  2  0  0  0  0  0  0
  161.2250  213.1110  142.5170 C   0  0  1  0  0  3  0  0  0  0  0  0
  162.2740  212.4470  141.6450 C   0  0  0  0  0  1  0  0  0  0  0  0
  159.9670  212.2500  142.6350 C   0  0  0  0  0  3  0  0  0  0  0  0
  160.1340  211.0190  141.9940 O   0  0  0  0  0  1  0  0  0  0  0  0
  158.8740  212.9170  142.0960 O   0  0  0  0  0  1  0  0  0  0  0  0
  158.3870  213.4060  147.1510 C   0  0  1  0  0  3  0  0  0  0  0  0
  156.5220  212.9610  148.7450 O   0  0  0  0  0  0  0  0  0  0  0  0
  157.7160  213.6160  148.4710 C   0  0  0  0  0  0  0  0  0  0  0  0
  158.2210  214.3860  149.3300 O   0  0  0  0  0  1  0  0  0  0  0  0
  158.0700  214.4360  146.2600 O   0  0  0  0  0  0  0  0  0  0  0  0
  156.9400  213.9830  145.5770 C   0  0  0  0  0  2  0  0  0  0  0  0
  157.1110  212.5220  145.2290 C   0  0  0  0  0  1  0  0  0  0  0  0
  2  8  1  0  0  0  0
  2  6  1  1  0  0  0
  3  1  1  1  0  0  0
  3  7  1  0  0  0  0
  4 41  1  6  0  0  0
  4  5  1  0  0  0  0
  4  3  1  0  0  0  0
  5  2  1  0  0  0  0
  7  6  1  0  0  0  0
  7 21  1  1  0  0  0
  8 10  1  1  0  0  0
  9  8  1  0  0  0  0
 11 20  1  6  0  0  0
 11  9  1  0  0  0  0
 11  8  1  0  0  0  0
 12 17  1  0  0  0  0
 12 20  1  0  0  0  0
 13 14  2  0  0  0  0
 14 16  1  0  0  0  0
 14 18  1  0  0  0  0
 15 13  1  0  0  0  0
 15 17  1  0  0  0  0
 17 16  2  0  0  0  0
 19 20  2  0  0  0  0
 21 23  1  0  0  0  0
 23 22  1  6  0  0  0
 23 24  1  0  0  0  0
 24 27  1  1  0  0  0
 25 23  1  0  0  0  0
 25 24  1  0  0  0  0
 27 26  1  6  0  0  0
 27 28  1  0  0  0  0
 28 29  1  0  0  0  0
 29 33  1  0  0  0  0
 30 34  1  0  0  0  0
 30 36  1  1  0  0  0
 32 30  1  0  0  0  0
 32 29  2  0  0  0  0
 33 35  2  0  0  0  0
 33 31  1  0  0  0  0
 34 31  2  0  0  0  0
 37 36  1  0  0  0  0
 38 39  1  0  0  0  0
 39 37  1  0  0  0  0
 40 39  2  0  0  0  0
 42 41  1  6  0  0  0
 43 44  1  1  0  0  0
 43 42  1  0  0  0  0
 45 43  1  0  0  0  0
 46 45  1  0  0  0  0
 47 48  1  6  0  0  0
 47 49  1  0  0  0  0
 47 46  1  0  0  0  0
 50 49  1  0  0  0  0
 51 49  1  0  0  0  0
 52 56  1  6  0  0  0
 52 42  1  0  0  0  0
 52 54  1  0  0  0  0
 54 53  2  0  0  0  0
 54 55  1  0  0  0  0
 57 56  1  0  0  0  0
 58 57  1  0  0  0  0
M  END
>  <MODEL>
9

>  <REMARK>
 VINA RESULT:      -2.6      1.500      2.042
  Name = 
  21 active torsions:
  status: ('A' for Active; 'I' for Inactive)
    1  A    between atoms: C_2  and  C_32
    2  A    between atoms: C_2  and  C_34
    3  A    between atoms: C_3  and  N_54
    4  A    between atoms: C_5  and  C_10
    5  A    between atoms: C_6  and  C_48
    6  A    between atoms: C_7  and  C_9
    7  A    between atoms: C_7  and  C_32
    8  A    between atoms: C_7  and  O_53
    9  A    between atoms: C_8  and  C_20
   10  A    between atoms: C_8  and  C_58
   11  A    between atoms: C_13  and  O_53
   12  A    between atoms: C_17  and  C_35
   13  A    between atoms: C_17  and  C_58
   14  A    between atoms: C_21  and  C_23
   15  A    between atoms: C_21  and  C_48
   16  A    between atoms: C_24  and  C_29
   17  A    between atoms: C_24  and  C_44
   18  A    between atoms: C_32  and  C_35
   19  A    between atoms: C_39  and  C_55
   20  A    between atoms: C_49  and  C_56
   21  A    between atoms: N_54  and  C_55
                            x       y       z     vdW  Elec       q    Type
                         _______ _______ _______ _____ _____    ______ ____

>  <TORSDO>
F 21

$$$$
