=
 OpenBabel11072411113D

 30 32  0  0  1  0  0  0  0  0999 V2000
  160.6970  202.1220  150.4920 N   0  0  0  0  0  0  0  0  0  0  0  0
  161.2130  204.9070  146.2940 C   0  0  2  0  0  3  0  0  0  0  0  0
  162.7660  205.9950  147.9770 C   0  0  0  0  0  1  0  0  0  0  0  0
  161.1780  204.2570  148.7640 C   0  0  0  0  0  0  0  0  0  0  0  0
  161.3730  205.4080  147.7590 C   0  0  2  0  0  0  0  0  0  0  0  0
  161.1810  202.9200  148.2990 C   0  0  0  0  0  0  0  0  0  0  0  0
  161.0170  204.4790  150.1630 C   0  0  0  0  0  0  0  0  0  0  0  0
  160.4670  203.5530  152.4610 C   0  0  0  0  0  1  0  0  0  0  0  0
  160.9220  201.8740  149.1800 C   0  0  0  0  0  3  0  0  0  0  0  0
  160.7370  203.3780  151.0030 C   0  0  0  0  0  0  0  0  0  0  0  0
  161.9320  203.5890  146.0570 C   0  0  0  0  0  2  0  0  0  0  0  0
  161.4310  202.6170  146.9590 O   0  0  0  0  0  0  0  0  0  0  0  0
  160.2970  206.4780  148.0070 C   0  0  0  0  0  2  0  0  0  0  0  0
  160.8520  207.7440  148.2110 O   0  0  0  0  0  1  0  0  0  0  0  0
  161.4360  205.3500  143.9240 O   0  0  0  0  0  1  0  0  0  0  0  0
  161.5340  205.9250  145.1940 C   0  0  0  0  0  2  0  0  0  0  0  0
  161.1370  205.8620  150.7560 C   0  0  0  0  0  2  0  0  0  0  0  0
  163.4690  205.6640  151.5350 C   0  0  0  0  0  2  0  0  0  0  0  0
  162.1980  205.9490  151.8140 C   0  0  0  0  0  0  0  0  0  0  0  0
  161.8120  206.3650  153.2010 C   0  0  0  0  0  2  0  0  0  0  0  0
  160.6990  207.4020  153.1790 C   0  0  0  0  0  2  0  0  0  0  0  0
  161.2780  208.8060  153.2950 C   0  0  0  0  0  2  0  0  0  0  0  0
  159.9950  209.1470  155.4970 C   0  0  0  0  0  2  0  0  0  0  0  0
  160.4070  209.7360  154.1360 C   0  0  1  0  0  3  0  0  0  0  0  0
  160.9140  211.1840  154.1500 C   0  0  0  0  0  2  0  0  0  0  0  0
  160.1380  212.0540  155.1340 C   0  0  0  0  0  2  0  0  0  0  0  0
  161.8310  210.4870  156.7070 C   0  0  0  0  0  2  0  0  0  0  0  0
  161.0470  209.1810  156.6140 C   0  0  2  0  0  3  0  0  0  0  0  0
  161.9240  208.1050  156.4890 O   0  0  0  0  0  1  0  0  0  0  0  0
  160.7310  211.9400  156.8740 S   0  0  0  0  0  0  0  0  0  0  0  0
  1 10  1  0  0  0  0
  2 16  1  6  0  0  0
  2  5  1  0  0  0  0
  4  7  1  0  0  0  0
  5  3  1  1  0  0  0
  5 13  1  0  0  0  0
  5  4  1  0  0  0  0
  6  4  2  0  0  0  0
  6  9  1  0  0  0  0
  7 17  1  0  0  0  0
  7 10  2  0  0  0  0
  9  1  2  0  0  0  0
 10  8  1  0  0  0  0
 11  2  1  0  0  0  0
 11 12  1  0  0  0  0
 12  6  1  0  0  0  0
 13 14  1  0  0  0  0
 15 16  1  0  0  0  0
 17 19  1  0  0  0  0
 18 19  2  0  0  0  0
 19 20  1  0  0  0  0
 21 20  1  0  0  0  0
 21 22  1  0  0  0  0
 23 28  1  0  0  0  0
 24 22  1  1  0  0  0
 24 25  1  0  0  0  0
 24 23  1  0  0  0  0
 25 26  1  0  0  0  0
 26 30  1  0  0  0  0
 27 30  1  0  0  0  0
 28 29  1  6  0  0  0
 28 27  1  0  0  0  0
M  END
>  <MODEL>
1

>  <REMARK>
 VINA RESULT:      -7.0      0.000      0.000
  Name = 
  8 active torsions:
  status: ('A' for Active; 'I' for Inactive)
    1  A    between atoms: C_3  and  C_24
    2  A    between atoms: C_4  and  C_23
    3  A    between atoms: C_10  and  C_13
    4  A    between atoms: C_12  and  C_17
    5  A    between atoms: C_12  and  C_20
    6  A    between atoms: C_16  and  C_19
    7  A    between atoms: C_16  and  C_20
    8  A    between atoms: C_19  and  C_24
                            x       y       z     vdW  Elec       q    Type
                         _______ _______ _______ _____ _____    ______ ____

>  <TORSDO>
F 8

$$$$
=
 OpenBabel11072411113D

 30 32  0  0  1  0  0  0  0  0999 V2000
  160.7050  202.0830  150.4470 N   0  0  0  0  0  0  0  0  0  0  0  0
  161.2550  204.9070  146.2790 C   0  0  2  0  0  3  0  0  0  0  0  0
  162.7720  205.9960  147.9930 C   0  0  0  0  0  1  0  0  0  0  0  0
  161.1900  204.2370  148.7430 C   0  0  0  0  0  0  0  0  0  0  0  0
  161.3890  205.3970  147.7500 C   0  0  2  0  0  0  0  0  0  0  0  0
  161.2130  202.9040  148.2680 C   0  0  0  0  0  0  0  0  0  0  0  0
  161.0060  204.4450  150.1410 C   0  0  0  0  0  0  0  0  0  0  0  0
  160.4320  203.4960  152.4240 C   0  0  0  0  0  1  0  0  0  0  0  0
  160.9520  201.8480  149.1360 C   0  0  0  0  0  3  0  0  0  0  0  0
  160.7250  203.3350  150.9690 C   0  0  0  0  0  0  0  0  0  0  0  0
  161.9900  203.5980  146.0420 C   0  0  0  0  0  2  0  0  0  0  0  0
  161.4850  202.6130  146.9290 O   0  0  0  0  0  0  0  0  0  0  0  0
  160.2990  206.4550  147.9910 C   0  0  0  0  0  2  0  0  0  0  0  0
  160.8380  207.7240  148.2170 O   0  0  0  0  0  1  0  0  0  0  0  0
  161.2700  205.4500  143.9200 O   0  0  0  0  0  1  0  0  0  0  0  0
  161.5820  205.9360  145.1920 C   0  0  0  0  0  2  0  0  0  0  0  0
  161.1050  205.8250  150.7470 C   0  0  0  0  0  2  0  0  0  0  0  0
  163.4740  205.7840  151.4320 C   0  0  0  0  0  2  0  0  0  0  0  0
  162.1940  205.9310  151.7740 C   0  0  0  0  0  0  0  0  0  0  0  0
  161.8280  206.2090  153.1990 C   0  0  0  0  0  2  0  0  0  0  0  0
  160.6640  207.1840  153.2930 C   0  0  0  0  0  2  0  0  0  0  0  0
  161.1710  208.6190  153.3050 C   0  0  0  0  0  2  0  0  0  0  0  0
  161.6250  210.6970  154.7510 C   0  0  0  0  0  2  0  0  0  0  0  0
  161.2630  209.2010  154.7140 C   0  0  1  0  0  3  0  0  0  0  0  0
  160.1060  208.7620  155.6210 C   0  0  0  0  0  2  0  0  0  0  0  0
  160.1180  209.4930  156.9600 C   0  0  0  0  0  2  0  0  0  0  0  0
  159.1620  211.3530  155.1110 C   0  0  0  0  0  2  0  0  0  0  0  0
  160.4960  211.6920  154.4520 C   0  0  2  0  0  3  0  0  0  0  0  0
  160.3250  211.8360  153.0760 O   0  0  0  0  0  1  0  0  0  0  0  0
  159.3210  211.1520  156.9240 S   0  0  0  0  0  0  0  0  0  0  0  0
  1 10  1  0  0  0  0
  2 16  1  6  0  0  0
  2  5  1  0  0  0  0
  4  7  1  0  0  0  0
  5 13  1  0  0  0  0
  5  3  1  1  0  0  0
  5  4  1  0  0  0  0
  6  4  2  0  0  0  0
  6  9  1  0  0  0  0
  7 17  1  0  0  0  0
  7 10  2  0  0  0  0
  9  1  2  0  0  0  0
 10  8  1  0  0  0  0
 11  2  1  0  0  0  0
 11 12  1  0  0  0  0
 12  6  1  0  0  0  0
 13 14  1  0  0  0  0
 15 16  1  0  0  0  0
 17 19  1  0  0  0  0
 18 19  2  0  0  0  0
 19 20  1  0  0  0  0
 20 21  1  0  0  0  0
 21 22  1  0  0  0  0
 24 22  1  6  0  0  0
 24 23  1  0  0  0  0
 24 25  1  0  0  0  0
 25 26  1  0  0  0  0
 27 30  1  0  0  0  0
 28 29  1  6  0  0  0
 28 23  1  0  0  0  0
 28 27  1  0  0  0  0
 30 26  1  0  0  0  0
M  END
>  <MODEL>
2

>  <REMARK>
 VINA RESULT:      -6.9      1.136      1.615
  Name = 
  8 active torsions:
  status: ('A' for Active; 'I' for Inactive)
    1  A    between atoms: C_3  and  C_24
    2  A    between atoms: C_4  and  C_23
    3  A    between atoms: C_10  and  C_13
    4  A    between atoms: C_12  and  C_17
    5  A    between atoms: C_12  and  C_20
    6  A    between atoms: C_16  and  C_19
    7  A    between atoms: C_16  and  C_20
    8  A    between atoms: C_19  and  C_24
                            x       y       z     vdW  Elec       q    Type
                         _______ _______ _______ _____ _____    ______ ____

>  <TORSDO>
F 8

$$$$
=
 OpenBabel11072411113D

 30 32  0  0  1  0  0  0  0  0999 V2000
  161.8150  207.2350  147.9630 N   0  0  0  0  0  0  0  0  0  0  0  0
  161.5010  202.2050  148.4520 C   0  0  2  0  0  3  0  0  0  0  0  0
  159.5480  203.1010  149.7980 C   0  0  0  0  0  1  0  0  0  0  0  0
  161.2610  204.6950  148.9700 C   0  0  0  0  0  0  0  0  0  0  0  0
  161.0350  203.2640  149.4930 C   0  0  2  0  0  0  0  0  0  0  0  0
  161.5510  204.8950  147.5990 C   0  0  0  0  0  0  0  0  0  0  0  0
  161.1650  205.8440  149.8080 C   0  0  0  0  0  0  0  0  0  0  0  0
  161.4980  208.3400  150.1210 C   0  0  0  0  0  1  0  0  0  0  0  0
  161.8400  206.1720  147.1260 C   0  0  0  0  0  3  0  0  0  0  0  0
  161.4890  207.1110  149.2740 C   0  0  0  0  0  0  0  0  0  0  0  0
  161.0560  202.5540  147.0420 C   0  0  0  0  0  2  0  0  0  0  0  0
  161.5660  203.8310  146.6950 O   0  0  0  0  0  0  0  0  0  0  0  0
  161.8680  203.0610  150.7700 C   0  0  0  0  0  2  0  0  0  0  0  0
  161.1320  202.4450  151.7850 O   0  0  0  0  0  1  0  0  0  0  0  0
  161.5420  199.8910  147.7410 O   0  0  0  0  0  1  0  0  0  0  0  0
  161.1910  200.7430  148.7910 C   0  0  0  0  0  2  0  0  0  0  0  0
  160.7260  205.7280  151.2480 C   0  0  0  0  0  2  0  0  0  0  0  0
  163.1170  206.0070  151.7870 C   0  0  0  0  0  2  0  0  0  0  0  0
  161.8590  205.9100  152.2160 C   0  0  0  0  0  0  0  0  0  0  0  0
  161.5610  205.9840  153.6820 C   0  0  0  0  0  2  0  0  0  0  0  0
  160.5520  207.0800  153.9870 C   0  0  0  0  0  2  0  0  0  0  0  0
  161.1900  208.4530  153.8200 C   0  0  0  0  0  2  0  0  0  0  0  0
  159.7080  209.2820  155.7500 C   0  0  0  0  0  2  0  0  0  0  0  0
  160.3200  209.5800  154.3700 C   0  0  1  0  0  3  0  0  0  0  0  0
  160.9530  210.9670  154.1960 C   0  0  0  0  0  2  0  0  0  0  0  0
  160.1550  212.0550  154.9080 C   0  0  0  0  0  2  0  0  0  0  0  0
  161.5130  210.6880  156.9300 C   0  0  0  0  0  2  0  0  0  0  0  0
  160.6280  209.4470  156.9680 C   0  0  2  0  0  3  0  0  0  0  0  0
  161.4120  208.3070  157.1430 O   0  0  0  0  0  1  0  0  0  0  0  0
  160.5390  212.2220  156.7020 S   0  0  0  0  0  0  0  0  0  0  0  0
  1 10  1  0  0  0  0
  2 16  1  1  0  0  0
  2  5  1  0  0  0  0
  4  5  1  0  0  0  0
  4  7  1  0  0  0  0
  5  3  1  1  0  0  0
  5 13  1  0  0  0  0
  6  4  2  0  0  0  0
  7 17  1  0  0  0  0
  9  6  1  0  0  0  0
  9  1  2  0  0  0  0
 10  7  2  0  0  0  0
 10  8  1  0  0  0  0
 11  2  1  0  0  0  0
 12 11  1  0  0  0  0
 12  6  1  0  0  0  0
 13 14  1  0  0  0  0
 15 16  1  0  0  0  0
 17 19  1  0  0  0  0
 18 19  2  0  0  0  0
 19 20  1  0  0  0  0
 20 21  1  0  0  0  0
 22 21  1  0  0  0  0
 23 28  1  0  0  0  0
 24 22  1  1  0  0  0
 24 23  1  0  0  0  0
 25 24  1  0  0  0  0
 25 26  1  0  0  0  0
 26 30  1  0  0  0  0
 27 28  1  0  0  0  0
 28 29  1  6  0  0  0
 30 27  1  0  0  0  0
M  END
>  <MODEL>
3

>  <REMARK>
 VINA RESULT:      -6.6      1.768      3.208
  Name = 
  8 active torsions:
  status: ('A' for Active; 'I' for Inactive)
    1  A    between atoms: C_3  and  C_24
    2  A    between atoms: C_4  and  C_23
    3  A    between atoms: C_10  and  C_13
    4  A    between atoms: C_12  and  C_17
    5  A    between atoms: C_12  and  C_20
    6  A    between atoms: C_16  and  C_19
    7  A    between atoms: C_16  and  C_20
    8  A    between atoms: C_19  and  C_24
                            x       y       z     vdW  Elec       q    Type
                         _______ _______ _______ _____ _____    ______ ____

>  <TORSDO>
F 8

$$$$
=
 OpenBabel11072411113D

 30 32  0  0  1  0  0  0  0  0999 V2000
  161.8450  207.1890  147.8570 N   0  0  0  0  0  0  0  0  0  0  0  0
  161.5020  202.1660  148.4010 C   0  0  2  0  0  3  0  0  0  0  0  0
  159.5510  203.0870  149.7320 C   0  0  0  0  0  1  0  0  0  0  0  0
  161.2740  204.6620  148.8900 C   0  0  0  0  0  0  0  0  0  0  0  0
  161.0390  203.2390  149.4290 C   0  0  2  0  0  0  0  0  0  0  0  0
  161.5680  204.8460  147.5180 C   0  0  0  0  0  0  0  0  0  0  0  0
  161.1820  205.8210  149.7160 C   0  0  0  0  0  0  0  0  0  0  0  0
  161.5290  208.3180  150.0020 C   0  0  0  0  0  1  0  0  0  0  0  0
  161.8660  206.1160  147.0320 C   0  0  0  0  0  3  0  0  0  0  0  0
  161.5150  207.0800  149.1690 C   0  0  0  0  0  0  0  0  0  0  0  0
  161.0620  202.5010  146.9860 C   0  0  0  0  0  2  0  0  0  0  0  0
  161.5790  203.7720  146.6260 O   0  0  0  0  0  0  0  0  0  0  0  0
  161.8680  203.0450  150.7100 C   0  0  0  0  0  2  0  0  0  0  0  0
  161.1190  202.4680  151.7380 O   0  0  0  0  0  1  0  0  0  0  0  0
  161.5460  199.8420  147.7220 O   0  0  0  0  0  1  0  0  0  0  0  0
  161.1820  200.7090  148.7550 C   0  0  0  0  0  2  0  0  0  0  0  0
  160.7400  205.7230  151.1560 C   0  0  0  0  0  2  0  0  0  0  0  0
  163.1340  205.9630  151.7000 C   0  0  0  0  0  2  0  0  0  0  0  0
  161.8720  205.9080  152.1240 C   0  0  0  0  0  0  0  0  0  0  0  0
  161.5680  206.0340  153.5860 C   0  0  0  0  0  2  0  0  0  0  0  0
  160.5320  207.1180  153.8450 C   0  0  0  0  0  2  0  0  0  0  0  0
  161.1450  208.4980  153.6490 C   0  0  0  0  0  2  0  0  0  0  0  0
  161.5280  210.7980  154.7320 C   0  0  0  0  0  2  0  0  0  0  0  0
  161.2000  209.3090  154.9410 C   0  0  1  0  0  3  0  0  0  0  0  0
  160.0370  209.0000  155.8930 C   0  0  0  0  0  2  0  0  0  0  0  0
  160.0110  209.9440  157.0920 C   0  0  0  0  0  2  0  0  0  0  0  0
  159.0450  211.4450  154.9440 C   0  0  0  0  0  2  0  0  0  0  0  0
  160.3820  211.7010  154.2560 C   0  0  2  0  0  3  0  0  0  0  0  0
  160.2320  211.6090  152.8730 O   0  0  0  0  0  1  0  0  0  0  0  0
  159.1770  211.5540  156.7670 S   0  0  0  0  0  0  0  0  0  0  0  0
  1 10  1  0  0  0  0
  2 16  1  1  0  0  0
  2  5  1  0  0  0  0
  4  5  1  0  0  0  0
  4  7  1  0  0  0  0
  5  3  1  1  0  0  0
  5 13  1  0  0  0  0
  6  4  2  0  0  0  0
  7 17  1  0  0  0  0
  9  6  1  0  0  0  0
  9  1  2  0  0  0  0
 10  7  2  0  0  0  0
 10  8  1  0  0  0  0
 11  2  1  0  0  0  0
 12 11  1  0  0  0  0
 12  6  1  0  0  0  0
 13 14  1  0  0  0  0
 15 16  1  0  0  0  0
 17 19  1  0  0  0  0
 18 19  2  0  0  0  0
 19 20  1  0  0  0  0
 20 21  1  0  0  0  0
 22 21  1  0  0  0  0
 23 24  1  0  0  0  0
 24 22  1  6  0  0  0
 24 25  1  0  0  0  0
 25 26  1  0  0  0  0
 27 30  1  0  0  0  0
 28 29  1  6  0  0  0
 28 23  1  0  0  0  0
 28 27  1  0  0  0  0
 30 26  1  0  0  0  0
M  END
>  <MODEL>
4

>  <REMARK>
 VINA RESULT:      -6.5      2.073      3.582
  Name = 
  8 active torsions:
  status: ('A' for Active; 'I' for Inactive)
    1  A    between atoms: C_3  and  C_24
    2  A    between atoms: C_4  and  C_23
    3  A    between atoms: C_10  and  C_13
    4  A    between atoms: C_12  and  C_17
    5  A    between atoms: C_12  and  C_20
    6  A    between atoms: C_16  and  C_19
    7  A    between atoms: C_16  and  C_20
    8  A    between atoms: C_19  and  C_24
                            x       y       z     vdW  Elec       q    Type
                         _______ _______ _______ _____ _____    ______ ____

>  <TORSDO>
F 8

$$$$
=
 OpenBabel11072411113D

 30 32  0  0  1  0  0  0  0  0999 V2000
  161.2300  207.8740  155.9950 N   0  0  0  0  0  0  0  0  0  0  0  0
  159.3470  212.4920  155.1150 C   0  0  2  0  0  3  0  0  0  0  0  0
  158.1420  210.9870  153.4700 C   0  0  0  0  0  1  0  0  0  0  0  0
  160.0760  210.0750  154.7290 C   0  0  0  0  0  0  0  0  0  0  0  0
  159.4970  211.3430  154.0760 C   0  0  2  0  0  0  0  0  0  0  0  0
  160.1210  209.9780  156.1400 C   0  0  0  0  0  0  0  0  0  0  0  0
  160.5530  208.9680  153.9680 C   0  0  0  0  0  0  0  0  0  0  0  0
  161.7670  206.7400  153.8960 C   0  0  0  0  0  1  0  0  0  0  0  0
  160.7180  208.8770  156.7470 C   0  0  0  0  0  3  0  0  0  0  0  0
  161.1650  207.8860  154.6400 C   0  0  0  0  0  0  0  0  0  0  0  0
  158.7600  212.0040  156.4280 C   0  0  0  0  0  2  0  0  0  0  0  0
  159.5850  210.9780  156.9550 O   0  0  0  0  0  0  0  0  0  0  0  0
  160.4610  211.8280  152.9800 C   0  0  0  0  0  2  0  0  0  0  0  0
  159.7830  212.2820  151.8460 O   0  0  0  0  0  1  0  0  0  0  0  0
  157.4060  213.9330  155.2550 O   0  0  0  0  0  1  0  0  0  0  0  0
  158.6400  213.7600  154.6230 C   0  0  0  0  0  2  0  0  0  0  0  0
  160.4150  208.9340  152.4650 C   0  0  0  0  0  2  0  0  0  0  0  0
  162.6320  209.9400  152.0690 C   0  0  0  0  0  2  0  0  0  0  0  0
  161.7380  209.0020  151.7590 C   0  0  0  0  0  0  0  0  0  0  0  0
  162.0490  207.9960  150.6940 C   0  0  0  0  0  2  0  0  0  0  0  0
  160.9100  207.0010  150.5220 C   0  0  0  0  0  2  0  0  0  0  0  0
  161.4580  205.6040  150.2650 C   0  0  0  0  0  2  0  0  0  0  0  0
  160.4540  205.8420  147.9100 C   0  0  0  0  0  2  0  0  0  0  0  0
  160.7750  204.9080  149.0900 C   0  0  1  0  0  3  0  0  0  0  0  0
  161.4210  203.5620  148.7320 C   0  0  0  0  0  2  0  0  0  0  0  0
  160.8410  202.9720  147.4510 C   0  0  0  0  0  2  0  0  0  0  0  0
  162.5290  205.0330  146.6180 C   0  0  0  0  0  2  0  0  0  0  0  0
  161.6160  206.2030  146.9740 C   0  0  2  0  0  3  0  0  0  0  0  0
  162.3670  207.2480  147.5100 O   0  0  0  0  0  1  0  0  0  0  0  0
  161.5990  203.6260  145.9060 S   0  0  0  0  0  0  0  0  0  0  0  0
  1  9  1  0  0  0  0
  2 16  1  6  0  0  0
  2 11  1  0  0  0  0
  4  6  1  0  0  0  0
  5  3  1  6  0  0  0
  5  4  1  0  0  0  0
  5  2  1  0  0  0  0
  6  9  2  0  0  0  0
  6 12  1  0  0  0  0
  7 10  1  0  0  0  0
  7  4  2  0  0  0  0
  8 10  1  0  0  0  0
 10  1  2  0  0  0  0
 11 12  1  0  0  0  0
 13  5  1  0  0  0  0
 14 13  1  0  0  0  0
 16 15  1  0  0  0  0
 17  7  1  0  0  0  0
 19 18  2  0  0  0  0
 19 17  1  0  0  0  0
 20 19  1  0  0  0  0
 21 20  1  0  0  0  0
 22 21  1  0  0  0  0
 23 24  1  0  0  0  0
 24 22  1  1  0  0  0
 25 24  1  0  0  0  0
 26 25  1  0  0  0  0
 27 28  1  0  0  0  0
 28 29  1  1  0  0  0
 28 23  1  0  0  0  0
 30 27  1  0  0  0  0
 30 26  1  0  0  0  0
M  END
>  <MODEL>
5

>  <REMARK>
 VINA RESULT:      -6.2      3.697      9.105
  Name = 
  8 active torsions:
  status: ('A' for Active; 'I' for Inactive)
    1  A    between atoms: C_3  and  C_24
    2  A    between atoms: C_4  and  C_23
    3  A    between atoms: C_10  and  C_13
    4  A    between atoms: C_12  and  C_17
    5  A    between atoms: C_12  and  C_20
    6  A    between atoms: C_16  and  C_19
    7  A    between atoms: C_16  and  C_20
    8  A    between atoms: C_19  and  C_24
                            x       y       z     vdW  Elec       q    Type
                         _______ _______ _______ _____ _____    ______ ____

>  <TORSDO>
F 8

$$$$
=
 OpenBabel11072411113D

 30 32  0  0  1  0  0  0  0  0999 V2000
  160.6160  210.5480  157.0130 N   0  0  0  0  0  0  0  0  0  0  0  0
  157.1570  213.0770  154.3150 C   0  0  2  0  0  3  0  0  0  0  0  0
  158.0340  211.3040  152.7280 C   0  0  0  0  0  1  0  0  0  0  0  0
  159.2130  211.6710  154.8810 C   0  0  0  0  0  0  0  0  0  0  0  0
  158.4230  212.3650  153.7560 C   0  0  2  0  0  0  0  0  0  0  0  0
  158.6080  211.4960  156.1490 C   0  0  0  0  0  0  0  0  0  0  0  0
  160.5340  211.1680  154.6950 C   0  0  0  0  0  0  0  0  0  0  0  0
  162.6460  210.1820  155.6990 C   0  0  0  0  0  1  0  0  0  0  0  0
  159.3370  210.9470  157.2010 C   0  0  0  0  0  3  0  0  0  0  0  0
  161.2290  210.6400  155.8060 C   0  0  0  0  0  0  0  0  0  0  0  0
  156.4100  212.2130  155.3170 C   0  0  0  0  0  2  0  0  0  0  0  0
  157.2840  211.8730  156.3810 O   0  0  0  0  0  0  0  0  0  0  0  0
  159.3130  213.4370  153.1060 C   0  0  0  0  0  2  0  0  0  0  0  0
  159.4630  213.2340  151.7320 O   0  0  0  0  0  1  0  0  0  0  0  0
  154.8750  213.6030  153.6980 O   0  0  0  0  0  1  0  0  0  0  0  0
  156.2050  213.6760  153.2740 C   0  0  0  0  0  2  0  0  0  0  0  0
  161.1970  211.1920  153.3390 C   0  0  0  0  0  2  0  0  0  0  0  0
  160.4600  208.8520  153.0840 C   0  0  0  0  0  2  0  0  0  0  0  0
  161.2830  209.8320  152.7110 C   0  0  0  0  0  0  0  0  0  0  0  0
  162.3100  209.5830  151.6490 C   0  0  0  0  0  2  0  0  0  0  0  0
  161.8080  208.5850  150.6160 C   0  0  0  0  0  2  0  0  0  0  0  0
  162.3560  207.1950  150.9090 C   0  0  0  0  0  2  0  0  0  0  0  0
  160.4550  206.2070  149.4860 C   0  0  0  0  0  2  0  0  0  0  0  0
  161.2990  206.1020  150.7690 C   0  0  1  0  0  3  0  0  0  0  0  0
  161.8310  204.7050  151.1170 C   0  0  0  0  0  2  0  0  0  0  0  0
  160.8160  203.6100  150.8010 C   0  0  0  0  0  2  0  0  0  0  0  0
  161.8620  204.3860  148.3310 C   0  0  0  0  0  2  0  0  0  0  0  0
  161.0990  205.7000  148.1890 C   0  0  2  0  0  3  0  0  0  0  0  0
  161.9290  206.6770  147.6430 O   0  0  0  0  0  1  0  0  0  0  0  0
  160.8220  203.0590  149.0440 S   0  0  0  0  0  0  0  0  0  0  0  0
  1  9  1  0  0  0  0
  2 16  1  6  0  0  0
  2 11  1  0  0  0  0
  4  6  1  0  0  0  0
  5  3  1  6  0  0  0
  5  2  1  0  0  0  0
  5  4  1  0  0  0  0
  6 12  1  0  0  0  0
  6  9  2  0  0  0  0
  7  4  2  0  0  0  0
  7 10  1  0  0  0  0
  8 10  1  0  0  0  0
 10  1  2  0  0  0  0
 11 12  1  0  0  0  0
 13  5  1  0  0  0  0
 14 13  1  0  0  0  0
 16 15  1  0  0  0  0
 17  7  1  0  0  0  0
 19 18  2  0  0  0  0
 19 17  1  0  0  0  0
 20 19  1  0  0  0  0
 21 22  1  0  0  0  0
 21 20  1  0  0  0  0
 23 24  1  0  0  0  0
 24 22  1  6  0  0  0
 24 25  1  0  0  0  0
 26 25  1  0  0  0  0
 27 30  1  0  0  0  0
 28 29  1  1  0  0  0
 28 27  1  0  0  0  0
 28 23  1  0  0  0  0
 30 26  1  0  0  0  0
M  END
>  <MODEL>
6

>  <REMARK>
 VINA RESULT:      -5.8      4.197      9.321
  Name = 
  8 active torsions:
  status: ('A' for Active; 'I' for Inactive)
    1  A    between atoms: C_3  and  C_24
    2  A    between atoms: C_4  and  C_23
    3  A    between atoms: C_10  and  C_13
    4  A    between atoms: C_12  and  C_17
    5  A    between atoms: C_12  and  C_20
    6  A    between atoms: C_16  and  C_19
    7  A    between atoms: C_16  and  C_20
    8  A    between atoms: C_19  and  C_24
                            x       y       z     vdW  Elec       q    Type
                         _______ _______ _______ _____ _____    ______ ____

>  <TORSDO>
F 8

$$$$
=
 OpenBabel11072411113D

 30 32  0  0  1  0  0  0  0  0999 V2000
  161.3580  212.1540  157.2610 N   0  0  0  0  0  0  0  0  0  0  0  0
  157.7820  213.2660  153.8520 C   0  0  2  0  0  3  0  0  0  0  0  0
  157.6880  210.7420  154.0760 C   0  0  0  0  0  1  0  0  0  0  0  0
  159.5750  211.9660  155.1240 C   0  0  0  0  0  0  0  0  0  0  0  0
  158.6100  211.9500  153.9250 C   0  0  2  0  0  0  0  0  0  0  0  0
  159.4140  212.9460  156.1330 C   0  0  0  0  0  0  0  0  0  0  0  0
  160.6220  211.0120  155.2810 C   0  0  0  0  0  0  0  0  0  0  0  0
  162.7010  210.2490  156.5210 C   0  0  0  0  0  1  0  0  0  0  0  0
  160.3270  213.0280  157.1800 C   0  0  0  0  0  3  0  0  0  0  0  0
  161.5300  211.1600  156.3540 C   0  0  0  0  0  0  0  0  0  0  0  0
  157.2590  213.6900  155.2140 C   0  0  0  0  0  2  0  0  0  0  0  0
  158.3530  213.8540  156.1020 O   0  0  0  0  0  0  0  0  0  0  0  0
  159.4260  211.8390  152.6260 C   0  0  0  0  0  2  0  0  0  0  0  0
  160.0770  213.0340  152.3110 O   0  0  0  0  0  1  0  0  0  0  0  0
  157.0420  214.1150  151.7090 O   0  0  0  0  0  1  0  0  0  0  0  0
  156.6770  213.3100  152.7910 C   0  0  0  0  0  2  0  0  0  0  0  0
  160.7770  209.8550  154.3230 C   0  0  0  0  0  2  0  0  0  0  0  0
  159.8190  208.4880  156.1390 C   0  0  0  0  0  2  0  0  0  0  0  0
  160.3800  208.5410  154.9310 C   0  0  0  0  0  0  0  0  0  0  0  0
  160.6200  207.2790  154.1610 C   0  0  0  0  0  2  0  0  0  0  0  0
  161.4750  207.5360  152.9290 C   0  0  0  0  0  2  0  0  0  0  0  0
  160.6850  207.2370  151.6620 C   0  0  0  0  0  2  0  0  0  0  0  0
  162.2720  205.3000  151.0780 C   0  0  0  0  0  2  0  0  0  0  0  0
  161.5280  206.5550  150.5880 C   0  0  1  0  0  3  0  0  0  0  0  0
  160.7990  206.4270  149.2430 C   0  0  0  0  0  2  0  0  0  0  0  0
  161.5860  205.5880  148.2410 C   0  0  0  0  0  2  0  0  0  0  0  0
  160.4910  203.7560  150.0420 C   0  0  0  0  0  2  0  0  0  0  0  0
  161.4500  204.0090  151.2010 C   0  0  2  0  0  3  0  0  0  0  0  0
  160.7550  203.9880  152.4090 O   0  0  0  0  0  1  0  0  0  0  0  0
  161.3470  203.7710  148.4240 S   0  0  0  0  0  0  0  0  0  0  0  0
  2 16  1  6  0  0  0
  2  5  1  0  0  0  0
  2 11  1  0  0  0  0
  4  7  2  0  0  0  0
  4  6  1  0  0  0  0
  5  3  1  1  0  0  0
  5  4  1  0  0  0  0
  6  9  2  0  0  0  0
  7 10  1  0  0  0  0
  9  1  1  0  0  0  0
 10  8  1  0  0  0  0
 10  1  2  0  0  0  0
 11 12  1  0  0  0  0
 12  6  1  0  0  0  0
 13  5  1  0  0  0  0
 14 13  1  0  0  0  0
 15 16  1  0  0  0  0
 17 19  1  0  0  0  0
 17  7  1  0  0  0  0
 19 18  2  0  0  0  0
 20 19  1  0  0  0  0
 21 20  1  0  0  0  0
 22 21  1  0  0  0  0
 23 28  1  0  0  0  0
 24 23  1  0  0  0  0
 24 22  1  1  0  0  0
 25 24  1  0  0  0  0
 26 30  1  0  0  0  0
 26 25  1  0  0  0  0
 27 28  1  0  0  0  0
 28 29  1  1  0  0  0
 30 27  1  0  0  0  0
M  END
>  <MODEL>
7

>  <REMARK>
 VINA RESULT:      -5.5      4.295      9.274
  Name = 
  8 active torsions:
  status: ('A' for Active; 'I' for Inactive)
    1  A    between atoms: C_3  and  C_24
    2  A    between atoms: C_4  and  C_23
    3  A    between atoms: C_10  and  C_13
    4  A    between atoms: C_12  and  C_17
    5  A    between atoms: C_12  and  C_20
    6  A    between atoms: C_16  and  C_19
    7  A    between atoms: C_16  and  C_20
    8  A    between atoms: C_19  and  C_24
                            x       y       z     vdW  Elec       q    Type
                         _______ _______ _______ _____ _____    ______ ____

>  <TORSDO>
F 8

$$$$
=
 OpenBabel11072411113D

 30 32  0  0  1  0  0  0  0  0999 V2000
  160.6060  211.7610  151.2300 N   0  0  0  0  0  0  0  0  0  0  0  0
  158.0260  212.3310  155.5500 C   0  0  2  0  0  3  0  0  0  0  0  0
  160.4430  212.0990  156.2760 C   0  0  0  0  0  1  0  0  0  0  0  0
  159.8540  211.6260  153.9120 C   0  0  0  0  0  0  0  0  0  0  0  0
  159.3530  211.5390  155.3650 C   0  0  2  0  0  0  0  0  0  0  0  0
  159.2860  212.5820  153.0360 C   0  0  0  0  0  0  0  0  0  0  0  0
  160.8960  210.7930  153.4080 C   0  0  0  0  0  0  0  0  0  0  0  0
  162.2410  209.9530  151.4260 C   0  0  0  0  0  1  0  0  0  0  0  0
  159.6680  212.6170  151.6980 C   0  0  0  0  0  3  0  0  0  0  0  0
  161.2250  210.8620  152.0350 C   0  0  0  0  0  0  0  0  0  0  0  0
  158.0660  213.6850  154.8620 C   0  0  0  0  0  2  0  0  0  0  0  0
  158.3320  213.4990  153.4810 O   0  0  0  0  0  0  0  0  0  0  0  0
  159.0710  210.0680  155.7110 C   0  0  0  0  0  2  0  0  0  0  0  0
  159.5750  209.7170  156.9660 O   0  0  0  0  0  1  0  0  0  0  0  0
  156.1390  212.1540  157.0570 O   0  0  0  0  0  1  0  0  0  0  0  0
  157.5030  212.4490  156.9860 C   0  0  0  0  0  2  0  0  0  0  0  0
  161.6460  209.8440  154.3110 C   0  0  0  0  0  2  0  0  0  0  0  0
  161.2330  207.5700  155.1730 C   0  0  0  0  0  2  0  0  0  0  0  0
  161.2090  208.4170  154.1450 C   0  0  0  0  0  0  0  0  0  0  0  0
  160.7390  207.9500  152.8020 C   0  0  0  0  0  2  0  0  0  0  0  0
  161.1270  206.5000  152.5530 C   0  0  0  0  0  2  0  0  0  0  0  0
  161.7700  206.3480  151.1810 C   0  0  0  0  0  2  0  0  0  0  0  0
  160.4560  206.2030  148.9760 C   0  0  0  0  0  2  0  0  0  0  0  0
  160.9490  205.4730  150.2380 C   0  0  1  0  0  3  0  0  0  0  0  0
  161.5660  204.0850  150.0180 C   0  0  0  0  0  2  0  0  0  0  0  0
  160.8310  203.2950  148.9390 C   0  0  0  0  0  2  0  0  0  0  0  0
  162.3550  205.1880  147.5640 C   0  0  0  0  0  2  0  0  0  0  0  0
  161.4760  206.4030  147.8460 C   0  0  2  0  0  3  0  0  0  0  0  0
  162.2720  207.5190  148.1000 O   0  0  0  0  0  1  0  0  0  0  0  0
  161.3640  203.6870  147.2210 S   0  0  0  0  0  0  0  0  0  0  0  0
  1  9  2  0  0  0  0
  1 10  1  0  0  0  0
  2 16  1  1  0  0  0
  4  5  1  0  0  0  0
  5  2  1  0  0  0  0
  5 13  1  0  0  0  0
  5  3  1  1  0  0  0
  6 12  1  0  0  0  0
  6  4  2  0  0  0  0
  7  4  1  0  0  0  0
  7 17  1  0  0  0  0
  8 10  1  0  0  0  0
  9  6  1  0  0  0  0
 10  7  2  0  0  0  0
 11  2  1  0  0  0  0
 12 11  1  0  0  0  0
 13 14  1  0  0  0  0
 16 15  1  0  0  0  0
 19 17  1  0  0  0  0
 19 18  2  0  0  0  0
 20 19  1  0  0  0  0
 21 20  1  0  0  0  0
 22 21  1  0  0  0  0
 23 24  1  0  0  0  0
 24 22  1  6  0  0  0
 25 24  1  0  0  0  0
 26 25  1  0  0  0  0
 27 28  1  0  0  0  0
 28 29  1  1  0  0  0
 28 23  1  0  0  0  0
 30 27  1  0  0  0  0
 30 26  1  0  0  0  0
M  END
>  <MODEL>
8

>  <REMARK>
 VINA RESULT:      -5.5      3.804      9.445
  Name = 
  8 active torsions:
  status: ('A' for Active; 'I' for Inactive)
    1  A    between atoms: C_3  and  C_24
    2  A    between atoms: C_4  and  C_23
    3  A    between atoms: C_10  and  C_13
    4  A    between atoms: C_12  and  C_17
    5  A    between atoms: C_12  and  C_20
    6  A    between atoms: C_16  and  C_19
    7  A    between atoms: C_16  and  C_20
    8  A    between atoms: C_19  and  C_24
                            x       y       z     vdW  Elec       q    Type
                         _______ _______ _______ _____ _____    ______ ____

>  <TORSDO>
F 8

$$$$
=
 OpenBabel11072411113D

 30 32  0  0  1  0  0  0  0  0999 V2000
  160.6830  211.4340  151.9000 N   0  0  0  0  0  0  0  0  0  0  0  0
  157.0220  213.0020  155.0280 C   0  0  2  0  0  3  0  0  0  0  0  0
  159.1790  213.6340  156.2010 C   0  0  0  0  0  1  0  0  0  0  0  0
  159.2910  212.1680  154.2020 C   0  0  0  0  0  0  0  0  0  0  0  0
  158.4480  212.5320  155.4390 C   0  0  2  0  0  0  0  0  0  0  0  0
  158.8420  212.5540  152.9160 C   0  0  0  0  0  0  0  0  0  0  0  0
  160.5310  211.4720  154.2950 C   0  0  0  0  0  0  0  0  0  0  0  0
  162.4440  210.2730  153.1360 C   0  0  0  0  0  1  0  0  0  0  0  0
  159.5470  212.1610  151.7830 C   0  0  0  0  0  3  0  0  0  0  0  0
  161.1900  211.0830  153.1070 C   0  0  0  0  0  0  0  0  0  0  0  0
  157.0520  213.9580  153.8470 C   0  0  0  0  0  2  0  0  0  0  0  0
  157.6880  213.3230  152.7500 O   0  0  0  0  0  0  0  0  0  0  0  0
  158.2920  211.2840  156.3230 C   0  0  0  0  0  2  0  0  0  0  0  0
  157.4290  210.3420  155.7570 O   0  0  0  0  0  1  0  0  0  0  0  0
  154.8760  213.9110  155.6840 O   0  0  0  0  0  1  0  0  0  0  0  0
  156.1360  213.5370  156.1590 C   0  0  0  0  0  2  0  0  0  0  0  0
  161.1460  211.1440  155.6340 C   0  0  0  0  0  2  0  0  0  0  0  0
  161.9490  209.1850  156.9000 C   0  0  0  0  0  2  0  0  0  0  0  0
  161.2230  209.6670  155.8920 C   0  0  0  0  0  0  0  0  0  0  0  0
  160.4680  208.7310  155.0000 C   0  0  0  0  0  2  0  0  0  0  0  0
  161.1100  207.3520  154.9730 C   0  0  0  0  0  2  0  0  0  0  0  0
  160.6660  206.5820  153.7370 C   0  0  0  0  0  2  0  0  0  0  0  0
  162.3030  205.6370  151.9940 C   0  0  0  0  0  2  0  0  0  0  0  0
  161.5400  206.8670  152.5180 C   0  0  1  0  0  3  0  0  0  0  0  0
  160.8340  207.7260  151.4600 C   0  0  0  0  0  2  0  0  0  0  0  0
  161.6550  207.8480  150.1800 C   0  0  0  0  0  2  0  0  0  0  0  0
  160.5720  205.2750  150.1230 C   0  0  0  0  0  2  0  0  0  0  0  0
  161.5080  204.6360  151.1450 C   0  0  2  0  0  3  0  0  0  0  0  0
  160.7950  203.7620  151.9640 O   0  0  0  0  0  1  0  0  0  0  0  0
  161.4520  206.4360  149.0150 S   0  0  0  0  0  0  0  0  0  0  0  0
  1 10  1  0  0  0  0
  2  5  1  0  0  0  0
  2 16  1  1  0  0  0
  4  7  1  0  0  0  0
  4  5  1  0  0  0  0
  5  3  1  1  0  0  0
  5 13  1  0  0  0  0
  6  4  2  0  0  0  0
  7 17  1  0  0  0  0
  9  1  2  0  0  0  0
  9  6  1  0  0  0  0
 10  8  1  0  0  0  0
 10  7  2  0  0  0  0
 11  2  1  0  0  0  0
 12  6  1  0  0  0  0
 12 11  1  0  0  0  0
 14 13  1  0  0  0  0
 15 16  1  0  0  0  0
 17 19  1  0  0  0  0
 19 18  2  0  0  0  0
 20 19  1  0  0  0  0
 21 20  1  0  0  0  0
 22 21  1  0  0  0  0
 23 24  1  0  0  0  0
 24 22  1  1  0  0  0
 25 24  1  0  0  0  0
 26 25  1  0  0  0  0
 27 28  1  0  0  0  0
 28 29  1  1  0  0  0
 28 23  1  0  0  0  0
 30 27  1  0  0  0  0
 30 26  1  0  0  0  0
M  END
>  <MODEL>
9

>  <REMARK>
 VINA RESULT:      -5.3      3.983      9.148
  Name = 
  8 active torsions:
  status: ('A' for Active; 'I' for Inactive)
    1  A    between atoms: C_3  and  C_24
    2  A    between atoms: C_4  and  C_23
    3  A    between atoms: C_10  and  C_13
    4  A    between atoms: C_12  and  C_17
    5  A    between atoms: C_12  and  C_20
    6  A    between atoms: C_16  and  C_19
    7  A    between atoms: C_16  and  C_20
    8  A    between atoms: C_19  and  C_24
                            x       y       z     vdW  Elec       q    Type
                         _______ _______ _______ _____ _____    ______ ____

>  <TORSDO>
F 8

$$$$
