=
 OpenBabel11072411063D

 46 51  0  0  1  0  0  0  0  0999 V2000
  160.4440  209.6100  153.9520 C   0  0  1  0  0  3  0  0  0  0  0  0
  160.0520  209.3930  152.4890 C   0  0  0  0  0  1  0  0  0  0  0  0
  159.3590  213.3790  154.5090 C   0  0  0  0  0  2  0  0  0  0  0  0
  158.2650  210.7170  154.7470 C   0  0  0  0  0  3  0  0  0  0  0  0
  159.7610  210.8300  154.6020 C   0  0  2  0  0  3  0  0  0  0  0  0
  160.1660  212.1770  153.9640 C   0  0  1  0  0  3  0  0  0  0  0  0
  158.3410  213.0100  155.5980 C   0  0  0  0  0  2  0  0  0  0  0  0
  157.5820  211.7620  155.2220 C   0  0  0  0  0  0  0  0  0  0  0  0
  155.5970  210.2590  155.4770 C   0  0  0  0  0  2  0  0  0  0  0  0
  156.0830  211.6980  155.2760 C   0  0  1  0  0  3  0  0  0  0  0  0
  154.6120  210.4440  156.5420 C   0  0  0  0  0  0  0  0  0  0  0  0
  155.5370  212.5560  156.3430 N   0  0  0  0  0  0  0  0  0  0  0  0
  154.5900  211.7660  157.0090 N   0  0  0  0  0  0  0  0  0  0  0  0
  153.8680  209.5390  156.9950 O   0  0  0  0  0  0  0  0  0  0  0  0
  160.0390  212.1460  152.4470 C   0  0  0  0  0  2  0  0  0  0  0  0
  158.8770  213.0260  152.0030 C   0  0  1  0  0  3  0  0  0  0  0  0
  159.3660  214.4530  151.7870 C   0  0  0  0  0  2  0  0  0  0  0  0
  159.0400  213.5830  150.5910 C   0  0  1  0  0  0  0  0  0  0  0  0
  160.2510  213.1570  149.7680 C   0  0  0  0  0  1  0  0  0  0  0  0
  157.4090  212.9470  148.7070 C   0  0  0  0  0  2  0  0  0  0  0  0
  156.5990  214.1730  150.6340 O   0  0  0  0  0  1  0  0  0  0  0  0
  157.7170  214.4190  148.4600 C   0  0  0  0  0  2  0  0  0  0  0  0
  157.7220  213.8640  149.8670 C   0  0  0  0  0  0  0  0  0  0  0  0
  160.3920  208.3220  154.8220 C   0  0  1  0  0  0  0  0  0  0  0  0
  162.3250  208.3580  156.6150 N   0  0  0  0  0  0  0  0  0  0  0  0
  161.4770  208.3410  155.8280 C   0  0  0  0  0  0  0  0  0  0  0  0
  159.1020  206.9720  156.2100 C   0  0  0  0  0  1  0  0  0  0  0  0
  159.1320  208.1660  155.4640 O   0  0  0  0  0  0  0  0  0  0  0  0
  160.6470  207.0870  153.9480 C   0  0  0  0  0  2  0  0  0  0  0  0
  162.0280  206.6410  154.0500 N   0  0  0  0  0  2  0  0  0  0  0  0
  162.4080  206.1260  152.7460 C   0  0  0  0  0  2  0  0  0  0  0  0
  161.0400  204.0460  150.2940 N   0  0  0  0  0  2  0  0  0  0  0  0
  161.5310  207.6370  150.0360 C   0  0  0  0  0  3  0  0  0  0  0  0
  161.3450  206.3410  150.5130 C   0  0  0  0  0  0  0  0  0  0  0  0
  161.6490  207.8300  148.6900 N   0  0  0  0  0  0  0  0  0  0  0  0
  160.7720  203.5710  152.5840 O   0  0  0  0  0  0  0  0  0  0  0  0
  161.5800  206.7910  147.8020 C   0  0  0  0  0  3  0  0  0  0  0  0
  161.2680  205.2840  149.6360 C   0  0  0  0  0  0  0  0  0  0  0  0
  161.3800  205.4780  148.2580 C   0  0  0  0  0  0  0  0  0  0  0  0
  160.9780  204.4130  151.6710 C   0  0  0  0  0  0  0  0  0  0  0  0
  161.1560  205.8820  151.9210 C   0  0  1  0  0  3  0  0  0  0  0  0
  161.2790  204.3490  147.2840 C   0  0  0  0  0  2  0  0  0  0  0  0
  163.1710  204.8290  145.8310 O   0  0  0  0  0  1  0  0  0  0  0  0
  161.4070  205.3080  143.7730 O   0  0  0  0  0  0  0  0  0  0  0  0
  160.9500  204.9980  144.9040 C   0  0  0  0  0  3  0  0  0  0  0  0
  161.8310  204.7340  145.9950 N   0  0  0  0  0  0  0  0  0  0  0  0
  1  2  1  6  0  0  0
  1 24  1  0  0  0  0
  3  7  1  0  0  0  0
  4  8  2  0  0  0  0
  5  1  1  6  0  0  0
  5  4  1  0  0  0  0
  6 15  1  6  0  0  0
  6  3  1  0  0  0  0
  6  5  1  0  0  0  0
  8  7  1  0  0  0  0
  9 11  1  0  0  0  0
 10  8  1  1  0  0  0
 10  9  1  0  0  0  0
 10 12  1  0  0  0  0
 11 14  2  0  0  0  0
 11 13  1  0  0  0  0
 12 13  2  0  0  0  0
 16 15  1  6  0  0  0
 17 16  1  0  0  0  0
 18 19  1  6  0  0  0
 18 17  1  0  0  0  0
 18 16  1  0  0  0  0
 20 23  1  0  0  0  0
 22 20  1  0  0  0  0
 22 23  1  0  0  0  0
 23 18  1  0  0  0  0
 23 21  1  0  0  0  0
 24 29  1  6  0  0  0
 24 28  1  0  0  0  0
 24 26  1  0  0  0  0
 26 25  3  0  0  0  0
 28 27  1  0  0  0  0
 29 30  1  0  0  0  0
 31 30  1  0  0  0  0
 32 40  1  0  0  0  0
 33 34  1  0  0  0  0
 34 41  1  0  0  0  0
 35 33  2  0  0  0  0
 37 39  2  0  0  0  0
 37 35  1  0  0  0  0
 38 32  1  0  0  0  0
 38 34  2  0  0  0  0
 39 38  1  0  0  0  0
 40 41  1  0  0  0  0
 40 36  2  0  0  0  0
 41 31  1  1  0  0  0
 42 39  1  0  0  0  0
 43 46  1  0  0  0  0
 44 45  2  0  0  0  0
 45 46  1  0  0  0  0
 46 42  1  0  0  0  0
M  END
>  <MODEL>
1

>  <REMARK>
 VINA RESULT:      -6.4      0.000      0.000
  Name = 
  14 active torsions:
  status: ('A' for Active; 'I' for Inactive)
    1  A    between atoms: C_1  and  C_43
    2  A    between atoms: C_6  and  N_38
    3  A    between atoms: C_6  and  C_46
    4  A    between atoms: C_12  and  C_42
    5  A    between atoms: C_13  and  C_32
    6  A    between atoms: C_13  and  N_39
    7  A    between atoms: C_17  and  C_26
    8  A    between atoms: C_21  and  N_38
    9  A    between atoms: C_21  and  C_44
   10  A    between atoms: C_23  and  C_34
   11  A    between atoms: C_26  and  C_46
   12  A    between atoms: O_29  and  C_46
   13  A    between atoms: C_35  and  C_43
   14  A    between atoms: C_36  and  C_46
                            x       y       z     vdW  Elec       q    Type
                         _______ _______ _______ _____ _____    ______ ____

>  <TORSDO>
F 14

$$$$
=
 OpenBabel11072411063D

 46 51  0  0  1  0  0  0  0  0999 V2000
  161.0200  209.1040  152.9910 C   0  0  1  0  0  3  0  0  0  0  0  0
  160.4530  208.6180  151.6560 C   0  0  0  0  0  1  0  0  0  0  0  0
  160.1220  212.9610  152.8880 C   0  0  0  0  0  2  0  0  0  0  0  0
  158.9770  210.4590  153.7610 C   0  0  0  0  0  3  0  0  0  0  0  0
  160.4510  210.4620  153.4490 C   0  0  2  0  0  3  0  0  0  0  0  0
  160.8270  211.6360  152.5170 C   0  0  1  0  0  3  0  0  0  0  0  0
  159.2170  212.8670  154.1250 C   0  0  0  0  0  2  0  0  0  0  0  0
  158.3820  211.6110  154.0830 C   0  0  0  0  0  0  0  0  0  0  0  0
  156.4770  210.6460  155.3890 C   0  0  0  0  0  2  0  0  0  0  0  0
  156.8970  211.6380  154.2980 C   0  0  1  0  0  3  0  0  0  0  0  0
  155.5840  211.4780  156.1930 C   0  0  0  0  0  0  0  0  0  0  0  0
  156.4190  212.9870  154.6500 N   0  0  0  0  0  0  0  0  0  0  0  0
  155.5600  212.8060  155.7420 N   0  0  0  0  0  0  0  0  0  0  0  0
  154.9120  211.0700  157.1730 O   0  0  0  0  0  0  0  0  0  0  0  0
  160.5350  211.3150  151.0570 C   0  0  0  0  0  2  0  0  0  0  0  0
  161.7290  211.6960  150.1910 C   0  0  1  0  0  3  0  0  0  0  0  0
  161.7950  210.7780  148.9750 C   0  0  0  0  0  2  0  0  0  0  0  0
  161.3370  212.2120  148.8080 C   0  0  1  0  0  0  0  0  0  0  0  0
  159.8570  212.3690  148.4740 C   0  0  0  0  0  1  0  0  0  0  0  0
  162.3610  213.2370  146.6830 C   0  0  0  0  0  2  0  0  0  0  0  0
  162.4710  214.4530  148.7760 O   0  0  0  0  0  1  0  0  0  0  0  0
  163.5570  212.6900  147.4530 C   0  0  0  0  0  2  0  0  0  0  0  0
  162.3370  213.1930  148.1940 C   0  0  0  0  0  0  0  0  0  0  0  0
  161.0380  208.0210  154.1070 C   0  0  1  0  0  0  0  0  0  0  0  0
  162.1580  208.9840  156.2920 N   0  0  0  0  0  0  0  0  0  0  0  0
  161.6670  208.5620  155.3320 C   0  0  0  0  0  0  0  0  0  0  0  0
  159.5760  207.3420  155.7850 C   0  0  0  0  0  1  0  0  0  0  0  0
  159.7320  207.5390  154.3990 O   0  0  0  0  0  0  0  0  0  0  0  0
  161.9070  206.8340  153.6730 C   0  0  0  0  0  2  0  0  0  0  0  0
  161.1120  205.8030  153.0230 N   0  0  0  0  0  2  0  0  0  0  0  0
  161.8650  205.3480  151.8670 C   0  0  0  0  0  2  0  0  0  0  0  0
  161.5250  203.2620  149.0850 N   0  0  0  0  0  2  0  0  0  0  0  0
  161.2680  206.8860  149.0970 C   0  0  0  0  0  3  0  0  0  0  0  0
  161.2720  205.5420  149.4650 C   0  0  0  0  0  0  0  0  0  0  0  0
  161.6210  207.2180  147.8210 N   0  0  0  0  0  0  0  0  0  0  0  0
  160.8930  202.5390  151.2340 O   0  0  0  0  0  0  0  0  0  0  0  0
  161.9660  206.2700  146.8960 C   0  0  0  0  0  3  0  0  0  0  0  0
  161.6120  204.5730  148.5480 C   0  0  0  0  0  0  0  0  0  0  0  0
  161.9650  204.9090  147.2390 C   0  0  0  0  0  0  0  0  0  0  0  0
  161.0980  203.4840  150.4280 C   0  0  0  0  0  0  0  0  0  0  0  0
  160.8970  204.9300  150.7730 C   0  0  1  0  0  3  0  0  0  0  0  0
  162.3180  203.8740  146.2210 C   0  0  0  0  0  2  0  0  0  0  0  0
  160.5250  204.3160  144.6350 O   0  0  0  0  0  1  0  0  0  0  0  0
  159.6250  201.7420  145.0090 O   0  0  0  0  0  0  0  0  0  0  0  0
  160.6320  202.1330  145.6560 C   0  0  0  0  0  3  0  0  0  0  0  0
  161.1350  203.4560  145.4840 N   0  0  0  0  0  0  0  0  0  0  0  0
  1  2  1  6  0  0  0
  1 24  1  0  0  0  0
  3  7  1  0  0  0  0
  4  8  2  0  0  0  0
  5  1  1  6  0  0  0
  5  4  1  0  0  0  0
  6 15  1  6  0  0  0
  6  3  1  0  0  0  0
  6  5  1  0  0  0  0
  8  7  1  0  0  0  0
  9 11  1  0  0  0  0
 10  8  1  1  0  0  0
 10 12  1  0  0  0  0
 10  9  1  0  0  0  0
 11 14  2  0  0  0  0
 12 13  2  0  0  0  0
 13 11  1  0  0  0  0
 16 15  1  1  0  0  0
 17 16  1  0  0  0  0
 18 19  1  6  0  0  0
 18 17  1  0  0  0  0
 18 16  1  0  0  0  0
 20 22  1  0  0  0  0
 20 23  1  0  0  0  0
 22 23  1  0  0  0  0
 23 21  1  0  0  0  0
 23 18  1  0  0  0  0
 24 29  1  6  0  0  0
 24 28  1  0  0  0  0
 24 26  1  0  0  0  0
 26 25  3  0  0  0  0
 28 27  1  0  0  0  0
 30 29  1  0  0  0  0
 31 30  1  0  0  0  0
 32 40  1  0  0  0  0
 33 34  1  0  0  0  0
 34 41  1  0  0  0  0
 35 33  2  0  0  0  0
 37 39  2  0  0  0  0
 37 35  1  0  0  0  0
 38 32  1  0  0  0  0
 38 34  2  0  0  0  0
 39 38  1  0  0  0  0
 40 41  1  0  0  0  0
 40 36  2  0  0  0  0
 41 31  1  1  0  0  0
 42 39  1  0  0  0  0
 43 46  1  0  0  0  0
 44 45  2  0  0  0  0
 46 45  1  0  0  0  0
 46 42  1  0  0  0  0
M  END
>  <MODEL>
2

>  <REMARK>
 VINA RESULT:      -5.8      1.939      2.502
  Name = 
  14 active torsions:
  status: ('A' for Active; 'I' for Inactive)
    1  A    between atoms: C_1  and  C_43
    2  A    between atoms: C_6  and  N_38
    3  A    between atoms: C_6  and  C_46
    4  A    between atoms: C_12  and  C_42
    5  A    between atoms: C_13  and  C_32
    6  A    between atoms: C_13  and  N_39
    7  A    between atoms: C_17  and  C_26
    8  A    between atoms: C_21  and  N_38
    9  A    between atoms: C_21  and  C_44
   10  A    between atoms: C_23  and  C_34
   11  A    between atoms: C_26  and  C_46
   12  A    between atoms: O_29  and  C_46
   13  A    between atoms: C_35  and  C_43
   14  A    between atoms: C_36  and  C_46
                            x       y       z     vdW  Elec       q    Type
                         _______ _______ _______ _____ _____    ______ ____

>  <TORSDO>
F 14

$$$$
=
 OpenBabel11072411063D

 46 51  0  0  1  0  0  0  0  0999 V2000
  160.6090  210.5890  153.2330 C   0  0  1  0  0  3  0  0  0  0  0  0
  159.9110  209.8350  152.0990 C   0  0  0  0  0  1  0  0  0  0  0  0
  158.9390  214.1710  152.9610 C   0  0  0  0  0  2  0  0  0  0  0  0
  158.5140  211.6410  154.2850 C   0  0  0  0  0  3  0  0  0  0  0  0
  159.8710  211.8700  153.6710 C   0  0  2  0  0  3  0  0  0  0  0  0
  159.8180  212.9580  152.5750 C   0  0  1  0  0  3  0  0  0  0  0  0
  158.3220  214.0790  154.3640 C   0  0  0  0  0  2  0  0  0  0  0  0
  157.7680  212.6990  154.6160 C   0  0  0  0  0  0  0  0  0  0  0  0
  155.7630  211.2020  154.5620 C   0  0  0  0  0  2  0  0  0  0  0  0
  156.3760  212.4840  155.1350 C   0  0  1  0  0  3  0  0  0  0  0  0
  155.2150  210.5900  155.7720 C   0  0  0  0  0  0  0  0  0  0  0  0
  156.3440  212.4300  156.6080 N   0  0  0  0  0  0  0  0  0  0  0  0
  155.5510  211.3180  156.9230 N   0  0  0  0  0  0  0  0  0  0  0  0
  154.5250  209.5410  155.7960 O   0  0  0  0  0  0  0  0  0  0  0  0
  159.3290  212.3990  151.2460 C   0  0  0  0  0  2  0  0  0  0  0  0
  159.4950  213.4430  150.1490 C   0  0  1  0  0  3  0  0  0  0  0  0
  160.8120  214.1860  150.3420 C   0  0  0  0  0  2  0  0  0  0  0  0
  160.6810  213.1710  149.2260 C   0  0  1  0  0  0  0  0  0  0  0  0
  161.4930  211.8970  149.4280 C   0  0  0  0  0  1  0  0  0  0  0  0
  160.9120  212.7740  146.6950 C   0  0  0  0  0  2  0  0  0  0  0  0
  159.3660  214.4530  147.5110 O   0  0  0  0  0  1  0  0  0  0  0  0
  161.7240  214.0380  146.9560 C   0  0  0  0  0  2  0  0  0  0  0  0
  160.5140  213.7180  147.8070 C   0  0  0  0  0  0  0  0  0  0  0  0
  161.0590  209.6860  154.4160 C   0  0  1  0  0  0  0  0  0  0  0  0
  162.6030  211.0470  156.0630 N   0  0  0  0  0  0  0  0  0  0  0  0
  161.9250  210.4500  155.3410 C   0  0  0  0  0  0  0  0  0  0  0  0
  160.2670  208.9650  156.4820 C   0  0  0  0  0  1  0  0  0  0  0  0
  159.9490  209.1440  155.1210 O   0  0  0  0  0  0  0  0  0  0  0  0
  161.9160  208.5250  153.8940 C   0  0  0  0  0  2  0  0  0  0  0  0
  161.0880  207.4210  153.4300 N   0  0  0  0  0  2  0  0  0  0  0  0
  161.7890  206.7990  152.3200 C   0  0  0  0  0  2  0  0  0  0  0  0
  161.2790  204.0200  150.2650 N   0  0  0  0  0  2  0  0  0  0  0  0
  161.2260  207.5010  149.2240 C   0  0  0  0  0  3  0  0  0  0  0  0
  161.1610  206.3230  149.9660 C   0  0  0  0  0  0  0  0  0  0  0  0
  161.5720  207.4260  147.9060 N   0  0  0  0  0  0  0  0  0  0  0  0
  160.6490  203.9910  152.5340 O   0  0  0  0  0  0  0  0  0  0  0  0
  161.8460  206.2330  147.2960 C   0  0  0  0  0  3  0  0  0  0  0  0
  161.4280  205.1120  149.3700 C   0  0  0  0  0  0  0  0  0  0  0  0
  161.7740  205.0320  148.0200 C   0  0  0  0  0  0  0  0  0  0  0  0
  160.8910  204.6470  151.4870 C   0  0  0  0  0  0  0  0  0  0  0  0
  160.7780  206.1400  151.3970 C   0  0  1  0  0  3  0  0  0  0  0  0
  162.0480  203.7270  147.3450 C   0  0  0  0  0  2  0  0  0  0  0  0
  160.8910  202.5500  145.5570 O   0  0  0  0  0  1  0  0  0  0  0  0
  160.8690  204.8850  144.1000 O   0  0  0  0  0  0  0  0  0  0  0  0
  161.4140  204.8830  145.2350 C   0  0  0  0  0  3  0  0  0  0  0  0
  161.4390  203.6960  146.0240 N   0  0  0  0  0  0  0  0  0  0  0  0
  1  2  1  6  0  0  0
  1 24  1  0  0  0  0
  3  7  1  0  0  0  0
  4  8  2  0  0  0  0
  5  1  1  6  0  0  0
  5  4  1  0  0  0  0
  6 15  1  6  0  0  0
  6  3  1  0  0  0  0
  6  5  1  0  0  0  0
  7  8  1  0  0  0  0
  9 10  1  0  0  0  0
  9 11  1  0  0  0  0
 10  8  1  1  0  0  0
 10 12  1  0  0  0  0
 11 14  2  0  0  0  0
 11 13  1  0  0  0  0
 12 13  2  0  0  0  0
 16 17  1  0  0  0  0
 16 15  1  1  0  0  0
 18 19  1  1  0  0  0
 18 16  1  0  0  0  0
 18 17  1  0  0  0  0
 20 22  1  0  0  0  0
 20 23  1  0  0  0  0
 21 23  1  0  0  0  0
 22 23  1  0  0  0  0
 23 18  1  0  0  0  0
 24 29  1  6  0  0  0
 24 28  1  0  0  0  0
 24 26  1  0  0  0  0
 26 25  3  0  0  0  0
 28 27  1  0  0  0  0
 30 29  1  0  0  0  0
 31 30  1  0  0  0  0
 32 40  1  0  0  0  0
 33 34  1  0  0  0  0
 34 41  1  0  0  0  0
 35 33  2  0  0  0  0
 37 35  1  0  0  0  0
 37 39  2  0  0  0  0
 38 34  2  0  0  0  0
 38 32  1  0  0  0  0
 39 38  1  0  0  0  0
 40 36  2  0  0  0  0
 41 40  1  0  0  0  0
 41 31  1  1  0  0  0
 42 39  1  0  0  0  0
 43 46  1  0  0  0  0
 44 45  2  0  0  0  0
 45 46  1  0  0  0  0
 46 42  1  0  0  0  0
M  END
>  <MODEL>
3

>  <REMARK>
 VINA RESULT:      -5.6      1.507      1.810
  Name = 
  14 active torsions:
  status: ('A' for Active; 'I' for Inactive)
    1  A    between atoms: C_1  and  C_43
    2  A    between atoms: C_6  and  N_38
    3  A    between atoms: C_6  and  C_46
    4  A    between atoms: C_12  and  C_42
    5  A    between atoms: C_13  and  C_32
    6  A    between atoms: C_13  and  N_39
    7  A    between atoms: C_17  and  C_26
    8  A    between atoms: C_21  and  N_38
    9  A    between atoms: C_21  and  C_44
   10  A    between atoms: C_23  and  C_34
   11  A    between atoms: C_26  and  C_46
   12  A    between atoms: O_29  and  C_46
   13  A    between atoms: C_35  and  C_43
   14  A    between atoms: C_36  and  C_46
                            x       y       z     vdW  Elec       q    Type
                         _______ _______ _______ _____ _____    ______ ____

>  <TORSDO>
F 14

$$$$
=
 OpenBabel11072411063D

 46 51  0  0  1  0  0  0  0  0999 V2000
  161.2740  208.4010  150.0360 C   0  0  1  0  0  3  0  0  0  0  0  0
  161.1050  208.2140  148.5270 C   0  0  0  0  0  1  0  0  0  0  0  0
  162.1870  205.9820  153.0380 C   0  0  0  0  0  2  0  0  0  0  0  0
  161.0700  205.8630  150.3780 C   0  0  0  0  0  3  0  0  0  0  0  0
  161.7730  207.1380  150.7650 C   0  0  2  0  0  3  0  0  0  0  0  0
  161.8440  207.2980  152.3000 C   0  0  1  0  0  3  0  0  0  0  0  0
  162.4250  204.7850  152.1060 C   0  0  0  0  0  2  0  0  0  0  0  0
  161.3790  204.7330  151.0210 C   0  0  0  0  0  0  0  0  0  0  0  0
  160.6180  203.1830  149.2090 C   0  0  0  0  0  2  0  0  0  0  0  0
  160.6150  203.4780  150.7130 C   0  0  1  0  0  3  0  0  0  0  0  0
  160.9620  201.7620  149.2050 C   0  0  0  0  0  0  0  0  0  0  0  0
  161.1540  202.3170  151.4440 N   0  0  0  0  0  0  0  0  0  0  0  0
  161.2510  201.2910  150.4940 N   0  0  0  0  0  0  0  0  0  0  0  0
  160.9990  201.0360  148.1810 O   0  0  0  0  0  0  0  0  0  0  0  0
  160.5480  207.8580  152.8720 C   0  0  0  0  0  2  0  0  0  0  0  0
  160.8540  208.9750  153.8610 C   0  0  1  0  0  3  0  0  0  0  0  0
  159.5530  209.5210  154.4380 C   0  0  0  0  0  2  0  0  0  0  0  0
  160.4440  208.6470  155.2950 C   0  0  1  0  0  0  0  0  0  0  0  0
  159.8750  207.2650  155.5990 C   0  0  0  0  0  1  0  0  0  0  0  0
  160.5250  210.3080  157.2580 C   0  0  0  0  0  2  0  0  0  0  0  0
  162.2330  208.6000  157.0580 O   0  0  0  0  0  1  0  0  0  0  0  0
  161.5660  210.8320  156.2760 C   0  0  0  0  0  2  0  0  0  0  0  0
  161.2810  209.3480  156.3660 C   0  0  0  0  0  0  0  0  0  0  0  0
  162.0320  209.6990  150.4350 C   0  0  1  0  0  0  0  0  0  0  0  0
  160.3610  211.4350  151.5060 N   0  0  0  0  0  0  0  0  0  0  0  0
  161.0950  210.6730  151.0360 C   0  0  0  0  0  0  0  0  0  0  0  0
  163.2580  210.4940  152.2470 C   0  0  0  0  0  1  0  0  0  0  0  0
  163.1030  209.4330  151.3340 O   0  0  0  0  0  0  0  0  0  0  0  0
  162.6060  210.3780  149.1850 C   0  0  0  0  0  2  0  0  0  0  0  0
  162.0300  211.7000  148.9880 N   0  0  0  0  0  2  0  0  0  0  0  0
  161.3560  211.6850  147.7010 C   0  0  0  0  0  2  0  0  0  0  0  0
  159.2270  213.5870  145.6860 N   0  0  0  0  0  2  0  0  0  0  0  0
  162.8550  213.5030  145.5000 C   0  0  0  0  0  3  0  0  0  0  0  0
  161.5340  213.4190  145.9340 C   0  0  0  0  0  0  0  0  0  0  0  0
  163.0980  213.8360  144.1990 N   0  0  0  0  0  0  0  0  0  0  0  0
  158.6590  213.0710  147.9120 O   0  0  0  0  0  0  0  0  0  0  0  0
  162.0850  214.0990  143.3180 C   0  0  0  0  0  3  0  0  0  0  0  0
  160.5000  213.6840  145.0650 C   0  0  0  0  0  0  0  0  0  0  0  0
  160.7460  214.0340  143.7350 C   0  0  0  0  0  0  0  0  0  0  0  0
  159.5450  213.2370  147.0320 C   0  0  0  0  0  0  0  0  0  0  0  0
  161.0150  213.1110  147.2990 C   0  0  1  0  0  3  0  0  0  0  0  0
  159.6420  214.3460  142.7780 C   0  0  0  0  0  2  0  0  0  0  0  0
  158.3200  213.2190  141.0740 O   0  0  0  0  0  1  0  0  0  0  0  0
  160.1290  211.1450  141.1110 O   0  0  0  0  0  0  0  0  0  0  0  0
  160.3080  212.1200  141.8870 C   0  0  0  0  0  3  0  0  0  0  0  0
  159.3980  213.2180  141.8930 N   0  0  0  0  0  0  0  0  0  0  0  0
  1  2  1  6  0  0  0
  1 24  1  0  0  0  0
  4  5  1  0  0  0  0
  4  8  2  0  0  0  0
  5  1  1  6  0  0  0
  5  6  1  0  0  0  0
  6 15  1  1  0  0  0
  6  3  1  0  0  0  0
  7  3  1  0  0  0  0
  8  7  1  0  0  0  0
  9 10  1  0  0  0  0
 10  8  1  6  0  0  0
 10 12  1  0  0  0  0
 11  9  1  0  0  0  0
 11 13  1  0  0  0  0
 13 12  2  0  0  0  0
 14 11  2  0  0  0  0
 16 15  1  6  0  0  0
 16 17  1  0  0  0  0
 16 18  1  0  0  0  0
 17 18  1  0  0  0  0
 18 19  1  1  0  0  0
 18 23  1  0  0  0  0
 22 23  1  0  0  0  0
 22 20  1  0  0  0  0
 23 21  1  0  0  0  0
 23 20  1  0  0  0  0
 24 29  1  6  0  0  0
 24 26  1  0  0  0  0
 24 28  1  0  0  0  0
 26 25  3  0  0  0  0
 28 27  1  0  0  0  0
 30 29  1  0  0  0  0
 31 30  1  0  0  0  0
 32 40  1  0  0  0  0
 33 34  1  0  0  0  0
 34 41  1  0  0  0  0
 35 33  2  0  0  0  0
 37 39  2  0  0  0  0
 37 35  1  0  0  0  0
 38 32  1  0  0  0  0
 38 34  2  0  0  0  0
 39 38  1  0  0  0  0
 40 41  1  0  0  0  0
 40 36  2  0  0  0  0
 41 31  1  6  0  0  0
 42 39  1  0  0  0  0
 43 46  1  0  0  0  0
 44 45  2  0  0  0  0
 45 46  1  0  0  0  0
 46 42  1  0  0  0  0
M  END
>  <MODEL>
4

>  <REMARK>
 VINA RESULT:      -4.8      4.092      8.721
  Name = 
  14 active torsions:
  status: ('A' for Active; 'I' for Inactive)
    1  A    between atoms: C_1  and  C_43
    2  A    between atoms: C_6  and  N_38
    3  A    between atoms: C_6  and  C_46
    4  A    between atoms: C_12  and  C_42
    5  A    between atoms: C_13  and  C_32
    6  A    between atoms: C_13  and  N_39
    7  A    between atoms: C_17  and  C_26
    8  A    between atoms: C_21  and  N_38
    9  A    between atoms: C_21  and  C_44
   10  A    between atoms: C_23  and  C_34
   11  A    between atoms: C_26  and  C_46
   12  A    between atoms: O_29  and  C_46
   13  A    between atoms: C_35  and  C_43
   14  A    between atoms: C_36  and  C_46
                            x       y       z     vdW  Elec       q    Type
                         _______ _______ _______ _____ _____    ______ ____

>  <TORSDO>
F 14

$$$$
=
 OpenBabel11072411063D

 46 51  0  0  1  0  0  0  0  0999 V2000
  161.7300  211.6750  150.0580 C   0  0  1  0  0  3  0  0  0  0  0  0
  160.3780  212.1750  150.5720 C   0  0  0  0  0  1  0  0  0  0  0  0
  161.9990  208.4300  152.3140 C   0  0  0  0  0  2  0  0  0  0  0  0
  161.3720  209.1730  149.5950 C   0  0  0  0  0  3  0  0  0  0  0  0
  162.0430  210.2170  150.4500 C   0  0  2  0  0  3  0  0  0  0  0  0
  161.8440  209.9260  151.9550 C   0  0  1  0  0  3  0  0  0  0  0  0
  162.3550  207.5310  151.1210 C   0  0  0  0  0  2  0  0  0  0  0  0
  161.5180  207.8840  149.9160 C   0  0  0  0  0  0  0  0  0  0  0  0
  161.1610  206.8820  147.6500 C   0  0  0  0  0  2  0  0  0  0  0  0
  160.7740  206.8420  149.1320 C   0  0  1  0  0  3  0  0  0  0  0  0
  161.3860  205.4630  147.3820 C   0  0  0  0  0  0  0  0  0  0  0  0
  161.0070  205.4870  149.6650 N   0  0  0  0  0  0  0  0  0  0  0  0
  161.2800  204.6880  148.5470 N   0  0  0  0  0  0  0  0  0  0  0  0
  161.6450  204.9780  146.2530 O   0  0  0  0  0  0  0  0  0  0  0  0
  160.4890  210.4130  152.4510 C   0  0  0  0  0  2  0  0  0  0  0  0
  160.3540  210.1450  153.9450 C   0  0  1  0  0  3  0  0  0  0  0  0
  161.2890  211.0670  154.7190 C   0  0  0  0  0  2  0  0  0  0  0  0
  159.7980  211.3320  154.7280 C   0  0  1  0  0  0  0  0  0  0  0  0
  159.3710  212.5810  153.9650 C   0  0  0  0  0  1  0  0  0  0  0  0
  157.5740  210.6070  155.7970 C   0  0  0  0  0  2  0  0  0  0  0  0
  159.6630  210.1210  156.9250 O   0  0  0  0  0  1  0  0  0  0  0  0
  157.9690  211.8640  156.5620 C   0  0  0  0  0  2  0  0  0  0  0  0
  159.0330  210.9490  155.9960 C   0  0  0  0  0  0  0  0  0  0  0  0
  161.9990  211.9940  148.5600 C   0  0  1  0  0  0  0  0  0  0  0  0
  162.9280  214.4490  148.3070 N   0  0  0  0  0  0  0  0  0  0  0  0
  162.5200  213.3720  148.4170 C   0  0  0  0  0  0  0  0  0  0  0  0
  164.0600  211.7270  147.5130 C   0  0  0  0  0  1  0  0  0  0  0  0
  162.9040  211.0670  147.9730 O   0  0  0  0  0  0  0  0  0  0  0  0
  160.6850  211.9550  147.7700 C   0  0  0  0  0  2  0  0  0  0  0  0
  160.8280  212.5890  146.4690 N   0  0  0  0  0  2  0  0  0  0  0  0
  159.8790  213.6890  146.4230 C   0  0  0  0  0  2  0  0  0  0  0  0
  158.9000  213.0290  143.1340 N   0  0  0  0  0  2  0  0  0  0  0  0
  162.2850  213.6910  144.2760 C   0  0  0  0  0  3  0  0  0  0  0  0
  160.8980  213.6330  144.1600 C   0  0  0  0  0  0  0  0  0  0  0  0
  163.0480  213.0490  143.3450 N   0  0  0  0  0  0  0  0  0  0  0  0
  157.4600  214.1290  144.6380 O   0  0  0  0  0  0  0  0  0  0  0  0
  162.4910  212.3620  142.3010 C   0  0  0  0  0  3  0  0  0  0  0  0
  160.3170  212.9520  143.1150 C   0  0  0  0  0  0  0  0  0  0  0  0
  161.0950  212.3000  142.1550 C   0  0  0  0  0  0  0  0  0  0  0  0
  158.6300  213.8240  144.2880 C   0  0  0  0  0  0  0  0  0  0  0  0
  159.8600  214.2730  145.0200 C   0  0  1  0  0  3  0  0  0  0  0  0
  160.4890  211.5720  141.0000 C   0  0  0  0  0  2  0  0  0  0  0  0
  162.1620  210.0090  140.1740 O   0  0  0  0  0  1  0  0  0  0  0  0
  162.6850  211.7410  138.1000 O   0  0  0  0  0  0  0  0  0  0  0  0
  161.8200  212.0630  138.9560 C   0  0  0  0  0  3  0  0  0  0  0  0
  161.5140  211.1900  140.0410 N   0  0  0  0  0  0  0  0  0  0  0  0
  1  2  1  6  0  0  0
  4  8  2  0  0  0  0
  4  5  1  0  0  0  0
  5  1  1  6  0  0  0
  5  6  1  0  0  0  0
  6  3  1  0  0  0  0
  6 15  1  6  0  0  0
  7  3  1  0  0  0  0
  8  7  1  0  0  0  0
  9 10  1  0  0  0  0
 10 12  1  0  0  0  0
 10  8  1  1  0  0  0
 11  9  1  0  0  0  0
 11 13  1  0  0  0  0
 13 12  2  0  0  0  0
 14 11  2  0  0  0  0
 16 15  1  6  0  0  0
 16 17  1  0  0  0  0
 16 18  1  0  0  0  0
 17 18  1  0  0  0  0
 18 19  1  6  0  0  0
 18 23  1  0  0  0  0
 20 23  1  0  0  0  0
 20 22  1  0  0  0  0
 23 22  1  0  0  0  0
 23 21  1  0  0  0  0
 24 29  1  6  0  0  0
 24  1  1  0  0  0  0
 25 26  3  0  0  0  0
 26 24  1  0  0  0  0
 27 28  1  0  0  0  0
 28 24  1  0  0  0  0
 30 29  1  0  0  0  0
 31 30  1  0  0  0  0
 32 40  1  0  0  0  0
 34 33  1  0  0  0  0
 34 41  1  0  0  0  0
 35 33  2  0  0  0  0
 37 35  1  0  0  0  0
 38 32  1  0  0  0  0
 38 34  2  0  0  0  0
 39 37  2  0  0  0  0
 39 38  1  0  0  0  0
 40 36  2  0  0  0  0
 40 41  1  0  0  0  0
 41 31  1  1  0  0  0
 42 39  1  0  0  0  0
 44 45  2  0  0  0  0
 45 46  1  0  0  0  0
 46 43  1  0  0  0  0
 46 42  1  0  0  0  0
M  END
>  <MODEL>
5

>  <REMARK>
 VINA RESULT:      -4.6      4.587      8.817
  Name = 
  14 active torsions:
  status: ('A' for Active; 'I' for Inactive)
    1  A    between atoms: C_1  and  C_43
    2  A    between atoms: C_6  and  N_38
    3  A    between atoms: C_6  and  C_46
    4  A    between atoms: C_12  and  C_42
    5  A    between atoms: C_13  and  C_32
    6  A    between atoms: C_13  and  N_39
    7  A    between atoms: C_17  and  C_26
    8  A    between atoms: C_21  and  N_38
    9  A    between atoms: C_21  and  C_44
   10  A    between atoms: C_23  and  C_34
   11  A    between atoms: C_26  and  C_46
   12  A    between atoms: O_29  and  C_46
   13  A    between atoms: C_35  and  C_43
   14  A    between atoms: C_36  and  C_46
                            x       y       z     vdW  Elec       q    Type
                         _______ _______ _______ _____ _____    ______ ____

>  <TORSDO>
F 14

$$$$
=
 OpenBabel11072411063D

 46 51  0  0  1  0  0  0  0  0999 V2000
  160.7890  209.6200  151.9780 C   0  0  1  0  0  3  0  0  0  0  0  0
  159.7260  210.4220  152.7320 C   0  0  0  0  0  1  0  0  0  0  0  0
  162.7430  210.4040  148.6220 C   0  0  0  0  0  2  0  0  0  0  0  0
  160.7690  211.6090  150.3500 C   0  0  0  0  0  3  0  0  0  0  0  0
  161.5370  210.4370  150.9050 C   0  0  2  0  0  3  0  0  0  0  0  0
  162.1370  209.5700  149.7760 C   0  0  1  0  0  3  0  0  0  0  0  0
  162.6650  211.9220  148.8360 C   0  0  0  0  0  2  0  0  0  0  0  0
  161.3060  212.3210  149.3560 C   0  0  0  0  0  0  0  0  0  0  0  0
  159.8980  212.9820  147.3940 C   0  0  0  0  0  2  0  0  0  0  0  0
  160.5080  213.4270  148.7280 C   0  0  1  0  0  3  0  0  0  0  0  0
  158.5220  213.4520  147.5470 C   0  0  0  0  0  0  0  0  0  0  0  0
  159.4390  213.9060  149.6230 N   0  0  0  0  0  0  0  0  0  0  0  0
  158.2910  213.9860  148.8230 N   0  0  0  0  0  0  0  0  0  0  0  0
  157.6400  213.3920  146.6540 O   0  0  0  0  0  0  0  0  0  0  0  0
  161.1120  208.6030  149.1980 C   0  0  0  0  0  2  0  0  0  0  0  0
  161.6690  207.9400  147.9460 C   0  0  1  0  0  3  0  0  0  0  0  0
  162.8420  207.0400  148.3190 C   0  0  0  0  0  2  0  0  0  0  0  0
  161.5130  206.4210  147.9420 C   0  0  1  0  0  0  0  0  0  0  0  0
  160.7730  205.7550  149.0960 C   0  0  0  0  0  1  0  0  0  0  0  0
  161.5280  204.2950  146.4930 C   0  0  0  0  0  2  0  0  0  0  0  0
  160.4440  206.3010  145.6710 O   0  0  0  0  0  1  0  0  0  0  0  0
  162.6160  205.1730  145.8870 C   0  0  0  0  0  2  0  0  0  0  0  0
  161.4080  205.8010  146.5470 C   0  0  0  0  0  0  0  0  0  0  0  0
  161.7230  208.7820  152.8950 C   0  0  1  0  0  0  0  0  0  0  0  0
  160.3060  207.0800  154.3260 N   0  0  0  0  0  0  0  0  0  0  0  0
  160.9280  207.8270  153.6980 C   0  0  0  0  0  0  0  0  0  0  0  0
  162.3440  206.7380  151.9710 C   0  0  0  0  0  1  0  0  0  0  0  0
  162.7140  208.0850  152.1480 O   0  0  0  0  0  0  0  0  0  0  0  0
  162.4300  209.6980  153.9020 C   0  0  0  0  0  2  0  0  0  0  0  0
  161.9080  209.5090  155.2480 N   0  0  0  0  0  2  0  0  0  0  0  0
  162.2850  210.6800  156.0200 C   0  0  0  0  0  2  0  0  0  0  0  0
  158.9470  210.2790  156.9720 N   0  0  0  0  0  2  0  0  0  0  0  0
  160.8320  213.3850  157.0060 C   0  0  0  0  0  3  0  0  0  0  0  0
  160.4640  212.0410  157.0170 C   0  0  0  0  0  0  0  0  0  0  0  0
  159.8580  214.3310  156.8650 N   0  0  0  0  0  0  0  0  0  0  0  0
  160.5120  208.5430  157.2560 O   0  0  0  0  0  0  0  0  0  0  0  0
  158.5370  213.9960  156.7470 C   0  0  0  0  0  3  0  0  0  0  0  0
  159.1400  211.6840  156.9040 C   0  0  0  0  0  0  0  0  0  0  0  0
  158.1400  212.6490  156.7690 C   0  0  0  0  0  0  0  0  0  0  0  0
  160.2710  209.7740  157.1410 C   0  0  0  0  0  0  0  0  0  0  0  0
  161.3280  210.8360  157.1900 C   0  0  1  0  0  3  0  0  0  0  0  0
  156.6940  212.2880  156.6650 C   0  0  0  0  0  2  0  0  0  0  0  0
  156.4420  211.0900  154.5610 O   0  0  0  0  0  1  0  0  0  0  0  0
  155.3000  213.3450  153.4700 O   0  0  0  0  0  0  0  0  0  0  0  0
  155.6900  213.3800  154.6670 C   0  0  0  0  0  3  0  0  0  0  0  0
  156.2790  212.2310  155.2720 N   0  0  0  0  0  0  0  0  0  0  0  0
  1  2  1  1  0  0  0
  1 24  1  0  0  0  0
  3  7  1  0  0  0  0
  3  6  1  0  0  0  0
  4  5  1  0  0  0  0
  5  1  1  6  0  0  0
  6 15  1  6  0  0  0
  6  5  1  0  0  0  0
  7  8  1  0  0  0  0
  8  4  2  0  0  0  0
  9 11  1  0  0  0  0
  9 10  1  0  0  0  0
 10  8  1  1  0  0  0
 10 12  1  0  0  0  0
 11 13  1  0  0  0  0
 13 12  2  0  0  0  0
 14 11  2  0  0  0  0
 16 17  1  0  0  0  0
 16 15  1  1  0  0  0
 18 16  1  0  0  0  0
 18 17  1  0  0  0  0
 18 19  1  1  0  0  0
 20 23  1  0  0  0  0
 21 23  1  0  0  0  0
 22 20  1  0  0  0  0
 22 23  1  0  0  0  0
 23 18  1  0  0  0  0
 24 26  1  1  0  0  0
 24 29  1  0  0  0  0
 26 25  3  0  0  0  0
 27 28  1  0  0  0  0
 28 24  1  0  0  0  0
 29 30  1  0  0  0  0
 30 31  1  0  0  0  0
 32 40  1  0  0  0  0
 33 34  1  0  0  0  0
 34 41  1  0  0  0  0
 35 33  2  0  0  0  0
 37 39  2  0  0  0  0
 37 35  1  0  0  0  0
 38 32  1  0  0  0  0
 38 34  2  0  0  0  0
 39 38  1  0  0  0  0
 40 41  1  0  0  0  0
 40 36  2  0  0  0  0
 41 31  1  6  0  0  0
 42 39  1  0  0  0  0
 43 46  1  0  0  0  0
 44 45  2  0  0  0  0
 45 46  1  0  0  0  0
 46 42  1  0  0  0  0
M  END
>  <MODEL>
6

>  <REMARK>
 VINA RESULT:      -4.5      2.750      8.571
  Name = 
  14 active torsions:
  status: ('A' for Active; 'I' for Inactive)
    1  A    between atoms: C_1  and  C_43
    2  A    between atoms: C_6  and  N_38
    3  A    between atoms: C_6  and  C_46
    4  A    between atoms: C_12  and  C_42
    5  A    between atoms: C_13  and  C_32
    6  A    between atoms: C_13  and  N_39
    7  A    between atoms: C_17  and  C_26
    8  A    between atoms: C_21  and  N_38
    9  A    between atoms: C_21  and  C_44
   10  A    between atoms: C_23  and  C_34
   11  A    between atoms: C_26  and  C_46
   12  A    between atoms: O_29  and  C_46
   13  A    between atoms: C_35  and  C_43
   14  A    between atoms: C_36  and  C_46
                            x       y       z     vdW  Elec       q    Type
                         _______ _______ _______ _____ _____    ______ ____

>  <TORSDO>
F 14

$$$$
=
 OpenBabel11072411063D

 46 51  0  0  1  0  0  0  0  0999 V2000
  161.4850  210.6580  152.6500 C   0  0  1  0  0  3  0  0  0  0  0  0
  162.6650  210.3190  151.7370 C   0  0  0  0  0  1  0  0  0  0  0  0
  158.1810  212.7860  152.1460 C   0  0  0  0  0  2  0  0  0  0  0  0
  160.7260  212.3360  150.8580 C   0  0  0  0  0  3  0  0  0  0  0  0
  160.3150  211.3500  151.9200 C   0  0  2  0  0  3  0  0  0  0  0  0
  159.2630  211.9550  152.8760 C   0  0  1  0  0  3  0  0  0  0  0  0
  158.3390  212.8200  150.6190 C   0  0  0  0  0  2  0  0  0  0  0  0
  159.7800  213.0450  150.2340 C   0  0  0  0  0  0  0  0  0  0  0  0
  161.4880  213.7260  148.5350 C   0  0  0  0  0  2  0  0  0  0  0  0
  160.1830  214.1010  149.2470 C   0  0  1  0  0  3  0  0  0  0  0  0
  161.1350  214.0000  147.1430 C   0  0  0  0  0  0  0  0  0  0  0  0
  159.1290  214.3450  148.2460 N   0  0  0  0  0  0  0  0  0  0  0  0
  159.7860  214.3630  147.0080 N   0  0  0  0  0  0  0  0  0  0  0  0
  161.9290  213.9240  146.1730 O   0  0  0  0  0  0  0  0  0  0  0  0
  159.9060  212.8200  153.9510 C   0  0  0  0  0  2  0  0  0  0  0  0
  159.2830  212.5150  155.3070 C   0  0  1  0  0  3  0  0  0  0  0  0
  159.4730  213.7060  156.2400 C   0  0  0  0  0  2  0  0  0  0  0  0
  158.1060  213.4240  155.6540 C   0  0  1  0  0  0  0  0  0  0  0  0
  157.6350  214.4440  154.6230 C   0  0  0  0  0  1  0  0  0  0  0  0
  155.6520  212.7670  156.0610 C   0  0  0  0  0  2  0  0  0  0  0  0
  157.4180  211.6190  157.2610 O   0  0  0  0  0  1  0  0  0  0  0  0
  156.0140  213.6370  157.2590 C   0  0  0  0  0  2  0  0  0  0  0  0
  157.0710  212.7880  156.5840 C   0  0  0  0  0  0  0  0  0  0  0  0
  161.0440  209.4920  153.5790 C   0  0  1  0  0  0  0  0  0  0  0  0
  161.6470  210.0490  156.0850 N   0  0  0  0  0  0  0  0  0  0  0  0
  161.3820  209.8050  154.9850 C   0  0  0  0  0  0  0  0  0  0  0  0
  159.0730  209.0460  154.7330 C   0  0  0  0  0  1  0  0  0  0  0  0
  159.6540  209.2150  153.4610 O   0  0  0  0  0  0  0  0  0  0  0  0
  161.8240  208.2180  153.2300 C   0  0  0  0  0  2  0  0  0  0  0  0
  160.9440  207.0620  153.1470 N   0  0  0  0  0  2  0  0  0  0  0  0
  161.6070  206.0780  152.3100 C   0  0  0  0  0  2  0  0  0  0  0  0
  161.3770  204.0660  149.4620 N   0  0  0  0  0  2  0  0  0  0  0  0
  161.2870  207.6980  149.5400 C   0  0  0  0  0  3  0  0  0  0  0  0
  161.2020  206.3480  149.8760 C   0  0  0  0  0  0  0  0  0  0  0  0
  161.7480  208.0370  148.3010 N   0  0  0  0  0  0  0  0  0  0  0  0
  160.5560  203.3320  151.5430 O   0  0  0  0  0  0  0  0  0  0  0  0
  162.1160  207.0930  147.3820 C   0  0  0  0  0  3  0  0  0  0  0  0
  161.5630  205.3820  148.9640 C   0  0  0  0  0  0  0  0  0  0  0  0
  162.0260  205.7260  147.6930 C   0  0  0  0  0  0  0  0  0  0  0  0
  160.8620  204.2820  150.7760 C   0  0  0  0  0  0  0  0  0  0  0  0
  160.7040  205.7280  151.1390 C   0  0  1  0  0  3  0  0  0  0  0  0
  162.4050  204.6960  146.6780 C   0  0  0  0  0  2  0  0  0  0  0  0
  160.5270  205.4290  145.3130 O   0  0  0  0  0  1  0  0  0  0  0  0
  160.0570  202.8020  144.6380 O   0  0  0  0  0  0  0  0  0  0  0  0
  161.0040  203.0660  145.4240 C   0  0  0  0  0  3  0  0  0  0  0  0
  161.2860  204.4150  145.7920 N   0  0  0  0  0  0  0  0  0  0  0  0
  1  2  1  6  0  0  0
  1 24  1  0  0  0  0
  3  6  1  0  0  0  0
  4  5  1  0  0  0  0
  5  1  1  1  0  0  0
  5  6  1  0  0  0  0
  6 15  1  1  0  0  0
  7  3  1  0  0  0  0
  8  7  1  0  0  0  0
  8  4  2  0  0  0  0
  9 10  1  0  0  0  0
 10  8  1  1  0  0  0
 11  9  1  0  0  0  0
 12 10  1  0  0  0  0
 13 11  1  0  0  0  0
 13 12  2  0  0  0  0
 14 11  2  0  0  0  0
 16 15  1  6  0  0  0
 16 18  1  0  0  0  0
 16 17  1  0  0  0  0
 18 19  1  6  0  0  0
 18 17  1  0  0  0  0
 18 23  1  0  0  0  0
 20 23  1  0  0  0  0
 20 22  1  0  0  0  0
 23 22  1  0  0  0  0
 23 21  1  0  0  0  0
 24 29  1  6  0  0  0
 24 26  1  0  0  0  0
 26 25  3  0  0  0  0
 28 24  1  0  0  0  0
 28 27  1  0  0  0  0
 30 29  1  0  0  0  0
 31 30  1  0  0  0  0
 32 40  1  0  0  0  0
 33 34  1  0  0  0  0
 34 41  1  0  0  0  0
 35 33  2  0  0  0  0
 37 39  2  0  0  0  0
 37 35  1  0  0  0  0
 38 32  1  0  0  0  0
 38 34  2  0  0  0  0
 39 38  1  0  0  0  0
 40 41  1  0  0  0  0
 40 36  2  0  0  0  0
 41 31  1  1  0  0  0
 42 39  1  0  0  0  0
 43 46  1  0  0  0  0
 44 45  2  0  0  0  0
 45 46  1  0  0  0  0
 46 42  1  0  0  0  0
M  END
>  <MODEL>
7

>  <REMARK>
 VINA RESULT:      -4.3      2.370      5.128
  Name = 
  14 active torsions:
  status: ('A' for Active; 'I' for Inactive)
    1  A    between atoms: C_1  and  C_43
    2  A    between atoms: C_6  and  N_38
    3  A    between atoms: C_6  and  C_46
    4  A    between atoms: C_12  and  C_42
    5  A    between atoms: C_13  and  C_32
    6  A    between atoms: C_13  and  N_39
    7  A    between atoms: C_17  and  C_26
    8  A    between atoms: C_21  and  N_38
    9  A    between atoms: C_21  and  C_44
   10  A    between atoms: C_23  and  C_34
   11  A    between atoms: C_26  and  C_46
   12  A    between atoms: O_29  and  C_46
   13  A    between atoms: C_35  and  C_43
   14  A    between atoms: C_36  and  C_46
                            x       y       z     vdW  Elec       q    Type
                         _______ _______ _______ _____ _____    ______ ____

>  <TORSDO>
F 14

$$$$
=
 OpenBabel11072411063D

 46 51  0  0  1  0  0  0  0  0999 V2000
  162.6900  208.5340  150.4790 C   0  0  1  0  0  3  0  0  0  0  0  0
  162.4610  209.8740  151.1810 C   0  0  0  0  0  1  0  0  0  0  0  0
  161.2430  206.4330  153.5100 C   0  0  0  0  0  2  0  0  0  0  0  0
  161.6520  206.1900  150.6620 C   0  0  0  0  0  3  0  0  0  0  0  0
  162.3790  207.3090  151.3620 C   0  0  2  0  0  3  0  0  0  0  0  0
  161.7000  207.6710  152.7020 C   0  0  1  0  0  3  0  0  0  0  0  0
  161.5820  205.0900  152.8470 C   0  0  0  0  0  2  0  0  0  0  0  0
  161.2670  205.1260  151.3720 C   0  0  0  0  0  0  0  0  0  0  0  0
  160.8290  203.9110  149.2280 C   0  0  0  0  0  2  0  0  0  0  0  0
  160.4560  204.0520  150.7070 C   0  0  1  0  0  3  0  0  0  0  0  0
  160.9680  202.4610  149.1120 C   0  0  0  0  0  0  0  0  0  0  0  0
  160.6130  202.7510  151.3810 N   0  0  0  0  0  0  0  0  0  0  0  0
  160.8280  201.8220  150.3530 N   0  0  0  0  0  0  0  0  0  0  0  0
  161.1870  201.8440  148.0400 O   0  0  0  0  0  0  0  0  0  0  0  0
  160.5060  208.5940  152.5010 C   0  0  0  0  0  2  0  0  0  0  0  0
  160.0820  209.1970  153.8340 C   0  0  1  0  0  3  0  0  0  0  0  0
  161.0960  210.2500  154.2670 C   0  0  0  0  0  2  0  0  0  0  0  0
  159.7410  210.6830  153.7480 C   0  0  1  0  0  0  0  0  0  0  0  0
  159.7730  211.3680  152.3860 C   0  0  0  0  0  1  0  0  0  0  0  0
  157.3380  211.4510  154.2490 C   0  0  0  0  0  2  0  0  0  0  0  0
  158.6970  210.5250  156.0280 O   0  0  0  0  0  1  0  0  0  0  0  0
  158.2130  212.5820  154.7740 C   0  0  0  0  0  2  0  0  0  0  0  0
  158.7200  211.1560  154.7840 C   0  0  0  0  0  0  0  0  0  0  0  0
  162.0800  208.4510  149.0510 C   0  0  1  0  0  0  0  0  0  0  0  0
  163.1970  206.4820  147.6990 N   0  0  0  0  0  0  0  0  0  0  0  0
  162.7060  207.3460  148.2920 C   0  0  0  0  0  0  0  0  0  0  0  0
  160.2800  207.1930  148.2790 C   0  0  0  0  0  1  0  0  0  0  0  0
  160.6680  208.2800  149.0870 O   0  0  0  0  0  0  0  0  0  0  0  0
  162.3930  209.7330  148.2700 C   0  0  0  0  0  2  0  0  0  0  0  0
  161.2590  210.6450  148.2690 N   0  0  0  0  0  2  0  0  0  0  0  0
  161.7600  211.9510  148.6600 C   0  0  0  0  0  2  0  0  0  0  0  0
  159.3610  212.4400  146.1670 N   0  0  0  0  0  2  0  0  0  0  0  0
  162.8980  213.2390  145.9320 C   0  0  0  0  0  3  0  0  0  0  0  0
  161.6140  212.9690  146.4010 C   0  0  0  0  0  0  0  0  0  0  0  0
  163.1360  213.1640  144.5900 N   0  0  0  0  0  0  0  0  0  0  0  0
  158.7940  212.5790  148.4480 O   0  0  0  0  0  0  0  0  0  0  0  0
  162.1500  212.8420  143.6980 C   0  0  0  0  0  3  0  0  0  0  0  0
  160.6080  212.6470  145.5190 C   0  0  0  0  0  0  0  0  0  0  0  0
  160.8460  212.5780  144.1450 C   0  0  0  0  0  0  0  0  0  0  0  0
  159.6670  212.6610  147.5430 C   0  0  0  0  0  0  0  0  0  0  0  0
  161.1010  213.0170  147.8010 C   0  0  1  0  0  3  0  0  0  0  0  0
  159.7650  212.2510  143.1660 C   0  0  0  0  0  2  0  0  0  0  0  0
  160.8260  211.0760  141.3170 O   0  0  0  0  0  1  0  0  0  0  0  0
  160.6650  213.3820  139.8230 O   0  0  0  0  0  0  0  0  0  0  0  0
  160.2360  213.3950  141.0060 C   0  0  0  0  0  3  0  0  0  0  0  0
  160.2940  212.2190  141.8110 N   0  0  0  0  0  0  0  0  0  0  0  0
  1  2  1  1  0  0  0
  4  5  1  0  0  0  0
  4  8  2  0  0  0  0
  5  1  1  6  0  0  0
  5  6  1  0  0  0  0
  6 15  1  6  0  0  0
  6  3  1  0  0  0  0
  7  3  1  0  0  0  0
  8  7  1  0  0  0  0
  9 10  1  0  0  0  0
 10  8  1  1  0  0  0
 10 12  1  0  0  0  0
 11  9  1  0  0  0  0
 11 13  1  0  0  0  0
 13 12  2  0  0  0  0
 14 11  2  0  0  0  0
 16 15  1  6  0  0  0
 16 17  1  0  0  0  0
 18 19  1  6  0  0  0
 18 16  1  0  0  0  0
 18 17  1  0  0  0  0
 18 23  1  0  0  0  0
 20 22  1  0  0  0  0
 20 23  1  0  0  0  0
 22 23  1  0  0  0  0
 23 21  1  0  0  0  0
 24 29  1  6  0  0  0
 24 28  1  0  0  0  0
 24  1  1  0  0  0  0
 25 26  3  0  0  0  0
 26 24  1  0  0  0  0
 27 28  1  0  0  0  0
 30 29  1  0  0  0  0
 30 31  1  0  0  0  0
 32 40  1  0  0  0  0
 33 34  1  0  0  0  0
 34 41  1  0  0  0  0
 35 33  2  0  0  0  0
 37 39  2  0  0  0  0
 37 35  1  0  0  0  0
 38 32  1  0  0  0  0
 38 34  2  0  0  0  0
 39 38  1  0  0  0  0
 40 41  1  0  0  0  0
 40 36  2  0  0  0  0
 41 31  1  1  0  0  0
 42 39  1  0  0  0  0
 43 46  1  0  0  0  0
 44 45  2  0  0  0  0
 45 46  1  0  0  0  0
 46 42  1  0  0  0  0
M  END
>  <MODEL>
8

>  <REMARK>
 VINA RESULT:      -4.3      3.746      8.053
  Name = 
  14 active torsions:
  status: ('A' for Active; 'I' for Inactive)
    1  A    between atoms: C_1  and  C_43
    2  A    between atoms: C_6  and  N_38
    3  A    between atoms: C_6  and  C_46
    4  A    between atoms: C_12  and  C_42
    5  A    between atoms: C_13  and  C_32
    6  A    between atoms: C_13  and  N_39
    7  A    between atoms: C_17  and  C_26
    8  A    between atoms: C_21  and  N_38
    9  A    between atoms: C_21  and  C_44
   10  A    between atoms: C_23  and  C_34
   11  A    between atoms: C_26  and  C_46
   12  A    between atoms: O_29  and  C_46
   13  A    between atoms: C_35  and  C_43
   14  A    between atoms: C_36  and  C_46
                            x       y       z     vdW  Elec       q    Type
                         _______ _______ _______ _____ _____    ______ ____

>  <TORSDO>
F 14

$$$$
=
 OpenBabel11072411063D

 46 51  0  0  1  0  0  0  0  0999 V2000
  159.6900  211.5270  153.7940 C   0  0  1  0  0  3  0  0  0  0  0  0
  160.3920  212.6850  154.5060 C   0  0  0  0  0  1  0  0  0  0  0  0
  157.2300  213.2450  151.2070 C   0  0  0  0  0  2  0  0  0  0  0  0
  160.0260  212.5750  151.4720 C   0  0  0  0  0  3  0  0  0  0  0  0
  159.0720  211.9170  152.4350 C   0  0  2  0  0  3  0  0  0  0  0  0
  157.7570  212.7170  152.5620 C   0  0  1  0  0  3  0  0  0  0  0  0
  158.0900  212.8450  150.0000 C   0  0  0  0  0  2  0  0  0  0  0  0
  159.5560  213.0230  150.3040 C   0  0  0  0  0  0  0  0  0  0  0  0
  161.6840  212.9120  148.9890 C   0  0  0  0  0  2  0  0  0  0  0  0
  160.4750  213.7690  149.3800 C   0  0  1  0  0  3  0  0  0  0  0  0
  161.7160  213.1190  147.5430 C   0  0  0  0  0  0  0  0  0  0  0  0
  159.7770  214.2200  148.1620 N   0  0  0  0  0  0  0  0  0  0  0  0
  160.6240  213.8790  147.0990 N   0  0  0  0  0  0  0  0  0  0  0  0
  162.6070  212.6780  146.7750 O   0  0  0  0  0  0  0  0  0  0  0  0
  157.8960  213.8880  153.5260 C   0  0  0  0  0  2  0  0  0  0  0  0
  157.7850  213.3970  154.9630 C   0  0  1  0  0  3  0  0  0  0  0  0
  157.0820  214.4490  155.8130 C   0  0  0  0  0  2  0  0  0  0  0  0
  156.3450  213.1850  155.4240 C   0  0  1  0  0  0  0  0  0  0  0  0
  155.2150  213.3920  154.4220 C   0  0  0  0  0  1  0  0  0  0  0  0
  155.3200  210.9330  156.1280 C   0  0  0  0  0  2  0  0  0  0  0  0
  157.2990  211.7570  157.2580 O   0  0  0  0  0  1  0  0  0  0  0  0
  154.8480  211.9140  157.1950 C   0  0  0  0  0  2  0  0  0  0  0  0
  156.1800  212.1170  156.5070 C   0  0  0  0  0  0  0  0  0  0  0  0
  160.5160  210.2100  153.7540 C   0  0  1  0  0  0  0  0  0  0  0  0
  162.9900  210.6650  154.5440 N   0  0  0  0  0  0  0  0  0  0  0  0
  161.9040  210.4650  154.1970 C   0  0  0  0  0  0  0  0  0  0  0  0
  160.3850  209.2770  155.8820 C   0  0  0  0  0  1  0  0  0  0  0  0
  159.9280  209.1900  154.5530 O   0  0  0  0  0  0  0  0  0  0  0  0
  160.6180  209.6970  152.3120 C   0  0  0  0  0  2  0  0  0  0  0  0
  161.7340  208.7770  152.1540 N   0  0  0  0  0  2  0  0  0  0  0  0
  161.7760  208.3930  150.7530 C   0  0  0  0  0  2  0  0  0  0  0  0
  161.6460  204.9120  150.4770 N   0  0  0  0  0  2  0  0  0  0  0  0
  160.6560  207.3080  147.9310 C   0  0  0  0  0  3  0  0  0  0  0  0
  160.9640  206.6890  149.1410 C   0  0  0  0  0  0  0  0  0  0  0  0
  160.8300  206.6070  146.7730 N   0  0  0  0  0  0  0  0  0  0  0  0
  161.3510  205.9820  152.5530 O   0  0  0  0  0  0  0  0  0  0  0  0
  161.2860  205.3170  146.7700 C   0  0  0  0  0  3  0  0  0  0  0  0
  161.4200  205.3910  149.1600 C   0  0  0  0  0  0  0  0  0  0  0  0
  161.5900  204.6680  147.9770 C   0  0  0  0  0  0  0  0  0  0  0  0
  161.2920  206.0250  151.2960 C   0  0  0  0  0  0  0  0  0  0  0  0
  160.8290  207.2260  150.5270 C   0  0  1  0  0  3  0  0  0  0  0  0
  162.0640  203.2500  147.9730 C   0  0  0  0  0  2  0  0  0  0  0  0
  160.5760  201.6280  146.9340 O   0  0  0  0  0  1  0  0  0  0  0  0
  159.2580  201.3700  149.3360 O   0  0  0  0  0  0  0  0  0  0  0  0
  160.2210  202.1770  149.2560 C   0  0  0  0  0  3  0  0  0  0  0  0
  160.9350  202.3340  148.0310 N   0  0  0  0  0  0  0  0  0  0  0  0
  1  2  1  6  0  0  0
  3  6  1  0  0  0  0
  4  5  1  0  0  0  0
  5  6  1  0  0  0  0
  5  1  1  1  0  0  0
  6 15  1  1  0  0  0
  7  8  1  0  0  0  0
  7  3  1  0  0  0  0
  8  4  2  0  0  0  0
  9 10  1  0  0  0  0
 10  8  1  1  0  0  0
 11  9  1  0  0  0  0
 12 10  1  0  0  0  0
 13 11  1  0  0  0  0
 13 12  2  0  0  0  0
 14 11  2  0  0  0  0
 16 15  1  6  0  0  0
 16 18  1  0  0  0  0
 16 17  1  0  0  0  0
 18 19  1  6  0  0  0
 18 17  1  0  0  0  0
 18 23  1  0  0  0  0
 20 23  1  0  0  0  0
 20 22  1  0  0  0  0
 23 22  1  0  0  0  0
 23 21  1  0  0  0  0
 24 29  1  6  0  0  0
 24  1  1  0  0  0  0
 24 26  1  0  0  0  0
 24 28  1  0  0  0  0
 26 25  3  0  0  0  0
 28 27  1  0  0  0  0
 30 29  1  0  0  0  0
 31 30  1  0  0  0  0
 32 40  1  0  0  0  0
 33 34  1  0  0  0  0
 34 38  2  0  0  0  0
 34 41  1  0  0  0  0
 35 33  2  0  0  0  0
 37 35  1  0  0  0  0
 37 39  2  0  0  0  0
 38 32  1  0  0  0  0
 39 38  1  0  0  0  0
 40 36  2  0  0  0  0
 41 31  1  6  0  0  0
 41 40  1  0  0  0  0
 42 39  1  0  0  0  0
 42 46  1  0  0  0  0
 43 46  1  0  0  0  0
 45 44  2  0  0  0  0
 46 45  1  0  0  0  0
M  END
>  <MODEL>
9

>  <REMARK>
 VINA RESULT:      -4.2      2.775      5.518
  Name = 
  14 active torsions:
  status: ('A' for Active; 'I' for Inactive)
    1  A    between atoms: C_1  and  C_43
    2  A    between atoms: C_6  and  N_38
    3  A    between atoms: C_6  and  C_46
    4  A    between atoms: C_12  and  C_42
    5  A    between atoms: C_13  and  C_32
    6  A    between atoms: C_13  and  N_39
    7  A    between atoms: C_17  and  C_26
    8  A    between atoms: C_21  and  N_38
    9  A    between atoms: C_21  and  C_44
   10  A    between atoms: C_23  and  C_34
   11  A    between atoms: C_26  and  C_46
   12  A    between atoms: O_29  and  C_46
   13  A    between atoms: C_35  and  C_43
   14  A    between atoms: C_36  and  C_46
                            x       y       z     vdW  Elec       q    Type
                         _______ _______ _______ _____ _____    ______ ____

>  <TORSDO>
F 14

$$$$
