=
 OpenBabel11072411233D

 42 47  0  0  1  0  0  0  0  0999 V2000
  161.4420  208.0420  156.8420 C   0  0  0  0  0  1  0  0  0  0  0  0
  161.2780  207.7470  149.8490 C   0  0  0  0  0  2  0  0  0  0  0  0
  162.3730  210.7680  153.1740 C   0  0  2  0  0  3  0  0  0  0  0  0
  162.5680  210.4530  151.7940 O   0  0  0  0  0  0  0  0  0  0  0  0
  163.5530  210.3850  153.9400 N   0  0  0  0  0  1  0  0  0  0  0  0
  161.1180  210.0540  153.7110 C   0  0  1  0  0  3  0  0  0  0  0  0
  160.8870  207.2750  151.2560 C   0  0  2  0  0  3  0  0  0  0  0  0
  162.1680  209.2160  151.2900 C   0  0  0  0  0  0  0  0  0  0  0  0
  161.2300  208.5440  153.4790 C   0  0  0  0  0  0  0  0  0  0  0  0
  160.3520  208.1300  155.7840 C   0  0  0  0  0  0  0  0  0  0  0  0
  161.2040  206.3140  154.3000 O   0  0  0  0  0  1  0  0  0  0  0  0
  160.9230  207.6710  154.4610 C   0  0  0  0  0  0  0  0  0  0  0  0
  161.8300  208.0630  152.1690 C   0  0  1  0  0  3  0  0  0  0  0  0
  159.8550  209.5850  155.7130 C   0  0  1  0  0  3  0  0  0  0  0  0
  159.2190  207.2090  156.2130 C   0  0  0  0  0  1  0  0  0  0  0  0
  160.8880  210.4300  155.1120 N   0  0  0  0  0  2  0  0  0  0  0  0
  161.8970  209.0430  150.0430 N   0  0  0  0  0  0  0  0  0  0  0  0
  161.1230  205.7680  151.3790 C   0  0  1  0  0  3  0  0  0  0  0  0
  160.7460  204.9630  150.1250 C   0  0  2  0  0  3  0  0  0  0  0  0
  162.1940  205.3080  150.4010 C   0  0  0  0  0  2  0  0  0  0  0  0
  160.4080  206.5620  146.8490 O   0  0  0  0  0  0  0  0  0  0  0  0
  160.8120  205.7440  147.7180 C   0  0  0  0  0  0  0  0  0  0  0  0
  160.2530  205.7980  149.0360 N   0  0  0  0  0  2  0  0  0  0  0  0
  161.8800  204.7440  147.3780 C   0  0  1  0  0  3  0  0  0  0  0  0
  160.4790  201.8310  145.7670 C   0  0  0  0  0  0  0  0  0  0  0  0
  159.8350  201.1740  144.5930 C   0  0  0  0  0  1  0  0  0  0  0  0
  161.4330  202.1310  147.7480 C   0  0  2  0  0  3  0  0  0  0  0  0
  160.8340  201.1770  146.8260 N   0  0  0  0  0  0  0  0  0  0  0  0
  160.6000  202.1930  149.0160 C   0  0  0  0  0  1  0  0  0  0  0  0
  161.3110  203.4090  146.9710 C   0  0  0  0  0  0  0  0  0  0  0  0
  160.7640  203.2210  145.8130 N   0  0  0  0  0  0  0  0  0  0  0  0
  163.8150  204.3720  146.3480 C   0  0  0  0  0  1  0  0  0  0  0  0
  162.7310  205.2620  146.3920 O   0  0  0  0  0  0  0  0  0  0  0  0
  158.5950  209.7010  154.9600 N   0  0  0  0  0  2  0  0  0  0  0  0
  158.3190  211.4660  156.6470 C   0  0  0  0  0  1  0  0  0  0  0  0
  156.3610  210.5550  155.4000 C   0  0  0  0  0  2  0  0  0  0  0  0
  157.0900  212.8320  153.8560 C   0  0  0  0  0  0  0  0  0  0  0  0
  157.8540  210.9260  155.2960 C   0  0  2  0  0  0  0  0  0  0  0  0
  157.3430  213.7900  152.8300 N   0  0  0  0  0  1  0  0  0  0  0  0
  155.7720  212.7210  154.4170 N   0  0  0  0  0  2  0  0  0  0  0  0
  155.4920  211.8100  155.5260 C   0  0  0  0  0  2  0  0  0  0  0  0
  158.0600  211.9850  154.2280 C   0  0  0  0  0  3  0  0  0  0  0  0
  2 17  1  0  0  0  0
  3  6  1  0  0  0  0
  3  5  1  1  0  0  0
  4  3  1  0  0  0  0
  6  9  1  1  0  0  0
  6 16  1  0  0  0  0
  7  2  1  6  0  0  0
  7 18  1  0  0  0  0
  7 13  1  0  0  0  0
  8  4  1  0  0  0  0
  9 12  2  0  0  0  0
 10 15  1  0  0  0  0
 10  1  1  0  0  0  0
 11 12  1  0  0  0  0
 12 10  1  0  0  0  0
 13  8  1  6  0  0  0
 13  9  1  0  0  0  0
 14 34  1  6  0  0  0
 14 10  1  0  0  0  0
 16 14  1  0  0  0  0
 17  8  2  0  0  0  0
 18 20  1  6  0  0  0
 19 23  1  6  0  0  0
 19 20  1  0  0  0  0
 19 18  1  0  0  0  0
 21 22  2  0  0  0  0
 22 23  1  0  0  0  0
 24 33  1  6  0  0  0
 24 22  1  0  0  0  0
 25 31  1  0  0  0  0
 25 28  2  0  0  0  0
 26 25  1  0  0  0  0
 27 29  1  1  0  0  0
 28 27  1  0  0  0  0
 30 24  1  0  0  0  0
 30 27  1  0  0  0  0
 31 30  2  0  0  0  0
 32 33  1  0  0  0  0
 34 38  1  0  0  0  0
 36 41  1  0  0  0  0
 37 42  2  0  0  0  0
 37 40  1  0  0  0  0
 38 36  1  0  0  0  0
 38 35  1  1  0  0  0
 39 37  1  0  0  0  0
 40 41  1  0  0  0  0
 42 38  1  0  0  0  0
M  END
>  <MODEL>
1

>  <REMARK>
 VINA RESULT:      -6.8      0.000      0.000
  Name = 
  7 active torsions:
  status: ('A' for Active; 'I' for Inactive)
    1  A    between atoms: C_6  and  C_14
    2  A    between atoms: O_13  and  C_42
    3  A    between atoms: C_17  and  N_32
    4  A    between atoms: C_21  and  N_39
    5  A    between atoms: C_27  and  C_42
    6  A    between atoms: C_30  and  N_39
    7  A    between atoms: C_31  and  C_42
                            x       y       z     vdW  Elec       q    Type
                         _______ _______ _______ _____ _____    ______ ____

>  <TORSDO>
F 7

$$$$
=
 OpenBabel11072411233D

 42 47  0  0  1  0  0  0  0  0999 V2000
  163.1770  210.3470  153.7590 C   0  0  0  0  0  1  0  0  0  0  0  0
  156.4330  212.2270  153.7500 C   0  0  0  0  0  2  0  0  0  0  0  0
  159.1810  209.1590  155.8520 C   0  0  2  0  0  3  0  0  0  0  0  0
  157.9330  209.8460  155.9540 O   0  0  0  0  0  0  0  0  0  0  0  0
  160.1570  209.7720  156.7460 N   0  0  0  0  0  1  0  0  0  0  0  0
  159.6850  209.1820  154.3970 C   0  0  1  0  0  3  0  0  0  0  0  0
  157.8440  212.1580  153.1500 C   0  0  2  0  0  3  0  0  0  0  0  0
  157.6460  210.9150  155.1050 C   0  0  0  0  0  0  0  0  0  0  0  0
  159.7840  210.6260  153.8940 C   0  0  0  0  0  0  0  0  0  0  0  0
  161.9900  210.1020  152.8390 C   0  0  0  0  0  0  0  0  0  0  0  0
  161.0340  212.4060  152.9360 O   0  0  0  0  0  1  0  0  0  0  0  0
  160.8760  211.0490  153.2240 C   0  0  0  0  0  0  0  0  0  0  0  0
  158.6900  211.6010  154.2960 C   0  0  1  0  0  3  0  0  0  0  0  0
  161.5580  208.6310  152.9780 C   0  0  1  0  0  3  0  0  0  0  0  0
  162.4470  210.3830  151.4150 C   0  0  0  0  0  1  0  0  0  0  0  0
  160.9360  208.4220  154.2860 N   0  0  0  0  0  2  0  0  0  0  0  0
  156.4360  211.2640  154.8340 N   0  0  0  0  0  0  0  0  0  0  0  0
  158.3020  213.5630  152.7490 C   0  0  1  0  0  3  0  0  0  0  0  0
  158.1110  213.8910  151.2600 C   0  0  2  0  0  3  0  0  0  0  0  0
  157.1230  214.4040  152.2850 C   0  0  0  0  0  2  0  0  0  0  0  0
  156.7620  211.9020  148.4980 O   0  0  0  0  0  0  0  0  0  0  0  0
  157.3900  212.8280  149.0790 C   0  0  0  0  0  0  0  0  0  0  0  0
  157.5000  212.8030  150.5070 N   0  0  0  0  0  2  0  0  0  0  0  0
  157.9910  213.9500  148.2830 C   0  0  1  0  0  3  0  0  0  0  0  0
  161.5360  213.7270  147.6310 C   0  0  0  0  0  0  0  0  0  0  0  0
  162.9220  214.2630  147.7600 C   0  0  0  0  0  1  0  0  0  0  0  0
  159.8370  212.3880  147.1360 C   0  0  2  0  0  3  0  0  0  0  0  0
  161.2780  212.5890  147.0710 N   0  0  0  0  0  0  0  0  0  0  0  0
  159.2760  212.3250  145.7260 C   0  0  0  0  0  1  0  0  0  0  0  0
  159.3950  213.6450  147.8270 C   0  0  0  0  0  0  0  0  0  0  0  0
  160.3940  214.4130  148.1210 N   0  0  0  0  0  0  0  0  0  0  0  0
  155.8870  214.4470  147.7670 C   0  0  0  0  0  1  0  0  0  0  0  0
  157.1600  214.2770  147.2030 O   0  0  0  0  0  0  0  0  0  0  0  0
  160.6400  208.2230  151.9020 N   0  0  0  0  0  2  0  0  0  0  0  0
  162.6130  207.3820  150.7030 C   0  0  0  0  0  1  0  0  0  0  0  0
  160.3080  206.9810  149.8380 C   0  0  0  0  0  2  0  0  0  0  0  0
  160.8360  204.6260  151.3460 C   0  0  0  0  0  0  0  0  0  0  0  0
  161.1670  207.1010  151.1120 C   0  0  2  0  0  0  0  0  0  0  0  0
  160.7740  203.4540  152.1570 N   0  0  0  0  0  1  0  0  0  0  0  0
  160.5150  204.5420  149.9480 N   0  0  0  0  0  2  0  0  0  0  0  0
  160.6460  205.7010  149.0670 C   0  0  0  0  0  2  0  0  0  0  0  0
  161.1090  205.8110  151.9110 C   0  0  0  0  0  3  0  0  0  0  0  0
  2 17  1  0  0  0  0
  3  4  1  0  0  0  0
  3  5  1  1  0  0  0
  6  9  1  1  0  0  0
  6  3  1  0  0  0  0
  7  2  1  1  0  0  0
  7 13  1  0  0  0  0
  8  4  1  0  0  0  0
 10 14  1  0  0  0  0
 10 12  1  0  0  0  0
 10  1  1  0  0  0  0
 11 12  1  0  0  0  0
 12  9  2  0  0  0  0
 13  9  1  6  0  0  0
 13  8  1  0  0  0  0
 14 34  1  6  0  0  0
 14 16  1  0  0  0  0
 15 10  1  0  0  0  0
 16  6  1  0  0  0  0
 17  8  2  0  0  0  0
 18 20  1  1  0  0  0
 18  7  1  0  0  0  0
 19 23  1  6  0  0  0
 19 20  1  0  0  0  0
 19 18  1  0  0  0  0
 21 22  2  0  0  0  0
 22 23  1  0  0  0  0
 24 33  1  6  0  0  0
 24 22  1  0  0  0  0
 25 26  1  0  0  0  0
 25 31  1  0  0  0  0
 27 29  1  6  0  0  0
 27 30  1  0  0  0  0
 28 27  1  0  0  0  0
 28 25  2  0  0  0  0
 30 31  2  0  0  0  0
 30 24  1  0  0  0  0
 33 32  1  0  0  0  0
 36 38  1  0  0  0  0
 37 42  2  0  0  0  0
 37 39  1  0  0  0  0
 38 35  1  6  0  0  0
 38 34  1  0  0  0  0
 38 42  1  0  0  0  0
 40 37  1  0  0  0  0
 41 36  1  0  0  0  0
 41 40  1  0  0  0  0
M  END
>  <MODEL>
2

>  <REMARK>
 VINA RESULT:      -5.4      3.641      8.256
  Name = 
  7 active torsions:
  status: ('A' for Active; 'I' for Inactive)
    1  A    between atoms: C_6  and  C_14
    2  A    between atoms: O_13  and  C_42
    3  A    between atoms: C_17  and  N_32
    4  A    between atoms: C_21  and  N_39
    5  A    between atoms: C_27  and  C_42
    6  A    between atoms: C_30  and  N_39
    7  A    between atoms: C_31  and  C_42
                            x       y       z     vdW  Elec       q    Type
                         _______ _______ _______ _____ _____    ______ ____

>  <TORSDO>
F 7

$$$$
=
 OpenBabel11072411233D

 42 47  0  0  1  0  0  0  0  0999 V2000
  161.9380  209.4590  155.8410 C   0  0  0  0  0  1  0  0  0  0  0  0
  160.6850  206.4460  149.6480 C   0  0  0  0  0  2  0  0  0  0  0  0
  162.2740  210.4620  151.2980 C   0  0  2  0  0  3  0  0  0  0  0  0
  162.2520  209.6190  150.1450 O   0  0  0  0  0  0  0  0  0  0  0  0
  163.5610  210.3430  151.9740 N   0  0  0  0  0  1  0  0  0  0  0  0
  161.1220  210.0920  152.2500 C   0  0  1  0  0  3  0  0  0  0  0  0
  160.5210  206.5890  151.1660 C   0  0  2  0  0  3  0  0  0  0  0  0
  161.7830  208.3080  150.2390 C   0  0  0  0  0  0  0  0  0  0  0  0
  161.2010  208.6090  152.6250 C   0  0  0  0  0  0  0  0  0  0  0  0
  160.6960  209.1880  155.0050 C   0  0  0  0  0  0  0  0  0  0  0  0
  161.3120  206.8870  154.2600 O   0  0  0  0  0  1  0  0  0  0  0  0
  161.0550  208.2120  153.9070 C   0  0  0  0  0  0  0  0  0  0  0  0
  161.5920  207.6160  151.5430 C   0  0  1  0  0  3  0  0  0  0  0  0
  160.1870  210.5240  154.4340 C   0  0  1  0  0  3  0  0  0  0  0  0
  159.6470  208.5780  155.9240 C   0  0  0  0  0  1  0  0  0  0  0  0
  161.1110  211.0010  153.4030 N   0  0  0  0  0  2  0  0  0  0  0  0
  161.3220  207.6750  149.2180 N   0  0  0  0  0  0  0  0  0  0  0  0
  160.7790  205.2410  151.8430 C   0  0  1  0  0  3  0  0  0  0  0  0
  161.3360  204.1580  150.9060 C   0  0  2  0  0  3  0  0  0  0  0  0
  162.2640  204.9100  151.8360 C   0  0  0  0  0  2  0  0  0  0  0  0
  161.5400  204.2480  147.2520 O   0  0  0  0  0  0  0  0  0  0  0  0
  161.2480  203.8170  148.3990 C   0  0  0  0  0  0  0  0  0  0  0  0
  161.5390  204.6300  149.5420 N   0  0  0  0  0  2  0  0  0  0  0  0
  160.6270  202.4590  148.5630 C   0  0  1  0  0  3  0  0  0  0  0  0
  161.1190  199.9390  146.0230 C   0  0  0  0  0  0  0  0  0  0  0  0
  161.6220  198.6020  145.5940 C   0  0  0  0  0  1  0  0  0  0  0  0
  160.1180  201.9190  145.9910 C   0  0  2  0  0  3  0  0  0  0  0  0
  160.4510  200.7190  145.2360 N   0  0  0  0  0  0  0  0  0  0  0  0
  160.7810  203.1200  145.3420 C   0  0  0  0  0  1  0  0  0  0  0  0
  160.7490  201.6170  147.3190 C   0  0  0  0  0  0  0  0  0  0  0  0
  161.3200  200.4560  147.3300 N   0  0  0  0  0  0  0  0  0  0  0  0
  160.1460  200.9730  150.1450 C   0  0  0  0  0  1  0  0  0  0  0  0
  161.1720  201.8090  149.6780 O   0  0  0  0  0  0  0  0  0  0  0  0
  158.8250  210.4070  153.8880 N   0  0  0  0  0  2  0  0  0  0  0  0
  156.6040  211.0710  154.7040 C   0  0  0  0  0  1  0  0  0  0  0  0
  157.8030  212.4190  152.9820 C   0  0  0  0  0  2  0  0  0  0  0  0
  158.5340  213.7050  155.4130 C   0  0  0  0  0  0  0  0  0  0  0  0
  157.9800  211.5550  154.2470 C   0  0  2  0  0  0  0  0  0  0  0  0
  159.1820  214.4130  156.4690 N   0  0  0  0  0  1  0  0  0  0  0  0
  157.8670  214.4370  154.3700 N   0  0  0  0  0  2  0  0  0  0  0  0
  157.1220  213.7500  153.3170 C   0  0  0  0  0  2  0  0  0  0  0  0
  158.6240  212.3690  155.3550 C   0  0  0  0  0  3  0  0  0  0  0  0
  3  5  1  1  0  0  0
  3  6  1  0  0  0  0
  4  8  1  0  0  0  0
  4  3  1  0  0  0  0
  6  9  1  1  0  0  0
  6 16  1  0  0  0  0
  7  2  1  6  0  0  0
  7 13  1  0  0  0  0
  7 18  1  0  0  0  0
  9 12  2  0  0  0  0
 10  1  1  0  0  0  0
 10 15  1  0  0  0  0
 12 11  1  0  0  0  0
 12 10  1  0  0  0  0
 13  8  1  6  0  0  0
 13  9  1  0  0  0  0
 14 34  1  6  0  0  0
 14 10  1  0  0  0  0
 16 14  1  0  0  0  0
 17  2  1  0  0  0  0
 17  8  2  0  0  0  0
 18 20  1  1  0  0  0
 19 23  1  6  0  0  0
 19 20  1  0  0  0  0
 19 18  1  0  0  0  0
 21 22  2  0  0  0  0
 22 23  1  0  0  0  0
 24 22  1  6  0  0  0
 24 33  1  0  0  0  0
 25 31  1  0  0  0  0
 26 25  1  0  0  0  0
 27 29  1  6  0  0  0
 27 30  1  0  0  0  0
 28 27  1  0  0  0  0
 28 25  2  0  0  0  0
 30 31  2  0  0  0  0
 30 24  1  0  0  0  0
 33 32  1  0  0  0  0
 34 38  1  0  0  0  0
 36 41  1  0  0  0  0
 36 38  1  0  0  0  0
 37 39  1  0  0  0  0
 38 35  1  1  0  0  0
 38 42  1  0  0  0  0
 40 37  1  0  0  0  0
 41 40  1  0  0  0  0
 42 37  2  0  0  0  0
M  END
>  <MODEL>
3

>  <REMARK>
 VINA RESULT:      -5.0      1.723      2.405
  Name = 
  7 active torsions:
  status: ('A' for Active; 'I' for Inactive)
    1  A    between atoms: C_6  and  C_14
    2  A    between atoms: O_13  and  C_42
    3  A    between atoms: C_17  and  N_32
    4  A    between atoms: C_21  and  N_39
    5  A    between atoms: C_27  and  C_42
    6  A    between atoms: C_30  and  N_39
    7  A    between atoms: C_31  and  C_42
                            x       y       z     vdW  Elec       q    Type
                         _______ _______ _______ _____ _____    ______ ____

>  <TORSDO>
F 7

$$$$
