=
 OpenBabel11072411573D

 60 65  0  0  1  0  0  0  0  0999 V2000
  161.6870  207.7780  150.6330 C   0  0  1  0  0  0  0  0  0  0  0  0
  161.1250  205.7540  150.4580 O   0  0  0  0  0  0  0  0  0  0  0  0
  161.8930  206.6240  149.6640 C   0  0  1  0  0  3  0  0  0  0  0  0
  160.8880  206.7710  151.4030 C   0  0  0  0  0  2  0  0  0  0  0  0
  162.8420  208.1130  151.3390 O   0  0  0  0  0  1  0  0  0  0  0  0
  161.2560  206.7950  148.2710 C   0  0  1  0  0  3  0  0  0  0  0  0
  161.7980  208.0490  147.6130 C   0  0  0  0  0  1  0  0  0  0  0  0
  160.9650  204.4240  147.7380 O   0  0  0  0  0  1  0  0  0  0  0  0
  161.5310  205.6300  147.3120 C   0  0  1  0  0  3  0  0  0  0  0  0
  159.8900  206.0190  145.5860 O   0  0  0  0  0  1  0  0  0  0  0  0
  161.2600  205.9200  145.8310 C   0  0  2  0  0  3  0  0  0  0  0  0
  161.9760  205.0180  144.8520 C   0  0  0  0  0  0  0  0  0  0  0  0
  162.2090  205.3890  143.4860 N   0  0  0  0  0  2  0  0  0  0  0  0
  162.6580  204.0350  145.3330 N   0  0  0  0  0  2  0  0  0  0  0  0
  161.3400  206.2410  142.6890 C   0  0  0  0  0  2  0  0  0  0  0  0
  162.1850  207.0540  141.7310 C   0  0  0  0  0  2  0  0  0  0  0  0
  161.9200  206.6630  140.2860 C   0  0  2  0  0  3  0  0  0  0  0  0
  162.8990  205.7590  139.8710 O   0  0  0  0  0  1  0  0  0  0  0  0
  160.9710  210.3730  139.4810 C   0  0  2  0  0  0  0  0  0  0  0  0
  162.3110  209.4150  140.2840 S   0  0  0  0  0  0  0  0  0  0  0  0
  161.8970  207.8830  139.3690 C   0  0  2  0  0  3  0  0  0  0  0  0
  159.0720  209.7070  138.1520 O   0  0  0  0  0  0  0  0  0  0  0  0
  160.1380  209.3870  138.7450 C   0  0  0  0  0  0  0  0  0  0  0  0
  160.6030  208.0530  138.7460 N   0  0  0  0  0  2  0  0  0  0  0  0
  161.5650  211.3690  138.4900 C   0  0  0  0  0  2  0  0  0  0  0  0
  162.6800  212.0160  139.0320 O   0  0  0  0  0  1  0  0  0  0  0  0
  160.1430  211.1070  140.5350 C   0  0  0  0  0  2  0  0  0  0  0  0
  160.8580  211.2160  141.7500 O   0  0  0  0  0  0  0  0  0  0  0  0
  159.7090  213.3460  141.5020 C   0  0  0  0  0  1  0  0  0  0  0  0
  160.7890  212.5480  142.2340 C   0  0  2  0  0  0  0  0  0  0  0  0
  161.9990  213.1540  141.9550 F   0  0  0  0  0  0  0  0  0  0  0  0
  159.3650  212.2890  144.2890 O   0  0  0  0  0  0  0  0  0  0  0  0
  161.5770  212.8440  144.4970 O   0  0  0  0  0  1  0  0  0  0  0  0
  160.6020  212.5990  143.7340 C   0  0  0  0  0  0  0  0  0  0  0  0
  160.8260  208.9850  150.2420 C   0  0  0  0  0  2  0  0  0  0  0  0
  161.1510  210.2020  150.9880 N   0  0  0  0  0  0  0  0  0  0  0  0
  161.2410  211.4460  150.3000 C   0  0  0  0  0  0  0  0  0  0  0  0
  160.0630  211.8940  152.2520 C   0  0  1  0  0  3  0  0  0  0  0  0
  160.6180  210.4690  152.3250 C   0  0  2  0  0  3  0  0  0  0  0  0
  160.6650  212.4190  150.9890 C   0  0  0  0  0  0  0  0  0  0  0  0
  163.1710  212.2770  148.9700 O   0  0  0  0  0  1  0  0  0  0  0  0
  161.4300  211.2210  147.9420 O   0  0  0  0  0  0  0  0  0  0  0  0
  161.9470  211.6240  149.0150 C   0  0  0  0  0  0  0  0  0  0  0  0
  158.5470  211.8580  152.1270 C   0  0  0  0  0  2  0  0  0  0  0  0
  157.9670  212.7800  152.9970 O   0  0  0  0  0  1  0  0  0  0  0  0
  160.6480  213.7570  150.5890 O   0  0  0  0  0  0  0  0  0  0  0  0
  158.5280  213.2340  149.5740 C   0  0  0  0  0  2  0  0  0  0  0  0
  158.8600  213.3660  148.1020 C   0  0  0  0  0  2  0  0  0  0  0  0
  159.5380  214.3200  149.9000 C   0  0  0  0  0  3  0  0  0  0  0  0
  159.8700  214.4480  148.4270 C   0  0  0  0  0  2  0  0  0  0  0  0
  161.7610  210.4930  153.3340 C   0  0  0  0  0  2  0  0  0  0  0  0
  161.4880  207.6880  157.1510 C   0  0  0  0  0  3  0  0  0  0  0  0
  159.4830  208.0690  155.9780 N   0  0  0  0  0  0  0  0  0  0  0  0
  162.5800  209.8560  156.5210 C   0  0  0  0  0  3  0  0  0  0  0  0
  160.0070  210.3330  155.1080 C   0  0  0  0  0  2  0  0  0  0  0  0
  161.3190  211.0330  154.6800 C   0  0  1  0  0  3  0  0  0  0  0  0
  161.5290  208.8430  156.5150 C   0  0  0  0  0  0  0  0  0  0  0  0
  160.3050  209.0450  155.8120 C   0  0  0  0  0  0  0  0  0  0  0  0
  160.1510  207.0720  156.8210 C   0  0  0  0  0  2  0  0  0  0  0  0
  162.4530  210.9090  155.6940 C   0  0  0  0  0  3  0  0  0  0  0  0
  1  5  1  1  0  0  0
  1  4  1  0  0  0  0
  2  4  1  0  0  0  0
  3  6  1  6  0  0  0
  3  2  1  0  0  0  0
  3  1  1  0  0  0  0
  6  7  1  6  0  0  0
  9  8  1  1  0  0  0
  9  6  1  0  0  0  0
 11 10  1  1  0  0  0
 11  9  1  0  0  0  0
 12 14  2  0  0  0  0
 12 11  1  0  0  0  0
 13 12  1  0  0  0  0
 15 13  1  0  0  0  0
 16 15  1  0  0  0  0
 17 18  1  6  0  0  0
 17 16  1  0  0  0  0
 19 25  1  6  0  0  0
 19 20  1  0  0  0  0
 19 27  1  0  0  0  0
 21 20  1  0  0  0  0
 21 17  1  1  0  0  0
 22 23  2  0  0  0  0
 23 24  1  0  0  0  0
 23 19  1  0  0  0  0
 24 21  1  0  0  0  0
 25 26  1  0  0  0  0
 27 28  1  0  0  0  0
 28 30  1  0  0  0  0
 30 29  1  6  0  0  0
 30 34  1  0  0  0  0
 31 30  1  0  0  0  0
 34 32  2  0  0  0  0
 34 33  1  0  0  0  0
 35  1  1  0  0  0  0
 35 36  1  0  0  0  0
 36 39  1  0  0  0  0
 37 36  1  0  0  0  0
 37 40  2  0  0  0  0
 38 44  1  6  0  0  0
 38 39  1  0  0  0  0
 39 51  1  1  0  0  0
 40 38  1  0  0  0  0
 41 43  1  0  0  0  0
 42 43  2  0  0  0  0
 43 37  1  0  0  0  0
 44 45  1  0  0  0  0
 46 40  1  0  0  0  0
 47 49  1  0  0  0  0
 48 50  1  0  0  0  0
 48 47  1  0  0  0  0
 49 46  1  0  0  0  0
 50 49  1  0  0  0  0
 53 59  1  0  0  0  0
 55 58  1  0  0  0  0
 56 51  1  6  0  0  0
 56 55  1  0  0  0  0
 56 60  1  0  0  0  0
 57 54  1  0  0  0  0
 57 52  2  0  0  0  0
 58 53  2  0  0  0  0
 58 57  1  0  0  0  0
 59 52  1  0  0  0  0
 60 54  2  0  0  0  0
M  END
>  <MODEL>
1

>  <REMARK>
 VINA RESULT:      -3.2      0.000      0.000
  Name = 
  21 active torsions:
  status: ('A' for Active; 'I' for Inactive)
    1  A    between atoms: N_1  and  C_47
    2  A    between atoms: C_3  and  C_28
    3  A    between atoms: C_3  and  C_38
    4  A    between atoms: C_4  and  C_42
    5  A    between atoms: C_5  and  C_18
    6  A    between atoms: C_7  and  C_32
    7  A    between atoms: O_10  and  C_30
    8  A    between atoms: O_10  and  C_48
    9  A    between atoms: C_12  and  C_47
   10  A    between atoms: C_14  and  C_20
   11  A    between atoms: C_14  and  C_28
   12  A    between atoms: C_18  and  C_22
   13  A    between atoms: N_21  and  C_52
   14  A    between atoms: C_22  and  O_44
   15  A    between atoms: C_23  and  C_26
   16  A    between atoms: C_23  and  C_52
   17  A    between atoms: C_26  and  C_27
   18  A    between atoms: C_35  and  C_59
   19  A    between atoms: C_43  and  O_44
   20  A    between atoms: C_43  and  C_60
   21  A    between atoms: C_46  and  C_59
                            x       y       z     vdW  Elec       q    Type
                         _______ _______ _______ _____ _____    ______ ____

>  <TORSDO>
F 21

$$$$
=
 OpenBabel11072411573D

 60 65  0  0  1  0  0  0  0  0999 V2000
  161.3500  210.4380  152.8130 C   0  0  1  0  0  0  0  0  0  0  0  0
  161.2820  209.2460  154.5500 O   0  0  0  0  0  0  0  0  0  0  0  0
  161.6260  208.9960  153.2100 C   0  0  1  0  0  3  0  0  0  0  0  0
  161.0060  210.5960  154.2620 C   0  0  0  0  0  2  0  0  0  0  0  0
  162.5090  211.1550  152.5160 O   0  0  0  0  0  1  0  0  0  0  0  0
  160.6880  207.9390  152.5950 C   0  0  1  0  0  3  0  0  0  0  0  0
  160.9080  207.8710  151.0960 C   0  0  0  0  0  1  0  0  0  0  0  0
  160.1810  206.2760  154.3180 O   0  0  0  0  0  1  0  0  0  0  0  0
  160.8990  206.5230  153.1430 C   0  0  1  0  0  3  0  0  0  0  0  0
  159.5840  204.6680  152.3330 O   0  0  0  0  0  1  0  0  0  0  0  0
  160.7580  205.3920  152.1170 C   0  0  2  0  0  3  0  0  0  0  0  0
  161.9750  204.5140  151.9460 C   0  0  0  0  0  0  0  0  0  0  0  0
  161.9600  203.3140  151.1610 N   0  0  0  0  0  2  0  0  0  0  0  0
  163.1220  205.0150  152.2580 N   0  0  0  0  0  2  0  0  0  0  0  0
  160.8070  202.4450  150.9800 C   0  0  0  0  0  2  0  0  0  0  0  0
  160.2940  202.5920  149.5630 C   0  0  0  0  0  2  0  0  0  0  0  0
  160.6920  201.4040  148.7010 C   0  0  2  0  0  3  0  0  0  0  0  0
  161.5110  200.5550  149.4450 O   0  0  0  0  0  1  0  0  0  0  0  0
  161.4760  204.0320  145.9090 C   0  0  2  0  0  0  0  0  0  0  0  0
  162.0520  203.5550  147.5820 S   0  0  0  0  0  0  0  0  0  0  0  0
  161.4030  201.8490  147.4250 C   0  0  2  0  0  3  0  0  0  0  0  0
  159.9700  202.9760  144.3490 O   0  0  0  0  0  0  0  0  0  0  0  0
  160.6060  202.9230  145.4370 C   0  0  0  0  0  0  0  0  0  0  0  0
  160.5210  201.7940  146.2810 N   0  0  0  0  0  2  0  0  0  0  0  0
  162.6680  204.1720  144.9680 C   0  0  0  0  0  2  0  0  0  0  0  0
  163.8660  204.2600  145.6820 O   0  0  0  0  0  1  0  0  0  0  0  0
  160.6970  205.3450  145.9740 C   0  0  0  0  0  2  0  0  0  0  0  0
  161.5650  206.4340  146.2140 O   0  0  0  0  0  0  0  0  0  0  0  0
  160.1980  206.2840  148.2190 C   0  0  0  0  0  1  0  0  0  0  0  0
  161.1640  207.1260  147.3850 C   0  0  2  0  0  0  0  0  0  0  0  0
  160.4750  208.2550  146.9860 F   0  0  0  0  0  0  0  0  0  0  0  0
  162.5390  208.9520  148.4300 O   0  0  0  0  0  0  0  0  0  0  0  0
  163.1200  206.7600  148.7520 O   0  0  0  0  0  1  0  0  0  0  0  0
  162.3470  207.5930  148.2030 C   0  0  0  0  0  0  0  0  0  0  0  0
  160.1550  210.7890  151.9190 C   0  0  0  0  0  2  0  0  0  0  0  0
  159.9910  212.2280  151.7000 N   0  0  0  0  0  0  0  0  0  0  0  0
  160.1870  212.7680  150.3970 C   0  0  0  0  0  0  0  0  0  0  0  0
  158.2760  213.8010  151.2220 C   0  0  1  0  0  3  0  0  0  0  0  0
  158.9350  213.0050  152.3510 C   0  0  2  0  0  3  0  0  0  0  0  0
  159.2610  213.6680  150.1060 C   0  0  0  0  0  0  0  0  0  0  0  0
  161.4270  212.9520  148.2490 O   0  0  0  0  0  0  0  0  0  0  0  0
  162.1810  211.5740  149.9020 O   0  0  0  0  0  1  0  0  0  0  0  0
  161.3210  212.4080  149.5210 C   0  0  0  0  0  0  0  0  0  0  0  0
  156.9570  213.1510  150.8270 C   0  0  0  0  0  2  0  0  0  0  0  0
  155.9100  213.6930  151.5710 O   0  0  0  0  0  1  0  0  0  0  0  0
  159.2320  214.4050  148.9200 O   0  0  0  0  0  0  0  0  0  0  0  0
  157.7580  212.8400  147.8370 C   0  0  0  0  0  2  0  0  0  0  0  0
  158.3040  212.8400  146.4250 C   0  0  0  0  0  2  0  0  0  0  0  0
  158.1570  214.2960  147.9940 C   0  0  0  0  0  3  0  0  0  0  0  0
  158.7060  214.2940  146.5810 C   0  0  0  0  0  2  0  0  0  0  0  0
  159.5610  214.0230  153.2980 C   0  0  0  0  0  2  0  0  0  0  0  0
  158.7710  211.0250  156.8890 C   0  0  0  0  0  3  0  0  0  0  0  0
  157.1780  211.0370  155.1570 N   0  0  0  0  0  0  0  0  0  0  0  0
  159.5060  213.4050  156.5920 C   0  0  0  0  0  3  0  0  0  0  0  0
  157.4360  213.4040  154.4570 C   0  0  0  0  0  2  0  0  0  0  0  0
  158.6310  214.3860  154.4390 C   0  0  1  0  0  3  0  0  0  0  0  0
  158.7500  212.1940  156.2800 C   0  0  0  0  0  0  0  0  0  0  0  0
  157.7800  212.1710  155.2360 C   0  0  0  0  0  0  0  0  0  0  0  0
  157.7620  210.1600  156.1770 C   0  0  0  0  0  3  0  0  0  0  0  0
  159.4080  214.4490  155.7510 C   0  0  0  0  0  2  0  0  0  0  0  0
  1  5  1  6  0  0  0
  1  3  1  0  0  0  0
  1  4  1  0  0  0  0
  3  6  1  6  0  0  0
  3  2  1  0  0  0  0
  4  2  1  0  0  0  0
  6  7  1  6  0  0  0
  6  9  1  0  0  0  0
  9  8  1  1  0  0  0
 11 10  1  1  0  0  0
 11  9  1  0  0  0  0
 12 11  1  0  0  0  0
 12 14  2  0  0  0  0
 13 12  1  0  0  0  0
 15 13  1  0  0  0  0
 16 15  1  0  0  0  0
 17 18  1  1  0  0  0
 17 16  1  0  0  0  0
 19 25  1  6  0  0  0
 19 27  1  0  0  0  0
 19 20  1  0  0  0  0
 21 20  1  0  0  0  0
 21 17  1  1  0  0  0
 22 23  2  0  0  0  0
 23 19  1  0  0  0  0
 23 24  1  0  0  0  0
 24 21  1  0  0  0  0
 25 26  1  0  0  0  0
 27 28  1  0  0  0  0
 28 30  1  0  0  0  0
 30 34  1  0  0  0  0
 30 29  1  1  0  0  0
 31 30  1  0  0  0  0
 34 32  2  0  0  0  0
 34 33  1  0  0  0  0
 35  1  1  0  0  0  0
 36 35  1  0  0  0  0
 36 39  1  0  0  0  0
 37 36  1  0  0  0  0
 38 44  1  6  0  0  0
 38 39  1  0  0  0  0
 39 51  1  1  0  0  0
 40 37  2  0  0  0  0
 40 38  1  0  0  0  0
 41 43  2  0  0  0  0
 43 42  1  0  0  0  0
 43 37  1  0  0  0  0
 44 45  1  0  0  0  0
 46 40  1  0  0  0  0
 47 49  1  0  0  0  0
 48 50  1  0  0  0  0
 48 47  1  0  0  0  0
 49 46  1  0  0  0  0
 50 49  1  0  0  0  0
 53 58  2  0  0  0  0
 53 59  1  0  0  0  0
 55 58  1  0  0  0  0
 56 51  1  6  0  0  0
 56 55  1  0  0  0  0
 56 60  1  0  0  0  0
 57 54  2  0  0  0  0
 57 52  1  0  0  0  0
 58 57  1  0  0  0  0
 59 52  2  0  0  0  0
 60 54  1  0  0  0  0
M  END
>  <MODEL>
2

>  <REMARK>
 VINA RESULT:      -1.4      4.310      6.196
  Name = 
  21 active torsions:
  status: ('A' for Active; 'I' for Inactive)
    1  A    between atoms: N_1  and  C_47
    2  A    between atoms: C_3  and  C_28
    3  A    between atoms: C_3  and  C_38
    4  A    between atoms: C_4  and  C_42
    5  A    between atoms: C_5  and  C_18
    6  A    between atoms: C_7  and  C_32
    7  A    between atoms: O_10  and  C_30
    8  A    between atoms: O_10  and  C_48
    9  A    between atoms: C_12  and  C_47
   10  A    between atoms: C_14  and  C_20
   11  A    between atoms: C_14  and  C_28
   12  A    between atoms: C_18  and  C_22
   13  A    between atoms: N_21  and  C_52
   14  A    between atoms: C_22  and  O_44
   15  A    between atoms: C_23  and  C_26
   16  A    between atoms: C_23  and  C_52
   17  A    between atoms: C_26  and  C_27
   18  A    between atoms: C_35  and  C_59
   19  A    between atoms: C_43  and  O_44
   20  A    between atoms: C_43  and  C_60
   21  A    between atoms: C_46  and  C_59
                            x       y       z     vdW  Elec       q    Type
                         _______ _______ _______ _____ _____    ______ ____

>  <TORSDO>
F 21

$$$$
=
 OpenBabel11072411573D

 60 65  0  0  1  0  0  0  0  0999 V2000
  161.3700  210.5690  151.3930 C   0  0  1  0  0  0  0  0  0  0  0  0
  162.8480  209.1880  151.9880 O   0  0  0  0  0  0  0  0  0  0  0  0
  162.0360  209.3150  150.8470 C   0  0  1  0  0  3  0  0  0  0  0  0
  162.2790  210.3420  152.5620 C   0  0  0  0  0  2  0  0  0  0  0  0
  161.7450  211.7280  150.7140 O   0  0  0  0  0  1  0  0  0  0  0  0
  161.1220  208.0840  150.6900 C   0  0  1  0  0  3  0  0  0  0  0  0
  161.4030  207.4070  149.3610 C   0  0  0  0  0  1  0  0  0  0  0  0
  160.4760  207.2200  152.8860 O   0  0  0  0  0  1  0  0  0  0  0  0
  161.3110  207.0230  151.7810 C   0  0  1  0  0  3  0  0  0  0  0  0
  160.0740  204.9670  151.5250 O   0  0  0  0  0  1  0  0  0  0  0  0
  161.3110  205.5700  151.2930 C   0  0  2  0  0  3  0  0  0  0  0  0
  162.4780  204.7300  151.7550 C   0  0  0  0  0  0  0  0  0  0  0  0
  162.4990  203.3000  151.6360 N   0  0  0  0  0  2  0  0  0  0  0  0
  163.5980  205.3310  151.9750 N   0  0  0  0  0  2  0  0  0  0  0  0
  161.3290  202.4370  151.7020 C   0  0  0  0  0  2  0  0  0  0  0  0
  161.2900  201.5610  150.4670 C   0  0  0  0  0  2  0  0  0  0  0  0
  159.9610  201.6840  149.7400 C   0  0  2  0  0  3  0  0  0  0  0  0
  158.9480  201.1650  150.5470 O   0  0  0  0  0  1  0  0  0  0  0  0
  160.6930  201.5570  145.8970 C   0  0  2  0  0  0  0  0  0  0  0  0
  161.5520  201.2920  147.4940 S   0  0  0  0  0  0  0  0  0  0  0  0
  159.9890  200.9660  148.3920 C   0  0  2  0  0  3  0  0  0  0  0  0
  158.3690  201.8850  145.3400 O   0  0  0  0  0  0  0  0  0  0  0  0
  159.2420  201.6200  146.2110 C   0  0  0  0  0  0  0  0  0  0  0  0
  158.8820  201.3700  147.5540 N   0  0  0  0  0  2  0  0  0  0  0  0
  160.9550  200.3800  144.9630 C   0  0  0  0  0  2  0  0  0  0  0  0
  161.0060  199.1760  145.6720 O   0  0  0  0  0  1  0  0  0  0  0  0
  161.1680  202.8590  145.2530 C   0  0  0  0  0  2  0  0  0  0  0  0
  162.0990  203.5210  146.0840 O   0  0  0  0  0  0  0  0  0  0  0  0
  163.0710  205.7420  146.2920 C   0  0  0  0  0  1  0  0  0  0  0  0
  161.7990  204.9060  146.1430 C   0  0  2  0  0  0  0  0  0  0  0  0
  161.0400  205.1190  147.2770 F   0  0  0  0  0  0  0  0  0  0  0  0
  159.7440  205.9830  145.1740 O   0  0  0  0  0  1  0  0  0  0  0  0
  161.4110  205.2490  143.7850 O   0  0  0  0  0  0  0  0  0  0  0  0
  160.9690  205.3590  144.9620 C   0  0  0  0  0  0  0  0  0  0  0  0
  159.8990  210.5500  151.8250 C   0  0  0  0  0  2  0  0  0  0  0  0
  159.5880  211.5120  152.8830 N   0  0  0  0  0  0  0  0  0  0  0  0
  158.5710  212.4870  152.6710 C   0  0  0  0  0  0  0  0  0  0  0  0
  158.2300  211.6880  154.8260 C   0  0  1  0  0  3  0  0  0  0  0  0
  159.5590  211.1390  154.2990 C   0  0  2  0  0  3  0  0  0  0  0  0
  157.8100  212.6290  153.7450 C   0  0  0  0  0  0  0  0  0  0  0  0
  157.2550  213.2560  150.7060 O   0  0  0  0  0  0  0  0  0  0  0  0
  159.4100  213.9450  150.9930 O   0  0  0  0  0  1  0  0  0  0  0  0
  158.4390  213.2770  151.4300 C   0  0  0  0  0  0  0  0  0  0  0  0
  157.2150  210.5610  154.9550 C   0  0  0  0  0  2  0  0  0  0  0  0
  156.6520  210.5620  156.2300 O   0  0  0  0  0  1  0  0  0  0  0  0
  156.7680  213.5540  153.8480 O   0  0  0  0  0  0  0  0  0  0  0  0
  154.4800  214.2820  153.6760 C   0  0  0  0  0  2  0  0  0  0  0  0
  154.1090  214.4530  155.1340 C   0  0  0  0  0  2  0  0  0  0  0  0
  155.4200  213.1480  154.0460 C   0  0  0  0  0  3  0  0  0  0  0  0
  155.0490  213.3230  155.5050 C   0  0  0  0  0  2  0  0  0  0  0  0
  160.6660  211.8790  155.0430 C   0  0  0  0  0  2  0  0  0  0  0  0
  161.8700  207.5240  156.4900 C   0  0  0  0  0  3  0  0  0  0  0  0
  159.5670  207.9800  156.3240 N   0  0  0  0  0  0  0  0  0  0  0  0
  162.5770  209.8880  156.9450 C   0  0  0  0  0  3  0  0  0  0  0  0
  159.6530  210.4140  156.7960 C   0  0  0  0  0  2  0  0  0  0  0  0
  160.7000  211.5180  156.5150 C   0  0  1  0  0  3  0  0  0  0  0  0
  161.6360  208.8130  156.6410 C   0  0  0  0  0  0  0  0  0  0  0  0
  160.2350  209.0590  156.5330 C   0  0  0  0  0  0  0  0  0  0  0  0
  160.5310  206.8780  156.2360 C   0  0  0  0  0  3  0  0  0  0  0  0
  162.1220  211.1530  156.9340 C   0  0  0  0  0  2  0  0  0  0  0  0
  1  5  1  6  0  0  0
  1 35  1  0  0  0  0
  1  4  1  0  0  0  0
  2  4  1  0  0  0  0
  3  6  1  1  0  0  0
  3  1  1  0  0  0  0
  3  2  1  0  0  0  0
  6  7  1  6  0  0  0
  6  9  1  0  0  0  0
  9  8  1  1  0  0  0
 11 10  1  1  0  0  0
 11 12  1  0  0  0  0
 11  9  1  0  0  0  0
 12 14  2  0  0  0  0
 13 15  1  0  0  0  0
 13 12  1  0  0  0  0
 16 15  1  0  0  0  0
 17 16  1  0  0  0  0
 17 18  1  1  0  0  0
 19 25  1  6  0  0  0
 19 23  1  0  0  0  0
 19 20  1  0  0  0  0
 20 21  1  0  0  0  0
 21 17  1  1  0  0  0
 22 23  2  0  0  0  0
 23 24  1  0  0  0  0
 24 21  1  0  0  0  0
 25 26  1  0  0  0  0
 27 19  1  0  0  0  0
 27 28  1  0  0  0  0
 28 30  1  0  0  0  0
 30 29  1  1  0  0  0
 30 31  1  0  0  0  0
 33 34  2  0  0  0  0
 34 32  1  0  0  0  0
 34 30  1  0  0  0  0
 35 36  1  0  0  0  0
 36 39  1  0  0  0  0
 37 36  1  0  0  0  0
 37 40  2  0  0  0  0
 38 44  1  6  0  0  0
 39 38  1  0  0  0  0
 39 51  1  1  0  0  0
 40 46  1  0  0  0  0
 40 38  1  0  0  0  0
 41 43  2  0  0  0  0
 42 43  1  0  0  0  0
 43 37  1  0  0  0  0
 44 45  1  0  0  0  0
 46 49  1  0  0  0  0
 47 49  1  0  0  0  0
 47 48  1  0  0  0  0
 48 50  1  0  0  0  0
 49 50  1  0  0  0  0
 52 57  1  0  0  0  0
 53 58  2  0  0  0  0
 56 51  1  6  0  0  0
 56 55  1  0  0  0  0
 56 60  1  0  0  0  0
 57 54  2  0  0  0  0
 58 57  1  0  0  0  0
 58 55  1  0  0  0  0
 59 53  1  0  0  0  0
 59 52  2  0  0  0  0
 60 54  1  0  0  0  0
M  END
>  <MODEL>
3

>  <REMARK>
 VINA RESULT:      -0.2      4.643      7.011
  Name = 
  21 active torsions:
  status: ('A' for Active; 'I' for Inactive)
    1  A    between atoms: N_1  and  C_47
    2  A    between atoms: C_3  and  C_28
    3  A    between atoms: C_3  and  C_38
    4  A    between atoms: C_4  and  C_42
    5  A    between atoms: C_5  and  C_18
    6  A    between atoms: C_7  and  C_32
    7  A    between atoms: O_10  and  C_30
    8  A    between atoms: O_10  and  C_48
    9  A    between atoms: C_12  and  C_47
   10  A    between atoms: C_14  and  C_20
   11  A    between atoms: C_14  and  C_28
   12  A    between atoms: C_18  and  C_22
   13  A    between atoms: N_21  and  C_52
   14  A    between atoms: C_22  and  O_44
   15  A    between atoms: C_23  and  C_26
   16  A    between atoms: C_23  and  C_52
   17  A    between atoms: C_26  and  C_27
   18  A    between atoms: C_35  and  C_59
   19  A    between atoms: C_43  and  O_44
   20  A    between atoms: C_43  and  C_60
   21  A    between atoms: C_46  and  C_59
                            x       y       z     vdW  Elec       q    Type
                         _______ _______ _______ _____ _____    ______ ____

>  <TORSDO>
F 21

$$$$
