=
 OpenBabel11072413503D

 29 32  0  0  1  0  0  0  0  0999 V2000
  161.8470  209.0660  148.2930 C   0  0  0  0  0  2  0  0  0  0  0  0
  162.6310  204.2880  145.0920 C   0  0  0  0  0  3  0  0  0  0  0  0
  163.5330  205.0390  146.0240 C   0  0  0  0  0  2  0  0  0  0  0  0
  161.4040  204.1710  150.3340 C   0  0  2  0  0  3  0  0  0  0  0  0
  161.9240  209.5430  150.7620 C   0  0  2  0  0  3  0  0  0  0  0  0
  161.2740  209.8980  149.4230 C   0  0  0  0  0  2  0  0  0  0  0  0
  161.3220  202.9480  146.7370 C   0  0  0  0  0  0  0  0  0  0  0  0
  160.2420  205.1650  150.4590 C   0  0  0  0  0  2  0  0  0  0  0  0
  161.4890  207.6040  148.5210 C   0  0  2  0  0  3  0  0  0  0  0  0
  160.6500  206.6200  150.7280 C   0  0  1  0  0  3  0  0  0  0  0  0
  160.8840  206.8400  152.0990 O   0  0  0  0  0  0  0  0  0  0  0  0
  161.6490  203.6480  147.9050 C   0  0  0  0  0  3  0  0  0  0  0  0
  162.0990  207.5480  152.2110 C   0  0  0  0  0  2  0  0  0  0  0  0
  159.9330  201.4700  148.0780 C   0  0  0  0  0  3  0  0  0  0  0  0
  161.7360  203.4010  145.4320 N   0  0  0  0  0  0  0  0  0  0  0  0
  163.0210  210.5400  151.0790 C   0  0  0  0  0  1  0  0  0  0  0  0
  160.4580  201.8430  146.8280 C   0  0  0  0  0  0  0  0  0  0  0  0
  162.4840  208.1100  150.8620 C   0  0  1  0  0  3  0  0  0  0  0  0
  161.1300  203.2870  149.1460 C   0  0  0  0  0  0  0  0  0  0  0  0
  162.8040  206.0370  146.8120 C   0  0  0  0  0  0  0  0  0  0  0  0
  161.8470  207.1040  149.9330 C   0  0  2  0  0  3  0  0  0  0  0  0
  162.2030  206.7800  147.5480 C   0  0  0  0  0  0  0  0  0  0  0  0
  160.2540  202.1950  149.2260 C   0  0  0  0  0  3  0  0  0  0  0  0
  160.5700  199.8140  145.4120 C   0  0  0  0  0  1  0  0  0  0  0  0
  160.1230  201.1380  145.6660 O   0  0  0  0  0  0  0  0  0  0  0  0
  161.6360  203.3440  151.6180 C   0  0  2  0  0  3  0  0  0  0  0  0
  161.8330  201.8620  151.3440 C   0  0  0  0  0  1  0  0  0  0  0  0
  160.8690  204.5820  153.6950 C   0  0  0  0  0  1  0  0  0  0  0  0
  160.5170  203.5370  152.6460 C   0  0  0  0  0  2  0  0  0  0  0  0
  1  9  1  0  0  0  0
  1  6  1  0  0  0  0
  2 15  2  0  0  0  0
  2  3  1  0  0  0  0
  3 20  1  0  0  0  0
  4  8  1  0  0  0  0
  4 26  1  1  0  0  0
  5 18  1  0  0  0  0
  5 16  1  6  0  0  0
  6  5  1  0  0  0  0
  7 17  2  0  0  0  0
  7 12  1  0  0  0  0
  9 22  1  6  0  0  0
  9 21  1  0  0  0  0
 10  8  1  1  0  0  0
 10 11  1  0  0  0  0
 11 13  1  0  0  0  0
 12 19  2  0  0  0  0
 14 23  2  0  0  0  0
 15  7  1  0  0  0  0
 17 14  1  0  0  0  0
 18 13  1  1  0  0  0
 19 23  1  0  0  0  0
 19  4  1  0  0  0  0
 20 22  3  0  0  0  0
 21 10  1  0  0  0  0
 21 18  1  0  0  0  0
 24 25  1  0  0  0  0
 25 17  1  0  0  0  0
 26 29  1  0  0  0  0
 27 26  1  0  0  0  0
 29 28  1  0  0  0  0
M  END
>  <MODEL>
1

>  <REMARK>
 VINA RESULT:      -5.6      0.000      0.000
  Name = 
  3 active torsions:
  status: ('A' for Active; 'I' for Inactive)
    1  A    between atoms: C_4  and  C_16
    2  A    between atoms: C_16  and  C_17
    3  A    between atoms: O_21  and  C_22
                            x       y       z     vdW  Elec       q    Type
                         _______ _______ _______ _____ _____    ______ ____

>  <TORSDO>
F 3

$$$$
=
 OpenBabel11072413503D

 29 32  0  0  1  0  0  0  0  0999 V2000
  161.5120  210.1520  154.3830 C   0  0  0  0  0  2  0  0  0  0  0  0
  162.6350  209.8970  148.6940 C   0  0  0  0  0  3  0  0  0  0  0  0
  161.5630  209.2810  149.5410 C   0  0  0  0  0  2  0  0  0  0  0  0
  158.9830  213.2190  150.8430 C   0  0  2  0  0  3  0  0  0  0  0  0
  159.5630  210.9820  155.7400 C   0  0  2  0  0  3  0  0  0  0  0  0
  161.0810  210.8040  155.6820 C   0  0  0  0  0  2  0  0  0  0  0  0
  161.6880  212.1830  148.3850 C   0  0  0  0  0  0  0  0  0  0  0  0
  159.7230  213.8590  152.0270 C   0  0  0  0  0  2  0  0  0  0  0  0
  161.1890  211.0890  153.2260 C   0  0  2  0  0  3  0  0  0  0  0  0
  159.6120  213.0990  153.3570 C   0  0  1  0  0  3  0  0  0  0  0  0
  158.4180  213.4200  154.0310 O   0  0  0  0  0  0  0  0  0  0  0  0
  160.7180  212.1600  149.3950 C   0  0  0  0  0  3  0  0  0  0  0  0
  157.8390  212.2080  154.4600 C   0  0  0  0  0  2  0  0  0  0  0  0
  161.0020  214.4530  147.8520 C   0  0  0  0  0  3  0  0  0  0  0  0
  162.6350  211.1090  148.2100 N   0  0  0  0  0  0  0  0  0  0  0  0
  158.9440  209.8480  156.5340 C   0  0  0  0  0  1  0  0  0  0  0  0
  161.8270  213.3420  147.6030 C   0  0  0  0  0  0  0  0  0  0  0  0
  158.8610  211.0990  154.3720 C   0  0  1  0  0  3  0  0  0  0  0  0
  159.9000  213.2580  149.6500 C   0  0  0  0  0  0  0  0  0  0  0  0
  161.5320  209.8510  150.8920 C   0  0  0  0  0  0  0  0  0  0  0  0
  159.7330  211.5920  153.2420 C   0  0  2  0  0  3  0  0  0  0  0  0
  161.4180  210.3860  151.9650 C   0  0  0  0  0  0  0  0  0  0  0  0
  160.0560  214.4180  148.8780 C   0  0  0  0  0  3  0  0  0  0  0  0
  162.4690  213.5130  145.2170 C   0  0  0  0  0  1  0  0  0  0  0  0
  162.7950  213.3760  146.5930 O   0  0  0  0  0  0  0  0  0  0  0  0
  157.6260  213.8920  150.5420 C   0  0  2  0  0  3  0  0  0  0  0  0
  156.7590  214.0640  151.7780 C   0  0  0  0  0  1  0  0  0  0  0  0
  156.3900  214.0830  148.3340 C   0  0  0  0  0  1  0  0  0  0  0  0
  156.8380  213.1550  149.4550 C   0  0  0  0  0  2  0  0  0  0  0  0
  1  6  1  0  0  0  0
  2  3  1  0  0  0  0
  3 20  1  0  0  0  0
  4 26  1  6  0  0  0
  4  8  1  0  0  0  0
  5 16  1  6  0  0  0
  6  5  1  0  0  0  0
  7 12  1  0  0  0  0
  9 22  1  6  0  0  0
  9 21  1  0  0  0  0
  9  1  1  0  0  0  0
 10  8  1  6  0  0  0
 10 11  1  0  0  0  0
 11 13  1  0  0  0  0
 12 19  2  0  0  0  0
 14 23  2  0  0  0  0
 15  7  1  0  0  0  0
 15  2  2  0  0  0  0
 17 14  1  0  0  0  0
 17  7  2  0  0  0  0
 18 13  1  1  0  0  0
 18  5  1  0  0  0  0
 19  4  1  0  0  0  0
 20 22  3  0  0  0  0
 21 10  1  0  0  0  0
 21 18  1  0  0  0  0
 23 19  1  0  0  0  0
 24 25  1  0  0  0  0
 25 17  1  0  0  0  0
 26 27  1  0  0  0  0
 28 29  1  0  0  0  0
 29 26  1  0  0  0  0
M  END
>  <MODEL>
2

>  <REMARK>
 VINA RESULT:      -4.5      6.007      9.126
  Name = 
  3 active torsions:
  status: ('A' for Active; 'I' for Inactive)
    1  A    between atoms: C_4  and  C_16
    2  A    between atoms: C_16  and  C_17
    3  A    between atoms: O_21  and  C_22
                            x       y       z     vdW  Elec       q    Type
                         _______ _______ _______ _____ _____    ______ ____

>  <TORSDO>
F 3

$$$$
=
 OpenBabel11072413503D

 29 32  0  0  1  0  0  0  0  0999 V2000
  162.0330  208.8730  154.5240 C   0  0  0  0  0  2  0  0  0  0  0  0
  162.5570  209.8670  148.8300 C   0  0  0  0  0  3  0  0  0  0  0  0
  161.5820  209.0570  149.6290 C   0  0  0  0  0  2  0  0  0  0  0  0
  159.1350  212.5560  152.0010 C   0  0  2  0  0  3  0  0  0  0  0  0
  160.2320  209.3410  156.2180 C   0  0  2  0  0  3  0  0  0  0  0  0
  161.7370  209.2200  155.9700 C   0  0  0  0  0  2  0  0  0  0  0  0
  161.5730  212.1410  149.1170 C   0  0  0  0  0  0  0  0  0  0  0  0
  159.9910  212.9480  153.2130 C   0  0  0  0  0  2  0  0  0  0  0  0
  161.5860  210.0260  153.6350 C   0  0  2  0  0  3  0  0  0  0  0  0
  160.0230  211.9190  154.3530 C   0  0  1  0  0  3  0  0  0  0  0  0
  158.9040  212.0560  155.1970 O   0  0  0  0  0  0  0  0  0  0  0  0
  160.7140  211.8760  150.1900 C   0  0  0  0  0  3  0  0  0  0  0  0
  158.3790  210.7660  155.4120 C   0  0  0  0  0  2  0  0  0  0  0  0
  160.8240  214.4530  149.1560 C   0  0  0  0  0  3  0  0  0  0  0  0
  162.5010  211.1550  148.6200 N   0  0  0  0  0  0  0  0  0  0  0  0
  159.7040  208.0480  156.8080 C   0  0  0  0  0  1  0  0  0  0  0  0
  161.6240  213.4430  148.5920 C   0  0  0  0  0  0  0  0  0  0  0  0
  159.3910  209.7290  154.9850 C   0  0  1  0  0  3  0  0  0  0  0  0
  159.9220  212.8730  150.7570 C   0  0  0  0  0  0  0  0  0  0  0  0
  161.6890  209.3240  151.0660 C   0  0  0  0  0  0  0  0  0  0  0  0
  160.1380  210.4750  153.9050 C   0  0  2  0  0  3  0  0  0  0  0  0
  161.6860  209.6150  152.2360 C   0  0  0  0  0  0  0  0  0  0  0  0
  159.9920  214.1740  150.2410 C   0  0  0  0  0  3  0  0  0  0  0  0
  162.0390  213.7630  146.1710 C   0  0  0  0  0  1  0  0  0  0  0  0
  162.4820  213.7170  147.5210 O   0  0  0  0  0  0  0  0  0  0  0  0
  157.7510  213.2410  151.9890 C   0  0  2  0  0  3  0  0  0  0  0  0
  157.2970  213.6440  150.5950 C   0  0  0  0  0  1  0  0  0  0  0  0
  156.6450  214.2920  154.0160 C   0  0  0  0  0  1  0  0  0  0  0  0
  157.6920  214.4530  152.9230 C   0  0  0  0  0  2  0  0  0  0  0  0
  1  6  1  0  0  0  0
  2  3  1  0  0  0  0
  3 20  1  0  0  0  0
  4 26  1  6  0  0  0
  4  8  1  0  0  0  0
  5 16  1  6  0  0  0
  6  5  1  0  0  0  0
  7 12  1  0  0  0  0
  9 22  1  6  0  0  0
  9 21  1  0  0  0  0
  9  1  1  0  0  0  0
 10  8  1  6  0  0  0
 10 11  1  0  0  0  0
 11 13  1  0  0  0  0
 12 19  2  0  0  0  0
 14 23  2  0  0  0  0
 15  2  2  0  0  0  0
 15  7  1  0  0  0  0
 17  7  2  0  0  0  0
 17 14  1  0  0  0  0
 18 13  1  1  0  0  0
 18  5  1  0  0  0  0
 19  4  1  0  0  0  0
 20 22  3  0  0  0  0
 21 10  1  0  0  0  0
 21 18  1  0  0  0  0
 23 19  1  0  0  0  0
 24 25  1  0  0  0  0
 25 17  1  0  0  0  0
 26 29  1  0  0  0  0
 27 26  1  0  0  0  0
 29 28  1  0  0  0  0
M  END
>  <MODEL>
3

>  <REMARK>
 VINA RESULT:      -4.1      5.837      8.945
  Name = 
  3 active torsions:
  status: ('A' for Active; 'I' for Inactive)
    1  A    between atoms: C_4  and  C_16
    2  A    between atoms: C_16  and  C_17
    3  A    between atoms: O_21  and  C_22
                            x       y       z     vdW  Elec       q    Type
                         _______ _______ _______ _____ _____    ______ ____

>  <TORSDO>
F 3

$$$$
=
 OpenBabel11072413503D

 29 32  0  0  1  0  0  0  0  0999 V2000
  162.2660  206.2490  152.2180 C   0  0  0  0  0  2  0  0  0  0  0  0
  160.0330  201.2360  150.3300 C   0  0  0  0  0  3  0  0  0  0  0  0
  159.4080  202.5530  150.6770 C   0  0  0  0  0  2  0  0  0  0  0  0
  161.1100  205.4020  147.0930 C   0  0  2  0  0  3  0  0  0  0  0  0
  162.3220  208.5900  151.2980 C   0  0  2  0  0  3  0  0  0  0  0  0
  163.0640  207.5350  152.1210 C   0  0  0  0  0  2  0  0  0  0  0  0
  160.8330  201.7280  148.0190 C   0  0  0  0  0  0  0  0  0  0  0  0
  162.5270  205.8260  147.5020 C   0  0  0  0  0  2  0  0  0  0  0  0
  162.1390  205.6370  150.8300 C   0  0  2  0  0  3  0  0  0  0  0  0
  162.6000  206.8620  148.6320 C   0  0  1  0  0  3  0  0  0  0  0  0
  162.4360  208.1710  148.1380 O   0  0  0  0  0  0  0  0  0  0  0  0
  160.7340  203.1240  148.0430 C   0  0  0  0  0  3  0  0  0  0  0  0
  161.5080  208.8230  148.9750 C   0  0  0  0  0  2  0  0  0  0  0  0
  161.6660  201.8790  145.7410 C   0  0  0  0  0  3  0  0  0  0  0  0
  160.5970  200.9250  149.1940 N   0  0  0  0  0  0  0  0  0  0  0  0
  161.5960  209.5460  152.2240 C   0  0  0  0  0  1  0  0  0  0  0  0
  161.2990  201.1000  146.8520 C   0  0  0  0  0  0  0  0  0  0  0  0
  161.3350  208.0350  150.2520 C   0  0  1  0  0  3  0  0  0  0  0  0
  161.1000  203.9040  146.9470 C   0  0  0  0  0  0  0  0  0  0  0  0
  160.4100  203.6090  150.8530 C   0  0  0  0  0  0  0  0  0  0  0  0
  161.6270  206.6330  149.7720 C   0  0  2  0  0  3  0  0  0  0  0  0
  161.2080  204.5110  150.8880 C   0  0  0  0  0  0  0  0  0  0  0  0
  161.5820  203.2710  145.7930 C   0  0  0  0  0  3  0  0  0  0  0  0
  161.2060  198.9440  145.6360 C   0  0  0  0  0  1  0  0  0  0  0  0
  161.4040  199.7050  146.8200 O   0  0  0  0  0  0  0  0  0  0  0  0
  160.6150  206.1020  145.8080 C   0  0  2  0  0  3  0  0  0  0  0  0
  159.3300  205.5030  145.2600 C   0  0  0  0  0  1  0  0  0  0  0  0
  161.2060  205.4710  143.4230 C   0  0  0  0  0  1  0  0  0  0  0  0
  161.6820  206.1290  144.7100 C   0  0  0  0  0  2  0  0  0  0  0  0
  2  3  1  0  0  0  0
  3 20  1  0  0  0  0
  4 26  1  6  0  0  0
  4  8  1  0  0  0  0
  5  6  1  0  0  0  0
  5 16  1  1  0  0  0
  6  1  1  0  0  0  0
  7 12  1  0  0  0  0
  7 15  1  0  0  0  0
  9 22  1  1  0  0  0
  9  1  1  0  0  0  0
 10  8  1  6  0  0  0
 10 21  1  0  0  0  0
 11 10  1  0  0  0  0
 11 13  1  0  0  0  0
 14 23  2  0  0  0  0
 14 17  1  0  0  0  0
 15  2  2  0  0  0  0
 17  7  2  0  0  0  0
 18 13  1  6  0  0  0
 18  5  1  0  0  0  0
 19  4  1  0  0  0  0
 19 12  2  0  0  0  0
 20 22  3  0  0  0  0
 21 18  1  0  0  0  0
 21  9  1  0  0  0  0
 23 19  1  0  0  0  0
 24 25  1  0  0  0  0
 25 17  1  0  0  0  0
 27 26  1  0  0  0  0
 28 29  1  0  0  0  0
 29 26  1  0  0  0  0
M  END
>  <MODEL>
4

>  <REMARK>
 VINA RESULT:      -3.9      1.921      4.534
  Name = 
  3 active torsions:
  status: ('A' for Active; 'I' for Inactive)
    1  A    between atoms: C_4  and  C_16
    2  A    between atoms: C_16  and  C_17
    3  A    between atoms: O_21  and  C_22
                            x       y       z     vdW  Elec       q    Type
                         _______ _______ _______ _____ _____    ______ ____

>  <TORSDO>
F 3

$$$$
=
 OpenBabel11072413503D

 29 32  0  0  1  0  0  0  0  0999 V2000
  160.2780  202.6680  150.9500 C   0  0  0  0  0  2  0  0  0  0  0  0
  161.3950  206.6900  154.9820 C   0  0  0  0  0  3  0  0  0  0  0  0
  162.2870  205.8230  154.1450 C   0  0  0  0  0  2  0  0  0  0  0  0
  161.5380  207.6830  149.6910 C   0  0  2  0  0  3  0  0  0  0  0  0
  160.8310  202.4480  148.5050 C   0  0  2  0  0  3  0  0  0  0  0  0
  159.8110  202.1460  149.6040 C   0  0  0  0  0  2  0  0  0  0  0  0
  160.8870  208.5010  153.3440 C   0  0  0  0  0  0  0  0  0  0  0  0
  160.2350  207.0620  149.1680 C   0  0  0  0  0  2  0  0  0  0  0  0
  160.3490  204.1880  150.8950 C   0  0  2  0  0  3  0  0  0  0  0  0
  160.3320  205.5870  148.7540 C   0  0  1  0  0  3  0  0  0  0  0  0
  160.8300  205.4560  147.4430 O   0  0  0  0  0  0  0  0  0  0  0  0
  161.3070  207.8630  152.1710 C   0  0  0  0  0  3  0  0  0  0  0  0
  161.8280  204.4600  147.4700 C   0  0  0  0  0  2  0  0  0  0  0  0
  160.2630  210.4330  152.0070 C   0  0  0  0  0  3  0  0  0  0  0  0
  160.8500  207.8180  154.6140 N   0  0  0  0  0  0  0  0  0  0  0  0
  161.6980  201.2280  148.2610 C   0  0  0  0  0  1  0  0  0  0  0  0
  160.3630  209.8020  153.2600 C   0  0  0  0  0  0  0  0  0  0  0  0
  161.7280  203.6770  148.7580 C   0  0  1  0  0  3  0  0  0  0  0  0
  161.2070  208.4800  150.9250 C   0  0  0  0  0  0  0  0  0  0  0  0
  161.5510  205.1490  153.0710 C   0  0  0  0  0  0  0  0  0  0  0  0
  161.1480  204.7150  149.6890 C   0  0  2  0  0  3  0  0  0  0  0  0
  160.9850  204.6790  152.1160 C   0  0  0  0  0  0  0  0  0  0  0  0
  160.6660  209.7710  150.8460 C   0  0  0  0  0  3  0  0  0  0  0  0
  160.7030  211.4530  155.0740 C   0  0  0  0  0  1  0  0  0  0  0  0
  159.9380  210.4460  154.4270 O   0  0  0  0  0  0  0  0  0  0  0  0
  162.2660  208.5440  148.6360 C   0  0  2  0  0  3  0  0  0  0  0  0
  163.4550  207.8360  148.0070 C   0  0  0  0  0  1  0  0  0  0  0  0
  162.3230  211.0550  148.2760 C   0  0  0  0  0  1  0  0  0  0  0  0
  162.7060  209.9010  149.1920 C   0  0  0  0  0  2  0  0  0  0  0  0
  3  2  1  0  0  0  0
  4 26  1  6  0  0  0
  4 19  1  0  0  0  0
  5 16  1  1  0  0  0
  5 18  1  0  0  0  0
  5  6  1  0  0  0  0
  6  1  1  0  0  0  0
  7 15  1  0  0  0  0
  8  4  1  0  0  0  0
  9  1  1  1  0  0  0
  9 22  1  0  0  0  0
 10  8  1  1  0  0  0
 10 21  1  0  0  0  0
 11 13  1  0  0  0  0
 11 10  1  0  0  0  0
 12  7  2  0  0  0  0
 14 17  2  0  0  0  0
 15  2  2  0  0  0  0
 17  7  1  0  0  0  0
 17 25  1  0  0  0  0
 18 13  1  6  0  0  0
 18 21  1  0  0  0  0
 19 12  1  0  0  0  0
 20  3  1  0  0  0  0
 21  9  1  0  0  0  0
 22 20  3  0  0  0  0
 23 19  2  0  0  0  0
 23 14  1  0  0  0  0
 25 24  1  0  0  0  0
 26 29  1  0  0  0  0
 27 26  1  0  0  0  0
 28 29  1  0  0  0  0
M  END
>  <MODEL>
5

>  <REMARK>
 VINA RESULT:      -3.5      2.810      7.769
  Name = 
  3 active torsions:
  status: ('A' for Active; 'I' for Inactive)
    1  A    between atoms: C_4  and  C_16
    2  A    between atoms: C_16  and  C_17
    3  A    between atoms: O_21  and  C_22
                            x       y       z     vdW  Elec       q    Type
                         _______ _______ _______ _____ _____    ______ ____

>  <TORSDO>
F 3

$$$$
=
 OpenBabel11072413503D

 29 32  0  0  1  0  0  0  0  0999 V2000
  161.5700  210.6780  149.0960 C   0  0  0  0  0  2  0  0  0  0  0  0
  158.6960  213.6820  153.1450 C   0  0  0  0  0  3  0  0  0  0  0  0
  158.2930  212.5480  152.2520 C   0  0  0  0  0  2  0  0  0  0  0  0
  160.9700  208.8900  154.0720 C   0  0  2  0  0  3  0  0  0  0  0  0
  162.1940  208.2550  148.8360 C   0  0  2  0  0  3  0  0  0  0  0  0
  162.6040  209.7030  148.5660 C   0  0  0  0  0  2  0  0  0  0  0  0
  159.8760  212.4220  154.9450 C   0  0  0  0  0  0  0  0  0  0  0  0
  162.3740  209.0290  153.4690 C   0  0  0  0  0  2  0  0  0  0  0  0
  161.5160  210.5690  150.6130 C   0  0  2  0  0  3  0  0  0  0  0  0
  162.4920  208.6440  151.9870 C   0  0  1  0  0  3  0  0  0  0  0  0
  162.6470  207.2530  151.8310 O   0  0  0  0  0  0  0  0  0  0  0  0
  160.0430  211.1980  154.2860 C   0  0  0  0  0  3  0  0  0  0  0  0
  161.7570  206.8420  150.8170 C   0  0  0  0  0  2  0  0  0  0  0  0
  161.0210  211.4790  156.8720 C   0  0  0  0  0  3  0  0  0  0  0  0
  159.3370  213.5820  154.2790 N   0  0  0  0  0  0  0  0  0  0  0  0
  161.5460  207.6660  147.5980 C   0  0  0  0  0  1  0  0  0  0  0  0
  160.3670  212.5610  156.2550 C   0  0  0  0  0  0  0  0  0  0  0  0
  161.2680  208.0480  150.0520 C   0  0  1  0  0  3  0  0  0  0  0  0
  160.6940  210.1240  154.8890 C   0  0  0  0  0  0  0  0  0  0  0  0
  159.4450  211.9400  151.5790 C   0  0  0  0  0  0  0  0  0  0  0  0
  161.3490  209.1210  151.1120 C   0  0  2  0  0  3  0  0  0  0  0  0
  160.3880  211.3570  151.1080 C   0  0  0  0  0  0  0  0  0  0  0  0
  161.1970  210.2750  156.1890 C   0  0  0  0  0  3  0  0  0  0  0  0
  158.9340  214.3120  157.2610 C   0  0  0  0  0  1  0  0  0  0  0  0
  160.2070  213.7810  156.9200 O   0  0  0  0  0  0  0  0  0  0  0  0
  160.7940  207.6020  154.9070 C   0  0  2  0  0  3  0  0  0  0  0  0
  160.4960  206.3770  154.0570 C   0  0  0  0  0  1  0  0  0  0  0  0
  160.0530  206.9530  157.2450 C   0  0  0  0  0  1  0  0  0  0  0  0
  159.7240  207.7520  155.9930 C   0  0  0  0  0  2  0  0  0  0  0  0
  2 15  2  0  0  0  0
  3  2  1  0  0  0  0
  4 19  1  0  0  0  0
  4 26  1  1  0  0  0
  5 16  1  6  0  0  0
  5 18  1  0  0  0  0
  6  5  1  0  0  0  0
  6  1  1  0  0  0  0
  7 17  1  0  0  0  0
  8  4  1  0  0  0  0
  9  1  1  6  0  0  0
  9 22  1  0  0  0  0
  9 21  1  0  0  0  0
 10  8  1  1  0  0  0
 11 10  1  0  0  0  0
 12 19  1  0  0  0  0
 12  7  2  0  0  0  0
 13 11  1  0  0  0  0
 15  7  1  0  0  0  0
 17 14  2  0  0  0  0
 17 25  1  0  0  0  0
 18 13  1  1  0  0  0
 18 21  1  0  0  0  0
 19 23  2  0  0  0  0
 20  3  1  0  0  0  0
 21 10  1  0  0  0  0
 22 20  3  0  0  0  0
 23 14  1  0  0  0  0
 25 24  1  0  0  0  0
 26 29  1  0  0  0  0
 27 26  1  0  0  0  0
 29 28  1  0  0  0  0
M  END
>  <MODEL>
6

>  <REMARK>
 VINA RESULT:      -3.4      4.688      8.912
  Name = 
  3 active torsions:
  status: ('A' for Active; 'I' for Inactive)
    1  A    between atoms: C_4  and  C_16
    2  A    between atoms: C_16  and  C_17
    3  A    between atoms: O_21  and  C_22
                            x       y       z     vdW  Elec       q    Type
                         _______ _______ _______ _____ _____    ______ ____

>  <TORSDO>
F 3

$$$$
=
 OpenBabel11072413503D

 29 32  0  0  1  0  0  0  0  0999 V2000
  160.3710  203.4160  150.7850 C   0  0  0  0  0  2  0  0  0  0  0  0
  160.9370  206.8630  155.4200 C   0  0  0  0  0  3  0  0  0  0  0  0
  161.9360  206.1240  154.5830 C   0  0  0  0  0  2  0  0  0  0  0  0
  161.6540  208.5640  150.3620 C   0  0  2  0  0  3  0  0  0  0  0  0
  161.2020  203.5330  148.4130 C   0  0  2  0  0  3  0  0  0  0  0  0
  160.0710  203.0780  149.3380 C   0  0  0  0  0  2  0  0  0  0  0  0
  160.5770  208.8760  153.9920 C   0  0  0  0  0  0  0  0  0  0  0  0
  160.4330  208.0110  149.6140 C   0  0  0  0  0  2  0  0  0  0  0  0
  160.4150  204.9300  150.9430 C   0  0  2  0  0  3  0  0  0  0  0  0
  160.6090  206.6060  149.0200 C   0  0  1  0  0  3  0  0  0  0  0  0
  161.2540  206.6570  147.7700 O   0  0  0  0  0  0  0  0  0  0  0  0
  161.1410  208.4050  152.8000 C   0  0  0  0  0  3  0  0  0  0  0  0
  162.2640  205.6730  147.7780 C   0  0  0  0  0  2  0  0  0  0  0  0
  160.0650  210.9660  152.8620 C   0  0  0  0  0  3  0  0  0  0  0  0
  160.4130  208.0270  155.1470 N   0  0  0  0  0  0  0  0  0  0  0  0
  162.1170  202.3630  148.1090 C   0  0  0  0  0  1  0  0  0  0  0  0
  160.0380  210.1730  154.0230 C   0  0  0  0  0  0  0  0  0  0  0  0
  162.0370  204.7220  148.9290 C   0  0  1  0  0  3  0  0  0  0  0  0
  161.1680  209.1840  151.6440 C   0  0  0  0  0  0  0  0  0  0  0  0
  161.3410  205.5960  153.3510 C   0  0  0  0  0  0  0  0  0  0  0  0
  161.3330  205.6220  149.9180 C   0  0  2  0  0  3  0  0  0  0  0  0
  160.8970  205.2560  152.2830 C   0  0  0  0  0  0  0  0  0  0  0  0
  160.6120  210.4700  151.6780 C   0  0  0  0  0  3  0  0  0  0  0  0
  160.2230  211.3190  156.2100 C   0  0  0  0  0  1  0  0  0  0  0  0
  159.4690  210.6510  155.2090 O   0  0  0  0  0  0  0  0  0  0  0  0
  162.4770  209.5650  149.5210 C   0  0  2  0  0  3  0  0  0  0  0  0
  163.0150  210.7280  150.3390 C   0  0  0  0  0  1  0  0  0  0  0  0
  161.7880  211.6110  148.1880 C   0  0  0  0  0  1  0  0  0  0  0  0
  161.6960  210.0970  148.3160 C   0  0  0  0  0  2  0  0  0  0  0  0
  3  2  1  0  0  0  0
  4 26  1  6  0  0  0
  4 19  1  0  0  0  0
  5 16  1  1  0  0  0
  5 18  1  0  0  0  0
  5  6  1  0  0  0  0
  6  1  1  0  0  0  0
  7 17  1  0  0  0  0
  7 15  1  0  0  0  0
  8  4  1  0  0  0  0
  9  1  1  6  0  0  0
  9 22  1  0  0  0  0
 10  8  1  1  0  0  0
 10 21  1  0  0  0  0
 11 13  1  0  0  0  0
 11 10  1  0  0  0  0
 12  7  2  0  0  0  0
 14 17  2  0  0  0  0
 15  2  2  0  0  0  0
 17 25  1  0  0  0  0
 18 13  1  6  0  0  0
 18 21  1  0  0  0  0
 19 23  2  0  0  0  0
 19 12  1  0  0  0  0
 20  3  1  0  0  0  0
 21  9  1  0  0  0  0
 22 20  3  0  0  0  0
 23 14  1  0  0  0  0
 25 24  1  0  0  0  0
 26 27  1  0  0  0  0
 28 29  1  0  0  0  0
 29 26  1  0  0  0  0
M  END
>  <MODEL>
7

>  <REMARK>
 VINA RESULT:      -3.0      3.082      8.050
  Name = 
  3 active torsions:
  status: ('A' for Active; 'I' for Inactive)
    1  A    between atoms: C_4  and  C_16
    2  A    between atoms: C_16  and  C_17
    3  A    between atoms: O_21  and  C_22
                            x       y       z     vdW  Elec       q    Type
                         _______ _______ _______ _____ _____    ______ ____

>  <TORSDO>
F 3

$$$$
=
 OpenBabel11072413503D

 29 32  0  0  1  0  0  0  0  0999 V2000
  161.0860  205.8000  154.0230 C   0  0  0  0  0  2  0  0  0  0  0  0
  161.0220  210.6160  157.2610 C   0  0  0  0  0  3  0  0  0  0  0  0
  162.1330  209.8580  156.5990 C   0  0  0  0  0  2  0  0  0  0  0  0
  161.1760  210.6700  151.8780 C   0  0  2  0  0  3  0  0  0  0  0  0
  161.7920  205.2950  151.6610 C   0  0  2  0  0  3  0  0  0  0  0  0
  160.8220  204.9530  152.7930 C   0  0  0  0  0  2  0  0  0  0  0  0
  160.1760  211.9330  155.3200 C   0  0  0  0  0  0  0  0  0  0  0  0
  160.0840  209.6700  151.4720 C   0  0  0  0  0  2  0  0  0  0  0  0
  160.7970  207.2580  153.6930 C   0  0  2  0  0  3  0  0  0  0  0  0
  160.5490  208.2130  151.3340 C   0  0  1  0  0  3  0  0  0  0  0  0
  161.1260  207.9780  150.0700 O   0  0  0  0  0  0  0  0  0  0  0  0
  160.7910  211.2200  154.2830 C   0  0  0  0  0  3  0  0  0  0  0  0
  162.3290  207.2750  150.2810 C   0  0  0  0  0  2  0  0  0  0  0  0
  159.1740  213.3900  153.6510 C   0  0  0  0  0  3  0  0  0  0  0  0
  160.2430  211.4960  156.6920 N   0  0  0  0  0  0  0  0  0  0  0  0
  162.9340  204.2980  151.6460 C   0  0  0  0  0  1  0  0  0  0  0  0
  159.3620  213.0330  154.9980 C   0  0  0  0  0  0  0  0  0  0  0  0
  162.3570  206.7290  151.6900 C   0  0  1  0  0  3  0  0  0  0  0  0
  160.6060  211.5660  152.9460 C   0  0  0  0  0  0  0  0  0  0  0  0
  161.6300  208.8480  155.6630 C   0  0  0  0  0  0  0  0  0  0  0  0
  161.5040  207.7430  152.4140 C   0  0  2  0  0  3  0  0  0  0  0  0
  161.2380  208.0950  154.8070 C   0  0  0  0  0  0  0  0  0  0  0  0
  159.7790  212.6530  152.6320 C   0  0  0  0  0  3  0  0  0  0  0  0
  157.3670  213.5960  156.3530 C   0  0  0  0  0  1  0  0  0  0  0  0
  158.7410  213.7490  156.0270 O   0  0  0  0  0  0  0  0  0  0  0  0
  161.7270  211.4830  150.6870 C   0  0  2  0  0  3  0  0  0  0  0  0
  160.6860  212.3930  150.0540 C   0  0  0  0  0  1  0  0  0  0  0  0
  162.3710  211.2550  148.2430 C   0  0  0  0  0  1  0  0  0  0  0  0
  162.3560  210.5900  149.6120 C   0  0  0  0  0  2  0  0  0  0  0  0
  3  2  1  0  0  0  0
  4 26  1  6  0  0  0
  4 19  1  0  0  0  0
  5 16  1  1  0  0  0
  5 18  1  0  0  0  0
  5  6  1  0  0  0  0
  6  1  1  0  0  0  0
  7 15  1  0  0  0  0
  8  4  1  0  0  0  0
  9  1  1  1  0  0  0
  9 22  1  0  0  0  0
 10  8  1  1  0  0  0
 10 21  1  0  0  0  0
 11 13  1  0  0  0  0
 11 10  1  0  0  0  0
 12  7  2  0  0  0  0
 14 17  2  0  0  0  0
 15  2  2  0  0  0  0
 17  7  1  0  0  0  0
 17 25  1  0  0  0  0
 18 13  1  6  0  0  0
 18 21  1  0  0  0  0
 19 12  1  0  0  0  0
 20  3  1  0  0  0  0
 21  9  1  0  0  0  0
 22 20  3  0  0  0  0
 23 19  2  0  0  0  0
 23 14  1  0  0  0  0
 25 24  1  0  0  0  0
 27 26  1  0  0  0  0
 28 29  1  0  0  0  0
 29 26  1  0  0  0  0
M  END
>  <MODEL>
8

>  <REMARK>
 VINA RESULT:      -2.9      4.527      9.563
  Name = 
  3 active torsions:
  status: ('A' for Active; 'I' for Inactive)
    1  A    between atoms: C_4  and  C_16
    2  A    between atoms: C_16  and  C_17
    3  A    between atoms: O_21  and  C_22
                            x       y       z     vdW  Elec       q    Type
                         _______ _______ _______ _____ _____    ______ ____

>  <TORSDO>
F 3

$$$$
