=
 OpenBabel11072410143D

 37 40  0  0  1  0  0  0  0  0999 V2000
  162.0960  210.8140  155.0520 C   0  0  0  0  0  2  0  0  0  0  0  0
  158.1900  212.6020  154.5070 C   0  0  1  0  0  3  0  0  0  0  0  0
  158.4950  211.7100  152.3130 O   0  0  0  0  0  0  0  0  0  0  0  0
  160.0480  210.9420  153.8870 N   0  0  0  0  0  0  0  0  0  0  0  0
  158.7880  212.5500  155.9260 C   0  0  2  0  0  3  0  0  0  0  0  0
  160.9950  210.4280  152.9110 C   0  0  1  0  0  3  0  0  0  0  0  0
  158.5250  213.7460  156.5930 O   0  0  0  0  0  1  0  0  0  0  0  0
  160.5960  210.9660  155.2370 C   0  0  2  0  0  0  0  0  0  0  0  0
  162.2950  210.2120  153.6680 C   0  0  0  0  0  2  0  0  0  0  0  0
  158.8900  211.7110  153.5100 C   0  0  0  0  0  0  0  0  0  0  0  0
  160.2920  212.3000  155.9150 C   0  0  0  0  0  2  0  0  0  0  0  0
  159.0840  209.1440  155.6380 O   0  0  0  0  0  0  0  0  0  0  0  0
  160.0690  209.8110  156.0520 C   0  0  0  0  0  0  0  0  0  0  0  0
  160.6690  209.4640  157.2570 O   0  0  0  0  0  1  0  0  0  0  0  0
  156.6760  212.3490  154.5050 C   0  0  1  0  0  3  0  0  0  0  0  0
  156.2730  211.2480  155.4780 C   0  0  0  0  0  1  0  0  0  0  0  0
  155.9820  213.5250  154.8020 O   0  0  0  0  0  0  0  0  0  0  0  0
  156.1950  214.3550  153.7000 C   0  0  0  0  0  2  0  0  0  0  0  0
  154.9820  214.3120  152.7950 C   0  0  0  0  0  2  0  0  0  0  0  0
  156.0040  214.1100  149.5680 C   0  0  0  0  0  2  0  0  0  0  0  0
  154.7650  214.1530  150.2100 N   0  0  0  0  0  0  0  0  0  0  0  0
  155.4210  214.2400  151.3750 C   0  0  0  0  0  0  0  0  0  0  0  0
  156.7450  214.1760  150.7270 N   0  0  0  0  0  2  0  0  0  0  0  0
  160.5240  209.0840  152.3690 C   0  0  0  0  0  2  0  0  0  0  0  0
  161.2880  208.6850  151.1170 C   0  0  0  0  0  2  0  0  0  0  0  0
  162.1780  207.4770  151.3700 C   0  0  0  0  0  2  0  0  0  0  0  0
  161.5700  206.2050  150.8010 C   0  0  1  0  0  3  0  0  0  0  0  0
  162.0260  206.0560  149.3590 C   0  0  0  0  0  2  0  0  0  0  0  0
  161.6300  205.2530  145.9490 C   0  0  0  0  0  2  0  0  0  0  0  0
  161.2580  203.1430  148.8090 O   0  0  0  0  0  0  0  0  0  0  0  0
  160.7500  206.4960  146.9630 S   0  0  0  0  0  0  0  0  0  0  0  0
  161.6280  203.9980  146.6720 N   0  0  0  0  0  2  0  0  0  0  0  0
  161.2710  204.1350  148.0340 C   0  0  0  0  0  0  0  0  0  0  0  0
  160.9110  205.4970  148.4850 C   0  0  1  0  0  3  0  0  0  0  0  0
  162.0230  204.9930  151.6020 C   0  0  0  0  0  2  0  0  0  0  0  0
  161.0520  204.6530  152.5440 O   0  0  0  0  0  0  0  0  0  0  0  0
  160.6730  203.3550  152.2020 C   0  0  0  0  0  1  0  0  0  0  0  0
  1  8  1  0  0  0  0
  2 15  1  1  0  0  0
  2  5  1  0  0  0  0
  3 10  2  0  0  0  0
  4  8  1  0  0  0  0
  5  7  1  6  0  0  0
  6 24  1  1  0  0  0
  6  9  1  0  0  0  0
  6  4  1  0  0  0  0
  8 11  1  0  0  0  0
  8 13  1  1  0  0  0
  9  1  1  0  0  0  0
 10  4  1  0  0  0  0
 10  2  1  0  0  0  0
 11  5  1  0  0  0  0
 12 13  2  0  0  0  0
 13 14  1  0  0  0  0
 15 17  1  0  0  0  0
 15 16  1  1  0  0  0
 18 17  1  0  0  0  0
 19 18  1  0  0  0  0
 20 21  1  0  0  0  0
 20 23  1  0  0  0  0
 21 22  2  0  0  0  0
 22 19  1  0  0  0  0
 23 22  1  0  0  0  0
 25 26  1  0  0  0  0
 25 24  1  0  0  0  0
 27 28  1  6  0  0  0
 27 26  1  0  0  0  0
 27 35  1  0  0  0  0
 29 32  1  0  0  0  0
 29 31  1  0  0  0  0
 31 34  1  0  0  0  0
 32 33  1  0  0  0  0
 33 34  1  0  0  0  0
 33 30  2  0  0  0  0
 34 28  1  1  0  0  0
 35 36  1  0  0  0  0
 37 36  1  0  0  0  0
M  END
>  <MODEL>
1

>  <REMARK>
 VINA RESULT:      -5.8      0.000      0.000
  Name = 
  14 active torsions:
  status: ('A' for Active; 'I' for Inactive)
    1  A    between atoms: O_2  and  C_20
    2  A    between atoms: C_10  and  C_11
    3  A    between atoms: C_10  and  O_13
    4  A    between atoms: O_13  and  C_28
    5  A    between atoms: C_14  and  C_22
    6  A    between atoms: C_16  and  C_35
    7  A    between atoms: C_16  and  C_36
    8  A    between atoms: C_17  and  C_30
    9  A    between atoms: C_18  and  C_21
   10  A    between atoms: C_18  and  C_37
   11  A    between atoms: C_20  and  C_35
   12  A    between atoms: C_21  and  C_35
   13  A    between atoms: C_22  and  C_28
   14  A    between atoms: C_25  and  C_37
                            x       y       z     vdW  Elec       q    Type
                         _______ _______ _______ _____ _____    ______ ____

>  <TORSDO>
F 14

$$$$
=
 OpenBabel11072410143D

 37 40  0  0  1  0  0  0  0  0999 V2000
  162.2330  210.7030  155.1010 C   0  0  0  0  0  2  0  0  0  0  0  0
  158.2710  212.3730  154.5830 C   0  0  1  0  0  3  0  0  0  0  0  0
  158.6490  211.6230  152.3470 O   0  0  0  0  0  0  0  0  0  0  0  0
  160.2020  210.8230  153.9050 N   0  0  0  0  0  0  0  0  0  0  0  0
  158.8450  212.2610  156.0080 C   0  0  2  0  0  3  0  0  0  0  0  0
  161.1860  210.4030  152.9190 C   0  0  1  0  0  3  0  0  0  0  0  0
  158.5250  213.4040  156.7380 O   0  0  0  0  0  1  0  0  0  0  0  0
  160.7250  210.7880  155.2640 C   0  0  2  0  0  0  0  0  0  0  0  0
  162.4800  210.1910  153.6890 C   0  0  0  0  0  2  0  0  0  0  0  0
  159.0230  211.5690  153.5500 C   0  0  0  0  0  0  0  0  0  0  0  0
  160.3580  212.0680  156.0120 C   0  0  0  0  0  2  0  0  0  0  0  0
  159.3550  208.8280  155.4770 O   0  0  0  0  0  0  0  0  0  0  0  0
  160.2290  209.5690  156.0000 C   0  0  0  0  0  0  0  0  0  0  0  0
  160.7350  209.2420  157.2520 O   0  0  0  0  0  1  0  0  0  0  0  0
  156.7690  212.0650  154.5350 C   0  0  1  0  0  3  0  0  0  0  0  0
  156.3410  211.1060  155.6400 C   0  0  0  0  0  1  0  0  0  0  0  0
  156.0240  213.2450  154.6130 O   0  0  0  0  0  0  0  0  0  0  0  0
  155.0750  213.1370  153.5960 C   0  0  0  0  0  2  0  0  0  0  0  0
  154.9770  214.4530  152.8550 C   0  0  0  0  0  2  0  0  0  0  0  0
  156.1780  214.0360  149.7120 C   0  0  0  0  0  2  0  0  0  0  0  0
  154.9050  214.1060  150.2800 N   0  0  0  0  0  0  0  0  0  0  0  0
  155.4950  214.2860  151.4700 C   0  0  0  0  0  0  0  0  0  0  0  0
  156.8530  214.1950  150.9020 N   0  0  0  0  0  2  0  0  0  0  0  0
  160.7760  209.0760  152.2910 C   0  0  0  0  0  2  0  0  0  0  0  0
  161.6960  208.6920  151.1440 C   0  0  0  0  0  2  0  0  0  0  0  0
  161.0030  207.7550  150.1650 C   0  0  0  0  0  2  0  0  0  0  0  0
  162.0070  206.9670  149.3380 C   0  0  1  0  0  3  0  0  0  0  0  0
  162.2350  205.6230  150.0110 C   0  0  0  0  0  2  0  0  0  0  0  0
  161.1010  202.4790  151.1330 C   0  0  0  0  0  2  0  0  0  0  0  0
  161.2020  205.5870  152.8930 O   0  0  0  0  0  0  0  0  0  0  0  0
  160.5220  203.4910  149.7230 S   0  0  0  0  0  0  0  0  0  0  0  0
  161.1740  203.3330  152.3010 N   0  0  0  0  0  2  0  0  0  0  0  0
  161.1130  204.7120  151.9930 C   0  0  0  0  0  0  0  0  0  0  0  0
  160.9340  205.0600  150.5660 C   0  0  1  0  0  3  0  0  0  0  0  0
  161.4790  206.7440  147.9290 C   0  0  0  0  0  2  0  0  0  0  0  0
  162.3840  205.9770  147.1950 O   0  0  0  0  0  0  0  0  0  0  0  0
  161.5950  205.0160  146.5630 C   0  0  0  0  0  1  0  0  0  0  0  0
  1  8  1  0  0  0  0
  2 15  1  1  0  0  0
  2  5  1  0  0  0  0
  3 10  2  0  0  0  0
  4  8  1  0  0  0  0
  5 11  1  0  0  0  0
  5  7  1  1  0  0  0
  6 24  1  1  0  0  0
  6  9  1  0  0  0  0
  6  4  1  0  0  0  0
  8 13  1  1  0  0  0
  8 11  1  0  0  0  0
  9  1  1  0  0  0  0
 10  4  1  0  0  0  0
 10  2  1  0  0  0  0
 12 13  2  0  0  0  0
 13 14  1  0  0  0  0
 15 17  1  0  0  0  0
 15 16  1  1  0  0  0
 18 17  1  0  0  0  0
 19 18  1  0  0  0  0
 20 21  1  0  0  0  0
 20 23  1  0  0  0  0
 21 22  2  0  0  0  0
 22 19  1  0  0  0  0
 23 22  1  0  0  0  0
 25 24  1  0  0  0  0
 26 25  1  0  0  0  0
 27 35  1  6  0  0  0
 27 28  1  0  0  0  0
 27 26  1  0  0  0  0
 29 32  1  0  0  0  0
 31 34  1  0  0  0  0
 31 29  1  0  0  0  0
 33 32  1  0  0  0  0
 33 30  2  0  0  0  0
 34 28  1  6  0  0  0
 34 33  1  0  0  0  0
 36 35  1  0  0  0  0
 37 36  1  0  0  0  0
M  END
>  <MODEL>
2

>  <REMARK>
 VINA RESULT:      -5.2      1.456      2.451
  Name = 
  14 active torsions:
  status: ('A' for Active; 'I' for Inactive)
    1  A    between atoms: O_2  and  C_20
    2  A    between atoms: C_10  and  C_11
    3  A    between atoms: C_10  and  O_13
    4  A    between atoms: O_13  and  C_28
    5  A    between atoms: C_14  and  C_22
    6  A    between atoms: C_16  and  C_35
    7  A    between atoms: C_16  and  C_36
    8  A    between atoms: C_17  and  C_30
    9  A    between atoms: C_18  and  C_21
   10  A    between atoms: C_18  and  C_37
   11  A    between atoms: C_20  and  C_35
   12  A    between atoms: C_21  and  C_35
   13  A    between atoms: C_22  and  C_28
   14  A    between atoms: C_25  and  C_37
                            x       y       z     vdW  Elec       q    Type
                         _______ _______ _______ _____ _____    ______ ____

>  <TORSDO>
F 14

$$$$
=
 OpenBabel11072410143D

 37 40  0  0  1  0  0  0  0  0999 V2000
  159.4240  209.9410  156.4930 C   0  0  0  0  0  2  0  0  0  0  0  0
  160.9130  208.0570  152.8900 C   0  0  1  0  0  3  0  0  0  0  0  0
  159.9170  209.9930  151.9070 O   0  0  0  0  0  0  0  0  0  0  0  0
  160.1060  210.0870  154.2390 N   0  0  0  0  0  0  0  0  0  0  0  0
  161.3200  207.4690  154.2540 C   0  0  2  0  0  3  0  0  0  0  0  0
  159.1670  211.1850  154.4120 C   0  0  1  0  0  3  0  0  0  0  0  0
  161.2940  206.0760  154.1940 O   0  0  0  0  0  1  0  0  0  0  0  0
  160.4710  209.4620  155.5030 C   0  0  2  0  0  0  0  0  0  0  0  0
  158.8100  211.1960  155.8890 C   0  0  0  0  0  2  0  0  0  0  0  0
  160.3130  209.4400  152.9690 C   0  0  0  0  0  0  0  0  0  0  0  0
  160.4130  207.9410  155.3850 C   0  0  0  0  0  2  0  0  0  0  0  0
  162.5080  210.7060  155.2350 O   0  0  0  0  0  0  0  0  0  0  0  0
  161.8360  209.9190  155.9540 C   0  0  0  0  0  0  0  0  0  0  0  0
  162.3620  209.4890  157.1660 O   0  0  0  0  0  1  0  0  0  0  0  0
  162.0610  208.0120  151.8720 C   0  0  1  0  0  3  0  0  0  0  0  0
  162.5920  206.5990  151.6620 C   0  0  0  0  0  1  0  0  0  0  0  0
  161.6530  208.5540  150.6500 O   0  0  0  0  0  0  0  0  0  0  0  0
  162.1660  207.6860  149.6850 C   0  0  0  0  0  2  0  0  0  0  0  0
  161.3150  207.7610  148.4350 C   0  0  0  0  0  2  0  0  0  0  0  0
  161.5720  204.8410  146.7300 C   0  0  0  0  0  2  0  0  0  0  0  0
  161.1770  205.1980  148.0200 N   0  0  0  0  0  0  0  0  0  0  0  0
  161.4100  206.4760  147.6900 C   0  0  0  0  0  0  0  0  0  0  0  0
  161.8530  206.1280  146.3270 N   0  0  0  0  0  2  0  0  0  0  0  0
  159.8330  212.5120  154.0670 C   0  0  0  0  0  2  0  0  0  0  0  0
  159.0300  213.2900  153.0360 C   0  0  0  0  0  2  0  0  0  0  0  0
  159.8500  213.5650  151.7840 C   0  0  0  0  0  2  0  0  0  0  0  0
  159.0020  214.1850  150.6850 C   0  0  1  0  0  3  0  0  0  0  0  0
  159.1830  213.3670  149.4170 C   0  0  0  0  0  2  0  0  0  0  0  0
  161.7060  212.8180  147.0170 C   0  0  0  0  0  2  0  0  0  0  0  0
  158.3180  213.8360  146.5170 O   0  0  0  0  0  0  0  0  0  0  0  0
  161.6720  213.9860  148.4250 S   0  0  0  0  0  0  0  0  0  0  0  0
  160.4640  212.9550  146.2860 N   0  0  0  0  0  2  0  0  0  0  0  0
  159.4680  213.6630  146.9990 C   0  0  0  0  0  0  0  0  0  0  0  0
  159.8570  214.1880  148.3260 C   0  0  1  0  0  3  0  0  0  0  0  0
  157.5330  214.1840  151.0820 C   0  0  0  0  0  2  0  0  0  0  0  0
  156.7570  213.6730  150.0410 O   0  0  0  0  0  0  0  0  0  0  0  0
  155.5230  214.3060  150.1830 C   0  0  0  0  0  1  0  0  0  0  0  0
  2 15  1  6  0  0  0
  2 10  1  0  0  0  0
  2  5  1  0  0  0  0
  3 10  2  0  0  0  0
  4  6  1  0  0  0  0
  4  8  1  0  0  0  0
  5  7  1  6  0  0  0
  5 11  1  0  0  0  0
  6 24  1  1  0  0  0
  6  9  1  0  0  0  0
  8 13  1  1  0  0  0
  8  1  1  0  0  0  0
  9  1  1  0  0  0  0
 10  4  1  0  0  0  0
 11  8  1  0  0  0  0
 12 13  2  0  0  0  0
 13 14  1  0  0  0  0
 15 16  1  6  0  0  0
 17 15  1  0  0  0  0
 18 17  1  0  0  0  0
 19 18  1  0  0  0  0
 20 21  1  0  0  0  0
 22 21  2  0  0  0  0
 22 19  1  0  0  0  0
 23 20  1  0  0  0  0
 23 22  1  0  0  0  0
 25 24  1  0  0  0  0
 26 25  1  0  0  0  0
 27 28  1  6  0  0  0
 27 35  1  0  0  0  0
 27 26  1  0  0  0  0
 29 31  1  0  0  0  0
 30 33  2  0  0  0  0
 32 33  1  0  0  0  0
 32 29  1  0  0  0  0
 33 34  1  0  0  0  0
 34 31  1  0  0  0  0
 34 28  1  1  0  0  0
 36 37  1  0  0  0  0
 36 35  1  0  0  0  0
M  END
>  <MODEL>
3

>  <REMARK>
 VINA RESULT:      -5.0      3.027      7.680
  Name = 
  14 active torsions:
  status: ('A' for Active; 'I' for Inactive)
    1  A    between atoms: O_2  and  C_20
    2  A    between atoms: C_10  and  C_11
    3  A    between atoms: C_10  and  O_13
    4  A    between atoms: O_13  and  C_28
    5  A    between atoms: C_14  and  C_22
    6  A    between atoms: C_16  and  C_35
    7  A    between atoms: C_16  and  C_36
    8  A    between atoms: C_17  and  C_30
    9  A    between atoms: C_18  and  C_21
   10  A    between atoms: C_18  and  C_37
   11  A    between atoms: C_20  and  C_35
   12  A    between atoms: C_21  and  C_35
   13  A    between atoms: C_22  and  C_28
   14  A    between atoms: C_25  and  C_37
                            x       y       z     vdW  Elec       q    Type
                         _______ _______ _______ _____ _____    ______ ____

>  <TORSDO>
F 14

$$$$
=
 OpenBabel11072410143D

 37 40  0  0  1  0  0  0  0  0999 V2000
  160.5800  206.2880  152.6400 C   0  0  0  0  0  2  0  0  0  0  0  0
  161.1070  206.1470  148.3440 C   0  0  1  0  0  3  0  0  0  0  0  0
  161.2020  208.5140  148.6480 O   0  0  0  0  0  0  0  0  0  0  0  0
  161.3280  207.2840  150.6350 N   0  0  0  0  0  0  0  0  0  0  0  0
  161.1300  204.8250  149.1360 C   0  0  2  0  0  3  0  0  0  0  0  0
  161.0290  208.4040  151.5140 C   0  0  1  0  0  3  0  0  0  0  0  0
  160.4390  203.8400  148.4320 O   0  0  0  0  0  1  0  0  0  0  0  0
  161.3020  206.0050  151.3350 C   0  0  2  0  0  0  0  0  0  0  0  0
  160.6680  207.7930  152.8570 C   0  0  0  0  0  2  0  0  0  0  0  0
  161.2440  207.3820  149.2010 C   0  0  0  0  0  0  0  0  0  0  0  0
  160.5230  204.9690  150.5270 C   0  0  0  0  0  2  0  0  0  0  0  0
  163.6780  206.3090  151.5020 O   0  0  0  0  0  0  0  0  0  0  0  0
  162.7010  205.5240  151.6270 C   0  0  0  0  0  0  0  0  0  0  0  0
  162.9270  204.2180  152.0460 O   0  0  0  0  0  1  0  0  0  0  0  0
  162.1270  206.1550  147.1970 C   0  0  1  0  0  3  0  0  0  0  0  0
  163.0320  204.9300  147.2210 C   0  0  0  0  0  1  0  0  0  0  0  0
  161.4760  206.2440  145.9640 O   0  0  0  0  0  0  0  0  0  0  0  0
  161.9210  205.1330  145.2450 C   0  0  0  0  0  2  0  0  0  0  0  0
  160.7530  204.5030  144.5170 C   0  0  0  0  0  2  0  0  0  0  0  0
  160.3270  201.3040  145.5590 C   0  0  0  0  0  2  0  0  0  0  0  0
  161.2580  202.3110  145.8200 N   0  0  0  0  0  0  0  0  0  0  0  0
  160.5650  203.1050  144.9920 C   0  0  0  0  0  0  0  0  0  0  0  0
  159.5770  202.0550  144.6810 N   0  0  0  0  0  2  0  0  0  0  0  0
  162.2640  209.2790  151.6970 C   0  0  0  0  0  2  0  0  0  0  0  0
  162.1490  210.1550  152.9340 C   0  0  0  0  0  2  0  0  0  0  0  0
  160.9940  211.1390  152.8150 C   0  0  0  0  0  2  0  0  0  0  0  0
  160.3670  211.4320  154.1690 C   0  0  1  0  0  3  0  0  0  0  0  0
  158.8770  211.1410  154.0830 C   0  0  0  0  0  2  0  0  0  0  0  0
  156.9020  214.0510  153.8500 C   0  0  0  0  0  2  0  0  0  0  0  0
  156.0060  210.8250  155.0980 O   0  0  0  0  0  0  0  0  0  0  0  0
  158.4700  213.7770  154.7510 S   0  0  0  0  0  0  0  0  0  0  0  0
  156.0000  212.9650  154.1720 N   0  0  0  0  0  2  0  0  0  0  0  0
  156.6430  211.8660  154.7890 C   0  0  0  0  0  0  0  0  0  0  0  0
  158.0910  212.0140  155.0520 C   0  0  1  0  0  3  0  0  0  0  0  0
  160.9920  210.5570  155.2460 C   0  0  0  0  0  2  0  0  0  0  0  0
  161.5640  211.3540  156.2360 O   0  0  0  0  0  0  0  0  0  0  0  0
  162.7730  210.7270  156.5350 C   0  0  0  0  0  1  0  0  0  0  0  0
  1  9  1  0  0  0  0
  2 15  1  6  0  0  0
  2  5  1  0  0  0  0
  2 10  1  0  0  0  0
  3 10  2  0  0  0  0
  4  8  1  0  0  0  0
  4  6  1  0  0  0  0
  5  7  1  6  0  0  0
  5 11  1  0  0  0  0
  6 24  1  1  0  0  0
  6  9  1  0  0  0  0
  8 13  1  1  0  0  0
  8  1  1  0  0  0  0
 10  4  1  0  0  0  0
 11  8  1  0  0  0  0
 12 13  2  0  0  0  0
 13 14  1  0  0  0  0
 15 16  1  6  0  0  0
 17 15  1  0  0  0  0
 18 17  1  0  0  0  0
 19 22  1  0  0  0  0
 19 18  1  0  0  0  0
 20 21  1  0  0  0  0
 22 21  2  0  0  0  0
 23 22  1  0  0  0  0
 23 20  1  0  0  0  0
 24 25  1  0  0  0  0
 26 25  1  0  0  0  0
 27 26  1  6  0  0  0
 27 35  1  0  0  0  0
 28 27  1  0  0  0  0
 29 32  1  0  0  0  0
 29 31  1  0  0  0  0
 31 34  1  0  0  0  0
 32 33  1  0  0  0  0
 33 34  1  0  0  0  0
 33 30  2  0  0  0  0
 34 28  1  6  0  0  0
 35 36  1  0  0  0  0
 36 37  1  0  0  0  0
M  END
>  <MODEL>
4

>  <REMARK>
 VINA RESULT:      -4.9      2.871      9.718
  Name = 
  14 active torsions:
  status: ('A' for Active; 'I' for Inactive)
    1  A    between atoms: O_2  and  C_20
    2  A    between atoms: C_10  and  C_11
    3  A    between atoms: C_10  and  O_13
    4  A    between atoms: O_13  and  C_28
    5  A    between atoms: C_14  and  C_22
    6  A    between atoms: C_16  and  C_35
    7  A    between atoms: C_16  and  C_36
    8  A    between atoms: C_17  and  C_30
    9  A    between atoms: C_18  and  C_21
   10  A    between atoms: C_18  and  C_37
   11  A    between atoms: C_20  and  C_35
   12  A    between atoms: C_21  and  C_35
   13  A    between atoms: C_22  and  C_28
   14  A    between atoms: C_25  and  C_37
                            x       y       z     vdW  Elec       q    Type
                         _______ _______ _______ _____ _____    ______ ____

>  <TORSDO>
F 14

$$$$
=
 OpenBabel11072410143D

 37 40  0  0  1  0  0  0  0  0999 V2000
  160.8210  207.5740  152.6300 C   0  0  0  0  0  2  0  0  0  0  0  0
  160.5460  204.1340  150.0140 C   0  0  1  0  0  3  0  0  0  0  0  0
  160.5930  205.8530  148.3570 O   0  0  0  0  0  0  0  0  0  0  0  0
  161.1400  206.5810  150.5130 N   0  0  0  0  0  0  0  0  0  0  0  0
  160.7740  203.9010  151.5200 C   0  0  2  0  0  3  0  0  0  0  0  0
  160.9610  207.9980  150.2330 C   0  0  1  0  0  3  0  0  0  0  0  0
  160.0070  202.8200  151.9520 O   0  0  0  0  0  1  0  0  0  0  0  0
  161.3000  206.3110  151.9360 C   0  0  2  0  0  0  0  0  0  0  0  0
  160.8830  208.6810  151.5880 C   0  0  0  0  0  2  0  0  0  0  0  0
  160.7860  205.5550  149.5660 C   0  0  0  0  0  0  0  0  0  0  0  0
  160.4300  205.1280  152.3570 C   0  0  0  0  0  2  0  0  0  0  0  0
  163.0830  205.8130  153.4650 O   0  0  0  0  0  1  0  0  0  0  0  0
  162.7490  206.0660  152.2770 C   0  0  0  0  0  0  0  0  0  0  0  0
  163.7250  206.1060  151.2890 O   0  0  0  0  0  0  0  0  0  0  0  0
  161.3340  203.1430  149.1470 C   0  0  1  0  0  3  0  0  0  0  0  0
  160.9420  201.6960  149.4240 C   0  0  0  0  0  1  0  0  0  0  0  0
  161.1600  203.4320  147.7910 O   0  0  0  0  0  0  0  0  0  0  0  0
  160.8950  202.1990  147.1930 C   0  0  0  0  0  2  0  0  0  0  0  0
  160.9650  202.3430  145.6880 C   0  0  0  0  0  2  0  0  0  0  0  0
  161.8770  205.5030  144.8620 C   0  0  0  0  0  2  0  0  0  0  0  0
  160.6850  204.7770  144.8200 N   0  0  0  0  0  0  0  0  0  0  0  0
  161.3530  203.7360  145.3380 C   0  0  0  0  0  0  0  0  0  0  0  0
  162.6310  204.4710  145.3750 N   0  0  0  0  0  2  0  0  0  0  0  0
  162.1690  208.5480  149.4840 C   0  0  0  0  0  2  0  0  0  0  0  0
  161.7910  209.7260  148.6000 C   0  0  0  0  0  2  0  0  0  0  0  0
  162.1740  211.0500  149.2460 C   0  0  0  0  0  2  0  0  0  0  0  0
  161.9580  212.2180  148.2960 C   0  0  1  0  0  3  0  0  0  0  0  0
  161.0110  211.7740  147.1940 C   0  0  0  0  0  2  0  0  0  0  0  0
  159.5780  212.4590  144.0460 C   0  0  0  0  0  2  0  0  0  0  0  0
  158.0840  212.6700  147.2850 O   0  0  0  0  0  0  0  0  0  0  0  0
  161.0330  213.2180  144.8540 S   0  0  0  0  0  0  0  0  0  0  0  0
  158.4890  212.4430  145.0010 N   0  0  0  0  0  2  0  0  0  0  0  0
  158.9050  212.6880  146.3310 C   0  0  0  0  0  0  0  0  0  0  0  0
  160.3430  212.9700  146.5280 C   0  0  1  0  0  3  0  0  0  0  0  0
  161.3520  213.4020  149.0370 C   0  0  0  0  0  2  0  0  0  0  0  0
  160.5330  212.9490  150.0710 O   0  0  0  0  0  0  0  0  0  0  0  0
  159.5790  213.9540  150.2260 C   0  0  0  0  0  1  0  0  0  0  0  0
  2 15  1  6  0  0  0
  2  5  1  0  0  0  0
  3 10  2  0  0  0  0
  4  8  1  0  0  0  0
  5  7  1  1  0  0  0
  5 11  1  0  0  0  0
  6 24  1  6  0  0  0
  6  4  1  0  0  0  0
  6  9  1  0  0  0  0
  8 13  1  1  0  0  0
  8 11  1  0  0  0  0
  8  1  1  0  0  0  0
  9  1  1  0  0  0  0
 10  2  1  0  0  0  0
 10  4  1  0  0  0  0
 13 12  1  0  0  0  0
 14 13  2  0  0  0  0
 15 16  1  6  0  0  0
 17 15  1  0  0  0  0
 18 17  1  0  0  0  0
 19 18  1  0  0  0  0
 20 23  1  0  0  0  0
 21 20  1  0  0  0  0
 21 22  2  0  0  0  0
 22 23  1  0  0  0  0
 22 19  1  0  0  0  0
 25 26  1  0  0  0  0
 25 24  1  0  0  0  0
 27 28  1  6  0  0  0
 27 35  1  0  0  0  0
 27 26  1  0  0  0  0
 29 31  1  0  0  0  0
 29 32  1  0  0  0  0
 31 34  1  0  0  0  0
 32 33  1  0  0  0  0
 33 34  1  0  0  0  0
 33 30  2  0  0  0  0
 34 28  1  6  0  0  0
 35 36  1  0  0  0  0
 36 37  1  0  0  0  0
M  END
>  <MODEL>
5

>  <REMARK>
 VINA RESULT:      -4.9      4.293      9.145
  Name = 
  14 active torsions:
  status: ('A' for Active; 'I' for Inactive)
    1  A    between atoms: O_2  and  C_20
    2  A    between atoms: C_10  and  C_11
    3  A    between atoms: C_10  and  O_13
    4  A    between atoms: O_13  and  C_28
    5  A    between atoms: C_14  and  C_22
    6  A    between atoms: C_16  and  C_35
    7  A    between atoms: C_16  and  C_36
    8  A    between atoms: C_17  and  C_30
    9  A    between atoms: C_18  and  C_21
   10  A    between atoms: C_18  and  C_37
   11  A    between atoms: C_20  and  C_35
   12  A    between atoms: C_21  and  C_35
   13  A    between atoms: C_22  and  C_28
   14  A    between atoms: C_25  and  C_37
                            x       y       z     vdW  Elec       q    Type
                         _______ _______ _______ _____ _____    ______ ____

>  <TORSDO>
F 14

$$$$
=
 OpenBabel11072410143D

 37 40  0  0  1  0  0  0  0  0999 V2000
  160.5310  206.0630  152.6510 C   0  0  0  0  0  2  0  0  0  0  0  0
  161.1150  205.9890  148.3600 C   0  0  1  0  0  3  0  0  0  0  0  0
  161.2030  208.3520  148.7030 O   0  0  0  0  0  0  0  0  0  0  0  0
  161.3040  207.0900  150.6720 N   0  0  0  0  0  0  0  0  0  0  0  0
  161.1290  204.6560  149.1320 C   0  0  2  0  0  3  0  0  0  0  0  0
  160.9920  208.1970  151.5640 C   0  0  1  0  0  3  0  0  0  0  0  0
  160.4490  203.6810  148.4030 O   0  0  0  0  0  1  0  0  0  0  0  0
  161.2710  205.8010  151.3510 C   0  0  2  0  0  0  0  0  0  0  0  0
  160.6140  207.5640  152.8930 C   0  0  0  0  0  2  0  0  0  0  0  0
  161.2380  207.2110  149.2380 C   0  0  0  0  0  0  0  0  0  0  0  0
  160.5030  204.7780  150.5170 C   0  0  0  0  0  2  0  0  0  0  0  0
  163.6380  206.1160  151.5980 O   0  0  0  0  0  0  0  0  0  0  0  0
  162.6660  205.3170  151.6540 C   0  0  0  0  0  0  0  0  0  0  0  0
  162.8940  203.9930  152.0090 O   0  0  0  0  0  1  0  0  0  0  0  0
  162.1500  206.0170  147.2280 C   0  0  1  0  0  3  0  0  0  0  0  0
  163.0020  204.7550  147.1930 C   0  0  0  0  0  1  0  0  0  0  0  0
  161.5200  206.2010  145.9940 O   0  0  0  0  0  0  0  0  0  0  0  0
  161.8660  205.0760  145.2440 C   0  0  0  0  0  2  0  0  0  0  0  0
  160.6450  204.5630  144.5110 C   0  0  0  0  0  2  0  0  0  0  0  0
  160.0840  201.3190  145.3200 C   0  0  0  0  0  2  0  0  0  0  0  0
  161.0670  202.2580  145.6350 N   0  0  0  0  0  0  0  0  0  0  0  0
  160.3980  203.1440  144.8840 C   0  0  0  0  0  0  0  0  0  0  0  0
  159.3560  202.1680  144.5160 N   0  0  0  0  0  2  0  0  0  0  0  0
  162.2230  209.0700  151.7780 C   0  0  0  0  0  2  0  0  0  0  0  0
  161.8420  210.4820  152.1910 C   0  0  0  0  0  2  0  0  0  0  0  0
  161.6980  210.6000  153.7020 C   0  0  0  0  0  2  0  0  0  0  0  0
  160.4640  211.4030  154.0850 C   0  0  1  0  0  3  0  0  0  0  0  0
  159.6440  211.6530  152.8310 C   0  0  0  0  0  2  0  0  0  0  0  0
  157.8620  213.6360  150.5240 C   0  0  0  0  0  2  0  0  0  0  0  0
  157.4920  213.4430  154.0730 O   0  0  0  0  0  0  0  0  0  0  0  0
  159.6560  213.5890  150.8790 S   0  0  0  0  0  0  0  0  0  0  0  0
  157.1550  213.7330  151.7850 N   0  0  0  0  0  2  0  0  0  0  0  0
  157.9660  213.4400  152.9070 C   0  0  0  0  0  0  0  0  0  0  0  0
  159.3880  213.1400  152.6300 C   0  0  1  0  0  3  0  0  0  0  0  0
  159.6230  210.6360  155.0950 C   0  0  0  0  0  2  0  0  0  0  0  0
  160.1410  210.8110  156.3780 O   0  0  0  0  0  0  0  0  0  0  0  0
  160.0630  209.5460  156.9610 C   0  0  0  0  0  1  0  0  0  0  0  0
  1  9  1  0  0  0  0
  2 15  1  6  0  0  0
  2  5  1  0  0  0  0
  2 10  1  0  0  0  0
  3 10  2  0  0  0  0
  4  8  1  0  0  0  0
  4  6  1  0  0  0  0
  5  7  1  6  0  0  0
  5 11  1  0  0  0  0
  6 24  1  1  0  0  0
  6  9  1  0  0  0  0
  8 13  1  1  0  0  0
  8  1  1  0  0  0  0
 10  4  1  0  0  0  0
 11  8  1  0  0  0  0
 12 13  2  0  0  0  0
 13 14  1  0  0  0  0
 15 16  1  6  0  0  0
 17 15  1  0  0  0  0
 18 17  1  0  0  0  0
 19 22  1  0  0  0  0
 19 18  1  0  0  0  0
 20 21  1  0  0  0  0
 22 21  2  0  0  0  0
 23 22  1  0  0  0  0
 23 20  1  0  0  0  0
 24 25  1  0  0  0  0
 25 26  1  0  0  0  0
 26 27  1  0  0  0  0
 27 28  1  6  0  0  0
 27 35  1  0  0  0  0
 29 31  1  0  0  0  0
 29 32  1  0  0  0  0
 31 34  1  0  0  0  0
 32 33  1  0  0  0  0
 33 30  2  0  0  0  0
 34 28  1  6  0  0  0
 34 33  1  0  0  0  0
 35 36  1  0  0  0  0
 36 37  1  0  0  0  0
M  END
>  <MODEL>
6

>  <REMARK>
 VINA RESULT:      -4.7      2.572      9.519
  Name = 
  14 active torsions:
  status: ('A' for Active; 'I' for Inactive)
    1  A    between atoms: O_2  and  C_20
    2  A    between atoms: C_10  and  C_11
    3  A    between atoms: C_10  and  O_13
    4  A    between atoms: O_13  and  C_28
    5  A    between atoms: C_14  and  C_22
    6  A    between atoms: C_16  and  C_35
    7  A    between atoms: C_16  and  C_36
    8  A    between atoms: C_17  and  C_30
    9  A    between atoms: C_18  and  C_21
   10  A    between atoms: C_18  and  C_37
   11  A    between atoms: C_20  and  C_35
   12  A    between atoms: C_21  and  C_35
   13  A    between atoms: C_22  and  C_28
   14  A    between atoms: C_25  and  C_37
                            x       y       z     vdW  Elec       q    Type
                         _______ _______ _______ _____ _____    ______ ____

>  <TORSDO>
F 14

$$$$
=
 OpenBabel11072410143D

 37 40  0  0  1  0  0  0  0  0999 V2000
  160.7060  209.6010  156.7530 C   0  0  0  0  0  2  0  0  0  0  0  0
  160.1490  212.2370  153.3640 C   0  0  1  0  0  3  0  0  0  0  0  0
  161.1850  210.4040  152.2370 O   0  0  0  0  0  0  0  0  0  0  0  0
  160.5040  209.9270  154.4250 N   0  0  0  0  0  0  0  0  0  0  0  0
  159.5090  212.6210  154.7110 C   0  0  2  0  0  3  0  0  0  0  0  0
  161.3020  208.7180  154.5600 C   0  0  1  0  0  3  0  0  0  0  0  0
  159.6490  213.9910  154.9280 O   0  0  0  0  0  1  0  0  0  0  0  0
  159.9280  210.3580  155.6920 C   0  0  2  0  0  0  0  0  0  0  0  0
  161.3390  208.4100  156.0480 C   0  0  0  0  0  2  0  0  0  0  0  0
  160.6170  210.8050  153.2880 C   0  0  0  0  0  0  0  0  0  0  0  0
  160.1210  211.8610  155.8830 C   0  0  0  0  0  2  0  0  0  0  0  0
  157.6070  210.8600  156.0520 O   0  0  0  0  0  1  0  0  0  0  0  0
  158.4690  209.9840  155.7730 C   0  0  0  0  0  0  0  0  0  0  0  0
  158.0580  208.6790  155.5310 O   0  0  0  0  0  0  0  0  0  0  0  0
  159.2480  212.5870  152.1720 C   0  0  1  0  0  3  0  0  0  0  0  0
  157.7960  212.1900  152.4100 C   0  0  0  0  0  1  0  0  0  0  0  0
  159.3280  213.9510  151.8800 O   0  0  0  0  0  0  0  0  0  0  0  0
  160.2910  214.0460  150.8740 C   0  0  0  0  0  2  0  0  0  0  0  0
  160.0550  212.9600  149.8460 C   0  0  0  0  0  2  0  0  0  0  0  0
  162.7080  212.7370  147.7460 C   0  0  0  0  0  2  0  0  0  0  0  0
  162.0610  213.7800  148.4110 N   0  0  0  0  0  0  0  0  0  0  0  0
  161.2300  212.8700  148.9380 C   0  0  0  0  0  0  0  0  0  0  0  0
  161.8800  211.7490  148.2330 N   0  0  0  0  0  2  0  0  0  0  0  0
  160.6290  207.5540  153.8430 C   0  0  0  0  0  2  0  0  0  0  0  0
  161.6240  206.7500  153.0220 C   0  0  0  0  0  2  0  0  0  0  0  0
  161.3660  205.2550  153.1430 C   0  0  0  0  0  2  0  0  0  0  0  0
  160.8250  204.6740  151.8460 C   0  0  1  0  0  3  0  0  0  0  0  0
  161.7320  205.1110  150.7070 C   0  0  0  0  0  2  0  0  0  0  0  0
  162.3420  207.3750  148.0750 C   0  0  0  0  0  2  0  0  0  0  0  0
  161.2200  203.9860  147.9060 O   0  0  0  0  0  0  0  0  0  0  0  0
  161.1820  207.5110  149.4820 S   0  0  0  0  0  0  0  0  0  0  0  0
  162.1630  206.0720  147.4660 N   0  0  0  0  0  2  0  0  0  0  0  0
  161.4300  205.1720  148.2740 C   0  0  0  0  0  0  0  0  0  0  0  0
  160.9260  205.7020  149.5590 C   0  0  1  0  0  3  0  0  0  0  0  0
  160.7960  203.1540  151.9150 C   0  0  0  0  0  2  0  0  0  0  0  0
  161.5870  202.6150  150.9000 O   0  0  0  0  0  0  0  0  0  0  0  0
  160.8010  201.6060  150.3440 C   0  0  0  0  0  1  0  0  0  0  0  0
  2 15  1  6  0  0  0
  2  5  1  0  0  0  0
  3 10  2  0  0  0  0
  4  6  1  0  0  0  0
  4  8  1  0  0  0  0
  5  7  1  1  0  0  0
  5 11  1  0  0  0  0
  6 24  1  6  0  0  0
  6  9  1  0  0  0  0
  8 13  1  1  0  0  0
  8 11  1  0  0  0  0
  8  1  1  0  0  0  0
  9  1  1  0  0  0  0
 10  2  1  0  0  0  0
 10  4  1  0  0  0  0
 13 12  1  0  0  0  0
 14 13  2  0  0  0  0
 15 16  1  1  0  0  0
 17 15  1  0  0  0  0
 18 17  1  0  0  0  0
 19 18  1  0  0  0  0
 20 23  1  0  0  0  0
 20 21  1  0  0  0  0
 21 22  2  0  0  0  0
 22 19  1  0  0  0  0
 23 22  1  0  0  0  0
 25 26  1  0  0  0  0
 25 24  1  0  0  0  0
 27 28  1  6  0  0  0
 27 35  1  0  0  0  0
 27 26  1  0  0  0  0
 29 31  1  0  0  0  0
 30 33  2  0  0  0  0
 31 34  1  0  0  0  0
 32 29  1  0  0  0  0
 32 33  1  0  0  0  0
 33 34  1  0  0  0  0
 34 28  1  1  0  0  0
 36 35  1  0  0  0  0
 37 36  1  0  0  0  0
M  END
>  <MODEL>
7

>  <REMARK>
 VINA RESULT:      -4.6      2.588      3.417
  Name = 
  14 active torsions:
  status: ('A' for Active; 'I' for Inactive)
    1  A    between atoms: O_2  and  C_20
    2  A    between atoms: C_10  and  C_11
    3  A    between atoms: C_10  and  O_13
    4  A    between atoms: O_13  and  C_28
    5  A    between atoms: C_14  and  C_22
    6  A    between atoms: C_16  and  C_35
    7  A    between atoms: C_16  and  C_36
    8  A    between atoms: C_17  and  C_30
    9  A    between atoms: C_18  and  C_21
   10  A    between atoms: C_18  and  C_37
   11  A    between atoms: C_20  and  C_35
   12  A    between atoms: C_21  and  C_35
   13  A    between atoms: C_22  and  C_28
   14  A    between atoms: C_25  and  C_37
                            x       y       z     vdW  Elec       q    Type
                         _______ _______ _______ _____ _____    ______ ____

>  <TORSDO>
F 14

$$$$
=
 OpenBabel11072410143D

 37 40  0  0  1  0  0  0  0  0999 V2000
  161.0700  209.5380  156.4350 C   0  0  0  0  0  2  0  0  0  0  0  0
  160.0650  212.4170  153.3610 C   0  0  1  0  0  3  0  0  0  0  0  0
  161.0640  210.7410  151.9820 O   0  0  0  0  0  0  0  0  0  0  0  0
  160.6250  210.0470  154.1740 N   0  0  0  0  0  0  0  0  0  0  0  0
  159.5450  212.6510  154.7920 C   0  0  2  0  0  3  0  0  0  0  0  0
  161.4840  208.8750  154.1250 C   0  0  1  0  0  3  0  0  0  0  0  0
  159.6450  214.0040  155.1140 O   0  0  0  0  0  1  0  0  0  0  0  0
  160.1580  210.3400  155.5230 C   0  0  2  0  0  0  0  0  0  0  0  0
  161.6820  208.4450  155.5700 C   0  0  0  0  0  2  0  0  0  0  0  0
  160.5850  211.0220  153.1140 C   0  0  0  0  0  0  0  0  0  0  0  0
  160.3020  211.8290  155.8280 C   0  0  0  0  0  2  0  0  0  0  0  0
  158.4880  208.6970  156.0540 O   0  0  0  0  0  1  0  0  0  0  0  0
  158.7320  209.8840  155.7090 C   0  0  0  0  0  0  0  0  0  0  0  0
  157.6760  210.7670  155.5160 O   0  0  0  0  0  0  0  0  0  0  0  0
  159.0350  212.8170  152.2950 C   0  0  1  0  0  3  0  0  0  0  0  0
  157.6020  212.6290  152.7780 C   0  0  0  0  0  1  0  0  0  0  0  0
  159.2340  214.1410  151.8950 O   0  0  0  0  0  0  0  0  0  0  0  0
  160.0990  214.0590  150.8020 C   0  0  0  0  0  2  0  0  0  0  0  0
  159.3180  213.6550  149.5700 C   0  0  0  0  0  2  0  0  0  0  0  0
  161.4670  212.5960  147.1700 C   0  0  0  0  0  2  0  0  0  0  0  0
  160.1530  213.0680  147.1800 N   0  0  0  0  0  0  0  0  0  0  0  0
  160.2600  213.2070  148.5080 C   0  0  0  0  0  0  0  0  0  0  0  0
  161.6420  212.6930  148.5330 N   0  0  0  0  0  2  0  0  0  0  0  0
  160.7950  207.7410  153.3750 C   0  0  0  0  0  2  0  0  0  0  0  0
  161.6190  206.4640  153.4110 C   0  0  0  0  0  2  0  0  0  0  0  0
  161.0780  205.4260  152.4370 C   0  0  0  0  0  2  0  0  0  0  0  0
  161.5950  205.6610  151.0260 C   0  0  1  0  0  3  0  0  0  0  0  0
  160.7740  204.8170  150.0650 C   0  0  0  0  0  2  0  0  0  0  0  0
  159.8930  201.5480  149.0830 C   0  0  0  0  0  2  0  0  0  0  0  0
  161.8480  203.9700  147.3260 O   0  0  0  0  0  0  0  0  0  0  0  0
  160.8250  202.1120  150.5530 S   0  0  0  0  0  0  0  0  0  0  0  0
  160.4600  202.1920  147.9150 N   0  0  0  0  0  2  0  0  0  0  0  0
  161.3070  203.2800  148.2300 C   0  0  0  0  0  0  0  0  0  0  0  0
  161.5210  203.5520  149.6680 C   0  0  1  0  0  3  0  0  0  0  0  0
  161.4650  207.1290  150.6490 C   0  0  0  0  0  2  0  0  0  0  0  0
  162.2090  207.3950  149.4990 O   0  0  0  0  0  0  0  0  0  0  0  0
  161.9470  208.7350  149.2160 C   0  0  0  0  0  1  0  0  0  0  0  0
  2 15  1  6  0  0  0
  2  5  1  0  0  0  0
  3 10  2  0  0  0  0
  4  8  1  0  0  0  0
  5  7  1  1  0  0  0
  5 11  1  0  0  0  0
  6 24  1  6  0  0  0
  6  4  1  0  0  0  0
  6  9  1  0  0  0  0
  8 13  1  1  0  0  0
  8 11  1  0  0  0  0
  8  1  1  0  0  0  0
  9  1  1  0  0  0  0
 10  2  1  0  0  0  0
 10  4  1  0  0  0  0
 13 12  1  0  0  0  0
 14 13  2  0  0  0  0
 15 16  1  1  0  0  0
 17 15  1  0  0  0  0
 18 17  1  0  0  0  0
 19 18  1  0  0  0  0
 20 21  1  0  0  0  0
 20 23  1  0  0  0  0
 21 22  2  0  0  0  0
 22 23  1  0  0  0  0
 22 19  1  0  0  0  0
 24 25  1  0  0  0  0
 26 25  1  0  0  0  0
 27 28  1  6  0  0  0
 27 26  1  0  0  0  0
 29 31  1  0  0  0  0
 30 33  2  0  0  0  0
 32 33  1  0  0  0  0
 32 29  1  0  0  0  0
 33 34  1  0  0  0  0
 34 28  1  1  0  0  0
 34 31  1  0  0  0  0
 35 27  1  0  0  0  0
 36 35  1  0  0  0  0
 37 36  1  0  0  0  0
M  END
>  <MODEL>
8

>  <REMARK>
 VINA RESULT:      -4.6      2.702      3.497
  Name = 
  14 active torsions:
  status: ('A' for Active; 'I' for Inactive)
    1  A    between atoms: O_2  and  C_20
    2  A    between atoms: C_10  and  C_11
    3  A    between atoms: C_10  and  O_13
    4  A    between atoms: O_13  and  C_28
    5  A    between atoms: C_14  and  C_22
    6  A    between atoms: C_16  and  C_35
    7  A    between atoms: C_16  and  C_36
    8  A    between atoms: C_17  and  C_30
    9  A    between atoms: C_18  and  C_21
   10  A    between atoms: C_18  and  C_37
   11  A    between atoms: C_20  and  C_35
   12  A    between atoms: C_21  and  C_35
   13  A    between atoms: C_22  and  C_28
   14  A    between atoms: C_25  and  C_37
                            x       y       z     vdW  Elec       q    Type
                         _______ _______ _______ _____ _____    ______ ____

>  <TORSDO>
F 14

$$$$
=
 OpenBabel11072410143D

 37 40  0  0  1  0  0  0  0  0999 V2000
  160.4780  205.7410  152.6300 C   0  0  0  0  0  2  0  0  0  0  0  0
  161.1660  205.9380  148.3590 C   0  0  1  0  0  3  0  0  0  0  0  0
  161.3160  208.2680  148.8630 O   0  0  0  0  0  0  0  0  0  0  0  0
  161.3310  206.8740  150.7440 N   0  0  0  0  0  0  0  0  0  0  0  0
  161.1210  204.5560  149.0380 C   0  0  2  0  0  3  0  0  0  0  0  0
  161.0310  207.9270  151.7020 C   0  0  1  0  0  3  0  0  0  0  0  0
  160.4300  203.6550  148.2290 O   0  0  0  0  0  1  0  0  0  0  0  0
  161.2420  205.5440  151.3320 C   0  0  2  0  0  0  0  0  0  0  0  0
  160.6010  207.2190  152.9760 C   0  0  0  0  0  2  0  0  0  0  0  0
  161.3040  207.0930  149.3210 C   0  0  0  0  0  0  0  0  0  0  0  0
  160.4650  204.6040  150.4140 C   0  0  0  0  0  2  0  0  0  0  0  0
  162.7660  203.7690  151.8740 O   0  0  0  0  0  1  0  0  0  0  0  0
  162.6150  204.9960  151.6340 C   0  0  0  0  0  0  0  0  0  0  0  0
  163.7250  205.8320  151.6370 O   0  0  0  0  0  0  0  0  0  0  0  0
  162.2290  206.0090  147.2550 C   0  0  1  0  0  3  0  0  0  0  0  0
  163.0860  204.7510  147.1970 C   0  0  0  0  0  1  0  0  0  0  0  0
  161.6300  206.2350  146.0120 O   0  0  0  0  0  0  0  0  0  0  0  0
  161.8710  205.0700  145.2820 C   0  0  0  0  0  2  0  0  0  0  0  0
  160.5640  204.5360  144.7390 C   0  0  0  0  0  2  0  0  0  0  0  0
  160.3690  201.2060  145.3510 C   0  0  0  0  0  2  0  0  0  0  0  0
  159.6900  202.0980  144.5180 N   0  0  0  0  0  0  0  0  0  0  0  0
  160.4820  203.0710  144.9890 C   0  0  0  0  0  0  0  0  0  0  0  0
  161.2040  202.1570  145.8940 N   0  0  0  0  0  2  0  0  0  0  0  0
  162.2810  208.7450  152.0020 C   0  0  0  0  0  2  0  0  0  0  0  0
  161.9450  210.2000  152.2860 C   0  0  0  0  0  2  0  0  0  0  0  0
  160.4400  210.4300  152.3010 C   0  0  0  0  0  2  0  0  0  0  0  0
  159.9130  210.5870  153.7190 C   0  0  1  0  0  3  0  0  0  0  0  0
  161.0390  211.1070  154.5970 C   0  0  0  0  0  2  0  0  0  0  0  0
  161.1990  208.0610  156.3650 C   0  0  0  0  0  2  0  0  0  0  0  0
  163.0680  211.0610  156.8900 O   0  0  0  0  0  0  0  0  0  0  0  0
  159.7810  209.1890  156.1140 S   0  0  0  0  0  0  0  0  0  0  0  0
  162.3330  208.8510  156.8000 N   0  0  0  0  0  2  0  0  0  0  0  0
  162.1590  210.2400  156.6000 C   0  0  0  0  0  0  0  0  0  0  0  0
  160.8560  210.6660  156.0430 C   0  0  1  0  0  3  0  0  0  0  0  0
  158.7520  211.5700  153.7500 C   0  0  0  0  0  2  0  0  0  0  0  0
  159.2230  212.8550  154.0200 O   0  0  0  0  0  0  0  0  0  0  0  0
  158.6420  213.6530  153.0350 C   0  0  0  0  0  1  0  0  0  0  0  0
  1  9  1  0  0  0  0
  2 15  1  6  0  0  0
  2  5  1  0  0  0  0
  2 10  1  0  0  0  0
  3 10  2  0  0  0  0
  4  8  1  0  0  0  0
  4  6  1  0  0  0  0
  5  7  1  6  0  0  0
  5 11  1  0  0  0  0
  6 24  1  1  0  0  0
  6  9  1  0  0  0  0
  8 13  1  1  0  0  0
  8  1  1  0  0  0  0
 10  4  1  0  0  0  0
 11  8  1  0  0  0  0
 13 14  2  0  0  0  0
 13 12  1  0  0  0  0
 15 16  1  6  0  0  0
 17 15  1  0  0  0  0
 18 17  1  0  0  0  0
 19 22  1  0  0  0  0
 19 18  1  0  0  0  0
 20 23  1  0  0  0  0
 21 22  2  0  0  0  0
 21 20  1  0  0  0  0
 22 23  1  0  0  0  0
 24 25  1  0  0  0  0
 25 26  1  0  0  0  0
 27 26  1  6  0  0  0
 27 35  1  0  0  0  0
 27 28  1  0  0  0  0
 29 32  1  0  0  0  0
 31 29  1  0  0  0  0
 33 32  1  0  0  0  0
 33 30  2  0  0  0  0
 34 28  1  6  0  0  0
 34 31  1  0  0  0  0
 34 33  1  0  0  0  0
 35 36  1  0  0  0  0
 37 36  1  0  0  0  0
M  END
>  <MODEL>
9

>  <REMARK>
 VINA RESULT:      -4.5      3.443      9.661
  Name = 
  14 active torsions:
  status: ('A' for Active; 'I' for Inactive)
    1  A    between atoms: O_2  and  C_20
    2  A    between atoms: C_10  and  C_11
    3  A    between atoms: C_10  and  O_13
    4  A    between atoms: O_13  and  C_28
    5  A    between atoms: C_14  and  C_22
    6  A    between atoms: C_16  and  C_35
    7  A    between atoms: C_16  and  C_36
    8  A    between atoms: C_17  and  C_30
    9  A    between atoms: C_18  and  C_21
   10  A    between atoms: C_18  and  C_37
   11  A    between atoms: C_20  and  C_35
   12  A    between atoms: C_21  and  C_35
   13  A    between atoms: C_22  and  C_28
   14  A    between atoms: C_25  and  C_37
                            x       y       z     vdW  Elec       q    Type
                         _______ _______ _______ _____ _____    ______ ____

>  <TORSDO>
F 14

$$$$
