=
 OpenBabel11072413573D

 29 33  0  0  1  0  0  0  0  0999 V2000
  160.3910  207.4650  154.2290 C   0  0  0  0  0  2  0  0  0  0  0  0
  161.3870  209.7370  155.6370 C   0  0  2  0  0  3  0  0  0  0  0  0
  160.4530  208.7740  153.4480 C   0  0  1  0  0  3  0  0  0  0  0  0
  160.4630  209.9680  154.4230 C   0  0  2  0  0  3  0  0  0  0  0  0
  161.4450  207.4420  155.2410 N   0  0  0  0  0  2  0  0  0  0  0  0
  161.1280  208.4140  156.2080 N   0  0  0  0  0  2  0  0  0  0  0  0
  161.1270  210.7770  156.7120 C   0  0  0  0  0  1  0  0  0  0  0  0
  160.4190  211.1630  152.3240 O   0  0  0  0  0  0  0  0  0  0  0  0
  159.6980  213.0190  155.3160 C   0  0  0  0  0  2  0  0  0  0  0  0
  160.5720  211.3360  153.7140 C   0  0  1  0  0  3  0  0  0  0  0  0
  158.9210  212.9390  153.0020 C   0  0  1  0  0  3  0  0  0  0  0  0
  159.5940  212.3610  154.1630 C   0  0  0  0  0  0  0  0  0  0  0  0
  159.5120  212.1440  151.8530 C   0  0  1  0  0  3  0  0  0  0  0  0
  157.5480  212.6970  153.0830 O   0  0  0  0  0  1  0  0  0  0  0  0
  159.8560  214.3950  151.0860 O   0  0  0  0  0  1  0  0  0  0  0  0
  160.1940  213.0610  150.8460 C   0  0  0  0  0  2  0  0  0  0  0  0
  161.6550  208.7470  152.5120 C   0  0  0  0  0  2  0  0  0  0  0  0
  162.6280  206.2020  152.3360 O   0  0  0  0  0  0  0  0  0  0  0  0
  162.1830  207.7820  148.8840 C   0  0  0  0  0  2  0  0  0  0  0  0
  161.8910  205.0310  152.6450 C   0  0  0  0  0  2  0  0  0  0  0  0
  162.0550  206.6350  151.1320 C   0  0  1  0  0  0  0  0  0  0  0  0
  160.3550  205.9710  149.4160 C   0  0  0  0  0  2  0  0  0  0  0  0
  162.5640  207.8500  150.3860 C   0  0  2  0  0  3  0  0  0  0  0  0
  160.7950  203.3320  151.2150 C   0  0  0  0  0  2  0  0  0  0  0  0
  161.4950  205.5050  150.3140 C   0  0  2  0  0  3  0  0  0  0  0  0
  161.3080  207.9690  151.2520 C   0  0  2  0  0  3  0  0  0  0  0  0
  160.7970  207.1650  148.5400 C   0  0  2  0  0  3  0  0  0  0  0  0
  160.7660  206.7840  147.1400 N   0  0  0  0  0  1  0  0  0  0  0  0
  161.1450  204.6010  151.4150 C   0  0  0  0  0  0  0  0  0  0  0  0
  1  5  1  0  0  0  0
  2  6  1  0  0  0  0
  2  7  1  1  0  0  0
  3 17  1  1  0  0  0
  3  1  1  0  0  0  0
  3  4  1  0  0  0  0
  4 10  1  6  0  0  0
  4  2  1  0  0  0  0
  5  6  1  0  0  0  0
 10  8  1  6  0  0  0
 10 12  1  0  0  0  0
 11 14  1  1  0  0  0
 11 12  1  0  0  0  0
 12  9  2  0  0  0  0
 13 16  1  6  0  0  0
 13  8  1  0  0  0  0
 13 11  1  0  0  0  0
 16 15  1  0  0  0  0
 18 20  1  0  0  0  0
 21 26  1  0  0  0  0
 21 18  1  1  0  0  0
 23 19  1  6  0  0  0
 23 21  1  0  0  0  0
 23 26  1  0  0  0  0
 24 29  2  0  0  0  0
 25 22  1  1  0  0  0
 25 21  1  0  0  0  0
 25 29  1  0  0  0  0
 26 17  1  1  0  0  0
 27 28  1  6  0  0  0
 27 19  1  0  0  0  0
 27 22  1  0  0  0  0
 29 20  1  0  0  0  0
M  END
>  <MODEL>
1

>  <REMARK>
 VINA RESULT:      -7.3      0.000      0.000
  Name = 
  4 active torsions:
  status: ('A' for Active; 'I' for Inactive)
    1  A    between atoms: C_11  and  C_17
    2  A    between atoms: C_13  and  C_29
    3  A    between atoms: C_15  and  C_29
    4  A    between atoms: C_20  and  C_25
                            x       y       z     vdW  Elec       q    Type
                         _______ _______ _______ _____ _____    ______ ____

>  <TORSDO>
F 4

$$$$
=
 OpenBabel11072413573D

 29 33  0  0  1  0  0  0  0  0999 V2000
  160.0460  211.5580  151.9150 C   0  0  0  0  0  2  0  0  0  0  0  0
  158.5710  212.1380  154.2870 C   0  0  2  0  0  3  0  0  0  0  0  0
  160.4760  210.8190  153.1790 C   0  0  1  0  0  3  0  0  0  0  0  0
  160.0100  211.5970  154.4260 C   0  0  2  0  0  3  0  0  0  0  0  0
  158.6150  211.8510  151.9760 N   0  0  0  0  0  2  0  0  0  0  0  0
  158.4200  212.8040  152.9930 N   0  0  0  0  0  2  0  0  0  0  0  0
  158.2730  213.1490  155.3790 C   0  0  0  0  0  1  0  0  0  0  0  0
  160.7580  209.5630  155.4960 O   0  0  0  0  0  0  0  0  0  0  0  0
  161.2510  212.6550  157.2600 C   0  0  0  0  0  2  0  0  0  0  0  0
  160.3650  210.8920  155.7540 C   0  0  1  0  0  3  0  0  0  0  0  0
  162.4490  210.5560  156.9150 C   0  0  1  0  0  3  0  0  0  0  0  0
  161.4380  211.5450  156.5500 C   0  0  0  0  0  0  0  0  0  0  0  0
  161.9420  209.3020  156.2270 C   0  0  1  0  0  3  0  0  0  0  0  0
  163.6830  210.9210  156.3730 O   0  0  0  0  0  1  0  0  0  0  0  0
  160.6390  207.3780  156.8370 O   0  0  0  0  0  1  0  0  0  0  0  0
  161.7100  208.1820  157.2340 C   0  0  0  0  0  2  0  0  0  0  0  0
  159.9550  209.3880  153.1300 C   0  0  0  0  0  2  0  0  0  0  0  0
  161.5090  207.1950  153.6150 O   0  0  0  0  0  0  0  0  0  0  0  0
  162.5140  208.9440  150.3680 C   0  0  0  0  0  2  0  0  0  0  0  0
  161.0570  205.8530  153.5480 C   0  0  0  0  0  2  0  0  0  0  0  0
  161.5510  207.5870  152.2690 C   0  0  1  0  0  0  0  0  0  0  0  0
  161.2270  206.6910  149.9510 C   0  0  0  0  0  2  0  0  0  0  0  0
  162.0310  208.9570  151.8420 C   0  0  2  0  0  3  0  0  0  0  0  0
  161.3510  204.0830  151.8420 C   0  0  0  0  0  2  0  0  0  0  0  0
  161.8140  206.4380  151.3350 C   0  0  2  0  0  3  0  0  0  0  0  0
  160.5290  208.6750  151.9140 C   0  0  2  0  0  3  0  0  0  0  0  0
  161.7250  208.0370  149.3790 C   0  0  2  0  0  3  0  0  0  0  0  0
  162.5240  207.7990  148.1920 N   0  0  0  0  0  1  0  0  0  0  0  0
  161.1980  205.3730  152.1330 C   0  0  0  0  0  0  0  0  0  0  0  0
  1  5  1  0  0  0  0
  1  3  1  0  0  0  0
  2  4  1  0  0  0  0
  2  7  1  1  0  0  0
  3 17  1  6  0  0  0
  3  4  1  0  0  0  0
  4 10  1  1  0  0  0
  5  6  1  0  0  0  0
  6  2  1  0  0  0  0
  8 13  1  0  0  0  0
 10  8  1  6  0  0  0
 10 12  1  0  0  0  0
 11 14  1  6  0  0  0
 12 11  1  0  0  0  0
 12  9  2  0  0  0  0
 13 11  1  0  0  0  0
 13 16  1  1  0  0  0
 15 16  1  0  0  0  0
 20 18  1  0  0  0  0
 21 18  1  1  0  0  0
 23 19  1  6  0  0  0
 23 26  1  0  0  0  0
 23 21  1  0  0  0  0
 24 29  2  0  0  0  0
 25 22  1  6  0  0  0
 25 29  1  0  0  0  0
 25 21  1  0  0  0  0
 26 21  1  0  0  0  0
 26 17  1  1  0  0  0
 27 28  1  6  0  0  0
 27 22  1  0  0  0  0
 27 19  1  0  0  0  0
 29 20  1  0  0  0  0
M  END
>  <MODEL>
2

>  <REMARK>
 VINA RESULT:      -7.3      2.596      4.031
  Name = 
  4 active torsions:
  status: ('A' for Active; 'I' for Inactive)
    1  A    between atoms: C_11  and  C_17
    2  A    between atoms: C_13  and  C_29
    3  A    between atoms: C_15  and  C_29
    4  A    between atoms: C_20  and  C_25
                            x       y       z     vdW  Elec       q    Type
                         _______ _______ _______ _____ _____    ______ ____

>  <TORSDO>
F 4

$$$$
=
 OpenBabel11072413573D

 29 33  0  0  1  0  0  0  0  0999 V2000
  160.4740  207.0030  148.4600 C   0  0  0  0  0  2  0  0  0  0  0  0
  161.9580  205.1570  146.8690 C   0  0  2  0  0  3  0  0  0  0  0  0
  160.7730  205.6470  149.0940 C   0  0  1  0  0  3  0  0  0  0  0  0
  161.0580  204.6040  147.9940 C   0  0  2  0  0  3  0  0  0  0  0  0
  161.5370  207.3540  147.5200 N   0  0  0  0  0  2  0  0  0  0  0  0
  161.4560  206.4610  146.4350 N   0  0  0  0  0  2  0  0  0  0  0  0
  161.9510  204.2230  145.6720 C   0  0  0  0  0  1  0  0  0  0  0  0
  161.2910  203.2140  149.9570 O   0  0  0  0  0  0  0  0  0  0  0  0
  160.7680  201.5730  146.8020 C   0  0  0  0  0  2  0  0  0  0  0  0
  161.4160  203.2090  148.5530 C   0  0  1  0  0  3  0  0  0  0  0  0
  160.0790  201.2900  149.1270 C   0  0  1  0  0  3  0  0  0  0  0  0
  160.6020  202.0860  148.0200 C   0  0  0  0  0  0  0  0  0  0  0  0
  160.5760  202.0530  150.3410 C   0  0  1  0  0  3  0  0  0  0  0  0
  158.6840  201.3070  149.1020 O   0  0  0  0  0  1  0  0  0  0  0  0
  162.3570  201.9350  151.9490 O   0  0  0  0  0  1  0  0  0  0  0  0
  161.4380  201.1670  151.2300 C   0  0  0  0  0  2  0  0  0  0  0  0
  161.9120  205.7970  150.0950 C   0  0  0  0  0  2  0  0  0  0  0  0
  162.8390  208.2730  150.7770 O   0  0  0  0  0  0  0  0  0  0  0  0
  161.9010  206.2210  153.8620 C   0  0  0  0  0  2  0  0  0  0  0  0
  162.1510  209.4890  150.5380 C   0  0  0  0  0  2  0  0  0  0  0  0
  162.0990  207.6820  151.8100 C   0  0  1  0  0  0  0  0  0  0  0  0
  160.1630  208.1210  153.3390 C   0  0  0  0  0  2  0  0  0  0  0  0
  162.4980  206.3630  152.4370 C   0  0  2  0  0  3  0  0  0  0  0  0
  160.8520  210.9840  152.0250 C   0  0  0  0  0  2  0  0  0  0  0  0
  161.4210  208.6920  152.6930 C   0  0  2  0  0  3  0  0  0  0  0  0
  161.3820  206.3920  151.3910 C   0  0  2  0  0  3  0  0  0  0  0  0
  160.4770  206.8070  154.0880 C   0  0  2  0  0  3  0  0  0  0  0  0
  160.2410  206.9830  155.5090 N   0  0  0  0  0  1  0  0  0  0  0  0
  161.2320  209.7510  151.6960 C   0  0  0  0  0  0  0  0  0  0  0  0
  1  3  1  0  0  0  0
  2  7  1  6  0  0  0
  2  4  1  0  0  0  0
  3 17  1  1  0  0  0
  4 10  1  1  0  0  0
  4  3  1  0  0  0  0
  5  1  1  0  0  0  0
  6  2  1  0  0  0  0
  6  5  1  0  0  0  0
  8 13  1  0  0  0  0
  9 12  2  0  0  0  0
 10 12  1  6  0  0  0
 10  8  1  0  0  0  0
 11 14  1  6  0  0  0
 11 13  1  0  0  0  0
 12 11  1  0  0  0  0
 13 16  1  6  0  0  0
 16 15  1  0  0  0  0
 19 27  1  0  0  0  0
 20 18  1  0  0  0  0
 20 29  1  0  0  0  0
 21 18  1  6  0  0  0
 21 23  1  0  0  0  0
 21 25  1  0  0  0  0
 22 27  1  0  0  0  0
 23 19  1  1  0  0  0
 25 22  1  6  0  0  0
 26 17  1  6  0  0  0
 26 21  1  0  0  0  0
 26 23  1  0  0  0  0
 27 28  1  1  0  0  0
 29 24  2  0  0  0  0
 29 25  1  0  0  0  0
M  END
>  <MODEL>
3

>  <REMARK>
 VINA RESULT:      -7.2      2.785      8.476
  Name = 
  4 active torsions:
  status: ('A' for Active; 'I' for Inactive)
    1  A    between atoms: C_11  and  C_17
    2  A    between atoms: C_13  and  C_29
    3  A    between atoms: C_15  and  C_29
    4  A    between atoms: C_20  and  C_25
                            x       y       z     vdW  Elec       q    Type
                         _______ _______ _______ _____ _____    ______ ____

>  <TORSDO>
F 4

$$$$
=
 OpenBabel11072413573D

 29 33  0  0  1  0  0  0  0  0999 V2000
  161.8380  204.7280  151.7580 C   0  0  0  0  0  2  0  0  0  0  0  0
  160.4010  202.7620  150.2710 C   0  0  2  0  0  3  0  0  0  0  0  0
  161.4850  205.0900  150.3180 C   0  0  1  0  0  3  0  0  0  0  0  0
  161.2350  203.8070  149.5000 C   0  0  2  0  0  3  0  0  0  0  0  0
  160.8290  203.8200  152.3020 N   0  0  0  0  0  2  0  0  0  0  0  0
  160.9470  202.5960  151.6190 N   0  0  0  0  0  2  0  0  0  0  0  0
  160.4490  201.4170  149.5700 C   0  0  0  0  0  1  0  0  0  0  0  0
  160.8430  205.4740  147.7950 O   0  0  0  0  0  0  0  0  0  0  0  0
  161.5890  202.1280  146.7170 C   0  0  0  0  0  2  0  0  0  0  0  0
  160.8240  204.0860  148.0370 C   0  0  1  0  0  3  0  0  0  0  0  0
  162.0990  204.4120  146.0200 C   0  0  1  0  0  3  0  0  0  0  0  0
  161.6670  203.4260  147.0060 C   0  0  0  0  0  0  0  0  0  0  0  0
  161.5180  205.7010  146.5710 C   0  0  1  0  0  3  0  0  0  0  0  0
  163.4930  204.4920  146.0110 O   0  0  0  0  0  1  0  0  0  0  0  0
  160.8440  205.8860  144.2720 O   0  0  0  0  0  1  0  0  0  0  0  0
  160.5840  206.3560  145.5620 C   0  0  0  0  0  2  0  0  0  0  0  0
  160.3010  206.0500  150.3150 C   0  0  0  0  0  2  0  0  0  0  0  0
  162.2580  207.6670  149.3090 O   0  0  0  0  0  0  0  0  0  0  0  0
  162.0880  207.8650  153.1230 C   0  0  0  0  0  2  0  0  0  0  0  0
  162.0260  208.8470  148.5590 C   0  0  0  0  0  2  0  0  0  0  0  0
  161.8840  208.0340  150.6100 C   0  0  1  0  0  0  0  0  0  0  0  0
  161.1150  210.0060  151.9500 C   0  0  0  0  0  2  0  0  0  0  0  0
  162.0100  207.0860  151.7840 C   0  0  2  0  0  3  0  0  0  0  0  0
  162.1440  211.2470  149.1590 C   0  0  0  0  0  2  0  0  0  0  0  0
  162.0760  209.5000  150.8800 C   0  0  2  0  0  3  0  0  0  0  0  0
  160.6440  207.2910  151.1250 C   0  0  2  0  0  3  0  0  0  0  0  0
  161.2240  209.1550  153.2350 C   0  0  2  0  0  3  0  0  0  0  0  0
  161.7130  209.9760  154.3270 N   0  0  0  0  0  1  0  0  0  0  0  0
  161.8680  209.9940  149.5150 C   0  0  0  0  0  0  0  0  0  0  0  0
  1  5  1  0  0  0  0
  2  7  1  6  0  0  0
  2  6  1  0  0  0  0
  3 17  1  1  0  0  0
  3  1  1  0  0  0  0
  4 10  1  6  0  0  0
  4  2  1  0  0  0  0
  4  3  1  0  0  0  0
  6  5  1  0  0  0  0
  8 10  1  0  0  0  0
  9 12  2  0  0  0  0
 10 12  1  6  0  0  0
 11 14  1  1  0  0  0
 11 13  1  0  0  0  0
 11 12  1  0  0  0  0
 13 16  1  6  0  0  0
 13  8  1  0  0  0  0
 15 16  1  0  0  0  0
 19 27  1  0  0  0  0
 20 18  1  0  0  0  0
 20 29  1  0  0  0  0
 21 18  1  6  0  0  0
 21 25  1  0  0  0  0
 21 26  1  0  0  0  0
 21 23  1  0  0  0  0
 22 27  1  0  0  0  0
 23 19  1  1  0  0  0
 24 29  2  0  0  0  0
 25 22  1  1  0  0  0
 26 17  1  6  0  0  0
 26 23  1  0  0  0  0
 27 28  1  1  0  0  0
 29 25  1  0  0  0  0
M  END
>  <MODEL>
4

>  <REMARK>
 VINA RESULT:      -7.0      3.351      7.721
  Name = 
  4 active torsions:
  status: ('A' for Active; 'I' for Inactive)
    1  A    between atoms: C_11  and  C_17
    2  A    between atoms: C_13  and  C_29
    3  A    between atoms: C_15  and  C_29
    4  A    between atoms: C_20  and  C_25
                            x       y       z     vdW  Elec       q    Type
                         _______ _______ _______ _____ _____    ______ ____

>  <TORSDO>
F 4

$$$$
=
 OpenBabel11072413573D

 29 33  0  0  1  0  0  0  0  0999 V2000
  161.4650  203.5240  150.7810 C   0  0  0  0  0  2  0  0  0  0  0  0
  160.3800  202.1430  148.5330 C   0  0  2  0  0  3  0  0  0  0  0  0
  161.7460  204.1330  149.4100 C   0  0  1  0  0  3  0  0  0  0  0  0
  161.6070  203.0530  148.3170 C   0  0  2  0  0  3  0  0  0  0  0  0
  160.1880  202.8140  150.7550 N   0  0  0  0  0  2  0  0  0  0  0  0
  160.3430  201.6890  149.9240 N   0  0  0  0  0  2  0  0  0  0  0  0
  160.4580  200.9200  147.6370 C   0  0  0  0  0  1  0  0  0  0  0  0
  160.5930  203.6840  146.2160 O   0  0  0  0  0  0  0  0  0  0  0  0
  163.7920  205.1110  147.0210 C   0  0  0  0  0  2  0  0  0  0  0  0
  161.8290  203.5970  146.8890 C   0  0  1  0  0  3  0  0  0  0  0  0
  161.7120  205.8140  145.9520 C   0  0  1  0  0  3  0  0  0  0  0  0
  162.4900  204.9270  146.8140 C   0  0  0  0  0  0  0  0  0  0  0  0
  160.5210  204.9480  145.5830 C   0  0  1  0  0  3  0  0  0  0  0  0
  161.2780  206.9210  146.6830 O   0  0  0  0  0  1  0  0  0  0  0  0
  161.4410  205.4700  143.4260 O   0  0  0  0  0  1  0  0  0  0  0  0
  160.4120  204.7820  144.0730 C   0  0  0  0  0  2  0  0  0  0  0  0
  160.8310  205.3330  149.1940 C   0  0  0  0  0  2  0  0  0  0  0  0
  162.5960  207.4160  149.1340 O   0  0  0  0  0  0  0  0  0  0  0  0
  161.9540  206.2150  152.7060 C   0  0  0  0  0  2  0  0  0  0  0  0
  162.2600  208.7520  148.7980 C   0  0  0  0  0  2  0  0  0  0  0  0
  162.0180  207.2470  150.4010 C   0  0  1  0  0  0  0  0  0  0  0  0
  160.7820  208.5070  152.1790 C   0  0  0  0  0  2  0  0  0  0  0  0
  162.1620  205.9630  151.1890 C   0  0  2  0  0  3  0  0  0  0  0  0
  161.9080  210.7740  150.1830 C   0  0  0  0  0  2  0  0  0  0  0  0
  161.9310  208.5320  151.1770 C   0  0  2  0  0  3  0  0  0  0  0  0
  160.8680  206.2330  150.4200 C   0  0  2  0  0  3  0  0  0  0  0  0
  160.8810  207.2710  153.1010 C   0  0  2  0  0  3  0  0  0  0  0  0
  161.0970  207.6970  154.4710 N   0  0  0  0  0  1  0  0  0  0  0  0
  161.8040  209.4550  150.0440 C   0  0  0  0  0  0  0  0  0  0  0  0
  2  7  1  6  0  0  0
  2  6  1  0  0  0  0
  3 17  1  6  0  0  0
  3  1  1  0  0  0  0
  4 10  1  6  0  0  0
  4  2  1  0  0  0  0
  4  3  1  0  0  0  0
  5  1  1  0  0  0  0
  6  5  1  0  0  0  0
 10  8  1  1  0  0  0
 11 14  1  1  0  0  0
 11 12  1  0  0  0  0
 12 10  1  0  0  0  0
 12  9  2  0  0  0  0
 13 16  1  6  0  0  0
 13 11  1  0  0  0  0
 13  8  1  0  0  0  0
 15 16  1  0  0  0  0
 19 27  1  0  0  0  0
 20 18  1  0  0  0  0
 20 29  1  0  0  0  0
 21 18  1  6  0  0  0
 21 26  1  0  0  0  0
 21 25  1  0  0  0  0
 21 23  1  0  0  0  0
 22 27  1  0  0  0  0
 23 19  1  1  0  0  0
 25 22  1  1  0  0  0
 26 17  1  6  0  0  0
 26 23  1  0  0  0  0
 27 28  1  1  0  0  0
 29 24  2  0  0  0  0
 29 25  1  0  0  0  0
M  END
>  <MODEL>
5

>  <REMARK>
 VINA RESULT:      -5.7      3.651      8.001
  Name = 
  4 active torsions:
  status: ('A' for Active; 'I' for Inactive)
    1  A    between atoms: C_11  and  C_17
    2  A    between atoms: C_13  and  C_29
    3  A    between atoms: C_15  and  C_29
    4  A    between atoms: C_20  and  C_25
                            x       y       z     vdW  Elec       q    Type
                         _______ _______ _______ _____ _____    ______ ____

>  <TORSDO>
F 4

$$$$
=
 OpenBabel11072413573D

 29 33  0  0  1  0  0  0  0  0999 V2000
  162.8490  207.3170  150.3230 C   0  0  0  0  0  2  0  0  0  0  0  0
  161.3620  209.5410  151.3140 C   0  0  2  0  0  3  0  0  0  0  0  0
  162.0030  207.0670  151.5680 C   0  0  1  0  0  3  0  0  0  0  0  0
  161.7230  208.4010  152.2900 C   0  0  2  0  0  3  0  0  0  0  0  0
  162.2300  208.3580  149.5040 N   0  0  0  0  0  2  0  0  0  0  0  0
  162.3260  209.5700  150.2140 N   0  0  0  0  0  2  0  0  0  0  0  0
  161.4080  210.8830  152.0210 C   0  0  0  0  0  1  0  0  0  0  0  0
  161.3840  207.2740  154.4000 O   0  0  0  0  0  0  0  0  0  0  0  0
  159.7960  210.4650  153.9390 C   0  0  0  0  0  2  0  0  0  0  0  0
  160.8300  208.2430  153.5400 C   0  0  1  0  0  3  0  0  0  0  0  0
  160.9070  209.2370  155.7330 C   0  0  1  0  0  3  0  0  0  0  0  0
  160.6140  209.4870  154.3250 C   0  0  0  0  0  0  0  0  0  0  0  0
  161.3730  207.7930  155.7180 C   0  0  1  0  0  3  0  0  0  0  0  0
  161.9510  210.0620  156.1530 O   0  0  0  0  0  1  0  0  0  0  0  0
  159.1820  206.9170  156.1750 O   0  0  0  0  0  1  0  0  0  0  0  0
  160.5060  206.9270  156.6230 C   0  0  0  0  0  2  0  0  0  0  0  0
  160.7370  206.3140  151.1760 C   0  0  0  0  0  2  0  0  0  0  0  0
  159.9510  206.2530  148.5620 O   0  0  0  0  0  0  0  0  0  0  0  0
  160.1800  202.7380  150.0480 C   0  0  0  0  0  2  0  0  0  0  0  0
  160.7820  206.5760  147.4590 C   0  0  0  0  0  2  0  0  0  0  0  0
  160.4560  205.0170  148.9920 C   0  0  1  0  0  0  0  0  0  0  0  0
  162.1520  203.2720  148.3950 C   0  0  0  0  0  2  0  0  0  0  0  0
  159.8370  204.2480  150.1400 C   0  0  2  0  0  3  0  0  0  0  0  0
  161.9590  205.1700  145.7960 C   0  0  0  0  0  2  0  0  0  0  0  0
  161.0750  204.2200  147.8780 C   0  0  2  0  0  3  0  0  0  0  0  0
  161.1050  205.0710  150.3810 C   0  0  2  0  0  3  0  0  0  0  0  0
  161.5980  202.3720  149.5220 C   0  0  2  0  0  3  0  0  0  0  0  0
  161.6170  200.9850  149.0950 N   0  0  0  0  0  1  0  0  0  0  0  0
  161.5220  205.3390  147.0420 C   0  0  0  0  0  0  0  0  0  0  0  0
  1  3  1  0  0  0  0
  2  7  1  1  0  0  0
  2  4  1  0  0  0  0
  3 17  1  6  0  0  0
  3  4  1  0  0  0  0
  4 10  1  1  0  0  0
  5  6  1  0  0  0  0
  5  1  1  0  0  0  0
  6  2  1  0  0  0  0
  8 13  1  0  0  0  0
  9 12  2  0  0  0  0
 10 12  1  1  0  0  0
 10  8  1  0  0  0  0
 11 14  1  6  0  0  0
 12 11  1  0  0  0  0
 13 11  1  0  0  0  0
 13 16  1  1  0  0  0
 15 16  1  0  0  0  0
 20 18  1  0  0  0  0
 21 18  1  6  0  0  0
 21 23  1  0  0  0  0
 21 26  1  0  0  0  0
 22 27  1  0  0  0  0
 23 19  1  6  0  0  0
 23 26  1  0  0  0  0
 24 29  2  0  0  0  0
 25 22  1  1  0  0  0
 25 21  1  0  0  0  0
 26 17  1  1  0  0  0
 27 28  1  6  0  0  0
 27 19  1  0  0  0  0
 29 20  1  0  0  0  0
 29 25  1  0  0  0  0
M  END
>  <MODEL>
6

>  <REMARK>
 VINA RESULT:      -5.3      2.911      4.978
  Name = 
  4 active torsions:
  status: ('A' for Active; 'I' for Inactive)
    1  A    between atoms: C_11  and  C_17
    2  A    between atoms: C_13  and  C_29
    3  A    between atoms: C_15  and  C_29
    4  A    between atoms: C_20  and  C_25
                            x       y       z     vdW  Elec       q    Type
                         _______ _______ _______ _____ _____    ______ ____

>  <TORSDO>
F 4

$$$$
=
 OpenBabel11072413573D

 29 33  0  0  1  0  0  0  0  0999 V2000
  161.6790  202.2580  149.7310 C   0  0  0  0  0  2  0  0  0  0  0  0
  160.7580  201.3280  147.1960 C   0  0  2  0  0  3  0  0  0  0  0  0
  161.8430  203.2180  148.5560 C   0  0  1  0  0  3  0  0  0  0  0  0
  161.8380  202.4310  147.2300 C   0  0  2  0  0  3  0  0  0  0  0  0
  160.5160  201.4000  149.5120 N   0  0  0  0  0  2  0  0  0  0  0  0
  160.8140  200.5470  148.4320 N   0  0  0  0  0  2  0  0  0  0  0  0
  160.9940  200.3870  146.0290 C   0  0  0  0  0  1  0  0  0  0  0  0
  160.6930  203.8930  145.6840 O   0  0  0  0  0  0  0  0  0  0  0  0
  164.2530  204.2670  146.0100 C   0  0  0  0  0  2  0  0  0  0  0  0
  161.9520  203.3340  145.9830 C   0  0  1  0  0  3  0  0  0  0  0  0
  162.3000  205.7030  145.7120 C   0  0  1  0  0  3  0  0  0  0  0  0
  162.9350  204.4440  146.0930 C   0  0  0  0  0  0  0  0  0  0  0  0
  160.8690  205.2760  145.4390 C   0  0  1  0  0  3  0  0  0  0  0  0
  162.3270  206.5900  146.7880 O   0  0  0  0  0  1  0  0  0  0  0  0
  161.5820  205.8290  143.2120 O   0  0  0  0  0  1  0  0  0  0  0  0
  160.4570  205.6210  144.0140 C   0  0  0  0  0  2  0  0  0  0  0  0
  160.7620  204.2900  148.6260 C   0  0  0  0  0  2  0  0  0  0  0  0
  159.7960  204.7660  151.1350 O   0  0  0  0  0  0  0  0  0  0  0  0
  160.8310  208.0030  149.3860 C   0  0  0  0  0  2  0  0  0  0  0  0
  160.4550  204.4060  152.3380 C   0  0  0  0  0  2  0  0  0  0  0  0
  160.5670  205.8340  150.6530 C   0  0  1  0  0  0  0  0  0  0  0  0
  162.5200  207.2790  151.2650 C   0  0  0  0  0  2  0  0  0  0  0  0
  160.2060  206.5840  149.3890 C   0  0  2  0  0  3  0  0  0  0  0  0
  161.7490  205.7290  153.9840 C   0  0  0  0  0  2  0  0  0  0  0  0
  161.2400  206.6090  151.7510 C   0  0  2  0  0  3  0  0  0  0  0  0
  161.3030  205.5170  149.3450 C   0  0  2  0  0  3  0  0  0  0  0  0
  162.2470  208.1480  150.0160 C   0  0  2  0  0  3  0  0  0  0  0  0
  162.5040  209.5430  150.3240 N   0  0  0  0  0  1  0  0  0  0  0  0
  161.3880  205.5180  152.7200 C   0  0  0  0  0  0  0  0  0  0  0  0
  2  7  1  6  0  0  0
  2  4  1  0  0  0  0
  2  6  1  0  0  0  0
  3 17  1  6  0  0  0
  3  1  1  0  0  0  0
  4 10  1  6  0  0  0
  4  3  1  0  0  0  0
  5  1  1  0  0  0  0
  6  5  1  0  0  0  0
  9 12  2  0  0  0  0
 10  8  1  1  0  0  0
 10 12  1  0  0  0  0
 11 12  1  0  0  0  0
 11 14  1  1  0  0  0
 13 16  1  6  0  0  0
 13  8  1  0  0  0  0
 13 11  1  0  0  0  0
 15 16  1  0  0  0  0
 18 20  1  0  0  0  0
 19 27  1  0  0  0  0
 20 29  1  0  0  0  0
 21 18  1  1  0  0  0
 21 25  1  0  0  0  0
 23 19  1  1  0  0  0
 23 21  1  0  0  0  0
 25 22  1  6  0  0  0
 25 29  1  0  0  0  0
 26 17  1  6  0  0  0
 26 23  1  0  0  0  0
 26 21  1  0  0  0  0
 27 28  1  1  0  0  0
 27 22  1  0  0  0  0
 29 24  2  0  0  0  0
M  END
>  <MODEL>
7

>  <REMARK>
 VINA RESULT:      -5.0      4.617      8.295
  Name = 
  4 active torsions:
  status: ('A' for Active; 'I' for Inactive)
    1  A    between atoms: C_11  and  C_17
    2  A    between atoms: C_13  and  C_29
    3  A    between atoms: C_15  and  C_29
    4  A    between atoms: C_20  and  C_25
                            x       y       z     vdW  Elec       q    Type
                         _______ _______ _______ _____ _____    ______ ____

>  <TORSDO>
F 4

$$$$
=
 OpenBabel11072413573D

 29 33  0  0  1  0  0  0  0  0999 V2000
  160.9490  208.0500  155.4860 C   0  0  0  0  0  2  0  0  0  0  0  0
  161.6500  210.6710  156.3670 C   0  0  2  0  0  3  0  0  0  0  0  0
  160.7500  209.1800  154.4800 C   0  0  1  0  0  3  0  0  0  0  0  0
  160.6270  210.5270  155.2200 C   0  0  2  0  0  3  0  0  0  0  0  0
  162.0530  208.3770  156.3860 N   0  0  0  0  0  2  0  0  0  0  0  0
  161.6430  209.4590  157.1870 N   0  0  0  0  0  2  0  0  0  0  0  0
  161.2920  211.8480  157.2560 C   0  0  0  0  0  1  0  0  0  0  0  0
  160.3020  211.2780  152.9460 O   0  0  0  0  0  0  0  0  0  0  0  0
  159.3680  213.5210  155.5940 C   0  0  0  0  0  2  0  0  0  0  0  0
  160.4690  211.7340  154.2690 C   0  0  1  0  0  3  0  0  0  0  0  0
  158.5390  212.8750  153.3900 C   0  0  1  0  0  3  0  0  0  0  0  0
  159.3420  212.6480  154.5880 C   0  0  0  0  0  0  0  0  0  0  0  0
  159.2220  211.9860  152.3670 C   0  0  1  0  0  3  0  0  0  0  0  0
  157.2340  212.4280  153.6030 O   0  0  0  0  0  1  0  0  0  0  0  0
  159.2310  214.1110  151.2440 O   0  0  0  0  0  1  0  0  0  0  0  0
  159.6980  212.7960  151.1680 C   0  0  0  0  0  2  0  0  0  0  0  0
  161.8810  209.1510  153.4590 C   0  0  0  0  0  2  0  0  0  0  0  0
  161.0330  209.0680  150.8650 O   0  0  0  0  0  0  0  0  0  0  0  0
  160.4520  205.7360  152.6450 C   0  0  0  0  0  2  0  0  0  0  0  0
  161.8870  209.0910  149.7330 C   0  0  0  0  0  2  0  0  0  0  0  0
  161.2380  207.7870  151.3960 C   0  0  1  0  0  0  0  0  0  0  0  0
  162.4490  205.6420  150.9400 C   0  0  0  0  0  2  0  0  0  0  0  0
  160.4840  207.2860  152.6100 C   0  0  2  0  0  3  0  0  0  0  0  0
  162.6470  207.3110  148.1890 C   0  0  0  0  0  2  0  0  0  0  0  0
  161.6180  206.7760  150.3510 C   0  0  2  0  0  3  0  0  0  0  0  0
  161.9180  207.7950  152.7720 C   0  0  2  0  0  3  0  0  0  0  0  0
  161.7260  204.9960  152.1430 C   0  0  2  0  0  3  0  0  0  0  0  0
  161.4000  203.6160  151.8360 N   0  0  0  0  0  1  0  0  0  0  0  0
  162.2970  207.6820  149.4190 C   0  0  0  0  0  0  0  0  0  0  0  0
  1  5  1  0  0  0  0
  2  6  1  0  0  0  0
  2  7  1  1  0  0  0
  3 17  1  6  0  0  0
  3  4  1  0  0  0  0
  3  1  1  0  0  0  0
  4 10  1  6  0  0  0
  4  2  1  0  0  0  0
  5  6  1  0  0  0  0
 10  8  1  6  0  0  0
 10 12  1  0  0  0  0
 11 14  1  1  0  0  0
 11 12  1  0  0  0  0
 12  9  2  0  0  0  0
 13 16  1  6  0  0  0
 13  8  1  0  0  0  0
 13 11  1  0  0  0  0
 16 15  1  0  0  0  0
 20 18  1  0  0  0  0
 21 18  1  6  0  0  0
 21 23  1  0  0  0  0
 21 26  1  0  0  0  0
 22 27  1  0  0  0  0
 23 19  1  6  0  0  0
 23 26  1  0  0  0  0
 24 29  2  0  0  0  0
 25 22  1  1  0  0  0
 25 21  1  0  0  0  0
 26 17  1  1  0  0  0
 27 28  1  6  0  0  0
 27 19  1  0  0  0  0
 29 20  1  0  0  0  0
 29 25  1  0  0  0  0
M  END
>  <MODEL>
8

>  <REMARK>
 VINA RESULT:      -5.0      1.612      2.583
  Name = 
  4 active torsions:
  status: ('A' for Active; 'I' for Inactive)
    1  A    between atoms: C_11  and  C_17
    2  A    between atoms: C_13  and  C_29
    3  A    between atoms: C_15  and  C_29
    4  A    between atoms: C_20  and  C_25
                            x       y       z     vdW  Elec       q    Type
                         _______ _______ _______ _____ _____    ______ ____

>  <TORSDO>
F 4

$$$$
=
 OpenBabel11072413573D

 29 33  0  0  1  0  0  0  0  0999 V2000
  162.0510  210.3010  151.0110 C   0  0  0  0  0  2  0  0  0  0  0  0
  160.0800  211.9020  152.3120 C   0  0  2  0  0  3  0  0  0  0  0  0
  161.8460  210.0470  152.5020 C   0  0  1  0  0  3  0  0  0  0  0  0
  161.2100  211.2860  153.1640 C   0  0  2  0  0  3  0  0  0  0  0  0
  160.8010  210.7640  150.4110 N   0  0  0  0  0  2  0  0  0  0  0  0
  160.5310  212.0450  150.9270 N   0  0  0  0  0  2  0  0  0  0  0  0
  159.7060  213.2770  152.8340 C   0  0  0  0  0  1  0  0  0  0  0  0
  159.6520  210.5130  154.8410 O   0  0  0  0  0  0  0  0  0  0  0  0
  163.1240  210.7030  155.7500 C   0  0  0  0  0  2  0  0  0  0  0  0
  160.9240  211.0960  154.6690 C   0  0  1  0  0  3  0  0  0  0  0  0
  161.2220  209.2290  156.1620 C   0  0  1  0  0  3  0  0  0  0  0  0
  161.9150  210.2660  155.4020 C   0  0  0  0  0  0  0  0  0  0  0  0
  159.7720  209.4570  155.7770 C   0  0  1  0  0  3  0  0  0  0  0  0
  161.6310  207.9690  155.7240 O   0  0  0  0  0  1  0  0  0  0  0  0
  158.5420  211.0810  157.0520 O   0  0  0  0  0  1  0  0  0  0  0  0
  158.9160  209.7360  157.0060 C   0  0  0  0  0  2  0  0  0  0  0  0
  161.0270  208.7750  152.6900 C   0  0  0  0  0  2  0  0  0  0  0  0
  162.0040  206.2420  152.9870 O   0  0  0  0  0  0  0  0  0  0  0  0
  162.7060  207.6220  149.4920 C   0  0  0  0  0  2  0  0  0  0  0  0
  161.2060  205.0760  153.1070 C   0  0  0  0  0  2  0  0  0  0  0  0
  161.8540  206.5970  151.6390 C   0  0  1  0  0  0  0  0  0  0  0  0
  160.8030  205.8090  149.5050 C   0  0  0  0  0  2  0  0  0  0  0  0
  162.5780  207.7790  151.0300 C   0  0  2  0  0  3  0  0  0  0  0  0
  160.6350  203.2810  151.4990 C   0  0  0  0  0  2  0  0  0  0  0  0
  161.5890  205.4140  150.7500 C   0  0  2  0  0  3  0  0  0  0  0  0
  161.1090  207.9220  151.4320 C   0  0  2  0  0  3  0  0  0  0  0  0
  161.5060  206.9610  148.7520 C   0  0  2  0  0  3  0  0  0  0  0  0
  161.9330  206.5030  147.4430 N   0  0  0  0  0  1  0  0  0  0  0  0
  160.9010  204.5650  151.7280 C   0  0  0  0  0  0  0  0  0  0  0  0
  1  3  1  0  0  0  0
  2  7  1  1  0  0  0
  2  4  1  0  0  0  0
  3 17  1  6  0  0  0
  3  4  1  0  0  0  0
  4 10  1  1  0  0  0
  5  6  1  0  0  0  0
  5  1  1  0  0  0  0
  6  2  1  0  0  0  0
  8 13  1  0  0  0  0
 10  8  1  6  0  0  0
 10 12  1  0  0  0  0
 11 14  1  6  0  0  0
 12  9  2  0  0  0  0
 12 11  1  0  0  0  0
 13 11  1  0  0  0  0
 13 16  1  1  0  0  0
 16 15  1  0  0  0  0
 18 20  1  0  0  0  0
 21 18  1  1  0  0  0
 23 19  1  6  0  0  0
 23 26  1  0  0  0  0
 23 21  1  0  0  0  0
 24 29  2  0  0  0  0
 25 22  1  6  0  0  0
 25 21  1  0  0  0  0
 25 29  1  0  0  0  0
 26 21  1  0  0  0  0
 26 17  1  1  0  0  0
 27 28  1  6  0  0  0
 27 19  1  0  0  0  0
 27 22  1  0  0  0  0
 29 20  1  0  0  0  0
M  END
>  <MODEL>
9

>  <REMARK>
 VINA RESULT:      -4.8      2.297      3.650
  Name = 
  4 active torsions:
  status: ('A' for Active; 'I' for Inactive)
    1  A    between atoms: C_11  and  C_17
    2  A    between atoms: C_13  and  C_29
    3  A    between atoms: C_15  and  C_29
    4  A    between atoms: C_20  and  C_25
                            x       y       z     vdW  Elec       q    Type
                         _______ _______ _______ _____ _____    ______ ____

>  <TORSDO>
F 4

$$$$
