=
 OpenBabel11072410063D

 69 78  0  0  1  0  0  0  0  0999 V2000
  154.3040  211.6650  156.0630 C   0  0  0  0  0  2  0  0  0  0  0  0
  158.5920  213.1250  151.9060 C   0  0  2  0  0  3  0  0  0  0  0  0
  162.5250  210.1130  149.7920 C   0  0  0  0  0  0  0  0  0  0  0  0
  162.1600  214.2320  149.0430 O   0  0  0  0  0  0  0  0  0  0  0  0
  157.2630  213.5840  151.2870 C   0  0  0  0  0  2  0  0  0  0  0  0
  159.5390  212.8660  150.7590 C   0  0  0  0  0  2  0  0  0  0  0  0
  162.9110  209.4810  151.0970 C   0  0  0  0  0  2  0  0  0  0  0  0
  160.0920  213.9440  148.0760 O   0  0  0  0  0  0  0  0  0  0  0  0
  161.9980  209.3730  148.7760 N   0  0  0  0  0  0  0  0  0  0  0  0
  157.5750  213.1400  154.9190 C   0  0  1  0  0  3  0  0  0  0  0  0
  161.7530  209.9130  147.5520 C   0  0  0  0  0  3  0  0  0  0  0  0
  162.6450  212.0180  148.3100 C   0  0  0  0  0  0  0  0  0  0  0  0
  154.7860  212.5390  154.0820 C   0  0  0  0  0  2  0  0  0  0  0  0
  162.0690  211.2500  147.3000 C   0  0  0  0  0  3  0  0  0  0  0  0
  157.1470  213.4460  157.2580 O   0  0  0  0  0  0  0  0  0  0  0  0
  158.4130  211.8570  152.7720 C   0  0  2  0  0  3  0  0  0  0  0  0
  160.7730  214.1290  149.1190 C   0  0  0  0  0  0  0  0  0  0  0  0
  161.8730  204.5420  150.3970 C   0  0  0  0  0  2  0  0  0  0  0  0
  160.7850  209.2400  152.5240 C   0  0  0  0  0  0  0  0  0  0  0  0
  161.3800  207.6460  150.7420 O   0  0  0  0  0  0  0  0  0  0  0  0
  163.4170  206.6570  152.2200 O   0  0  0  0  0  0  0  0  0  0  0  0
  158.9450  209.1890  154.3160 C   0  0  0  0  0  2  0  0  0  0  0  0
  161.4980  205.3770  151.5910 C   0  0  2  0  0  0  0  0  0  0  0  0
  160.0080  208.4170  153.5440 C   0  0  0  0  0  2  0  0  0  0  0  0
  155.9450  212.4030  153.0840 C   0  0  2  0  0  0  0  0  0  0  0  0
  155.6440  211.3710  152.1880 O   0  0  0  0  0  1  0  0  0  0  0  0
  160.6160  206.5900  151.2860 C   0  0  0  0  0  2  0  0  0  0  0  0
  162.8750  211.4480  149.5660 C   0  0  0  0  0  3  0  0  0  0  0  0
  162.8960  213.4780  148.0900 C   0  0  0  0  0  2  0  0  0  0  0  0
  157.2740  212.0940  153.8070 C   0  0  2  0  0  3  0  0  0  0  0  0
  159.4970  210.5460  154.7050 C   0  0  0  0  0  2  0  0  0  0  0  0
  156.1360  213.7170  152.3090 C   0  0  2  0  0  3  0  0  0  0  0  0
  154.9580  214.0880  151.6540 O   0  0  0  0  0  1  0  0  0  0  0  0
  154.5260  211.3230  154.7260 O   0  0  0  0  0  0  0  0  0  0  0  0
  156.6920  211.3090  156.4450 N   0  0  0  0  0  2  0  0  0  0  0  0
  162.6440  205.5490  152.5790 C   0  0  0  0  0  2  0  0  0  0  0  0
  155.3620  211.0320  156.9620 C   0  0  0  0  0  2  0  0  0  0  0  0
  162.7530  207.7550  152.7880 C   0  0  0  0  0  2  0  0  0  0  0  0
  160.1620  214.0770  150.3600 O   0  0  0  0  0  0  0  0  0  0  0  0
  159.7350  211.3580  153.4270 C   0  0  1  0  0  3  0  0  0  0  0  0
  160.9380  203.9630  151.4600 C   0  0  1  0  0  3  0  0  0  0  0  0
  160.6520  210.5900  152.4920 C   0  0  0  0  0  3  0  0  0  0  0  0
  161.8980  208.5140  151.7490 C   0  0  1  0  0  0  0  0  0  0  0  0
  157.1560  212.6470  156.2790 C   0  0  0  0  0  0  0  0  0  0  0  0
  159.5290  203.8990  150.9260 C   0  0  0  0  0  0  0  0  0  0  0  0
  158.6540  203.0660  151.4960 C   0  0  0  0  0  2  0  0  0  0  0  0
  159.2520  204.3600  149.5300 C   0  0  0  0  0  2  0  0  0  0  0  0
  160.5100  204.8740  148.8470 C   0  0  0  0  0  2  0  0  0  0  0  0
  160.8300  205.1780  146.2740 C   0  0  2  0  0  3  0  0  0  0  0  0
  160.6530  204.2310  147.4670 C   0  0  2  0  0  0  0  0  0  0  0  0
  161.7140  203.1510  147.4630 C   0  0  2  0  0  3  0  0  0  0  0  0
  162.0380  204.5380  146.9270 C   0  0  1  0  0  3  0  0  0  0  0  0
  160.8080  206.6650  146.6100 C   0  0  0  0  0  1  0  0  0  0  0  0
  161.4010  202.1620  146.3470 C   0  0  0  0  0  2  0  0  0  0  0  0
  159.9030  202.0790  146.0760 C   0  0  0  0  0  2  0  0  0  0  0  0
  159.4860  200.6380  145.8920 C   0  0  1  0  0  3  0  0  0  0  0  0
  158.8900  200.4730  144.6520 F   0  0  0  0  0  0  0  0  0  0  0  0
  160.7110  199.7480  145.9920 C   0  0  0  0  0  2  0  0  0  0  0  0
  160.4370  198.4110  145.3230 C   0  0  0  0  0  1  0  0  0  0  0  0
  158.9110  213.5710  154.9330 O   0  0  0  0  0  0  0  0  0  0  0  0
  159.4350  213.0980  156.1380 C   0  0  0  0  0  2  0  0  0  0  0  0
  160.9490  213.1550  156.1060 C   0  0  2  0  0  3  0  0  0  0  0  0
  161.1630  210.9720  157.1680 N   0  0  0  0  0  0  0  0  0  0  0  0
  162.4960  211.2380  155.3530 N   0  0  0  0  0  2  0  0  0  0  0  0
  161.5030  211.7730  156.2220 C   0  0  0  0  0  0  0  0  0  0  0  0
  162.7560  209.8990  155.8600 C   0  0  0  0  0  3  0  0  0  0  0  0
  161.8910  209.7880  157.0280 N   0  0  0  0  0  0  0  0  0  0  0  0
  162.8480  214.0890  157.2040 O   0  0  0  0  0  1  0  0  0  0  0  0
  161.4600  214.0440  157.2370 C   0  0  0  0  0  2  0  0  0  0  0  0
  1 37  1  0  0  0  0
  2  6  1  6  0  0  0
  2 16  1  0  0  0  0
  3  7  1  0  0  0  0
  4 17  1  0  0  0  0
  5  2  1  0  0  0  0
  5 32  1  0  0  0  0
  7 43  1  0  0  0  0
  8 17  2  0  0  0  0
  9  3  2  0  0  0  0
 10 60  1  1  0  0  0
 10 44  1  0  0  0  0
 11  9  1  0  0  0  0
 12 28  2  0  0  0  0
 13 34  1  0  0  0  0
 14 11  2  0  0  0  0
 14 12  1  0  0  0  0
 16 40  1  0  0  0  0
 16 30  1  0  0  0  0
 17 39  1  0  0  0  0
 18 41  1  0  0  0  0
 18 23  1  0  0  0  0
 19 24  1  0  0  0  0
 20 27  1  0  0  0  0
 20 43  1  0  0  0  0
 21 36  1  0  0  0  0
 21 38  1  0  0  0  0
 22 31  1  0  0  0  0
 23 36  1  0  0  0  0
 24 22  1  0  0  0  0
 25 30  1  0  0  0  0
 25 13  1  0  0  0  0
 26 25  1  0  0  0  0
 27 23  1  0  0  0  0
 28  3  1  0  0  0  0
 29 12  1  0  0  0  0
 29  4  1  0  0  0  0
 30 10  1  0  0  0  0
 32 25  1  0  0  0  0
 33 32  1  0  0  0  0
 34  1  1  0  0  0  0
 35 37  1  0  0  0  0
 39  6  1  0  0  0  0
 40 31  1  0  0  0  0
 41 23  1  0  0  0  0
 42 19  2  0  0  0  0
 42 40  1  0  0  0  0
 43 19  1  0  0  0  0
 43 38  1  0  0  0  0
 44 35  1  0  0  0  0
 44 15  2  0  0  0  0
 45 41  1  0  0  0  0
 45 46  2  0  0  0  0
 47 45  1  0  0  0  0
 48 47  1  0  0  0  0
 49 53  1  0  0  0  0
 49 52  1  0  0  0  0
 49 50  1  0  0  0  0
 50 48  1  0  0  0  0
 51 50  1  0  0  0  0
 52 51  1  0  0  0  0
 52 50  1  0  0  0  0
 54 51  1  0  0  0  0
 55 54  1  0  0  0  0
 56 58  1  0  0  0  0
 56 55  1  0  0  0  0
 57 56  1  0  0  0  0
 59 58  1  0  0  0  0
 60 61  1  0  0  0  0
 62 61  1  0  0  0  0
 62 65  1  0  0  0  0
 62 69  1  0  0  0  0
 64 66  1  0  0  0  0
 64 65  1  0  0  0  0
 65 63  2  0  0  0  0
 66 67  2  0  0  0  0
 67 63  1  0  0  0  0
 68 69  1  0  0  0  0
M  END
>  <MODEL>
1

>  <REMARK>
 VINA RESULT:      16.4      0.000      0.000
  Name = 
  13 active torsions:
  status: ('A' for Active; 'I' for Inactive)
    1  A    between atoms: C_7  and  C_56
    2  A    between atoms: C_7  and  C_66
    3  A    between atoms: C_8  and  C_30
    4  A    between atoms: O_11  and  C_18
    5  A    between atoms: O_11  and  C_28
    6  A    between atoms: C_12  and  C_22
    7  A    between atoms: C_12  and  C_57
    8  A    between atoms: C_15  and  C_57
    9  A    between atoms: C_19  and  C_28
   10  A    between atoms: C_19  and  C_40
   11  A    between atoms: C_19  and  C_64
   12  A    between atoms: C_22  and  C_54
   13  A    between atoms: C_30  and  C_56
                            x       y       z     vdW  Elec       q    Type
                         _______ _______ _______ _____ _____    ______ ____

>  <TORSDO>
F 13

$$$$
