=
 OpenBabel11072413113D

 34 38  0  0  1  0  0  0  0  0999 V2000
  161.1540  209.6860  152.6570 C   0  0  0  0  0  0  0  0  0  0  0  0
  158.6450  210.7210  155.8500 O   0  0  0  0  0  1  0  0  0  0  0  0
  162.1640  210.3710  150.5090 N   0  0  0  0  0  0  0  0  0  0  0  0
  160.3540  209.2980  154.9150 C   0  0  0  0  0  3  0  0  0  0  0  0
  159.4500  211.1290  153.6130 C   0  0  0  0  0  3  0  0  0  0  0  0
  161.9830  209.2640  151.4630 C   0  0  2  0  0  3  0  0  0  0  0  0
  159.4790  210.3810  154.7930 C   0  0  0  0  0  0  0  0  0  0  0  0
  161.3670  211.3970  150.4140 C   0  0  0  0  0  0  0  0  0  0  0  0
  161.1890  208.9490  153.8480 C   0  0  0  0  0  3  0  0  0  0  0  0
  160.2880  210.7850  152.5490 C   0  0  0  0  0  0  0  0  0  0  0  0
  160.3330  211.6000  151.3790 N   0  0  0  0  0  2  0  0  0  0  0  0
  162.1170  213.1340  144.9380 C   0  0  0  0  0  3  0  0  0  0  0  0
  161.9060  213.3750  146.2980 C   0  0  0  0  0  0  0  0  0  0  0  0
  160.4480  214.3230  148.1490 C   0  0  0  0  0  2  0  0  0  0  0  0
  161.1700  213.5620  144.0080 C   0  0  0  0  0  3  0  0  0  0  0  0
  162.3530  211.8190  148.1840 C   0  0  0  0  0  2  0  0  0  0  0  0
  162.9290  212.9010  147.2810 C   0  0  0  0  0  2  0  0  0  0  0  0
  160.0480  214.2080  144.4240 N   0  0  0  0  0  0  0  0  0  0  0  0
  161.5840  212.4280  149.3540 C   0  0  1  0  0  3  0  0  0  0  0  0
  160.7380  214.0460  146.7080 C   0  0  0  0  0  0  0  0  0  0  0  0
  160.2470  213.0270  148.9220 C   0  0  0  0  0  2  0  0  0  0  0  0
  159.8150  214.4530  145.7410 C   0  0  0  0  0  3  0  0  0  0  0  0
  161.0690  205.6870  149.1970 C   0  0  0  0  0  0  0  0  0  0  0  0
  160.6470  204.6300  148.3970 O   0  0  0  0  0  1  0  0  0  0  0  0
  161.7500  206.7020  151.3450 C   0  0  1  0  0  3  0  0  0  0  0  0
  161.5900  208.0750  149.2590 C   0  0  0  0  0  3  0  0  0  0  0  0
  161.4190  206.9640  148.5410 C   0  0  0  0  0  3  0  0  0  0  0  0
  163.1420  206.5820  151.3850 O   0  0  0  0  0  1  0  0  0  0  0  0
  161.3390  208.0610  150.7460 C   0  0  2  0  0  3  0  0  0  0  0  0
  161.1700  205.5600  150.5410 C   0  0  0  0  0  0  0  0  0  0  0  0
  160.8200  204.3160  151.2640 C   0  0  0  0  0  0  0  0  0  0  0  0
  160.9550  204.2310  152.5150 O   0  0  0  0  0  0  0  0  0  0  0  0
  160.3410  203.2210  150.5400 O   0  0  0  0  0  0  0  0  0  0  0  0
  160.9380  201.9370  150.6360 C   0  0  0  0  0  1  0  0  0  0  0  0
  1  9  1  0  0  0  0
  5  7  2  0  0  0  0
  6  3  1  6  0  0  0
  6  1  1  0  0  0  0
  7  4  1  0  0  0  0
  7  2  1  0  0  0  0
  8  3  2  0  0  0  0
  8 11  1  0  0  0  0
  9  4  2  0  0  0  0
 10  1  2  0  0  0  0
 10  5  1  0  0  0  0
 11 10  1  0  0  0  0
 12 13  1  0  0  0  0
 13 20  2  0  0  0  0
 13 17  1  0  0  0  0
 14 21  1  0  0  0  0
 15 18  1  0  0  0  0
 15 12  2  0  0  0  0
 16 19  1  0  0  0  0
 17 16  1  0  0  0  0
 18 22  2  0  0  0  0
 19  8  1  1  0  0  0
 20 14  1  0  0  0  0
 21 19  1  0  0  0  0
 22 20  1  0  0  0  0
 23 30  2  0  0  0  0
 24 23  1  0  0  0  0
 25 28  1  6  0  0  0
 27 23  1  0  0  0  0
 27 26  2  0  0  0  0
 29 26  1  6  0  0  0
 29 25  1  0  0  0  0
 29  6  1  0  0  0  0
 30 31  1  0  0  0  0
 30 25  1  0  0  0  0
 31 32  2  0  0  0  0
 33 34  1  0  0  0  0
 33 31  1  0  0  0  0
M  END
>  <MODEL>
1

>  <REMARK>
 VINA RESULT:      -8.1      0.000      0.000
  Name = 
  4 active torsions:
  status: ('A' for Active; 'I' for Inactive)
    1  A    between atoms: O_9  and  C_15
    2  A    between atoms: C_15  and  C_30
    3  A    between atoms: C_17  and  C_27
    4  A    between atoms: C_24  and  C_25
                            x       y       z     vdW  Elec       q    Type
                         _______ _______ _______ _____ _____    ______ ____

>  <TORSDO>
F 4

$$$$
=
 OpenBabel11072413113D

 34 38  0  0  1  0  0  0  0  0999 V2000
  158.4320  212.8000  154.2920 C   0  0  0  0  0  0  0  0  0  0  0  0
  154.8610  213.7000  156.2910 O   0  0  0  0  0  1  0  0  0  0  0  0
  159.7260  212.9480  152.1930 N   0  0  0  0  0  0  0  0  0  0  0  0
  157.1770  213.0280  156.3560 C   0  0  0  0  0  3  0  0  0  0  0  0
  156.1060  213.4990  154.2350 C   0  0  0  0  0  3  0  0  0  0  0  0
  159.6840  212.3840  153.5520 C   0  0  2  0  0  3  0  0  0  0  0  0
  156.0450  213.4060  155.6280 C   0  0  0  0  0  0  0  0  0  0  0  0
  158.6750  213.3310  151.5240 C   0  0  0  0  0  0  0  0  0  0  0  0
  158.3670  212.7230  155.6890 C   0  0  0  0  0  3  0  0  0  0  0  0
  157.2980  213.2000  153.5690 C   0  0  0  0  0  0  0  0  0  0  0  0
  157.3960  213.3860  152.1580 N   0  0  0  0  0  2  0  0  0  0  0  0
  160.6010  212.9540  146.0730 C   0  0  0  0  0  3  0  0  0  0  0  0
  159.8140  213.5300  147.0730 C   0  0  0  0  0  0  0  0  0  0  0  0
  157.5150  214.1190  147.9780 C   0  0  0  0  0  2  0  0  0  0  0  0
  159.9870  212.3880  144.9550 C   0  0  0  0  0  3  0  0  0  0  0  0
  160.1410  213.3460  149.5300 C   0  0  0  0  0  2  0  0  0  0  0  0
  160.4890  214.1240  148.2690 C   0  0  0  0  0  2  0  0  0  0  0  0
  158.6320  212.3970  144.8420 N   0  0  0  0  0  0  0  0  0  0  0  0
  158.8090  213.8110  150.1150 C   0  0  1  0  0  3  0  0  0  0  0  0
  158.4120  213.5290  146.9370 C   0  0  0  0  0  0  0  0  0  0  0  0
  157.6150  213.3420  149.2840 C   0  0  0  0  0  2  0  0  0  0  0  0
  157.8420  212.9480  145.8020 C   0  0  0  0  0  3  0  0  0  0  0  0
  160.9240  208.2420  153.2720 C   0  0  0  0  0  0  0  0  0  0  0  0
  161.1920  206.8930  153.0670 O   0  0  0  0  0  1  0  0  0  0  0  0
  160.5280  210.2310  154.6850 C   0  0  1  0  0  3  0  0  0  0  0  0
  160.4170  210.3760  152.1900 C   0  0  0  0  0  3  0  0  0  0  0  0
  160.9050  209.1370  152.0970 C   0  0  0  0  0  3  0  0  0  0  0  0
  161.7840  210.8210  154.8530 O   0  0  0  0  0  1  0  0  0  0  0  0
  159.7940  210.8480  153.4800 C   0  0  2  0  0  3  0  0  0  0  0  0
  160.6930  208.7380  154.5110 C   0  0  0  0  0  0  0  0  0  0  0  0
  160.6800  207.8960  155.7290 C   0  0  0  0  0  0  0  0  0  0  0  0
  159.6380  207.2800  156.0830 O   0  0  0  0  0  0  0  0  0  0  0  0
  161.8440  207.7940  156.4970 O   0  0  0  0  0  0  0  0  0  0  0  0
  162.3390  208.8840  157.2600 C   0  0  0  0  0  1  0  0  0  0  0  0
  1  9  1  0  0  0  0
  5  7  2  0  0  0  0
  6  3  1  6  0  0  0
  6  1  1  0  0  0  0
  7  2  1  0  0  0  0
  7  4  1  0  0  0  0
  8 11  1  0  0  0  0
  8  3  2  0  0  0  0
  9  4  2  0  0  0  0
 10  5  1  0  0  0  0
 10  1  2  0  0  0  0
 11 10  1  0  0  0  0
 12 13  1  0  0  0  0
 13 17  1  0  0  0  0
 14 21  1  0  0  0  0
 15 12  2  0  0  0  0
 16 19  1  0  0  0  0
 17 16  1  0  0  0  0
 18 15  1  0  0  0  0
 18 22  2  0  0  0  0
 19  8  1  1  0  0  0
 20 13  2  0  0  0  0
 20 14  1  0  0  0  0
 21 19  1  0  0  0  0
 22 20  1  0  0  0  0
 23 30  2  0  0  0  0
 24 23  1  0  0  0  0
 25 28  1  6  0  0  0
 27 26  2  0  0  0  0
 27 23  1  0  0  0  0
 29 26  1  6  0  0  0
 29  6  1  0  0  0  0
 29 25  1  0  0  0  0
 30 25  1  0  0  0  0
 30 31  1  0  0  0  0
 31 32  2  0  0  0  0
 31 33  1  0  0  0  0
 33 34  1  0  0  0  0
M  END
>  <MODEL>
2

>  <REMARK>
 VINA RESULT:      -7.1      2.857      4.456
  Name = 
  4 active torsions:
  status: ('A' for Active; 'I' for Inactive)
    1  A    between atoms: O_9  and  C_15
    2  A    between atoms: C_15  and  C_30
    3  A    between atoms: C_17  and  C_27
    4  A    between atoms: C_24  and  C_25
                            x       y       z     vdW  Elec       q    Type
                         _______ _______ _______ _____ _____    ______ ____

>  <TORSDO>
F 4

$$$$
=
 OpenBabel11072413113D

 34 38  0  0  1  0  0  0  0  0999 V2000
  162.0780  208.5560  149.4830 C   0  0  0  0  0  0  0  0  0  0  0  0
  161.1400  204.7250  148.0700 O   0  0  0  0  0  1  0  0  0  0  0  0
  162.1150  210.1030  151.4080 N   0  0  0  0  0  0  0  0  0  0  0  0
  162.2830  206.8300  147.7900 C   0  0  0  0  0  3  0  0  0  0  0  0
  160.9480  206.4250  149.7690 C   0  0  0  0  0  3  0  0  0  0  0  0
  162.3290  209.9710  149.9580 C   0  0  2  0  0  3  0  0  0  0  0  0
  161.4540  205.9920  148.5410 C   0  0  0  0  0  0  0  0  0  0  0  0
  161.3670  209.3050  152.1170 C   0  0  0  0  0  0  0  0  0  0  0  0
  162.5930  208.1110  148.2580 C   0  0  0  0  0  3  0  0  0  0  0  0
  161.2630  207.7020  150.2420 C   0  0  0  0  0  0  0  0  0  0  0  0
  160.8310  208.1140  151.5370 N   0  0  0  0  0  2  0  0  0  0  0  0
  160.4750  212.7570  156.6830 C   0  0  0  0  0  3  0  0  0  0  0  0
  160.5540  211.5030  156.0730 C   0  0  0  0  0  0  0  0  0  0  0  0
  159.4350  209.3240  155.4030 C   0  0  0  0  0  2  0  0  0  0  0  0
  159.2730  213.1670  157.2610 C   0  0  0  0  0  3  0  0  0  0  0  0
  161.7040  210.9410  153.9420 C   0  0  0  0  0  2  0  0  0  0  0  0
  161.8490  211.0850  155.4510 C   0  0  0  0  0  2  0  0  0  0  0  0
  158.1870  212.3500  157.2280 N   0  0  0  0  0  0  0  0  0  0  0  0
  161.1410  209.5720  153.5690 C   0  0  1  0  0  3  0  0  0  0  0  0
  159.4170  210.6720  156.0500 C   0  0  0  0  0  0  0  0  0  0  0  0
  159.6550  209.4460  153.9020 C   0  0  0  0  0  2  0  0  0  0  0  0
  158.2340  211.1260  156.6390 C   0  0  0  0  0  3  0  0  0  0  0  0
  160.4700  213.4040  148.0790 C   0  0  0  0  0  0  0  0  0  0  0  0
  159.7250  214.4530  147.5520 O   0  0  0  0  0  1  0  0  0  0  0  0
  162.0690  211.5260  147.9220 C   0  0  1  0  0  3  0  0  0  0  0  0
  160.9600  212.1000  150.0890 C   0  0  0  0  0  3  0  0  0  0  0  0
  160.4760  213.2180  149.5450 C   0  0  0  0  0  3  0  0  0  0  0  0
  163.3210  212.0830  148.1970 O   0  0  0  0  0  1  0  0  0  0  0  0
  161.4270  210.9700  149.2070 C   0  0  2  0  0  3  0  0  0  0  0  0
  161.1830  212.5720  147.2840 C   0  0  0  0  0  0  0  0  0  0  0  0
  161.2080  212.6900  145.8080 C   0  0  0  0  0  0  0  0  0  0  0  0
  162.1710  213.2510  145.2170 O   0  0  0  0  0  0  0  0  0  0  0  0
  160.1400  212.1780  145.0660 O   0  0  0  0  0  0  0  0  0  0  0  0
  160.0960  212.2670  143.6500 C   0  0  0  0  0  1  0  0  0  0  0  0
  1 10  1  0  0  0  0
  2  7  1  0  0  0  0
  3  8  2  0  0  0  0
  4  9  1  0  0  0  0
  4  7  2  0  0  0  0
  5 10  2  0  0  0  0
  6  1  1  6  0  0  0
  6  3  1  0  0  0  0
  7  5  1  0  0  0  0
  9  1  2  0  0  0  0
 10 11  1  0  0  0  0
 11  8  1  0  0  0  0
 12 15  1  0  0  0  0
 13 12  2  0  0  0  0
 14 20  1  0  0  0  0
 16 17  1  0  0  0  0
 17 13  1  0  0  0  0
 18 15  2  0  0  0  0
 19  8  1  6  0  0  0
 19 21  1  0  0  0  0
 19 16  1  0  0  0  0
 20 13  1  0  0  0  0
 20 22  2  0  0  0  0
 21 14  1  0  0  0  0
 22 18  1  0  0  0  0
 23 27  1  0  0  0  0
 24 23  1  0  0  0  0
 25 28  1  1  0  0  0
 25 29  1  0  0  0  0
 27 26  2  0  0  0  0
 29  6  1  0  0  0  0
 29 26  1  1  0  0  0
 30 25  1  0  0  0  0
 30 23  2  0  0  0  0
 31 30  1  0  0  0  0
 32 31  2  0  0  0  0
 33 31  1  0  0  0  0
 34 33  1  0  0  0  0
M  END
>  <MODEL>
3

>  <REMARK>
 VINA RESULT:      -6.5      3.395      8.206
  Name = 
  4 active torsions:
  status: ('A' for Active; 'I' for Inactive)
    1  A    between atoms: O_9  and  C_15
    2  A    between atoms: C_15  and  C_30
    3  A    between atoms: C_17  and  C_27
    4  A    between atoms: C_24  and  C_25
                            x       y       z     vdW  Elec       q    Type
                         _______ _______ _______ _____ _____    ______ ____

>  <TORSDO>
F 4

$$$$
=
 OpenBabel11072413113D

 34 38  0  0  1  0  0  0  0  0999 V2000
  162.1480  210.0850  149.8540 C   0  0  0  0  0  0  0  0  0  0  0  0
  160.9380  212.9750  147.0720 O   0  0  0  0  0  1  0  0  0  0  0  0
  162.6690  207.7080  150.2790 N   0  0  0  0  0  0  0  0  0  0  0  0
  161.9250  212.4110  149.1990 C   0  0  0  0  0  3  0  0  0  0  0  0
  161.1760  210.6600  147.7040 C   0  0  0  0  0  3  0  0  0  0  0  0
  162.4900  209.0360  150.8900 C   0  0  2  0  0  3  0  0  0  0  0  0
  161.3430  212.0170  147.9910 C   0  0  0  0  0  0  0  0  0  0  0  0
  162.1520  207.3480  149.1380 C   0  0  0  0  0  0  0  0  0  0  0  0
  162.3250  211.4470  150.1300 C   0  0  0  0  0  3  0  0  0  0  0  0
  161.5810  209.6960  148.6310 C   0  0  0  0  0  0  0  0  0  0  0  0
  161.5030  208.3100  148.3040 N   0  0  0  0  0  2  0  0  0  0  0  0
  160.1900  202.1080  147.6370 C   0  0  0  0  0  3  0  0  0  0  0  0
  161.1910  203.0790  147.7270 C   0  0  0  0  0  0  0  0  0  0  0  0
  162.8580  204.6120  146.5790 C   0  0  0  0  0  2  0  0  0  0  0  0
  159.8010  201.6350  146.3840 C   0  0  0  0  0  3  0  0  0  0  0  0
  161.2330  205.0530  149.2370 C   0  0  0  0  0  2  0  0  0  0  0  0
  161.5880  203.5810  149.0790 C   0  0  0  0  0  2  0  0  0  0  0  0
  160.3920  202.1170  145.2580 N   0  0  0  0  0  0  0  0  0  0  0  0
  162.3170  205.9480  148.6420 C   0  0  1  0  0  3  0  0  0  0  0  0
  161.7900  203.5650  146.5490 C   0  0  0  0  0  0  0  0  0  0  0  0
  162.3120  205.9290  147.1140 C   0  0  0  0  0  2  0  0  0  0  0  0
  161.3660  203.0640  145.3160 C   0  0  0  0  0  3  0  0  0  0  0  0
  160.1730  208.7540  154.5390 C   0  0  0  0  0  0  0  0  0  0  0  0
  159.3280  208.5490  155.6250 O   0  0  0  0  0  1  0  0  0  0  0  0
  161.4210  210.1670  152.9410 C   0  0  1  0  0  3  0  0  0  0  0  0
  161.4480  207.6720  152.7550 C   0  0  0  0  0  3  0  0  0  0  0  0
  160.8320  207.5780  153.9340 C   0  0  0  0  0  3  0  0  0  0  0  0
  162.6900  210.3280  153.5040 O   0  0  0  0  0  1  0  0  0  0  0  0
  161.4020  208.9640  151.9790 C   0  0  2  0  0  3  0  0  0  0  0  0
  160.4010  209.9930  154.0430 C   0  0  0  0  0  0  0  0  0  0  0  0
  159.7600  211.2120  154.5890 C   0  0  0  0  0  0  0  0  0  0  0  0
  160.3550  211.9360  155.4340 O   0  0  0  0  0  0  0  0  0  0  0  0
  158.4730  211.5530  154.1630 O   0  0  0  0  0  0  0  0  0  0  0  0
  157.3460  211.4540  155.0210 C   0  0  0  0  0  1  0  0  0  0  0  0
  1  9  1  0  0  0  0
  2  7  1  0  0  0  0
  3  6  1  0  0  0  0
  4  9  2  0  0  0  0
  5  7  2  0  0  0  0
  5 10  1  0  0  0  0
  6  1  1  6  0  0  0
  6 29  1  0  0  0  0
  7  4  1  0  0  0  0
  8  3  2  0  0  0  0
 10  1  2  0  0  0  0
 11 10  1  0  0  0  0
 11  8  1  0  0  0  0
 12 13  1  0  0  0  0
 13 17  1  0  0  0  0
 14 21  1  0  0  0  0
 15 12  2  0  0  0  0
 17 16  1  0  0  0  0
 18 22  2  0  0  0  0
 18 15  1  0  0  0  0
 19  8  1  6  0  0  0
 19 16  1  0  0  0  0
 20 14  1  0  0  0  0
 20 13  2  0  0  0  0
 21 19  1  0  0  0  0
 22 20  1  0  0  0  0
 23 24  1  0  0  0  0
 25 28  1  1  0  0  0
 25 30  1  0  0  0  0
 26 27  2  0  0  0  0
 27 23  1  0  0  0  0
 29 26  1  1  0  0  0
 29 25  1  0  0  0  0
 30 23  2  0  0  0  0
 30 31  1  0  0  0  0
 31 32  2  0  0  0  0
 33 31  1  0  0  0  0
 33 34  1  0  0  0  0
M  END
>  <MODEL>
4

>  <REMARK>
 VINA RESULT:      -6.4      3.200      7.669
  Name = 
  4 active torsions:
  status: ('A' for Active; 'I' for Inactive)
    1  A    between atoms: O_9  and  C_15
    2  A    between atoms: C_15  and  C_30
    3  A    between atoms: C_17  and  C_27
    4  A    between atoms: C_24  and  C_25
                            x       y       z     vdW  Elec       q    Type
                         _______ _______ _______ _____ _____    ______ ____

>  <TORSDO>
F 4

$$$$
=
 OpenBabel11072413113D

 34 38  0  0  1  0  0  0  0  0999 V2000
  162.0960  210.1570  150.0710 C   0  0  0  0  0  0  0  0  0  0  0  0
  161.1500  212.5050  146.7320 O   0  0  0  0  0  1  0  0  0  0  0  0
  162.4810  207.8870  150.9660 N   0  0  0  0  0  0  0  0  0  0  0  0
  162.0160  212.3210  148.9750 C   0  0  0  0  0  3  0  0  0  0  0  0
  161.2460  210.3460  147.8030 C   0  0  0  0  0  3  0  0  0  0  0  0
  162.3410  209.3130  151.3030 C   0  0  2  0  0  3  0  0  0  0  0  0
  161.4670  211.7260  147.8360 C   0  0  0  0  0  0  0  0  0  0  0  0
  161.9970  207.3360  149.8890 C   0  0  0  0  0  0  0  0  0  0  0  0
  162.3280  211.5390  150.0920 C   0  0  0  0  0  3  0  0  0  0  0  0
  161.5640  209.5630  148.9160 C   0  0  0  0  0  0  0  0  0  0  0  0
  161.4320  208.1440  148.8550 N   0  0  0  0  0  2  0  0  0  0  0  0
  160.0630  201.8820  150.1670 C   0  0  0  0  0  3  0  0  0  0  0  0
  160.9790  202.8530  149.7570 C   0  0  0  0  0  0  0  0  0  0  0  0
  162.1510  204.0990  147.8800 C   0  0  0  0  0  2  0  0  0  0  0  0
  159.3750  201.1370  149.2080 C   0  0  0  0  0  3  0  0  0  0  0  0
  161.3030  205.1160  150.7340 C   0  0  0  0  0  2  0  0  0  0  0  0
  161.7010  203.6480  150.8000 C   0  0  0  0  0  2  0  0  0  0  0  0
  159.5950  201.3580  147.8850 N   0  0  0  0  0  0  0  0  0  0  0  0
  162.1140  205.8610  149.6770 C   0  0  1  0  0  3  0  0  0  0  0  0
  161.1930  203.0660  148.3820 C   0  0  0  0  0  0  0  0  0  0  0  0
  161.6860  205.4990  148.2550 C   0  0  0  0  0  2  0  0  0  0  0  0
  160.4790  202.2990  147.4580 C   0  0  0  0  0  3  0  0  0  0  0  0
  159.8310  209.6400  154.8190 C   0  0  0  0  0  0  0  0  0  0  0  0
  158.9090  209.6470  155.8600 O   0  0  0  0  0  1  0  0  0  0  0  0
  161.3990  210.7210  153.2430 C   0  0  1  0  0  3  0  0  0  0  0  0
  160.9710  208.2570  153.1550 C   0  0  0  0  0  3  0  0  0  0  0  0
  160.2900  208.3350  154.2990 C   0  0  0  0  0  3  0  0  0  0  0  0
  162.6460  210.6740  153.8720 O   0  0  0  0  0  1  0  0  0  0  0  0
  161.2050  209.4960  152.3280 C   0  0  2  0  0  3  0  0  0  0  0  0
  160.3100  210.7910  154.2890 C   0  0  0  0  0  0  0  0  0  0  0  0
  159.8810  212.1320  154.7490 C   0  0  0  0  0  0  0  0  0  0  0  0
  160.3410  212.6330  155.8110 O   0  0  0  0  0  0  0  0  0  0  0  0
  158.9430  212.8420  153.9930 O   0  0  0  0  0  0  0  0  0  0  0  0
  157.5480  212.7410  154.2370 C   0  0  0  0  0  1  0  0  0  0  0  0
  1  9  1  0  0  0  0
  2  7  1  0  0  0  0
  3  6  1  0  0  0  0
  4  9  2  0  0  0  0
  5  7  2  0  0  0  0
  5 10  1  0  0  0  0
  6  1  1  6  0  0  0
  6 29  1  0  0  0  0
  7  4  1  0  0  0  0
  8  3  2  0  0  0  0
 10  1  2  0  0  0  0
 11 10  1  0  0  0  0
 11  8  1  0  0  0  0
 13 12  1  0  0  0  0
 13 17  1  0  0  0  0
 14 21  1  0  0  0  0
 14 20  1  0  0  0  0
 15 12  2  0  0  0  0
 16 17  1  0  0  0  0
 18 15  1  0  0  0  0
 19  8  1  1  0  0  0
 19 16  1  0  0  0  0
 20 13  2  0  0  0  0
 21 19  1  0  0  0  0
 22 18  2  0  0  0  0
 22 20  1  0  0  0  0
 23 24  1  0  0  0  0
 25 28  1  1  0  0  0
 25 30  1  0  0  0  0
 26 27  2  0  0  0  0
 27 23  1  0  0  0  0
 29 26  1  1  0  0  0
 29 25  1  0  0  0  0
 30 31  1  0  0  0  0
 30 23  2  0  0  0  0
 31 32  2  0  0  0  0
 33 34  1  0  0  0  0
 33 31  1  0  0  0  0
M  END
>  <MODEL>
5

>  <REMARK>
 VINA RESULT:      -5.8      3.338      8.188
  Name = 
  4 active torsions:
  status: ('A' for Active; 'I' for Inactive)
    1  A    between atoms: O_9  and  C_15
    2  A    between atoms: C_15  and  C_30
    3  A    between atoms: C_17  and  C_27
    4  A    between atoms: C_24  and  C_25
                            x       y       z     vdW  Elec       q    Type
                         _______ _______ _______ _____ _____    ______ ____

>  <TORSDO>
F 4

$$$$
=
 OpenBabel11072413113D

 34 38  0  0  1  0  0  0  0  0999 V2000
  162.1450  207.1360  150.5320 C   0  0  0  0  0  0  0  0  0  0  0  0
  160.7350  206.7170  154.4560 O   0  0  0  0  0  1  0  0  0  0  0  0
  162.5980  208.6640  148.6450 N   0  0  0  0  0  0  0  0  0  0  0  0
  161.9560  205.8350  152.5720 C   0  0  0  0  0  3  0  0  0  0  0  0
  160.9370  208.0270  152.4410 C   0  0  0  0  0  3  0  0  0  0  0  0
  162.5640  207.2590  149.0830 C   0  0  2  0  0  3  0  0  0  0  0  0
  161.2060  206.8580  153.1580 C   0  0  0  0  0  0  0  0  0  0  0  0
  161.9230  209.6260  149.2080 C   0  0  0  0  0  0  0  0  0  0  0  0
  162.4230  205.9720  151.2610 C   0  0  0  0  0  3  0  0  0  0  0  0
  161.4090  208.1680  151.1330 C   0  0  0  0  0  0  0  0  0  0  0  0
  161.2210  209.3950  150.4310 N   0  0  0  0  0  2  0  0  0  0  0  0
  163.4000  213.5630  145.2230 C   0  0  0  0  0  3  0  0  0  0  0  0
  162.7070  213.1540  146.3650 C   0  0  0  0  0  0  0  0  0  0  0  0
  160.5000  212.7530  147.5550 C   0  0  0  0  0  2  0  0  0  0  0  0
  162.6880  214.0010  144.1060 C   0  0  0  0  0  3  0  0  0  0  0  0
  163.2250  211.2020  147.8150 C   0  0  0  0  0  2  0  0  0  0  0  0
  163.4870  212.6780  147.5500 C   0  0  0  0  0  2  0  0  0  0  0  0
  161.3290  214.0270  144.1300 N   0  0  0  0  0  0  0  0  0  0  0  0
  161.9540  211.0060  148.6370 C   0  0  1  0  0  3  0  0  0  0  0  0
  161.2990  213.1890  146.3690 C   0  0  0  0  0  0  0  0  0  0  0  0
  160.6880  211.2660  147.8200 C   0  0  0  0  0  2  0  0  0  0  0  0
  160.6290  213.6320  145.2260 C   0  0  0  0  0  3  0  0  0  0  0  0
  160.6070  205.1050  145.8740 C   0  0  0  0  0  0  0  0  0  0  0  0
  159.8350  204.5030  144.8850 O   0  0  0  0  0  1  0  0  0  0  0  0
  162.1820  205.0720  147.7790 C   0  0  1  0  0  3  0  0  0  0  0  0
  161.2180  207.2210  146.9360 C   0  0  0  0  0  3  0  0  0  0  0  0
  160.7060  206.5790  145.8850 C   0  0  0  0  0  3  0  0  0  0  0  0
  163.4520  205.1990  147.2090 O   0  0  0  0  0  1  0  0  0  0  0  0
  161.6210  206.4520  148.1690 C   0  0  2  0  0  3  0  0  0  0  0  0
  161.2630  204.3710  146.8040 C   0  0  0  0  0  0  0  0  0  0  0  0
  161.1930  202.8930  146.8630 C   0  0  0  0  0  0  0  0  0  0  0  0
  161.2060  202.1990  145.8100 O   0  0  0  0  0  0  0  0  0  0  0  0
  161.1030  202.2650  148.1090 O   0  0  0  0  0  0  0  0  0  0  0  0
  161.2060  200.8560  148.2500 C   0  0  0  0  0  1  0  0  0  0  0  0
  1 10  2  0  0  0  0
  1  9  1  0  0  0  0
  3  8  2  0  0  0  0
  4  7  1  0  0  0  0
  5  7  2  0  0  0  0
  6  3  1  6  0  0  0
  6  1  1  0  0  0  0
  7  2  1  0  0  0  0
  8 11  1  0  0  0  0
  9  4  2  0  0  0  0
 10  5  1  0  0  0  0
 11 10  1  0  0  0  0
 12 13  1  0  0  0  0
 13 20  2  0  0  0  0
 13 17  1  0  0  0  0
 14 21  1  0  0  0  0
 15 18  1  0  0  0  0
 15 12  2  0  0  0  0
 16 19  1  0  0  0  0
 17 16  1  0  0  0  0
 18 22  2  0  0  0  0
 19  8  1  6  0  0  0
 20 14  1  0  0  0  0
 21 19  1  0  0  0  0
 22 20  1  0  0  0  0
 23 27  1  0  0  0  0
 23 30  2  0  0  0  0
 24 23  1  0  0  0  0
 25 28  1  6  0  0  0
 25 29  1  0  0  0  0
 27 26  2  0  0  0  0
 29 26  1  6  0  0  0
 29  6  1  0  0  0  0
 30 31  1  0  0  0  0
 30 25  1  0  0  0  0
 31 33  1  0  0  0  0
 32 31  2  0  0  0  0
 33 34  1  0  0  0  0
M  END
>  <MODEL>
6

>  <REMARK>
 VINA RESULT:      -5.7      2.169      3.188
  Name = 
  4 active torsions:
  status: ('A' for Active; 'I' for Inactive)
    1  A    between atoms: O_9  and  C_15
    2  A    between atoms: C_15  and  C_30
    3  A    between atoms: C_17  and  C_27
    4  A    between atoms: C_24  and  C_25
                            x       y       z     vdW  Elec       q    Type
                         _______ _______ _______ _____ _____    ______ ____

>  <TORSDO>
F 4

$$$$
=
 OpenBabel11072413113D

 34 38  0  0  1  0  0  0  0  0999 V2000
  160.2620  211.0440  139.1450 C   0  0  0  0  0  0  0  0  0  0  0  0
  162.2020  207.3940  138.4560 O   0  0  0  0  0  1  0  0  0  0  0  0
  159.9940  213.0000  140.6290 N   0  0  0  0  0  0  0  0  0  0  0  0
  160.8790  209.2400  137.6440 C   0  0  0  0  0  3  0  0  0  0  0  0
  161.6140  209.1930  139.9500 C   0  0  0  0  0  3  0  0  0  0  0  0
  159.4860  212.3100  139.4320 C   0  0  2  0  0  3  0  0  0  0  0  0
  161.5630  208.6050  138.6840 C   0  0  0  0  0  0  0  0  0  0  0  0
  160.6590  212.4170  141.5860 C   0  0  0  0  0  0  0  0  0  0  0  0
  160.2270  210.4550  137.8730 C   0  0  0  0  0  3  0  0  0  0  0  0
  160.9690  210.4120  140.1800 C   0  0  0  0  0  0  0  0  0  0  0  0
  161.0970  211.0650  141.4410 N   0  0  0  0  0  2  0  0  0  0  0  0
  160.4270  213.6700  147.2370 C   0  0  0  0  0  3  0  0  0  0  0  0
  160.9800  213.7970  145.9600 C   0  0  0  0  0  0  0  0  0  0  0  0
  162.9690  213.5390  144.4040 C   0  0  0  0  0  2  0  0  0  0  0  0
  161.2160  213.1890  148.2830 C   0  0  0  0  0  3  0  0  0  0  0  0
  159.8980  213.2300  143.7960 C   0  0  0  0  0  2  0  0  0  0  0  0
  160.1160  214.3060  144.8500 C   0  0  0  0  0  2  0  0  0  0  0  0
  162.5120  212.8460  148.0590 N   0  0  0  0  0  0  0  0  0  0  0  0
  161.0590  213.1840  142.8050 C   0  0  1  0  0  3  0  0  0  0  0  0
  162.3240  213.4370  145.7490 C   0  0  0  0  0  0  0  0  0  0  0  0
  162.3210  212.5780  143.4160 C   0  0  0  0  0  2  0  0  0  0  0  0
  163.0740  212.9570  146.8260 C   0  0  0  0  0  3  0  0  0  0  0  0
  155.1580  212.1600  139.2940 C   0  0  0  0  0  0  0  0  0  0  0  0
  153.7740  212.1040  139.4240 O   0  0  0  0  0  1  0  0  0  0  0  0
  157.3210  211.4540  138.3300 C   0  0  1  0  0  3  0  0  0  0  0  0
  157.2130  213.1930  140.1250 C   0  0  0  0  0  3  0  0  0  0  0  0
  155.8850  213.2310  140.0080 C   0  0  0  0  0  3  0  0  0  0  0  0
  157.5420  212.3120  137.2490 O   0  0  0  0  0  1  0  0  0  0  0  0
  157.9850  212.0060  139.6060 C   0  0  2  0  0  3  0  0  0  0  0  0
  155.8340  211.2700  138.5300 C   0  0  0  0  0  0  0  0  0  0  0  0
  155.1720  210.1630  137.8030 C   0  0  0  0  0  0  0  0  0  0  0  0
  154.2150  210.3850  137.0120 O   0  0  0  0  0  0  0  0  0  0  0  0
  155.6150  208.8530  138.0090 O   0  0  0  0  0  0  0  0  0  0  0  0
  154.8300  207.8940  138.7020 C   0  0  0  0  0  1  0  0  0  0  0  0
  1 10  1  0  0  0  0
  2  7  1  0  0  0  0
  3  8  2  0  0  0  0
  4  9  1  0  0  0  0
  4  7  2  0  0  0  0
  5 10  2  0  0  0  0
  6  1  1  1  0  0  0
  6 29  1  0  0  0  0
  6  3  1  0  0  0  0
  7  5  1  0  0  0  0
  9  1  2  0  0  0  0
 10 11  1  0  0  0  0
 11  8  1  0  0  0  0
 12 15  1  0  0  0  0
 13 12  2  0  0  0  0
 14 20  1  0  0  0  0
 16 17  1  0  0  0  0
 17 13  1  0  0  0  0
 18 15  2  0  0  0  0
 19  8  1  6  0  0  0
 19 21  1  0  0  0  0
 19 16  1  0  0  0  0
 20 13  1  0  0  0  0
 20 22  2  0  0  0  0
 21 14  1  0  0  0  0
 22 18  1  0  0  0  0
 23 24  1  0  0  0  0
 23 27  1  0  0  0  0
 25 28  1  6  0  0  0
 25 30  1  0  0  0  0
 25 29  1  0  0  0  0
 27 26  2  0  0  0  0
 29 26  1  6  0  0  0
 30 23  2  0  0  0  0
 31 33  1  0  0  0  0
 31 30  1  0  0  0  0
 32 31  2  0  0  0  0
 33 34  1  0  0  0  0
M  END
>  <MODEL>
7

>  <REMARK>
 VINA RESULT:      -5.6      7.247     11.884
  Name = 
  4 active torsions:
  status: ('A' for Active; 'I' for Inactive)
    1  A    between atoms: O_9  and  C_15
    2  A    between atoms: C_15  and  C_30
    3  A    between atoms: C_17  and  C_27
    4  A    between atoms: C_24  and  C_25
                            x       y       z     vdW  Elec       q    Type
                         _______ _______ _______ _____ _____    ______ ____

>  <TORSDO>
F 4

$$$$
=
 OpenBabel11072413113D

 34 38  0  0  1  0  0  0  0  0999 V2000
  158.8630  212.1340  155.1890 C   0  0  0  0  0  0  0  0  0  0  0  0
  155.2300  211.6940  157.2300 O   0  0  0  0  0  1  0  0  0  0  0  0
  160.0020  212.8380  153.1130 N   0  0  0  0  0  0  0  0  0  0  0  0
  157.6400  211.8000  157.2580 C   0  0  0  0  0  3  0  0  0  0  0  0
  156.4360  212.0490  155.1710 C   0  0  0  0  0  3  0  0  0  0  0  0
  160.1690  212.1970  154.4270 C   0  0  2  0  0  3  0  0  0  0  0  0
  156.4330  211.8440  156.5540 C   0  0  0  0  0  0  0  0  0  0  0  0
  158.8710  212.9080  152.4680 C   0  0  0  0  0  0  0  0  0  0  0  0
  158.8530  211.9430  156.5770 C   0  0  0  0  0  3  0  0  0  0  0  0
  157.6470  212.1980  154.4910 C   0  0  0  0  0  0  0  0  0  0  0  0
  157.6540  212.5030  153.0980 N   0  0  0  0  0  2  0  0  0  0  0  0
  160.0960  213.0210  146.8070 C   0  0  0  0  0  3  0  0  0  0  0  0
  159.4320  213.4940  147.9420 C   0  0  0  0  0  0  0  0  0  0  0  0
  157.2580  213.9470  149.1730 C   0  0  0  0  0  2  0  0  0  0  0  0
  159.3540  212.5310  145.7310 C   0  0  0  0  0  3  0  0  0  0  0  0
  160.0720  213.1220  150.3150 C   0  0  0  0  0  2  0  0  0  0  0  0
  160.2450  214.0070  149.0890 C   0  0  0  0  0  2  0  0  0  0  0  0
  157.9960  212.5130  145.7900 N   0  0  0  0  0  0  0  0  0  0  0  0
  158.8180  213.5030  151.0980 C   0  0  1  0  0  3  0  0  0  0  0  0
  158.0250  213.4660  147.9830 C   0  0  0  0  0  0  0  0  0  0  0  0
  157.5360  213.0710  150.3870 C   0  0  0  0  0  2  0  0  0  0  0  0
  157.3250  212.9630  146.8830 C   0  0  0  0  0  3  0  0  0  0  0  0
  160.9350  207.9710  153.8570 C   0  0  0  0  0  0  0  0  0  0  0  0
  161.2950  206.6280  153.8040 O   0  0  0  0  0  1  0  0  0  0  0  0
  160.4990  210.1860  152.8520 C   0  0  1  0  0  3  0  0  0  0  0  0
  160.3200  209.8300  155.3220 C   0  0  0  0  0  3  0  0  0  0  0  0
  160.4440  208.5140  155.1400 C   0  0  0  0  0  3  0  0  0  0  0  0
  159.1310  210.1980  152.5630 O   0  0  0  0  0  1  0  0  0  0  0  0
  160.7660  210.7870  154.2450 C   0  0  2  0  0  3  0  0  0  0  0  0
  161.0180  208.7690  152.7660 C   0  0  0  0  0  0  0  0  0  0  0  0
  161.5160  208.2950  151.4540 C   0  0  0  0  0  0  0  0  0  0  0  0
  162.6060  208.7180  150.9810 O   0  0  0  0  0  0  0  0  0  0  0  0
  160.7560  207.3710  150.7320 O   0  0  0  0  0  0  0  0  0  0  0  0
  161.2370  206.7700  149.5380 C   0  0  0  0  0  1  0  0  0  0  0  0
  1  9  1  0  0  0  0
  5  7  2  0  0  0  0
  6  3  1  6  0  0  0
  6  1  1  0  0  0  0
  7  2  1  0  0  0  0
  7  4  1  0  0  0  0
  8 11  1  0  0  0  0
  8  3  2  0  0  0  0
  9  4  2  0  0  0  0
 10  5  1  0  0  0  0
 10  1  2  0  0  0  0
 11 10  1  0  0  0  0
 12 13  1  0  0  0  0
 13 20  2  0  0  0  0
 13 17  1  0  0  0  0
 14 21  1  0  0  0  0
 15 18  1  0  0  0  0
 15 12  2  0  0  0  0
 16 19  1  0  0  0  0
 17 16  1  0  0  0  0
 18 22  2  0  0  0  0
 19  8  1  1  0  0  0
 20 14  1  0  0  0  0
 21 19  1  0  0  0  0
 22 20  1  0  0  0  0
 23 27  1  0  0  0  0
 24 23  1  0  0  0  0
 25 28  1  1  0  0  0
 25 29  1  0  0  0  0
 27 26  2  0  0  0  0
 29  6  1  0  0  0  0
 29 26  1  1  0  0  0
 30 25  1  0  0  0  0
 30 23  2  0  0  0  0
 31 30  1  0  0  0  0
 32 31  2  0  0  0  0
 33 31  1  0  0  0  0
 34 33  1  0  0  0  0
M  END
>  <MODEL>
8

>  <REMARK>
 VINA RESULT:      -5.1      2.359      4.189
  Name = 
  4 active torsions:
  status: ('A' for Active; 'I' for Inactive)
    1  A    between atoms: O_9  and  C_15
    2  A    between atoms: C_15  and  C_30
    3  A    between atoms: C_17  and  C_27
    4  A    between atoms: C_24  and  C_25
                            x       y       z     vdW  Elec       q    Type
                         _______ _______ _______ _____ _____    ______ ____

>  <TORSDO>
F 4

$$$$
