=
 OpenBabel11072414313D

 36 40  0  0  1  0  0  0  0  0999 V2000
  161.5080  209.3130  149.1280 N   0  0  0  0  0  0  0  0  0  0  0  0
  161.5960  211.0110  150.5320 N   0  0  0  0  0  0  0  0  0  0  0  0
  161.5850  209.8800  151.2580 C   0  0  0  0  0  0  0  0  0  0  0  0
  161.5240  208.8150  150.3770 C   0  0  0  0  0  0  0  0  0  0  0  0
  161.5610  210.6300  149.2650 N   0  0  0  0  0  0  0  0  0  0  0  0
  161.5230  211.5690  148.1500 C   0  0  1  0  0  3  0  0  0  0  0  0
  162.7650  213.4510  146.9690 C   0  0  1  0  0  3  0  0  0  0  0  0
  160.3200  212.4550  148.2550 C   0  0  0  0  0  3  0  0  0  0  0  0
  163.8070  213.3180  144.7120 C   0  0  0  0  0  1  0  0  0  0  0  0
  163.9210  211.6060  147.9960 O   0  0  0  0  0  1  0  0  0  0  0  0
  161.3860  214.4530  144.3650 O   0  0  0  0  0  1  0  0  0  0  0  0
  160.2690  213.6210  147.5990 C   0  0  0  0  0  3  0  0  0  0  0  0
  161.3980  214.1210  146.7260 C   0  0  2  0  0  3  0  0  0  0  0  0
  161.3280  213.4690  145.3550 C   0  0  2  0  0  3  0  0  0  0  0  0
  162.7930  212.4210  148.1150 C   0  0  2  0  0  3  0  0  0  0  0  0
  162.6850  212.7940  145.5980 C   0  0  2  0  0  3  0  0  0  0  0  0
  162.3970  205.7620  151.9780 C   0  0  0  0  0  2  0  0  0  0  0  0
  161.8520  204.6150  151.1080 C   0  0  0  0  0  2  0  0  0  0  0  0
  161.3450  206.9880  148.3040 O   0  0  0  0  0  1  0  0  0  0  0  0
  161.6020  205.0480  149.6600 C   0  0  1  0  0  3  0  0  0  0  0  0
  160.7770  204.1210  149.0280 O   0  0  0  0  0  1  0  0  0  0  0  0
  161.4700  207.3550  150.7070 C   0  0  2  0  0  3  0  0  0  0  0  0
  162.6970  206.9100  151.2200 O   0  0  0  0  0  0  0  0  0  0  0  0
  160.9970  206.4520  149.5480 C   0  0  1  0  0  3  0  0  0  0  0  0
  161.2600  208.5860  154.5930 C   0  0  0  0  0  2  0  0  0  0  0  0
  161.4300  211.0650  154.9350 C   0  0  0  0  0  0  0  0  0  0  0  0
  161.1710  211.1970  153.4150 C   0  0  1  0  0  3  0  0  0  0  0  0
  162.7980  211.0510  155.1520 F   0  0  0  0  0  0  0  0  0  0  0  0
  160.8330  209.7610  155.4760 C   0  0  0  0  0  2  0  0  0  0  0  0
  160.9000  212.1310  155.6400 F   0  0  0  0  0  0  0  0  0  0  0  0
  160.8200  208.7860  153.2720 O   0  0  0  0  0  0  0  0  0  0  0  0
  161.5770  209.8560  152.7570 C   0  0  1  0  0  3  0  0  0  0  0  0
  159.7790  212.7810  152.2590 F   0  0  0  0  0  0  0  0  0  0  0  0
  159.0470  212.0020  154.2140 F   0  0  0  0  0  0  0  0  0  0  0  0
  159.7360  211.6580  153.0650 C   0  0  0  0  0  0  0  0  0  0  0  0
  159.0430  210.6560  152.4100 F   0  0  0  0  0  0  0  0  0  0  0  0
  1  5  1  0  0  0  0
  1  4  2  0  0  0  0
  2  3  2  0  0  0  0
  3 32  1  0  0  0  0
  4 22  1  0  0  0  0
  4  3  1  0  0  0  0
  5  2  1  0  0  0  0
  6  8  1  1  0  0  0
  6  5  1  0  0  0  0
  7 15  1  0  0  0  0
  9 16  1  0  0  0  0
 10 15  1  0  0  0  0
 11 14  1  0  0  0  0
 12  8  2  0  0  0  0
 13  7  1  0  0  0  0
 13 12  1  0  0  0  0
 14 16  1  0  0  0  0
 14 13  1  0  0  0  0
 15  6  1  0  0  0  0
 16  7  1  0  0  0  0
 18 17  1  0  0  0  0
 19 24  1  0  0  0  0
 20 18  1  0  0  0  0
 21 20  1  0  0  0  0
 22 23  1  0  0  0  0
 23 17  1  0  0  0  0
 24 20  1  0  0  0  0
 24 22  1  0  0  0  0
 25 29  1  0  0  0  0
 26 28  1  0  0  0  0
 26 29  1  0  0  0  0
 26 30  1  0  0  0  0
 27 26  1  0  0  0  0
 31 25  1  0  0  0  0
 32 31  1  0  0  0  0
 32 27  1  0  0  0  0
 33 35  1  0  0  0  0
 35 27  1  0  0  0  0
 35 34  1  0  0  0  0
 36 35  1  0  0  0  0
M  END
>  <MODEL>
1

>  <REMARK>
 VINA RESULT:      -6.1      0.000      0.000
  Name = 
  4 active torsions:
  status: ('A' for Active; 'I' for Inactive)
    1  A    between atoms: C_1  and  N_33
    2  A    between atoms: C_15  and  C_19
    3  A    between atoms: C_23  and  C_34
    4  A    between atoms: C_28  and  C_31
                            x       y       z     vdW  Elec       q    Type
                         _______ _______ _______ _____ _____    ______ ____

>  <TORSDO>
F 4

$$$$
=
 OpenBabel11072414313D

 36 40  0  0  1  0  0  0  0  0999 V2000
  161.5370  208.0480  150.6560 N   0  0  0  0  0  0  0  0  0  0  0  0
  161.2100  207.4750  152.7600 N   0  0  0  0  0  0  0  0  0  0  0  0
  161.2840  208.8150  152.7080 C   0  0  0  0  0  0  0  0  0  0  0  0
  161.4950  209.1740  151.3890 C   0  0  0  0  0  0  0  0  0  0  0  0
  161.3550  207.0540  151.5140 N   0  0  0  0  0  0  0  0  0  0  0  0
  161.3710  205.6440  151.1440 C   0  0  1  0  0  3  0  0  0  0  0  0
  160.2300  203.8410  149.7550 C   0  0  1  0  0  3  0  0  0  0  0  0
  161.2060  204.7840  152.3600 C   0  0  0  0  0  3  0  0  0  0  0  0
  161.1980  202.7080  147.7610 C   0  0  0  0  0  1  0  0  0  0  0  0
  160.4190  206.1160  148.9890 O   0  0  0  0  0  1  0  0  0  0  0  0
  161.6410  201.0680  149.8560 O   0  0  0  0  0  1  0  0  0  0  0  0
  160.8030  203.5130  152.2490 C   0  0  0  0  0  3  0  0  0  0  0  0
  160.4880  202.8640  150.9190 C   0  0  2  0  0  3  0  0  0  0  0  0
  161.7690  202.4050  150.2440 C   0  0  2  0  0  3  0  0  0  0  0  0
  160.2630  205.3350  150.1360 C   0  0  2  0  0  3  0  0  0  0  0  0
  161.5200  203.3830  149.0870 C   0  0  2  0  0  3  0  0  0  0  0  0
  160.8180  212.6270  150.8680 C   0  0  0  0  0  2  0  0  0  0  0  0
  161.5140  213.0390  149.5590 C   0  0  0  0  0  2  0  0  0  0  0  0
  161.9560  209.4650  148.6750 O   0  0  0  0  0  1  0  0  0  0  0  0
  161.8030  211.8410  148.6500 C   0  0  1  0  0  3  0  0  0  0  0  0
  162.7440  212.1980  147.6870 O   0  0  0  0  0  1  0  0  0  0  0  0
  161.6640  210.5540  150.8320 C   0  0  2  0  0  3  0  0  0  0  0  0
  160.4560  211.2660  150.8760 O   0  0  0  0  0  0  0  0  0  0  0  0
  162.2820  210.6030  149.4180 C   0  0  1  0  0  3  0  0  0  0  0  0
  162.3480  211.0780  155.2860 C   0  0  0  0  0  2  0  0  0  0  0  0
  160.0600  210.3690  156.0310 C   0  0  0  0  0  0  0  0  0  0  0  0
  160.1680  209.2440  154.9740 C   0  0  1  0  0  3  0  0  0  0  0  0
  159.4190  211.4550  155.4580 F   0  0  0  0  0  0  0  0  0  0  0  0
  161.4520  210.8110  156.4980 C   0  0  0  0  0  2  0  0  0  0  0  0
  159.3200  209.9710  157.1300 F   0  0  0  0  0  0  0  0  0  0  0  0
  162.4680  209.9160  154.5040 O   0  0  0  0  0  0  0  0  0  0  0  0
  161.2050  209.6980  153.9180 C   0  0  1  0  0  3  0  0  0  0  0  0
  159.9730  206.8590  154.7410 F   0  0  0  0  0  0  0  0  0  0  0  0
  159.8160  207.7080  156.7940 F   0  0  0  0  0  0  0  0  0  0  0  0
  160.4570  207.8480  155.5760 C   0  0  0  0  0  0  0  0  0  0  0  0
  161.8150  207.6620  155.7610 F   0  0  0  0  0  0  0  0  0  0  0  0
  1  4  2  0  0  0  0
  1  5  1  0  0  0  0
  3  2  2  0  0  0  0
  3 32  1  0  0  0  0
  4  3  1  0  0  0  0
  5  2  1  0  0  0  0
  6  5  1  1  0  0  0
  6  8  1  0  0  0  0
  7 15  1  0  0  0  0
  7 13  1  0  0  0  0
  9 16  1  0  0  0  0
 10 15  1  0  0  0  0
 11 14  1  0  0  0  0
 12  8  2  0  0  0  0
 13 12  1  0  0  0  0
 14 13  1  0  0  0  0
 15  6  1  0  0  0  0
 16  7  1  0  0  0  0
 16 14  1  0  0  0  0
 17 23  1  0  0  0  0
 18 17  1  0  0  0  0
 19 24  1  0  0  0  0
 20 24  1  0  0  0  0
 20 18  1  0  0  0  0
 21 20  1  0  0  0  0
 22 23  1  0  0  0  0
 22  4  1  0  0  0  0
 24 22  1  0  0  0  0
 25 29  1  0  0  0  0
 26 29  1  0  0  0  0
 26 30  1  0  0  0  0
 27 35  1  0  0  0  0
 27 26  1  0  0  0  0
 28 26  1  0  0  0  0
 31 25  1  0  0  0  0
 32 31  1  0  0  0  0
 32 27  1  0  0  0  0
 33 35  1  0  0  0  0
 35 36  1  0  0  0  0
 35 34  1  0  0  0  0
M  END
>  <MODEL>
2

>  <REMARK>
 VINA RESULT:      -6.1      2.361      6.870
  Name = 
  4 active torsions:
  status: ('A' for Active; 'I' for Inactive)
    1  A    between atoms: C_1  and  N_33
    2  A    between atoms: C_15  and  C_19
    3  A    between atoms: C_23  and  C_34
    4  A    between atoms: C_28  and  C_31
                            x       y       z     vdW  Elec       q    Type
                         _______ _______ _______ _____ _____    ______ ____

>  <TORSDO>
F 4

$$$$
=
 OpenBabel11072414313D

 36 40  0  0  1  0  0  0  0  0999 V2000
  160.5930  209.4580  151.1160 N   0  0  0  0  0  0  0  0  0  0  0  0
  161.0050  208.6040  153.1080 N   0  0  0  0  0  0  0  0  0  0  0  0
  160.9330  209.9390  153.2420 C   0  0  0  0  0  0  0  0  0  0  0  0
  160.6810  210.4750  151.9920 C   0  0  0  0  0  0  0  0  0  0  0  0
  160.7850  208.3550  151.8260 N   0  0  0  0  0  0  0  0  0  0  0  0
  160.8140  207.0130  151.2580 C   0  0  1  0  0  3  0  0  0  0  0  0
  162.0790  204.8050  151.1930 C   0  0  1  0  0  3  0  0  0  0  0  0
  160.8950  207.0820  149.7630 C   0  0  0  0  0  3  0  0  0  0  0  0
  161.2800  202.6400  152.1280 C   0  0  0  0  0  1  0  0  0  0  0  0
  161.9220  206.1290  153.1980 O   0  0  0  0  0  1  0  0  0  0  0  0
  160.6970  202.5930  149.4950 O   0  0  0  0  0  1  0  0  0  0  0  0
  161.3210  206.0300  149.0530 C   0  0  0  0  0  3  0  0  0  0  0  0
  161.7450  204.7260  149.6910 C   0  0  2  0  0  3  0  0  0  0  0  0
  160.5240  203.8800  150.0110 C   0  0  2  0  0  3  0  0  0  0  0  0
  161.9990  206.2180  151.8060 C   0  0  2  0  0  3  0  0  0  0  0  0
  160.8490  203.9640  151.5090 C   0  0  2  0  0  3  0  0  0  0  0  0
  159.1560  213.6800  151.7560 C   0  0  0  0  0  2  0  0  0  0  0  0
  159.8750  214.4490  150.6340 C   0  0  0  0  0  2  0  0  0  0  0  0
  161.3910  211.2820  149.4400 O   0  0  0  0  0  1  0  0  0  0  0  0
  160.5970  213.5160  149.6560 C   0  0  1  0  0  3  0  0  0  0  0  0
  161.5200  214.2420  148.9080 O   0  0  0  0  0  1  0  0  0  0  0  0
  160.5360  211.9210  151.6280 C   0  0  2  0  0  3  0  0  0  0  0  0
  159.1840  212.2870  151.5510 O   0  0  0  0  0  0  0  0  0  0  0  0
  161.2940  212.3390  150.3500 C   0  0  1  0  0  3  0  0  0  0  0  0
  162.3610  210.7050  156.4480 C   0  0  0  0  0  2  0  0  0  0  0  0
  160.3530  212.2030  156.3230 C   0  0  0  0  0  0  0  0  0  0  0  0
  159.8990  211.3360  155.1230 C   0  0  1  0  0  3  0  0  0  0  0  0
  161.0600  213.2920  155.8410 F   0  0  0  0  0  0  0  0  0  0  0  0
  161.2650  211.4000  157.2580 C   0  0  0  0  0  2  0  0  0  0  0  0
  159.2750  212.6830  157.0450 F   0  0  0  0  0  0  0  0  0  0  0  0
  161.7890  209.8380  155.4990 O   0  0  0  0  0  0  0  0  0  0  0  0
  161.1610  210.6560  154.5390 C   0  0  1  0  0  3  0  0  0  0  0  0
  157.8380  210.3110  154.4300 F   0  0  0  0  0  0  0  0  0  0  0  0
  158.0810  210.7690  156.5960 F   0  0  0  0  0  0  0  0  0  0  0  0
  158.7550  210.3510  155.4630 C   0  0  0  0  0  0  0  0  0  0  0  0
  159.2500  209.0770  155.6800 F   0  0  0  0  0  0  0  0  0  0  0  0
  1  5  1  0  0  0  0
  1  4  2  0  0  0  0
  2  3  2  0  0  0  0
  3 32  1  0  0  0  0
  4  3  1  0  0  0  0
  5  2  1  0  0  0  0
  6  8  1  6  0  0  0
  6 15  1  0  0  0  0
  6  5  1  0  0  0  0
  7 16  1  0  0  0  0
  7 15  1  0  0  0  0
 11 14  1  0  0  0  0
 12 13  1  0  0  0  0
 12  8  2  0  0  0  0
 13 14  1  0  0  0  0
 13  7  1  0  0  0  0
 14 16  1  0  0  0  0
 15 10  1  0  0  0  0
 16  9  1  0  0  0  0
 18 17  1  0  0  0  0
 19 24  1  0  0  0  0
 20 24  1  0  0  0  0
 20 18  1  0  0  0  0
 21 20  1  0  0  0  0
 22  4  1  0  0  0  0
 23 22  1  0  0  0  0
 23 17  1  0  0  0  0
 24 22  1  0  0  0  0
 25 29  1  0  0  0  0
 26 30  1  0  0  0  0
 26 29  1  0  0  0  0
 27 35  1  0  0  0  0
 27 26  1  0  0  0  0
 28 26  1  0  0  0  0
 31 25  1  0  0  0  0
 32 27  1  0  0  0  0
 32 31  1  0  0  0  0
 33 35  1  0  0  0  0
 35 36  1  0  0  0  0
 35 34  1  0  0  0  0
M  END
>  <MODEL>
3

>  <REMARK>
 VINA RESULT:      -5.3      2.624      6.673
  Name = 
  4 active torsions:
  status: ('A' for Active; 'I' for Inactive)
    1  A    between atoms: C_1  and  N_33
    2  A    between atoms: C_15  and  C_19
    3  A    between atoms: C_23  and  C_34
    4  A    between atoms: C_28  and  C_31
                            x       y       z     vdW  Elec       q    Type
                         _______ _______ _______ _____ _____    ______ ____

>  <TORSDO>
F 4

$$$$
=
 OpenBabel11072414313D

 36 40  0  0  1  0  0  0  0  0999 V2000
  161.2430  208.0220  151.1740 N   0  0  0  0  0  0  0  0  0  0  0  0
  161.4720  207.1800  153.1990 N   0  0  0  0  0  0  0  0  0  0  0  0
  161.4610  208.5190  153.3120 C   0  0  0  0  0  0  0  0  0  0  0  0
  161.3230  209.0470  152.0410 C   0  0  0  0  0  0  0  0  0  0  0  0
  161.3290  206.9220  151.9080 N   0  0  0  0  0  0  0  0  0  0  0  0
  161.3280  205.5720  151.3590 C   0  0  1  0  0  3  0  0  0  0  0  0
  160.1990  203.9940  149.7120 C   0  0  1  0  0  3  0  0  0  0  0  0
  161.1020  204.5670  152.4470 C   0  0  0  0  0  3  0  0  0  0  0  0
  161.2120  203.1030  147.6190 C   0  0  0  0  0  1  0  0  0  0  0  0
  160.4640  206.3430  149.2540 O   0  0  0  0  0  1  0  0  0  0  0  0
  161.5460  201.1960  149.4970 O   0  0  0  0  0  1  0  0  0  0  0  0
  160.6760  203.3310  152.1590 C   0  0  0  0  0  3  0  0  0  0  0  0
  160.3940  202.8690  150.7460 C   0  0  2  0  0  3  0  0  0  0  0  0
  161.6890  202.4670  150.0590 C   0  0  2  0  0  3  0  0  0  0  0  0
  160.2510  205.4240  150.2850 C   0  0  2  0  0  3  0  0  0  0  0  0
  161.5020  203.5930  149.0320 C   0  0  2  0  0  3  0  0  0  0  0  0
  160.0620  212.3650  151.8170 C   0  0  0  0  0  2  0  0  0  0  0  0
  160.7720  213.0480  150.6350 C   0  0  0  0  0  2  0  0  0  0  0  0
  161.9390  209.7400  149.4320 O   0  0  0  0  0  1  0  0  0  0  0  0
  161.3510  212.0370  149.6390 C   0  0  1  0  0  3  0  0  0  0  0  0
  162.2830  212.6670  148.8180 O   0  0  0  0  0  1  0  0  0  0  0  0
  161.2770  210.4920  151.6500 C   0  0  2  0  0  3  0  0  0  0  0  0
  159.9590  210.9710  151.6460 O   0  0  0  0  0  0  0  0  0  0  0  0
  161.9870  210.8190  150.3180 C   0  0  1  0  0  3  0  0  0  0  0  0
  162.3090  209.0710  156.7580 C   0  0  0  0  0  2  0  0  0  0  0  0
  161.0660  211.1520  156.1150 C   0  0  0  0  0  0  0  0  0  0  0  0
  160.6100  210.3770  154.8550 C   0  0  1  0  0  3  0  0  0  0  0  0
  162.2090  211.8700  155.8060 F   0  0  0  0  0  0  0  0  0  0  0  0
  161.3880  210.1850  157.2600 C   0  0  0  0  0  2  0  0  0  0  0  0
  160.1030  212.0510  156.5400 F   0  0  0  0  0  0  0  0  0  0  0  0
  161.6900  208.3630  155.7120 O   0  0  0  0  0  0  0  0  0  0  0  0
  161.6350  209.2430  154.6130 C   0  0  1  0  0  3  0  0  0  0  0  0
  158.5250  210.0810  153.6950 F   0  0  0  0  0  0  0  0  0  0  0  0
  158.4330  210.6260  155.8530 F   0  0  0  0  0  0  0  0  0  0  0  0
  159.1420  209.8940  154.9180 C   0  0  0  0  0  0  0  0  0  0  0  0
  159.0790  208.5530  155.2560 F   0  0  0  0  0  0  0  0  0  0  0  0
  1  5  1  0  0  0  0
  1  4  2  0  0  0  0
  2  3  2  0  0  0  0
  3 32  1  0  0  0  0
  4  3  1  0  0  0  0
  5  2  1  0  0  0  0
  6  5  1  1  0  0  0
  6  8  1  0  0  0  0
  7 15  1  0  0  0  0
  7 13  1  0  0  0  0
  9 16  1  0  0  0  0
 10 15  1  0  0  0  0
 11 14  1  0  0  0  0
 12  8  2  0  0  0  0
 13 12  1  0  0  0  0
 14 13  1  0  0  0  0
 15  6  1  0  0  0  0
 16  7  1  0  0  0  0
 16 14  1  0  0  0  0
 18 17  1  0  0  0  0
 19 24  1  0  0  0  0
 20 24  1  0  0  0  0
 20 18  1  0  0  0  0
 21 20  1  0  0  0  0
 22  4  1  0  0  0  0
 23 22  1  0  0  0  0
 23 17  1  0  0  0  0
 24 22  1  0  0  0  0
 25 29  1  0  0  0  0
 26 30  1  0  0  0  0
 26 29  1  0  0  0  0
 27 35  1  0  0  0  0
 27 26  1  0  0  0  0
 28 26  1  0  0  0  0
 31 25  1  0  0  0  0
 32 27  1  0  0  0  0
 32 31  1  0  0  0  0
 33 35  1  0  0  0  0
 35 36  1  0  0  0  0
 35 34  1  0  0  0  0
M  END
>  <MODEL>
4

>  <REMARK>
 VINA RESULT:      -5.2      2.551      6.659
  Name = 
  4 active torsions:
  status: ('A' for Active; 'I' for Inactive)
    1  A    between atoms: C_1  and  N_33
    2  A    between atoms: C_15  and  C_19
    3  A    between atoms: C_23  and  C_34
    4  A    between atoms: C_28  and  C_31
                            x       y       z     vdW  Elec       q    Type
                         _______ _______ _______ _____ _____    ______ ____

>  <TORSDO>
F 4

$$$$
=
 OpenBabel11072414313D

 36 40  0  0  1  0  0  0  0  0999 V2000
  161.0550  208.5420  150.3820 N   0  0  0  0  0  0  0  0  0  0  0  0
  160.8100  207.7190  152.4130 N   0  0  0  0  0  0  0  0  0  0  0  0
  160.9470  209.0500  152.5250 C   0  0  0  0  0  0  0  0  0  0  0  0
  161.1070  209.5660  151.2520 C   0  0  0  0  0  0  0  0  0  0  0  0
  160.8690  207.4550  151.1170 N   0  0  0  0  0  0  0  0  0  0  0  0
  160.7960  206.1040  150.5730 C   0  0  1  0  0  3  0  0  0  0  0  0
  161.9370  203.8310  150.4820 C   0  0  1  0  0  3  0  0  0  0  0  0
  160.7980  206.1440  149.0760 C   0  0  0  0  0  3  0  0  0  0  0  0
  161.0790  201.7270  151.5000 C   0  0  0  0  0  1  0  0  0  0  0  0
  161.9610  205.1940  152.4670 O   0  0  0  0  0  1  0  0  0  0  0  0
  160.3500  201.6680  148.9040 O   0  0  0  0  0  1  0  0  0  0  0  0
  161.1280  205.0600  148.3630 C   0  0  0  0  0  3  0  0  0  0  0  0
  161.5170  203.7450  149.0020 C   0  0  2  0  0  3  0  0  0  0  0  0
  160.2730  202.9710  149.4040 C   0  0  2  0  0  3  0  0  0  0  0  0
  161.9660  205.2550  151.0710 C   0  0  2  0  0  3  0  0  0  0  0  0
  160.6840  203.0620  150.8810 C   0  0  2  0  0  3  0  0  0  0  0  0
  160.4480  213.0550  151.0380 C   0  0  0  0  0  2  0  0  0  0  0  0
  161.2620  213.6040  149.8540 C   0  0  0  0  0  2  0  0  0  0  0  0
  161.8230  210.1450  148.6410 O   0  0  0  0  0  1  0  0  0  0  0  0
  161.6490  212.5100  148.8540 C   0  0  1  0  0  3  0  0  0  0  0  0
  162.6740  212.9670  148.0290 O   0  0  0  0  0  1  0  0  0  0  0  0
  161.3150  210.9980  150.8630 C   0  0  2  0  0  3  0  0  0  0  0  0
  160.1010  211.7010  150.8660 O   0  0  0  0  0  0  0  0  0  0  0  0
  162.0650  211.1970  149.5280 C   0  0  1  0  0  3  0  0  0  0  0  0
  162.2070  211.0540  155.2270 C   0  0  0  0  0  2  0  0  0  0  0  0
  160.0730  210.1050  156.1410 C   0  0  0  0  0  0  0  0  0  0  0  0
  160.1060  209.1250  154.9440 C   0  0  1  0  0  3  0  0  0  0  0  0
  159.3070  211.2050  155.7930 F   0  0  0  0  0  0  0  0  0  0  0  0
  161.4870  210.5820  156.4920 C   0  0  0  0  0  2  0  0  0  0  0  0
  159.5000  209.5270  157.2610 F   0  0  0  0  0  0  0  0  0  0  0  0
  162.2890  210.0060  154.2940 O   0  0  0  0  0  0  0  0  0  0  0  0
  160.9760  209.7730  153.8390 C   0  0  1  0  0  3  0  0  0  0  0  0
  161.8410  207.4610  154.9100 F   0  0  0  0  0  0  0  0  0  0  0  0
  159.7380  206.7590  154.6930 F   0  0  0  0  0  0  0  0  0  0  0  0
  160.5430  207.6900  155.3240 C   0  0  0  0  0  0  0  0  0  0  0  0
  160.4630  207.4980  156.6920 F   0  0  0  0  0  0  0  0  0  0  0  0
  1  5  1  0  0  0  0
  1  4  2  0  0  0  0
  2  3  2  0  0  0  0
  3 32  1  0  0  0  0
  4  3  1  0  0  0  0
  5  2  1  0  0  0  0
  6  8  1  6  0  0  0
  6 15  1  0  0  0  0
  6  5  1  0  0  0  0
  7 16  1  0  0  0  0
  7 15  1  0  0  0  0
 11 14  1  0  0  0  0
 12 13  1  0  0  0  0
 12  8  2  0  0  0  0
 13 14  1  0  0  0  0
 13  7  1  0  0  0  0
 14 16  1  0  0  0  0
 15 10  1  0  0  0  0
 16  9  1  0  0  0  0
 18 17  1  0  0  0  0
 19 24  1  0  0  0  0
 20 24  1  0  0  0  0
 20 18  1  0  0  0  0
 21 20  1  0  0  0  0
 22 23  1  0  0  0  0
 22  4  1  0  0  0  0
 23 17  1  0  0  0  0
 24 22  1  0  0  0  0
 25 29  1  0  0  0  0
 26 29  1  0  0  0  0
 26 30  1  0  0  0  0
 27 35  1  0  0  0  0
 27 26  1  0  0  0  0
 28 26  1  0  0  0  0
 31 25  1  0  0  0  0
 32 31  1  0  0  0  0
 32 27  1  0  0  0  0
 33 35  1  0  0  0  0
 34 35  1  0  0  0  0
 35 36  1  0  0  0  0
M  END
>  <MODEL>
5

>  <REMARK>
 VINA RESULT:      -5.0      2.350      6.845
  Name = 
  4 active torsions:
  status: ('A' for Active; 'I' for Inactive)
    1  A    between atoms: C_1  and  N_33
    2  A    between atoms: C_15  and  C_19
    3  A    between atoms: C_23  and  C_34
    4  A    between atoms: C_28  and  C_31
                            x       y       z     vdW  Elec       q    Type
                         _______ _______ _______ _____ _____    ______ ____

>  <TORSDO>
F 4

$$$$
=
 OpenBabel11072414313D

 36 40  0  0  1  0  0  0  0  0999 V2000
  160.7570  208.8200  150.8970 N   0  0  0  0  0  0  0  0  0  0  0  0
  161.1650  207.3280  152.4690 N   0  0  0  0  0  0  0  0  0  0  0  0
  160.8780  208.4920  153.0740 C   0  0  0  0  0  0  0  0  0  0  0  0
  160.6280  209.4290  152.0880 C   0  0  0  0  0  0  0  0  0  0  0  0
  161.0710  207.5610  151.1690 N   0  0  0  0  0  0  0  0  0  0  0  0
  161.3460  206.5500  150.1550 C   0  0  1  0  0  3  0  0  0  0  0  0
  160.9300  205.8530  147.7430 C   0  0  1  0  0  3  0  0  0  0  0  0
  160.8510  205.2100  150.6070 C   0  0  0  0  0  3  0  0  0  0  0  0
  162.6300  205.8130  145.9240 C   0  0  0  0  0  1  0  0  0  0  0  0
  161.1600  208.1630  148.3840 O   0  0  0  0  0  1  0  0  0  0  0  0
  162.4700  203.2930  146.8710 O   0  0  0  0  0  1  0  0  0  0  0  0
  160.6310  204.2290  149.7240 C   0  0  0  0  0  3  0  0  0  0  0  0
  160.8580  204.3960  148.2380 C   0  0  2  0  0  3  0  0  0  0  0  0
  162.3310  204.2160  147.9110 C   0  0  2  0  0  3  0  0  0  0  0  0
  160.6900  206.9240  148.8260 C   0  0  2  0  0  3  0  0  0  0  0  0
  162.4080  205.6700  147.4240 C   0  0  2  0  0  3  0  0  0  0  0  0
  158.6990  212.2720  153.0080 C   0  0  0  0  0  2  0  0  0  0  0  0
  159.2650  213.4800  152.2410 C   0  0  0  0  0  2  0  0  0  0  0  0
  161.1190  211.1790  149.9990 O   0  0  0  0  0  1  0  0  0  0  0  0
  160.0570  213.0620  150.9970 C   0  0  1  0  0  3  0  0  0  0  0  0
  160.8470  214.1240  150.5640 O   0  0  0  0  0  1  0  0  0  0  0  0
  160.2850  210.8760  152.2660 C   0  0  2  0  0  3  0  0  0  0  0  0
  158.8950  211.0610  152.3180 O   0  0  0  0  0  0  0  0  0  0  0  0
  160.9270  211.8200  151.2260 C   0  0  1  0  0  3  0  0  0  0  0  0
  159.6980  209.2230  156.3870 C   0  0  0  0  0  2  0  0  0  0  0  0
  162.1870  209.0940  156.6630 C   0  0  0  0  0  0  0  0  0  0  0  0
  162.2670  209.1650  155.1180 C   0  0  1  0  0  3  0  0  0  0  0  0
  162.1850  207.7630  157.0460 F   0  0  0  0  0  0  0  0  0  0  0  0
  160.9000  209.7540  157.1710 C   0  0  0  0  0  2  0  0  0  0  0  0
  163.2750  209.7050  157.2610 F   0  0  0  0  0  0  0  0  0  0  0  0
  159.8510  209.4980  155.0170 O   0  0  0  0  0  0  0  0  0  0  0  0
  160.9060  208.6830  154.5610 C   0  0  1  0  0  3  0  0  0  0  0  0
  163.7180  211.0660  155.3720 F   0  0  0  0  0  0  0  0  0  0  0  0
  161.6550  211.4400  154.6180 F   0  0  0  0  0  0  0  0  0  0  0  0
  162.7110  210.5470  154.5800 C   0  0  0  0  0  0  0  0  0  0  0  0
  163.1650  210.4450  153.2770 F   0  0  0  0  0  0  0  0  0  0  0  0
  1  5  1  0  0  0  0
  1  4  2  0  0  0  0
  2  3  2  0  0  0  0
  3 32  1  0  0  0  0
  4 22  1  0  0  0  0
  4  3  1  0  0  0  0
  5  2  1  0  0  0  0
  6  8  1  1  0  0  0
  6  5  1  0  0  0  0
  7 13  1  0  0  0  0
  7 15  1  0  0  0  0
  9 16  1  0  0  0  0
 10 15  1  0  0  0  0
 11 14  1  0  0  0  0
 12  8  2  0  0  0  0
 13 12  1  0  0  0  0
 14 13  1  0  0  0  0
 15  6  1  0  0  0  0
 16  7  1  0  0  0  0
 16 14  1  0  0  0  0
 18 17  1  0  0  0  0
 19 24  1  0  0  0  0
 20 24  1  0  0  0  0
 20 18  1  0  0  0  0
 21 20  1  0  0  0  0
 22 23  1  0  0  0  0
 23 17  1  0  0  0  0
 24 22  1  0  0  0  0
 25 29  1  0  0  0  0
 26 28  1  0  0  0  0
 26 29  1  0  0  0  0
 26 30  1  0  0  0  0
 27 26  1  0  0  0  0
 31 25  1  0  0  0  0
 32 31  1  0  0  0  0
 32 27  1  0  0  0  0
 35 34  1  0  0  0  0
 35 27  1  0  0  0  0
 35 33  1  0  0  0  0
 36 35  1  0  0  0  0
M  END
>  <MODEL>
6

>  <REMARK>
 VINA RESULT:      -4.9      3.169      6.059
  Name = 
  4 active torsions:
  status: ('A' for Active; 'I' for Inactive)
    1  A    between atoms: C_1  and  N_33
    2  A    between atoms: C_15  and  C_19
    3  A    between atoms: C_23  and  C_34
    4  A    between atoms: C_28  and  C_31
                            x       y       z     vdW  Elec       q    Type
                         _______ _______ _______ _____ _____    ______ ____

>  <TORSDO>
F 4

$$$$
=
 OpenBabel11072414313D

 36 40  0  0  1  0  0  0  0  0999 V2000
  161.5000  206.7230  149.1180 N   0  0  0  0  0  0  0  0  0  0  0  0
  160.5660  205.4550  150.6630 N   0  0  0  0  0  0  0  0  0  0  0  0
  160.8430  204.6750  149.6050 C   0  0  0  0  0  0  0  0  0  0  0  0
  161.4240  205.4710  148.6340 C   0  0  0  0  0  0  0  0  0  0  0  0
  160.9840  206.6690  150.3380 N   0  0  0  0  0  0  0  0  0  0  0  0
  160.8310  207.8250  151.2120 C   0  0  1  0  0  3  0  0  0  0  0  0
  161.8270  210.0660  151.8950 C   0  0  1  0  0  3  0  0  0  0  0  0
  160.8510  207.4000  152.6490 C   0  0  0  0  0  3  0  0  0  0  0  0
  160.8280  212.3020  151.4510 C   0  0  0  0  0  1  0  0  0  0  0  0
  161.9170  209.2670  149.6260 O   0  0  0  0  0  1  0  0  0  0  0  0
  160.1230  211.6410  153.9700 O   0  0  0  0  0  1  0  0  0  0  0  0
  161.1190  208.2820  153.6190 C   0  0  0  0  0  3  0  0  0  0  0  0
  161.4180  209.7390  153.3450 C   0  0  2  0  0  3  0  0  0  0  0  0
  160.1240  210.5100  153.1480 C   0  0  2  0  0  3  0  0  0  0  0  0
  161.9400  208.8470  150.9580 C   0  0  2  0  0  3  0  0  0  0  0  0
  160.5250  210.8310  151.7020 C   0  0  2  0  0  3  0  0  0  0  0  0
  163.7120  204.7030  146.0210 C   0  0  0  0  0  2  0  0  0  0  0  0
  162.9390  204.7900  144.6940 C   0  0  0  0  0  2  0  0  0  0  0  0
  160.1860  206.5780  146.4190 O   0  0  0  0  0  1  0  0  0  0  0  0
  161.6710  205.6440  144.8110 C   0  0  1  0  0  3  0  0  0  0  0  0
  160.8310  205.3880  143.7300 O   0  0  0  0  0  1  0  0  0  0  0  0
  161.8880  205.0610  147.2700 C   0  0  2  0  0  3  0  0  0  0  0  0
  163.1760  205.5520  147.0080 O   0  0  0  0  0  0  0  0  0  0  0  0
  160.9160  205.4230  146.1260 C   0  0  1  0  0  3  0  0  0  0  0  0
  158.8260  201.7030  149.5490 C   0  0  0  0  0  2  0  0  0  0  0  0
  161.1640  200.8250  149.7790 C   0  0  0  0  0  0  0  0  0  0  0  0
  161.5740  202.2760  150.1290 C   0  0  1  0  0  3  0  0  0  0  0  0
  161.3410  200.6300  148.4190 F   0  0  0  0  0  0  0  0  0  0  0  0
  159.6910  200.5780  150.1230 C   0  0  0  0  0  2  0  0  0  0  0  0
  161.9450  199.8970  150.4450 F   0  0  0  0  0  0  0  0  0  0  0  0
  159.2260  202.9430  150.0780 O   0  0  0  0  0  0  0  0  0  0  0  0
  160.4970  203.2170  149.5360 C   0  0  1  0  0  3  0  0  0  0  0  0
  162.4460  203.7300  151.8340 F   0  0  0  0  0  0  0  0  0  0  0  0
  162.7060  201.5360  152.1200 F   0  0  0  0  0  0  0  0  0  0  0  0
  161.8430  202.5020  151.6360 C   0  0  0  0  0  0  0  0  0  0  0  0
  160.6650  202.4540  152.3590 F   0  0  0  0  0  0  0  0  0  0  0  0
  1  5  1  0  0  0  0
  3  2  2  0  0  0  0
  4  1  2  0  0  0  0
  4  3  1  0  0  0  0
  5  2  1  0  0  0  0
  6  5  1  6  0  0  0
  6  8  1  0  0  0  0
  7 13  1  0  0  0  0
  8 12  2  0  0  0  0
  9 16  1  0  0  0  0
 10 15  1  0  0  0  0
 13 12  1  0  0  0  0
 14 13  1  0  0  0  0
 14 11  1  0  0  0  0
 15  6  1  0  0  0  0
 15  7  1  0  0  0  0
 16  7  1  0  0  0  0
 16 14  1  0  0  0  0
 17 23  1  0  0  0  0
 18 20  1  0  0  0  0
 18 17  1  0  0  0  0
 20 24  1  0  0  0  0
 21 20  1  0  0  0  0
 22  4  1  0  0  0  0
 23 22  1  0  0  0  0
 24 19  1  0  0  0  0
 24 22  1  0  0  0  0
 25 31  1  0  0  0  0
 25 29  1  0  0  0  0
 26 29  1  0  0  0  0
 26 27  1  0  0  0  0
 26 30  1  0  0  0  0
 27 35  1  0  0  0  0
 28 26  1  0  0  0  0
 32  3  1  0  0  0  0
 32 31  1  0  0  0  0
 32 27  1  0  0  0  0
 35 33  1  0  0  0  0
 35 34  1  0  0  0  0
 35 36  1  0  0  0  0
M  END
>  <MODEL>
7

>  <REMARK>
 VINA RESULT:      -4.6      4.677      7.563
  Name = 
  4 active torsions:
  status: ('A' for Active; 'I' for Inactive)
    1  A    between atoms: C_1  and  N_33
    2  A    between atoms: C_15  and  C_19
    3  A    between atoms: C_23  and  C_34
    4  A    between atoms: C_28  and  C_31
                            x       y       z     vdW  Elec       q    Type
                         _______ _______ _______ _____ _____    ______ ____

>  <TORSDO>
F 4

$$$$
=
 OpenBabel11072414313D

 36 40  0  0  1  0  0  0  0  0999 V2000
  160.6700  209.1280  151.9510 N   0  0  0  0  0  0  0  0  0  0  0  0
  161.4180  209.5470  149.9190 N   0  0  0  0  0  0  0  0  0  0  0  0
  161.3300  210.7180  150.5720 C   0  0  0  0  0  0  0  0  0  0  0  0
  160.8550  210.4560  151.8440 C   0  0  0  0  0  0  0  0  0  0  0  0
  161.0260  208.6200  150.7800 N   0  0  0  0  0  0  0  0  0  0  0  0
  160.9410  207.2040  150.4440 C   0  0  1  0  0  3  0  0  0  0  0  0
  162.0700  204.9360  150.6850 C   0  0  1  0  0  3  0  0  0  0  0  0
  160.9320  207.0200  148.9570 C   0  0  0  0  0  3  0  0  0  0  0  0
  161.2090  203.0130  152.0110 C   0  0  0  0  0  1  0  0  0  0  0  0
  162.1170  206.5790  152.4440 O   0  0  0  0  0  1  0  0  0  0  0  0
  160.4590  202.5720  149.4590 O   0  0  0  0  0  1  0  0  0  0  0  0
  161.2500  205.8400  148.4120 C   0  0  0  0  0  3  0  0  0  0  0  0
  161.6370  204.6320  149.2370 C   0  0  2  0  0  3  0  0  0  0  0  0
  160.3930  203.9350  149.7600 C   0  0  2  0  0  3  0  0  0  0  0  0
  162.1110  206.4320  151.0550 C   0  0  2  0  0  3  0  0  0  0  0  0
  160.8170  204.2420  151.2030 C   0  0  2  0  0  3  0  0  0  0  0  0
  160.8340  211.8260  155.1270 C   0  0  0  0  0  2  0  0  0  0  0  0
  159.7310  212.8980  155.1700 C   0  0  0  0  0  2  0  0  0  0  0  0
  158.3280  211.5750  152.0030 O   0  0  0  0  0  1  0  0  0  0  0  0
  158.6840  212.7030  154.0680 C   0  0  1  0  0  3  0  0  0  0  0  0
  157.9450  213.8730  153.9100 O   0  0  0  0  0  1  0  0  0  0  0  0
  160.5710  211.4410  152.9370 C   0  0  2  0  0  3  0  0  0  0  0  0
  160.5570  210.8110  154.1900 O   0  0  0  0  0  0  0  0  0  0  0  0
  159.2930  212.2810  152.7260 C   0  0  1  0  0  3  0  0  0  0  0  0
  161.2070  214.2540  149.9540 C   0  0  0  0  0  2  0  0  0  0  0  0
  162.5530  213.3660  148.0330 C   0  0  0  0  0  0  0  0  0  0  0  0
  162.0500  211.9630  148.4530 C   0  0  1  0  0  3  0  0  0  0  0  0
  163.7760  213.5990  148.6400 F   0  0  0  0  0  0  0  0  0  0  0  0
  161.5680  214.4520  148.4800 C   0  0  0  0  0  2  0  0  0  0  0  0
  162.7350  213.4570  146.6650 F   0  0  0  0  0  0  0  0  0  0  0  0
  160.6240  212.9890  150.1470 O   0  0  0  0  0  0  0  0  0  0  0  0
  161.6470  212.0430  149.9450 C   0  0  1  0  0  3  0  0  0  0  0  0
  161.1180  211.8520  146.2400 F   0  0  0  0  0  0  0  0  0  0  0  0
  159.6980  211.8290  147.9560 F   0  0  0  0  0  0  0  0  0  0  0  0
  160.9420  211.3970  147.5330 C   0  0  0  0  0  0  0  0  0  0  0  0
  160.9600  210.0140  147.5340 F   0  0  0  0  0  0  0  0  0  0  0  0
  2  3  2  0  0  0  0
  2  5  1  0  0  0  0
  3  4  1  0  0  0  0
  4  1  2  0  0  0  0
  4 22  1  0  0  0  0
  5  1  1  0  0  0  0
  6  8  1  6  0  0  0
  6  5  1  0  0  0  0
  6 15  1  0  0  0  0
  7 15  1  0  0  0  0
  7 16  1  0  0  0  0
 11 14  1  0  0  0  0
 12  8  2  0  0  0  0
 12 13  1  0  0  0  0
 13 14  1  0  0  0  0
 13  7  1  0  0  0  0
 14 16  1  0  0  0  0
 15 10  1  0  0  0  0
 16  9  1  0  0  0  0
 17 18  1  0  0  0  0
 19 24  1  0  0  0  0
 20 18  1  0  0  0  0
 21 20  1  0  0  0  0
 22 23  1  0  0  0  0
 23 17  1  0  0  0  0
 24 22  1  0  0  0  0
 24 20  1  0  0  0  0
 25 31  1  0  0  0  0
 26 27  1  0  0  0  0
 26 29  1  0  0  0  0
 26 28  1  0  0  0  0
 27 32  1  0  0  0  0
 29 25  1  0  0  0  0
 30 26  1  0  0  0  0
 32 31  1  0  0  0  0
 32  3  1  0  0  0  0
 33 35  1  0  0  0  0
 35 36  1  0  0  0  0
 35 34  1  0  0  0  0
 35 27  1  0  0  0  0
M  END
>  <MODEL>
8

>  <REMARK>
 VINA RESULT:      -4.6      3.078      7.426
  Name = 
  4 active torsions:
  status: ('A' for Active; 'I' for Inactive)
    1  A    between atoms: C_1  and  N_33
    2  A    between atoms: C_15  and  C_19
    3  A    between atoms: C_23  and  C_34
    4  A    between atoms: C_28  and  C_31
                            x       y       z     vdW  Elec       q    Type
                         _______ _______ _______ _____ _____    ______ ____

>  <TORSDO>
F 4

$$$$
=
 OpenBabel11072414313D

 36 40  0  0  1  0  0  0  0  0999 V2000
  161.6100  208.5470  151.4700 N   0  0  0  0  0  0  0  0  0  0  0  0
  161.8790  209.3570  149.4370 N   0  0  0  0  0  0  0  0  0  0  0  0
  161.8430  210.3950  150.2890 C   0  0  0  0  0  0  0  0  0  0  0  0
  161.6680  209.8870  151.5640 C   0  0  0  0  0  0  0  0  0  0  0  0
  161.7480  208.2710  150.1810 N   0  0  0  0  0  0  0  0  0  0  0  0
  161.7010  206.9240  149.6260 C   0  0  1  0  0  3  0  0  0  0  0  0
  160.6720  205.4480  147.8250 C   0  0  1  0  0  3  0  0  0  0  0  0
  161.2380  205.9470  150.6630 C   0  0  0  0  0  3  0  0  0  0  0  0
  161.8780  204.4620  145.8830 C   0  0  0  0  0  1  0  0  0  0  0  0
  161.2060  207.7620  147.4290 O   0  0  0  0  0  1  0  0  0  0  0  0
  161.7780  202.5390  147.7720 O   0  0  0  0  0  1  0  0  0  0  0  0
  160.7470  204.7540  150.3090 C   0  0  0  0  0  3  0  0  0  0  0  0
  160.6210  204.3130  148.8670 C   0  0  2  0  0  3  0  0  0  0  0  0
  161.9570  203.7940  148.3600 C   0  0  2  0  0  3  0  0  0  0  0  0
  160.7720  206.8700  148.4120 C   0  0  2  0  0  3  0  0  0  0  0  0
  162.0140  204.9280  147.3270 C   0  0  2  0  0  3  0  0  0  0  0  0
  162.2190  210.7030  154.9820 C   0  0  0  0  0  2  0  0  0  0  0  0
  161.0820  211.6450  155.4180 C   0  0  0  0  0  2  0  0  0  0  0  0
  159.1590  210.7200  152.3860 O   0  0  0  0  0  1  0  0  0  0  0  0
  159.8500  211.5300  154.5150 C   0  0  1  0  0  3  0  0  0  0  0  0
  159.0240  212.6350  154.7050 O   0  0  0  0  0  1  0  0  0  0  0  0
  161.5480  210.6520  152.8460 C   0  0  2  0  0  3  0  0  0  0  0  0
  161.8240  209.8310  153.9500 O   0  0  0  0  0  0  0  0  0  0  0  0
  160.2040  211.3890  153.0300 C   0  0  1  0  0  3  0  0  0  0  0  0
  161.2060  213.9300  150.2510 C   0  0  0  0  0  2  0  0  0  0  0  0
  162.4430  213.5300  148.1060 C   0  0  0  0  0  0  0  0  0  0  0  0
  162.1700  212.0240  148.3400 C   0  0  1  0  0  3  0  0  0  0  0  0
  163.6830  213.8430  148.6360 F   0  0  0  0  0  0  0  0  0  0  0  0
  161.3800  214.3890  148.8010 C   0  0  0  0  0  2  0  0  0  0  0  0
  162.4660  213.8430  146.7590 F   0  0  0  0  0  0  0  0  0  0  0  0
  160.8120  212.5810  150.2910 O   0  0  0  0  0  0  0  0  0  0  0  0
  161.9200  211.8280  149.8550 C   0  0  1  0  0  3  0  0  0  0  0  0
  161.1950  211.9080  146.1460 F   0  0  0  0  0  0  0  0  0  0  0  0
  159.8100  211.8580  147.8900 F   0  0  0  0  0  0  0  0  0  0  0  0
  161.0520  211.4460  147.4400 C   0  0  0  0  0  0  0  0  0  0  0  0
  161.0900  210.0630  147.4350 F   0  0  0  0  0  0  0  0  0  0  0  0
  1  4  2  0  0  0  0
  2  5  1  0  0  0  0
  2  3  2  0  0  0  0
  3  4  1  0  0  0  0
  4 22  1  0  0  0  0
  5  1  1  0  0  0  0
  6  5  1  1  0  0  0
  6  8  1  0  0  0  0
  7 15  1  0  0  0  0
  7 13  1  0  0  0  0
  9 16  1  0  0  0  0
 10 15  1  0  0  0  0
 11 14  1  0  0  0  0
 12  8  2  0  0  0  0
 13 12  1  0  0  0  0
 14 13  1  0  0  0  0
 15  6  1  0  0  0  0
 16  7  1  0  0  0  0
 16 14  1  0  0  0  0
 17 18  1  0  0  0  0
 19 24  1  0  0  0  0
 20 21  1  0  0  0  0
 20 18  1  0  0  0  0
 22 24  1  0  0  0  0
 22 23  1  0  0  0  0
 23 17  1  0  0  0  0
 24 20  1  0  0  0  0
 25 31  1  0  0  0  0
 26 27  1  0  0  0  0
 26 28  1  0  0  0  0
 26 29  1  0  0  0  0
 27 32  1  0  0  0  0
 29 25  1  0  0  0  0
 30 26  1  0  0  0  0
 32  3  1  0  0  0  0
 32 31  1  0  0  0  0
 33 35  1  0  0  0  0
 35 34  1  0  0  0  0
 35 27  1  0  0  0  0
 36 35  1  0  0  0  0
M  END
>  <MODEL>
9

>  <REMARK>
 VINA RESULT:      -4.5      3.086      6.883
  Name = 
  4 active torsions:
  status: ('A' for Active; 'I' for Inactive)
    1  A    between atoms: C_1  and  N_33
    2  A    between atoms: C_15  and  C_19
    3  A    between atoms: C_23  and  C_34
    4  A    between atoms: C_28  and  C_31
                            x       y       z     vdW  Elec       q    Type
                         _______ _______ _______ _____ _____    ______ ____

>  <TORSDO>
F 4

$$$$
