=
 OpenBabel11072412163D

 38 41  0  0  1  0  0  0  0  0999 V2000
  160.6110  210.2280  153.1280 C   0  0  1  0  0  3  0  0  0  0  0  0
  155.5760  214.0760  154.7450 C   0  0  0  0  0  3  0  0  0  0  0  0
  157.6140  212.2300  154.5800 C   0  0  0  0  0  0  0  0  0  0  0  0
  159.5150  212.3970  152.4330 C   0  0  0  0  0  2  0  0  0  0  0  0
  155.8250  213.1970  155.7980 C   0  0  0  0  0  3  0  0  0  0  0  0
  158.7670  211.2670  154.5510 C   0  0  0  0  0  2  0  0  0  0  0  0
  156.8390  212.2990  155.6950 N   0  0  0  0  0  0  0  0  0  0  0  0
  158.1620  213.0750  152.2460 C   0  0  0  0  0  2  0  0  0  0  0  0
  159.3230  211.0590  153.1380 C   0  0  2  0  0  3  0  0  0  0  0  0
  157.3790  213.1370  153.5250 C   0  0  0  0  0  0  0  0  0  0  0  0
  156.3540  214.0230  153.6320 N   0  0  0  0  0  0  0  0  0  0  0  0
  162.5210  210.1680  156.3980 C   0  0  0  0  0  0  0  0  0  0  0  0
  162.0890  210.5480  155.1270 C   0  0  0  0  0  3  0  0  0  0  0  0
  161.0780  209.8160  154.4990 C   0  0  0  0  0  0  0  0  0  0  0  0
  160.2840  206.9920  157.2590 Cl  0  0  0  0  0  0  0  0  0  0  0  0
  163.7870  211.0750  157.1980 Cl  0  0  0  0  0  0  0  0  0  0  0  0
  161.9610  209.0940  157.0170 N   0  0  0  0  0  0  0  0  0  0  0  0
  160.5160  208.7130  155.1540 C   0  0  0  0  0  3  0  0  0  0  0  0
  160.9750  208.3660  156.4260 C   0  0  0  0  0  0  0  0  0  0  0  0
  160.4660  209.0970  152.2750 O   0  0  0  0  0  0  0  0  0  0  0  0
  161.5350  208.5670  151.5470 C   0  0  0  0  0  0  0  0  0  0  0  0
  162.3930  209.3250  151.0180 O   0  0  0  0  0  0  0  0  0  0  0  0
  161.3090  206.4220  152.7260 C   0  0  0  0  0  1  0  0  0  0  0  0
  161.6850  207.0890  151.4160 C   0  0  1  0  0  3  0  0  0  0  0  0
  160.8600  206.6090  150.3950 O   0  0  0  0  0  0  0  0  0  0  0  0
  161.7160  205.9560  149.5020 C   0  0  2  0  0  3  0  0  0  0  0  0
  161.5110  204.4110  147.4710 C   0  0  0  0  0  2  0  0  0  0  0  0
  161.4130  206.8500  147.2780 O   0  0  0  0  0  0  0  0  0  0  0  0
  162.1980  206.9520  148.4390 C   0  0  0  0  0  2  0  0  0  0  0  0
  160.9780  204.7660  148.8640 C   0  0  1  0  0  3  0  0  0  0  0  0
  161.8250  205.6660  146.6360 C   0  0  2  0  0  3  0  0  0  0  0  0
  161.6680  204.7890  144.4190 O   0  0  0  0  0  0  0  0  0  0  0  0
  161.1920  205.5620  145.2910 C   0  0  0  0  0  0  0  0  0  0  0  0
  160.0790  206.3380  144.9930 O   0  0  0  0  0  1  0  0  0  0  0  0
  161.5320  203.6400  150.8640 O   0  0  0  0  0  0  0  0  0  0  0  0
  160.9980  203.5660  149.7680 C   0  0  0  0  0  0  0  0  0  0  0  0
  160.3680  202.2700  149.3560 C   0  0  0  0  0  2  0  0  0  0  0  0
  160.7070  201.2380  150.2330 O   0  0  0  0  0  1  0  0  0  0  0  0
  1 20  1  6  0  0  0
  1 14  1  0  0  0  0
  2  5  1  0  0  0  0
  3  7  1  0  0  0  0
  4  9  1  0  0  0  0
  6  3  1  0  0  0  0
  7  5  2  0  0  0  0
  8  4  1  0  0  0  0
  8 10  1  0  0  0  0
  9  1  1  1  0  0  0
  9  6  1  0  0  0  0
 10 11  1  0  0  0  0
 10  3  2  0  0  0  0
 11  2  2  0  0  0  0
 12 17  1  0  0  0  0
 12 16  1  0  0  0  0
 13 12  2  0  0  0  0
 14 13  1  0  0  0  0
 14 18  2  0  0  0  0
 18 19  1  0  0  0  0
 19 17  2  0  0  0  0
 19 15  1  0  0  0  0
 21 20  1  0  0  0  0
 22 21  2  0  0  0  0
 24 21  1  0  0  0  0
 24 23  1  1  0  0  0
 25 24  1  0  0  0  0
 26 25  1  1  0  0  0
 27 30  1  0  0  0  0
 28 29  1  0  0  0  0
 29 26  1  0  0  0  0
 30 26  1  0  0  0  0
 30 36  1  1  0  0  0
 31 33  1  6  0  0  0
 31 28  1  0  0  0  0
 31 27  1  0  0  0  0
 32 33  2  0  0  0  0
 34 33  1  0  0  0  0
 36 35  2  0  0  0  0
 37 36  1  0  0  0  0
 37 38  1  0  0  0  0
M  END
>  <MODEL>
1

>  <REMARK>
 VINA RESULT:      -8.8      0.000      0.000
  Name = 
  10 active torsions:
  status: ('A' for Active; 'I' for Inactive)
    1  A    between atoms: C_2  and  O_6
    2  A    between atoms: C_2  and  C_23
    3  A    between atoms: C_2  and  C_26
    4  A    between atoms: O_6  and  C_15
    5  A    between atoms: C_7  and  O_29
    6  A    between atoms: C_8  and  C_38
    7  A    between atoms: C_15  and  C_21
    8  A    between atoms: C_18  and  C_38
    9  A    between atoms: C_21  and  O_29
   10  A    between atoms: C_25  and  C_27
                            x       y       z     vdW  Elec       q    Type
                         _______ _______ _______ _____ _____    ______ ____

>  <TORSDO>
F 10

$$$$
=
 OpenBabel11072412163D

 38 41  0  0  1  0  0  0  0  0999 V2000
  160.8200  209.7430  152.7730 C   0  0  1  0  0  3  0  0  0  0  0  0
  156.1620  214.2540  153.6270 C   0  0  0  0  0  3  0  0  0  0  0  0
  157.8970  212.1170  153.7330 C   0  0  0  0  0  0  0  0  0  0  0  0
  160.2310  212.0950  152.0580 C   0  0  0  0  0  2  0  0  0  0  0  0
  156.0420  213.2900  154.6270 C   0  0  0  0  0  3  0  0  0  0  0  0
  158.8760  210.9850  153.8620 C   0  0  0  0  0  2  0  0  0  0  0  0
  156.9120  212.2480  154.6600 N   0  0  0  0  0  0  0  0  0  0  0  0
  159.0660  212.9900  151.6500 C   0  0  0  0  0  2  0  0  0  0  0  0
  159.6960  210.7680  152.5850 C   0  0  2  0  0  3  0  0  0  0  0  0
  158.0350  213.1060  152.7370 C   0  0  0  0  0  0  0  0  0  0  0  0
  157.1520  214.1380  152.7030 N   0  0  0  0  0  0  0  0  0  0  0  0
  160.9680  208.2350  156.2440 C   0  0  0  0  0  0  0  0  0  0  0  0
  160.6180  208.4500  154.9100 C   0  0  0  0  0  3  0  0  0  0  0  0
  161.1970  209.5130  154.2120 C   0  0  0  0  0  0  0  0  0  0  0  0
  163.5920  211.1230  157.0210 Cl  0  0  0  0  0  0  0  0  0  0  0  0
  160.2510  206.9070  157.1310 Cl  0  0  0  0  0  0  0  0  0  0  0  0
  161.8660  209.0540  156.8550 N   0  0  0  0  0  0  0  0  0  0  0  0
  162.1180  210.3440  154.8610 C   0  0  0  0  0  3  0  0  0  0  0  0
  162.4430  210.0940  156.1960 C   0  0  0  0  0  0  0  0  0  0  0  0
  160.4880  208.5170  152.1280 O   0  0  0  0  0  0  0  0  0  0  0  0
  161.4350  207.7510  151.4450 C   0  0  0  0  0  0  0  0  0  0  0  0
  162.3650  207.1700  152.0690 O   0  0  0  0  0  0  0  0  0  0  0  0
  161.8950  208.8170  149.2790 C   0  0  0  0  0  1  0  0  0  0  0  0
  161.3330  207.5870  149.9660 C   0  0  1  0  0  3  0  0  0  0  0  0
  162.0450  206.4570  149.5550 O   0  0  0  0  0  0  0  0  0  0  0  0
  161.0880  205.5890  149.0200 C   0  0  2  0  0  3  0  0  0  0  0  0
  161.0450  203.3430  147.7930 C   0  0  0  0  0  2  0  0  0  0  0  0
  161.1060  203.5010  150.2360 O   0  0  0  0  0  0  0  0  0  0  0  0
  160.4720  204.7530  150.1490 C   0  0  0  0  0  2  0  0  0  0  0  0
  161.7460  204.6970  147.9530 C   0  0  1  0  0  3  0  0  0  0  0  0
  160.6230  202.7470  149.1490 C   0  0  2  0  0  3  0  0  0  0  0  0
  161.2740  200.8090  150.3860 O   0  0  0  0  0  1  0  0  0  0  0  0
  161.0840  201.3340  149.2570 C   0  0  0  0  0  0  0  0  0  0  0  0
  161.3230  200.5980  148.1050 O   0  0  0  0  0  0  0  0  0  0  0  0
  162.8030  205.2040  145.9040 O   0  0  0  0  0  0  0  0  0  0  0  0
  161.8450  205.4090  146.6330 C   0  0  0  0  0  0  0  0  0  0  0  0
  160.7840  206.3680  146.1840 C   0  0  0  0  0  2  0  0  0  0  0  0
  160.3910  206.1110  144.8690 O   0  0  0  0  0  1  0  0  0  0  0  0
  1 20  1  1  0  0  0
  1 14  1  0  0  0  0
  2  5  1  0  0  0  0
  3  6  1  0  0  0  0
  3  7  1  0  0  0  0
  4  9  1  0  0  0  0
  5  7  2  0  0  0  0
  8  4  1  0  0  0  0
  8 10  1  0  0  0  0
  9  1  1  1  0  0  0
  9  6  1  0  0  0  0
 10  3  2  0  0  0  0
 11 10  1  0  0  0  0
 11  2  2  0  0  0  0
 12 17  1  0  0  0  0
 12 16  1  0  0  0  0
 13 12  2  0  0  0  0
 14 18  2  0  0  0  0
 14 13  1  0  0  0  0
 18 19  1  0  0  0  0
 19 17  2  0  0  0  0
 19 15  1  0  0  0  0
 21 22  2  0  0  0  0
 21 20  1  0  0  0  0
 24 23  1  6  0  0  0
 24 21  1  0  0  0  0
 25 24  1  0  0  0  0
 26 25  1  1  0  0  0
 26 29  1  0  0  0  0
 27 30  1  0  0  0  0
 27 31  1  0  0  0  0
 29 28  1  0  0  0  0
 30 36  1  6  0  0  0
 30 26  1  0  0  0  0
 31 33  1  1  0  0  0
 31 28  1  0  0  0  0
 33 32  1  0  0  0  0
 34 33  2  0  0  0  0
 35 36  2  0  0  0  0
 37 36  1  0  0  0  0
 38 37  1  0  0  0  0
M  END
>  <MODEL>
2

>  <REMARK>
 VINA RESULT:      -8.6      1.069      3.341
  Name = 
  10 active torsions:
  status: ('A' for Active; 'I' for Inactive)
    1  A    between atoms: C_2  and  O_6
    2  A    between atoms: C_2  and  C_23
    3  A    between atoms: C_2  and  C_26
    4  A    between atoms: O_6  and  C_15
    5  A    between atoms: C_7  and  O_29
    6  A    between atoms: C_8  and  C_38
    7  A    between atoms: C_15  and  C_21
    8  A    between atoms: C_18  and  C_38
    9  A    between atoms: C_21  and  O_29
   10  A    between atoms: C_25  and  C_27
                            x       y       z     vdW  Elec       q    Type
                         _______ _______ _______ _____ _____    ______ ____

>  <TORSDO>
F 10

$$$$
=
 OpenBabel11072412163D

 38 41  0  0  1  0  0  0  0  0999 V2000
  161.5050  210.0430  152.5940 C   0  0  1  0  0  3  0  0  0  0  0  0
  161.1960  213.8070  147.2540 C   0  0  0  0  0  3  0  0  0  0  0  0
  161.6980  211.9180  149.1960 C   0  0  0  0  0  0  0  0  0  0  0  0
  160.0380  211.8110  151.5380 C   0  0  0  0  0  2  0  0  0  0  0  0
  162.1020  212.7720  147.0220 C   0  0  0  0  0  3  0  0  0  0  0  0
  161.9330  210.8320  150.2060 C   0  0  0  0  0  2  0  0  0  0  0  0
  162.3290  211.8510  147.9940 N   0  0  0  0  0  0  0  0  0  0  0  0
  160.0760  213.1130  150.7470 C   0  0  0  0  0  2  0  0  0  0  0  0
  161.4400  211.2130  151.6060 C   0  0  2  0  0  3  0  0  0  0  0  0
  160.7630  212.9500  149.4210 C   0  0  0  0  0  0  0  0  0  0  0  0
  160.5510  213.8750  148.4480 N   0  0  0  0  0  0  0  0  0  0  0  0
  162.2350  210.9460  156.1990 C   0  0  0  0  0  0  0  0  0  0  0  0
  162.4180  210.5680  154.8680 C   0  0  0  0  0  3  0  0  0  0  0  0
  161.3060  210.4500  154.0300 C   0  0  0  0  0  0  0  0  0  0  0  0
  158.2980  211.4210  156.5250 Cl  0  0  0  0  0  0  0  0  0  0  0  0
  163.6180  211.0990  157.2610 Cl  0  0  0  0  0  0  0  0  0  0  0  0
  160.9850  211.1980  156.6710 N   0  0  0  0  0  0  0  0  0  0  0  0
  160.0280  210.7120  154.5380 C   0  0  0  0  0  3  0  0  0  0  0  0
  159.8880  211.0900  155.8750 C   0  0  0  0  0  0  0  0  0  0  0  0
  160.5840  209.0240  152.2180 O   0  0  0  0  0  0  0  0  0  0  0  0
  160.8820  207.6640  152.3400 C   0  0  0  0  0  0  0  0  0  0  0  0
  160.4730  207.0020  153.3320 O   0  0  0  0  0  0  0  0  0  0  0  0
  162.6920  206.0580  151.9080 C   0  0  0  0  0  1  0  0  0  0  0  0
  161.6650  206.9770  151.2730 C   0  0  1  0  0  3  0  0  0  0  0  0
  160.8120  206.2290  150.4550 O   0  0  0  0  0  0  0  0  0  0  0  0
  161.6350  205.6700  149.4730 C   0  0  2  0  0  3  0  0  0  0  0  0
  161.3570  204.3460  147.3000 C   0  0  0  0  0  2  0  0  0  0  0  0
  161.2700  206.7920  147.3650 O   0  0  0  0  0  0  0  0  0  0  0  0
  162.0910  206.7700  148.5050 C   0  0  0  0  0  2  0  0  0  0  0  0
  160.8700  204.5560  148.7390 C   0  0  1  0  0  3  0  0  0  0  0  0
  161.6540  205.6800  146.5900 C   0  0  2  0  0  3  0  0  0  0  0  0
  159.8150  206.1880  145.1520 O   0  0  0  0  0  1  0  0  0  0  0  0
  160.9780  205.7200  145.2630 C   0  0  0  0  0  0  0  0  0  0  0  0
  161.6300  205.2190  144.1440 O   0  0  0  0  0  0  0  0  0  0  0  0
  161.2660  203.2710  150.6800 O   0  0  0  0  0  0  0  0  0  0  0  0
  160.9100  203.2670  149.5110 C   0  0  0  0  0  0  0  0  0  0  0  0
  160.5140  201.9670  148.8780 C   0  0  0  0  0  2  0  0  0  0  0  0
  161.2580  200.9040  149.3940 O   0  0  0  0  0  1  0  0  0  0  0  0
  1 20  1  6  0  0  0
  1 14  1  0  0  0  0
  2 11  1  0  0  0  0
  3 10  1  0  0  0  0
  3  6  1  0  0  0  0
  4  9  1  0  0  0  0
  5  2  2  0  0  0  0
  5  7  1  0  0  0  0
  6  9  1  0  0  0  0
  7  3  2  0  0  0  0
  8  4  1  0  0  0  0
  9  1  1  1  0  0  0
 10  8  1  0  0  0  0
 11 10  2  0  0  0  0
 12 17  1  0  0  0  0
 12 16  1  0  0  0  0
 13 12  2  0  0  0  0
 14 18  2  0  0  0  0
 14 13  1  0  0  0  0
 18 19  1  0  0  0  0
 19 15  1  0  0  0  0
 19 17  2  0  0  0  0
 20 21  1  0  0  0  0
 21 22  2  0  0  0  0
 24 23  1  1  0  0  0
 24 21  1  0  0  0  0
 25 24  1  0  0  0  0
 26 25  1  1  0  0  0
 27 30  1  0  0  0  0
 28 29  1  0  0  0  0
 29 26  1  0  0  0  0
 30 26  1  0  0  0  0
 30 36  1  1  0  0  0
 31 33  1  6  0  0  0
 31 27  1  0  0  0  0
 31 28  1  0  0  0  0
 32 33  1  0  0  0  0
 34 33  2  0  0  0  0
 36 35  2  0  0  0  0
 37 38  1  0  0  0  0
 37 36  1  0  0  0  0
M  END
>  <MODEL>
3

>  <REMARK>
 VINA RESULT:      -7.7      2.698      3.747
  Name = 
  10 active torsions:
  status: ('A' for Active; 'I' for Inactive)
    1  A    between atoms: C_2  and  O_6
    2  A    between atoms: C_2  and  C_23
    3  A    between atoms: C_2  and  C_26
    4  A    between atoms: O_6  and  C_15
    5  A    between atoms: C_7  and  O_29
    6  A    between atoms: C_8  and  C_38
    7  A    between atoms: C_15  and  C_21
    8  A    between atoms: C_18  and  C_38
    9  A    between atoms: C_21  and  O_29
   10  A    between atoms: C_25  and  C_27
                            x       y       z     vdW  Elec       q    Type
                         _______ _______ _______ _____ _____    ______ ____

>  <TORSDO>
F 10

$$$$
=
 OpenBabel11072412163D

 38 41  0  0  1  0  0  0  0  0999 V2000
  161.6780  209.6880  152.2620 C   0  0  1  0  0  3  0  0  0  0  0  0
  160.7290  214.4530  147.8830 C   0  0  0  0  0  3  0  0  0  0  0  0
  161.4990  212.2470  149.3430 C   0  0  0  0  0  0  0  0  0  0  0  0
  160.0170  211.5060  151.6900 C   0  0  0  0  0  2  0  0  0  0  0  0
  161.6890  213.5720  147.3870 C   0  0  0  0  0  3  0  0  0  0  0  0
  161.8820  210.9960  150.0820 C   0  0  0  0  0  2  0  0  0  0  0  0
  162.0490  212.4890  148.1240 N   0  0  0  0  0  0  0  0  0  0  0  0
  159.9050  212.9450  151.1970 C   0  0  0  0  0  2  0  0  0  0  0  0
  161.4600  211.0300  151.5540 C   0  0  2  0  0  3  0  0  0  0  0  0
  160.5090  213.1240  149.8340 C   0  0  0  0  0  0  0  0  0  0  0  0
  160.1640  214.2120  149.0950 N   0  0  0  0  0  0  0  0  0  0  0  0
  160.3350  208.4970  155.5970 C   0  0  0  0  0  0  0  0  0  0  0  0
  160.7410  208.5030  154.2610 C   0  0  0  0  0  3  0  0  0  0  0  0
  161.2390  209.6830  153.7020 C   0  0  0  0  0  0  0  0  0  0  0  0
  161.0060  212.2240  156.8180 Cl  0  0  0  0  0  0  0  0  0  0  0  0
  159.7080  207.0270  156.3120 Cl  0  0  0  0  0  0  0  0  0  0  0  0
  160.4260  209.6310  156.3430 N   0  0  0  0  0  0  0  0  0  0  0  0
  161.3220  210.8380  154.4890 C   0  0  0  0  0  3  0  0  0  0  0  0
  160.9080  210.7900  155.8210 C   0  0  0  0  0  0  0  0  0  0  0  0
  161.0550  208.6350  151.5330 O   0  0  0  0  0  0  0  0  0  0  0  0
  161.7890  207.6560  150.8580 C   0  0  0  0  0  0  0  0  0  0  0  0
  162.7750  207.0960  151.4100 O   0  0  0  0  0  0  0  0  0  0  0  0
  161.6070  208.3960  148.5210 C   0  0  0  0  0  1  0  0  0  0  0  0
  161.3880  207.2430  149.4820 C   0  0  1  0  0  3  0  0  0  0  0  0
  162.1450  206.1420  149.0700 O   0  0  0  0  0  0  0  0  0  0  0  0
  161.2280  205.2550  148.4970 C   0  0  2  0  0  3  0  0  0  0  0  0
  161.2550  202.9180  147.4520 C   0  0  0  0  0  2  0  0  0  0  0  0
  161.0440  203.2720  149.8660 O   0  0  0  0  0  0  0  0  0  0  0  0
  160.4630  204.5260  149.6090 C   0  0  0  0  0  2  0  0  0  0  0  0
  161.9750  204.2660  147.5860 C   0  0  1  0  0  3  0  0  0  0  0  0
  160.6640  202.4440  148.7920 C   0  0  2  0  0  3  0  0  0  0  0  0
  161.1080  200.5970  150.2430 O   0  0  0  0  0  1  0  0  0  0  0  0
  161.0670  201.0340  149.0630 C   0  0  0  0  0  0  0  0  0  0  0  0
  161.4160  200.2030  148.0070 O   0  0  0  0  0  0  0  0  0  0  0  0
  163.3700  204.8170  145.7630 O   0  0  0  0  0  0  0  0  0  0  0  0
  162.2450  204.8660  146.2350 C   0  0  0  0  0  0  0  0  0  0  0  0
  161.1550  205.5240  145.4430 C   0  0  0  0  0  2  0  0  0  0  0  0
  160.5660  204.6290  144.5480 O   0  0  0  0  0  1  0  0  0  0  0  0
  1 20  1  6  0  0  0
  1 14  1  0  0  0  0
  2 11  1  0  0  0  0
  3 10  1  0  0  0  0
  3  6  1  0  0  0  0
  5  2  2  0  0  0  0
  5  7  1  0  0  0  0
  6  9  1  0  0  0  0
  7  3  2  0  0  0  0
  8  4  1  0  0  0  0
  9  4  1  0  0  0  0
  9  1  1  6  0  0  0
 10  8  1  0  0  0  0
 11 10  2  0  0  0  0
 12 16  1  0  0  0  0
 12 17  1  0  0  0  0
 13 12  2  0  0  0  0
 14 13  1  0  0  0  0
 14 18  2  0  0  0  0
 18 19  1  0  0  0  0
 19 17  2  0  0  0  0
 19 15  1  0  0  0  0
 21 22  2  0  0  0  0
 21 20  1  0  0  0  0
 24 23  1  6  0  0  0
 24 21  1  0  0  0  0
 25 24  1  0  0  0  0
 26 25  1  1  0  0  0
 26 29  1  0  0  0  0
 27 30  1  0  0  0  0
 27 31  1  0  0  0  0
 29 28  1  0  0  0  0
 30 36  1  6  0  0  0
 30 26  1  0  0  0  0
 31 33  1  1  0  0  0
 31 28  1  0  0  0  0
 33 32  1  0  0  0  0
 34 33  2  0  0  0  0
 35 36  2  0  0  0  0
 37 36  1  0  0  0  0
 38 37  1  0  0  0  0
M  END
>  <MODEL>
4

>  <REMARK>
 VINA RESULT:      -7.7      2.576      4.713
  Name = 
  10 active torsions:
  status: ('A' for Active; 'I' for Inactive)
    1  A    between atoms: C_2  and  O_6
    2  A    between atoms: C_2  and  C_23
    3  A    between atoms: C_2  and  C_26
    4  A    between atoms: O_6  and  C_15
    5  A    between atoms: C_7  and  O_29
    6  A    between atoms: C_8  and  C_38
    7  A    between atoms: C_15  and  C_21
    8  A    between atoms: C_18  and  C_38
    9  A    between atoms: C_21  and  O_29
   10  A    between atoms: C_25  and  C_27
                            x       y       z     vdW  Elec       q    Type
                         _______ _______ _______ _____ _____    ______ ____

>  <TORSDO>
F 10

$$$$
=
 OpenBabel11072412163D

 38 41  0  0  1  0  0  0  0  0999 V2000
  161.6700  209.3580  152.3080 C   0  0  1  0  0  3  0  0  0  0  0  0
  160.3260  214.4350  148.4090 C   0  0  0  0  0  3  0  0  0  0  0  0
  161.2350  212.1360  149.6260 C   0  0  0  0  0  0  0  0  0  0  0  0
  159.9470  211.1830  152.0100 C   0  0  0  0  0  2  0  0  0  0  0  0
  161.2560  213.6150  147.7730 C   0  0  0  0  0  3  0  0  0  0  0  0
  161.6890  210.8380  150.2310 C   0  0  0  0  0  2  0  0  0  0  0  0
  161.6860  212.4840  148.3920 N   0  0  0  0  0  0  0  0  0  0  0  0
  159.7780  212.6540  151.6440 C   0  0  0  0  0  2  0  0  0  0  0  0
  161.3810  210.7480  151.7290 C   0  0  2  0  0  3  0  0  0  0  0  0
  160.2730  212.9520  150.2590 C   0  0  0  0  0  0  0  0  0  0  0  0
  159.8590  214.0880  149.6380 N   0  0  0  0  0  0  0  0  0  0  0  0
  161.8510  210.1880  155.9990 C   0  0  0  0  0  0  0  0  0  0  0  0
  162.0250  210.2670  154.6160 C   0  0  0  0  0  3  0  0  0  0  0  0
  161.4830  209.2720  153.7990 C   0  0  0  0  0  0  0  0  0  0  0  0
  159.7390  206.8540  156.5080 Cl  0  0  0  0  0  0  0  0  0  0  0  0
  162.5250  211.4270  157.0360 Cl  0  0  0  0  0  0  0  0  0  0  0  0
  161.1580  209.1510  156.5420 N   0  0  0  0  0  0  0  0  0  0  0  0
  160.7750  208.2120  154.3800 C   0  0  0  0  0  3  0  0  0  0  0  0
  160.6210  208.1710  155.7670 C   0  0  0  0  0  0  0  0  0  0  0  0
  160.8960  208.3690  151.6360 O   0  0  0  0  0  0  0  0  0  0  0  0
  161.4660  207.2130  151.0960 C   0  0  0  0  0  0  0  0  0  0  0  0
  162.0960  206.4030  151.8290 O   0  0  0  0  0  0  0  0  0  0  0  0
  161.8280  208.0760  148.8230 C   0  0  0  0  0  1  0  0  0  0  0  0
  161.3030  206.9130  149.6440 C   0  0  1  0  0  3  0  0  0  0  0  0
  162.0060  205.7520  149.3100 O   0  0  0  0  0  0  0  0  0  0  0  0
  161.0870  204.9440  148.6330 C   0  0  2  0  0  3  0  0  0  0  0  0
  161.1380  202.8960  147.0980 C   0  0  0  0  0  2  0  0  0  0  0  0
  161.1430  202.7050  149.5390 O   0  0  0  0  0  0  0  0  0  0  0  0
  160.4740  203.9380  149.6160 C   0  0  0  0  0  2  0  0  0  0  0  0
  161.7930  204.2320  147.4670 C   0  0  1  0  0  3  0  0  0  0  0  0
  160.7060  202.1010  148.3440 C   0  0  2  0  0  3  0  0  0  0  0  0
  161.3790  200.0200  149.3080 O   0  0  0  0  0  1  0  0  0  0  0  0
  161.2080  200.7000  148.2620 C   0  0  0  0  0  0  0  0  0  0  0  0
  161.5070  200.1480  147.0240 O   0  0  0  0  0  0  0  0  0  0  0  0
  162.8750  205.8480  146.1280 O   0  0  0  0  0  0  0  0  0  0  0  0
  161.8980  205.1280  146.2650 C   0  0  0  0  0  0  0  0  0  0  0  0
  160.8260  205.1540  145.2170 C   0  0  0  0  0  2  0  0  0  0  0  0
  160.0720  206.3260  145.2910 O   0  0  0  0  0  1  0  0  0  0  0  0
  1 20  1  6  0  0  0
  1 14  1  0  0  0  0
  2 11  1  0  0  0  0
  3  6  1  0  0  0  0
  3 10  1  0  0  0  0
  5  7  1  0  0  0  0
  5  2  2  0  0  0  0
  6  9  1  0  0  0  0
  7  3  2  0  0  0  0
  8  4  1  0  0  0  0
  9  4  1  0  0  0  0
  9  1  1  6  0  0  0
 10  8  1  0  0  0  0
 11 10  2  0  0  0  0
 12 17  1  0  0  0  0
 12 16  1  0  0  0  0
 13 12  2  0  0  0  0
 14 18  2  0  0  0  0
 14 13  1  0  0  0  0
 18 19  1  0  0  0  0
 19 15  1  0  0  0  0
 19 17  2  0  0  0  0
 21 20  1  0  0  0  0
 21 22  2  0  0  0  0
 24 23  1  6  0  0  0
 24 21  1  0  0  0  0
 25 24  1  0  0  0  0
 26 25  1  1  0  0  0
 26 29  1  0  0  0  0
 27 30  1  0  0  0  0
 27 31  1  0  0  0  0
 28 29  1  0  0  0  0
 30 36  1  6  0  0  0
 30 26  1  0  0  0  0
 31 33  1  6  0  0  0
 31 28  1  0  0  0  0
 33 32  1  0  0  0  0
 34 33  2  0  0  0  0
 35 36  2  0  0  0  0
 37 38  1  0  0  0  0
 37 36  1  0  0  0  0
M  END
>  <MODEL>
5

>  <REMARK>
 VINA RESULT:      -7.2      2.368      4.320
  Name = 
  10 active torsions:
  status: ('A' for Active; 'I' for Inactive)
    1  A    between atoms: C_2  and  O_6
    2  A    between atoms: C_2  and  C_23
    3  A    between atoms: C_2  and  C_26
    4  A    between atoms: O_6  and  C_15
    5  A    between atoms: C_7  and  O_29
    6  A    between atoms: C_8  and  C_38
    7  A    between atoms: C_15  and  C_21
    8  A    between atoms: C_18  and  C_38
    9  A    between atoms: C_21  and  O_29
   10  A    between atoms: C_25  and  C_27
                            x       y       z     vdW  Elec       q    Type
                         _______ _______ _______ _____ _____    ______ ____

>  <TORSDO>
F 10

$$$$
=
 OpenBabel11072412163D

 38 41  0  0  1  0  0  0  0  0999 V2000
  160.9410  209.3160  151.2630 C   0  0  1  0  0  3  0  0  0  0  0  0
  161.2830  202.8200  150.5830 C   0  0  0  0  0  3  0  0  0  0  0  0
  160.9830  205.5460  150.3220 C   0  0  0  0  0  0  0  0  0  0  0  0
  161.9340  207.2880  152.3990 C   0  0  0  0  0  2  0  0  0  0  0  0
  160.8730  203.3770  149.3720 C   0  0  0  0  0  3  0  0  0  0  0  0
  160.8860  207.0330  150.1280 C   0  0  0  0  0  2  0  0  0  0  0  0
  160.7360  204.7240  149.2670 N   0  0  0  0  0  0  0  0  0  0  0  0
  161.6550  205.8320  152.7570 C   0  0  0  0  0  2  0  0  0  0  0  0
  160.8500  207.7980  151.4550 C   0  0  2  0  0  3  0  0  0  0  0  0
  161.4220  204.9850  151.5390 C   0  0  0  0  0  0  0  0  0  0  0  0
  161.5440  203.6350  151.6390 N   0  0  0  0  0  0  0  0  0  0  0  0
  159.5660  211.6860  153.8780 C   0  0  0  0  0  0  0  0  0  0  0  0
  159.7040  210.9600  152.6930 C   0  0  0  0  0  3  0  0  0  0  0  0
  160.7930  210.0990  152.5400 C   0  0  0  0  0  0  0  0  0  0  0  0
  162.7080  210.5760  156.0510 Cl  0  0  0  0  0  0  0  0  0  0  0  0
  158.2070  212.7700  154.0830 Cl  0  0  0  0  0  0  0  0  0  0  0  0
  160.4840  211.5500  154.8720 N   0  0  0  0  0  0  0  0  0  0  0  0
  161.7270  209.9760  153.5770 C   0  0  0  0  0  3  0  0  0  0  0  0
  161.5510  210.7170  154.7470 C   0  0  0  0  0  0  0  0  0  0  0  0
  162.1470  209.6600  150.5880 O   0  0  0  0  0  0  0  0  0  0  0  0
  162.1640  210.0940  149.2600 C   0  0  0  0  0  0  0  0  0  0  0  0
  162.3020  209.2700  148.3150 O   0  0  0  0  0  0  0  0  0  0  0  0
  163.2220  212.0680  148.2480 C   0  0  0  0  0  1  0  0  0  0  0  0
  161.9850  211.5420  148.9490 C   0  0  1  0  0  3  0  0  0  0  0  0
  160.8690  211.7240  148.1260 O   0  0  0  0  0  0  0  0  0  0  0  0
  160.4800  213.0530  148.3170 C   0  0  2  0  0  3  0  0  0  0  0  0
  158.3190  214.4230  148.2280 C   0  0  0  0  0  2  0  0  0  0  0  0
  159.0180  213.2080  150.2360 O   0  0  0  0  0  0  0  0  0  0  0  0
  160.3550  213.3350  149.8200 C   0  0  0  0  0  2  0  0  0  0  0  0
  159.1500  213.3060  147.5850 C   0  0  1  0  0  3  0  0  0  0  0  0
  158.3570  214.3590  149.7660 C   0  0  2  0  0  3  0  0  0  0  0  0
  156.7840  214.4260  151.5640 O   0  0  0  0  0  1  0  0  0  0  0  0
  156.9740  214.4210  150.3190 C   0  0  0  0  0  0  0  0  0  0  0  0
  155.8880  214.4530  149.4550 O   0  0  0  0  0  0  0  0  0  0  0  0
  160.4040  214.1290  145.7620 O   0  0  0  0  0  0  0  0  0  0  0  0
  159.3760  213.5780  146.1250 C   0  0  0  0  0  0  0  0  0  0  0  0
  158.3640  213.1800  145.0930 C   0  0  0  0  0  2  0  0  0  0  0  0
  158.9700  212.5610  143.9980 O   0  0  0  0  0  1  0  0  0  0  0  0
  1 20  1  1  0  0  0
  1 14  1  0  0  0  0
  2 11  1  0  0  0  0
  3 10  1  0  0  0  0
  4  8  1  0  0  0  0
  5  2  2  0  0  0  0
  6  3  1  0  0  0  0
  6  9  1  0  0  0  0
  7  5  1  0  0  0  0
  7  3  2  0  0  0  0
  9  1  1  6  0  0  0
  9  4  1  0  0  0  0
 10 11  2  0  0  0  0
 10  8  1  0  0  0  0
 12 16  1  0  0  0  0
 12 17  1  0  0  0  0
 13 12  2  0  0  0  0
 14 13  1  0  0  0  0
 14 18  2  0  0  0  0
 18 19  1  0  0  0  0
 19 17  2  0  0  0  0
 19 15  1  0  0  0  0
 21 20  1  0  0  0  0
 22 21  2  0  0  0  0
 24 23  1  6  0  0  0
 24 21  1  0  0  0  0
 25 24  1  0  0  0  0
 26 25  1  1  0  0  0
 26 29  1  0  0  0  0
 27 31  1  0  0  0  0
 29 28  1  0  0  0  0
 30 36  1  6  0  0  0
 30 27  1  0  0  0  0
 30 26  1  0  0  0  0
 31 28  1  0  0  0  0
 31 33  1  1  0  0  0
 33 32  1  0  0  0  0
 34 33  2  0  0  0  0
 35 36  2  0  0  0  0
 37 36  1  0  0  0  0
 38 37  1  0  0  0  0
M  END
>  <MODEL>
6

>  <REMARK>
 VINA RESULT:      -6.8      4.230      8.222
  Name = 
  10 active torsions:
  status: ('A' for Active; 'I' for Inactive)
    1  A    between atoms: C_2  and  O_6
    2  A    between atoms: C_2  and  C_23
    3  A    between atoms: C_2  and  C_26
    4  A    between atoms: O_6  and  C_15
    5  A    between atoms: C_7  and  O_29
    6  A    between atoms: C_8  and  C_38
    7  A    between atoms: C_15  and  C_21
    8  A    between atoms: C_18  and  C_38
    9  A    between atoms: C_21  and  O_29
   10  A    between atoms: C_25  and  C_27
                            x       y       z     vdW  Elec       q    Type
                         _______ _______ _______ _____ _____    ______ ____

>  <TORSDO>
F 10

$$$$
=
 OpenBabel11072412163D

 38 41  0  0  1  0  0  0  0  0999 V2000
  161.1070  209.1800  152.2800 C   0  0  1  0  0  3  0  0  0  0  0  0
  158.4580  214.4530  155.0990 C   0  0  0  0  0  3  0  0  0  0  0  0
  159.6920  212.0780  154.4470 C   0  0  0  0  0  0  0  0  0  0  0  0
  160.3520  211.5230  151.7070 C   0  0  0  0  0  2  0  0  0  0  0  0
  158.9580  213.6150  156.0950 C   0  0  0  0  0  3  0  0  0  0  0  0
  160.4380  210.8160  154.1180 C   0  0  0  0  0  2  0  0  0  0  0  0
  159.5660  212.4510  155.7480 N   0  0  0  0  0  0  0  0  0  0  0  0
  159.2670  212.5580  151.9870 C   0  0  0  0  0  2  0  0  0  0  0  0
  160.2060  210.3550  152.6760 C   0  0  2  0  0  3  0  0  0  0  0  0
  159.2100  212.9380  153.4380 C   0  0  0  0  0  0  0  0  0  0  0  0
  158.5910  214.0950  153.7950 N   0  0  0  0  0  0  0  0  0  0  0  0
  160.9930  205.6100  153.5380 C   0  0  0  0  0  0  0  0  0  0  0  0
  161.0850  206.7060  152.6800 C   0  0  0  0  0  3  0  0  0  0  0  0
  161.0060  207.9980  153.2060 C   0  0  0  0  0  0  0  0  0  0  0  0
  160.5350  207.2480  157.1360 Cl  0  0  0  0  0  0  0  0  0  0  0  0
  161.0900  203.9850  152.8930 Cl  0  0  0  0  0  0  0  0  0  0  0  0
  160.8280  205.8010  154.8750 N   0  0  0  0  0  0  0  0  0  0  0  0
  160.8340  208.1710  154.5860 C   0  0  0  0  0  3  0  0  0  0  0  0
  160.7480  207.0490  155.4110 C   0  0  0  0  0  0  0  0  0  0  0  0
  160.8590  208.7960  150.9310 O   0  0  0  0  0  0  0  0  0  0  0  0
  161.8130  208.1320  150.1550 C   0  0  0  0  0  0  0  0  0  0  0  0
  162.9760  207.9300  150.5970 O   0  0  0  0  0  0  0  0  0  0  0  0
  161.7360  208.6930  147.7630 C   0  0  0  0  0  1  0  0  0  0  0  0
  161.4460  207.6250  148.8000 C   0  0  1  0  0  3  0  0  0  0  0  0
  162.1790  206.4730  148.5020 O   0  0  0  0  0  0  0  0  0  0  0  0
  161.2310  205.5170  148.1250 C   0  0  2  0  0  3  0  0  0  0  0  0
  161.2060  203.0660  147.3860 C   0  0  0  0  0  2  0  0  0  0  0  0
  161.1900  203.7240  149.7440 O   0  0  0  0  0  0  0  0  0  0  0  0
  160.5720  204.9320  149.3810 C   0  0  0  0  0  2  0  0  0  0  0  0
  161.9150  204.4220  147.2870 C   0  0  1  0  0  3  0  0  0  0  0  0
  160.7350  202.7630  148.8200 C   0  0  2  0  0  3  0  0  0  0  0  0
  161.5480  200.5620  148.3700 O   0  0  0  0  0  0  0  0  0  0  0  0
  161.1790  201.4010  149.2320 C   0  0  0  0  0  0  0  0  0  0  0  0
  161.1680  201.0510  150.5760 O   0  0  0  0  0  1  0  0  0  0  0  0
  163.1720  205.0910  145.4040 O   0  0  0  0  0  0  0  0  0  0  0  0
  162.0630  204.8470  145.8530 C   0  0  0  0  0  0  0  0  0  0  0  0
  160.8720  204.9720  144.9510 C   0  0  0  0  0  2  0  0  0  0  0  0
  160.2920  206.2390  145.0480 O   0  0  0  0  0  1  0  0  0  0  0  0
  1 20  1  6  0  0  0
  1 14  1  0  0  0  0
  2  5  1  0  0  0  0
  3  7  1  0  0  0  0
  4  8  1  0  0  0  0
  4  9  1  0  0  0  0
  6  3  1  0  0  0  0
  7  5  2  0  0  0  0
  8 10  1  0  0  0  0
  9  1  1  6  0  0  0
  9  6  1  0  0  0  0
 10 11  1  0  0  0  0
 10  3  2  0  0  0  0
 11  2  2  0  0  0  0
 12 17  1  0  0  0  0
 13 14  1  0  0  0  0
 13 12  2  0  0  0  0
 14 18  2  0  0  0  0
 16 12  1  0  0  0  0
 17 19  2  0  0  0  0
 18 19  1  0  0  0  0
 19 15  1  0  0  0  0
 21 22  2  0  0  0  0
 21 20  1  0  0  0  0
 24 23  1  6  0  0  0
 24 21  1  0  0  0  0
 25 24  1  0  0  0  0
 26 25  1  1  0  0  0
 26 29  1  0  0  0  0
 27 31  1  0  0  0  0
 29 28  1  0  0  0  0
 30 36  1  6  0  0  0
 30 27  1  0  0  0  0
 30 26  1  0  0  0  0
 31 33  1  1  0  0  0
 31 28  1  0  0  0  0
 32 33  2  0  0  0  0
 33 34  1  0  0  0  0
 35 36  2  0  0  0  0
 37 38  1  0  0  0  0
 37 36  1  0  0  0  0
M  END
>  <MODEL>
7

>  <REMARK>
 VINA RESULT:      -6.5      1.868      3.828
  Name = 
  10 active torsions:
  status: ('A' for Active; 'I' for Inactive)
    1  A    between atoms: C_2  and  O_6
    2  A    between atoms: C_2  and  C_23
    3  A    between atoms: C_2  and  C_26
    4  A    between atoms: O_6  and  C_15
    5  A    between atoms: C_7  and  O_29
    6  A    between atoms: C_8  and  C_38
    7  A    between atoms: C_15  and  C_21
    8  A    between atoms: C_18  and  C_38
    9  A    between atoms: C_21  and  O_29
   10  A    between atoms: C_25  and  C_27
                            x       y       z     vdW  Elec       q    Type
                         _______ _______ _______ _____ _____    ______ ____

>  <TORSDO>
F 10

$$$$
=
 OpenBabel11072412163D

 38 41  0  0  1  0  0  0  0  0999 V2000
  161.1920  210.2560  151.1040 C   0  0  1  0  0  3  0  0  0  0  0  0
  159.1710  211.4200  157.2150 C   0  0  0  0  0  3  0  0  0  0  0  0
  159.4720  210.9920  154.5100 C   0  0  0  0  0  0  0  0  0  0  0  0
  161.9670  209.9940  153.4960 C   0  0  0  0  0  2  0  0  0  0  0  0
  158.0710  211.4760  156.3600 C   0  0  0  0  0  3  0  0  0  0  0  0
  159.5930  210.6870  153.0440 C   0  0  0  0  0  2  0  0  0  0  0  0
  158.2450  211.2580  155.0300 N   0  0  0  0  0  0  0  0  0  0  0  0
  161.9700  210.6770  154.8590 C   0  0  0  0  0  2  0  0  0  0  0  0
  161.0410  210.7480  152.5480 C   0  0  2  0  0  3  0  0  0  0  0  0
  160.5810  210.9100  155.3780 C   0  0  0  0  0  0  0  0  0  0  0  0
  160.4000  211.1430  156.7050 N   0  0  0  0  0  0  0  0  0  0  0  0
  162.3530  212.4990  148.2820 C   0  0  0  0  0  0  0  0  0  0  0  0
  162.3230  211.4730  149.2280 C   0  0  0  0  0  3  0  0  0  0  0  0
  161.2250  211.3640  150.0860 C   0  0  0  0  0  0  0  0  0  0  0  0
  158.9380  214.4530  148.8800 Cl  0  0  0  0  0  0  0  0  0  0  0  0
  163.7220  212.6490  147.2010 Cl  0  0  0  0  0  0  0  0  0  0  0  0
  161.3210  213.3810  148.1980 N   0  0  0  0  0  0  0  0  0  0  0  0
  160.1750  212.2840  149.9820 C   0  0  0  0  0  3  0  0  0  0  0  0
  160.2420  213.2950  149.0210 C   0  0  0  0  0  0  0  0  0  0  0  0
  162.3350  209.4150  150.9830 O   0  0  0  0  0  0  0  0  0  0  0  0
  162.2320  208.0430  150.7370 C   0  0  0  0  0  0  0  0  0  0  0  0
  162.4820  207.2060  151.6460 O   0  0  0  0  0  0  0  0  0  0  0  0
  162.1410  208.5930  148.3430 C   0  0  0  0  0  1  0  0  0  0  0  0
  161.7910  207.5590  149.3970 C   0  0  1  0  0  3  0  0  0  0  0  0
  162.4190  206.3490  149.0910 O   0  0  0  0  0  0  0  0  0  0  0  0
  161.4160  205.5340  148.5580 C   0  0  2  0  0  3  0  0  0  0  0  0
  161.2220  203.1950  147.5350 C   0  0  0  0  0  2  0  0  0  0  0  0
  161.1230  203.5810  149.9510 O   0  0  0  0  0  0  0  0  0  0  0  0
  160.6350  204.8750  149.7020 C   0  0  0  0  0  2  0  0  0  0  0  0
  162.0500  204.4820  147.6310 C   0  0  1  0  0  3  0  0  0  0  0  0
  160.6420  202.7780  148.8990 C   0  0  2  0  0  3  0  0  0  0  0  0
  160.8180  200.8730  150.3300 O   0  0  0  0  0  1  0  0  0  0  0  0
  160.9400  201.3430  149.1690 C   0  0  0  0  0  0  0  0  0  0  0  0
  161.3740  200.5240  148.1350 O   0  0  0  0  0  0  0  0  0  0  0  0
  163.2170  204.5840  145.5810 O   0  0  0  0  0  0  0  0  0  0  0  0
  162.3190  205.0500  146.2660 C   0  0  0  0  0  0  0  0  0  0  0  0
  161.5020  206.1810  145.7180 C   0  0  0  0  0  2  0  0  0  0  0  0
  160.8480  205.8100  144.5410 O   0  0  0  0  0  1  0  0  0  0  0  0
  1 20  1  1  0  0  0
  3  7  2  0  0  0  0
  3 10  1  0  0  0  0
  4  8  1  0  0  0  0
  5  2  2  0  0  0  0
  6  3  1  0  0  0  0
  7  5  1  0  0  0  0
  8 10  1  0  0  0  0
  9  1  1  6  0  0  0
  9  6  1  0  0  0  0
  9  4  1  0  0  0  0
 10 11  2  0  0  0  0
 11  2  1  0  0  0  0
 12 13  1  0  0  0  0
 13 14  2  0  0  0  0
 14  1  1  0  0  0  0
 15 19  1  0  0  0  0
 16 12  1  0  0  0  0
 17 12  2  0  0  0  0
 17 19  1  0  0  0  0
 18 14  1  0  0  0  0
 19 18  2  0  0  0  0
 21 20  1  0  0  0  0
 21 22  2  0  0  0  0
 24 23  1  6  0  0  0
 24 21  1  0  0  0  0
 25 24  1  0  0  0  0
 26 25  1  1  0  0  0
 26 29  1  0  0  0  0
 27 30  1  0  0  0  0
 27 31  1  0  0  0  0
 29 28  1  0  0  0  0
 30 36  1  6  0  0  0
 30 26  1  0  0  0  0
 31 33  1  1  0  0  0
 31 28  1  0  0  0  0
 33 32  1  0  0  0  0
 34 33  2  0  0  0  0
 35 36  2  0  0  0  0
 37 36  1  0  0  0  0
 38 37  1  0  0  0  0
M  END
>  <MODEL>
8

>  <REMARK>
 VINA RESULT:      -6.4      3.214      5.314
  Name = 
  10 active torsions:
  status: ('A' for Active; 'I' for Inactive)
    1  A    between atoms: C_2  and  O_6
    2  A    between atoms: C_2  and  C_23
    3  A    between atoms: C_2  and  C_26
    4  A    between atoms: O_6  and  C_15
    5  A    between atoms: C_7  and  O_29
    6  A    between atoms: C_8  and  C_38
    7  A    between atoms: C_15  and  C_21
    8  A    between atoms: C_18  and  C_38
    9  A    between atoms: C_21  and  O_29
   10  A    between atoms: C_25  and  C_27
                            x       y       z     vdW  Elec       q    Type
                         _______ _______ _______ _____ _____    ______ ____

>  <TORSDO>
F 10

$$$$
=
 OpenBabel11072412163D

 38 41  0  0  1  0  0  0  0  0999 V2000
  161.3830  206.9730  151.7190 C   0  0  1  0  0  3  0  0  0  0  0  0
  160.5840  200.8770  149.4860 C   0  0  0  0  0  3  0  0  0  0  0  0
  160.9340  203.5820  149.8740 C   0  0  0  0  0  0  0  0  0  0  0  0
  161.5640  204.5740  152.4950 C   0  0  0  0  0  2  0  0  0  0  0  0
  160.6710  201.7460  148.3990 C   0  0  0  0  0  3  0  0  0  0  0  0
  161.2020  205.0500  150.0530 C   0  0  0  0  0  2  0  0  0  0  0  0
  160.8470  203.0750  148.6160 N   0  0  0  0  0  0  0  0  0  0  0  0
  160.9030  203.2040  152.3880 C   0  0  0  0  0  2  0  0  0  0  0  0
  160.9330  205.5260  151.4840 C   0  0  2  0  0  3  0  0  0  0  0  0
  160.8720  202.7000  150.9740 C   0  0  0  0  0  0  0  0  0  0  0  0
  160.6820  201.3740  150.7470 N   0  0  0  0  0  0  0  0  0  0  0  0
  161.8750  207.7920  148.0540 C   0  0  0  0  0  0  0  0  0  0  0  0
  161.6680  207.0710  149.2310 C   0  0  0  0  0  3  0  0  0  0  0  0
  161.6070  207.7510  150.4500 C   0  0  0  0  0  0  0  0  0  0  0  0
  162.1430  211.5680  149.2800 Cl  0  0  0  0  0  0  0  0  0  0  0  0
  161.9530  206.9540  146.5190 Cl  0  0  0  0  0  0  0  0  0  0  0  0
  162.0130  209.1450  148.0970 N   0  0  0  0  0  0  0  0  0  0  0  0
  161.7540  209.1440  150.4710 C   0  0  0  0  0  3  0  0  0  0  0  0
  161.9570  209.8280  149.2710 C   0  0  0  0  0  0  0  0  0  0  0  0
  160.4660  207.6450  152.5760 O   0  0  0  0  0  0  0  0  0  0  0  0
  160.8310  208.1170  153.8400 C   0  0  0  0  0  0  0  0  0  0  0  0
  161.2750  207.3290  154.7180 O   0  0  0  0  0  0  0  0  0  0  0  0
  162.0210  210.2660  153.7650 C   0  0  0  0  0  1  0  0  0  0  0  0
  160.7280  209.5730  154.1480 C   0  0  1  0  0  3  0  0  0  0  0  0
  159.6660  210.1410  153.4380 O   0  0  0  0  0  0  0  0  0  0  0  0
  159.4590  211.3950  154.0210 C   0  0  2  0  0  3  0  0  0  0  0  0
  157.5910  213.1420  154.1390 C   0  0  0  0  0  2  0  0  0  0  0  0
  157.7110  211.2450  155.6830 O   0  0  0  0  0  0  0  0  0  0  0  0
  159.1050  211.2150  155.5020 C   0  0  0  0  0  2  0  0  0  0  0  0
  158.3430  212.1340  153.2620 C   0  0  1  0  0  3  0  0  0  0  0  0
  157.3350  212.5960  155.5560 C   0  0  2  0  0  3  0  0  0  0  0  0
  155.2110  213.6800  155.3960 O   0  0  0  0  0  0  0  0  0  0  0  0
  155.9000  212.7680  155.9220 C   0  0  0  0  0  0  0  0  0  0  0  0
  155.3260  211.9260  156.8660 O   0  0  0  0  0  1  0  0  0  0  0  0
  160.0770  212.8150  151.8110 O   0  0  0  0  0  0  0  0  0  0  0  0
  158.8740  212.7940  152.0200 C   0  0  0  0  0  0  0  0  0  0  0  0
  157.9540  213.4270  151.0210 C   0  0  0  0  0  2  0  0  0  0  0  0
  158.5730  213.5680  149.7780 O   0  0  0  0  0  1  0  0  0  0  0  0
  1 20  1  1  0  0  0
  2 11  1  0  0  0  0
  3  6  1  0  0  0  0
  3 10  1  0  0  0  0
  5  7  1  0  0  0  0
  5  2  2  0  0  0  0
  6  9  1  0  0  0  0
  7  3  2  0  0  0  0
  8  4  1  0  0  0  0
  9  1  1  6  0  0  0
  9  4  1  0  0  0  0
 10  8  1  0  0  0  0
 11 10  2  0  0  0  0
 12 17  2  0  0  0  0
 12 13  1  0  0  0  0
 13 14  2  0  0  0  0
 14 18  1  0  0  0  0
 14  1  1  0  0  0  0
 16 12  1  0  0  0  0
 17 19  1  0  0  0  0
 19 15  1  0  0  0  0
 19 18  2  0  0  0  0
 20 21  1  0  0  0  0
 21 24  1  0  0  0  0
 21 22  2  0  0  0  0
 24 23  1  6  0  0  0
 25 24  1  0  0  0  0
 26 25  1  6  0  0  0
 26 29  1  0  0  0  0
 27 31  1  0  0  0  0
 29 28  1  0  0  0  0
 30 36  1  6  0  0  0
 30 26  1  0  0  0  0
 30 27  1  0  0  0  0
 31 28  1  0  0  0  0
 31 33  1  6  0  0  0
 32 33  2  0  0  0  0
 33 34  1  0  0  0  0
 35 36  2  0  0  0  0
 37 36  1  0  0  0  0
 38 37  1  0  0  0  0
M  END
>  <MODEL>
9

>  <REMARK>
 VINA RESULT:      -6.3      4.368      9.734
  Name = 
  10 active torsions:
  status: ('A' for Active; 'I' for Inactive)
    1  A    between atoms: C_2  and  O_6
    2  A    between atoms: C_2  and  C_23
    3  A    between atoms: C_2  and  C_26
    4  A    between atoms: O_6  and  C_15
    5  A    between atoms: C_7  and  O_29
    6  A    between atoms: C_8  and  C_38
    7  A    between atoms: C_15  and  C_21
    8  A    between atoms: C_18  and  C_38
    9  A    between atoms: C_21  and  O_29
   10  A    between atoms: C_25  and  C_27
                            x       y       z     vdW  Elec       q    Type
                         _______ _______ _______ _____ _____    ______ ____

>  <TORSDO>
F 10

$$$$
