=
 OpenBabel11072410163D

 37 41  0  0  1  0  0  0  0  0999 V2000
  161.1550  205.6980  154.9680 O   0  0  0  0  0  0  0  0  0  0  0  0
  162.8580  212.6560  148.0800 O   0  0  0  0  0  0  0  0  0  0  0  0
  162.2550  209.8740  148.3160 C   0  0  0  0  0  3  0  0  0  0  0  0
  161.3270  208.0400  154.4740 C   0  0  1  0  0  3  0  0  0  0  0  0
  159.3460  212.8780  152.6640 C   0  0  0  0  0  2  0  0  0  0  0  0
  157.8960  210.2690  154.9500 O   0  0  0  0  0  0  0  0  0  0  0  0
  159.7090  213.8650  151.5630 C   0  0  0  0  0  2  0  0  0  0  0  0
  157.7890  211.4630  155.6860 C   0  0  2  0  0  3  0  0  0  0  0  0
  161.3520  209.1290  150.8020 C   0  0  0  0  0  0  0  0  0  0  0  0
  161.2180  206.5840  154.0780 C   0  0  0  0  0  0  0  0  0  0  0  0
  161.4450  213.2700  149.8200 N   0  0  0  0  0  2  0  0  0  0  0  0
  161.7330  208.9070  153.2660 C   0  0  0  0  0  2  0  0  0  0  0  0
  158.3620  213.4770  153.6220 C   0  0  0  0  0  0  0  0  0  0  0  0
  161.2270  206.2000  152.6920 N   0  0  0  0  0  0  0  0  0  0  0  0
  162.1070  208.5050  148.6010 C   0  0  0  0  0  0  0  0  0  0  0  0
  160.1240  213.1110  150.3480 C   0  0  0  0  0  0  0  0  0  0  0  0
  160.1130  208.4770  155.0190 O   0  0  0  0  0  0  0  0  0  0  0  0
  161.4580  206.8440  150.4040 N   0  0  0  0  0  2  0  0  0  0  0  0
  158.6180  213.4630  155.1070 C   0  0  1  0  0  3  0  0  0  0  0  0
  160.4390  209.5860  155.8090 C   0  0  0  0  0  2  0  0  0  0  0  0
  159.3000  212.3460  149.7780 O   0  0  0  0  0  0  0  0  0  0  0  0
  159.3730  209.8370  156.8720 C   0  0  0  0  0  2  0  0  0  0  0  0
  161.6360  208.1540  149.8760 C   0  0  0  0  0  0  0  0  0  0  0  0
  158.9850  212.1820  155.5440 O   0  0  0  0  0  0  0  0  0  0  0  0
  157.3120  213.9420  153.2030 O   0  0  0  0  0  0  0  0  0  0  0  0
  161.4820  210.4470  150.5160 N   0  0  0  0  0  0  0  0  0  0  0  0
  160.8660  208.5430  152.0700 C   0  0  2  0  0  3  0  0  0  0  0  0
  161.9270  210.8430  149.2880 C   0  0  0  0  0  0  0  0  0  0  0  0
  162.0920  212.2820  149.0080 C   0  0  0  0  0  0  0  0  0  0  0  0
  157.9530  210.1330  156.3510 C   0  0  2  0  0  3  0  0  0  0  0  0
  161.0790  207.0900  151.7580 C   0  0  0  0  0  0  0  0  0  0  0  0
  159.7110  214.4530  155.4730 C   0  0  0  0  0  2  0  0  0  0  0  0
  160.0830  214.2920  156.8690 N   0  0  0  0  0  1  0  0  0  0  0  0
  162.4400  207.5680  147.6190 O   0  0  0  0  0  0  0  0  0  0  0  0
  161.5100  206.7050  147.0790 N   0  0  0  0  0  2  0  0  0  0  0  0
  162.2010  205.4630  146.7850 C   0  0  0  0  0  2  0  0  0  0  0  0
  161.5730  204.3260  147.5690 C   0  0  0  0  0  1  0  0  0  0  0  0
  2 29  2  0  0  0  0
  3 15  2  0  0  0  0
  3 28  1  0  0  0  0
  4 12  1  6  0  0  0
  4 17  1  0  0  0  0
  5 13  1  0  0  0  0
  6 30  1  0  0  0  0
  7  5  1  0  0  0  0
  8  6  1  6  0  0  0
  8 30  1  0  0  0  0
  9 27  1  0  0  0  0
 10  4  1  0  0  0  0
 10  1  2  0  0  0  0
 11 16  1  0  0  0  0
 13 19  1  0  0  0  0
 14 10  1  0  0  0  0
 15 23  1  0  0  0  0
 16  7  1  0  0  0  0
 17 20  1  0  0  0  0
 18 31  1  0  0  0  0
 19 32  1  6  0  0  0
 19 24  1  0  0  0  0
 20 22  1  0  0  0  0
 21 16  2  0  0  0  0
 23 18  1  0  0  0  0
 23  9  2  0  0  0  0
 24  8  1  0  0  0  0
 25 13  2  0  0  0  0
 26  9  1  0  0  0  0
 27 12  1  1  0  0  0
 28 26  2  0  0  0  0
 29 28  1  0  0  0  0
 29 11  1  0  0  0  0
 30 22  1  6  0  0  0
 31 27  1  0  0  0  0
 31 14  2  0  0  0  0
 32 33  1  0  0  0  0
 34 15  1  0  0  0  0
 35 34  1  0  0  0  0
 36 35  1  0  0  0  0
 36 37  1  0  0  0  0
M  END
>  <MODEL>
1

>  <REMARK>
 VINA RESULT:      -3.6      0.000      0.000
  Name = 
  4 active torsions:
  status: ('A' for Active; 'I' for Inactive)
    1  A    between atoms: N_8  and  C_14
    2  A    between atoms: N_8  and  O_33
    3  A    between atoms: C_12  and  C_22
    4  A    between atoms: C_18  and  O_33
                            x       y       z     vdW  Elec       q    Type
                         _______ _______ _______ _____ _____    ______ ____

>  <TORSDO>
F 4

$$$$
=
 OpenBabel11072410163D

 37 41  0  0  1  0  0  0  0  0999 V2000
  161.7800  211.8260  147.7060 O   0  0  0  0  0  0  0  0  0  0  0  0
  161.7420  209.0880  157.2600 O   0  0  0  0  0  0  0  0  0  0  0  0
  160.6870  211.1000  155.5290 C   0  0  0  0  0  3  0  0  0  0  0  0
  162.2450  210.0980  149.3070 C   0  0  1  0  0  3  0  0  0  0  0  0
  160.8340  205.8510  152.5600 C   0  0  0  0  0  2  0  0  0  0  0  0
  160.0150  206.6510  148.9780 O   0  0  0  0  0  0  0  0  0  0  0  0
  160.8770  205.5560  154.0520 C   0  0  0  0  0  2  0  0  0  0  0  0
  160.5300  205.3420  148.9250 C   0  0  2  0  0  3  0  0  0  0  0  0
  160.8590  210.4830  152.8570 C   0  0  0  0  0  0  0  0  0  0  0  0
  161.6370  211.4190  148.8880 C   0  0  0  0  0  0  0  0  0  0  0  0
  161.4500  207.3800  155.7100 N   0  0  0  0  0  2  0  0  0  0  0  0
  162.2490  209.9590  150.8420 C   0  0  0  0  0  2  0  0  0  0  0  0
  160.5560  204.6070  151.7710 C   0  0  0  0  0  0  0  0  0  0  0  0
  160.9300  212.2340  149.8400 N   0  0  0  0  0  0  0  0  0  0  0  0
  160.3740  212.0920  154.5830 C   0  0  0  0  0  0  0  0  0  0  0  0
  160.5130  206.7890  154.8050 C   0  0  0  0  0  0  0  0  0  0  0  0
  161.5450  209.0420  148.7100 O   0  0  0  0  0  0  0  0  0  0  0  0
  160.2450  212.5910  152.1000 N   0  0  0  0  0  2  0  0  0  0  0  0
  161.4440  204.2020  150.6240 C   0  0  1  0  0  3  0  0  0  0  0  0
  162.4380  207.9640  148.7000 C   0  0  0  0  0  2  0  0  0  0  0  0
  159.3690  207.2950  154.6520 O   0  0  0  0  0  0  0  0  0  0  0  0
  162.0570  206.9420  147.6320 C   0  0  0  0  0  2  0  0  0  0  0  0
  160.4610  211.7460  153.2250 C   0  0  0  0  0  0  0  0  0  0  0  0
  161.6630  205.2770  149.7500 O   0  0  0  0  0  0  0  0  0  0  0  0
  159.5700  203.9340  152.0280 O   0  0  0  0  0  0  0  0  0  0  0  0
  161.1470  209.5270  153.7730 N   0  0  0  0  0  0  0  0  0  0  0  0
  160.8780  210.3310  151.3850 C   0  0  2  0  0  3  0  0  0  0  0  0
  161.0660  209.8080  155.1060 C   0  0  0  0  0  0  0  0  0  0  0  0
  161.4150  208.7630  156.0870 C   0  0  0  0  0  0  0  0  0  0  0  0
  160.6660  206.2950  147.7800 C   0  0  2  0  0  3  0  0  0  0  0  0
  160.5860  211.7510  150.9960 C   0  0  0  0  0  0  0  0  0  0  0  0
  162.7800  203.6860  151.1330 C   0  0  0  0  0  2  0  0  0  0  0  0
  162.6240  202.3460  151.6730 N   0  0  0  0  0  1  0  0  0  0  0  0
  160.0010  213.3630  155.0310 O   0  0  0  0  0  0  0  0  0  0  0  0
  158.8030  213.5960  155.6730 N   0  0  0  0  0  2  0  0  0  0  0  0
  157.8430  213.9860  154.6550 C   0  0  0  0  0  2  0  0  0  0  0  0
  156.7120  212.9770  154.6010 C   0  0  0  0  0  1  0  0  0  0  0  0
  1 10  2  0  0  0  0
  4 12  1  1  0  0  0
  5  7  1  0  0  0  0
  7 16  1  0  0  0  0
  8  6  1  1  0  0  0
  8 24  1  0  0  0  0
  9 23  2  0  0  0  0
  9 26  1  0  0  0  0
 10  4  1  0  0  0  0
 10 14  1  0  0  0  0
 11 29  1  0  0  0  0
 13 25  2  0  0  0  0
 13  5  1  0  0  0  0
 14 31  2  0  0  0  0
 15 34  1  0  0  0  0
 15  3  2  0  0  0  0
 16 11  1  0  0  0  0
 17  4  1  0  0  0  0
 18 23  1  0  0  0  0
 19 32  1  1  0  0  0
 19 13  1  0  0  0  0
 20 17  1  0  0  0  0
 21 16  2  0  0  0  0
 22 20  1  0  0  0  0
 23 15  1  0  0  0  0
 24 19  1  0  0  0  0
 26 28  2  0  0  0  0
 27 12  1  6  0  0  0
 27  9  1  0  0  0  0
 28  3  1  0  0  0  0
 28 29  1  0  0  0  0
 29  2  2  0  0  0  0
 30 22  1  1  0  0  0
 30  8  1  0  0  0  0
 30  6  1  0  0  0  0
 31 27  1  0  0  0  0
 31 18  1  0  0  0  0
 32 33  1  0  0  0  0
 34 35  1  0  0  0  0
 36 35  1  0  0  0  0
 37 36  1  0  0  0  0
M  END
>  <MODEL>
2

>  <REMARK>
 VINA RESULT:      -1.9      2.266      8.421
  Name = 
  4 active torsions:
  status: ('A' for Active; 'I' for Inactive)
    1  A    between atoms: N_8  and  C_14
    2  A    between atoms: N_8  and  O_33
    3  A    between atoms: C_12  and  C_22
    4  A    between atoms: C_18  and  O_33
                            x       y       z     vdW  Elec       q    Type
                         _______ _______ _______ _____ _____    ______ ____

>  <TORSDO>
F 4

$$$$
=
 OpenBabel11072410163D

 37 41  0  0  1  0  0  0  0  0999 V2000
  161.0420  203.0600  153.0150 O   0  0  0  0  0  0  0  0  0  0  0  0
  162.8870  211.4740  148.0570 O   0  0  0  0  0  0  0  0  0  0  0  0
  161.6740  208.9130  147.6990 C   0  0  0  0  0  3  0  0  0  0  0  0
  161.6830  205.3700  153.1400 C   0  0  1  0  0  3  0  0  0  0  0  0
  160.6300  210.7980  153.3340 C   0  0  0  0  0  2  0  0  0  0  0  0
  159.1070  207.8780  155.1500 O   0  0  0  0  0  0  0  0  0  0  0  0
  160.9780  212.0100  152.4830 C   0  0  0  0  0  2  0  0  0  0  0  0
  159.4660  208.7700  156.1780 C   0  0  2  0  0  3  0  0  0  0  0  0
  161.1780  207.5690  150.0450 C   0  0  0  0  0  0  0  0  0  0  0  0
  161.1290  204.1620  152.4150 C   0  0  0  0  0  0  0  0  0  0  0  0
  162.0870  211.7240  150.2250 N   0  0  0  0  0  2  0  0  0  0  0  0
  162.0190  206.4990  152.1450 C   0  0  0  0  0  2  0  0  0  0  0  0
  160.0600  211.2140  154.6570 C   0  0  0  0  0  0  0  0  0  0  0  0
  160.7390  204.2530  151.0340 N   0  0  0  0  0  0  0  0  0  0  0  0
  161.2540  207.5720  147.6370 C   0  0  0  0  0  0  0  0  0  0  0  0
  160.9170  211.6310  151.0430 C   0  0  0  0  0  0  0  0  0  0  0  0
  160.7660  205.8090  154.1030 O   0  0  0  0  0  0  0  0  0  0  0  0
  160.6190  205.5540  149.0350 N   0  0  0  0  0  2  0  0  0  0  0  0
  160.6220  210.6750  155.9460 C   0  0  1  0  0  3  0  0  0  0  0  0
  161.5230  206.5280  155.0360 C   0  0  0  0  0  2  0  0  0  0  0  0
  159.8230  211.2460  150.5480 O   0  0  0  0  0  0  0  0  0  0  0  0
  160.8120  206.6000  156.3850 C   0  0  0  0  0  2  0  0  0  0  0  0
  160.9990  206.9130  148.8500 C   0  0  0  0  0  0  0  0  0  0  0  0
  160.7430  209.2790  155.9010 O   0  0  0  0  0  0  0  0  0  0  0  0
  159.0950  211.9620  154.6930 O   0  0  0  0  0  0  0  0  0  0  0  0
  161.5680  208.8650  150.0990 N   0  0  0  0  0  0  0  0  0  0  0  0
  160.8490  206.6970  151.1930 C   0  0  2  0  0  3  0  0  0  0  0  0
  161.8180  209.5550  148.9480 C   0  0  0  0  0  0  0  0  0  0  0  0
  162.2740  210.9560  149.0290 C   0  0  0  0  0  0  0  0  0  0  0  0
  159.4330  207.2890  156.3870 C   0  0  2  0  0  3  0  0  0  0  0  0
  160.6180  205.4090  150.4560 C   0  0  0  0  0  0  0  0  0  0  0  0
  161.9800  211.2900  156.2390 C   0  0  0  0  0  2  0  0  0  0  0  0
  162.9390  210.2490  156.5710 N   0  0  0  0  0  1  0  0  0  0  0  0
  161.1190  206.9620  146.3870 O   0  0  0  0  0  0  0  0  0  0  0  0
  161.9820  205.9800  145.9490 N   0  0  0  0  0  2  0  0  0  0  0  0
  161.1980  205.0390  145.1690 C   0  0  0  0  0  2  0  0  0  0  0  0
  161.4670  203.6250  145.6460 C   0  0  0  0  0  1  0  0  0  0  0  0
  2 29  2  0  0  0  0
  3 28  1  0  0  0  0
  4 12  1  6  0  0  0
  4 17  1  0  0  0  0
  5 13  1  0  0  0  0
  6 30  1  0  0  0  0
  7  5  1  0  0  0  0
  8  6  1  6  0  0  0
  8 30  1  0  0  0  0
  9 26  1  0  0  0  0
  9 27  1  0  0  0  0
 10  1  2  0  0  0  0
 10  4  1  0  0  0  0
 11 16  1  0  0  0  0
 13 25  2  0  0  0  0
 13 19  1  0  0  0  0
 14 10  1  0  0  0  0
 15  3  2  0  0  0  0
 15 23  1  0  0  0  0
 16  7  1  0  0  0  0
 17 20  1  0  0  0  0
 18 31  1  0  0  0  0
 19 32  1  6  0  0  0
 20 22  1  0  0  0  0
 21 16  2  0  0  0  0
 23 18  1  0  0  0  0
 23  9  2  0  0  0  0
 24 19  1  0  0  0  0
 24  8  1  0  0  0  0
 27 12  1  1  0  0  0
 28 29  1  0  0  0  0
 28 26  2  0  0  0  0
 29 11  1  0  0  0  0
 30 22  1  6  0  0  0
 31 14  2  0  0  0  0
 31 27  1  0  0  0  0
 32 33  1  0  0  0  0
 34 15  1  0  0  0  0
 35 34  1  0  0  0  0
 36 37  1  0  0  0  0
 36 35  1  0  0  0  0
M  END
>  <MODEL>
3

>  <REMARK>
 VINA RESULT:      -1.4      2.005      2.603
  Name = 
  4 active torsions:
  status: ('A' for Active; 'I' for Inactive)
    1  A    between atoms: N_8  and  C_14
    2  A    between atoms: N_8  and  O_33
    3  A    between atoms: C_12  and  C_22
    4  A    between atoms: C_18  and  O_33
                            x       y       z     vdW  Elec       q    Type
                         _______ _______ _______ _____ _____    ______ ____

>  <TORSDO>
F 4

$$$$
