=
 OpenBabel11072415263D

 25 29  0  0  1  0  0  0  0  0999 V2000
  161.5510  205.7860  147.7950 C   0  0  0  0  0  3  0  0  0  0  0  0
  161.2050  203.7720  149.1230 C   0  0  0  0  0  0  0  0  0  0  0  0
  161.9280  208.6120  148.5540 N   0  0  0  0  0  0  0  0  0  0  0  0
  161.0410  203.1870  150.3140 O   0  0  0  0  0  0  0  0  0  0  0  0
  161.2050  203.0040  147.9520 C   0  0  0  0  0  0  0  0  0  0  0  0
  160.8780  203.2740  152.5540 O   0  0  0  0  0  0  0  0  0  0  0  0
  161.6970  209.0390  152.2550 S   0  0  0  0  0  0  0  0  0  0  0  0
  162.1720  210.0700  148.5560 C   0  0  0  0  0  3  0  0  0  0  0  0
  161.3800  205.1740  149.0410 C   0  0  0  0  0  0  0  0  0  0  0  0
  161.4530  207.4000  151.8370 C   0  0  0  0  0  0  0  0  0  0  0  0
  161.3760  202.8740  145.5770 F   0  0  0  0  0  0  0  0  0  0  0  0
  161.3700  205.8730  150.2090 N   0  0  0  0  0  0  0  0  0  0  0  0
  162.1250  210.4940  149.9720 N   0  0  0  0  0  0  0  0  0  0  0  0
  161.5190  207.1790  150.4990 C   0  0  0  0  0  0  0  0  0  0  0  0
  161.0380  201.6600  148.0200 F   0  0  0  0  0  0  0  0  0  0  0  0
  161.8790  209.4040  150.5980 C   0  0  0  0  0  0  0  0  0  0  0  0
  161.0340  203.8760  151.4580 C   0  0  0  0  0  0  0  0  0  0  0  0
  161.7670  205.8040  145.0810 Cl  0  0  0  0  0  0  0  0  0  0  0  0
  161.5500  205.0140  146.6310 C   0  0  0  0  0  0  0  0  0  0  0  0
  161.7670  208.3410  149.7950 C   0  0  1  0  0  3  0  0  0  0  0  0
  161.2020  205.2630  151.4100 C   0  0  0  0  0  0  0  0  0  0  0  0
  161.3770  203.6240  146.7080 C   0  0  0  0  0  0  0  0  0  0  0  0
  161.2410  206.1920  152.4660 C   0  0  0  0  0  0  0  0  0  0  0  0
  161.1770  205.9380  153.9340 C   0  0  0  0  0  2  0  0  0  0  0  0
  160.4440  207.0710  154.6240 C   0  0  0  0  0  1  0  0  0  0  0  0
  1  9  1  0  0  0  0
  2  4  1  0  0  0  0
  3  8  2  0  0  0  0
  4 17  1  0  0  0  0
  5 15  1  0  0  0  0
  5  2  1  0  0  0  0
  8 13  1  0  0  0  0
  9  2  2  0  0  0  0
  9 12  1  0  0  0  0
 10  7  1  0  0  0  0
 10 23  1  0  0  0  0
 11 22  1  0  0  0  0
 12 14  1  0  0  0  0
 12 21  1  0  0  0  0
 13 16  2  0  0  0  0
 14 10  2  0  0  0  0
 16  7  1  0  0  0  0
 17  6  2  0  0  0  0
 18 19  1  0  0  0  0
 19 22  1  0  0  0  0
 19  1  2  0  0  0  0
 20  3  1  1  0  0  0
 20 14  1  0  0  0  0
 20 16  1  0  0  0  0
 21 17  1  0  0  0  0
 21 23  2  0  0  0  0
 22  5  2  0  0  0  0
 23 24  1  0  0  0  0
 24 25  1  0  0  0  0
M  END
>  <MODEL>
1

>  <REMARK>
 VINA RESULT:     -10.4      0.000      0.000
  Name = 
  1 active torsions:
  status: ('A' for Active; 'I' for Inactive)
    1  A    between atoms: C_6  and  C_25
                            x       y       z     vdW  Elec       q    Type
                         _______ _______ _______ _____ _____    ______ ____

>  <TORSDO>
F 1

$$$$
=
 OpenBabel11072415263D

 25 29  0  0  1  0  0  0  0  0999 V2000
  161.7050  207.3500  149.1160 C   0  0  0  0  0  3  0  0  0  0  0  0
  161.3230  206.4280  151.3390 C   0  0  0  0  0  0  0  0  0  0  0  0
  161.7290  206.1090  146.4390 N   0  0  0  0  0  0  0  0  0  0  0  0
  161.0820  205.3760  152.1270 O   0  0  0  0  0  0  0  0  0  0  0  0
  161.4470  207.7100  151.8880 C   0  0  0  0  0  0  0  0  0  0  0  0
  160.7270  203.1790  152.4400 O   0  0  0  0  0  0  0  0  0  0  0  0
  161.1600  202.4280  146.6740 S   0  0  0  0  0  0  0  0  0  0  0  0
  161.7850  205.8520  144.9840 C   0  0  0  0  0  3  0  0  0  0  0  0
  161.4540  206.2500  149.9400 C   0  0  0  0  0  0  0  0  0  0  0  0
  161.1670  203.1210  148.2350 C   0  0  0  0  0  0  0  0  0  0  0  0
  161.8180  210.0480  151.5940 F   0  0  0  0  0  0  0  0  0  0  0  0
  161.3270  204.9830  149.4590 N   0  0  0  0  0  0  0  0  0  0  0  0
  161.5800  204.3980  144.8140 N   0  0  0  0  0  0  0  0  0  0  0  0
  161.3750  204.4630  148.2190 C   0  0  0  0  0  0  0  0  0  0  0  0
  161.3230  207.8910  153.2270 F   0  0  0  0  0  0  0  0  0  0  0  0
  161.4500  203.9750  146.0170 C   0  0  0  0  0  0  0  0  0  0  0  0
  160.9560  204.1350  151.6520 C   0  0  0  0  0  0  0  0  0  0  0  0
  162.1440  209.9910  148.6150 Cl  0  0  0  0  0  0  0  0  0  0  0  0
  161.8290  208.6270  149.6700 C   0  0  0  0  0  0  0  0  0  0  0  0
  161.5350  204.9440  146.9350 C   0  0  1  0  0  3  0  0  0  0  0  0
  161.0820  203.9250  150.2750 C   0  0  0  0  0  0  0  0  0  0  0  0
  161.6990  208.8080  151.0550 C   0  0  0  0  0  0  0  0  0  0  0  0
  160.9800  202.7280  149.5430 C   0  0  0  0  0  0  0  0  0  0  0  0
  160.6440  201.3600  150.0360 C   0  0  0  0  0  2  0  0  0  0  0  0
  159.2090  201.0230  149.6830 C   0  0  0  0  0  1  0  0  0  0  0  0
  1 19  2  0  0  0  0
  1  9  1  0  0  0  0
  2  5  1  0  0  0  0
  2  4  1  0  0  0  0
  3 20  1  0  0  0  0
  5 15  1  0  0  0  0
  7 10  1  0  0  0  0
  8  3  2  0  0  0  0
  9  2  2  0  0  0  0
 10 23  1  0  0  0  0
 12  9  1  0  0  0  0
 12 21  1  0  0  0  0
 13  8  1  0  0  0  0
 13 16  2  0  0  0  0
 14 10  2  0  0  0  0
 14 12  1  0  0  0  0
 16  7  1  0  0  0  0
 17  4  1  0  0  0  0
 17  6  2  0  0  0  0
 18 19  1  0  0  0  0
 19 22  1  0  0  0  0
 20 16  1  6  0  0  0
 20 14  1  0  0  0  0
 21 17  1  0  0  0  0
 22 11  1  0  0  0  0
 22  5  2  0  0  0  0
 23 24  1  0  0  0  0
 23 21  2  0  0  0  0
 25 24  1  0  0  0  0
M  END
>  <MODEL>
2

>  <REMARK>
 VINA RESULT:     -10.0      3.655      5.424
  Name = 
  1 active torsions:
  status: ('A' for Active; 'I' for Inactive)
    1  A    between atoms: C_6  and  C_25
                            x       y       z     vdW  Elec       q    Type
                         _______ _______ _______ _____ _____    ______ ____

>  <TORSDO>
F 1

$$$$
=
 OpenBabel11072415263D

 25 29  0  0  0  0  0  0  0  0999 V2000
  160.9290  206.8980  153.0230 C   0  0  0  0  0  3  0  0  0  0  0  0
  161.4060  208.9060  151.7270 C   0  0  0  0  0  0  0  0  0  0  0  0
  160.7460  204.0540  152.2630 N   0  0  0  0  0  0  0  0  0  0  0  0
  161.6660  209.4880  150.5510 O   0  0  0  0  0  0  0  0  0  0  0  0
  161.3340  209.6740  152.8950 C   0  0  0  0  0  0  0  0  0  0  0  0
  161.9940  209.3990  148.3300 O   0  0  0  0  0  0  0  0  0  0  0  0
  161.2550  203.6210  148.5910 S   0  0  0  0  0  0  0  0  0  0  0  0
  160.6110  202.5810  152.2620 C   0  0  0  0  0  2  0  0  0  0  0  0
  161.2000  207.5070  151.7940 C   0  0  0  0  0  0  0  0  0  0  0  0
  161.3410  205.2760  149.0040 C   0  0  0  0  0  0  0  0  0  0  0  0
  160.9940  209.8070  155.2520 F   0  0  0  0  0  0  0  0  0  0  0  0
  161.2790  206.8090  150.6280 N   0  0  0  0  0  0  0  0  0  0  0  0
  160.7800  202.1530  150.8570 N   0  0  0  0  0  0  0  0  0  0  0  0
  161.1580  205.5020  150.3310 C   0  0  0  0  0  0  0  0  0  0  0  0
  161.5290  211.0150  152.8420 F   0  0  0  0  0  0  0  0  0  0  0  0
  160.9620  203.2570  150.2320 C   0  0  0  0  0  0  0  0  0  0  0  0
  161.7440  208.8000  149.4100 C   0  0  0  0  0  0  0  0  0  0  0  0
  160.5170  206.8840  155.7150 Cl  0  0  0  0  0  0  0  0  0  0  0  0
  160.8580  207.6700  154.1850 C   0  0  0  0  0  0  0  0  0  0  0  0
  160.9420  204.3300  151.0280 C   0  0  0  0  0  0  0  0  0  0  0  0
  161.5440  207.4160  149.4430 C   0  0  0  0  0  0  0  0  0  0  0  0
  161.0610  209.0570  154.1230 C   0  0  0  0  0  0  0  0  0  0  0  0
  161.5850  206.4860  148.3890 C   0  0  0  0  0  0  0  0  0  0  0  0
  161.9200  206.7170  146.9540 C   0  0  0  0  0  2  0  0  0  0  0  0
  160.7410  206.3360  146.0810 C   0  0  0  0  0  1  0  0  0  0  0  0
  1 19  1  0  0  0  0
  2  9  1  0  0  0  0
  2  5  2  0  0  0  0
  4  2  1  0  0  0  0
  5 22  1  0  0  0  0
  6 17  2  0  0  0  0
  7 10  1  0  0  0  0
  7 16  1  0  0  0  0
  8  3  1  0  0  0  0
  9  1  2  0  0  0  0
 10 14  2  0  0  0  0
 12  9  1  0  0  0  0
 13  8  1  0  0  0  0
 14 12  1  0  0  0  0
 14 20  1  0  0  0  0
 15  5  1  0  0  0  0
 16 13  2  0  0  0  0
 16 20  1  0  0  0  0
 17 21  1  0  0  0  0
 17  4  1  0  0  0  0
 19 18  1  0  0  0  0
 20  3  2  0  0  0  0
 21 12  1  0  0  0  0
 22 19  2  0  0  0  0
 22 11  1  0  0  0  0
 23 10  1  0  0  0  0
 23 21  2  0  0  0  0
 24 23  1  0  0  0  0
 25 24  1  0  0  0  0
M  END
>  <MODEL>
3

>  <REMARK>
 VINA RESULT:      -9.0      4.584      7.024
  Name = 
  1 active torsions:
  status: ('A' for Active; 'I' for Inactive)
    1  A    between atoms: C_6  and  C_25
                            x       y       z     vdW  Elec       q    Type
                         _______ _______ _______ _____ _____    ______ ____

>  <TORSDO>
F 1

$$$$
=
 OpenBabel11072415263D

 25 29  0  0  0  0  0  0  0  0999 V2000
  161.3890  206.6960  150.6750 C   0  0  0  0  0  3  0  0  0  0  0  0
  161.8960  207.6260  148.4800 C   0  0  0  0  0  0  0  0  0  0  0  0
  160.8690  203.9360  151.5790 N   0  0  0  0  0  0  0  0  0  0  0  0
  162.0740  207.4560  147.1660 O   0  0  0  0  0  0  0  0  0  0  0  0
  162.0240  208.8970  149.0520 C   0  0  0  0  0  0  0  0  0  0  0  0
  162.1420  206.1600  145.3310 O   0  0  0  0  0  0  0  0  0  0  0  0
  160.9220  201.5600  148.7000 S   0  0  0  0  0  0  0  0  0  0  0  0
  160.6040  202.7200  152.3780 C   0  0  0  0  0  2  0  0  0  0  0  0
  161.5750  206.5180  149.3000 C   0  0  0  0  0  0  0  0  0  0  0  0
  161.2020  203.1530  148.1510 C   0  0  0  0  0  0  0  0  0  0  0  0
  161.9640  210.3030  150.9780 F   0  0  0  0  0  0  0  0  0  0  0  0
  161.4600  205.3060  148.6930 N   0  0  0  0  0  0  0  0  0  0  0  0
  160.5750  201.5950  151.4190 N   0  0  0  0  0  0  0  0  0  0  0  0
  161.1900  204.0700  149.1530 C   0  0  0  0  0  0  0  0  0  0  0  0
  162.3310  209.9660  148.2750 F   0  0  0  0  0  0  0  0  0  0  0  0
  160.7840  202.1640  150.2900 C   0  0  0  0  0  0  0  0  0  0  0  0
  161.9620  206.2640  146.5740 C   0  0  0  0  0  0  0  0  0  0  0  0
  161.2820  208.1650  152.9650 Cl  0  0  0  0  0  0  0  0  0  0  0  0
  161.5190  207.9670  151.2400 C   0  0  0  0  0  0  0  0  0  0  0  0
  160.9490  203.4870  150.3820 C   0  0  0  0  0  0  0  0  0  0  0  0
  161.6440  205.1500  147.3570 C   0  0  0  0  0  0  0  0  0  0  0  0
  161.8370  209.0680  150.4300 C   0  0  0  0  0  0  0  0  0  0  0  0
  161.4830  203.8070  146.9700 C   0  0  0  0  0  0  0  0  0  0  0  0
  161.6740  203.1950  145.6240 C   0  0  0  0  0  2  0  0  0  0  0  0
  160.4540  202.3780  145.2490 C   0  0  0  0  0  1  0  0  0  0  0  0
  1 19  1  0  0  0  0
  2  5  2  0  0  0  0
  2  9  1  0  0  0  0
  3  8  1  0  0  0  0
  4  2  1  0  0  0  0
  5 22  1  0  0  0  0
  6 17  2  0  0  0  0
  7 16  1  0  0  0  0
  9  1  2  0  0  0  0
 10  7  1  0  0  0  0
 10 14  2  0  0  0  0
 12 14  1  0  0  0  0
 12  9  1  0  0  0  0
 13  8  1  0  0  0  0
 14 20  1  0  0  0  0
 15  5  1  0  0  0  0
 16 20  1  0  0  0  0
 16 13  2  0  0  0  0
 17  4  1  0  0  0  0
 17 21  1  0  0  0  0
 19 18  1  0  0  0  0
 20  3  2  0  0  0  0
 21 12  1  0  0  0  0
 22 11  1  0  0  0  0
 22 19  2  0  0  0  0
 23 21  2  0  0  0  0
 23 10  1  0  0  0  0
 24 23  1  0  0  0  0
 25 24  1  0  0  0  0
M  END
>  <MODEL>
4

>  <REMARK>
 VINA RESULT:      -9.0      4.122      6.639
  Name = 
  1 active torsions:
  status: ('A' for Active; 'I' for Inactive)
    1  A    between atoms: C_6  and  C_25
                            x       y       z     vdW  Elec       q    Type
                         _______ _______ _______ _____ _____    ______ ____

>  <TORSDO>
F 1

$$$$
=
 OpenBabel11072415263D

 25 29  0  0  1  0  0  0  0  0999 V2000
  161.2630  209.1610  153.4360 C   0  0  0  0  0  3  0  0  0  0  0  0
  160.8660  206.8860  154.2150 C   0  0  0  0  0  0  0  0  0  0  0  0
  161.7980  210.2650  150.7530 N   0  0  0  0  0  0  0  0  0  0  0  0
  160.7720  205.5770  153.9590 O   0  0  0  0  0  0  0  0  0  0  0  0
  160.6710  207.3680  155.5150 C   0  0  0  0  0  0  0  0  0  0  0  0
  160.8470  203.8260  152.5520 O   0  0  0  0  0  0  0  0  0  0  0  0
  161.9780  207.5440  148.2050 S   0  0  0  0  0  0  0  0  0  0  0  0
  162.0450  211.1530  149.5970 C   0  0  0  0  0  3  0  0  0  0  0  0
  161.1650  207.7920  153.1690 C   0  0  0  0  0  0  0  0  0  0  0  0
  161.6910  206.8800  149.7530 C   0  0  0  0  0  0  0  0  0  0  0  0
  160.5810  209.2020  157.0370 F   0  0  0  0  0  0  0  0  0  0  0  0
  161.3470  207.2690  151.9260 N   0  0  0  0  0  0  0  0  0  0  0  0
  162.1600  210.2710  148.4160 N   0  0  0  0  0  0  0  0  0  0  0  0
  161.6200  207.8210  150.7290 C   0  0  0  0  0  0  0  0  0  0  0  0
  160.3850  206.5080  156.5240 F   0  0  0  0  0  0  0  0  0  0  0  0
  162.0060  209.0980  148.9080 C   0  0  0  0  0  0  0  0  0  0  0  0
  160.9500  205.0680  152.7380 C   0  0  0  0  0  0  0  0  0  0  0  0
  161.1960  211.3560  155.0450 Cl  0  0  0  0  0  0  0  0  0  0  0  0
  161.0680  209.6360  154.7350 C   0  0  0  0  0  0  0  0  0  0  0  0
  161.8010  209.0960  150.2300 C   0  0  1  0  0  3  0  0  0  0  0  0
  161.2480  205.9370  151.6830 C   0  0  0  0  0  0  0  0  0  0  0  0
  160.7710  208.7410  155.7740 C   0  0  0  0  0  0  0  0  0  0  0  0
  161.4650  205.6460  150.3240 C   0  0  0  0  0  0  0  0  0  0  0  0
  161.3710  204.3310  149.6260 C   0  0  0  0  0  2  0  0  0  0  0  0
  161.2790  204.5470  148.1280 C   0  0  0  0  0  1  0  0  0  0  0  0
  1 19  1  0  0  0  0
  2  5  2  0  0  0  0
  4  2  1  0  0  0  0
  5 22  1  0  0  0  0
  5 15  1  0  0  0  0
  6 17  2  0  0  0  0
  7 16  1  0  0  0  0
  7 10  1  0  0  0  0
  8  3  2  0  0  0  0
  9  1  2  0  0  0  0
  9  2  1  0  0  0  0
 10 23  1  0  0  0  0
 10 14  2  0  0  0  0
 12  9  1  0  0  0  0
 13 16  2  0  0  0  0
 13  8  1  0  0  0  0
 14 12  1  0  0  0  0
 17  4  1  0  0  0  0
 19 18  1  0  0  0  0
 19 22  2  0  0  0  0
 20 16  1  6  0  0  0
 20 14  1  0  0  0  0
 20  3  1  0  0  0  0
 21 12  1  0  0  0  0
 21 17  1  0  0  0  0
 22 11  1  0  0  0  0
 23 21  2  0  0  0  0
 24 23  1  0  0  0  0
 25 24  1  0  0  0  0
M  END
>  <MODEL>
5

>  <REMARK>
 VINA RESULT:      -8.5      4.146      6.058
  Name = 
  1 active torsions:
  status: ('A' for Active; 'I' for Inactive)
    1  A    between atoms: C_6  and  C_25
                            x       y       z     vdW  Elec       q    Type
                         _______ _______ _______ _____ _____    ______ ____

>  <TORSDO>
F 1

$$$$
=
 OpenBabel11072415263D

 25 29  0  0  1  0  0  0  0  0999 V2000
  161.8190  208.0700  149.1790 C   0  0  0  0  0  3  0  0  0  0  0  0
  161.4430  207.5300  151.5260 C   0  0  0  0  0  0  0  0  0  0  0  0
  161.8100  206.4060  146.7430 N   0  0  0  0  0  0  0  0  0  0  0  0
  161.1960  206.6240  152.4780 O   0  0  0  0  0  0  0  0  0  0  0  0
  161.5840  208.8820  151.8570 C   0  0  0  0  0  0  0  0  0  0  0  0
  160.8200  204.5120  153.1490 O   0  0  0  0  0  0  0  0  0  0  0  0
  161.2050  202.8200  147.5820 S   0  0  0  0  0  0  0  0  0  0  0  0
  161.8530  205.9130  145.3500 C   0  0  0  0  0  3  0  0  0  0  0  0
  161.5620  207.1220  150.1750 C   0  0  0  0  0  0  0  0  0  0  0  0
  161.2290  203.7600  149.0080 C   0  0  0  0  0  0  0  0  0  0  0  0
  161.9770  211.1360  151.1810 F   0  0  0  0  0  0  0  0  0  0  0  0
  161.4180  205.7960  149.9090 N   0  0  0  0  0  0  0  0  0  0  0  0
  161.6310  204.4530  145.4220 N   0  0  0  0  0  0  0  0  0  0  0  0
  161.4520  205.0780  148.7710 C   0  0  0  0  0  0  0  0  0  0  0  0
  161.4720  209.2830  153.1480 F   0  0  0  0  0  0  0  0  0  0  0  0
  161.5060  204.2350  146.6790 C   0  0  0  0  0  0  0  0  0  0  0  0
  161.0540  205.3230  152.2130 C   0  0  0  0  0  0  0  0  0  0  0  0
  162.2810  210.5870  148.2500 Cl  0  0  0  0  0  0  0  0  0  0  0  0
  161.9590  209.4180  149.5170 C   0  0  0  0  0  0  0  0  0  0  0  0
  161.6080  205.3410  147.4240 C   0  0  1  0  0  3  0  0  0  0  0  0
  161.1680  204.8890  150.8890 C   0  0  0  0  0  0  0  0  0  0  0  0
  161.8420  209.8260  150.8530 C   0  0  0  0  0  0  0  0  0  0  0  0
  161.0490  203.5890  150.3640 C   0  0  0  0  0  0  0  0  0  0  0  0
  160.7020  202.3250  151.0760 C   0  0  0  0  0  2  0  0  0  0  0  0
  161.9570  201.6830  151.6320 C   0  0  0  0  0  1  0  0  0  0  0  0
  1 19  2  0  0  0  0
  1  9  1  0  0  0  0
  2  5  1  0  0  0  0
  2  4  1  0  0  0  0
  3 20  1  0  0  0  0
  5 15  1  0  0  0  0
  7 10  1  0  0  0  0
  8 13  1  0  0  0  0
  8  3  2  0  0  0  0
  9  2  2  0  0  0  0
 10 23  1  0  0  0  0
 12  9  1  0  0  0  0
 12 21  1  0  0  0  0
 13 16  2  0  0  0  0
 14 10  2  0  0  0  0
 14 12  1  0  0  0  0
 16  7  1  0  0  0  0
 17  4  1  0  0  0  0
 17  6  2  0  0  0  0
 18 19  1  0  0  0  0
 19 22  1  0  0  0  0
 20 16  1  6  0  0  0
 20 14  1  0  0  0  0
 21 17  1  0  0  0  0
 22 11  1  0  0  0  0
 22  5  2  0  0  0  0
 23 21  2  0  0  0  0
 23 24  1  0  0  0  0
 24 25  1  0  0  0  0
M  END
>  <MODEL>
6

>  <REMARK>
 VINA RESULT:      -8.4      3.705      5.359
  Name = 
  1 active torsions:
  status: ('A' for Active; 'I' for Inactive)
    1  A    between atoms: C_6  and  C_25
                            x       y       z     vdW  Elec       q    Type
                         _______ _______ _______ _____ _____    ______ ____

>  <TORSDO>
F 1

$$$$
=
 OpenBabel11072415263D

 25 29  0  0  0  0  0  0  0  0999 V2000
  161.1010  205.4150  151.5820 C   0  0  0  0  0  3  0  0  0  0  0  0
  161.4850  206.3460  149.3630 C   0  0  0  0  0  0  0  0  0  0  0  0
  160.7860  206.6810  154.2280 N   0  0  0  0  0  0  0  0  0  0  0  0
  161.6950  207.4060  148.5750 O   0  0  0  0  0  0  0  0  0  0  0  0
  161.4270  205.0590  148.8160 C   0  0  0  0  0  0  0  0  0  0  0  0
  161.9570  209.6150  148.2610 O   0  0  0  0  0  0  0  0  0  0  0  0
  161.1820  210.3850  153.9880 S   0  0  0  0  0  0  0  0  0  0  0  0
  160.5560  206.9530  155.6630 C   0  0  0  0  0  2  0  0  0  0  0  0
  161.3210  206.5230  150.7580 C   0  0  0  0  0  0  0  0  0  0  0  0
  161.3920  209.6710  152.4500 C   0  0  0  0  0  0  0  0  0  0  0  0
  161.1500  202.7080  149.1120 F   0  0  0  0  0  0  0  0  0  0  0  0
  161.3890  207.7950  151.2370 N   0  0  0  0  0  0  0  0  0  0  0  0
  160.6690  208.4180  155.8280 N   0  0  0  0  0  0  0  0  0  0  0  0
  161.2650  208.3190  152.4710 C   0  0  0  0  0  0  0  0  0  0  0  0
  161.5830  204.8790  147.4810 F   0  0  0  0  0  0  0  0  0  0  0  0
  160.9320  208.8290  154.6430 C   0  0  0  0  0  0  0  0  0  0  0  0
  161.7590  208.6530  149.0490 C   0  0  0  0  0  0  0  0  0  0  0  0
  160.7670  202.7600  152.0840 Cl  0  0  0  0  0  0  0  0  0  0  0  0
  161.0440  204.1330  151.0300 C   0  0  0  0  0  0  0  0  0  0  0  0
  160.9980  207.8450  153.7400 C   0  0  0  0  0  0  0  0  0  0  0  0
  161.6030  208.8600  150.4230 C   0  0  0  0  0  0  0  0  0  0  0  0
  161.2060  203.9530  149.6490 C   0  0  0  0  0  0  0  0  0  0  0  0
  161.6190  210.0650  151.1490 C   0  0  0  0  0  0  0  0  0  0  0  0
  161.7440  211.4600  150.6370 C   0  0  0  0  0  2  0  0  0  0  0  0
  160.4560  212.2190  150.8860 C   0  0  0  0  0  1  0  0  0  0  0  0
  2  9  1  0  0  0  0
  3  8  1  0  0  0  0
  4 17  1  0  0  0  0
  4  2  1  0  0  0  0
  5  2  2  0  0  0  0
  5 22  1  0  0  0  0
  6 17  2  0  0  0  0
  7 16  1  0  0  0  0
  8 13  1  0  0  0  0
  9 12  1  0  0  0  0
  9  1  2  0  0  0  0
 10 14  2  0  0  0  0
 10  7  1  0  0  0  0
 11 22  1  0  0  0  0
 12 14  1  0  0  0  0
 14 20  1  0  0  0  0
 15  5  1  0  0  0  0
 16 13  2  0  0  0  0
 17 21  1  0  0  0  0
 19  1  1  0  0  0  0
 19 18  1  0  0  0  0
 20  3  2  0  0  0  0
 20 16  1  0  0  0  0
 21 23  2  0  0  0  0
 21 12  1  0  0  0  0
 22 19  2  0  0  0  0
 23 10  1  0  0  0  0
 24 25  1  0  0  0  0
 24 23  1  0  0  0  0
M  END
>  <MODEL>
7

>  <REMARK>
 VINA RESULT:      -8.0      3.049      4.741
  Name = 
  1 active torsions:
  status: ('A' for Active; 'I' for Inactive)
    1  A    between atoms: C_6  and  C_25
                            x       y       z     vdW  Elec       q    Type
                         _______ _______ _______ _____ _____    ______ ____

>  <TORSDO>
F 1

$$$$
=
 OpenBabel11072415263D

 25 29  0  0  0  0  0  0  0  0999 V2000
  161.2840  204.1150  148.2660 C   0  0  0  0  0  3  0  0  0  0  0  0
  161.7460  206.2040  147.0990 C   0  0  0  0  0  0  0  0  0  0  0  0
  160.9400  203.4860  151.1280 N   0  0  0  0  0  0  0  0  0  0  0  0
  162.0030  207.5160  147.1350 O   0  0  0  0  0  0  0  0  0  0  0  0
  161.6660  205.5330  145.8730 C   0  0  0  0  0  0  0  0  0  0  0  0
  162.3310  209.4360  148.2550 O   0  0  0  0  0  0  0  0  0  0  0  0
  161.4410  206.5290  153.2300 S   0  0  0  0  0  0  0  0  0  0  0  0
  160.6830  202.8210  152.4230 C   0  0  0  0  0  2  0  0  0  0  0  0
  161.5530  205.4870  148.3040 C   0  0  0  0  0  0  0  0  0  0  0  0
  161.6680  206.9110  151.5810 C   0  0  0  0  0  0  0  0  0  0  0  0
  161.3200  203.5140  144.6510 F   0  0  0  0  0  0  0  0  0  0  0  0
  161.6430  206.1870  149.4670 N   0  0  0  0  0  0  0  0  0  0  0  0
  160.8310  203.8660  153.4590 N   0  0  0  0  0  0  0  0  0  0  0  0
  161.5040  205.8410  150.7610 C   0  0  0  0  0  0  0  0  0  0  0  0
  161.8500  206.2110  144.7120 F   0  0  0  0  0  0  0  0  0  0  0  0
  161.1330  204.9110  152.7820 C   0  0  0  0  0  0  0  0  0  0  0  0
  162.0880  208.2000  148.2780 C   0  0  0  0  0  0  0  0  0  0  0  0
  160.8670  201.7310  147.0180 Cl  0  0  0  0  0  0  0  0  0  0  0  0
  161.2060  203.4510  147.0390 C   0  0  0  0  0  0  0  0  0  0  0  0
  161.1950  204.6940  151.4640 C   0  0  0  0  0  0  0  0  0  0  0  0
  161.9050  207.5200  149.4860 C   0  0  0  0  0  0  0  0  0  0  0  0
  161.3960  204.1580  145.8430 C   0  0  0  0  0  0  0  0  0  0  0  0
  161.9370  208.0170  150.8020 C   0  0  0  0  0  0  0  0  0  0  0  0
  162.1110  209.4250  151.2620 C   0  0  0  0  0  2  0  0  0  0  0  0
  160.8740  209.8800  152.0110 C   0  0  0  0  0  1  0  0  0  0  0  0
  1  9  1  0  0  0  0
  2  4  1  0  0  0  0
  2  9  2  0  0  0  0
  3 20  2  0  0  0  0
  3  8  1  0  0  0  0
  4 17  1  0  0  0  0
  5  2  1  0  0  0  0
  6 17  2  0  0  0  0
  8 13  1  0  0  0  0
  9 12  1  0  0  0  0
 10  7  1  0  0  0  0
 11 22  1  0  0  0  0
 12 21  1  0  0  0  0
 12 14  1  0  0  0  0
 14 20  1  0  0  0  0
 14 10  2  0  0  0  0
 15  5  1  0  0  0  0
 16  7  1  0  0  0  0
 16 13  2  0  0  0  0
 17 21  1  0  0  0  0
 18 19  1  0  0  0  0
 19  1  2  0  0  0  0
 20 16  1  0  0  0  0
 21 23  2  0  0  0  0
 22  5  2  0  0  0  0
 22 19  1  0  0  0  0
 23 24  1  0  0  0  0
 23 10  1  0  0  0  0
 24 25  1  0  0  0  0
M  END
>  <MODEL>
8

>  <REMARK>
 VINA RESULT:      -7.9      2.631      4.318
  Name = 
  1 active torsions:
  status: ('A' for Active; 'I' for Inactive)
    1  A    between atoms: C_6  and  C_25
                            x       y       z     vdW  Elec       q    Type
                         _______ _______ _______ _____ _____    ______ ____

>  <TORSDO>
F 1

$$$$
=
 OpenBabel11072415263D

 25 29  0  0  0  0  0  0  0  0999 V2000
  160.9740  204.3910  151.1040 C   0  0  0  0  0  3  0  0  0  0  0  0
  161.2890  204.5880  148.6950 C   0  0  0  0  0  0  0  0  0  0  0  0
  160.9380  206.4010  153.2630 N   0  0  0  0  0  0  0  0  0  0  0  0
  161.5340  205.3450  147.6200 O   0  0  0  0  0  0  0  0  0  0  0  0
  161.0890  203.2100  148.5590 C   0  0  0  0  0  0  0  0  0  0  0  0
  161.9570  207.3280  146.6520 O   0  0  0  0  0  0  0  0  0  0  0  0
  161.6220  209.8140  151.9160 S   0  0  0  0  0  0  0  0  0  0  0  0
  160.8250  207.1030  154.5590 C   0  0  0  0  0  2  0  0  0  0  0  0
  161.2310  205.1820  149.9790 C   0  0  0  0  0  0  0  0  0  0  0  0
  161.6720  208.6640  150.6530 C   0  0  0  0  0  0  0  0  0  0  0  0
  160.6390  201.0880  149.5510 F   0  0  0  0  0  0  0  0  0  0  0  0
  161.4350  206.5250  150.0550 N   0  0  0  0  0  0  0  0  0  0  0  0
  161.0690  208.5340  154.2760 N   0  0  0  0  0  0  0  0  0  0  0  0
  161.4350  207.3970  151.0800 C   0  0  0  0  0  0  0  0  0  0  0  0
  161.1430  202.6320  147.3330 F   0  0  0  0  0  0  0  0  0  0  0  0
  161.2870  208.5510  153.0130 C   0  0  0  0  0  0  0  0  0  0  0  0
  161.7310  206.6630  147.6980 C   0  0  0  0  0  0  0  0  0  0  0  0
  160.4550  202.0450  152.3860 Cl  0  0  0  0  0  0  0  0  0  0  0  0
  160.7760  203.0150  150.9610 C   0  0  0  0  0  0  0  0  0  0  0  0
  161.2130  207.3450  152.4420 C   0  0  0  0  0  0  0  0  0  0  0  0
  161.6820  207.2790  148.9530 C   0  0  0  0  0  0  0  0  0  0  0  0
  160.8320  202.4240  149.6900 C   0  0  0  0  0  0  0  0  0  0  0  0
  161.8460  208.6350  149.2860 C   0  0  0  0  0  0  0  0  0  0  0  0
  162.0520  209.8000  148.3770 C   0  0  0  0  0  2  0  0  0  0  0  0
  161.9580  211.0920  149.1640 C   0  0  0  0  0  1  0  0  0  0  0  0
  2  9  1  0  0  0  0
  3  8  1  0  0  0  0
  4 17  1  0  0  0  0
  4  2  1  0  0  0  0
  5  2  2  0  0  0  0
  5 22  1  0  0  0  0
  6 17  2  0  0  0  0
  7 16  1  0  0  0  0
  9 12  1  0  0  0  0
  9  1  2  0  0  0  0
 10 14  2  0  0  0  0
 10  7  1  0  0  0  0
 11 22  1  0  0  0  0
 12 14  1  0  0  0  0
 13  8  1  0  0  0  0
 14 20  1  0  0  0  0
 15  5  1  0  0  0  0
 16 13  2  0  0  0  0
 17 21  1  0  0  0  0
 19  1  1  0  0  0  0
 19 18  1  0  0  0  0
 20 16  1  0  0  0  0
 20  3  2  0  0  0  0
 21 23  2  0  0  0  0
 21 12  1  0  0  0  0
 22 19  2  0  0  0  0
 23 10  1  0  0  0  0
 24 25  1  0  0  0  0
 24 23  1  0  0  0  0
M  END
>  <MODEL>
9

>  <REMARK>
 VINA RESULT:      -7.7      2.576      4.318
  Name = 
  1 active torsions:
  status: ('A' for Active; 'I' for Inactive)
    1  A    between atoms: C_6  and  C_25
                            x       y       z     vdW  Elec       q    Type
                         _______ _______ _______ _____ _____    ______ ____

>  <TORSDO>
F 1

$$$$
