=
 OpenBabel11072413503D

 29 32  0  0  1  0  0  0  0  0999 V2000
  161.0630  205.3340  151.1900 C   0  0  0  0  0  0  0  0  0  0  0  0
  161.5540  207.6990  153.6950 O   0  0  0  0  0  0  0  0  0  0  0  0
  161.7870  207.9970  151.3950 C   0  0  1  0  0  3  0  0  0  0  0  0
  160.7070  203.9740  149.5700 N   0  0  0  0  0  0  0  0  0  0  0  0
  161.1170  205.8890  152.4180 N   0  0  0  0  0  0  0  0  0  0  0  0
  161.4870  207.1970  152.5410 C   0  0  0  0  0  0  0  0  0  0  0  0
  161.1320  205.1330  149.0040 C   0  0  0  0  0  0  0  0  0  0  0  0
  161.7960  208.2450  148.8450 C   0  0  0  0  0  1  0  0  0  0  0  0
  160.6610  204.0920  150.8940 N   0  0  0  0  0  2  0  0  0  0  0  0
  161.3690  206.0670  150.0080 C   0  0  0  0  0  0  0  0  0  0  0  0
  161.6910  207.4240  150.0870 C   0  0  0  0  0  0  0  0  0  0  0  0
  161.3320  205.2720  147.5500 C   0  0  0  0  0  0  0  0  0  0  0  0
  160.5660  206.1360  145.4110 C   0  0  0  0  0  3  0  0  0  0  0  0
  162.3580  204.5830  146.8880 C   0  0  0  0  0  3  0  0  0  0  0  0
  160.4260  206.0340  146.7990 C   0  0  0  0  0  3  0  0  0  0  0  0
  162.5000  204.6840  145.5010 C   0  0  0  0  0  3  0  0  0  0  0  0
  161.6060  205.4640  144.7630 C   0  0  0  0  0  3  0  0  0  0  0  0
  161.4480  210.2910  152.2810 C   0  0  0  0  0  0  0  0  0  0  0  0
  160.7220  211.1720  152.9100 C   0  0  0  0  0  3  0  0  0  0  0  0
  162.1740  209.4100  151.6450 C   0  0  0  0  0  3  0  0  0  0  0  0
  157.4160  214.0200  153.3420 C   0  0  0  0  0  2  0  0  0  0  0  0
  159.3580  211.5110  152.4110 C   0  0  2  0  0  3  0  0  0  0  0  0
  157.0360  212.8480  154.2430 C   0  0  0  0  0  2  0  0  0  0  0  0
  159.9580  213.2170  150.6850 C   0  0  0  0  0  1  0  0  0  0  0  0
  157.8670  211.2460  155.7140 C   0  0  0  0  0  1  0  0  0  0  0  0
  159.2900  213.0000  152.0300 C   0  0  1  0  0  3  0  0  0  0  0  0
  158.1970  212.0170  154.5300 N   0  0  0  0  0  0  0  0  0  0  0  0
  158.3110  211.0630  153.4350 C   0  0  0  0  0  2  0  0  0  0  0  0
  157.8670  213.5460  151.9650 C   0  0  0  0  0  2  0  0  0  0  0  0
  1  5  2  0  0  0  0
  3 20  1  6  0  0  0
  3  6  1  0  0  0  0
  4  9  1  0  0  0  0
  5  6  1  0  0  0  0
  6  2  2  0  0  0  0
  7  4  2  0  0  0  0
  7 10  1  0  0  0  0
  8 11  1  0  0  0  0
  9  1  1  0  0  0  0
 10 11  2  0  0  0  0
 10  1  1  0  0  0  0
 11  3  1  0  0  0  0
 12  7  1  0  0  0  0
 13 15  1  0  0  0  0
 14 12  1  0  0  0  0
 15 12  2  0  0  0  0
 16 14  2  0  0  0  0
 17 13  2  0  0  0  0
 17 16  1  0  0  0  0
 18 19  2  0  0  0  0
 20 18  2  0  0  0  0
 21 23  1  0  0  0  0
 22 19  1  1  0  0  0
 22 28  1  0  0  0  0
 23 27  1  0  0  0  0
 26 24  1  6  0  0  0
 26 22  1  0  0  0  0
 27 25  1  0  0  0  0
 28 27  1  0  0  0  0
 29 26  1  0  0  0  0
 29 21  1  0  0  0  0
M  END
>  <MODEL>
1

>  <REMARK>
 VINA RESULT:      -9.5      0.000      0.000
  Name = 
  3 active torsions:
  status: ('A' for Active; 'I' for Inactive)
    1  A    between atoms: C_4  and  C_19
    2  A    between atoms: C_5  and  C_7
    3  A    between atoms: C_12  and  C_15
                            x       y       z     vdW  Elec       q    Type
                         _______ _______ _______ _____ _____    ______ ____

>  <TORSDO>
F 3

$$$$
=
 OpenBabel11072413503D

 29 32  0  0  1  0  0  0  0  0999 V2000
  161.6850  207.6070  149.5650 C   0  0  0  0  0  0  0  0  0  0  0  0
  161.9090  209.6240  152.3920 O   0  0  0  0  0  0  0  0  0  0  0  0
  161.5780  207.3170  152.3150 C   0  0  1  0  0  3  0  0  0  0  0  0
  161.6140  206.2680  147.8900 N   0  0  0  0  0  0  0  0  0  0  0  0
  161.8430  208.7060  150.3300 N   0  0  0  0  0  0  0  0  0  0  0  0
  161.7790  208.5860  151.6880 C   0  0  0  0  0  0  0  0  0  0  0  0
  161.4110  205.5030  148.9940 C   0  0  0  0  0  0  0  0  0  0  0  0
  161.4340  204.7690  152.0940 C   0  0  0  0  0  1  0  0  0  0  0  0
  161.7810  207.5430  148.2310 N   0  0  0  0  0  2  0  0  0  0  0  0
  161.4600  206.3160  150.1220 C   0  0  0  0  0  0  0  0  0  0  0  0
  161.4490  206.1410  151.5090 C   0  0  0  0  0  0  0  0  0  0  0  0
  161.1400  204.0560  148.9100 C   0  0  0  0  0  0  0  0  0  0  0  0
  161.1870  201.9950  147.6230 C   0  0  0  0  0  3  0  0  0  0  0  0
  160.4620  203.3840  149.9360 C   0  0  0  0  0  3  0  0  0  0  0  0
  161.4840  203.3570  147.7450 C   0  0  0  0  0  3  0  0  0  0  0  0
  160.1640  202.0230  149.8150 C   0  0  0  0  0  3  0  0  0  0  0  0
  160.5310  201.3280  148.6600 C   0  0  0  0  0  3  0  0  0  0  0  0
  160.8070  208.1010  154.5410 C   0  0  0  0  0  0  0  0  0  0  0  0
  160.0930  208.9010  155.2810 C   0  0  0  0  0  3  0  0  0  0  0  0
  161.5290  207.3020  153.8010 C   0  0  0  0  0  3  0  0  0  0  0  0
  159.1400  212.7120  157.2290 C   0  0  0  0  0  2  0  0  0  0  0  0
  160.2830  210.3770  155.1850 C   0  0  2  0  0  3  0  0  0  0  0  0
  158.0770  212.5570  156.1450 C   0  0  0  0  0  2  0  0  0  0  0  0
  162.2430  210.6440  156.7150 C   0  0  0  0  0  1  0  0  0  0  0  0
  156.7100  211.0280  155.0410 C   0  0  0  0  0  1  0  0  0  0  0  0
  160.7640  210.9360  156.5360 C   0  0  1  0  0  3  0  0  0  0  0  0
  158.0010  211.1760  155.6870 N   0  0  0  0  0  0  0  0  0  0  0  0
  159.0050  211.0250  154.6430 C   0  0  0  0  0  2  0  0  0  0  0  0
  160.5390  212.4370  156.6870 C   0  0  0  0  0  2  0  0  0  0  0  0
  1 10  1  0  0  0  0
  1  5  2  0  0  0  0
  3 20  1  1  0  0  0
  4  9  1  0  0  0  0
  4  7  2  0  0  0  0
  5  6  1  0  0  0  0
  6  3  1  0  0  0  0
  6  2  2  0  0  0  0
  7 10  1  0  0  0  0
  9  1  1  0  0  0  0
 10 11  2  0  0  0  0
 11  8  1  0  0  0  0
 11  3  1  0  0  0  0
 12  7  1  0  0  0  0
 12 14  1  0  0  0  0
 13 15  1  0  0  0  0
 13 17  2  0  0  0  0
 15 12  2  0  0  0  0
 16 14  2  0  0  0  0
 17 16  1  0  0  0  0
 18 19  2  0  0  0  0
 20 18  2  0  0  0  0
 22 19  1  1  0  0  0
 22 26  1  0  0  0  0
 23 21  1  0  0  0  0
 25 27  1  0  0  0  0
 26 29  1  0  0  0  0
 26 24  1  6  0  0  0
 27 23  1  0  0  0  0
 28 22  1  0  0  0  0
 28 27  1  0  0  0  0
 29 21  1  0  0  0  0
M  END
>  <MODEL>
2

>  <REMARK>
 VINA RESULT:      -9.2      2.450      3.607
  Name = 
  3 active torsions:
  status: ('A' for Active; 'I' for Inactive)
    1  A    between atoms: C_4  and  C_19
    2  A    between atoms: C_5  and  C_7
    3  A    between atoms: C_12  and  C_15
                            x       y       z     vdW  Elec       q    Type
                         _______ _______ _______ _____ _____    ______ ____

>  <TORSDO>
F 3

$$$$
=
 OpenBabel11072413503D

 29 32  0  0  1  0  0  0  0  0999 V2000
  161.1920  204.1850  151.9400 C   0  0  0  0  0  0  0  0  0  0  0  0
  161.2930  207.2290  153.6250 O   0  0  0  0  0  0  0  0  0  0  0  0
  161.1760  206.8830  151.3220 C   0  0  1  0  0  3  0  0  0  0  0  0
  161.0440  202.3650  150.8140 N   0  0  0  0  0  0  0  0  0  0  0  0
  161.2300  205.0730  152.9540 N   0  0  0  0  0  0  0  0  0  0  0  0
  161.2370  206.4080  152.6690 C   0  0  0  0  0  0  0  0  0  0  0  0
  161.0690  203.3730  149.9030 C   0  0  0  0  0  0  0  0  0  0  0  0
  160.8310  206.3660  148.8370 C   0  0  0  0  0  1  0  0  0  0  0  0
  161.1170  202.8530  152.0490 N   0  0  0  0  0  2  0  0  0  0  0  0
  161.1510  204.5880  150.5750 C   0  0  0  0  0  0  0  0  0  0  0  0
  161.0940  205.9450  150.2440 C   0  0  0  0  0  0  0  0  0  0  0  0
  161.0590  203.1210  148.4500 C   0  0  0  0  0  0  0  0  0  0  0  0
  160.5910  201.6210  146.5960 C   0  0  0  0  0  3  0  0  0  0  0  0
  161.6200  204.0360  147.5500 C   0  0  0  0  0  3  0  0  0  0  0  0
  160.5620  201.9020  147.9650 C   0  0  0  0  0  3  0  0  0  0  0  0
  161.6500  203.7570  146.1800 C   0  0  0  0  0  3  0  0  0  0  0  0
  161.1330  202.5500  145.7030 C   0  0  0  0  0  3  0  0  0  0  0  0
  161.3270  209.2430  152.0780 C   0  0  0  0  0  0  0  0  0  0  0  0
  161.4610  210.1280  153.0250 C   0  0  0  0  0  3  0  0  0  0  0  0
  161.1840  208.3570  151.1280 C   0  0  0  0  0  3  0  0  0  0  0  0
  160.0000  212.6040  156.3350 C   0  0  0  0  0  2  0  0  0  0  0  0
  160.4910  210.1650  154.1570 C   0  0  2  0  0  3  0  0  0  0  0  0
  161.0440  211.6890  156.9700 C   0  0  0  0  0  2  0  0  0  0  0  0
  158.6110  211.3900  153.0550 C   0  0  0  0  0  1  0  0  0  0  0  0
  163.1030  210.6510  156.6370 C   0  0  0  0  0  1  0  0  0  0  0  0
  159.6880  211.4770  154.1210 C   0  0  1  0  0  3  0  0  0  0  0  0
  161.9050  211.1000  155.9530 N   0  0  0  0  0  0  0  0  0  0  0  0
  161.2300  209.9020  155.4740 C   0  0  0  0  0  2  0  0  0  0  0  0
  159.0320  211.8250  155.4540 C   0  0  0  0  0  2  0  0  0  0  0  0
  1  9  1  0  0  0  0
  1  5  2  0  0  0  0
  3 20  1  1  0  0  0
  3  6  1  0  0  0  0
  4  9  1  0  0  0  0
  6  5  1  0  0  0  0
  6  2  2  0  0  0  0
  7 10  1  0  0  0  0
  7  4  2  0  0  0  0
  8 11  1  0  0  0  0
 10  1  1  0  0  0  0
 11 10  2  0  0  0  0
 11  3  1  0  0  0  0
 12  7  1  0  0  0  0
 13 15  2  0  0  0  0
 14 12  2  0  0  0  0
 15 12  1  0  0  0  0
 16 14  1  0  0  0  0
 17 16  2  0  0  0  0
 17 13  1  0  0  0  0
 18 19  2  0  0  0  0
 20 18  2  0  0  0  0
 21 23  1  0  0  0  0
 22 19  1  6  0  0  0
 22 28  1  0  0  0  0
 26 24  1  6  0  0  0
 26 22  1  0  0  0  0
 26 29  1  0  0  0  0
 27 25  1  0  0  0  0
 27 23  1  0  0  0  0
 28 27  1  0  0  0  0
 29 21  1  0  0  0  0
M  END
>  <MODEL>
3

>  <REMARK>
 VINA RESULT:      -9.1      2.105      2.829
  Name = 
  3 active torsions:
  status: ('A' for Active; 'I' for Inactive)
    1  A    between atoms: C_4  and  C_19
    2  A    between atoms: C_5  and  C_7
    3  A    between atoms: C_12  and  C_15
                            x       y       z     vdW  Elec       q    Type
                         _______ _______ _______ _____ _____    ______ ____

>  <TORSDO>
F 3

$$$$
=
 OpenBabel11072413503D

 29 32  0  0  1  0  0  0  0  0999 V2000
  161.0100  205.9200  150.9790 C   0  0  0  0  0  0  0  0  0  0  0  0
  161.5740  208.5080  153.2370 O   0  0  0  0  0  0  0  0  0  0  0  0
  161.8750  208.5480  150.9250 C   0  0  1  0  0  3  0  0  0  0  0  0
  160.6170  204.4170  149.5000 N   0  0  0  0  0  0  0  0  0  0  0  0
  161.0670  206.5980  152.1430 N   0  0  0  0  0  0  0  0  0  0  0  0
  161.5060  207.8910  152.1400 C   0  0  0  0  0  0  0  0  0  0  0  0
  161.1190  205.4860  148.8280 C   0  0  0  0  0  0  0  0  0  0  0  0
  161.9570  208.5250  148.3650 C   0  0  0  0  0  1  0  0  0  0  0  0
  160.5480  204.6770  150.8030 N   0  0  0  0  0  2  0  0  0  0  0  0
  161.3830  206.5070  149.7370 C   0  0  0  0  0  0  0  0  0  0  0  0
  161.7780  207.8460  149.6820 C   0  0  0  0  0  0  0  0  0  0  0  0
  161.3600  205.4600  147.3740 C   0  0  0  0  0  0  0  0  0  0  0  0
  160.6340  206.0400  145.1280 C   0  0  0  0  0  3  0  0  0  0  0  0
  162.4260  204.7340  146.8270 C   0  0  0  0  0  3  0  0  0  0  0  0
  160.4540  206.0970  146.5140 C   0  0  0  0  0  3  0  0  0  0  0  0
  162.6080  204.6760  145.4420 C   0  0  0  0  0  3  0  0  0  0  0  0
  161.7140  205.3320  144.5930 C   0  0  0  0  0  3  0  0  0  0  0  0
  161.8900  210.9560  150.3190 C   0  0  0  0  0  0  0  0  0  0  0  0
  161.4550  211.9510  149.5990 C   0  0  0  0  0  3  0  0  0  0  0  0
  162.3340  209.9580  151.0370 C   0  0  0  0  0  3  0  0  0  0  0  0
  161.6920  214.4530  146.0070 C   0  0  0  0  0  2  0  0  0  0  0  0
  161.5740  211.9080  148.1130 C   0  0  2  0  0  3  0  0  0  0  0  0
  160.2170  214.0800  146.1200 C   0  0  0  0  0  2  0  0  0  0  0  0
  164.0470  212.1970  147.8860 C   0  0  0  0  0  1  0  0  0  0  0  0
  158.4650  213.7220  147.6120 C   0  0  0  0  0  1  0  0  0  0  0  0
  162.6980  212.8500  147.6460 C   0  0  1  0  0  3  0  0  0  0  0  0
  159.9030  213.6050  147.4600 N   0  0  0  0  0  0  0  0  0  0  0  0
  160.2050  212.1800  147.4810 C   0  0  0  0  0  2  0  0  0  0  0  0
  162.5940  213.2360  146.1740 C   0  0  0  0  0  2  0  0  0  0  0  0
  1  5  2  0  0  0  0
  3 20  1  6  0  0  0
  3  6  1  0  0  0  0
  4  9  1  0  0  0  0
  6  5  1  0  0  0  0
  6  2  2  0  0  0  0
  7  4  2  0  0  0  0
  7 10  1  0  0  0  0
  8 11  1  0  0  0  0
  9  1  1  0  0  0  0
 10  1  1  0  0  0  0
 11 10  2  0  0  0  0
 11  3  1  0  0  0  0
 12  7  1  0  0  0  0
 13 15  1  0  0  0  0
 14 12  1  0  0  0  0
 15 12  2  0  0  0  0
 16 14  2  0  0  0  0
 17 13  2  0  0  0  0
 17 16  1  0  0  0  0
 18 20  2  0  0  0  0
 19 18  2  0  0  0  0
 21 23  1  0  0  0  0
 21 29  1  0  0  0  0
 22 19  1  1  0  0  0
 23 27  1  0  0  0  0
 26 24  1  6  0  0  0
 26 22  1  0  0  0  0
 27 28  1  0  0  0  0
 27 25  1  0  0  0  0
 28 22  1  0  0  0  0
 29 26  1  0  0  0  0
M  END
>  <MODEL>
4

>  <REMARK>
 VINA RESULT:      -9.0      2.885      4.052
  Name = 
  3 active torsions:
  status: ('A' for Active; 'I' for Inactive)
    1  A    between atoms: C_4  and  C_19
    2  A    between atoms: C_5  and  C_7
    3  A    between atoms: C_12  and  C_15
                            x       y       z     vdW  Elec       q    Type
                         _______ _______ _______ _____ _____    ______ ____

>  <TORSDO>
F 3

$$$$
=
 OpenBabel11072413503D

 29 32  0  0  1  0  0  0  0  0999 V2000
  161.6220  208.0840  150.3500 C   0  0  0  0  0  0  0  0  0  0  0  0
  161.6390  210.3830  152.9620 O   0  0  0  0  0  0  0  0  0  0  0  0
  161.3480  208.0740  153.1030 C   0  0  1  0  0  3  0  0  0  0  0  0
  161.6760  206.5800  148.8210 N   0  0  0  0  0  0  0  0  0  0  0  0
  161.7160  209.2590  151.0050 N   0  0  0  0  0  0  0  0  0  0  0  0
  161.5690  209.2760  152.3620 C   0  0  0  0  0  0  0  0  0  0  0  0
  161.4170  205.9280  149.9840 C   0  0  0  0  0  0  0  0  0  0  0  0
  161.2580  205.5140  153.1390 C   0  0  0  0  0  1  0  0  0  0  0  0
  161.8030  207.8870  149.0380 N   0  0  0  0  0  2  0  0  0  0  0  0
  161.3830  206.8530  151.0230 C   0  0  0  0  0  0  0  0  0  0  0  0
  161.2880  206.8200  152.4170 C   0  0  0  0  0  0  0  0  0  0  0  0
  161.1730  204.4750  150.0330 C   0  0  0  0  0  0  0  0  0  0  0  0
  161.2000  202.3960  151.2920 C   0  0  0  0  0  3  0  0  0  0  0  0
  160.8320  203.7550  148.8800 C   0  0  0  0  0  3  0  0  0  0  0  0
  161.3740  203.7820  151.2360 C   0  0  0  0  0  3  0  0  0  0  0  0
  160.6580  202.3690  148.9340 C   0  0  0  0  0  3  0  0  0  0  0  0
  160.8380  201.6900  150.1420 C   0  0  0  0  0  3  0  0  0  0  0  0
  160.2650  208.8790  155.1880 C   0  0  0  0  0  0  0  0  0  0  0  0
  159.3310  209.5520  155.7980 C   0  0  0  0  0  3  0  0  0  0  0  0
  161.2070  208.2100  154.5770 C   0  0  0  0  0  3  0  0  0  0  0  0
  157.2580  213.1700  157.1550 C   0  0  0  0  0  2  0  0  0  0  0  0
  159.1630  211.0100  155.5300 C   0  0  2  0  0  3  0  0  0  0  0  0
  156.3950  212.6350  156.0150 C   0  0  0  0  0  2  0  0  0  0  0  0
  160.8110  211.9280  157.1700 C   0  0  0  0  0  1  0  0  0  0  0  0
  155.5800  210.7010  155.0070 C   0  0  0  0  0  1  0  0  0  0  0  0
  159.3360  211.8100  156.8330 C   0  0  1  0  0  3  0  0  0  0  0  0
  156.7120  211.2420  155.7330 N   0  0  0  0  0  0  0  0  0  0  0  0
  157.8340  211.2470  154.8040 C   0  0  0  0  0  2  0  0  0  0  0  0
  158.7330  213.2100  156.7710 C   0  0  0  0  0  2  0  0  0  0  0  0
  1  5  2  0  0  0  0
  1 10  1  0  0  0  0
  3 20  1  1  0  0  0
  4  9  1  0  0  0  0
  4  7  2  0  0  0  0
  5  6  1  0  0  0  0
  6  2  2  0  0  0  0
  6  3  1  0  0  0  0
  7 12  1  0  0  0  0
  7 10  1  0  0  0  0
  9  1  1  0  0  0  0
 10 11  2  0  0  0  0
 11  3  1  0  0  0  0
 11  8  1  0  0  0  0
 12 15  1  0  0  0  0
 14 16  1  0  0  0  0
 14 12  2  0  0  0  0
 15 13  2  0  0  0  0
 16 17  2  0  0  0  0
 17 13  1  0  0  0  0
 18 19  2  0  0  0  0
 20 18  2  0  0  0  0
 22 19  1  1  0  0  0
 22 26  1  0  0  0  0
 23 21  1  0  0  0  0
 25 27  1  0  0  0  0
 26 24  1  6  0  0  0
 27 23  1  0  0  0  0
 28 22  1  0  0  0  0
 28 27  1  0  0  0  0
 29 26  1  0  0  0  0
 29 21  1  0  0  0  0
M  END
>  <MODEL>
5

>  <REMARK>
 VINA RESULT:      -8.7      2.664      3.820
  Name = 
  3 active torsions:
  status: ('A' for Active; 'I' for Inactive)
    1  A    between atoms: C_4  and  C_19
    2  A    between atoms: C_5  and  C_7
    3  A    between atoms: C_12  and  C_15
                            x       y       z     vdW  Elec       q    Type
                         _______ _______ _______ _____ _____    ______ ____

>  <TORSDO>
F 3

$$$$
=
 OpenBabel11072413503D

 29 32  0  0  1  0  0  0  0  0999 V2000
  160.3530  211.4380  152.1700 C   0  0  0  0  0  0  0  0  0  0  0  0
  162.4920  208.8430  151.2760 O   0  0  0  0  0  0  0  0  0  0  0  0
  161.0830  208.9470  153.1300 C   0  0  1  0  0  3  0  0  0  0  0  0
  158.9460  212.9450  152.7630 N   0  0  0  0  0  0  0  0  0  0  0  0
  161.2520  210.7200  151.4660 N   0  0  0  0  0  0  0  0  0  0  0  0
  161.6360  209.4960  151.9320 C   0  0  0  0  0  0  0  0  0  0  0  0
  158.8930  211.9810  153.7190 C   0  0  0  0  0  0  0  0  0  0  0  0
  159.3400  209.0990  155.0010 C   0  0  0  0  0  1  0  0  0  0  0  0
  159.8280  212.6190  151.8220 N   0  0  0  0  0  2  0  0  0  0  0  0
  159.7780  210.9610  153.3830 C   0  0  0  0  0  0  0  0  0  0  0  0
  160.0990  209.6870  153.8590 C   0  0  0  0  0  0  0  0  0  0  0  0
  158.0390  212.1040  154.9150 C   0  0  0  0  0  0  0  0  0  0  0  0
  157.8060  212.7010  157.2590 C   0  0  0  0  0  3  0  0  0  0  0  0
  156.7210  211.6280  154.9190 C   0  0  0  0  0  3  0  0  0  0  0  0
  158.5820  212.6240  156.0990 C   0  0  0  0  0  3  0  0  0  0  0  0
  155.9440  211.7040  156.0790 C   0  0  0  0  0  3  0  0  0  0  0  0
  156.4860  212.2440  157.2480 C   0  0  0  0  0  3  0  0  0  0  0  0
  161.8380  206.6170  152.7280 C   0  0  0  0  0  0  0  0  0  0  0  0
  162.1000  205.6280  151.9200 C   0  0  0  0  0  3  0  0  0  0  0  0
  161.5700  207.6040  153.5410 C   0  0  0  0  0  3  0  0  0  0  0  0
  161.3980  203.7120  148.0400 C   0  0  0  0  0  2  0  0  0  0  0  0
  161.0360  205.0970  151.0200 C   0  0  2  0  0  3  0  0  0  0  0  0
  161.1830  205.2000  147.7790 C   0  0  0  0  0  2  0  0  0  0  0  0
  161.1280  202.6790  151.6490 C   0  0  0  0  0  1  0  0  0  0  0  0
  161.9350  207.3400  148.3060 C   0  0  0  0  0  1  0  0  0  0  0  0
  161.4060  203.6810  150.5440 C   0  0  1  0  0  3  0  0  0  0  0  0
  161.7700  206.0030  148.8430 N   0  0  0  0  0  0  0  0  0  0  0  0
  160.7670  206.1020  149.8950 C   0  0  0  0  0  2  0  0  0  0  0  0
  160.6560  203.2470  149.2880 C   0  0  0  0  0  2  0  0  0  0  0  0
  1 10  1  0  0  0  0
  2  6  2  0  0  0  0
  3 20  1  6  0  0  0
  3 11  1  0  0  0  0
  4  7  2  0  0  0  0
  5  6  1  0  0  0  0
  5  1  2  0  0  0  0
  6  3  1  0  0  0  0
  7 12  1  0  0  0  0
  9  1  1  0  0  0  0
  9  4  1  0  0  0  0
 10  7  1  0  0  0  0
 10 11  2  0  0  0  0
 11  8  1  0  0  0  0
 12 14  2  0  0  0  0
 12 15  1  0  0  0  0
 14 16  1  0  0  0  0
 15 13  2  0  0  0  0
 16 17  2  0  0  0  0
 17 13  1  0  0  0  0
 18 20  2  0  0  0  0
 19 18  2  0  0  0  0
 21 29  1  0  0  0  0
 22 19  1  6  0  0  0
 23 21  1  0  0  0  0
 23 27  1  0  0  0  0
 25 27  1  0  0  0  0
 26 22  1  0  0  0  0
 26 24  1  1  0  0  0
 27 28  1  0  0  0  0
 28 22  1  0  0  0  0
 29 26  1  0  0  0  0
M  END
>  <MODEL>
6

>  <REMARK>
 VINA RESULT:      -8.3      1.930      9.001
  Name = 
  3 active torsions:
  status: ('A' for Active; 'I' for Inactive)
    1  A    between atoms: C_4  and  C_19
    2  A    between atoms: C_5  and  C_7
    3  A    between atoms: C_12  and  C_15
                            x       y       z     vdW  Elec       q    Type
                         _______ _______ _______ _____ _____    ______ ____

>  <TORSDO>
F 3

$$$$
=
 OpenBabel11072413503D

 29 32  0  0  1  0  0  0  0  0999 V2000
  159.5550  212.8990  151.1380 C   0  0  0  0  0  0  0  0  0  0  0  0
  162.1710  211.4500  149.3570 O   0  0  0  0  0  0  0  0  0  0  0  0
  161.3740  210.8380  151.4620 C   0  0  1  0  0  3  0  0  0  0  0  0
  157.9090  213.6690  152.2790 N   0  0  0  0  0  0  0  0  0  0  0  0
  160.4300  212.6570  150.1410 N   0  0  0  0  0  0  0  0  0  0  0  0
  161.3450  211.6540  150.2880 C   0  0  0  0  0  0  0  0  0  0  0  0
  158.4700  212.6910  153.0370 C   0  0  0  0  0  0  0  0  0  0  0  0
  160.2660  210.1350  153.6620 C   0  0  0  0  0  1  0  0  0  0  0  0
  158.5620  213.7960  151.1270 N   0  0  0  0  0  2  0  0  0  0  0  0
  159.5420  212.1390  152.3420 C   0  0  0  0  0  0  0  0  0  0  0  0
  160.4210  211.0650  152.5050 C   0  0  0  0  0  0  0  0  0  0  0  0
  157.9850  212.3700  154.3920 C   0  0  0  0  0  0  0  0  0  0  0  0
  156.3330  211.3010  155.8180 C   0  0  0  0  0  3  0  0  0  0  0  0
  158.5920  212.9190  155.5300 C   0  0  0  0  0  3  0  0  0  0  0  0
  156.8410  211.5740  154.5440 C   0  0  0  0  0  3  0  0  0  0  0  0
  158.0850  212.6470  156.8040 C   0  0  0  0  0  3  0  0  0  0  0  0
  156.9570  211.8350  156.9480 C   0  0  0  0  0  3  0  0  0  0  0  0
  162.3180  208.6030  150.9360 C   0  0  0  0  0  0  0  0  0  0  0  0
  162.2270  207.4340  150.3670 C   0  0  0  0  0  3  0  0  0  0  0  0
  162.4080  209.7720  151.5130 C   0  0  0  0  0  3  0  0  0  0  0  0
  161.1570  203.2230  150.9550 C   0  0  0  0  0  2  0  0  0  0  0  0
  161.1000  206.5200  150.7130 C   0  0  2  0  0  3  0  0  0  0  0  0
  160.7610  203.5230  149.5130 C   0  0  0  0  0  2  0  0  0  0  0  0
  161.5200  206.2500  153.1620 C   0  0  0  0  0  1  0  0  0  0  0  0
  161.3680  204.6850  147.5870 C   0  0  0  0  0  1  0  0  0  0  0  0
  161.5340  205.5430  151.8200 C   0  0  1  0  0  3  0  0  0  0  0  0
  161.4150  204.7340  149.0360 N   0  0  0  0  0  0  0  0  0  0  0  0
  160.5720  205.8520  149.4390 C   0  0  0  0  0  2  0  0  0  0  0  0
  160.6550  204.2990  151.9110 C   0  0  0  0  0  2  0  0  0  0  0  0
  1 10  1  0  0  0  0
  2  6  2  0  0  0  0
  3 20  1  6  0  0  0
  3 11  1  0  0  0  0
  4  7  2  0  0  0  0
  5  6  1  0  0  0  0
  5  1  2  0  0  0  0
  6  3  1  0  0  0  0
  7 12  1  0  0  0  0
  9  1  1  0  0  0  0
  9  4  1  0  0  0  0
 10 11  2  0  0  0  0
 10  7  1  0  0  0  0
 11  8  1  0  0  0  0
 12 15  2  0  0  0  0
 12 14  1  0  0  0  0
 13 17  2  0  0  0  0
 14 16  2  0  0  0  0
 15 13  1  0  0  0  0
 16 17  1  0  0  0  0
 18 20  2  0  0  0  0
 19 18  2  0  0  0  0
 21 29  1  0  0  0  0
 22 19  1  6  0  0  0
 22 26  1  0  0  0  0
 23 21  1  0  0  0  0
 25 27  1  0  0  0  0
 26 29  1  0  0  0  0
 26 24  1  1  0  0  0
 27 28  1  0  0  0  0
 27 23  1  0  0  0  0
 28 22  1  0  0  0  0
M  END
>  <MODEL>
7

>  <REMARK>
 VINA RESULT:      -8.2      2.048      8.903
  Name = 
  3 active torsions:
  status: ('A' for Active; 'I' for Inactive)
    1  A    between atoms: C_4  and  C_19
    2  A    between atoms: C_5  and  C_7
    3  A    between atoms: C_12  and  C_15
                            x       y       z     vdW  Elec       q    Type
                         _______ _______ _______ _____ _____    ______ ____

>  <TORSDO>
F 3

$$$$
=
 OpenBabel11072413503D

 29 32  0  0  1  0  0  0  0  0999 V2000
  159.2630  212.4710  152.0050 C   0  0  0  0  0  0  0  0  0  0  0  0
  159.7110  210.0660  154.4800 O   0  0  0  0  0  0  0  0  0  0  0  0
  160.8930  210.2860  152.4820 C   0  0  1  0  0  3  0  0  0  0  0  0
  159.1210  213.9550  150.4620 N   0  0  0  0  0  0  0  0  0  0  0  0
  159.1020  211.7930  153.1590 N   0  0  0  0  0  0  0  0  0  0  0  0
  159.8860  210.7040  153.4060 C   0  0  0  0  0  0  0  0  0  0  0  0
  160.0820  213.0830  150.0600 C   0  0  0  0  0  0  0  0  0  0  0  0
  162.2500  210.7680  150.3630 C   0  0  0  0  0  1  0  0  0  0  0  0
  158.6240  213.5890  151.6410 N   0  0  0  0  0  2  0  0  0  0  0  0
  160.2330  212.0970  151.0310 C   0  0  0  0  0  0  0  0  0  0  0  0
  161.0960  211.0260  151.2740 C   0  0  0  0  0  0  0  0  0  0  0  0
  160.7670  213.2110  148.7610 C   0  0  0  0  0  0  0  0  0  0  0  0
  160.9370  212.5780  146.4210 C   0  0  0  0  0  3  0  0  0  0  0  0
  161.9550  213.9430  148.6350 C   0  0  0  0  0  3  0  0  0  0  0  0
  160.2730  212.5130  147.6490 C   0  0  0  0  0  3  0  0  0  0  0  0
  162.6210  214.0080  147.4070 C   0  0  0  0  0  3  0  0  0  0  0  0
  162.1100  213.3290  146.3000 C   0  0  0  0  0  3  0  0  0  0  0  0
  161.9380  208.0710  152.0730 C   0  0  0  0  0  0  0  0  0  0  0  0
  162.1780  207.0520  151.2970 C   0  0  0  0  0  3  0  0  0  0  0  0
  161.6920  209.0890  152.8550 C   0  0  0  0  0  3  0  0  0  0  0  0
  161.2060  203.6520  148.7050 C   0  0  0  0  0  2  0  0  0  0  0  0
  161.0480  206.2640  150.7250 C   0  0  2  0  0  3  0  0  0  0  0  0
  161.1070  204.8720  147.7940 C   0  0  0  0  0  2  0  0  0  0  0  0
  160.9600  204.3970  152.3850 C   0  0  0  0  0  1  0  0  0  0  0  0
  162.0470  206.9440  147.2980 C   0  0  0  0  0  1  0  0  0  0  0  0
  161.2860  204.7610  150.9480 C   0  0  1  0  0  3  0  0  0  0  0  0
  161.7890  206.0170  148.3820 N   0  0  0  0  0  0  0  0  0  0  0  0
  160.8290  206.6680  149.2630 C   0  0  0  0  0  2  0  0  0  0  0  0
  160.4660  203.8710  150.0190 C   0  0  0  0  0  2  0  0  0  0  0  0
  1  5  2  0  0  0  0
  3 20  1  1  0  0  0
  3  6  1  0  0  0  0
  4  9  1  0  0  0  0
  5  6  1  0  0  0  0
  6  2  2  0  0  0  0
  7  4  2  0  0  0  0
  7 10  1  0  0  0  0
  8 11  1  0  0  0  0
  9  1  1  0  0  0  0
 10 11  2  0  0  0  0
 10  1  1  0  0  0  0
 11  3  1  0  0  0  0
 12  7  1  0  0  0  0
 13 15  1  0  0  0  0
 14 12  1  0  0  0  0
 15 12  2  0  0  0  0
 16 14  2  0  0  0  0
 17 13  2  0  0  0  0
 17 16  1  0  0  0  0
 18 20  2  0  0  0  0
 19 18  2  0  0  0  0
 21 29  1  0  0  0  0
 22 26  1  0  0  0  0
 22 19  1  6  0  0  0
 23 27  1  0  0  0  0
 23 21  1  0  0  0  0
 25 27  1  0  0  0  0
 26 24  1  1  0  0  0
 27 28  1  0  0  0  0
 28 22  1  0  0  0  0
 29 26  1  0  0  0  0
M  END
>  <MODEL>
8

>  <REMARK>
 VINA RESULT:      -8.1      2.362      7.591
  Name = 
  3 active torsions:
  status: ('A' for Active; 'I' for Inactive)
    1  A    between atoms: C_4  and  C_19
    2  A    between atoms: C_5  and  C_7
    3  A    between atoms: C_12  and  C_15
                            x       y       z     vdW  Elec       q    Type
                         _______ _______ _______ _____ _____    ______ ____

>  <TORSDO>
F 3

$$$$
=
 OpenBabel11072413503D

 29 32  0  0  1  0  0  0  0  0999 V2000
  161.1190  210.3210  151.9360 C   0  0  0  0  0  0  0  0  0  0  0  0
  162.7050  207.4210  150.8470 O   0  0  0  0  0  0  0  0  0  0  0  0
  161.3840  207.6900  152.7500 C   0  0  1  0  0  3  0  0  0  0  0  0
  160.0380  212.0330  152.6480 N   0  0  0  0  0  0  0  0  0  0  0  0
  161.8490  209.4860  151.1690 N   0  0  0  0  0  0  0  0  0  0  0  0
  162.0040  208.1880  151.5610 C   0  0  0  0  0  0  0  0  0  0  0  0
  159.8250  211.0450  153.5570 C   0  0  0  0  0  0  0  0  0  0  0  0
  159.7450  208.0660  154.6820 C   0  0  0  0  0  1  0  0  0  0  0  0
  160.8210  211.5970  151.6640 N   0  0  0  0  0  2  0  0  0  0  0  0
  160.4930  209.8970  153.1420 C   0  0  0  0  0  0  0  0  0  0  0  0
  160.5750  208.5620  153.5450 C   0  0  0  0  0  0  0  0  0  0  0  0
  159.0380  211.2630  154.7850 C   0  0  0  0  0  0  0  0  0  0  0  0
  156.8810  211.6220  155.8450 C   0  0  0  0  0  3  0  0  0  0  0  0
  159.6640  211.4620  156.0230 C   0  0  0  0  0  3  0  0  0  0  0  0
  157.6420  211.3630  154.7000 C   0  0  0  0  0  3  0  0  0  0  0  0
  158.9040  211.7210  157.1670 C   0  0  0  0  0  3  0  0  0  0  0  0
  157.5120  211.7970  157.0790 C   0  0  0  0  0  3  0  0  0  0  0  0
  161.7900  205.3010  152.2050 C   0  0  0  0  0  0  0  0  0  0  0  0
  161.9560  204.3440  151.3360 C   0  0  0  0  0  3  0  0  0  0  0  0
  161.6160  206.2580  153.0780 C   0  0  0  0  0  3  0  0  0  0  0  0
  161.2950  203.1760  147.1620 C   0  0  0  0  0  2  0  0  0  0  0  0
  160.8990  204.0620  150.3230 C   0  0  2  0  0  3  0  0  0  0  0  0
  161.2060  204.6990  147.1550 C   0  0  0  0  0  2  0  0  0  0  0  0
  160.7790  201.5730  150.5280 C   0  0  0  0  0  1  0  0  0  0  0  0
  162.0910  206.6510  148.0680 C   0  0  0  0  0  1  0  0  0  0  0  0
  161.1830  202.7220  149.6220 C   0  0  1  0  0  3  0  0  0  0  0  0
  161.8000  205.2600  148.3610 N   0  0  0  0  0  0  0  0  0  0  0  0
  160.7590  205.2610  149.3800 C   0  0  0  0  0  2  0  0  0  0  0  0
  160.4630  202.5700  148.2860 C   0  0  0  0  0  2  0  0  0  0  0  0
  1 10  1  0  0  0  0
  2  6  2  0  0  0  0
  3 20  1  6  0  0  0
  3 11  1  0  0  0  0
  4  7  2  0  0  0  0
  5  6  1  0  0  0  0
  5  1  2  0  0  0  0
  6  3  1  0  0  0  0
  7 12  1  0  0  0  0
  9  1  1  0  0  0  0
  9  4  1  0  0  0  0
 10 11  2  0  0  0  0
 10  7  1  0  0  0  0
 11  8  1  0  0  0  0
 12 14  1  0  0  0  0
 13 17  2  0  0  0  0
 14 16  2  0  0  0  0
 15 12  2  0  0  0  0
 15 13  1  0  0  0  0
 17 16  1  0  0  0  0
 18 20  2  0  0  0  0
 19 18  2  0  0  0  0
 21 29  1  0  0  0  0
 22 19  1  1  0  0  0
 23 21  1  0  0  0  0
 23 27  1  0  0  0  0
 25 27  1  0  0  0  0
 26 22  1  0  0  0  0
 26 24  1  1  0  0  0
 27 28  1  0  0  0  0
 28 22  1  0  0  0  0
 29 26  1  0  0  0  0
M  END
>  <MODEL>
9

>  <REMARK>
 VINA RESULT:      -8.1      2.078      8.922
  Name = 
  3 active torsions:
  status: ('A' for Active; 'I' for Inactive)
    1  A    between atoms: C_4  and  C_19
    2  A    between atoms: C_5  and  C_7
    3  A    between atoms: C_12  and  C_15
                            x       y       z     vdW  Elec       q    Type
                         _______ _______ _______ _____ _____    ______ ____

>  <TORSDO>
F 3

$$$$
