=
 OpenBabel11072414513D

 47 54  0  0  1  0  0  0  0  0999 V2000
  160.4710  210.2640  154.8450 C   0  0  2  0  0  3  0  0  0  0  0  0
  161.6280  208.7740  153.1220 C   0  0  0  0  0  2  0  0  0  0  0  0
  160.6060  207.0310  154.6820 C   0  0  0  0  0  2  0  0  0  0  0  0
  161.8020  207.4040  153.8020 C   0  0  1  0  0  3  0  0  0  0  0  0
  160.4510  207.9760  155.7790 N   0  0  0  0  0  2  0  0  0  0  0  0
  161.7860  209.8960  154.1430 C   0  0  0  0  0  2  0  0  0  0  0  0
  159.6190  209.0620  155.2810 C   0  0  0  0  0  2  0  0  0  0  0  0
  159.6860  211.2310  154.0060 C   0  0  2  0  0  3  0  0  0  0  0  0
  158.2550  213.4600  154.0100 C   0  0  1  0  0  0  0  0  0  0  0  0
  159.1830  212.3360  154.4910 C   0  0  1  0  0  3  0  0  0  0  0  0
  158.9090  210.8700  152.7440 C   0  0  0  0  0  2  0  0  0  0  0  0
  157.5360  211.4290  152.7590 N   0  0  0  0  0  0  0  0  0  0  0  0
  157.2150  212.5740  153.3160 C   0  0  0  0  0  3  0  0  0  0  0  0
  158.7150  213.4600  155.3770 C   0  0  1  0  0  0  0  0  0  0  0  0
  159.7550  214.3170  155.7530 O   0  0  0  0  0  1  0  0  0  0  0  0
  156.8410  214.0010  156.4820 C   0  0  0  0  0  1  0  0  0  0  0  0
  157.8400  213.0270  156.3830 O   0  0  0  0  0  0  0  0  0  0  0  0
  158.8810  214.4530  153.2100 O   0  0  0  0  0  0  0  0  0  0  0  0
  158.7260  214.1640  151.8440 C   0  0  0  0  0  2  0  0  0  0  0  0
  160.0750  213.8220  151.2270 C   0  0  0  0  0  2  0  0  0  0  0  0
  161.3730  213.6900  149.0060 C   0  0  2  0  0  3  0  0  0  0  0  0
  159.6630  211.6050  146.6300 F   0  0  0  0  0  0  0  0  0  0  0  0
  158.6420  213.1820  148.1230 C   0  0  0  0  0  2  0  0  0  0  0  0
  158.8840  214.4130  149.0260 C   0  0  0  0  0  2  0  0  0  0  0  0
  160.2240  214.3590  149.8000 C   0  0  1  0  0  3  0  0  0  0  0  0
  161.5740  214.4530  147.6950 C   0  0  0  0  0  2  0  0  0  0  0  0
  160.9070  212.3180  148.5540 C   0  0  1  0  0  3  0  0  0  0  0  0
  160.6170  213.8130  146.6880 C   0  0  0  0  0  2  0  0  0  0  0  0
  159.9330  212.6820  147.4530 C   0  0  1  0  0  0  0  0  0  0  0  0
  161.9860  211.5810  148.0470 O   0  0  0  0  0  1  0  0  0  0  0  0
  162.5550  206.8930  151.5990 C   0  0  0  0  0  2  0  0  0  0  0  0
  162.2410  206.0330  150.5390 O   0  0  0  0  0  0  0  0  0  0  0  0
  160.6490  205.3620  152.4970 S   0  0  0  0  0  0  0  0  0  0  0  0
  162.0960  206.3170  152.8590 N   0  0  2  0  0  0  0  0  0  0  0  0
  160.8970  205.7020  150.7390 C   0  0  2  0  0  3  0  0  0  0  0  0
  160.4660  204.5040  149.8810 C   0  0  1  0  0  3  0  0  0  0  0  0
  161.9660  203.7190  147.9690 C   0  0  0  0  0  2  0  0  0  0  0  0
  161.9080  204.5880  145.5980 C   0  0  0  0  0  2  0  0  0  0  0  0
  161.0950  206.4230  146.5960 C   0  0  2  0  0  3  0  0  0  0  0  0
  160.8170  204.6370  148.3950 C   0  0  2  0  0  3  0  0  0  0  0  0
  160.0280  206.7160  147.4710 O   0  0  0  0  0  0  0  0  0  0  0  0
  160.7360  205.3330  145.7870 O   0  0  0  0  0  0  0  0  0  0  0  0
  161.1470  206.0950  148.0580 C   0  0  2  0  0  3  0  0  0  0  0  0
  161.8720  203.3510  146.4900 C   0  0  0  0  0  2  0  0  0  0  0  0
  160.8690  203.1770  150.4490 C   0  0  0  0  0  0  0  0  0  0  0  0
  160.2990  202.1290  150.0440 O   0  0  0  0  0  0  0  0  0  0  0  0
  161.8680  203.0880  151.4140 O   0  0  0  0  0  1  0  0  0  0  0  0
  1  6  1  6  0  0  0
  1  7  1  0  0  0  0
  2  6  1  0  0  0  0
  3  5  1  0  0  0  0
  4  2  1  6  0  0  0
  4  3  1  0  0  0  0
  7  5  1  0  0  0  0
  8 11  1  1  0  0  0
  8 10  1  0  0  0  0
  8  1  1  0  0  0  0
  9 18  1  6  0  0  0
  9 10  1  0  0  0  0
  9 14  1  0  0  0  0
 10 14  1  0  0  0  0
 11 12  1  0  0  0  0
 12 13  2  0  0  0  0
 13  9  1  0  0  0  0
 14 15  1  0  0  0  0
 14 17  1  0  0  0  0
 17 16  1  0  0  0  0
 19 18  1  0  0  0  0
 20 19  1  0  0  0  0
 21 25  1  0  0  0  0
 22 29  1  0  0  0  0
 23 24  1  0  0  0  0
 24 25  1  0  0  0  0
 25 20  1  0  0  0  0
 26 21  1  0  0  0  0
 27 21  1  0  0  0  0
 28 29  1  0  0  0  0
 28 26  1  0  0  0  0
 29 23  1  0  0  0  0
 29 27  1  0  0  0  0
 30 27  1  0  0  0  0
 31 34  1  0  0  0  0
 32 35  1  0  0  0  0
 32 31  1  0  0  0  0
 33 34  1  0  0  0  0
 34  4  1  0  0  0  0
 35 33  1  0  0  0  0
 36 45  1  0  0  0  0
 36 35  1  0  0  0  0
 37 40  1  0  0  0  0
 38 42  1  0  0  0  0
 38 44  1  0  0  0  0
 39 41  1  0  0  0  0
 39 43  1  0  0  0  0
 40 36  1  0  0  0  0
 41 43  1  0  0  0  0
 42 39  1  0  0  0  0
 43 40  1  0  0  0  0
 44 37  1  0  0  0  0
 45 47  1  0  0  0  0
 46 45  2  0  0  0  0
M  END
>  <MODEL>
1

>  <REMARK>
 VINA RESULT:      -6.1      0.000      0.000
  Name = 
  10 active torsions:
  status: ('A' for Active; 'I' for Inactive)
    1  A    between atoms: C_2  and  C_5
    2  A    between atoms: C_3  and  O_15
    3  A    between atoms: C_4  and  C_10
    4  A    between atoms: C_4  and  C_21
    5  A    between atoms: C_7  and  C_14
    6  A    between atoms: C_7  and  C_27
    7  A    between atoms: C_7  and  C_43
    8  A    between atoms: C_10  and  O_15
    9  A    between atoms: C_23  and  N_42
   10  A    between atoms: C_35  and  O_38
                            x       y       z     vdW  Elec       q    Type
                         _______ _______ _______ _____ _____    ______ ____

>  <TORSDO>
F 10

$$$$
=
 OpenBabel11072414513D

 47 54  0  0  1  0  0  0  0  0999 V2000
  160.6450  204.8990  148.4490 C   0  0  2  0  0  3  0  0  0  0  0  0
  161.1460  206.8480  150.0220 C   0  0  0  0  0  2  0  0  0  0  0  0
  161.7060  204.8510  151.5100 C   0  0  0  0  0  2  0  0  0  0  0  0
  161.1100  206.2590  151.4430 C   0  0  1  0  0  3  0  0  0  0  0  0
  160.9330  203.9200  150.6990 N   0  0  0  0  0  2  0  0  0  0  0  0
  160.1100  206.1620  149.1370 C   0  0  0  0  0  2  0  0  0  0  0  0
  161.4820  203.9820  149.3530 C   0  0  0  0  0  2  0  0  0  0  0  0
  161.3770  205.2630  147.1890 C   0  0  2  0  0  3  0  0  0  0  0  0
  161.7270  204.6900  144.6260 C   0  0  1  0  0  0  0  0  0  0  0  0
  161.1300  204.6880  146.0410 C   0  0  1  0  0  3  0  0  0  0  0  0
  162.7790  205.8600  147.1290 C   0  0  0  0  0  2  0  0  0  0  0  0
  163.6420  205.1540  146.1520 N   0  0  0  0  0  0  0  0  0  0  0  0
  163.2020  204.6210  145.0350 C   0  0  0  0  0  3  0  0  0  0  0  0
  160.6340  203.8000  144.9310 C   0  0  1  0  0  0  0  0  0  0  0  0
  159.3400  204.1310  144.5140 O   0  0  0  0  0  1  0  0  0  0  0  0
  159.7220  201.7510  144.9090 C   0  0  0  0  0  1  0  0  0  0  0  0
  160.9110  202.4440  145.1580 O   0  0  0  0  0  0  0  0  0  0  0  0
  161.3400  205.7910  143.8150 O   0  0  0  0  0  0  0  0  0  0  0  0
  162.0830  205.8170  142.6230 C   0  0  0  0  0  2  0  0  0  0  0  0
  161.3230  206.5900  141.5540 C   0  0  0  0  0  2  0  0  0  0  0  0
  161.4420  207.0160  139.0160 C   0  0  2  0  0  3  0  0  0  0  0  0
  161.2250  210.5280  138.2820 F   0  0  0  0  0  0  0  0  0  0  0  0
  162.4590  209.5310  140.0830 C   0  0  0  0  0  2  0  0  0  0  0  0
  163.0800  208.2220  140.6230 C   0  0  0  0  0  2  0  0  0  0  0  0
  162.2070  206.9700  140.3610 C   0  0  1  0  0  3  0  0  0  0  0  0
  162.4530  207.1770  137.8790 C   0  0  0  0  0  2  0  0  0  0  0  0
  160.6390  208.3040  138.9660 C   0  0  1  0  0  3  0  0  0  0  0  0
  162.6630  208.6840  137.7170 C   0  0  0  0  0  2  0  0  0  0  0  0
  161.7320  209.3280  138.7430 C   0  0  1  0  0  0  0  0  0  0  0  0
  159.7460  208.2780  137.8870 O   0  0  0  0  0  1  0  0  0  0  0  0
  161.1720  206.8230  153.7590 C   0  0  0  0  0  2  0  0  0  0  0  0
  161.2310  207.9580  154.5770 O   0  0  0  0  0  0  0  0  0  0  0  0
  161.4210  208.8370  152.1260 S   0  0  0  0  0  0  0  0  0  0  0  0
  161.7400  207.1250  152.4490 N   0  0  2  0  0  0  0  0  0  0  0  0
  160.7210  208.9910  153.7850 C   0  0  2  0  0  3  0  0  0  0  0  0
  161.0210  210.3740  154.3820 C   0  0  1  0  0  3  0  0  0  0  0  0
  158.7150  210.6070  155.4550 C   0  0  0  0  0  2  0  0  0  0  0  0
  157.1540  212.5730  155.1790 C   0  0  0  0  0  2  0  0  0  0  0  0
  158.2580  212.8100  153.2440 C   0  0  2  0  0  3  0  0  0  0  0  0
  159.7840  211.2580  154.5720 C   0  0  2  0  0  3  0  0  0  0  0  0
  159.6070  212.9330  152.8510 O   0  0  0  0  0  0  0  0  0  0  0  0
  158.1010  213.3700  154.5220 O   0  0  0  0  0  0  0  0  0  0  0  0
  159.1910  211.6370  153.2110 C   0  0  2  0  0  3  0  0  0  0  0  0
  157.8630  211.6540  156.1690 C   0  0  0  0  0  2  0  0  0  0  0  0
  161.8880  210.3310  155.6040 C   0  0  0  0  0  0  0  0  0  0  0  0
  163.0850  210.7160  155.5300 O   0  0  0  0  0  0  0  0  0  0  0  0
  161.3860  209.8750  156.8190 O   0  0  0  0  0  1  0  0  0  0  0  0
  1  6  1  1  0  0  0
  1  7  1  0  0  0  0
  4  2  1  6  0  0  0
  4  3  1  0  0  0  0
  4 34  1  0  0  0  0
  5  3  1  0  0  0  0
  6  2  1  0  0  0  0
  7  5  1  0  0  0  0
  8 11  1  1  0  0  0
  8  1  1  0  0  0  0
  9 18  1  6  0  0  0
  9 14  1  0  0  0  0
  9 13  1  0  0  0  0
  9 10  1  0  0  0  0
 10  8  1  0  0  0  0
 12 11  1  0  0  0  0
 13 12  2  0  0  0  0
 14 17  1  0  0  0  0
 14 10  1  0  0  0  0
 15 14  1  0  0  0  0
 16 17  1  0  0  0  0
 19 18  1  0  0  0  0
 20 19  1  0  0  0  0
 21 25  1  0  0  0  0
 22 29  1  0  0  0  0
 23 24  1  0  0  0  0
 25 24  1  0  0  0  0
 25 20  1  0  0  0  0
 26 21  1  0  0  0  0
 27 21  1  0  0  0  0
 28 26  1  0  0  0  0
 28 29  1  0  0  0  0
 29 27  1  0  0  0  0
 29 23  1  0  0  0  0
 30 27  1  0  0  0  0
 31 32  1  0  0  0  0
 33 34  1  0  0  0  0
 33 35  1  0  0  0  0
 34 31  1  0  0  0  0
 35 36  1  0  0  0  0
 35 32  1  0  0  0  0
 36 40  1  0  0  0  0
 36 45  1  0  0  0  0
 37 44  1  0  0  0  0
 38 44  1  0  0  0  0
 39 42  1  0  0  0  0
 40 37  1  0  0  0  0
 41 43  1  0  0  0  0
 41 39  1  0  0  0  0
 42 38  1  0  0  0  0
 43 39  1  0  0  0  0
 43 40  1  0  0  0  0
 45 47  1  0  0  0  0
 46 45  2  0  0  0  0
M  END
>  <MODEL>
2

>  <REMARK>
 VINA RESULT:      -5.8      4.233     10.251
  Name = 
  10 active torsions:
  status: ('A' for Active; 'I' for Inactive)
    1  A    between atoms: C_2  and  C_5
    2  A    between atoms: C_3  and  O_15
    3  A    between atoms: C_4  and  C_10
    4  A    between atoms: C_4  and  C_21
    5  A    between atoms: C_7  and  C_14
    6  A    between atoms: C_7  and  C_27
    7  A    between atoms: C_7  and  C_43
    8  A    between atoms: C_10  and  O_15
    9  A    between atoms: C_23  and  N_42
   10  A    between atoms: C_35  and  O_38
                            x       y       z     vdW  Elec       q    Type
                         _______ _______ _______ _____ _____    ______ ____

>  <TORSDO>
F 10

$$$$
=
 OpenBabel11072414513D

 47 54  0  0  1  0  0  0  0  0999 V2000
  159.5450  210.3250  155.2680 C   0  0  2  0  0  3  0  0  0  0  0  0
  160.7970  208.8920  153.5630 C   0  0  0  0  0  2  0  0  0  0  0  0
  160.4680  207.2250  155.4690 C   0  0  0  0  0  2  0  0  0  0  0  0
  161.4010  207.7230  154.3620 C   0  0  1  0  0  3  0  0  0  0  0  0
  160.2290  208.2690  156.4570 N   0  0  0  0  0  2  0  0  0  0  0  0
  160.8030  210.1650  154.4030 C   0  0  0  0  0  2  0  0  0  0  0  0
  159.0910  209.0420  155.9810 C   0  0  0  0  0  2  0  0  0  0  0  0
  158.4360  210.9410  154.4650 C   0  0  2  0  0  3  0  0  0  0  0  0
  157.7230  212.9880  152.9410 C   0  0  1  0  0  0  0  0  0  0  0  0
  158.6020  212.0250  153.7520 C   0  0  1  0  0  3  0  0  0  0  0  0
  156.9480  210.7940  154.7640 C   0  0  0  0  0  2  0  0  0  0  0  0
  156.2440  212.0990  154.7390 N   0  0  0  0  0  0  0  0  0  0  0  0
  156.5680  213.0920  153.9430 C   0  0  0  0  0  3  0  0  0  0  0  0
  159.1260  213.2790  153.1040 C   0  0  1  0  0  0  0  0  0  0  0  0
  160.0100  213.0120  152.0540 O   0  0  0  0  0  1  0  0  0  0  0  0
  159.0700  213.7940  155.2860 C   0  0  0  0  0  1  0  0  0  0  0  0
  159.5090  214.2510  154.0390 O   0  0  0  0  0  0  0  0  0  0  0  0
  157.3930  212.5410  151.6330 O   0  0  0  0  0  0  0  0  0  0  0  0
  157.5820  213.5680  150.6930 C   0  0  0  0  0  2  0  0  0  0  0  0
  157.3650  213.0300  149.2850 C   0  0  0  0  0  2  0  0  0  0  0  0
  159.5920  213.4350  148.0570 C   0  0  2  0  0  3  0  0  0  0  0  0
  159.6550  211.7280  144.8940 F   0  0  0  0  0  0  0  0  0  0  0  0
  157.7840  212.9000  145.8340 C   0  0  0  0  0  2  0  0  0  0  0  0
  157.3390  213.9460  146.8820 C   0  0  0  0  0  2  0  0  0  0  0  0
  158.1090  213.8450  148.2220 C   0  0  1  0  0  3  0  0  0  0  0  0
  160.2860  214.4520  147.1480 C   0  0  0  0  0  2  0  0  0  0  0  0
  159.6470  212.1460  147.2580 C   0  0  1  0  0  3  0  0  0  0  0  0
  160.0730  213.9490  145.7190 C   0  0  0  0  0  2  0  0  0  0  0  0
  159.2990  212.6410  145.8690 C   0  0  1  0  0  0  0  0  0  0  0  0
  160.9400  211.6070  147.2900 O   0  0  0  0  0  1  0  0  0  0  0  0
  162.5350  207.1230  152.3530 C   0  0  0  0  0  2  0  0  0  0  0  0
  162.3960  206.2390  151.2740 O   0  0  0  0  0  0  0  0  0  0  0  0
  160.4440  205.6740  152.9140 S   0  0  0  0  0  0  0  0  0  0  0  0
  161.8290  206.5990  153.5180 N   0  0  2  0  0  0  0  0  0  0  0  0
  161.0280  205.9540  151.2270 C   0  0  2  0  0  3  0  0  0  0  0  0
  160.7250  204.7420  150.3330 C   0  0  1  0  0  3  0  0  0  0  0  0
  160.6010  206.1670  148.2170 C   0  0  0  0  0  2  0  0  0  0  0  0
  161.7110  205.6300  146.0120 C   0  0  0  0  0  2  0  0  0  0  0  0
  161.5360  203.5260  146.7660 C   0  0  2  0  0  3  0  0  0  0  0  0
  161.1730  204.9080  148.8770 C   0  0  2  0  0  3  0  0  0  0  0  0
  161.9240  202.8270  147.9280 O   0  0  0  0  0  0  0  0  0  0  0  0
  162.4570  204.5600  146.5260 O   0  0  0  0  0  0  0  0  0  0  0  0
  160.8010  203.6640  148.0650 C   0  0  2  0  0  3  0  0  0  0  0  0
  161.5110  206.6780  147.1020 C   0  0  0  0  0  2  0  0  0  0  0  0
  161.1580  203.4330  150.9210 C   0  0  0  0  0  0  0  0  0  0  0  0
  162.1930  203.3850  151.6360 O   0  0  0  0  0  1  0  0  0  0  0  0
  160.4280  202.2710  150.6890 O   0  0  0  0  0  0  0  0  0  0  0  0
  1  6  1  6  0  0  0
  1  7  1  0  0  0  0
  2  6  1  0  0  0  0
  3  5  1  0  0  0  0
  4  2  1  6  0  0  0
  4  3  1  0  0  0  0
  7  5  1  0  0  0  0
  8 11  1  1  0  0  0
  8  1  1  0  0  0  0
  9 18  1  6  0  0  0
  9 14  1  0  0  0  0
  9 10  1  0  0  0  0
  9 13  1  0  0  0  0
 10  8  1  0  0  0  0
 12 11  1  0  0  0  0
 13 12  2  0  0  0  0
 14 10  1  0  0  0  0
 14 17  1  0  0  0  0
 15 14  1  0  0  0  0
 17 16  1  0  0  0  0
 19 18  1  0  0  0  0
 20 19  1  0  0  0  0
 21 25  1  0  0  0  0
 22 29  1  0  0  0  0
 23 29  1  0  0  0  0
 23 24  1  0  0  0  0
 24 25  1  0  0  0  0
 25 20  1  0  0  0  0
 26 21  1  0  0  0  0
 27 30  1  0  0  0  0
 27 21  1  0  0  0  0
 28 29  1  0  0  0  0
 28 26  1  0  0  0  0
 29 27  1  0  0  0  0
 31 34  1  0  0  0  0
 32 31  1  0  0  0  0
 33 34  1  0  0  0  0
 34  4  1  0  0  0  0
 35 32  1  0  0  0  0
 35 33  1  0  0  0  0
 36 45  1  0  0  0  0
 36 35  1  0  0  0  0
 37 40  1  0  0  0  0
 38 42  1  0  0  0  0
 38 44  1  0  0  0  0
 39 41  1  0  0  0  0
 39 43  1  0  0  0  0
 40 36  1  0  0  0  0
 41 43  1  0  0  0  0
 42 39  1  0  0  0  0
 43 40  1  0  0  0  0
 44 37  1  0  0  0  0
 45 46  1  0  0  0  0
 47 45  2  0  0  0  0
M  END
>  <MODEL>
3

>  <REMARK>
 VINA RESULT:      -5.8      1.396      2.048
  Name = 
  10 active torsions:
  status: ('A' for Active; 'I' for Inactive)
    1  A    between atoms: C_2  and  C_5
    2  A    between atoms: C_3  and  O_15
    3  A    between atoms: C_4  and  C_10
    4  A    between atoms: C_4  and  C_21
    5  A    between atoms: C_7  and  C_14
    6  A    between atoms: C_7  and  C_27
    7  A    between atoms: C_7  and  C_43
    8  A    between atoms: C_10  and  O_15
    9  A    between atoms: C_23  and  N_42
   10  A    between atoms: C_35  and  O_38
                            x       y       z     vdW  Elec       q    Type
                         _______ _______ _______ _____ _____    ______ ____

>  <TORSDO>
F 10

$$$$
=
 OpenBabel11072414513D

 47 54  0  0  1  0  0  0  0  0999 V2000
  160.3710  210.1020  155.0940 C   0  0  2  0  0  3  0  0  0  0  0  0
  161.6700  208.9320  153.2310 C   0  0  0  0  0  2  0  0  0  0  0  0
  160.6630  206.9370  154.4640 C   0  0  0  0  0  2  0  0  0  0  0  0
  161.8770  207.4840  153.7100 C   0  0  1  0  0  3  0  0  0  0  0  0
  160.4160  207.7020  155.6790 N   0  0  0  0  0  2  0  0  0  0  0  0
  161.7310  209.8950  154.4130 C   0  0  0  0  0  2  0  0  0  0  0  0
  159.5580  208.8160  155.3050 C   0  0  0  0  0  2  0  0  0  0  0  0
  159.5800  211.1520  154.3680 C   0  0  2  0  0  3  0  0  0  0  0  0
  158.3370  213.4820  154.5800 C   0  0  1  0  0  0  0  0  0  0  0  0
  159.2200  212.2760  154.9310 C   0  0  1  0  0  3  0  0  0  0  0  0
  158.6470  210.8910  153.1900 C   0  0  0  0  0  2  0  0  0  0  0  0
  157.3310  211.5520  153.3680 N   0  0  0  0  0  0  0  0  0  0  0  0
  157.1630  212.6990  153.9830 C   0  0  0  0  0  3  0  0  0  0  0  0
  158.9390  213.4040  155.8880 C   0  0  1  0  0  0  0  0  0  0  0  0
  160.0770  214.1680  156.1680 O   0  0  0  0  0  1  0  0  0  0  0  0
  157.0970  213.9300  157.0530 C   0  0  0  0  0  1  0  0  0  0  0  0
  158.1450  213.0070  156.9730 O   0  0  0  0  0  0  0  0  0  0  0  0
  158.9510  214.4490  153.7390 O   0  0  0  0  0  0  0  0  0  0  0  0
  158.5130  214.3070  152.4120 C   0  0  0  0  0  2  0  0  0  0  0  0
  159.7000  214.3710  151.4620 C   0  0  0  0  0  2  0  0  0  0  0  0
  160.2230  214.0310  148.9630 C   0  0  2  0  0  3  0  0  0  0  0  0
  163.0050  211.8000  148.5130 F   0  0  0  0  0  0  0  0  0  0  0  0
  161.2370  211.5540  150.1170 C   0  0  0  0  0  2  0  0  0  0  0  0
  159.8030  211.9870  150.5010 C   0  0  0  0  0  2  0  0  0  0  0  0
  159.5150  213.4840  150.2260 C   0  0  1  0  0  3  0  0  0  0  0  0
  159.7850  213.1990  147.7550 C   0  0  0  0  0  2  0  0  0  0  0  0
  161.7070  213.7370  149.0800 C   0  0  1  0  0  3  0  0  0  0  0  0
  160.7560  212.0190  147.6870 C   0  0  0  0  0  2  0  0  0  0  0  0
  161.7360  212.2430  148.8370 C   0  0  1  0  0  0  0  0  0  0  0  0
  162.4180  214.4230  148.0870 O   0  0  0  0  0  1  0  0  0  0  0  0
  162.3540  207.3070  151.3810 C   0  0  0  0  0  2  0  0  0  0  0  0
  162.0840  206.4580  150.3000 O   0  0  0  0  0  0  0  0  0  0  0  0
  161.0470  205.2950  152.3960 S   0  0  0  0  0  0  0  0  0  0  0  0
  162.2620  206.5630  152.6330 N   0  0  2  0  0  0  0  0  0  0  0  0
  160.9110  205.7880  150.6630 C   0  0  2  0  0  3  0  0  0  0  0  0
  160.6440  204.5720  149.7650 C   0  0  1  0  0  3  0  0  0  0  0  0
  160.9150  205.9680  147.6440 C   0  0  0  0  0  2  0  0  0  0  0  0
  162.2140  205.2870  145.5880 C   0  0  0  0  0  2  0  0  0  0  0  0
  161.7370  203.2240  146.3220 C   0  0  2  0  0  3  0  0  0  0  0  0
  161.2730  204.6690  148.3710 C   0  0  2  0  0  3  0  0  0  0  0  0
  161.9120  202.5070  147.5240 O   0  0  0  0  0  0  0  0  0  0  0  0
  162.7810  204.1550  146.1900 O   0  0  0  0  0  0  0  0  0  0  0  0
  160.8730  203.4570  147.5250 C   0  0  2  0  0  3  0  0  0  0  0  0
  161.9970  206.3680  146.6420 C   0  0  0  0  0  2  0  0  0  0  0  0
  160.9200  203.2560  150.4290 C   0  0  0  0  0  0  0  0  0  0  0  0
  160.1430  202.2850  150.2320 O   0  0  0  0  0  0  0  0  0  0  0  0
  162.0260  203.0950  151.2580 O   0  0  0  0  0  1  0  0  0  0  0  0
  1  6  1  6  0  0  0
  1  7  1  0  0  0  0
  2  6  1  0  0  0  0
  3  5  1  0  0  0  0
  4  2  1  6  0  0  0
  4  3  1  0  0  0  0
  7  5  1  0  0  0  0
  8 11  1  1  0  0  0
  8 10  1  0  0  0  0
  8  1  1  0  0  0  0
  9 18  1  6  0  0  0
  9 10  1  0  0  0  0
  9 14  1  0  0  0  0
 10 14  1  0  0  0  0
 11 12  1  0  0  0  0
 12 13  2  0  0  0  0
 13  9  1  0  0  0  0
 14 15  1  0  0  0  0
 14 17  1  0  0  0  0
 17 16  1  0  0  0  0
 19 18  1  0  0  0  0
 20 19  1  0  0  0  0
 21 27  1  0  0  0  0
 21 25  1  0  0  0  0
 22 29  1  0  0  0  0
 23 24  1  0  0  0  0
 25 24  1  0  0  0  0
 25 20  1  0  0  0  0
 26 21  1  0  0  0  0
 28 26  1  0  0  0  0
 28 29  1  0  0  0  0
 29 27  1  0  0  0  0
 29 23  1  0  0  0  0
 30 27  1  0  0  0  0
 31 34  1  0  0  0  0
 32 35  1  0  0  0  0
 32 31  1  0  0  0  0
 33 34  1  0  0  0  0
 34  4  1  0  0  0  0
 35 33  1  0  0  0  0
 36 45  1  0  0  0  0
 36 35  1  0  0  0  0
 37 40  1  0  0  0  0
 38 42  1  0  0  0  0
 38 44  1  0  0  0  0
 39 41  1  0  0  0  0
 39 43  1  0  0  0  0
 40 36  1  0  0  0  0
 41 43  1  0  0  0  0
 42 39  1  0  0  0  0
 43 40  1  0  0  0  0
 44 37  1  0  0  0  0
 45 47  1  0  0  0  0
 46 45  2  0  0  0  0
M  END
>  <MODEL>
4

>  <REMARK>
 VINA RESULT:      -5.5      1.134      1.680
  Name = 
  10 active torsions:
  status: ('A' for Active; 'I' for Inactive)
    1  A    between atoms: C_2  and  C_5
    2  A    between atoms: C_3  and  O_15
    3  A    between atoms: C_4  and  C_10
    4  A    between atoms: C_4  and  C_21
    5  A    between atoms: C_7  and  C_14
    6  A    between atoms: C_7  and  C_27
    7  A    between atoms: C_7  and  C_43
    8  A    between atoms: C_10  and  O_15
    9  A    between atoms: C_23  and  N_42
   10  A    between atoms: C_35  and  O_38
                            x       y       z     vdW  Elec       q    Type
                         _______ _______ _______ _____ _____    ______ ____

>  <TORSDO>
F 10

$$$$
=
 OpenBabel11072414513D

 47 54  0  0  1  0  0  0  0  0999 V2000
  159.5640  210.2560  155.0330 C   0  0  2  0  0  3  0  0  0  0  0  0
  161.0030  210.1270  152.9270 C   0  0  0  0  0  2  0  0  0  0  0  0
  160.8900  207.6680  153.6050 C   0  0  0  0  0  2  0  0  0  0  0  0
  161.7530  208.7860  153.0140 C   0  0  1  0  0  3  0  0  0  0  0  0
  160.5100  207.9740  154.9780 N   0  0  0  0  0  2  0  0  0  0  0  0
  160.8350  210.7310  154.3170 C   0  0  0  0  0  2  0  0  0  0  0  0
  159.2810  208.7520  154.9080 C   0  0  0  0  0  2  0  0  0  0  0  0
  158.3860  211.0840  154.6070 C   0  0  2  0  0  3  0  0  0  0  0  0
  157.5910  213.4450  153.7050 C   0  0  1  0  0  0  0  0  0  0  0  0
  158.5140  212.2880  154.1130 C   0  0  1  0  0  3  0  0  0  0  0  0
  156.9690  210.9450  155.1550 C   0  0  0  0  0  2  0  0  0  0  0  0
  156.3890  212.2550  155.5360 N   0  0  0  0  0  0  0  0  0  0  0  0
  156.6500  213.3820  154.9130 C   0  0  0  0  0  3  0  0  0  0  0  0
  159.0200  213.6270  153.6470 C   0  0  1  0  0  0  0  0  0  0  0  0
  159.6730  213.5560  152.4120 O   0  0  0  0  0  1  0  0  0  0  0  0
  159.7310  213.4950  155.7690 C   0  0  0  0  0  1  0  0  0  0  0  0
  159.6500  214.3530  154.6680 O   0  0  0  0  0  0  0  0  0  0  0  0
  156.9920  213.3100  152.4240 O   0  0  0  0  0  0  0  0  0  0  0  0
  157.6500  214.1150  151.4790 C   0  0  0  0  0  2  0  0  0  0  0  0
  158.0270  213.2840  150.2600 C   0  0  0  0  0  2  0  0  0  0  0  0
  160.2450  213.4630  148.9630 C   0  0  2  0  0  3  0  0  0  0  0  0
  159.9300  212.0790  145.6610 F   0  0  0  0  0  0  0  0  0  0  0  0
  158.2980  213.4260  146.7940 C   0  0  0  0  0  2  0  0  0  0  0  0
  158.0590  214.4210  147.9530 C   0  0  0  0  0  2  0  0  0  0  0  0
  158.8510  214.0750  149.2380 C   0  0  1  0  0  3  0  0  0  0  0  0
  161.0560  214.4460  148.1160 C   0  0  0  0  0  2  0  0  0  0  0  0
  160.0700  212.2640  148.0500 C   0  0  1  0  0  3  0  0  0  0  0  0
  160.7180  214.1210  146.6600 C   0  0  0  0  0  2  0  0  0  0  0  0
  159.7550  212.9370  146.7300 C   0  0  1  0  0  0  0  0  0  0  0  0
  161.2640  211.5350  147.9700 O   0  0  0  0  0  1  0  0  0  0  0  0
  161.5800  208.9700  150.6430 C   0  0  0  0  0  2  0  0  0  0  0  0
  161.6410  208.1570  149.5050 O   0  0  0  0  0  0  0  0  0  0  0  0
  162.2120  206.6010  151.5220 S   0  0  0  0  0  0  0  0  0  0  0  0
  162.3310  208.3560  151.7330 N   0  0  2  0  0  0  0  0  0  0  0  0
  161.3290  206.8760  149.9690 C   0  0  2  0  0  3  0  0  0  0  0  0
  161.6780  205.7910  148.9400 C   0  0  1  0  0  3  0  0  0  0  0  0
  161.6180  203.9950  150.7550 C   0  0  0  0  0  2  0  0  0  0  0  0
  160.5920  201.6990  150.5230 C   0  0  0  0  0  2  0  0  0  0  0  0
  161.0380  202.0340  148.3520 C   0  0  2  0  0  3  0  0  0  0  0  0
  161.2150  204.3830  149.3290 C   0  0  2  0  0  3  0  0  0  0  0  0
  160.7430  203.0280  147.3960 O   0  0  0  0  0  0  0  0  0  0  0  0
  159.9910  201.9760  149.2870 O   0  0  0  0  0  0  0  0  0  0  0  0
  161.7480  203.3550  148.3270 C   0  0  2  0  0  3  0  0  0  0  0  0
  160.6520  202.9760  151.3550 C   0  0  0  0  0  2  0  0  0  0  0  0
  161.3050  206.1490  147.5330 C   0  0  0  0  0  0  0  0  0  0  0  0
  160.0990  206.3730  147.2480 O   0  0  0  0  0  1  0  0  0  0  0  0
  162.2750  206.2410  146.5400 O   0  0  0  0  0  0  0  0  0  0  0  0
  1  6  1  6  0  0  0
  2  6  1  0  0  0  0
  3  5  1  0  0  0  0
  4  2  1  6  0  0  0
  4  3  1  0  0  0  0
  7  5  1  0  0  0  0
  7  1  1  0  0  0  0
  8  1  1  0  0  0  0
  8 11  1  1  0  0  0
  9 18  1  6  0  0  0
  9 10  1  0  0  0  0
  9 13  1  0  0  0  0
 10  8  1  0  0  0  0
 11 12  1  0  0  0  0
 13 12  2  0  0  0  0
 14  9  1  0  0  0  0
 14 10  1  0  0  0  0
 14 17  1  0  0  0  0
 15 14  1  0  0  0  0
 17 16  1  0  0  0  0
 19 18  1  0  0  0  0
 20 19  1  0  0  0  0
 21 25  1  0  0  0  0
 22 29  1  0  0  0  0
 23 24  1  0  0  0  0
 24 25  1  0  0  0  0
 25 20  1  0  0  0  0
 26 21  1  0  0  0  0
 27 21  1  0  0  0  0
 28 29  1  0  0  0  0
 28 26  1  0  0  0  0
 29 23  1  0  0  0  0
 29 27  1  0  0  0  0
 30 27  1  0  0  0  0
 31 34  1  0  0  0  0
 32 35  1  0  0  0  0
 32 31  1  0  0  0  0
 33 34  1  0  0  0  0
 34  4  1  0  0  0  0
 35 33  1  0  0  0  0
 36 40  1  0  0  0  0
 36 35  1  0  0  0  0
 37 44  1  0  0  0  0
 38 44  1  0  0  0  0
 39 42  1  0  0  0  0
 40 37  1  0  0  0  0
 41 43  1  0  0  0  0
 41 39  1  0  0  0  0
 42 38  1  0  0  0  0
 43 39  1  0  0  0  0
 43 40  1  0  0  0  0
 45 36  1  0  0  0  0
 46 45  1  0  0  0  0
 47 45  2  0  0  0  0
M  END
>  <MODEL>
5

>  <REMARK>
 VINA RESULT:      -5.3      1.492      2.668
  Name = 
  10 active torsions:
  status: ('A' for Active; 'I' for Inactive)
    1  A    between atoms: C_2  and  C_5
    2  A    between atoms: C_3  and  O_15
    3  A    between atoms: C_4  and  C_10
    4  A    between atoms: C_4  and  C_21
    5  A    between atoms: C_7  and  C_14
    6  A    between atoms: C_7  and  C_27
    7  A    between atoms: C_7  and  C_43
    8  A    between atoms: C_10  and  O_15
    9  A    between atoms: C_23  and  N_42
   10  A    between atoms: C_35  and  O_38
                            x       y       z     vdW  Elec       q    Type
                         _______ _______ _______ _____ _____    ______ ____

>  <TORSDO>
F 10

$$$$
=
 OpenBabel11072414513D

 47 54  0  0  1  0  0  0  0  0999 V2000
  158.8780  211.5960  154.0150 C   0  0  2  0  0  3  0  0  0  0  0  0
  158.0320  212.1030  151.6590 C   0  0  0  0  0  2  0  0  0  0  0  0
  158.5140  214.4530  152.5310 C   0  0  0  0  0  2  0  0  0  0  0  0
  157.5910  213.5780  151.6800 C   0  0  1  0  0  3  0  0  0  0  0  0
  158.4890  214.0350  153.9260 N   0  0  0  0  0  2  0  0  0  0  0  0
  157.7360  211.4420  153.0010 C   0  0  0  0  0  2  0  0  0  0  0  0
  159.5020  212.9990  154.0700 C   0  0  0  0  0  2  0  0  0  0  0  0
  159.9140  210.5320  153.7980 C   0  0  2  0  0  3  0  0  0  0  0  0
  161.0710  208.3740  154.8110 C   0  0  1  0  0  0  0  0  0  0  0  0
  160.0810  209.5330  154.6260 C   0  0  1  0  0  3  0  0  0  0  0  0
  161.2030  210.7090  153.0030 C   0  0  0  0  0  2  0  0  0  0  0  0
  162.3850  210.2010  153.7410 N   0  0  0  0  0  0  0  0  0  0  0  0
  162.3560  209.1690  154.5530 C   0  0  0  0  0  3  0  0  0  0  0  0
  160.0310  208.5790  155.7890 C   0  0  1  0  0  0  0  0  0  0  0  0
  158.8950  207.7620  155.7660 O   0  0  0  0  0  1  0  0  0  0  0  0
  159.6910  210.4200  157.0230 C   0  0  0  0  0  1  0  0  0  0  0  0
  160.3600  209.1910  157.0060 O   0  0  0  0  0  0  0  0  0  0  0  0
  160.8390  207.2490  153.9760 O   0  0  0  0  0  0  0  0  0  0  0  0
  162.0480  206.7580  153.4540 C   0  0  0  0  0  2  0  0  0  0  0  0
  161.7740  205.5780  152.5310 C   0  0  0  0  0  2  0  0  0  0  0  0
  161.4740  207.0200  150.4170 C   0  0  2  0  0  3  0  0  0  0  0  0
  162.3340  205.1720  147.4570 F   0  0  0  0  0  0  0  0  0  0  0  0
  161.1220  204.3300  149.3490 C   0  0  0  0  0  2  0  0  0  0  0  0
  160.3050  204.7130  150.6050 C   0  0  0  0  0  2  0  0  0  0  0  0
  160.8650  205.9480  151.3540 C   0  0  1  0  0  3  0  0  0  0  0  0
  160.4010  207.4720  149.4240 C   0  0  0  0  0  2  0  0  0  0  0  0
  162.5160  206.3520  149.5390 C   0  0  1  0  0  3  0  0  0  0  0  0
  160.4920  206.5060  148.2420 C   0  0  0  0  0  2  0  0  0  0  0  0
  161.6410  205.5610  148.5880 C   0  0  1  0  0  0  0  0  0  0  0  0
  163.2620  207.3170  148.8500 O   0  0  0  0  0  1  0  0  0  0  0  0
  156.6870  213.2270  149.5020 C   0  0  0  0  0  2  0  0  0  0  0  0
  157.0470  213.3990  148.1600 O   0  0  0  0  0  0  0  0  0  0  0  0
  159.0020  214.4200  149.5570 S   0  0  0  0  0  0  0  0  0  0  0  0
  157.4340  214.1590  150.3400 N   0  0  2  0  0  0  0  0  0  0  0  0
  158.4450  213.4080  148.1680 C   0  0  2  0  0  3  0  0  0  0  0  0
  159.0240  213.9270  146.8430 C   0  0  1  0  0  3  0  0  0  0  0  0
  160.9490  213.7400  145.1750 C   0  0  0  0  0  2  0  0  0  0  0  0
  163.3040  213.0080  145.7200 C   0  0  0  0  0  2  0  0  0  0  0  0
  162.2750  211.9270  147.3920 C   0  0  2  0  0  3  0  0  0  0  0  0
  160.5070  213.6020  146.6360 C   0  0  2  0  0  3  0  0  0  0  0  0
  161.3960  212.2760  148.4380 O   0  0  0  0  0  0  0  0  0  0  0  0
  163.1030  213.0250  147.1070 O   0  0  0  0  0  0  0  0  0  0  0  0
  160.8190  212.1960  147.1560 C   0  0  2  0  0  3  0  0  0  0  0  0
  162.4340  214.0780  145.0680 C   0  0  0  0  0  2  0  0  0  0  0  0
  158.1900  213.5890  145.6440 C   0  0  0  0  0  0  0  0  0  0  0  0
  157.3150  214.4030  145.2470 O   0  0  0  0  0  1  0  0  0  0  0  0
  158.3730  212.3890  144.9630 O   0  0  0  0  0  0  0  0  0  0  0  0
  1  6  1  6  0  0  0
  1  7  1  0  0  0  0
  2  6  1  0  0  0  0
  3  5  1  0  0  0  0
  4  2  1  6  0  0  0
  4  3  1  0  0  0  0
  5  7  1  0  0  0  0
  8 11  1  1  0  0  0
  8  1  1  0  0  0  0
  8 10  1  0  0  0  0
  9 18  1  6  0  0  0
  9 14  1  0  0  0  0
 10  9  1  0  0  0  0
 10 14  1  0  0  0  0
 11 12  1  0  0  0  0
 12 13  2  0  0  0  0
 13  9  1  0  0  0  0
 14 17  1  0  0  0  0
 15 14  1  0  0  0  0
 17 16  1  0  0  0  0
 19 18  1  0  0  0  0
 20 19  1  0  0  0  0
 21 25  1  0  0  0  0
 22 29  1  0  0  0  0
 23 24  1  0  0  0  0
 24 25  1  0  0  0  0
 25 20  1  0  0  0  0
 26 21  1  0  0  0  0
 27 21  1  0  0  0  0
 28 29  1  0  0  0  0
 28 26  1  0  0  0  0
 29 23  1  0  0  0  0
 29 27  1  0  0  0  0
 30 27  1  0  0  0  0
 31 34  1  0  0  0  0
 32 35  1  0  0  0  0
 32 31  1  0  0  0  0
 33 34  1  0  0  0  0
 34  4  1  0  0  0  0
 35 33  1  0  0  0  0
 36 35  1  0  0  0  0
 37 40  1  0  0  0  0
 38 42  1  0  0  0  0
 39 41  1  0  0  0  0
 40 36  1  0  0  0  0
 40 43  1  0  0  0  0
 42 39  1  0  0  0  0
 43 39  1  0  0  0  0
 43 41  1  0  0  0  0
 44 37  1  0  0  0  0
 44 38  1  0  0  0  0
 45 36  1  0  0  0  0
 46 45  1  0  0  0  0
 47 45  2  0  0  0  0
M  END
>  <MODEL>
6

>  <REMARK>
 VINA RESULT:      -5.0      3.098      7.683
  Name = 
  10 active torsions:
  status: ('A' for Active; 'I' for Inactive)
    1  A    between atoms: C_2  and  C_5
    2  A    between atoms: C_3  and  O_15
    3  A    between atoms: C_4  and  C_10
    4  A    between atoms: C_4  and  C_21
    5  A    between atoms: C_7  and  C_14
    6  A    between atoms: C_7  and  C_27
    7  A    between atoms: C_7  and  C_43
    8  A    between atoms: C_10  and  O_15
    9  A    between atoms: C_23  and  N_42
   10  A    between atoms: C_35  and  O_38
                            x       y       z     vdW  Elec       q    Type
                         _______ _______ _______ _____ _____    ______ ____

>  <TORSDO>
F 10

$$$$
=
 OpenBabel11072414513D

 47 54  0  0  1  0  0  0  0  0999 V2000
  161.9740  207.9760  153.5980 C   0  0  2  0  0  3  0  0  0  0  0  0
  160.8470  207.9180  151.3060 C   0  0  0  0  0  2  0  0  0  0  0  0
  162.2520  205.7880  151.2240 C   0  0  0  0  0  2  0  0  0  0  0  0
  161.7110  206.9850  150.4380 C   0  0  1  0  0  3  0  0  0  0  0  0
  163.1360  206.2260  152.2960 N   0  0  0  0  0  2  0  0  0  0  0  0
  161.7260  208.7070  152.2720 C   0  0  0  0  0  2  0  0  0  0  0  0
  162.2930  206.4800  153.4550 C   0  0  0  0  0  2  0  0  0  0  0  0
  160.8350  208.2170  154.5460 C   0  0  2  0  0  3  0  0  0  0  0  0
  159.9600  209.6730  156.5800 C   0  0  1  0  0  0  0  0  0  0  0  0
  160.8340  209.1990  155.4090 C   0  0  1  0  0  3  0  0  0  0  0  0
  159.8610  207.1510  155.0390 C   0  0  0  0  0  2  0  0  0  0  0  0
  159.6870  207.1970  156.5110 N   0  0  0  0  0  0  0  0  0  0  0  0
  159.7290  208.3010  157.2220 C   0  0  0  0  0  3  0  0  0  0  0  0
  161.1880  210.3700  156.2870 C   0  0  1  0  0  0  0  0  0  0  0  0
  161.1420  211.5890  155.6030 O   0  0  0  0  0  1  0  0  0  0  0  0
  163.3110  210.9950  156.6490 C   0  0  0  0  0  1  0  0  0  0  0  0
  162.3110  210.1230  157.0910 O   0  0  0  0  0  0  0  0  0  0  0  0
  158.8000  210.4030  156.2030 O   0  0  0  0  0  0  0  0  0  0  0  0
  158.5190  211.4100  157.1420 C   0  0  0  0  0  2  0  0  0  0  0  0
  157.2580  212.1610  156.7360 C   0  0  0  0  0  2  0  0  0  0  0  0
  158.5870  213.0020  154.6960 C   0  0  2  0  0  3  0  0  0  0  0  0
  156.6180  212.7980  151.6960 F   0  0  0  0  0  0  0  0  0  0  0  0
  155.8410  213.5000  153.8550 C   0  0  0  0  0  2  0  0  0  0  0  0
  156.2650  214.0110  155.2510 C   0  0  0  0  0  2  0  0  0  0  0  0
  157.5480  213.3340  155.7940 C   0  0  1  0  0  3  0  0  0  0  0  0
  158.9640  214.2940  153.9670 C   0  0  0  0  0  2  0  0  0  0  0  0
  157.9020  212.1730  153.6240 C   0  0  1  0  0  3  0  0  0  0  0  0
  157.9430  214.4490  152.8380 C   0  0  0  0  0  2  0  0  0  0  0  0
  157.0450  213.2180  152.9410 C   0  0  1  0  0  0  0  0  0  0  0  0
  158.8510  211.6440  152.7390 O   0  0  0  0  0  1  0  0  0  0  0  0
  160.4690  205.2000  149.4600 C   0  0  0  0  0  2  0  0  0  0  0  0
  160.3970  204.4870  148.2570 O   0  0  0  0  0  0  0  0  0  0  0  0
  162.1570  206.3750  147.8620 S   0  0  0  0  0  0  0  0  0  0  0  0
  161.0300  206.5260  149.2200 N   0  0  2  0  0  0  0  0  0  0  0  0
  161.6580  204.6480  147.6760 C   0  0  2  0  0  3  0  0  0  0  0  0
  161.6670  204.2300  146.1980 C   0  0  1  0  0  3  0  0  0  0  0  0
  159.8540  202.7860  145.1250 C   0  0  0  0  0  2  0  0  0  0  0  0
  159.7140  200.2670  145.2450 C   0  0  0  0  0  2  0  0  0  0  0  0
  160.8580  200.5820  147.1470 C   0  0  2  0  0  3  0  0  0  0  0  0
  161.1490  202.8110  145.9430 C   0  0  2  0  0  3  0  0  0  0  0  0
  162.0550  201.2300  147.5180 O   0  0  0  0  0  0  0  0  0  0  0  0
  160.9810  200.1180  145.8270 O   0  0  0  0  0  0  0  0  0  0  0  0
  160.9540  202.0730  147.2710 C   0  0  2  0  0  3  0  0  0  0  0  0
  159.7160  201.4890  144.3320 C   0  0  0  0  0  2  0  0  0  0  0  0
  161.0480  205.2400  145.2790 C   0  0  0  0  0  0  0  0  0  0  0  0
  161.6290  205.5400  144.2030 O   0  0  0  0  0  0  0  0  0  0  0  0
  159.8380  205.8480  145.6000 O   0  0  0  0  0  1  0  0  0  0  0  0
  1  6  1  6  0  0  0
  1  8  1  0  0  0  0
  2  6  1  0  0  0  0
  3  5  1  0  0  0  0
  4  3  1  1  0  0  0
  4  2  1  0  0  0  0
  5  7  1  0  0  0  0
  7  1  1  0  0  0  0
  8 11  1  1  0  0  0
  8 10  1  0  0  0  0
  9 18  1  6  0  0  0
  9 13  1  0  0  0  0
 10 14  1  0  0  0  0
 10  9  1  0  0  0  0
 11 12  1  0  0  0  0
 12 13  2  0  0  0  0
 14  9  1  0  0  0  0
 14 17  1  0  0  0  0
 15 14  1  0  0  0  0
 16 17  1  0  0  0  0
 18 19  1  0  0  0  0
 20 19  1  0  0  0  0
 21 25  1  0  0  0  0
 22 29  1  0  0  0  0
 23 24  1  0  0  0  0
 24 25  1  0  0  0  0
 25 20  1  0  0  0  0
 26 21  1  0  0  0  0
 27 21  1  0  0  0  0
 28 29  1  0  0  0  0
 28 26  1  0  0  0  0
 29 27  1  0  0  0  0
 29 23  1  0  0  0  0
 30 27  1  0  0  0  0
 32 31  1  0  0  0  0
 33 34  1  0  0  0  0
 34 31  1  0  0  0  0
 34  4  1  0  0  0  0
 35 33  1  0  0  0  0
 35 32  1  0  0  0  0
 36 35  1  0  0  0  0
 37 40  1  0  0  0  0
 38 42  1  0  0  0  0
 39 43  1  0  0  0  0
 39 41  1  0  0  0  0
 40 36  1  0  0  0  0
 40 43  1  0  0  0  0
 42 39  1  0  0  0  0
 43 41  1  0  0  0  0
 44 37  1  0  0  0  0
 44 38  1  0  0  0  0
 45 47  1  0  0  0  0
 45 36  1  0  0  0  0
 46 45  2  0  0  0  0
M  END
>  <MODEL>
7

>  <REMARK>
 VINA RESULT:      -4.5      3.177      5.109
  Name = 
  10 active torsions:
  status: ('A' for Active; 'I' for Inactive)
    1  A    between atoms: C_2  and  C_5
    2  A    between atoms: C_3  and  O_15
    3  A    between atoms: C_4  and  C_10
    4  A    between atoms: C_4  and  C_21
    5  A    between atoms: C_7  and  C_14
    6  A    between atoms: C_7  and  C_27
    7  A    between atoms: C_7  and  C_43
    8  A    between atoms: C_10  and  O_15
    9  A    between atoms: C_23  and  N_42
   10  A    between atoms: C_35  and  O_38
                            x       y       z     vdW  Elec       q    Type
                         _______ _______ _______ _____ _____    ______ ____

>  <TORSDO>
F 10

$$$$
=
 OpenBabel11072414513D

 47 54  0  0  1  0  0  0  0  0999 V2000
  161.7910  207.0310  153.8190 C   0  0  2  0  0  3  0  0  0  0  0  0
  160.9250  206.3510  151.5140 C   0  0  0  0  0  2  0  0  0  0  0  0
  160.5430  204.2050  152.8420 C   0  0  0  0  0  2  0  0  0  0  0  0
  160.9450  204.8120  151.4960 C   0  0  1  0  0  3  0  0  0  0  0  0
  161.4870  204.5790  153.8860 N   0  0  0  0  0  2  0  0  0  0  0  0
  162.1020  206.8860  152.3230 C   0  0  0  0  0  2  0  0  0  0  0  0
  161.0260  205.8470  154.4320 C   0  0  0  0  0  2  0  0  0  0  0  0
  161.1030  208.3380  154.0840 C   0  0  2  0  0  3  0  0  0  0  0  0
  160.5870  210.7620  153.1450 C   0  0  1  0  0  0  0  0  0  0  0  0
  161.0560  209.3010  153.2000 C   0  0  1  0  0  3  0  0  0  0  0  0
  160.8790  208.9510  155.4630 C   0  0  0  0  0  2  0  0  0  0  0  0
  161.2770  210.3780  155.5080 N   0  0  0  0  0  0  0  0  0  0  0  0
  161.1630  211.2050  154.4940 C   0  0  0  0  0  3  0  0  0  0  0  0
  161.2430  210.1860  151.9970 C   0  0  1  0  0  0  0  0  0  0  0  0
  160.4770  209.7740  150.9010 O   0  0  0  0  0  1  0  0  0  0  0  0
  162.8100  210.2850  150.3960 C   0  0  0  0  0  1  0  0  0  0  0  0
  162.5880  210.5020  151.7600 O   0  0  0  0  0  0  0  0  0  0  0  0
  159.1890  210.9350  152.9610 O   0  0  0  0  0  0  0  0  0  0  0  0
  158.8830  212.2800  152.6950 C   0  0  0  0  0  2  0  0  0  0  0  0
  159.0040  213.1030  153.9710 C   0  0  0  0  0  2  0  0  0  0  0  0
  156.4300  213.0210  154.0120 C   0  0  2  0  0  3  0  0  0  0  0  0
  155.2170  212.0700  157.2600 F   0  0  0  0  0  0  0  0  0  0  0  0
  157.0460  213.5570  156.8100 C   0  0  0  0  0  2  0  0  0  0  0  0
  157.7210  214.4520  155.7450 C   0  0  0  0  0  2  0  0  0  0  0  0
  157.7070  213.8380  154.3230 C   0  0  1  0  0  3  0  0  0  0  0  0
  155.2100  213.9280  154.1860 C   0  0  0  0  0  2  0  0  0  0  0  0
  156.2550  211.9740  155.0980 C   0  0  1  0  0  3  0  0  0  0  0  0
  154.8180  213.8230  155.6610 C   0  0  0  0  0  2  0  0  0  0  0  0
  155.8070  212.8280  156.2650 C   0  0  1  0  0  0  0  0  0  0  0  0
  155.2590  211.0580  154.7340 O   0  0  0  0  0  1  0  0  0  0  0  0
  160.1090  202.7800  150.5720 C   0  0  0  0  0  2  0  0  0  0  0  0
  159.9370  202.1700  149.3220 O   0  0  0  0  0  0  0  0  0  0  0  0
  160.8380  204.5690  148.8250 S   0  0  0  0  0  0  0  0  0  0  0  0
  160.1370  204.2310  150.4160 N   0  0  2  0  0  0  0  0  0  0  0  0
  160.8750  202.7930  148.4930 C   0  0  2  0  0  3  0  0  0  0  0  0
  160.6090  202.5060  147.0090 C   0  0  1  0  0  3  0  0  0  0  0  0
  160.3610  203.6020  144.7150 C   0  0  0  0  0  2  0  0  0  0  0  0
  161.7470  205.5260  143.8440 C   0  0  0  0  0  2  0  0  0  0  0  0
  163.2600  204.7110  145.2840 C   0  0  2  0  0  3  0  0  0  0  0  0
  161.0970  203.6040  146.0590 C   0  0  2  0  0  3  0  0  0  0  0  0
  163.2900  204.3990  146.6590 O   0  0  0  0  0  0  0  0  0  0  0  0
  162.3680  205.7760  145.0760 O   0  0  0  0  0  0  0  0  0  0  0  0
  162.6080  203.4800  145.8390 C   0  0  2  0  0  3  0  0  0  0  0  0
  160.3380  204.9930  144.0850 C   0  0  0  0  0  2  0  0  0  0  0  0
  161.0370  201.1370  146.5710 C   0  0  0  0  0  0  0  0  0  0  0  0
  161.6610  200.3950  147.3740 O   0  0  0  0  0  1  0  0  0  0  0  0
  160.7490  200.6760  145.2900 O   0  0  0  0  0  0  0  0  0  0  0  0
  1  6  1  6  0  0  0
  1  8  1  0  0  0  0
  1  7  1  0  0  0  0
  2  6  1  0  0  0  0
  3  5  1  0  0  0  0
  4  2  1  1  0  0  0
  4  3  1  0  0  0  0
  5  7  1  0  0  0  0
  8 11  1  1  0  0  0
  9 18  1  6  0  0  0
  9 10  1  0  0  0  0
  9 13  1  0  0  0  0
 10  8  1  0  0  0  0
 11 12  1  0  0  0  0
 13 12  2  0  0  0  0
 14  9  1  0  0  0  0
 14 10  1  0  0  0  0
 15 14  1  0  0  0  0
 16 17  1  0  0  0  0
 17 14  1  0  0  0  0
 19 18  1  0  0  0  0
 19 20  1  0  0  0  0
 20 25  1  0  0  0  0
 21 26  1  0  0  0  0
 21 25  1  0  0  0  0
 21 27  1  0  0  0  0
 24 23  1  0  0  0  0
 25 24  1  0  0  0  0
 26 28  1  0  0  0  0
 27 29  1  0  0  0  0
 28 29  1  0  0  0  0
 29 23  1  0  0  0  0
 29 22  1  0  0  0  0
 30 27  1  0  0  0  0
 32 31  1  0  0  0  0
 33 34  1  0  0  0  0
 34 31  1  0  0  0  0
 34  4  1  0  0  0  0
 35 33  1  0  0  0  0
 35 32  1  0  0  0  0
 36 35  1  0  0  0  0
 37 40  1  0  0  0  0
 38 44  1  0  0  0  0
 38 42  1  0  0  0  0
 39 43  1  0  0  0  0
 39 41  1  0  0  0  0
 40 36  1  0  0  0  0
 42 39  1  0  0  0  0
 43 40  1  0  0  0  0
 43 41  1  0  0  0  0
 44 37  1  0  0  0  0
 45 36  1  0  0  0  0
 45 46  1  0  0  0  0
 47 45  2  0  0  0  0
M  END
>  <MODEL>
8

>  <REMARK>
 VINA RESULT:      -3.7      3.267      5.561
  Name = 
  10 active torsions:
  status: ('A' for Active; 'I' for Inactive)
    1  A    between atoms: C_2  and  C_5
    2  A    between atoms: C_3  and  O_15
    3  A    between atoms: C_4  and  C_10
    4  A    between atoms: C_4  and  C_21
    5  A    between atoms: C_7  and  C_14
    6  A    between atoms: C_7  and  C_27
    7  A    between atoms: C_7  and  C_43
    8  A    between atoms: C_10  and  O_15
    9  A    between atoms: C_23  and  N_42
   10  A    between atoms: C_35  and  O_38
                            x       y       z     vdW  Elec       q    Type
                         _______ _______ _______ _____ _____    ______ ____

>  <TORSDO>
F 10

$$$$
=
 OpenBabel11072414513D

 47 54  0  0  1  0  0  0  0  0999 V2000
  161.3690  206.7200  154.1950 C   0  0  2  0  0  3  0  0  0  0  0  0
  161.8900  207.4460  151.8020 C   0  0  0  0  0  2  0  0  0  0  0  0
  160.9160  205.1180  151.4160 C   0  0  0  0  0  2  0  0  0  0  0  0
  161.9600  206.1490  150.9770 C   0  0  1  0  0  3  0  0  0  0  0  0
  161.1450  204.6990  152.7920 N   0  0  0  0  0  2  0  0  0  0  0  0
  162.4360  207.2100  153.2070 C   0  0  0  0  0  2  0  0  0  0  0  0
  160.4280  205.6400  153.6400 C   0  0  0  0  0  2  0  0  0  0  0  0
  160.6090  207.8850  154.7610 C   0  0  2  0  0  3  0  0  0  0  0  0
  160.7920  210.3420  155.7350 C   0  0  1  0  0  0  0  0  0  0  0  0
  161.1830  209.0250  155.0510 C   0  0  1  0  0  3  0  0  0  0  0  0
  159.3180  207.7850  155.5670 C   0  0  0  0  0  2  0  0  0  0  0  0
  159.3730  208.5970  156.8070 N   0  0  0  0  0  0  0  0  0  0  0  0
  160.0220  209.7340  156.9120 C   0  0  0  0  0  3  0  0  0  0  0  0
  162.1560  210.1430  155.3120 C   0  0  1  0  0  0  0  0  0  0  0  0
  162.6070  210.7490  154.1350 O   0  0  0  0  0  1  0  0  0  0  0  0
  163.5620  211.0160  156.8250 C   0  0  0  0  0  1  0  0  0  0  0  0
  163.1190  209.8080  156.2750 O   0  0  0  0  0  0  0  0  0  0  0  0
  160.0800  211.2560  154.9120 O   0  0  0  0  0  0  0  0  0  0  0  0
  159.8680  212.4720  155.5840 C   0  0  0  0  0  2  0  0  0  0  0  0
  159.2170  213.4780  154.6450 C   0  0  0  0  0  2  0  0  0  0  0  0
  156.6460  213.4790  154.4770 C   0  0  2  0  0  3  0  0  0  0  0  0
  155.1890  211.2510  156.8910 F   0  0  0  0  0  0  0  0  0  0  0  0
  157.0520  212.7180  157.2610 C   0  0  0  0  0  2  0  0  0  0  0  0
  157.8090  213.9620  156.7430 C   0  0  0  0  0  2  0  0  0  0  0  0
  157.8990  214.0320  155.1980 C   0  0  1  0  0  3  0  0  0  0  0  0
  155.4200  214.2640  154.9490 C   0  0  0  0  0  2  0  0  0  0  0  0
  156.3860  212.0710  154.9800 C   0  0  1  0  0  3  0  0  0  0  0  0
  154.9180  213.5390  156.2000 C   0  0  0  0  0  2  0  0  0  0  0  0
  155.8550  212.3450  156.3710 C   0  0  1  0  0  0  0  0  0  0  0  0
  155.4180  211.4420  154.1860 O   0  0  0  0  0  1  0  0  0  0  0  0
  160.4670  206.3740  149.1320 C   0  0  0  0  0  2  0  0  0  0  0  0
  160.3470  205.9520  147.8020 O   0  0  0  0  0  0  0  0  0  0  0  0
  162.6680  205.0790  148.6190 S   0  0  0  0  0  0  0  0  0  0  0  0
  161.8710  206.3740  149.5280 N   0  0  2  0  0  0  0  0  0  0  0  0
  161.1210  204.7900  147.7290 C   0  0  2  0  0  3  0  0  0  0  0  0
  161.3930  204.3710  146.2770 C   0  0  1  0  0  3  0  0  0  0  0  0
  159.8530  202.7900  144.9920 C   0  0  0  0  0  2  0  0  0  0  0  0
  159.9070  200.2670  145.1030 C   0  0  0  0  0  2  0  0  0  0  0  0
  160.7760  200.6620  147.1310 C   0  0  2  0  0  3  0  0  0  0  0  0
  161.0300  202.9150  145.9650 C   0  0  2  0  0  3  0  0  0  0  0  0
  161.8600  201.4040  147.6450 O   0  0  0  0  0  0  0  0  0  0  0  0
  161.1000  200.2180  145.8380 O   0  0  0  0  0  0  0  0  0  0  0  0
  160.7330  202.1550  147.2610 C   0  0  2  0  0  3  0  0  0  0  0  0
  159.9220  201.4910  144.1920 C   0  0  0  0  0  2  0  0  0  0  0  0
  160.8510  205.3290  145.2590 C   0  0  0  0  0  0  0  0  0  0  0  0
  159.7780  205.9430  145.4930 O   0  0  0  0  0  1  0  0  0  0  0  0
  161.5230  205.5490  144.0600 O   0  0  0  0  0  0  0  0  0  0  0  0
  1  6  1  6  0  0  0
  1  8  1  0  0  0  0
  2  6  1  0  0  0  0
  3  5  1  0  0  0  0
  4  3  1  1  0  0  0
  4  2  1  0  0  0  0
  5  7  1  0  0  0  0
  7  1  1  0  0  0  0
  8 10  1  0  0  0  0
  8 11  1  1  0  0  0
  9 18  1  6  0  0  0
  9 13  1  0  0  0  0
 10 14  1  0  0  0  0
 10  9  1  0  0  0  0
 11 12  1  0  0  0  0
 12 13  2  0  0  0  0
 14  9  1  0  0  0  0
 14 17  1  0  0  0  0
 15 14  1  0  0  0  0
 17 16  1  0  0  0  0
 18 19  1  0  0  0  0
 20 25  1  0  0  0  0
 20 19  1  0  0  0  0
 21 26  1  0  0  0  0
 21 27  1  0  0  0  0
 21 25  1  0  0  0  0
 24 23  1  0  0  0  0
 25 24  1  0  0  0  0
 26 28  1  0  0  0  0
 27 29  1  0  0  0  0
 28 29  1  0  0  0  0
 29 22  1  0  0  0  0
 29 23  1  0  0  0  0
 30 27  1  0  0  0  0
 31 34  1  0  0  0  0
 32 31  1  0  0  0  0
 33 34  1  0  0  0  0
 34  4  1  0  0  0  0
 35 32  1  0  0  0  0
 35 33  1  0  0  0  0
 36 35  1  0  0  0  0
 37 40  1  0  0  0  0
 38 42  1  0  0  0  0
 39 43  1  0  0  0  0
 39 41  1  0  0  0  0
 40 36  1  0  0  0  0
 40 43  1  0  0  0  0
 42 39  1  0  0  0  0
 43 41  1  0  0  0  0
 44 37  1  0  0  0  0
 44 38  1  0  0  0  0
 45 46  1  0  0  0  0
 45 36  1  0  0  0  0
 47 45  2  0  0  0  0
M  END
>  <MODEL>
9

>  <REMARK>
 VINA RESULT:      -3.6      3.828      5.784
  Name = 
  10 active torsions:
  status: ('A' for Active; 'I' for Inactive)
    1  A    between atoms: C_2  and  C_5
    2  A    between atoms: C_3  and  O_15
    3  A    between atoms: C_4  and  C_10
    4  A    between atoms: C_4  and  C_21
    5  A    between atoms: C_7  and  C_14
    6  A    between atoms: C_7  and  C_27
    7  A    between atoms: C_7  and  C_43
    8  A    between atoms: C_10  and  O_15
    9  A    between atoms: C_23  and  N_42
   10  A    between atoms: C_35  and  O_38
                            x       y       z     vdW  Elec       q    Type
                         _______ _______ _______ _____ _____    ______ ____

>  <TORSDO>
F 10

$$$$
