=
 OpenBabel11072413493D

 29 33  0  0  1  0  0  0  0  0999 V2000
  161.3200  212.6210  150.0080 C   0  0  0  0  0  1  0  0  0  0  0  0
  157.0270  213.0250  150.2640 C   0  0  0  0  0  2  0  0  0  0  0  0
  160.6310  213.9160  147.3160 C   0  0  0  0  0  1  0  0  0  0  0  0
  159.2030  213.6600  150.9070 C   0  0  1  0  0  3  0  0  0  0  0  0
  157.0470  213.0820  148.7420 C   0  0  0  0  0  2  0  0  0  0  0  0
  158.0310  212.0330  152.1250 C   0  0  0  0  0  2  0  0  0  0  0  0
  158.2910  212.5120  150.7790 N   0  0  1  0  0  0  0  0  0  0  0  0
  158.7530  214.4530  154.5740 C   0  0  0  0  0  2  0  0  0  0  0  0
  159.8350  213.6770  152.2280 N   0  0  0  0  0  2  0  0  0  0  0  0
  159.6360  213.4990  148.3840 C   0  0  1  0  0  3  0  0  0  0  0  0
  159.6810  213.6990  155.4280 C   0  0  0  0  0  2  0  0  0  0  0  0
  159.0680  212.7020  152.9770 C   0  0  2  0  0  0  0  0  0  0  0  0
  159.8780  211.9540  153.9680 C   0  0  1  0  0  3  0  0  0  0  0  0
  160.2500  213.6810  149.7810 C   0  0  2  0  0  3  0  0  0  0  0  0
  158.7610  212.9120  154.4800 C   0  0  0  0  0  0  0  0  0  0  0  0
  158.0960  214.4530  148.1540 S   0  0  0  0  0  0  0  0  0  0  0  0
  160.6980  209.6040  153.9460 C   0  0  0  0  0  0  0  0  0  0  0  0
  157.6560  210.4830  155.6950 O   0  0  0  0  0  0  0  0  0  0  0  0
  159.4700  210.4780  154.1240 C   0  0  1  0  0  3  0  0  0  0  0  0
  160.8780  209.3110  156.3270 C   0  0  0  0  0  3  0  0  0  0  0  0
  161.3410  209.1390  154.9810 N   0  0  0  0  0  0  0  0  0  0  0  0
  158.8750  210.2460  155.4880 C   0  0  0  0  0  0  0  0  0  0  0  0
  159.7070  209.8140  156.5650 N   0  0  0  0  0  0  0  0  0  0  0  0
  161.2050  209.2850  152.6020 C   0  0  0  0  0  0  0  0  0  0  0  0
  162.0450  210.0400  152.0440 O   0  0  0  0  0  0  0  0  0  0  0  0
  160.7220  208.1460  151.9390 O   0  0  0  0  0  0  0  0  0  0  0  0
  161.5480  207.1170  151.3920 C   0  0  0  0  0  3  0  0  0  0  0  0
  161.0980  206.7270  149.9960 C   0  0  0  0  0  1  0  0  0  0  0  0
  161.5950  205.9030  152.3010 C   0  0  0  0  0  1  0  0  0  0  0  0
  4  9  1  1  0  0  0
  5  2  1  0  0  0  0
  7  2  1  1  0  0  0
  7  4  1  0  0  0  0
  7  6  1  0  0  0  0
  8 11  1  0  0  0  0
  9 12  1  0  0  0  0
 10  3  1  6  0  0  0
 10 14  1  0  0  0  0
 12  6  1  6  0  0  0
 12 13  1  0  0  0  0
 12 15  1  0  0  0  0
 13 19  1  0  0  0  0
 13 15  1  1  0  0  0
 14  1  1  1  0  0  0
 14  4  1  0  0  0  0
 15  8  1  0  0  0  0
 15 11  1  0  0  0  0
 16 10  1  0  0  0  0
 16  5  1  0  0  0  0
 17 21  2  0  0  0  0
 19 17  1  1  0  0  0
 19 22  1  0  0  0  0
 20 23  2  0  0  0  0
 21 20  1  0  0  0  0
 22 18  2  0  0  0  0
 22 23  1  0  0  0  0
 24 17  1  0  0  0  0
 25 24  2  0  0  0  0
 26 24  1  0  0  0  0
 27 26  1  0  0  0  0
 27 29  1  0  0  0  0
 28 27  1  0  0  0  0
M  END
>  <MODEL>
1

>  <REMARK>
 VINA RESULT:      -4.0      0.000      0.000
  Name = 
  4 active torsions:
  status: ('A' for Active; 'I' for Inactive)
    1  A    between atoms: C_2  and  C_3
    2  A    between atoms: C_2  and  O_10
    3  A    between atoms: C_4  and  O_10
    4  A    between atoms: C_11  and  C_24
                            x       y       z     vdW  Elec       q    Type
                         _______ _______ _______ _____ _____    ______ ____

>  <TORSDO>
F 4

$$$$
=
 OpenBabel11072413493D

 29 33  0  0  1  0  0  0  0  0999 V2000
  163.0520  210.4490  154.2790 C   0  0  0  0  0  1  0  0  0  0  0  0
  158.9710  209.2630  155.0510 C   0  0  0  0  0  2  0  0  0  0  0  0
  162.4730  211.8320  156.9520 C   0  0  0  0  0  1  0  0  0  0  0  0
  161.2710  208.7730  154.9030 C   0  0  1  0  0  3  0  0  0  0  0  0
  158.8990  210.4850  155.9580 C   0  0  0  0  0  2  0  0  0  0  0  0
  159.8660  208.4520  153.0520 C   0  0  0  0  0  2  0  0  0  0  0  0
  160.1290  209.3430  154.1690 N   0  0  1  0  0  0  0  0  0  0  0  0
  161.2510  205.2540  153.5280 C   0  0  0  0  0  2  0  0  0  0  0  0
  161.9800  207.7920  154.0800 N   0  0  0  0  0  2  0  0  0  0  0  0
  161.4860  211.0080  156.1450 C   0  0  1  0  0  3  0  0  0  0  0  0
  162.0530  205.1270  152.3040 C   0  0  0  0  0  2  0  0  0  0  0  0
  161.0770  207.5720  152.9690 C   0  0  2  0  0  0  0  0  0  0  0  0
  161.7740  207.3080  151.6880 C   0  0  1  0  0  3  0  0  0  0  0  0
  162.2190  209.8700  155.4150 C   0  0  2  0  0  3  0  0  0  0  0  0
  160.9250  206.1710  152.3290 C   0  0  0  0  0  0  0  0  0  0  0  0
  160.1730  210.4070  157.2610 S   0  0  0  0  0  0  0  0  0  0  0  0
  161.9750  208.9670  149.8430 C   0  0  0  0  0  0  0  0  0  0  0  0
  159.7520  206.1290  149.5440 O   0  0  0  0  0  0  0  0  0  0  0  0
  161.0750  207.9110  150.4570 C   0  0  1  0  0  3  0  0  0  0  0  0
  162.6510  207.4360  148.1150 C   0  0  0  0  0  3  0  0  0  0  0  0
  162.7190  208.6890  148.8090 N   0  0  0  0  0  0  0  0  0  0  0  0
  160.7900  206.8340  149.4440 C   0  0  0  0  0  0  0  0  0  0  0  0
  161.7300  206.5700  148.4010 N   0  0  0  0  0  0  0  0  0  0  0  0
  162.0480  210.3190  150.4190 C   0  0  0  0  0  0  0  0  0  0  0  0
  161.5900  210.5440  151.5710 O   0  0  0  0  0  0  0  0  0  0  0  0
  162.6080  211.3590  149.6620 O   0  0  0  0  0  0  0  0  0  0  0  0
  161.9610  211.9970  148.5590 C   0  0  0  0  0  3  0  0  0  0  0  0
  162.9610  212.6980  147.6580 C   0  0  0  0  0  1  0  0  0  0  0  0
  160.8900  212.9640  149.0290 C   0  0  0  0  0  1  0  0  0  0  0  0
  2  5  1  0  0  0  0
  4  9  1  6  0  0  0
  4 14  1  0  0  0  0
  5 16  1  0  0  0  0
  7  6  1  6  0  0  0
  7  4  1  0  0  0  0
  7  2  1  0  0  0  0
 10  3  1  1  0  0  0
 10 16  1  0  0  0  0
 11 15  1  0  0  0  0
 11  8  1  0  0  0  0
 12  6  1  6  0  0  0
 12  9  1  0  0  0  0
 13 15  1  6  0  0  0
 13 12  1  0  0  0  0
 14  1  1  6  0  0  0
 14 10  1  0  0  0  0
 15 12  1  0  0  0  0
 15  8  1  0  0  0  0
 17 24  1  0  0  0  0
 17 19  1  0  0  0  0
 19 22  1  6  0  0  0
 19 13  1  0  0  0  0
 20 23  2  0  0  0  0
 20 21  1  0  0  0  0
 21 17  2  0  0  0  0
 22 18  2  0  0  0  0
 23 22  1  0  0  0  0
 24 25  2  0  0  0  0
 26 24  1  0  0  0  0
 27 29  1  0  0  0  0
 27 26  1  0  0  0  0
 28 27  1  0  0  0  0
M  END
>  <MODEL>
2

>  <REMARK>
 VINA RESULT:      -2.7      3.385      6.929
  Name = 
  4 active torsions:
  status: ('A' for Active; 'I' for Inactive)
    1  A    between atoms: C_2  and  C_3
    2  A    between atoms: C_2  and  O_10
    3  A    between atoms: C_4  and  O_10
    4  A    between atoms: C_11  and  C_24
                            x       y       z     vdW  Elec       q    Type
                         _______ _______ _______ _____ _____    ______ ____

>  <TORSDO>
F 4

$$$$
=
 OpenBabel11072413493D

 29 33  0  0  1  0  0  0  0  0999 V2000
  161.3050  211.6640  149.7580 C   0  0  0  0  0  1  0  0  0  0  0  0
  157.8620  212.2190  152.3070 C   0  0  0  0  0  2  0  0  0  0  0  0
  160.0640  214.2240  148.6180 C   0  0  0  0  0  1  0  0  0  0  0  0
  160.1900  212.2460  151.9460 C   0  0  1  0  0  3  0  0  0  0  0  0
  157.2900  213.0610  151.1740 C   0  0  0  0  0  2  0  0  0  0  0  0
  159.1400  210.3240  152.7850 C   0  0  0  0  0  2  0  0  0  0  0  0
  158.9820  211.4130  151.8370 N   0  0  1  0  0  0  0  0  0  0  0  0
  161.5270  211.0400  155.2670 C   0  0  0  0  0  2  0  0  0  0  0  0
  161.2640  211.5200  152.6260 N   0  0  0  0  0  2  0  0  0  0  0  0
  159.5010  213.3940  149.7570 C   0  0  1  0  0  3  0  0  0  0  0  0
  162.4160  209.8790  155.1250 C   0  0  0  0  0  2  0  0  0  0  0  0
  160.5870  210.3630  153.1770 C   0  0  2  0  0  0  0  0  0  0  0  0
  161.4310  209.1440  153.2000 C   0  0  1  0  0  3  0  0  0  0  0  0
  160.6440  212.7680  150.5730 C   0  0  2  0  0  3  0  0  0  0  0  0
  160.9930  209.7810  154.5530 C   0  0  0  0  0  0  0  0  0  0  0  0
  158.4030  214.4470  150.7640 S   0  0  0  0  0  0  0  0  0  0  0  0
  161.3360  207.1120  151.7660 C   0  0  0  0  0  0  0  0  0  0  0  0
  159.7840  207.1430  155.0330 O   0  0  0  0  0  0  0  0  0  0  0  0
  160.6620  207.8430  152.9120 C   0  0  1  0  0  3  0  0  0  0  0  0
  162.3840  205.5900  153.3050 C   0  0  0  0  0  3  0  0  0  0  0  0
  162.1570  206.1260  151.9950 N   0  0  0  0  0  0  0  0  0  0  0  0
  160.6500  206.9670  154.1370 C   0  0  0  0  0  0  0  0  0  0  0  0
  161.6600  205.9720  154.3110 N   0  0  0  0  0  0  0  0  0  0  0  0
  161.0980  207.5190  150.3720 C   0  0  0  0  0  0  0  0  0  0  0  0
  161.4840  208.6470  149.9650 O   0  0  0  0  0  0  0  0  0  0  0  0
  160.4130  206.6490  149.5100 O   0  0  0  0  0  0  0  0  0  0  0  0
  161.0450  205.7100  148.6380 C   0  0  0  0  0  3  0  0  0  0  0  0
  160.5660  205.8710  147.2070 C   0  0  0  0  0  1  0  0  0  0  0  0
  160.8420  204.2850  149.1170 C   0  0  0  0  0  1  0  0  0  0  0  0
  4  9  1  6  0  0  0
  5  2  1  0  0  0  0
  7  4  1  0  0  0  0
  7  2  1  1  0  0  0
  7  6  1  0  0  0  0
  9 12  1  0  0  0  0
 10  3  1  6  0  0  0
 10 14  1  0  0  0  0
 10 16  1  0  0  0  0
 11  8  1  0  0  0  0
 12  6  1  6  0  0  0
 12 13  1  0  0  0  0
 12 15  1  0  0  0  0
 13 15  1  1  0  0  0
 14  1  1  6  0  0  0
 14  4  1  0  0  0  0
 15 11  1  0  0  0  0
 15  8  1  0  0  0  0
 16  5  1  0  0  0  0
 17 21  2  0  0  0  0
 19 17  1  6  0  0  0
 19 13  1  0  0  0  0
 19 22  1  0  0  0  0
 20 23  2  0  0  0  0
 21 20  1  0  0  0  0
 22 23  1  0  0  0  0
 22 18  2  0  0  0  0
 24 17  1  0  0  0  0
 25 24  2  0  0  0  0
 26 24  1  0  0  0  0
 27 29  1  0  0  0  0
 27 26  1  0  0  0  0
 28 27  1  0  0  0  0
M  END
>  <MODEL>
3

>  <REMARK>
 VINA RESULT:      -2.6      2.158      3.186
  Name = 
  4 active torsions:
  status: ('A' for Active; 'I' for Inactive)
    1  A    between atoms: C_2  and  C_3
    2  A    between atoms: C_2  and  O_10
    3  A    between atoms: C_4  and  O_10
    4  A    between atoms: C_11  and  C_24
                            x       y       z     vdW  Elec       q    Type
                         _______ _______ _______ _____ _____    ______ ____

>  <TORSDO>
F 4

$$$$
=
 OpenBabel11072413493D

 29 33  0  0  1  0  0  0  0  0999 V2000
  161.5110  211.9590  150.1330 C   0  0  0  0  0  1  0  0  0  0  0  0
  157.3910  212.9800  150.9330 C   0  0  0  0  0  2  0  0  0  0  0  0
  160.7710  213.6330  147.6740 C   0  0  0  0  0  1  0  0  0  0  0  0
  159.6960  213.2020  151.3700 C   0  0  1  0  0  3  0  0  0  0  0  0
  157.2640  213.2020  149.4320 C   0  0  0  0  0  2  0  0  0  0  0  0
  158.4050  211.6480  152.5620 C   0  0  0  0  0  2  0  0  0  0  0  0
  158.6000  212.2270  151.2440 N   0  0  1  0  0  0  0  0  0  0  0  0
  159.7600  213.6440  155.1210 C   0  0  0  0  0  2  0  0  0  0  0  0
  160.4540  212.9760  152.6020 N   0  0  0  0  0  2  0  0  0  0  0  0
  159.8360  213.2570  148.8080 C   0  0  1  0  0  3  0  0  0  0  0  0
  160.6340  212.6680  155.7860 C   0  0  0  0  0  2  0  0  0  0  0  0
  159.6180  212.0530  153.3430 C   0  0  2  0  0  0  0  0  0  0  0  0
  160.3920  211.0850  154.1570 C   0  0  1  0  0  3  0  0  0  0  0  0
  160.6110  213.1880  150.1340 C   0  0  2  0  0  3  0  0  0  0  0  0
  159.5060  212.1400  154.8840 C   0  0  0  0  0  0  0  0  0  0  0  0
  158.4570  214.4530  148.8530 S   0  0  0  0  0  0  0  0  0  0  0  0
  160.7840  208.6630  153.7390 C   0  0  0  0  0  0  0  0  0  0  0  0
  158.2480  209.7480  156.0790 O   0  0  0  0  0  0  0  0  0  0  0  0
  159.7670  209.6800  154.2220 C   0  0  1  0  0  3  0  0  0  0  0  0
  161.2800  208.0280  156.0060 C   0  0  0  0  0  3  0  0  0  0  0  0
  161.4910  207.9720  154.5880 N   0  0  0  0  0  0  0  0  0  0  0  0
  159.3610  209.3600  155.6370 C   0  0  0  0  0  0  0  0  0  0  0  0
  160.2640  208.6650  156.4980 N   0  0  0  0  0  0  0  0  0  0  0  0
  161.0130  208.4550  152.3000 C   0  0  0  0  0  0  0  0  0  0  0  0
  160.5510  209.2710  151.4590 O   0  0  0  0  0  0  0  0  0  0  0  0
  161.7290  207.3250  151.8750 O   0  0  0  0  0  0  0  0  0  0  0  0
  161.1570  206.2250  151.1650 C   0  0  0  0  0  3  0  0  0  0  0  0
  161.6400  204.8970  151.7180 C   0  0  0  0  0  1  0  0  0  0  0  0
  161.4330  206.3210  149.6760 C   0  0  0  0  0  1  0  0  0  0  0  0
  4  9  1  1  0  0  0
  5  2  1  0  0  0  0
  7  2  1  1  0  0  0
  7  4  1  0  0  0  0
  7  6  1  0  0  0  0
  8 11  1  0  0  0  0
  9 12  1  0  0  0  0
 10  3  1  6  0  0  0
 10 16  1  0  0  0  0
 10 14  1  0  0  0  0
 12  6  1  6  0  0  0
 12 13  1  0  0  0  0
 12 15  1  0  0  0  0
 13 19  1  0  0  0  0
 13 15  1  1  0  0  0
 14  1  1  6  0  0  0
 14  4  1  0  0  0  0
 15  8  1  0  0  0  0
 15 11  1  0  0  0  0
 16  5  1  0  0  0  0
 17 21  2  0  0  0  0
 19 17  1  1  0  0  0
 19 22  1  0  0  0  0
 20 23  2  0  0  0  0
 21 20  1  0  0  0  0
 22 18  2  0  0  0  0
 22 23  1  0  0  0  0
 24 17  1  0  0  0  0
 25 24  2  0  0  0  0
 26 24  1  0  0  0  0
 27 28  1  0  0  0  0
 27 26  1  0  0  0  0
 29 27  1  0  0  0  0
M  END
>  <MODEL>
4

>  <REMARK>
 VINA RESULT:      -2.4      0.975      1.208
  Name = 
  4 active torsions:
  status: ('A' for Active; 'I' for Inactive)
    1  A    between atoms: C_2  and  C_3
    2  A    between atoms: C_2  and  O_10
    3  A    between atoms: C_4  and  O_10
    4  A    between atoms: C_11  and  C_24
                            x       y       z     vdW  Elec       q    Type
                         _______ _______ _______ _____ _____    ______ ____

>  <TORSDO>
F 4

$$$$
=
 OpenBabel11072413493D

 29 33  0  0  1  0  0  0  0  0999 V2000
  160.1240  208.1360  153.3380 C   0  0  0  0  0  1  0  0  0  0  0  0
  161.3260  211.5430  155.7050 C   0  0  0  0  0  2  0  0  0  0  0  0
  160.2290  206.9540  156.1640 C   0  0  0  0  0  1  0  0  0  0  0  0
  159.7270  210.3780  154.4250 C   0  0  1  0  0  3  0  0  0  0  0  0
  161.8060  210.5280  156.7330 C   0  0  0  0  0  2  0  0  0  0  0  0
  161.1340  211.9590  153.4150 C   0  0  0  0  0  2  0  0  0  0  0  0
  161.1010  210.9060  154.4130 N   0  0  1  0  0  0  0  0  0  0  0  0
  157.9280  213.1840  152.6460 C   0  0  0  0  0  2  0  0  0  0  0  0
  159.0060  210.7780  153.2150 N   0  0  0  0  0  2  0  0  0  0  0  0
  160.5890  208.3780  155.7820 C   0  0  1  0  0  3  0  0  0  0  0  0
  157.9180  213.0070  151.1880 C   0  0  0  0  0  2  0  0  0  0  0  0
  159.8670  211.7870  152.6320 C   0  0  2  0  0  0  0  0  0  0  0  0
  159.8490  211.7890  151.1490 C   0  0  1  0  0  3  0  0  0  0  0  0
  159.7060  208.8530  154.6150 C   0  0  2  0  0  3  0  0  0  0  0  0
  159.2750  213.0210  151.9100 C   0  0  0  0  0  0  0  0  0  0  0  0
  160.4420  209.4380  157.2610 S   0  0  0  0  0  0  0  0  0  0  0  0
  161.6950  210.8840  149.7460 C   0  0  0  0  0  0  0  0  0  0  0  0
  161.1420  214.4500  150.0000 O   0  0  0  0  0  0  0  0  0  0  0  0
  161.2100  212.1050  150.5060 C   0  0  1  0  0  3  0  0  0  0  0  0
  161.0160  211.8690  147.6590 C   0  0  0  0  0  3  0  0  0  0  0  0
  161.5350  210.7950  148.4560 N   0  0  0  0  0  0  0  0  0  0  0  0
  161.0780  213.2720  149.5620 C   0  0  0  0  0  0  0  0  0  0  0  0
  160.8200  213.0410  148.1760 N   0  0  0  0  0  0  0  0  0  0  0  0
  162.3310  209.7630  150.4550 C   0  0  0  0  0  0  0  0  0  0  0  0
  162.8170  209.9320  151.6050 O   0  0  0  0  0  0  0  0  0  0  0  0
  162.4150  208.5110  149.8260 O   0  0  0  0  0  0  0  0  0  0  0  0
  161.5120  207.4280  150.0560 C   0  0  0  0  0  3  0  0  0  0  0  0
  162.0900  206.4230  151.0360 C   0  0  0  0  0  1  0  0  0  0  0  0
  161.1180  206.7490  148.7570 C   0  0  0  0  0  1  0  0  0  0  0  0
  2  5  1  0  0  0  0
  4  9  1  6  0  0  0
  4 14  1  0  0  0  0
  5 16  1  0  0  0  0
  7  6  1  6  0  0  0
  7  4  1  0  0  0  0
  7  2  1  0  0  0  0
 10  3  1  1  0  0  0
 10 16  1  0  0  0  0
 11 15  1  0  0  0  0
 11  8  1  0  0  0  0
 12  9  1  0  0  0  0
 12  6  1  1  0  0  0
 13 15  1  1  0  0  0
 13 12  1  0  0  0  0
 14  1  1  6  0  0  0
 14 10  1  0  0  0  0
 15 12  1  0  0  0  0
 15  8  1  0  0  0  0
 17 24  1  0  0  0  0
 17 19  1  0  0  0  0
 19 22  1  6  0  0  0
 19 13  1  0  0  0  0
 20 23  2  0  0  0  0
 20 21  1  0  0  0  0
 21 17  2  0  0  0  0
 22 18  2  0  0  0  0
 23 22  1  0  0  0  0
 24 25  2  0  0  0  0
 26 27  1  0  0  0  0
 26 24  1  0  0  0  0
 27 28  1  0  0  0  0
 29 27  1  0  0  0  0
M  END
>  <MODEL>
5

>  <REMARK>
 VINA RESULT:      -2.3      2.933      6.009
  Name = 
  4 active torsions:
  status: ('A' for Active; 'I' for Inactive)
    1  A    between atoms: C_2  and  C_3
    2  A    between atoms: C_2  and  O_10
    3  A    between atoms: C_4  and  O_10
    4  A    between atoms: C_11  and  C_24
                            x       y       z     vdW  Elec       q    Type
                         _______ _______ _______ _____ _____    ______ ____

>  <TORSDO>
F 4

$$$$
=
 OpenBabel11072413493D

 29 33  0  0  1  0  0  0  0  0999 V2000
  157.0870  213.8900  143.7530 C   0  0  0  0  0  1  0  0  0  0  0  0
  160.6510  212.0300  145.3310 C   0  0  0  0  0  2  0  0  0  0  0  0
  156.8270  214.4420  146.7560 C   0  0  0  0  0  1  0  0  0  0  0  0
  159.5790  213.7450  144.1220 C   0  0  1  0  0  3  0  0  0  0  0  0
  159.9090  211.9790  146.6600 C   0  0  0  0  0  2  0  0  0  0  0  0
  160.3880  211.8390  143.0180 C   0  0  0  0  0  2  0  0  0  0  0  0
  159.7270  212.2840  144.2330 N   0  0  1  0  0  0  0  0  0  0  0  0
  162.0650  214.4530  141.3660 C   0  0  0  0  0  2  0  0  0  0  0  0
  159.7570  214.1820  142.7360 N   0  0  0  0  0  2  0  0  0  0  0  0
  157.9370  213.6490  146.0910 C   0  0  1  0  0  3  0  0  0  0  0  0
  161.4630  214.3520  140.0300 C   0  0  0  0  0  2  0  0  0  0  0  0
  160.3010  213.0080  142.0830 C   0  0  2  0  0  0  0  0  0  0  0  0
  159.8590  212.8610  140.6760 C   0  0  1  0  0  3  0  0  0  0  0  0
  158.2350  214.2230  144.6960 C   0  0  2  0  0  3  0  0  0  0  0  0
  161.3640  213.1370  140.9660 C   0  0  0  0  0  0  0  0  0  0  0  0
  159.3960  213.6480  147.1870 S   0  0  0  0  0  0  0  0  0  0  0  0
  158.6080  211.3800  139.1150 C   0  0  0  0  0  0  0  0  0  0  0  0
  161.7200  210.2900  140.6040 O   0  0  0  0  0  0  0  0  0  0  0  0
  159.6250  211.4030  140.2410 C   0  0  1  0  0  3  0  0  0  0  0  0
  160.3600  211.0810  137.4930 C   0  0  0  0  0  3  0  0  0  0  0  0
  158.9920  211.2870  137.8720 N   0  0  0  0  0  0  0  0  0  0  0  0
  160.9180  210.7890  139.7720 C   0  0  0  0  0  0  0  0  0  0  0  0
  161.2630  210.8270  138.3870 N   0  0  0  0  0  0  0  0  0  0  0  0
  157.1690  211.4880  139.4000 C   0  0  0  0  0  0  0  0  0  0  0  0
  156.6260  212.6190  139.5090 O   0  0  0  0  0  0  0  0  0  0  0  0
  156.4140  210.3180  139.5740 O   0  0  0  0  0  0  0  0  0  0  0  0
  155.4780  209.8090  138.6220 C   0  0  0  0  0  3  0  0  0  0  0  0
  154.4770  208.8720  139.2740 C   0  0  0  0  0  1  0  0  0  0  0  0
  156.1820  209.1240  137.4650 C   0  0  0  0  0  1  0  0  0  0  0  0
  2  5  1  0  0  0  0
  4  9  1  6  0  0  0
  4  7  1  0  0  0  0
  4 14  1  0  0  0  0
  5 16  1  0  0  0  0
  7  6  1  6  0  0  0
  7  2  1  0  0  0  0
 10  3  1  1  0  0  0
 10 16  1  0  0  0  0
 11 15  1  0  0  0  0
 11  8  1  0  0  0  0
 12  9  1  0  0  0  0
 12  6  1  1  0  0  0
 13 15  1  6  0  0  0
 13 12  1  0  0  0  0
 14  1  1  6  0  0  0
 14 10  1  0  0  0  0
 15  8  1  0  0  0  0
 15 12  1  0  0  0  0
 17 24  1  0  0  0  0
 19 17  1  6  0  0  0
 19 13  1  0  0  0  0
 20 21  1  0  0  0  0
 20 23  2  0  0  0  0
 21 17  2  0  0  0  0
 22 19  1  0  0  0  0
 22 18  2  0  0  0  0
 23 22  1  0  0  0  0
 24 25  2  0  0  0  0
 24 26  1  0  0  0  0
 27 28  1  0  0  0  0
 27 26  1  0  0  0  0
 29 27  1  0  0  0  0
M  END
>  <MODEL>
6

>  <REMARK>
 VINA RESULT:      -2.2      8.330     12.398
  Name = 
  4 active torsions:
  status: ('A' for Active; 'I' for Inactive)
    1  A    between atoms: C_2  and  C_3
    2  A    between atoms: C_2  and  O_10
    3  A    between atoms: C_4  and  O_10
    4  A    between atoms: C_11  and  C_24
                            x       y       z     vdW  Elec       q    Type
                         _______ _______ _______ _____ _____    ______ ____

>  <TORSDO>
F 4

$$$$
=
 OpenBabel11072413493D

 29 33  0  0  1  0  0  0  0  0999 V2000
  158.6860  212.3830  151.3000 C   0  0  0  0  0  1  0  0  0  0  0  0
  157.2390  211.0880  155.1580 C   0  0  0  0  0  2  0  0  0  0  0  0
  156.5070  214.4530  151.9000 C   0  0  0  0  0  1  0  0  0  0  0  0
  158.8940  212.0630  153.7950 C   0  0  1  0  0  3  0  0  0  0  0  0
  155.9660  211.8540  154.8220 C   0  0  0  0  0  2  0  0  0  0  0  0
  158.9350  209.7630  154.2530 C   0  0  0  0  0  2  0  0  0  0  0  0
  158.0440  210.8730  153.9630 N   0  0  1  0  0  0  0  0  0  0  0  0
  162.0830  210.8310  155.4040 C   0  0  0  0  0  2  0  0  0  0  0  0
  160.2900  211.6790  153.5760 N   0  0  0  0  0  2  0  0  0  0  0  0
  156.8710  213.2670  152.7740 C   0  0  1  0  0  3  0  0  0  0  0  0
  162.9630  210.1440  154.4490 C   0  0  0  0  0  2  0  0  0  0  0  0
  160.3040  210.2690  153.9090 C   0  0  2  0  0  0  0  0  0  0  0  0
  161.2540  209.4810  153.0870 C   0  0  1  0  0  3  0  0  0  0  0  0
  158.3770  212.9740  152.6690 C   0  0  2  0  0  3  0  0  0  0  0  0
  161.5240  209.6280  154.6140 C   0  0  0  0  0  0  0  0  0  0  0  0
  156.3310  213.6090  154.4840 S   0  0  0  0  0  0  0  0  0  0  0  0
  161.5570  207.5380  151.5610 C   0  0  0  0  0  0  0  0  0  0  0  0
  160.0390  207.1110  154.8170 O   0  0  0  0  0  0  0  0  0  0  0  0
  160.7550  208.0680  152.7350 C   0  0  1  0  0  3  0  0  0  0  0  0
  162.8890  206.1830  153.0360 C   0  0  0  0  0  3  0  0  0  0  0  0
  162.5570  206.7240  151.7500 N   0  0  0  0  0  0  0  0  0  0  0  0
  160.9200  207.1510  153.9190 C   0  0  0  0  0  0  0  0  0  0  0  0
  162.1070  206.3680  154.0530 N   0  0  0  0  0  0  0  0  0  0  0  0
  161.2390  207.9540  150.1860 C   0  0  0  0  0  0  0  0  0  0  0  0
  161.3140  209.1680  149.8560 O   0  0  0  0  0  0  0  0  0  0  0  0
  160.8260  206.9890  149.2540 O   0  0  0  0  0  0  0  0  0  0  0  0
  161.2720  205.6320  149.2430 C   0  0  0  0  0  3  0  0  0  0  0  0
  161.2890  205.0650  147.8350 C   0  0  0  0  0  1  0  0  0  0  0  0
  160.4330  204.7650  150.1630 C   0  0  0  0  0  1  0  0  0  0  0  0
  4  9  1  6  0  0  0
  4  7  1  0  0  0  0
  5  2  1  0  0  0  0
  7  6  1  1  0  0  0
  7  2  1  0  0  0  0
  9 12  1  0  0  0  0
 10  3  1  6  0  0  0
 10 16  1  0  0  0  0
 11 15  1  0  0  0  0
 11  8  1  0  0  0  0
 12  6  1  1  0  0  0
 12 15  1  0  0  0  0
 13 12  1  0  0  0  0
 13 15  1  1  0  0  0
 14  1  1  6  0  0  0
 14 10  1  0  0  0  0
 14  4  1  0  0  0  0
 15  8  1  0  0  0  0
 16  5  1  0  0  0  0
 17 21  2  0  0  0  0
 19 17  1  6  0  0  0
 19 13  1  0  0  0  0
 19 22  1  0  0  0  0
 20 23  2  0  0  0  0
 21 20  1  0  0  0  0
 22 23  1  0  0  0  0
 22 18  2  0  0  0  0
 24 17  1  0  0  0  0
 25 24  2  0  0  0  0
 26 24  1  0  0  0  0
 27 26  1  0  0  0  0
 27 29  1  0  0  0  0
 28 27  1  0  0  0  0
M  END
>  <MODEL>
7

>  <REMARK>
 VINA RESULT:      -1.7      2.643      4.098
  Name = 
  4 active torsions:
  status: ('A' for Active; 'I' for Inactive)
    1  A    between atoms: C_2  and  C_3
    2  A    between atoms: C_2  and  O_10
    3  A    between atoms: C_4  and  O_10
    4  A    between atoms: C_11  and  C_24
                            x       y       z     vdW  Elec       q    Type
                         _______ _______ _______ _____ _____    ______ ____

>  <TORSDO>
F 4

$$$$
=
 OpenBabel11072413493D

 29 33  0  0  1  0  0  0  0  0999 V2000
  163.3640  204.5580  147.7180 C   0  0  0  0  0  1  0  0  0  0  0  0
  159.9070  206.5810  146.1020 C   0  0  0  0  0  2  0  0  0  0  0  0
  163.3490  203.5870  144.8110 C   0  0  0  0  0  1  0  0  0  0  0  0
  162.1190  206.6000  146.9120 C   0  0  1  0  0  3  0  0  0  0  0  0
  159.9000  205.4930  145.0350 C   0  0  0  0  0  2  0  0  0  0  0  0
  160.3200  207.0000  148.3620 C   0  0  0  0  0  2  0  0  0  0  0  0
  160.7410  206.1910  147.2320 N   0  0  1  0  0  0  0  0  0  0  0  0
  162.2710  209.9010  148.7430 C   0  0  0  0  0  2  0  0  0  0  0  0
  162.7150  207.3390  148.0260 N   0  0  0  0  0  2  0  0  0  0  0  0
  162.3190  204.5010  145.4490 C   0  0  1  0  0  3  0  0  0  0  0  0
  162.7060  209.7480  150.1380 C   0  0  0  0  0  2  0  0  0  0  0  0
  161.5820  207.6170  148.8860 C   0  0  2  0  0  0  0  0  0  0  0  0
  161.9230  207.6110  150.3280 C   0  0  1  0  0  3  0  0  0  0  0  0
  162.9870  205.3970  146.5040 C   0  0  2  0  0  3  0  0  0  0  0  0
  161.4800  208.9500  149.6660 C   0  0  0  0  0  0  0  0  0  0  0  0
  161.4850  205.4530  144.1340 S   0  0  0  0  0  0  0  0  0  0  0  0
  161.0600  205.5480  151.4220 C   0  0  0  0  0  0  0  0  0  0  0  0
  160.2240  208.8190  152.7230 O   0  0  0  0  0  0  0  0  0  0  0  0
  160.8190  207.0350  151.2320 C   0  0  1  0  0  3  0  0  0  0  0  0
  161.9820  205.9410  153.6090 C   0  0  0  0  0  3  0  0  0  0  0  0
  161.6440  205.1000  152.4980 N   0  0  0  0  0  0  0  0  0  0  0  0
  160.8310  207.7270  152.5700 C   0  0  0  0  0  0  0  0  0  0  0  0
  161.5820  207.1730  153.6520 N   0  0  0  0  0  0  0  0  0  0  0  0
  160.6640  204.5850  150.3830 C   0  0  0  0  0  0  0  0  0  0  0  0
  159.7060  204.8450  149.6070 O   0  0  0  0  0  0  0  0  0  0  0  0
  161.3460  203.3620  150.2840 O   0  0  0  0  0  0  0  0  0  0  0  0
  160.7930  202.1700  149.7230 C   0  0  0  0  0  3  0  0  0  0  0  0
  161.2060  200.9410  150.5120 C   0  0  0  0  0  1  0  0  0  0  0  0
  161.1680  202.0220  148.2600 C   0  0  0  0  0  1  0  0  0  0  0  0
  4  7  1  0  0  0  0
  4  9  1  1  0  0  0
  5  2  1  0  0  0  0
  7  2  1  6  0  0  0
  7  6  1  0  0  0  0
  8 15  1  0  0  0  0
  8 11  1  0  0  0  0
  9 12  1  0  0  0  0
 10  3  1  6  0  0  0
 10 14  1  0  0  0  0
 12  6  1  6  0  0  0
 12 15  1  0  0  0  0
 12 13  1  0  0  0  0
 13 15  1  1  0  0  0
 13 19  1  0  0  0  0
 14  4  1  0  0  0  0
 14  1  1  1  0  0  0
 15 11  1  0  0  0  0
 16  5  1  0  0  0  0
 16 10  1  0  0  0  0
 17 21  2  0  0  0  0
 19 17  1  1  0  0  0
 19 22  1  0  0  0  0
 20 23  2  0  0  0  0
 21 20  1  0  0  0  0
 22 18  2  0  0  0  0
 22 23  1  0  0  0  0
 24 17  1  0  0  0  0
 25 24  2  0  0  0  0
 26 24  1  0  0  0  0
 27 26  1  0  0  0  0
 27 28  1  0  0  0  0
 29 27  1  0  0  0  0
M  END
>  <MODEL>
8

>  <REMARK>
 VINA RESULT:      -1.1      4.889      7.088
  Name = 
  4 active torsions:
  status: ('A' for Active; 'I' for Inactive)
    1  A    between atoms: C_2  and  C_3
    2  A    between atoms: C_2  and  O_10
    3  A    between atoms: C_4  and  O_10
    4  A    between atoms: C_11  and  C_24
                            x       y       z     vdW  Elec       q    Type
                         _______ _______ _______ _____ _____    ______ ____

>  <TORSDO>
F 4

$$$$
