=
 OpenBabel11072413493D

 29 31  0  0  1  0  0  0  0  0999 V2000
  162.0990  207.4370  149.1840 C   0  0  0  0  0  0  0  0  0  0  0  0
  162.2220  207.6420  150.4960 C   0  0  0  0  0  3  0  0  0  0  0  0
  161.5360  206.1430  148.6340 C   0  0  1  0  0  3  0  0  0  0  0  0
  162.5680  208.4920  148.2440 C   0  0  0  0  0  1  0  0  0  0  0  0
  161.8060  206.6360  151.4820 C   0  0  0  0  0  0  0  0  0  0  0  0
  161.1890  205.1580  149.6740 N   0  0  0  0  0  0  0  0  0  0  0  0
  161.3170  205.4640  151.0730 C   0  0  0  0  0  3  0  0  0  0  0  0
  161.7410  206.1480  145.6730 C   0  0  0  0  0  1  0  0  0  0  0  0
  160.4800  206.3850  146.4430 C   0  0  0  0  0  3  0  0  0  0  0  0
  160.4170  206.3790  147.7340 N   0  0  0  0  0  0  0  0  0  0  0  0
  160.7280  203.8380  149.2460 C   0  0  2  0  0  3  0  0  0  0  0  0
  160.6160  202.8730  150.4240 C   0  0  0  0  0  2  0  0  0  0  0  0
  160.3090  201.4990  149.9420 C   0  0  0  0  0  0  0  0  0  0  0  0
  159.0950  201.2370  149.3190 O   0  0  0  0  0  0  0  0  0  0  0  0
  161.1410  200.5710  150.1170 O   0  0  0  0  0  1  0  0  0  0  0  0
  161.5610  203.2780  148.0880 C   0  0  0  0  0  2  0  0  0  0  0  0
  161.6710  202.7790  145.6850 N   0  0  0  0  0  2  0  0  0  0  0  0
  160.7960  201.7610  146.2770 C   0  0  0  0  0  0  0  0  0  0  0  0
  159.7930  201.3590  145.3960 O   0  0  0  0  0  1  0  0  0  0  0  0
  160.7580  203.1240  146.7980 C   0  0  1  0  0  3  0  0  0  0  0  0
  161.5200  200.7620  146.9300 O   0  0  0  0  0  1  0  0  0  0  0  0
  161.9330  206.9360  152.8760 N   0  0  0  0  0  2  0  0  0  0  0  0
  161.0790  208.9750  153.8980 C   0  0  2  0  0  3  0  0  0  0  0  0
  159.6820  207.3740  155.8460 C   0  0  0  0  0  2  0  0  0  0  0  0
  160.2720  209.5220  154.9770 N   0  0  0  0  0  0  0  0  0  0  0  0
  160.8030  209.7000  152.6710 N   0  0  0  0  0  1  0  0  0  0  0  0
  160.8370  206.7980  155.0430 C   0  0  0  0  0  2  0  0  0  0  0  0
  159.7060  208.8250  155.8560 N   0  0  0  0  0  0  0  0  0  0  0  0
  160.8520  207.4820  153.6880 C   0  0  2  0  0  3  0  0  0  0  0  0
  1  2  2  0  0  0  0
  2  5  1  0  0  0  0
  3 10  1  1  0  0  0
  3  1  1  0  0  0  0
  3  6  1  0  0  0  0
  4  1  1  0  0  0  0
  5 22  1  0  0  0  0
  6  7  1  0  0  0  0
  7  5  2  0  0  0  0
  8  9  1  0  0  0  0
  9 10  2  0  0  0  0
 11 16  1  6  0  0  0
 11  6  1  0  0  0  0
 11 12  1  0  0  0  0
 13 15  1  0  0  0  0
 13 12  1  0  0  0  0
 14 13  2  0  0  0  0
 17 18  1  0  0  0  0
 17 20  1  0  0  0  0
 18 20  1  0  0  0  0
 18 21  1  0  0  0  0
 19 18  1  0  0  0  0
 20 16  1  1  0  0  0
 23 26  1  6  0  0  0
 23 25  1  0  0  0  0
 24 28  1  0  0  0  0
 25 28  2  0  0  0  0
 27 24  1  0  0  0  0
 29 22  1  6  0  0  0
 29 23  1  0  0  0  0
 29 27  1  0  0  0  0
M  END
>  <MODEL>
1

>  <REMARK>
 VINA RESULT:      -7.1      0.000      0.000
  Name = 
  8 active torsions:
  status: ('A' for Active; 'I' for Inactive)
    1  A    between atoms: C_4  and  N_20
    2  A    between atoms: C_15  and  N_25
    3  A    between atoms: C_16  and  C_17
    4  A    between atoms: C_17  and  C_21
    5  A    between atoms: C_21  and  N_24
    6  A    between atoms: C_21  and  C_27
    7  A    between atoms: C_23  and  C_27
    8  A    between atoms: N_25  and  C_28
                            x       y       z     vdW  Elec       q    Type
                         _______ _______ _______ _____ _____    ______ ____

>  <TORSDO>
F 8

$$$$
=
 OpenBabel11072413493D

 29 31  0  0  1  0  0  0  0  0999 V2000
  161.6430  209.2830  151.7420 C   0  0  0  0  0  0  0  0  0  0  0  0
  161.9430  210.0570  150.6980 C   0  0  0  0  0  3  0  0  0  0  0  0
  161.2590  207.8290  151.5650 C   0  0  1  0  0  3  0  0  0  0  0  0
  161.6470  209.8810  153.1050 C   0  0  0  0  0  1  0  0  0  0  0  0
  161.9330  209.5440  149.3210 C   0  0  0  0  0  0  0  0  0  0  0  0
  161.2170  207.3940  150.1570 N   0  0  0  0  0  0  0  0  0  0  0  0
  161.5870  208.2780  149.0850 C   0  0  0  0  0  3  0  0  0  0  0  0
  160.5130  206.8020  154.2480 C   0  0  0  0  0  1  0  0  0  0  0  0
  161.7910  206.4850  153.5350 C   0  0  0  0  0  3  0  0  0  0  0  0
  162.0930  206.9470  152.3670 N   0  0  0  0  0  0  0  0  0  0  0  0
  160.7630  206.0340  149.8700 C   0  0  2  0  0  3  0  0  0  0  0  0
  161.7190  204.9890  150.4390 C   0  0  0  0  0  2  0  0  0  0  0  0
  160.9710  203.7740  150.8580 C   0  0  0  0  0  0  0  0  0  0  0  0
  160.6230  203.5970  152.1910 O   0  0  0  0  0  1  0  0  0  0  0  0
  160.6700  202.8970  150.0060 O   0  0  0  0  0  0  0  0  0  0  0  0
  160.4600  205.8250  148.3820 C   0  0  0  0  0  2  0  0  0  0  0  0
  161.2660  204.2300  146.6970 N   0  0  0  0  0  2  0  0  0  0  0  0
  161.5310  205.5670  146.1560 C   0  0  0  0  0  0  0  0  0  0  0  0
  162.6840  205.5950  145.3720 O   0  0  0  0  0  1  0  0  0  0  0  0
  161.6710  205.3370  147.5910 C   0  0  1  0  0  3  0  0  0  0  0  0
  160.3800  206.1600  145.6330 O   0  0  0  0  0  1  0  0  0  0  0  0
  162.3000  210.4210  148.2510 N   0  0  0  0  0  2  0  0  0  0  0  0
  161.2050  212.2040  147.0040 C   0  0  2  0  0  3  0  0  0  0  0  0
  162.9890  214.1090  148.2270 C   0  0  0  0  0  2  0  0  0  0  0  0
  161.1920  213.6300  146.7240 N   0  0  0  0  0  0  0  0  0  0  0  0
  159.8420  211.7250  147.1480 N   0  0  0  0  0  1  0  0  0  0  0  0
  163.3230  212.6270  148.2040 C   0  0  0  0  0  2  0  0  0  0  0  0
  162.0040  214.4520  147.2170 N   0  0  0  0  0  0  0  0  0  0  0  0
  162.0190  211.8510  148.2440 C   0  0  2  0  0  3  0  0  0  0  0  0
  1  4  1  0  0  0  0
  2  1  2  0  0  0  0
  3  1  1  0  0  0  0
  3 10  1  1  0  0  0
  5  2  1  0  0  0  0
  6  3  1  0  0  0  0
  7  5  2  0  0  0  0
  7  6  1  0  0  0  0
  9  8  1  0  0  0  0
 10  9  2  0  0  0  0
 11 16  1  6  0  0  0
 11  6  1  0  0  0  0
 11 12  1  0  0  0  0
 12 13  1  0  0  0  0
 13 14  1  0  0  0  0
 15 13  2  0  0  0  0
 17 20  1  0  0  0  0
 18 17  1  0  0  0  0
 18 20  1  0  0  0  0
 19 18  1  0  0  0  0
 20 16  1  1  0  0  0
 21 18  1  0  0  0  0
 22  5  1  0  0  0  0
 23 26  1  1  0  0  0
 23 29  1  0  0  0  0
 25 23  1  0  0  0  0
 25 28  2  0  0  0  0
 27 24  1  0  0  0  0
 27 29  1  0  0  0  0
 28 24  1  0  0  0  0
 29 22  1  6  0  0  0
M  END
>  <MODEL>
2

>  <REMARK>
 VINA RESULT:      -6.7      3.415      5.701
  Name = 
  8 active torsions:
  status: ('A' for Active; 'I' for Inactive)
    1  A    between atoms: C_4  and  N_20
    2  A    between atoms: C_15  and  N_25
    3  A    between atoms: C_16  and  C_17
    4  A    between atoms: C_17  and  C_21
    5  A    between atoms: C_21  and  N_24
    6  A    between atoms: C_21  and  C_27
    7  A    between atoms: C_23  and  C_27
    8  A    between atoms: N_25  and  C_28
                            x       y       z     vdW  Elec       q    Type
                         _______ _______ _______ _____ _____    ______ ____

>  <TORSDO>
F 8

$$$$
=
 OpenBabel11072413493D

 29 31  0  0  1  0  0  0  0  0999 V2000
  162.0520  207.4490  149.2020 C   0  0  0  0  0  0  0  0  0  0  0  0
  162.0520  207.6920  150.5130 C   0  0  0  0  0  3  0  0  0  0  0  0
  161.5370  206.1410  148.6390 C   0  0  1  0  0  3  0  0  0  0  0  0
  162.6110  208.4760  148.2800 C   0  0  0  0  0  1  0  0  0  0  0  0
  161.5420  206.7150  151.4850 C   0  0  0  0  0  0  0  0  0  0  0  0
  161.0910  205.1870  149.6700 N   0  0  0  0  0  0  0  0  0  0  0  0
  161.0890  205.5330  151.0660 C   0  0  0  0  0  3  0  0  0  0  0  0
  162.0280  206.1130  145.7120 C   0  0  0  0  0  1  0  0  0  0  0  0
  160.6950  206.3430  146.3540 C   0  0  0  0  0  3  0  0  0  0  0  0
  160.5080  206.3520  147.6320 N   0  0  0  0  0  0  0  0  0  0  0  0
  160.6660  203.8560  149.2390 C   0  0  2  0  0  3  0  0  0  0  0  0
  160.5640  202.8890  150.4170 C   0  0  0  0  0  2  0  0  0  0  0  0
  160.2930  201.5090  149.9340 C   0  0  0  0  0  0  0  0  0  0  0  0
  159.0830  201.2140  149.3170 O   0  0  0  0  0  0  0  0  0  0  0  0
  161.1510  200.6040  150.1020 O   0  0  0  0  0  1  0  0  0  0  0  0
  161.5250  203.3150  148.0900 C   0  0  0  0  0  2  0  0  0  0  0  0
  161.6690  202.8000  145.6930 N   0  0  0  0  0  2  0  0  0  0  0  0
  160.8100  201.7680  146.2840 C   0  0  0  0  0  0  0  0  0  0  0  0
  159.8250  201.3370  145.3970 O   0  0  0  0  0  1  0  0  0  0  0  0
  160.7380  203.1340  146.7940 C   0  0  1  0  0  3  0  0  0  0  0  0
  161.5490  200.7890  146.9520 O   0  0  0  0  0  1  0  0  0  0  0  0
  161.5400  207.0550  152.8750 N   0  0  0  0  0  2  0  0  0  0  0  0
  160.6350  208.3380  154.7380 C   0  0  2  0  0  3  0  0  0  0  0  0
  160.2420  210.5750  152.9620 C   0  0  0  0  0  2  0  0  0  0  0  0
  160.0550  209.6090  155.1420 N   0  0  0  0  0  0  0  0  0  0  0  0
  161.5750  207.8910  155.7500 N   0  0  0  0  0  1  0  0  0  0  0  0
  160.4230  209.1670  152.4190 C   0  0  0  0  0  2  0  0  0  0  0  0
  159.8360  210.5650  154.3560 N   0  0  0  0  0  0  0  0  0  0  0  0
  161.3210  208.4060  153.3780 C   0  0  2  0  0  3  0  0  0  0  0  0
  1  2  2  0  0  0  0
  2  5  1  0  0  0  0
  3 10  1  6  0  0  0
  3  1  1  0  0  0  0
  3  6  1  0  0  0  0
  4  1  1  0  0  0  0
  5 22  1  0  0  0  0
  6  7  1  0  0  0  0
  7  5  2  0  0  0  0
  8  9  1  0  0  0  0
  9 10  2  0  0  0  0
 11 16  1  6  0  0  0
 11  6  1  0  0  0  0
 11 12  1  0  0  0  0
 13 15  1  0  0  0  0
 13 12  1  0  0  0  0
 14 13  2  0  0  0  0
 17 18  1  0  0  0  0
 17 20  1  0  0  0  0
 18 20  1  0  0  0  0
 18 21  1  0  0  0  0
 19 18  1  0  0  0  0
 20 16  1  1  0  0  0
 23 25  1  0  0  0  0
 23 26  1  1  0  0  0
 24 28  1  0  0  0  0
 27 24  1  0  0  0  0
 27 29  1  0  0  0  0
 28 25  2  0  0  0  0
 29 22  1  6  0  0  0
 29 23  1  0  0  0  0
M  END
>  <MODEL>
3

>  <REMARK>
 VINA RESULT:      -6.6      0.729      1.355
  Name = 
  8 active torsions:
  status: ('A' for Active; 'I' for Inactive)
    1  A    between atoms: C_4  and  N_20
    2  A    between atoms: C_15  and  N_25
    3  A    between atoms: C_16  and  C_17
    4  A    between atoms: C_17  and  C_21
    5  A    between atoms: C_21  and  N_24
    6  A    between atoms: C_21  and  C_27
    7  A    between atoms: C_23  and  C_27
    8  A    between atoms: N_25  and  C_28
                            x       y       z     vdW  Elec       q    Type
                         _______ _______ _______ _____ _____    ______ ____

>  <TORSDO>
F 8

$$$$
=
 OpenBabel11072413493D

 29 31  0  0  1  0  0  0  0  0999 V2000
  161.8020  209.2490  151.2860 C   0  0  0  0  0  0  0  0  0  0  0  0
  161.9800  210.3180  150.5080 C   0  0  0  0  0  3  0  0  0  0  0  0
  161.7040  207.8540  150.7050 C   0  0  1  0  0  3  0  0  0  0  0  0
  161.6550  209.4450  152.7550 C   0  0  0  0  0  1  0  0  0  0  0  0
  162.1050  210.2040  149.0490 C   0  0  0  0  0  0  0  0  0  0  0  0
  161.7850  207.8170  149.2340 N   0  0  0  0  0  0  0  0  0  0  0  0
  162.0110  209.0100  148.4630 C   0  0  0  0  0  3  0  0  0  0  0  0
  161.1170  206.0890  153.0170 C   0  0  0  0  0  1  0  0  0  0  0  0
  162.4370  206.1670  152.3150 C   0  0  0  0  0  3  0  0  0  0  0  0
  162.6680  206.9460  151.3100 N   0  0  0  0  0  0  0  0  0  0  0  0
  161.6030  206.5290  148.5650 C   0  0  2  0  0  3  0  0  0  0  0  0
  161.1430  206.7060  147.1200 C   0  0  0  0  0  2  0  0  0  0  0  0
  161.9820  205.8870  146.2040 C   0  0  0  0  0  0  0  0  0  0  0  0
  163.0300  205.1300  146.7130 O   0  0  0  0  0  1  0  0  0  0  0  0
  161.7530  205.8950  144.9670 O   0  0  0  0  0  0  0  0  0  0  0  0
  160.7100  205.5780  149.3690 C   0  0  0  0  0  2  0  0  0  0  0  0
  161.8110  203.3970  149.6170 N   0  0  0  0  0  2  0  0  0  0  0  0
  160.3880  203.1720  149.8930 C   0  0  0  0  0  0  0  0  0  0  0  0
  159.9720  201.9040  149.4880 O   0  0  0  0  0  1  0  0  0  0  0  0
  160.7730  204.1370  148.8670 C   0  0  1  0  0  3  0  0  0  0  0  0
  160.0290  203.5910  151.1750 O   0  0  0  0  0  1  0  0  0  0  0  0
  162.3300  211.3890  148.2770 N   0  0  0  0  0  2  0  0  0  0  0  0
  161.8570  213.3920  146.9730 C   0  0  2  0  0  3  0  0  0  0  0  0
  159.1800  213.4150  148.0430 C   0  0  0  0  0  2  0  0  0  0  0  0
  160.8590  214.4000  146.6540 N   0  0  0  0  0  0  0  0  0  0  0  0
  162.5520  212.9970  145.7610 N   0  0  0  0  0  1  0  0  0  0  0  0
  160.2900  212.6340  148.7270 C   0  0  0  0  0  2  0  0  0  0  0  0
  159.7100  214.4390  147.1600 N   0  0  0  0  0  0  0  0  0  0  0  0
  161.2620  212.1670  147.6600 C   0  0  2  0  0  3  0  0  0  0  0  0
  1  4  1  0  0  0  0
  2  1  2  0  0  0  0
  3  1  1  0  0  0  0
  3 10  1  1  0  0  0
  5  2  1  0  0  0  0
  6  3  1  0  0  0  0
  7  5  2  0  0  0  0
  7  6  1  0  0  0  0
  9  8  1  0  0  0  0
 10  9  2  0  0  0  0
 11 12  1  6  0  0  0
 11  6  1  0  0  0  0
 11 16  1  0  0  0  0
 13 14  1  0  0  0  0
 13 12  1  0  0  0  0
 15 13  2  0  0  0  0
 17 18  1  0  0  0  0
 18 21  1  0  0  0  0
 19 18  1  0  0  0  0
 20 16  1  1  0  0  0
 20 17  1  0  0  0  0
 20 18  1  0  0  0  0
 22  5  1  0  0  0  0
 23 26  1  6  0  0  0
 23 29  1  0  0  0  0
 24 27  1  0  0  0  0
 25 23  1  0  0  0  0
 25 28  2  0  0  0  0
 28 24  1  0  0  0  0
 29 22  1  1  0  0  0
 29 27  1  0  0  0  0
M  END
>  <MODEL>
4

>  <REMARK>
 VINA RESULT:      -6.6      3.637      6.033
  Name = 
  8 active torsions:
  status: ('A' for Active; 'I' for Inactive)
    1  A    between atoms: C_4  and  N_20
    2  A    between atoms: C_15  and  N_25
    3  A    between atoms: C_16  and  C_17
    4  A    between atoms: C_17  and  C_21
    5  A    between atoms: C_21  and  N_24
    6  A    between atoms: C_21  and  C_27
    7  A    between atoms: C_23  and  C_27
    8  A    between atoms: N_25  and  C_28
                            x       y       z     vdW  Elec       q    Type
                         _______ _______ _______ _____ _____    ______ ____

>  <TORSDO>
F 8

$$$$
=
 OpenBabel11072413493D

 29 31  0  0  1  0  0  0  0  0999 V2000
  161.4990  207.5890  149.4730 C   0  0  0  0  0  0  0  0  0  0  0  0
  161.3940  206.2720  149.2920 C   0  0  0  0  0  3  0  0  0  0  0  0
  161.4930  208.2020  150.8570 C   0  0  1  0  0  3  0  0  0  0  0  0
  161.5810  208.4740  148.2780 C   0  0  0  0  0  1  0  0  0  0  0  0
  161.2800  205.3400  150.4220 C   0  0  0  0  0  0  0  0  0  0  0  0
  161.3230  207.2180  151.9410 N   0  0  0  0  0  0  0  0  0  0  0  0
  161.2500  205.8070  151.6710 C   0  0  0  0  0  3  0  0  0  0  0  0
  161.5410  211.1430  150.4630 C   0  0  0  0  0  1  0  0  0  0  0  0
  162.7060  210.3230  150.9210 C   0  0  0  0  0  3  0  0  0  0  0  0
  162.6600  209.0420  151.0830 N   0  0  0  0  0  0  0  0  0  0  0  0
  161.2060  207.7140  153.3110 C   0  0  2  0  0  3  0  0  0  0  0  0
  160.7920  206.6070  154.2770 C   0  0  0  0  0  2  0  0  0  0  0  0
  160.5430  207.1660  155.6330 C   0  0  0  0  0  0  0  0  0  0  0  0
  161.5860  207.7340  156.3530 O   0  0  0  0  0  1  0  0  0  0  0  0
  159.3890  207.1080  156.1340 O   0  0  0  0  0  0  0  0  0  0  0  0
  160.3150  208.9580  153.4050 C   0  0  0  0  0  2  0  0  0  0  0  0
  160.2760  211.3920  153.7290 N   0  0  0  0  0  2  0  0  0  0  0  0
  160.2240  210.7980  155.0690 C   0  0  0  0  0  0  0  0  0  0  0  0
  160.8740  211.5890  156.0160 O   0  0  0  0  0  1  0  0  0  0  0  0
  161.0260  210.1530  154.0340 C   0  0  1  0  0  3  0  0  0  0  0  0
  158.9480  210.3280  155.3870 O   0  0  0  0  0  1  0  0  0  0  0  0
  161.2060  203.9350  150.1590 N   0  0  0  0  0  2  0  0  0  0  0  0
  160.8680  201.8510  148.9430 C   0  0  2  0  0  3  0  0  0  0  0  0
  161.2330  203.2770  146.4650 C   0  0  0  0  0  2  0  0  0  0  0  0
  160.8270  201.2290  147.6290 N   0  0  0  0  0  0  0  0  0  0  0  0
  159.7880  201.3280  149.7610 N   0  0  0  0  0  1  0  0  0  0  0  0
  161.7170  203.8610  147.7820 C   0  0  0  0  0  2  0  0  0  0  0  0
  161.0380  201.8410  146.5530 N   0  0  0  0  0  0  0  0  0  0  0  0
  160.7890  203.3730  148.8800 C   0  0  2  0  0  3  0  0  0  0  0  0
  1  3  1  0  0  0  0
  2  1  2  0  0  0  0
  2  5  1  0  0  0  0
  3 10  1  1  0  0  0
  3  6  1  0  0  0  0
  4  1  1  0  0  0  0
  5  7  2  0  0  0  0
  6 11  1  0  0  0  0
  7  6  1  0  0  0  0
  8  9  1  0  0  0  0
  9 10  2  0  0  0  0
 11 16  1  6  0  0  0
 11 12  1  0  0  0  0
 12 13  1  0  0  0  0
 13 15  2  0  0  0  0
 13 14  1  0  0  0  0
 17 20  1  0  0  0  0
 17 18  1  0  0  0  0
 18 21  1  0  0  0  0
 18 19  1  0  0  0  0
 20 16  1  6  0  0  0
 20 18  1  0  0  0  0
 22  5  1  0  0  0  0
 23 26  1  1  0  0  0
 24 28  1  0  0  0  0
 24 27  1  0  0  0  0
 25 23  1  0  0  0  0
 27 29  1  0  0  0  0
 28 25  2  0  0  0  0
 29 23  1  0  0  0  0
 29 22  1  1  0  0  0
M  END
>  <MODEL>
5

>  <REMARK>
 VINA RESULT:      -6.4      4.240      8.175
  Name = 
  8 active torsions:
  status: ('A' for Active; 'I' for Inactive)
    1  A    between atoms: C_4  and  N_20
    2  A    between atoms: C_15  and  N_25
    3  A    between atoms: C_16  and  C_17
    4  A    between atoms: C_17  and  C_21
    5  A    between atoms: C_21  and  N_24
    6  A    between atoms: C_21  and  C_27
    7  A    between atoms: C_23  and  C_27
    8  A    between atoms: N_25  and  C_28
                            x       y       z     vdW  Elec       q    Type
                         _______ _______ _______ _____ _____    ______ ____

>  <TORSDO>
F 8

$$$$
=
 OpenBabel11072413493D

 29 31  0  0  1  0  0  0  0  0999 V2000
  161.3310  206.8960  152.2670 C   0  0  0  0  0  0  0  0  0  0  0  0
  161.5780  208.1850  152.0320 C   0  0  0  0  0  3  0  0  0  0  0  0
  161.2640  205.8840  151.1430 C   0  0  1  0  0  3  0  0  0  0  0  0
  161.0770  206.4570  153.6670 C   0  0  0  0  0  1  0  0  0  0  0  0
  161.8110  208.6960  150.6740 C   0  0  0  0  0  0  0  0  0  0  0  0
  161.4540  206.4710  149.8040 N   0  0  0  0  0  0  0  0  0  0  0  0
  161.7500  207.8680  149.6310 C   0  0  0  0  0  3  0  0  0  0  0  0
  160.4590  203.2850  152.3290 C   0  0  0  0  0  1  0  0  0  0  0  0
  161.8440  203.6260  151.8770 C   0  0  0  0  0  3  0  0  0  0  0  0
  162.1700  204.7670  151.3640 N   0  0  0  0  0  0  0  0  0  0  0  0
  161.3100  205.5960  148.6420 C   0  0  2  0  0  3  0  0  0  0  0  0
  160.4560  206.2430  147.5540 C   0  0  0  0  0  2  0  0  0  0  0  0
  161.1030  206.0850  146.2230 C   0  0  0  0  0  0  0  0  0  0  0  0
  162.4660  205.8280  146.1390 O   0  0  0  0  0  1  0  0  0  0  0  0
  160.4180  206.2030  145.1740 O   0  0  0  0  0  0  0  0  0  0  0  0
  160.8320  204.1920  149.0260 C   0  0  0  0  0  2  0  0  0  0  0  0
  161.9060  201.9830  149.0070 N   0  0  0  0  0  2  0  0  0  0  0  0
  160.6810  201.8510  148.2110 C   0  0  0  0  0  0  0  0  0  0  0  0
  160.8290  200.9330  147.1720 O   0  0  0  0  0  1  0  0  0  0  0  0
  161.4390  203.0970  148.1520 C   0  0  1  0  0  3  0  0  0  0  0  0
  159.5430  201.7400  149.0130 O   0  0  0  0  0  1  0  0  0  0  0  0
  162.1050  210.0860  150.4960 N   0  0  0  0  0  2  0  0  0  0  0  0
  161.5890  212.1670  149.3400 C   0  0  2  0  0  3  0  0  0  0  0  0
  159.7140  212.8230  151.4290 C   0  0  0  0  0  2  0  0  0  0  0  0
  160.8100  213.3940  149.3820 N   0  0  0  0  0  0  0  0  0  0  0  0
  161.5860  211.6370  147.9880 N   0  0  0  0  0  1  0  0  0  0  0  0
  160.8000  211.7830  151.6500 C   0  0  0  0  0  2  0  0  0  0  0  0
  160.0320  213.7030  150.3190 N   0  0  0  0  0  0  0  0  0  0  0  0
  161.0850  211.1120  150.3190 C   0  0  2  0  0  3  0  0  0  0  0  0
  1  4  1  0  0  0  0
  2  1  2  0  0  0  0
  3 10  1  1  0  0  0
  3  1  1  0  0  0  0
  5  2  1  0  0  0  0
  6  3  1  0  0  0  0
  7  6  1  0  0  0  0
  7  5  2  0  0  0  0
  9  8  1  0  0  0  0
 10  9  2  0  0  0  0
 11 12  1  6  0  0  0
 11 16  1  0  0  0  0
 11  6  1  0  0  0  0
 13 12  1  0  0  0  0
 14 13  1  0  0  0  0
 15 13  2  0  0  0  0
 18 17  1  0  0  0  0
 18 21  1  0  0  0  0
 19 18  1  0  0  0  0
 20 18  1  0  0  0  0
 20 17  1  0  0  0  0
 20 16  1  1  0  0  0
 22  5  1  0  0  0  0
 23 26  1  6  0  0  0
 23 25  1  0  0  0  0
 23 29  1  0  0  0  0
 24 27  1  0  0  0  0
 25 28  2  0  0  0  0
 28 24  1  0  0  0  0
 29 22  1  1  0  0  0
 29 27  1  0  0  0  0
M  END
>  <MODEL>
6

>  <REMARK>
 VINA RESULT:      -6.4      2.836      4.766
  Name = 
  8 active torsions:
  status: ('A' for Active; 'I' for Inactive)
    1  A    between atoms: C_4  and  N_20
    2  A    between atoms: C_15  and  N_25
    3  A    between atoms: C_16  and  C_17
    4  A    between atoms: C_17  and  C_21
    5  A    between atoms: C_21  and  N_24
    6  A    between atoms: C_21  and  C_27
    7  A    between atoms: C_23  and  C_27
    8  A    between atoms: N_25  and  C_28
                            x       y       z     vdW  Elec       q    Type
                         _______ _______ _______ _____ _____    ______ ____

>  <TORSDO>
F 8

$$$$
=
 OpenBabel11072413493D

 29 31  0  0  1  0  0  0  0  0999 V2000
  162.0110  208.1410  148.5780 C   0  0  0  0  0  0  0  0  0  0  0  0
  162.3630  207.5550  147.4320 C   0  0  0  0  0  3  0  0  0  0  0  0
  161.5100  207.3350  149.7580 C   0  0  1  0  0  3  0  0  0  0  0  0
  162.0740  209.6250  148.6760 C   0  0  0  0  0  1  0  0  0  0  0  0
  162.3000  206.0980  147.2530 C   0  0  0  0  0  0  0  0  0  0  0  0
  161.4220  205.8880  149.4940 N   0  0  0  0  0  0  0  0  0  0  0  0
  161.8520  205.3240  148.2420 C   0  0  0  0  0  3  0  0  0  0  0  0
  160.5770  209.0620  151.9840 C   0  0  0  0  0  1  0  0  0  0  0  0
  161.8950  208.3520  151.9470 C   0  0  0  0  0  3  0  0  0  0  0  0
  162.2790  207.6060  150.9640 N   0  0  0  0  0  0  0  0  0  0  0  0
  160.8580  205.0300  150.5350 C   0  0  2  0  0  3  0  0  0  0  0  0
  161.8730  204.7450  151.6390 C   0  0  0  0  0  2  0  0  0  0  0  0
  161.1980  204.6930  152.9640 C   0  0  0  0  0  0  0  0  0  0  0  0
  161.4190  205.7000  153.8960 O   0  0  0  0  0  1  0  0  0  0  0  0
  160.4430  203.7270  153.2470 O   0  0  0  0  0  0  0  0  0  0  0  0
  160.2220  203.7600  149.9600 C   0  0  0  0  0  2  0  0  0  0  0  0
  160.7440  201.4740  150.6930 N   0  0  0  0  0  2  0  0  0  0  0  0
  160.6110  201.4170  149.2330 C   0  0  0  0  0  0  0  0  0  0  0  0
  161.4570  200.4640  148.6680 O   0  0  0  0  0  1  0  0  0  0  0  0
  161.2070  202.5990  149.8500 C   0  0  1  0  0  3  0  0  0  0  0  0
  159.2750  201.4160  148.8270 O   0  0  0  0  0  1  0  0  0  0  0  0
  162.7270  205.5320  146.0090 N   0  0  0  0  0  2  0  0  0  0  0  0
  160.8170  204.9690  144.6060 C   0  0  2  0  0  3  0  0  0  0  0  0
  160.8930  202.2800  145.6400 C   0  0  0  0  0  2  0  0  0  0  0  0
  159.8820  203.9220  144.2260 N   0  0  0  0  0  0  0  0  0  0  0  0
  161.2290  205.7030  143.4220 N   0  0  0  0  0  1  0  0  0  0  0  0
  161.5770  203.4200  146.3750 C   0  0  0  0  0  2  0  0  0  0  0  0
  159.8840  202.7650  144.7160 N   0  0  0  0  0  0  0  0  0  0  0  0
  162.0390  204.4330  145.3430 C   0  0  2  0  0  3  0  0  0  0  0  0
  1  4  1  0  0  0  0
  1  3  1  0  0  0  0
  2  1  2  0  0  0  0
  3 10  1  1  0  0  0
  5  2  1  0  0  0  0
  5  7  2  0  0  0  0
  6  3  1  0  0  0  0
  6 11  1  0  0  0  0
  7  6  1  0  0  0  0
  9  8  1  0  0  0  0
 10  9  2  0  0  0  0
 11 16  1  6  0  0  0
 11 12  1  0  0  0  0
 12 13  1  0  0  0  0
 13 15  2  0  0  0  0
 13 14  1  0  0  0  0
 18 20  1  0  0  0  0
 18 17  1  0  0  0  0
 19 18  1  0  0  0  0
 20 16  1  1  0  0  0
 20 17  1  0  0  0  0
 21 18  1  0  0  0  0
 22  5  1  0  0  0  0
 23 26  1  6  0  0  0
 23 29  1  0  0  0  0
 24 27  1  0  0  0  0
 25 23  1  0  0  0  0
 25 28  2  0  0  0  0
 28 24  1  0  0  0  0
 29 22  1  1  0  0  0
 29 27  1  0  0  0  0
M  END
>  <MODEL>
7

>  <REMARK>
 VINA RESULT:      -6.4      2.293      6.367
  Name = 
  8 active torsions:
  status: ('A' for Active; 'I' for Inactive)
    1  A    between atoms: C_4  and  N_20
    2  A    between atoms: C_15  and  N_25
    3  A    between atoms: C_16  and  C_17
    4  A    between atoms: C_17  and  C_21
    5  A    between atoms: C_21  and  N_24
    6  A    between atoms: C_21  and  C_27
    7  A    between atoms: C_23  and  C_27
    8  A    between atoms: N_25  and  C_28
                            x       y       z     vdW  Elec       q    Type
                         _______ _______ _______ _____ _____    ______ ____

>  <TORSDO>
F 8

$$$$
=
 OpenBabel11072413493D

 29 31  0  0  1  0  0  0  0  0999 V2000
  160.8430  203.6370  151.6020 C   0  0  0  0  0  0  0  0  0  0  0  0
  161.0870  204.5470  152.5450 C   0  0  0  0  0  3  0  0  0  0  0  0
  160.9840  203.9630  150.1300 C   0  0  1  0  0  3  0  0  0  0  0  0
  160.3810  202.2820  152.0120 C   0  0  0  0  0  1  0  0  0  0  0  0
  161.5200  205.9120  152.2150 C   0  0  0  0  0  0  0  0  0  0  0  0
  161.3690  205.3620  149.8680 N   0  0  0  0  0  0  0  0  0  0  0  0
  161.6490  206.2790  150.9390 C   0  0  0  0  0  3  0  0  0  0  0  0
  160.0820  201.5300  148.6900 C   0  0  0  0  0  1  0  0  0  0  0  0
  161.5070  201.9690  148.8170 C   0  0  0  0  0  3  0  0  0  0  0  0
  161.8750  203.0330  149.4510 N   0  0  0  0  0  0  0  0  0  0  0  0
  161.4370  205.8080  148.4770 C   0  0  2  0  0  3  0  0  0  0  0  0
  160.8590  207.2110  148.3070 C   0  0  0  0  0  2  0  0  0  0  0  0
  161.9360  208.2320  148.4060 C   0  0  0  0  0  0  0  0  0  0  0  0
  161.6120  209.5640  148.6360 O   0  0  0  0  0  1  0  0  0  0  0  0
  163.1390  207.8920  148.2610 O   0  0  0  0  0  0  0  0  0  0  0  0
  160.8310  204.7870  147.5080 C   0  0  0  0  0  2  0  0  0  0  0  0
  160.8950  203.7800  145.2680 N   0  0  0  0  0  2  0  0  0  0  0  0
  160.9510  205.2320  145.0680 C   0  0  0  0  0  0  0  0  0  0  0  0
  161.7090  205.5760  143.9500 O   0  0  0  0  0  1  0  0  0  0  0  0
  161.6330  204.6440  146.2170 C   0  0  1  0  0  3  0  0  0  0  0  0
  159.6970  205.8310  145.2060 O   0  0  0  0  0  1  0  0  0  0  0  0
  161.7990  206.8280  153.2780 N   0  0  0  0  0  2  0  0  0  0  0  0
  161.0170  209.0890  153.7390 C   0  0  2  0  0  3  0  0  0  0  0  0
  159.7450  208.1250  156.1390 C   0  0  0  0  0  2  0  0  0  0  0  0
  160.2830  209.9320  154.6690 N   0  0  0  0  0  0  0  0  0  0  0  0
  160.6650  209.4490  152.3770 N   0  0  0  0  0  1  0  0  0  0  0  0
  160.8440  207.3240  155.4600 C   0  0  0  0  0  2  0  0  0  0  0  0
  159.7740  209.5200  155.7410 N   0  0  0  0  0  0  0  0  0  0  0  0
  160.7740  207.6020  153.9690 C   0  0  2  0  0  3  0  0  0  0  0  0
  1  4  1  0  0  0  0
  1  2  2  0  0  0  0
  3 10  1  1  0  0  0
  3  1  1  0  0  0  0
  5  2  1  0  0  0  0
  5 22  1  0  0  0  0
  6  3  1  0  0  0  0
  6  7  1  0  0  0  0
  7  5  2  0  0  0  0
  8  9  1  0  0  0  0
  9 10  2  0  0  0  0
 11 16  1  6  0  0  0
 11  6  1  0  0  0  0
 12 13  1  0  0  0  0
 12 11  1  0  0  0  0
 13 14  1  0  0  0  0
 15 13  2  0  0  0  0
 17 20  1  0  0  0  0
 18 21  1  0  0  0  0
 18 17  1  0  0  0  0
 18 20  1  0  0  0  0
 19 18  1  0  0  0  0
 20 16  1  1  0  0  0
 23 26  1  6  0  0  0
 23 29  1  0  0  0  0
 23 25  1  0  0  0  0
 25 28  2  0  0  0  0
 27 24  1  0  0  0  0
 28 24  1  0  0  0  0
 29 22  1  6  0  0  0
 29 27  1  0  0  0  0
M  END
>  <MODEL>
8

>  <REMARK>
 VINA RESULT:      -6.2      2.681      4.048
  Name = 
  8 active torsions:
  status: ('A' for Active; 'I' for Inactive)
    1  A    between atoms: C_4  and  N_20
    2  A    between atoms: C_15  and  N_25
    3  A    between atoms: C_16  and  C_17
    4  A    between atoms: C_17  and  C_21
    5  A    between atoms: C_21  and  N_24
    6  A    between atoms: C_21  and  C_27
    7  A    between atoms: C_23  and  C_27
    8  A    between atoms: N_25  and  C_28
                            x       y       z     vdW  Elec       q    Type
                         _______ _______ _______ _____ _____    ______ ____

>  <TORSDO>
F 8

$$$$
=
 OpenBabel11072413493D

 29 31  0  0  1  0  0  0  0  0999 V2000
  161.8800  209.2930  149.3510 C   0  0  0  0  0  0  0  0  0  0  0  0
  162.1140  208.5290  148.2840 C   0  0  0  0  0  3  0  0  0  0  0  0
  161.6430  208.6900  150.7200 C   0  0  1  0  0  3  0  0  0  0  0  0
  161.8090  210.7700  149.1770 C   0  0  0  0  0  1  0  0  0  0  0  0
  162.1700  207.0630  148.3740 C   0  0  0  0  0  0  0  0  0  0  0  0
  161.6610  207.2160  150.7300 N   0  0  0  0  0  0  0  0  0  0  0  0
  161.9540  206.4590  149.5430 C   0  0  0  0  0  3  0  0  0  0  0  0
  160.9410  210.8690  152.6090 C   0  0  0  0  0  1  0  0  0  0  0  0
  162.2700  210.1820  152.5510 C   0  0  0  0  0  3  0  0  0  0  0  0
  162.5520  209.2360  151.7170 N   0  0  0  0  0  0  0  0  0  0  0  0
  161.3460  206.5320  151.9830 C   0  0  2  0  0  3  0  0  0  0  0  0
  160.4920  205.2880  151.7460 C   0  0  0  0  0  2  0  0  0  0  0  0
  161.3170  204.0580  151.8820 C   0  0  0  0  0  0  0  0  0  0  0  0
  160.7060  202.8110  151.9070 O   0  0  0  0  0  0  0  0  0  0  0  0
  162.5670  204.1490  151.9950 O   0  0  0  0  0  1  0  0  0  0  0  0
  160.7500  207.4790  153.0300 C   0  0  0  0  0  2  0  0  0  0  0  0
  161.6290  207.6990  155.3130 N   0  0  0  0  0  2  0  0  0  0  0  0
  160.1700  207.7930  155.4240 C   0  0  0  0  0  0  0  0  0  0  0  0
  159.7010  207.2560  156.6220 O   0  0  0  0  0  1  0  0  0  0  0  0
  160.7530  206.8880  154.4380 C   0  0  1  0  0  3  0  0  0  0  0  0
  159.6950  209.0520  155.0510 O   0  0  0  0  0  1  0  0  0  0  0  0
  162.4610  206.3050  147.1950 N   0  0  0  0  0  2  0  0  0  0  0  0
  161.9020  203.9600  146.8470 C   0  0  2  0  0  3  0  0  0  0  0  0
  160.5060  204.6850  144.4320 C   0  0  0  0  0  2  0  0  0  0  0  0
  161.2420  203.0080  145.9680 N   0  0  0  0  0  0  0  0  0  0  0  0
  161.6060  203.6290  148.2300 N   0  0  0  0  0  1  0  0  0  0  0  0
  161.5300  205.6200  145.0550 C   0  0  0  0  0  2  0  0  0  0  0  0
  160.6800  203.3180  144.8890 N   0  0  0  0  0  0  0  0  0  0  0  0
  161.5080  205.4040  146.5570 C   0  0  2  0  0  3  0  0  0  0  0  0
  1  3  1  0  0  0  0
  2  5  1  0  0  0  0
  2  1  2  0  0  0  0
  3  6  1  0  0  0  0
  3 10  1  1  0  0  0
  4  1  1  0  0  0  0
  5  7  2  0  0  0  0
  6 11  1  0  0  0  0
  7  6  1  0  0  0  0
  9  8  1  0  0  0  0
 10  9  2  0  0  0  0
 11 12  1  6  0  0  0
 11 16  1  0  0  0  0
 12 13  1  0  0  0  0
 13 14  2  0  0  0  0
 13 15  1  0  0  0  0
 17 18  1  0  0  0  0
 18 19  1  0  0  0  0
 20 16  1  6  0  0  0
 20 17  1  0  0  0  0
 20 18  1  0  0  0  0
 21 18  1  0  0  0  0
 22  5  1  0  0  0  0
 23 26  1  1  0  0  0
 24 28  1  0  0  0  0
 24 27  1  0  0  0  0
 25 23  1  0  0  0  0
 27 29  1  0  0  0  0
 28 25  2  0  0  0  0
 29 23  1  0  0  0  0
 29 22  1  1  0  0  0
M  END
>  <MODEL>
9

>  <REMARK>
 VINA RESULT:      -6.1      3.069      7.551
  Name = 
  8 active torsions:
  status: ('A' for Active; 'I' for Inactive)
    1  A    between atoms: C_4  and  N_20
    2  A    between atoms: C_15  and  N_25
    3  A    between atoms: C_16  and  C_17
    4  A    between atoms: C_17  and  C_21
    5  A    between atoms: C_21  and  N_24
    6  A    between atoms: C_21  and  C_27
    7  A    between atoms: C_23  and  C_27
    8  A    between atoms: N_25  and  C_28
                            x       y       z     vdW  Elec       q    Type
                         _______ _______ _______ _____ _____    ______ ____

>  <TORSDO>
F 8

$$$$
