=
 OpenBabel11072412563D

 70 77  0  0  1  0  0  0  0  0999 V2000
  162.1640  207.4580  150.2350 N   0  0  0  0  0  0  0  0  0  0  0  0
  159.9220  207.8950  151.2750 C   0  0  0  0  0  2  0  0  0  0  0  0
  160.7260  207.1380  150.2000 C   0  0  0  0  0  2  0  0  0  0  0  0
  162.3730  208.8990  150.3300 C   0  0  0  0  0  2  0  0  0  0  0  0
  160.8280  208.5160  152.3440 C   0  0  2  0  0  3  0  0  0  0  0  0
  161.8800  209.4360  151.6850 C   0  0  2  0  0  3  0  0  0  0  0  0
  161.2290  205.2360  153.0770 C   0  0  0  0  0  0  0  0  0  0  0  0
  161.9540  203.9190  152.9850 C   0  0  0  0  0  2  0  0  0  0  0  0
  161.0430  207.4320  155.6400 C   0  0  0  0  0  1  0  0  0  0  0  0
  161.7860  206.3100  152.3860 O   0  0  0  0  0  0  0  0  0  0  0  0
  160.5580  206.9160  154.2980 C   0  0  2  0  0  3  0  0  0  0  0  0
  160.5910  205.5220  154.2850 O   0  0  0  0  0  0  0  0  0  0  0  0
  160.6320  204.1340  152.2410 C   0  0  0  0  0  2  0  0  0  0  0  0
  161.4730  207.4090  153.1900 C   0  0  2  0  0  3  0  0  0  0  0  0
  160.4400  211.4790  152.5980 C   0  0  2  0  0  3  0  0  0  0  0  0
  161.3360  210.8620  151.5210 C   0  0  1  0  0  0  0  0  0  0  0  0
  161.8980  211.9180  152.4630 C   0  0  0  0  0  2  0  0  0  0  0  0
  160.9890  211.1660  155.0360 C   0  0  1  0  0  3  0  0  0  0  0  0
  158.1030  211.5630  154.8310 C   0  0  0  0  0  2  0  0  0  0  0  0
  160.1790  211.1520  156.3330 C   0  0  0  0  0  2  0  0  0  0  0  0
  162.1880  210.4780  155.2240 O   0  0  0  0  0  1  0  0  0  0  0  0
  158.2370  212.5660  157.1580 S   0  0  0  0  0  0  0  0  0  0  0  0
  158.8500  211.8090  156.1060 C   0  0  0  0  0  0  0  0  0  0  0  0
  158.7280  210.4000  154.0610 C   0  0  0  0  0  2  0  0  0  0  0  0
  160.2360  210.5860  153.8180 C   0  0  1  0  0  3  0  0  0  0  0  0
  160.9680  211.2890  150.2350 O   0  0  0  0  0  0  0  0  0  0  0  0
  161.7270  212.3340  149.9510 O   0  0  0  0  0  0  0  0  0  0  0  0
  158.4280  213.0650  147.4680 C   0  0  0  0  0  2  0  0  0  0  0  0
  160.9960  213.1550  149.0700 C   0  0  2  0  0  3  0  0  0  0  0  0
  162.1850  213.7580  145.8690 O   0  0  0  0  0  0  0  0  0  0  0  0
  159.8880  213.1100  145.3710 C   0  0  0  0  0  2  0  0  0  0  0  0
  161.3430  213.1910  144.8880 C   0  0  0  0  0  2  0  0  0  0  0  0
  159.8140  213.3470  146.8790 C   0  0  2  0  0  3  0  0  0  0  0  0
  159.6430  213.6300  149.6470 C   0  0  0  0  0  2  0  0  0  0  0  0
  160.6560  211.2470  147.6440 F   0  0  0  0  0  0  0  0  0  0  0  0
  160.9330  212.6060  147.6320 C   0  0  2  0  0  0  0  0  0  0  0  0
  162.2830  212.8160  146.9160 C   0  0  0  0  0  2  0  0  0  0  0  0
  158.4610  212.8970  148.9950 C   0  0  0  0  0  2  0  0  0  0  0  0
  162.9070  206.9490  149.0710 C   0  0  0  0  0  2  0  0  0  0  0  0
  162.3700  205.6470  148.4530 C   0  0  0  0  0  2  0  0  0  0  0  0
  162.5080  206.9600  146.4770 O   0  0  0  0  0  1  0  0  0  0  0  0
  161.5690  204.2670  145.4260 C   0  0  1  0  0  0  0  0  0  0  0  0
  162.3610  205.6460  146.9270 C   0  0  2  0  0  0  0  0  0  0  0  0
  161.1620  205.1250  146.4480 O   0  0  0  0  0  0  0  0  0  0  0  0
  162.9550  204.4310  145.2620 O   0  0  0  0  0  0  0  0  0  0  0  0
  163.4010  204.8690  146.4260 O   0  0  0  0  0  0  0  0  0  0  0  0
  160.1270  202.3480  145.1330 O   0  0  0  0  0  1  0  0  0  0  0  0
  161.2650  202.7940  145.8130 C   0  0  2  0  0  3  0  0  0  0  0  0
  161.2030  202.4060  147.3280 C   0  0  2  0  0  0  0  0  0  0  0  0
  162.4240  202.6990  147.9660 O   0  0  0  0  0  1  0  0  0  0  0  0
  160.9000  200.8930  147.4880 C   0  0  2  0  0  3  0  0  0  0  0  0
  161.0390  200.5010  148.8240 O   0  0  0  0  0  1  0  0  0  0  0  0
  161.7840  199.9950  146.6180 C   0  0  0  0  0  2  0  0  0  0  0  0
  160.9390  199.0050  145.8260 C   0  0  0  0  0  2  0  0  0  0  0  0
  160.7760  199.4610  144.5150 O   0  0  0  0  0  1  0  0  0  0  0  0
  160.1190  203.1100  147.9340 O   0  0  0  0  0  0  0  0  0  0  0  0
  160.3860  203.3830  149.2890 C   0  0  0  0  0  1  0  0  0  0  0  0
  160.8550  204.6860  144.1330 C   0  0  0  0  0  2  0  0  0  0  0  0
  161.4730  205.9200  143.4870 C   0  0  1  0  0  3  0  0  0  0  0  0
  162.7850  206.0380  143.9150 F   0  0  0  0  0  0  0  0  0  0  0  0
  161.4270  205.7680  141.9710 C   0  0  0  0  0  2  0  0  0  0  0  0
  162.0060  206.9910  141.2780 C   0  0  0  0  0  2  0  0  0  0  0  0
  161.1360  207.4360  140.2810 O   0  0  0  0  0  0  0  0  0  0  0  0
  161.9580  207.8390  139.2250 C   0  0  1  0  0  3  0  0  0  0  0  0
  162.1730  206.6740  138.2650 C   0  0  0  0  0  2  0  0  0  0  0  0
  162.7860  207.1140  137.0890 O   0  0  0  0  0  1  0  0  0  0  0  0
  161.3260  209.0080  138.4870 C   0  0  0  0  0  2  0  0  0  0  0  0
  162.3410  209.7330  137.7340 N   0  0  0  0  0  2  0  0  0  0  0  0
  162.1800  211.1440  138.0370 C   0  0  0  0  0  2  0  0  0  0  0  0
  162.7980  211.4400  139.2540 O   0  0  0  0  0  1  0  0  0  0  0  0
  1  4  1  0  0  0  0
  3  1  1  0  0  0  0
  3  2  1  0  0  0  0
  5  2  1  6  0  0  0
  5 14  1  0  0  0  0
  6  4  1  6  0  0  0
  6  5  1  0  0  0  0
  7 12  1  0  0  0  0
  8  7  1  0  0  0  0
 10  7  1  0  0  0  0
 11  9  1  1  0  0  0
 12 11  1  0  0  0  0
 13  8  1  0  0  0  0
 13  7  1  0  0  0  0
 14 10  1  6  0  0  0
 14 11  1  0  0  0  0
 15 17  1  1  0  0  0
 15 25  1  0  0  0  0
 16 26  1  6  0  0  0
 16  6  1  0  0  0  0
 16 17  1  0  0  0  0
 16 15  1  0  0  0  0
 18 21  1  1  0  0  0
 18 20  1  0  0  0  0
 19 23  1  0  0  0  0
 23 20  1  0  0  0  0
 23 22  2  0  0  0  0
 24 19  1  0  0  0  0
 25 24  1  1  0  0  0
 25 18  1  0  0  0  0
 27 26  1  0  0  0  0
 28 38  1  0  0  0  0
 29 34  1  0  0  0  0
 29 27  1  1  0  0  0
 30 37  1  0  0  0  0
 32 31  1  0  0  0  0
 32 30  1  0  0  0  0
 33 31  1  6  0  0  0
 33 28  1  0  0  0  0
 33 36  1  0  0  0  0
 36 35  1  1  0  0  0
 36 29  1  0  0  0  0
 37 36  1  0  0  0  0
 38 34  1  0  0  0  0
 39  1  1  0  0  0  0
 40 39  1  0  0  0  0
 42 58  1  6  0  0  0
 42 48  1  0  0  0  0
 42 44  1  0  0  0  0
 43 41  1  6  0  0  0
 43 40  1  0  0  0  0
 44 43  1  0  0  0  0
 45 42  1  0  0  0  0
 45 46  1  0  0  0  0
 46 43  1  0  0  0  0
 48 47  1  1  0  0  0
 48 49  1  0  0  0  0
 49 51  1  0  0  0  0
 49 56  1  0  0  0  0
 49 50  1  1  0  0  0
 51 52  1  1  0  0  0
 53 51  1  0  0  0  0
 54 53  1  0  0  0  0
 55 54  1  0  0  0  0
 56 57  1  0  0  0  0
 59 60  1  1  0  0  0
 59 58  1  0  0  0  0
 61 59  1  0  0  0  0
 62 61  1  0  0  0  0
 63 62  1  0  0  0  0
 64 65  1  6  0  0  0
 64 63  1  0  0  0  0
 66 65  1  0  0  0  0
 67 64  1  0  0  0  0
 68 69  1  0  0  0  0
 68 67  1  0  0  0  0
 69 70  1  0  0  0  0
M  END
>  <MODEL>
1

>  <REMARK>
 VINA RESULT:       0.9      0.000      0.000
  Name = 
  25 active torsions:
  status: ('A' for Active; 'I' for Inactive)
    1  A    between atoms: N_2  and  C_20
    2  A    between atoms: C_3  and  C_44
    3  A    between atoms: C_4  and  C_30
    4  A    between atoms: C_4  and  C_34
    5  A    between atoms: O_6  and  C_38
    6  A    between atoms: C_10  and  O_39
    7  A    between atoms: C_11  and  O_53
    8  A    between atoms: C_11  and  C_59
    9  A    between atoms: C_12  and  C_67
   10  A    between atoms: C_14  and  C_30
   11  A    between atoms: C_14  and  C_40
   12  A    between atoms: C_20  and  C_50
   13  A    between atoms: C_21  and  C_23
   14  A    between atoms: C_21  and  C_60
   15  A    between atoms: C_25  and  C_50
   16  A    between atoms: C_26  and  N_55
   17  A    between atoms: C_34  and  C_58
   18  A    between atoms: C_38  and  C_40
   19  A    between atoms: C_38  and  C_60
   20  A    between atoms: O_39  and  O_53
   21  A    between atoms: O_47  and  C_58
   22  A    between atoms: O_47  and  C_67
   23  A    between atoms: C_49  and  N_55
   24  A    between atoms: C_49  and  C_67
   25  A    between atoms: C_57  and  C_66
                            x       y       z     vdW  Elec       q    Type
                         _______ _______ _______ _____ _____    ______ ____

>  <TORSDO>
F 25

$$$$
=
 OpenBabel11072412563D

 70 77  0  0  1  0  0  0  0  0999 V2000
  161.8280  208.9830  150.5200 N   0  0  0  0  0  0  0  0  0  0  0  0
  159.7580  209.2480  151.9140 C   0  0  0  0  0  2  0  0  0  0  0  0
  160.5130  208.4120  150.8620 C   0  0  0  0  0  2  0  0  0  0  0  0
  161.7240  210.4180  150.2800 C   0  0  0  0  0  2  0  0  0  0  0  0
  160.6720  210.2580  152.6150 C   0  0  2  0  0  3  0  0  0  0  0  0
  161.3640  211.1660  151.5750 C   0  0  2  0  0  3  0  0  0  0  0  0
  161.3700  208.4480  155.3890 C   0  0  0  0  0  0  0  0  0  0  0  0
  161.6060  207.1540  156.1230 C   0  0  0  0  0  2  0  0  0  0  0  0
  163.5680  210.8370  154.4490 C   0  0  0  0  0  1  0  0  0  0  0  0
  161.1060  208.3570  154.0230 O   0  0  0  0  0  0  0  0  0  0  0  0
  162.1460  210.3610  154.6810 C   0  0  2  0  0  3  0  0  0  0  0  0
  162.0940  209.5600  155.8210 O   0  0  0  0  0  0  0  0  0  0  0  0
  160.3010  207.9330  156.3170 C   0  0  0  0  0  2  0  0  0  0  0  0
  161.6820  209.5190  153.5050 C   0  0  2  0  0  3  0  0  0  0  0  0
  160.6370  213.1100  149.9100 C   0  0  2  0  0  3  0  0  0  0  0  0
  160.4950  212.3910  151.2530 C   0  0  1  0  0  0  0  0  0  0  0  0
  159.4330  212.2090  150.1780 C   0  0  0  0  0  2  0  0  0  0  0  0
  160.9020  211.9690  147.6810 C   0  0  1  0  0  3  0  0  0  0  0  0
  162.4450  214.4470  147.5870 C   0  0  0  0  0  2  0  0  0  0  0  0
  161.6440  212.2920  146.3830 C   0  0  0  0  0  2  0  0  0  0  0  0
  160.6660  210.5970  147.7580 O   0  0  0  0  0  1  0  0  0  0  0  0
  161.9820  214.4530  145.0910 S   0  0  0  0  0  0  0  0  0  0  0  0
  161.9810  213.7530  146.3420 C   0  0  0  0  0  0  0  0  0  0  0  0
  162.7830  213.4270  148.6740 C   0  0  0  0  0  2  0  0  0  0  0  0
  161.6280  212.4510  148.9560 C   0  0  1  0  0  3  0  0  0  0  0  0
  160.2000  213.2880  152.2930 O   0  0  0  0  0  0  0  0  0  0  0  0
  160.2540  212.5940  153.4180 O   0  0  0  0  0  0  0  0  0  0  0  0
  158.5740  213.0920  157.2270 C   0  0  0  0  0  2  0  0  0  0  0  0
  159.2760  213.1240  154.2820 C   0  0  2  0  0  3  0  0  0  0  0  0
  156.0300  211.9090  154.1800 O   0  0  0  0  0  0  0  0  0  0  0  0
  156.4660  211.8020  156.5770 C   0  0  0  0  0  2  0  0  0  0  0  0
  155.6880  211.2430  155.3770 C   0  0  0  0  0  2  0  0  0  0  0  0
  157.6230  212.6790  156.1000 C   0  0  2  0  0  3  0  0  0  0  0  0
  159.8300  214.1690  155.2770 C   0  0  0  0  0  2  0  0  0  0  0  0
  159.1200  210.9750  155.3520 F   0  0  0  0  0  0  0  0  0  0  0  0
  158.3650  212.0490  154.9070 C   0  0  2  0  0  0  0  0  0  0  0  0
  157.3530  211.5310  153.8660 C   0  0  0  0  0  2  0  0  0  0  0  0
  159.9250  213.6010  156.7010 C   0  0  0  0  0  2  0  0  0  0  0  0
  162.4540  208.3520  149.3470 C   0  0  0  0  0  2  0  0  0  0  0  0
  162.3620  206.8170  149.2850 C   0  0  0  0  0  2  0  0  0  0  0  0
  162.7280  207.3000  146.9870 O   0  0  0  0  0  1  0  0  0  0  0  0
  162.0140  204.3460  146.9450 C   0  0  1  0  0  0  0  0  0  0  0  0
  162.5590  206.2440  147.8850 C   0  0  2  0  0  0  0  0  0  0  0  0
  161.4510  205.4910  147.5080 O   0  0  0  0  0  0  0  0  0  0  0  0
  163.4060  204.5420  146.8890 O   0  0  0  0  0  0  0  0  0  0  0  0
  163.6780  205.4180  147.8410 O   0  0  0  0  0  0  0  0  0  0  0  0
  161.4560  201.9940  147.0160 O   0  0  0  0  0  1  0  0  0  0  0  0
  161.7030  203.1070  147.8270 C   0  0  2  0  0  3  0  0  0  0  0  0
  160.6230  203.2310  148.9540 C   0  0  2  0  0  0  0  0  0  0  0  0
  159.8340  204.3820  148.7600 O   0  0  0  0  0  1  0  0  0  0  0  0
  161.3010  203.3130  150.3470 C   0  0  2  0  0  3  0  0  0  0  0  0
  160.6230  202.5110  151.2720 O   0  0  0  0  0  1  0  0  0  0  0  0
  161.3910  204.7360  150.9030 C   0  0  0  0  0  2  0  0  0  0  0  0
  161.7220  204.7180  152.3900 C   0  0  0  0  0  2  0  0  0  0  0  0
  160.6490  205.2350  153.1220 O   0  0  0  0  0  1  0  0  0  0  0  0
  159.8250  202.0480  148.9510 O   0  0  0  0  0  0  0  0  0  0  0  0
  160.2570  201.1430  149.9400 C   0  0  0  0  0  1  0  0  0  0  0  0
  161.4710  204.1940  145.5170 C   0  0  0  0  0  2  0  0  0  0  0  0
  161.2210  205.5310  144.8310 C   0  0  1  0  0  3  0  0  0  0  0  0
  162.3540  206.3170  144.9600 F   0  0  0  0  0  0  0  0  0  0  0  0
  160.9160  205.2870  143.3560 C   0  0  0  0  0  2  0  0  0  0  0  0
  161.9240  205.9930  142.4640 C   0  0  0  0  0  2  0  0  0  0  0  0
  161.4320  206.0840  141.1610 O   0  0  0  0  0  0  0  0  0  0  0  0
  162.2840  206.9770  140.5050 C   0  0  1  0  0  3  0  0  0  0  0  0
  162.5490  206.4900  139.0840 C   0  0  0  0  0  2  0  0  0  0  0  0
  161.5370  206.9200  138.2220 O   0  0  0  0  0  1  0  0  0  0  0  0
  161.6610  208.3630  140.4700 C   0  0  0  0  0  2  0  0  0  0  0  0
  162.5800  209.3110  139.8540 N   0  0  0  0  0  2  0  0  0  0  0  0
  161.7790  210.2960  139.1480 C   0  0  0  0  0  2  0  0  0  0  0  0
  160.9580  210.9730  140.0520 O   0  0  0  0  0  1  0  0  0  0  0  0
  1  3  1  0  0  0  0
  3  2  1  0  0  0  0
  4  1  1  0  0  0  0
  5  2  1  6  0  0  0
  5 14  1  0  0  0  0
  6  4  1  6  0  0  0
  6  5  1  0  0  0  0
  7 12  1  0  0  0  0
  7  8  1  0  0  0  0
  7 13  1  0  0  0  0
  8 13  1  0  0  0  0
 10  7  1  0  0  0  0
 11  9  1  6  0  0  0
 11 12  1  0  0  0  0
 14 10  1  1  0  0  0
 14 11  1  0  0  0  0
 15 17  1  6  0  0  0
 15 16  1  0  0  0  0
 16  6  1  0  0  0  0
 16 26  1  1  0  0  0
 17 16  1  0  0  0  0
 18 21  1  1  0  0  0
 18 25  1  0  0  0  0
 19 24  1  0  0  0  0
 20 18  1  0  0  0  0
 22 23  2  0  0  0  0
 23 20  1  0  0  0  0
 23 19  1  0  0  0  0
 25 24  1  6  0  0  0
 25 15  1  0  0  0  0
 26 27  1  0  0  0  0
 29 27  1  1  0  0  0
 29 36  1  0  0  0  0
 29 34  1  0  0  0  0
 30 32  1  0  0  0  0
 32 31  1  0  0  0  0
 33 31  1  1  0  0  0
 33 28  1  0  0  0  0
 34 38  1  0  0  0  0
 36 35  1  1  0  0  0
 36 33  1  0  0  0  0
 37 30  1  0  0  0  0
 37 36  1  0  0  0  0
 38 28  1  0  0  0  0
 39  1  1  0  0  0  0
 40 39  1  0  0  0  0
 42 58  1  6  0  0  0
 42 44  1  0  0  0  0
 42 48  1  0  0  0  0
 43 41  1  6  0  0  0
 43 40  1  0  0  0  0
 44 43  1  0  0  0  0
 45 42  1  0  0  0  0
 45 46  1  0  0  0  0
 46 43  1  0  0  0  0
 48 47  1  6  0  0  0
 48 49  1  0  0  0  0
 49 50  1  6  0  0  0
 49 51  1  0  0  0  0
 51 53  1  0  0  0  0
 51 52  1  1  0  0  0
 53 54  1  0  0  0  0
 54 55  1  0  0  0  0
 56 49  1  0  0  0  0
 56 57  1  0  0  0  0
 59 60  1  6  0  0  0
 59 58  1  0  0  0  0
 61 59  1  0  0  0  0
 62 61  1  0  0  0  0
 63 62  1  0  0  0  0
 64 65  1  6  0  0  0
 64 63  1  0  0  0  0
 66 65  1  0  0  0  0
 67 64  1  0  0  0  0
 68 67  1  0  0  0  0
 69 68  1  0  0  0  0
 69 70  1  0  0  0  0
M  END
>  <MODEL>
2

>  <REMARK>
 VINA RESULT:       1.4      2.505      5.451
  Name = 
  25 active torsions:
  status: ('A' for Active; 'I' for Inactive)
    1  A    between atoms: N_2  and  C_20
    2  A    between atoms: C_3  and  C_44
    3  A    between atoms: C_4  and  C_30
    4  A    between atoms: C_4  and  C_34
    5  A    between atoms: O_6  and  C_38
    6  A    between atoms: C_10  and  O_39
    7  A    between atoms: C_11  and  O_53
    8  A    between atoms: C_11  and  C_59
    9  A    between atoms: C_12  and  C_67
   10  A    between atoms: C_14  and  C_30
   11  A    between atoms: C_14  and  C_40
   12  A    between atoms: C_20  and  C_50
   13  A    between atoms: C_21  and  C_23
   14  A    between atoms: C_21  and  C_60
   15  A    between atoms: C_25  and  C_50
   16  A    between atoms: C_26  and  N_55
   17  A    between atoms: C_34  and  C_58
   18  A    between atoms: C_38  and  C_40
   19  A    between atoms: C_38  and  C_60
   20  A    between atoms: O_39  and  O_53
   21  A    between atoms: O_47  and  C_58
   22  A    between atoms: O_47  and  C_67
   23  A    between atoms: C_49  and  N_55
   24  A    between atoms: C_49  and  C_67
   25  A    between atoms: C_57  and  C_66
                            x       y       z     vdW  Elec       q    Type
                         _______ _______ _______ _____ _____    ______ ____

>  <TORSDO>
F 25

$$$$
=
 OpenBabel11072412563D

 70 77  0  0  1  0  0  0  0  0999 V2000
  160.9430  208.8450  151.6180 N   0  0  0  0  0  0  0  0  0  0  0  0
  159.4160  209.8430  153.3420 C   0  0  0  0  0  2  0  0  0  0  0  0
  159.7170  208.6510  152.4130 C   0  0  0  0  0  2  0  0  0  0  0  0
  160.9670  210.1770  151.0220 C   0  0  0  0  0  2  0  0  0  0  0  0
  160.6200  210.7780  153.4930 C   0  0  2  0  0  3  0  0  0  0  0  0
  161.0990  211.2600  152.1050 C   0  0  2  0  0  3  0  0  0  0  0  0
  161.6070  208.8090  156.0630 C   0  0  0  0  0  0  0  0  0  0  0  0
  162.0020  207.4860  156.6660 C   0  0  0  0  0  2  0  0  0  0  0  0
  163.5110  211.4920  155.2870 C   0  0  0  0  0  1  0  0  0  0  0  0
  161.3000  208.8140  154.7030 O   0  0  0  0  0  0  0  0  0  0  0  0
  162.1550  210.8490  155.5150 C   0  0  2  0  0  3  0  0  0  0  0  0
  162.2290  209.9480  156.5760 O   0  0  0  0  0  0  0  0  0  0  0  0
  160.6340  208.1030  156.9700 C   0  0  0  0  0  2  0  0  0  0  0  0
  161.7340  210.0730  154.2790 C   0  0  2  0  0  3  0  0  0  0  0  0
  160.6410  213.1840  150.3250 C   0  0  2  0  0  3  0  0  0  0  0  0
  160.3480  212.5290  151.6770 C   0  0  1  0  0  0  0  0  0  0  0  0
  159.3570  212.3800  150.5310 C   0  0  0  0  0  2  0  0  0  0  0  0
  161.0280  212.0640  148.1040 C   0  0  1  0  0  3  0  0  0  0  0  0
  162.8750  214.3200  148.2820 C   0  0  0  0  0  2  0  0  0  0  0  0
  161.9590  212.3120  146.9160 C   0  0  0  0  0  2  0  0  0  0  0  0
  160.6120  210.7320  148.1030 O   0  0  0  0  0  1  0  0  0  0  0  0
  162.7240  214.4360  145.7510 S   0  0  0  0  0  0  0  0  0  0  0  0
  162.4810  213.7170  146.9680 C   0  0  0  0  0  0  0  0  0  0  0  0
  162.9450  213.2420  149.3650 C   0  0  0  0  0  2  0  0  0  0  0  0
  161.6480  212.4200  149.4720 C   0  0  1  0  0  3  0  0  0  0  0  0
  160.0440  213.4850  152.6610 O   0  0  0  0  0  0  0  0  0  0  0  0
  160.0130  212.8420  153.8170 O   0  0  0  0  0  0  0  0  0  0  0  0
  157.4500  213.0260  157.1300 C   0  0  0  0  0  2  0  0  0  0  0  0
  159.1210  213.5360  154.6570 C   0  0  2  0  0  3  0  0  0  0  0  0
  155.9590  214.3810  153.5110 O   0  0  0  0  0  0  0  0  0  0  0  0
  155.3930  213.3530  155.6480 C   0  0  0  0  0  2  0  0  0  0  0  0
  154.9510  213.6920  154.2170 C   0  0  0  0  0  2  0  0  0  0  0  0
  156.9010  213.5520  155.8000 C   0  0  2  0  0  3  0  0  0  0  0  0
  159.6660  213.7610  156.0860 C   0  0  0  0  0  2  0  0  0  0  0  0
  157.6680  211.6190  154.6260 F   0  0  0  0  0  0  0  0  0  0  0  0
  157.6760  213.0050  154.5880 C   0  0  2  0  0  0  0  0  0  0  0  0
  157.0000  213.4550  153.2770 C   0  0  0  0  0  2  0  0  0  0  0  0
  158.9750  212.8450  157.1070 C   0  0  0  0  0  2  0  0  0  0  0  0
  161.1140  207.8460  150.5510 C   0  0  0  0  0  2  0  0  0  0  0  0
  162.4480  207.9060  149.7880 C   0  0  0  0  0  2  0  0  0  0  0  0
  162.6640  208.5380  147.5070 O   0  0  0  0  0  1  0  0  0  0  0  0
  161.2680  205.8440  147.3260 C   0  0  1  0  0  0  0  0  0  0  0  0
  162.3480  207.4570  148.3330 C   0  0  2  0  0  0  0  0  0  0  0  0
  161.0580  207.0190  148.0480 O   0  0  0  0  0  0  0  0  0  0  0  0
  162.6510  205.7250  147.1030 O   0  0  0  0  0  0  0  0  0  0  0  0
  163.2270  206.4090  148.0760 O   0  0  0  0  0  0  0  0  0  0  0  0
  160.7530  204.9310  149.5050 O   0  0  0  0  0  1  0  0  0  0  0  0
  160.7700  204.6200  148.1410 C   0  0  2  0  0  3  0  0  0  0  0  0
  161.4310  203.2240  147.8920 C   0  0  2  0  0  0  0  0  0  0  0  0
  162.6080  203.3600  147.1300 O   0  0  0  0  0  1  0  0  0  0  0  0
  160.4490  202.2860  147.1400 C   0  0  2  0  0  3  0  0  0  0  0  0
  160.0310  201.2420  147.9730 O   0  0  0  0  0  1  0  0  0  0  0  0
  161.0320  201.6880  145.8570 C   0  0  0  0  0  2  0  0  0  0  0  0
  160.6460  200.2210  145.7160 C   0  0  0  0  0  2  0  0  0  0  0  0
  161.4220  199.4410  146.5770 O   0  0  0  0  0  1  0  0  0  0  0  0
  161.6980  202.6150  149.1550 O   0  0  0  0  0  0  0  0  0  0  0  0
  160.6210  202.7970  150.0440 C   0  0  0  0  0  1  0  0  0  0  0  0
  160.5500  205.9730  145.9750 C   0  0  0  0  0  2  0  0  0  0  0  0
  161.0910  205.0160  144.9210 C   0  0  1  0  0  3  0  0  0  0  0  0
  160.0290  204.5120  144.1880 F   0  0  0  0  0  0  0  0  0  0  0  0
  162.0490  205.7700  144.0040 C   0  0  0  0  0  2  0  0  0  0  0  0
  161.2910  206.6190  142.9970 C   0  0  0  0  0  2  0  0  0  0  0  0
  161.4370  206.0870  141.7140 O   0  0  0  0  0  0  0  0  0  0  0  0
  161.9380  207.1340  140.9340 C   0  0  1  0  0  3  0  0  0  0  0  0
  163.4350  206.9440  140.7150 C   0  0  0  0  0  2  0  0  0  0  0  0
  163.6720  206.2380  139.5320 O   0  0  0  0  0  1  0  0  0  0  0  0
  161.2200  207.1770  139.5950 C   0  0  0  0  0  2  0  0  0  0  0  0
  160.5030  208.4380  139.4520 N   0  0  0  0  0  2  0  0  0  0  0  0
  161.4970  209.4930  139.3530 C   0  0  0  0  0  2  0  0  0  0  0  0
  161.9160  209.8690  140.6310 O   0  0  0  0  0  1  0  0  0  0  0  0
  1  3  1  0  0  0  0
  3  2  1  0  0  0  0
  4  1  1  0  0  0  0
  5  2  1  6  0  0  0
  5 14  1  0  0  0  0
  6  4  1  6  0  0  0
  6  5  1  0  0  0  0
  7 12  1  0  0  0  0
  7  8  1  0  0  0  0
  7 13  1  0  0  0  0
  8 13  1  0  0  0  0
 10  7  1  0  0  0  0
 11  9  1  6  0  0  0
 11 12  1  0  0  0  0
 14 10  1  1  0  0  0
 14 11  1  0  0  0  0
 15 17  1  6  0  0  0
 15 16  1  0  0  0  0
 16  6  1  0  0  0  0
 16 26  1  1  0  0  0
 17 16  1  0  0  0  0
 18 21  1  1  0  0  0
 18 25  1  0  0  0  0
 19 24  1  0  0  0  0
 20 23  1  0  0  0  0
 20 18  1  0  0  0  0
 22 23  2  0  0  0  0
 23 19  1  0  0  0  0
 25 24  1  6  0  0  0
 25 15  1  0  0  0  0
 26 27  1  0  0  0  0
 29 27  1  1  0  0  0
 29 34  1  0  0  0  0
 30 32  1  0  0  0  0
 32 31  1  0  0  0  0
 33 31  1  6  0  0  0
 33 28  1  0  0  0  0
 34 38  1  0  0  0  0
 36 35  1  1  0  0  0
 36 29  1  0  0  0  0
 36 33  1  0  0  0  0
 37 30  1  0  0  0  0
 37 36  1  0  0  0  0
 38 28  1  0  0  0  0
 39  1  1  0  0  0  0
 40 39  1  0  0  0  0
 42 58  1  6  0  0  0
 42 44  1  0  0  0  0
 42 48  1  0  0  0  0
 43 41  1  6  0  0  0
 43 40  1  0  0  0  0
 44 43  1  0  0  0  0
 45 42  1  0  0  0  0
 45 46  1  0  0  0  0
 46 43  1  0  0  0  0
 48 47  1  1  0  0  0
 49 50  1  6  0  0  0
 49 48  1  0  0  0  0
 49 56  1  0  0  0  0
 51 49  1  0  0  0  0
 51 52  1  1  0  0  0
 53 51  1  0  0  0  0
 54 53  1  0  0  0  0
 54 55  1  0  0  0  0
 56 57  1  0  0  0  0
 59 60  1  6  0  0  0
 59 58  1  0  0  0  0
 61 59  1  0  0  0  0
 62 61  1  0  0  0  0
 63 62  1  0  0  0  0
 64 67  1  6  0  0  0
 64 63  1  0  0  0  0
 65 64  1  0  0  0  0
 66 65  1  0  0  0  0
 68 67  1  0  0  0  0
 69 68  1  0  0  0  0
 69 70  1  0  0  0  0
M  END
>  <MODEL>
3

>  <REMARK>
 VINA RESULT:       2.8      2.624      5.203
  Name = 
  25 active torsions:
  status: ('A' for Active; 'I' for Inactive)
    1  A    between atoms: N_2  and  C_20
    2  A    between atoms: C_3  and  C_44
    3  A    between atoms: C_4  and  C_30
    4  A    between atoms: C_4  and  C_34
    5  A    between atoms: O_6  and  C_38
    6  A    between atoms: C_10  and  O_39
    7  A    between atoms: C_11  and  O_53
    8  A    between atoms: C_11  and  C_59
    9  A    between atoms: C_12  and  C_67
   10  A    between atoms: C_14  and  C_30
   11  A    between atoms: C_14  and  C_40
   12  A    between atoms: C_20  and  C_50
   13  A    between atoms: C_21  and  C_23
   14  A    between atoms: C_21  and  C_60
   15  A    between atoms: C_25  and  C_50
   16  A    between atoms: C_26  and  N_55
   17  A    between atoms: C_34  and  C_58
   18  A    between atoms: C_38  and  C_40
   19  A    between atoms: C_38  and  C_60
   20  A    between atoms: O_39  and  O_53
   21  A    between atoms: O_47  and  C_58
   22  A    between atoms: O_47  and  C_67
   23  A    between atoms: C_49  and  N_55
   24  A    between atoms: C_49  and  C_67
   25  A    between atoms: C_57  and  C_66
                            x       y       z     vdW  Elec       q    Type
                         _______ _______ _______ _____ _____    ______ ____

>  <TORSDO>
F 25

$$$$
=
 OpenBabel11072412563D

 70 78  0  0  1  0  0  0  0  0999 V2000
  161.5400  206.4690  150.5670 N   0  0  0  0  0  0  0  0  0  0  0  0
  159.7240  208.1020  151.1450 C   0  0  0  0  0  2  0  0  0  0  0  0
  160.1620  206.9070  150.2770 C   0  0  0  0  0  2  0  0  0  0  0  0
  162.4440  207.6120  150.6310 C   0  0  0  0  0  2  0  0  0  0  0  0
  160.6630  208.3290  152.3340 C   0  0  2  0  0  3  0  0  0  0  0  0
  162.1170  208.5030  151.8420 C   0  0  2  0  0  3  0  0  0  0  0  0
  160.5610  207.2140  155.5280 C   0  0  0  0  0  0  0  0  0  0  0  0
  159.8380  206.7900  156.7800 C   0  0  0  0  0  2  0  0  0  0  0  0
  162.2080  205.3500  153.2400 C   0  0  0  0  0  1  0  0  0  0  0  0
  159.7720  207.5900  154.4420 O   0  0  0  0  0  0  0  0  0  0  0  0
  161.8670  206.6930  153.8580 C   0  0  2  0  0  3  0  0  0  0  0  0
  161.7630  206.5650  155.2440 O   0  0  0  0  0  0  0  0  0  0  0  0
  160.5570  208.1410  156.7160 C   0  0  0  0  0  2  0  0  0  0  0  0
  160.5240  207.1760  153.3390 C   0  0  2  0  0  3  0  0  0  0  0  0
  161.8630  211.0920  152.3980 C   0  0  2  0  0  3  0  0  0  0  0  0
  162.4120  209.9730  151.5110 C   0  0  1  0  0  0  0  0  0  0  0  0
  163.3420  210.7120  152.4630 C   0  0  0  0  0  2  0  0  0  0  0  0
  161.8190  211.0470  154.9150 C   0  0  1  0  0  3  0  0  0  0  0  0
  159.4480  212.4990  154.0220 C   0  0  0  0  0  2  0  0  0  0  0  0
  160.8770  211.5920  155.9900 C   0  0  0  0  0  2  0  0  0  0  0  0
  162.5660  209.9920  155.4380 O   0  0  0  0  0  1  0  0  0  0  0  0
  159.6070  213.7810  156.2070 S   0  0  0  0  0  0  0  0  0  0  0  0
  160.0070  212.6640  155.4030 C   0  0  0  0  0  0  0  0  0  0  0  0
  159.6410  211.0630  153.5350 C   0  0  0  0  0  2  0  0  0  0  0  0
  161.1040  210.5950  153.6230 C   0  0  1  0  0  3  0  0  0  0  0  0
  162.4520  210.3540  150.1590 O   0  0  0  0  0  0  0  0  0  0  0  0
  161.6970  211.4350  150.0480 O   0  0  0  0  0  0  0  0  0  0  0  0
  162.4560  213.6990  146.6020 C   0  0  0  0  0  2  0  0  0  0  0  0
  161.5350  211.6920  148.6720 C   0  0  2  0  0  3  0  0  0  0  0  0
  158.4960  212.8490  147.4700 O   0  0  0  0  0  0  0  0  0  0  0  0
  160.0180  214.4480  146.4350 C   0  0  0  0  0  2  0  0  0  0  0  0
  158.6050  214.1620  146.9640 C   0  0  0  0  0  2  0  0  0  0  0  0
  160.9910  213.3670  146.9030 C   0  0  2  0  0  3  0  0  0  0  0  0
  162.8300  211.4990  147.8510 C   0  0  0  0  0  2  0  0  0  0  0  0
  161.2290  214.0210  149.1880 F   0  0  0  0  0  0  0  0  0  0  0  0
  160.7660  212.9940  148.3800 C   0  0  2  0  0  0  0  0  0  0  0  0
  159.2610  212.8040  148.6560 C   0  0  0  0  0  2  0  0  0  0  0  0
  163.4340  212.8440  147.4220 C   0  0  0  0  0  2  0  0  0  0  0  0
  162.0660  205.5040  149.5880 C   0  0  0  0  0  2  0  0  0  0  0  0
  161.2540  205.3600  148.2900 C   0  0  0  0  0  2  0  0  0  0  0  0
  163.2920  205.7650  147.1360 O   0  0  0  0  0  1  0  0  0  0  0  0
  161.6380  204.2720  145.0680 C   0  0  1  0  0  0  0  0  0  0  0  0
  162.1030  205.0350  147.0640 C   0  0  2  0  0  0  0  0  0  0  0  0
  161.4230  205.3730  145.8980 O   0  0  0  0  0  0  0  0  0  0  0  0
  162.5390  203.4160  145.7250 O   0  0  0  0  0  0  0  0  0  0  0  0
  162.4000  203.6760  147.0130 O   0  0  0  0  0  0  0  0  0  0  0  0
  159.2220  204.3800  145.0570 O   0  0  0  0  0  1  0  0  0  0  0  0
  160.3010  203.5220  144.8190 C   0  0  2  0  0  3  0  0  0  0  0  0
  160.0740  202.1320  145.5010 C   0  0  2  0  0  0  0  0  0  0  0  0
  158.7470  202.0140  145.9600 O   0  0  0  0  0  1  0  0  0  0  0  0
  161.0400  201.9530  146.7020 C   0  0  2  0  0  3  0  0  0  0  0  0
  161.5470  200.6500  146.7380 O   0  0  0  0  0  0  0  0  0  0  0  0
  160.4000  202.2690  148.0570 C   0  0  0  0  0  2  0  0  0  0  0  0
  160.5520  201.0950  149.0160 C   0  0  0  0  0  2  0  0  0  0  0  0
  161.0120  201.5500  150.2550 O   0  0  0  0  0  1  0  0  0  0  0  0
  160.3910  201.1060  144.5610 O   0  0  0  0  0  0  0  0  0  0  0  0
  160.9640  199.9900  145.2010 C   0  0  0  0  0  2  0  0  0  0  0  0
  162.2760  204.7690  143.7640 C   0  0  0  0  0  2  0  0  0  0  0  0
  161.3270  205.6130  142.9220 C   0  0  1  0  0  3  0  0  0  0  0  0
  161.0440  206.7830  143.6060 F   0  0  0  0  0  0  0  0  0  0  0  0
  161.9920  205.9330  141.5870 C   0  0  0  0  0  2  0  0  0  0  0  0
  161.7680  207.3850  141.1960 C   0  0  0  0  0  2  0  0  0  0  0  0
  161.4470  207.4740  139.8410 O   0  0  0  0  0  0  0  0  0  0  0  0
  161.0470  208.7990  139.6410 C   0  0  1  0  0  3  0  0  0  0  0  0
  162.2640  209.7170  139.6700 C   0  0  0  0  0  2  0  0  0  0  0  0
  162.4060  210.3810  138.4500 O   0  0  0  0  0  1  0  0  0  0  0  0
  160.3290  208.9320  138.3080 C   0  0  0  0  0  2  0  0  0  0  0  0
  158.8960  209.0870  138.5230 N   0  0  0  0  0  2  0  0  0  0  0  0
  158.6370  210.5050  138.7090 C   0  0  0  0  0  2  0  0  0  0  0  0
  158.5520  211.1360  137.4660 O   0  0  0  0  0  1  0  0  0  0  0  0
  1  4  1  0  0  0  0
  3  1  1  0  0  0  0
  3  2  1  0  0  0  0
  5  2  1  6  0  0  0
  5 14  1  0  0  0  0
  6  4  1  6  0  0  0
  6  5  1  0  0  0  0
  7 13  1  0  0  0  0
  7  8  1  0  0  0  0
 10  7  1  0  0  0  0
 11  9  1  6  0  0  0
 11 12  1  0  0  0  0
 12  7  1  0  0  0  0
 13  8  1  0  0  0  0
 14 11  1  0  0  0  0
 14 10  1  1  0  0  0
 15 17  1  1  0  0  0
 15 25  1  0  0  0  0
 16 26  1  6  0  0  0
 16  6  1  0  0  0  0
 16 15  1  0  0  0  0
 16 17  1  0  0  0  0
 18 21  1  1  0  0  0
 18 20  1  0  0  0  0
 19 23  1  0  0  0  0
 23 20  1  0  0  0  0
 23 22  2  0  0  0  0
 24 19  1  0  0  0  0
 25 24  1  1  0  0  0
 25 18  1  0  0  0  0
 27 26  1  0  0  0  0
 28 33  1  0  0  0  0
 28 38  1  0  0  0  0
 29 27  1  1  0  0  0
 30 37  1  0  0  0  0
 31 32  1  0  0  0  0
 32 30  1  0  0  0  0
 33 31  1  1  0  0  0
 33 36  1  0  0  0  0
 34 29  1  0  0  0  0
 36 37  1  0  0  0  0
 36 29  1  0  0  0  0
 36 35  1  1  0  0  0
 38 34  1  0  0  0  0
 39  1  1  0  0  0  0
 40 39  1  0  0  0  0
 42 58  1  6  0  0  0
 42 45  1  0  0  0  0
 42 44  1  0  0  0  0
 43 41  1  1  0  0  0
 43 40  1  0  0  0  0
 44 43  1  0  0  0  0
 45 46  1  0  0  0  0
 46 43  1  0  0  0  0
 48 47  1  1  0  0  0
 48 42  1  0  0  0  0
 48 49  1  0  0  0  0
 49 50  1  1  0  0  0
 49 51  1  0  0  0  0
 51 52  1  0  0  0  0
 51 53  1  1  0  0  0
 53 54  1  0  0  0  0
 54 55  1  0  0  0  0
 56 57  1  0  0  0  0
 56 49  1  0  0  0  0
 57 52  1  0  0  0  0
 59 60  1  1  0  0  0
 59 58  1  0  0  0  0
 61 59  1  0  0  0  0
 62 61  1  0  0  0  0
 63 62  1  0  0  0  0
 64 67  1  6  0  0  0
 64 65  1  0  0  0  0
 64 63  1  0  0  0  0
 66 65  1  0  0  0  0
 67 68  1  0  0  0  0
 68 69  1  0  0  0  0
 70 69  1  0  0  0  0
M  END
>  <MODEL>
4

>  <REMARK>
 VINA RESULT:       3.1      1.589      2.646
  Name = 
  25 active torsions:
  status: ('A' for Active; 'I' for Inactive)
    1  A    between atoms: N_2  and  C_20
    2  A    between atoms: C_3  and  C_44
    3  A    between atoms: C_4  and  C_30
    4  A    between atoms: C_4  and  C_34
    5  A    between atoms: O_6  and  C_38
    6  A    between atoms: C_10  and  O_39
    7  A    between atoms: C_11  and  O_53
    8  A    between atoms: C_11  and  C_59
    9  A    between atoms: C_12  and  C_67
   10  A    between atoms: C_14  and  C_30
   11  A    between atoms: C_14  and  C_40
   12  A    between atoms: C_20  and  C_50
   13  A    between atoms: C_21  and  C_23
   14  A    between atoms: C_21  and  C_60
   15  A    between atoms: C_25  and  C_50
   16  A    between atoms: C_26  and  N_55
   17  A    between atoms: C_34  and  C_58
   18  A    between atoms: C_38  and  C_40
   19  A    between atoms: C_38  and  C_60
   20  A    between atoms: O_39  and  O_53
   21  A    between atoms: O_47  and  C_58
   22  A    between atoms: O_47  and  C_67
   23  A    between atoms: C_49  and  N_55
   24  A    between atoms: C_49  and  C_67
   25  A    between atoms: C_57  and  C_66
                            x       y       z     vdW  Elec       q    Type
                         _______ _______ _______ _____ _____    ______ ____

>  <TORSDO>
F 25

$$$$
=
 OpenBabel11072412563D

 70 77  0  0  1  0  0  0  0  0999 V2000
  161.8690  208.1180  149.8850 N   0  0  0  0  0  0  0  0  0  0  0  0
  159.7530  208.3290  151.2180 C   0  0  0  0  0  2  0  0  0  0  0  0
  160.4720  207.6700  150.0250 C   0  0  0  0  0  2  0  0  0  0  0  0
  161.9610  209.5700  149.9980 C   0  0  0  0  0  2  0  0  0  0  0  0
  160.7320  209.0080  152.1800 C   0  0  2  0  0  3  0  0  0  0  0  0
  161.6050  210.0330  151.4210 C   0  0  2  0  0  3  0  0  0  0  0  0
  161.2260  205.8000  153.1410 C   0  0  0  0  0  0  0  0  0  0  0  0
  161.8280  204.4280  152.9810 C   0  0  0  0  0  2  0  0  0  0  0  0
  161.9810  208.2560  155.3360 C   0  0  0  0  0  1  0  0  0  0  0  0
  161.5650  206.7520  152.1810 O   0  0  0  0  0  0  0  0  0  0  0  0
  161.0610  207.6440  154.2970 C   0  0  2  0  0  3  0  0  0  0  0  0
  161.0330  206.2570  154.4450 O   0  0  0  0  0  0  0  0  0  0  0  0
  160.3440  204.6670  152.6840 C   0  0  0  0  0  2  0  0  0  0  0  0
  161.5770  207.9480  152.9020 C   0  0  2  0  0  3  0  0  0  0  0  0
  161.0360  212.2880  150.1280 C   0  0  2  0  0  3  0  0  0  0  0  0
  160.9210  211.4070  151.3740 C   0  0  1  0  0  0  0  0  0  0  0  0
  159.7350  211.5450  150.4290 C   0  0  0  0  0  2  0  0  0  0  0  0
  161.0080  211.7890  147.6600 C   0  0  1  0  0  3  0  0  0  0  0  0
  163.2730  213.5610  148.1710 C   0  0  0  0  0  2  0  0  0  0  0  0
  161.8680  212.2020  146.4640 C   0  0  0  0  0  2  0  0  0  0  0  0
  160.3380  210.6010  147.3680 O   0  0  0  0  0  1  0  0  0  0  0  0
  162.9390  214.4080  145.8020 S   0  0  0  0  0  0  0  0  0  0  0  0
  162.6600  213.4280  146.8100 C   0  0  0  0  0  0  0  0  0  0  0  0
  163.2180  212.2270  148.9160 C   0  0  0  0  0  2  0  0  0  0  0  0
  161.7980  211.6370  148.9780 C   0  0  1  0  0  3  0  0  0  0  0  0
  160.8890  212.1740  152.5500 O   0  0  0  0  0  0  0  0  0  0  0  0
  160.6120  211.3400  153.5390 O   0  0  0  0  0  0  0  0  0  0  0  0
  157.7190  211.5920  156.5640 C   0  0  0  0  0  2  0  0  0  0  0  0
  159.8900  212.0650  154.5070 C   0  0  2  0  0  3  0  0  0  0  0  0
  157.5170  214.3930  153.5190 O   0  0  0  0  0  0  0  0  0  0  0  0
  156.2320  213.1200  155.1550 C   0  0  0  0  0  2  0  0  0  0  0  0
  156.2150  213.9970  153.8940 C   0  0  0  0  0  2  0  0  0  0  0  0
  157.6540  212.6460  155.4550 C   0  0  2  0  0  3  0  0  0  0  0  0
  160.2040  211.6400  155.9590 C   0  0  0  0  0  2  0  0  0  0  0  0
  157.8770  210.9850  153.7530 F   0  0  0  0  0  0  0  0  0  0  0  0
  158.3910  212.2010  154.1780 C   0  0  2  0  0  0  0  0  0  0  0  0
  158.1780  213.2350  153.0540 C   0  0  0  0  0  2  0  0  0  0  0  0
  159.0530  210.8300  156.5740 C   0  0  0  0  0  2  0  0  0  0  0  0
  162.4950  207.7020  148.6200 C   0  0  0  0  0  2  0  0  0  0  0  0
  162.3570  206.2120  148.2650 C   0  0  0  0  0  2  0  0  0  0  0  0
  162.8200  207.1070  146.1120 O   0  0  0  0  0  1  0  0  0  0  0  0
  161.8720  204.2900  145.4760 C   0  0  1  0  0  0  0  0  0  0  0  0
  162.5430  205.9120  146.7800 C   0  0  2  0  0  0  0  0  0  0  0  0
  161.3880  205.3440  146.2510 O   0  0  0  0  0  0  0  0  0  0  0  0
  163.2750  204.3760  145.4730 O   0  0  0  0  0  0  0  0  0  0  0  0
  163.5920  205.0200  146.5820 O   0  0  0  0  0  0  0  0  0  0  0  0
  160.2830  202.4670  145.4530 O   0  0  0  0  0  1  0  0  0  0  0  0
  161.4390  202.9320  146.0910 C   0  0  2  0  0  3  0  0  0  0  0  0
  161.3090  202.8110  147.6460 C   0  0  2  0  0  0  0  0  0  0  0  0
  162.5200  203.1630  148.2740 O   0  0  0  0  0  1  0  0  0  0  0  0
  160.9360  201.3600  148.0470 C   0  0  2  0  0  3  0  0  0  0  0  0
  160.9150  201.2240  149.4400 O   0  0  0  0  0  1  0  0  0  0  0  0
  161.8730  200.3010  147.4630 C   0  0  0  0  0  2  0  0  0  0  0  0
  161.0820  199.1930  146.7780 C   0  0  0  0  0  2  0  0  0  0  0  0
  160.8670  199.5210  145.4370 O   0  0  0  0  0  1  0  0  0  0  0  0
  160.2380  203.6490  148.0790 O   0  0  0  0  0  0  0  0  0  0  0  0
  160.4410  204.0880  149.4020 C   0  0  0  0  0  1  0  0  0  0  0  0
  161.3550  204.4700  144.0410 C   0  0  0  0  0  2  0  0  0  0  0  0
  161.6760  205.8410  143.4610 C   0  0  1  0  0  3  0  0  0  0  0  0
  163.0020  206.1390  143.7280 F   0  0  0  0  0  0  0  0  0  0  0  0
  161.4370  205.8160  141.9540 C   0  0  0  0  0  2  0  0  0  0  0  0
  162.4080  206.7330  141.2290 C   0  0  0  0  0  2  0  0  0  0  0  0
  161.9900  206.9330  139.9130 O   0  0  0  0  0  0  0  0  0  0  0  0
  161.5620  208.2620  139.8570 C   0  0  1  0  0  3  0  0  0  0  0  0
  162.5720  209.1600  140.5630 C   0  0  0  0  0  2  0  0  0  0  0  0
  162.7050  210.3750  139.8860 O   0  0  0  0  0  1  0  0  0  0  0  0
  161.4030  208.6990  138.4100 C   0  0  0  0  0  2  0  0  0  0  0  0
  160.1220  208.2420  137.8870 N   0  0  0  0  0  2  0  0  0  0  0  0
  159.1620  209.3140  138.0920 C   0  0  0  0  0  2  0  0  0  0  0  0
  158.2080  209.2960  137.0720 O   0  0  0  0  0  1  0  0  0  0  0  0
  1  4  1  0  0  0  0
  1  3  1  0  0  0  0
  3  2  1  0  0  0  0
  5  2  1  6  0  0  0
  5 14  1  0  0  0  0
  6  4  1  6  0  0  0
  6  5  1  0  0  0  0
  7 12  1  0  0  0  0
  8  7  1  0  0  0  0
 10  7  1  0  0  0  0
 11 12  1  0  0  0  0
 11  9  1  1  0  0  0
 13  8  1  0  0  0  0
 13  7  1  0  0  0  0
 14 10  1  6  0  0  0
 14 11  1  0  0  0  0
 15 17  1  6  0  0  0
 15 16  1  0  0  0  0
 16  6  1  0  0  0  0
 16 26  1  1  0  0  0
 17 16  1  0  0  0  0
 18 21  1  6  0  0  0
 18 25  1  0  0  0  0
 19 24  1  0  0  0  0
 20 23  1  0  0  0  0
 20 18  1  0  0  0  0
 22 23  2  0  0  0  0
 23 19  1  0  0  0  0
 25 24  1  6  0  0  0
 25 15  1  0  0  0  0
 26 27  1  0  0  0  0
 28 38  1  0  0  0  0
 29 27  1  6  0  0  0
 29 34  1  0  0  0  0
 30 32  1  0  0  0  0
 32 31  1  0  0  0  0
 33 31  1  6  0  0  0
 33 28  1  0  0  0  0
 34 38  1  0  0  0  0
 36 35  1  6  0  0  0
 36 29  1  0  0  0  0
 36 33  1  0  0  0  0
 37 30  1  0  0  0  0
 37 36  1  0  0  0  0
 39  1  1  0  0  0  0
 40 39  1  0  0  0  0
 42 58  1  6  0  0  0
 42 48  1  0  0  0  0
 42 44  1  0  0  0  0
 43 41  1  6  0  0  0
 43 40  1  0  0  0  0
 44 43  1  0  0  0  0
 45 42  1  0  0  0  0
 45 46  1  0  0  0  0
 46 43  1  0  0  0  0
 48 47  1  6  0  0  0
 48 49  1  0  0  0  0
 49 51  1  0  0  0  0
 49 56  1  0  0  0  0
 49 50  1  1  0  0  0
 51 52  1  1  0  0  0
 53 51  1  0  0  0  0
 54 53  1  0  0  0  0
 55 54  1  0  0  0  0
 56 57  1  0  0  0  0
 59 60  1  6  0  0  0
 59 58  1  0  0  0  0
 61 59  1  0  0  0  0
 62 61  1  0  0  0  0
 63 62  1  0  0  0  0
 64 67  1  6  0  0  0
 64 63  1  0  0  0  0
 64 65  1  0  0  0  0
 66 65  1  0  0  0  0
 68 69  1  0  0  0  0
 68 67  1  0  0  0  0
 70 69  1  0  0  0  0
M  END
>  <MODEL>
5

>  <REMARK>
 VINA RESULT:       3.7      2.273      4.655
  Name = 
  25 active torsions:
  status: ('A' for Active; 'I' for Inactive)
    1  A    between atoms: N_2  and  C_20
    2  A    between atoms: C_3  and  C_44
    3  A    between atoms: C_4  and  C_30
    4  A    between atoms: C_4  and  C_34
    5  A    between atoms: O_6  and  C_38
    6  A    between atoms: C_10  and  O_39
    7  A    between atoms: C_11  and  O_53
    8  A    between atoms: C_11  and  C_59
    9  A    between atoms: C_12  and  C_67
   10  A    between atoms: C_14  and  C_30
   11  A    between atoms: C_14  and  C_40
   12  A    between atoms: C_20  and  C_50
   13  A    between atoms: C_21  and  C_23
   14  A    between atoms: C_21  and  C_60
   15  A    between atoms: C_25  and  C_50
   16  A    between atoms: C_26  and  N_55
   17  A    between atoms: C_34  and  C_58
   18  A    between atoms: C_38  and  C_40
   19  A    between atoms: C_38  and  C_60
   20  A    between atoms: O_39  and  O_53
   21  A    between atoms: O_47  and  C_58
   22  A    between atoms: O_47  and  C_67
   23  A    between atoms: C_49  and  N_55
   24  A    between atoms: C_49  and  C_67
   25  A    between atoms: C_57  and  C_66
                            x       y       z     vdW  Elec       q    Type
                         _______ _______ _______ _____ _____    ______ ____

>  <TORSDO>
F 25

$$$$
