=
 OpenBabel11072414183D

 34 37  0  0  1  0  0  0  0  0999 V2000
  162.1870  207.2960  150.2990 C   0  0  2  0  0  3  0  0  0  0  0  0
  160.8960  208.4030  156.3600 O   0  0  0  0  0  0  0  0  0  0  0  0
  161.3130  209.1190  155.2500 N   0  0  2  0  0  0  0  0  0  0  0  0
  161.3320  206.0040  152.2230 C   0  0  0  0  0  3  0  0  0  0  0  0
  161.2800  208.5140  152.3580 C   0  0  2  0  0  3  0  0  0  0  0  0
  161.4050  206.0640  150.7300 C   0  0  0  0  0  2  0  0  0  0  0  0
  161.4940  208.5510  150.8370 C   0  0  1  0  0  3  0  0  0  0  0  0
  161.2130  207.1050  152.9800 C   0  0  0  0  0  0  0  0  0  0  0  0
  162.2300  209.6900  150.5030 O   0  0  0  0  0  1  0  0  0  0  0  0
  160.4260  210.2260  154.9520 C   0  0  0  0  0  2  0  0  0  0  0  0
  160.4370  207.9810  155.1540 C   0  0  1  0  0  3  0  0  0  0  0  0
  161.2480  206.9020  154.4780 C   0  0  0  0  0  2  0  0  0  0  0  0
  160.4780  210.4850  153.4370 C   0  0  1  0  0  3  0  0  0  0  0  0
  160.0810  209.2920  152.6800 N   0  0  0  0  0  2  0  0  0  0  0  0
  157.6070  212.9800  153.4030 C   0  0  0  0  0  0  0  0  0  0  0  0
  158.4100  211.8920  153.7600 C   0  0  0  0  0  3  0  0  0  0  0  0
  157.9970  213.8170  152.3520 C   0  0  0  0  0  3  0  0  0  0  0  0
  159.6060  211.6410  153.0720 C   0  0  0  0  0  0  0  0  0  0  0  0
  159.9920  212.4850  152.0240 C   0  0  0  0  0  3  0  0  0  0  0  0
  159.1900  213.5710  151.6650 C   0  0  0  0  0  3  0  0  0  0  0  0
  156.1070  213.2850  154.2590 S   0  0  0  0  0  0  0  0  0  0  0  0
  155.6300  212.0180  154.9120 O   0  0  0  0  0  0  0  0  0  0  0  0
  154.9010  213.8280  153.1460 N   0  0  0  0  0  1  0  0  0  0  0  0
  156.3320  214.3380  155.3070 O   0  0  0  0  0  0  0  0  0  0  0  0
  162.3460  207.3350  148.7790 C   0  0  0  0  0  2  0  0  0  0  0  0
  160.9000  206.6450  147.9070 S   0  0  0  0  0  0  0  0  0  0  0  0
  161.9280  206.0970  146.5050 C   0  0  0  0  0  2  0  0  0  0  0  0
  163.3490  204.3250  145.6910 O   0  0  0  0  0  1  0  0  0  0  0  0
  162.3710  204.6430  146.6380 C   0  0  2  0  0  3  0  0  0  0  0  0
  161.2020  202.9290  145.3980 O   0  0  0  0  0  1  0  0  0  0  0  0
  161.1950  203.6680  146.5830 C   0  0  1  0  0  3  0  0  0  0  0  0
  161.2120  202.7540  147.7630 C   0  0  0  0  0  0  0  0  0  0  0  0
  161.2000  203.2190  148.9350 O   0  0  0  0  0  1  0  0  0  0  0  0
  161.2070  201.3790  147.5680 O   0  0  0  0  0  0  0  0  0  0  0  0
  1 25  1  6  0  0  0
  1  6  1  0  0  0  0
  1  7  1  0  0  0  0
  3 10  1  1  0  0  0
  3  2  1  0  0  0  0
  4  8  2  0  0  0  0
  5 14  1  6  0  0  0
  5  8  1  0  0  0  0
  6  4  1  0  0  0  0
  7  9  1  1  0  0  0
  7  5  1  0  0  0  0
  8 12  1  0  0  0  0
 11 12  1  6  0  0  0
 11  3  1  0  0  0  0
 11  2  1  0  0  0  0
 13 18  1  1  0  0  0
 13 10  1  0  0  0  0
 14 13  1  0  0  0  0
 15 16  1  0  0  0  0
 15 21  1  0  0  0  0
 17 15  2  0  0  0  0
 18 16  2  0  0  0  0
 19 18  1  0  0  0  0
 20 19  2  0  0  0  0
 20 17  1  0  0  0  0
 21 22  2  0  0  0  0
 21 24  2  0  0  0  0
 23 21  1  0  0  0  0
 26 25  1  0  0  0  0
 27 29  1  0  0  0  0
 27 26  1  0  0  0  0
 29 28  1  6  0  0  0
 31 30  1  6  0  0  0
 31 29  1  0  0  0  0
 31 32  1  0  0  0  0
 32 33  1  0  0  0  0
 34 32  2  0  0  0  0
M  END
>  <MODEL>
1

>  <REMARK>
 VINA RESULT:      -8.1      0.000      0.000
  Name = 
  8 active torsions:
  status: ('A' for Active; 'I' for Inactive)
    1  A    between atoms: C_1  and  S_9
    2  A    between atoms: C_4  and  C_11
    3  A    between atoms: C_5  and  C_32
    4  A    between atoms: C_8  and  C_18
    5  A    between atoms: C_11  and  S_27
    6  A    between atoms: C_18  and  C_33
    7  A    between atoms: S_27  and  C_30
    8  A    between atoms: C_30  and  C_33
                            x       y       z     vdW  Elec       q    Type
                         _______ _______ _______ _____ _____    ______ ____

>  <TORSDO>
F 8

$$$$
=
 OpenBabel11072414183D

 34 37  0  0  1  0  0  0  0  0999 V2000
  162.3670  207.4960  150.4140 C   0  0  2  0  0  3  0  0  0  0  0  0
  160.6930  207.9170  156.4670 O   0  0  0  0  0  0  0  0  0  0  0  0
  161.1710  208.7530  155.4730 N   0  0  2  0  0  0  0  0  0  0  0  0
  161.4050  205.9960  152.1250 C   0  0  0  0  0  3  0  0  0  0  0  0
  161.3230  208.4750  152.5350 C   0  0  2  0  0  3  0  0  0  0  0  0
  161.5700  206.2230  150.6550 C   0  0  0  0  0  2  0  0  0  0  0  0
  161.6310  208.6830  151.0440 C   0  0  1  0  0  3  0  0  0  0  0  0
  161.2290  207.0060  152.9900 C   0  0  0  0  0  0  0  0  0  0  0  0
  162.3770  209.8530  150.8860 O   0  0  0  0  0  1  0  0  0  0  0  0
  160.2960  209.8860  155.2450 C   0  0  0  0  0  2  0  0  0  0  0  0
  160.3120  207.6320  155.1960 C   0  0  1  0  0  3  0  0  0  0  0  0
  161.1730  206.6370  154.4560 C   0  0  0  0  0  2  0  0  0  0  0  0
  160.4390  210.3120  153.7750 C   0  0  1  0  0  3  0  0  0  0  0  0
  160.1000  209.2110  152.8660 N   0  0  0  0  0  2  0  0  0  0  0  0
  157.6400  212.8810  153.9570 C   0  0  0  0  0  0  0  0  0  0  0  0
  158.4300  211.7630  154.2420 C   0  0  0  0  0  3  0  0  0  0  0  0
  157.9990  213.7380  152.9110 C   0  0  0  0  0  3  0  0  0  0  0  0
  159.5820  211.5010  153.4860 C   0  0  0  0  0  0  0  0  0  0  0  0
  159.9380  212.3640  152.4440 C   0  0  0  0  0  3  0  0  0  0  0  0
  159.1480  213.4810  152.1560 C   0  0  0  0  0  3  0  0  0  0  0  0
  156.1940  213.2000  154.8970 S   0  0  0  0  0  0  0  0  0  0  0  0
  155.1250  213.7660  154.0050 O   0  0  0  0  0  0  0  0  0  0  0  0
  156.5480  214.3460  156.1410 N   0  0  0  0  0  1  0  0  0  0  0  0
  155.7070  211.9220  155.5180 O   0  0  0  0  0  0  0  0  0  0  0  0
  162.6190  207.7050  148.9200 C   0  0  0  0  0  2  0  0  0  0  0  0
  161.2450  207.0960  147.8870 S   0  0  0  0  0  0  0  0  0  0  0  0
  162.2910  205.7970  147.1520 C   0  0  0  0  0  2  0  0  0  0  0  0
  161.9740  203.4700  147.7080 O   0  0  0  0  0  1  0  0  0  0  0  0
  161.5210  204.5060  146.8870 C   0  0  2  0  0  3  0  0  0  0  0  0
  160.8730  202.9000  145.2000 O   0  0  0  0  0  1  0  0  0  0  0  0
  161.5430  204.1080  145.4110 C   0  0  1  0  0  3  0  0  0  0  0  0
  160.9480  205.1840  144.5650 C   0  0  0  0  0  0  0  0  0  0  0  0
  159.9030  205.7850  144.9350 O   0  0  0  0  0  1  0  0  0  0  0  0
  161.5680  205.5470  143.3780 O   0  0  0  0  0  0  0  0  0  0  0  0
  1 25  1  6  0  0  0
  1  6  1  0  0  0  0
  1  7  1  0  0  0  0
  3 10  1  1  0  0  0
  3  2  1  0  0  0  0
  4  8  2  0  0  0  0
  5 14  1  6  0  0  0
  5  8  1  0  0  0  0
  6  4  1  0  0  0  0
  7  9  1  1  0  0  0
  7  5  1  0  0  0  0
  8 12  1  0  0  0  0
 11 12  1  6  0  0  0
 11  3  1  0  0  0  0
 11  2  1  0  0  0  0
 13 18  1  6  0  0  0
 13 10  1  0  0  0  0
 14 13  1  0  0  0  0
 15 16  1  0  0  0  0
 15 21  1  0  0  0  0
 17 15  2  0  0  0  0
 18 16  2  0  0  0  0
 19 18  1  0  0  0  0
 20 19  2  0  0  0  0
 20 17  1  0  0  0  0
 21 24  2  0  0  0  0
 21 23  1  0  0  0  0
 22 21  2  0  0  0  0
 26 25  1  0  0  0  0
 27 26  1  0  0  0  0
 29 27  1  0  0  0  0
 29 28  1  1  0  0  0
 31 30  1  1  0  0  0
 31 29  1  0  0  0  0
 32 33  1  0  0  0  0
 32 31  1  0  0  0  0
 34 32  2  0  0  0  0
M  END
>  <MODEL>
2

>  <REMARK>
 VINA RESULT:      -8.0      1.225      1.815
  Name = 
  8 active torsions:
  status: ('A' for Active; 'I' for Inactive)
    1  A    between atoms: C_1  and  S_9
    2  A    between atoms: C_4  and  C_11
    3  A    between atoms: C_5  and  C_32
    4  A    between atoms: C_8  and  C_18
    5  A    between atoms: C_11  and  S_27
    6  A    between atoms: C_18  and  C_33
    7  A    between atoms: S_27  and  C_30
    8  A    between atoms: C_30  and  C_33
                            x       y       z     vdW  Elec       q    Type
                         _______ _______ _______ _____ _____    ______ ____

>  <TORSDO>
F 8

$$$$
=
 OpenBabel11072414183D

 34 37  0  0  1  0  0  0  0  0999 V2000
  162.0230  206.6140  152.2370 C   0  0  2  0  0  3  0  0  0  0  0  0
  160.4730  210.7380  156.7320 O   0  0  0  0  0  0  0  0  0  0  0  0
  161.0940  210.7520  155.4940 N   0  0  2  0  0  0  0  0  0  0  0  0
  160.8060  206.5630  154.3860 C   0  0  0  0  0  3  0  0  0  0  0  0
  161.1840  208.7910  153.2860 C   0  0  2  0  0  3  0  0  0  0  0  0
  161.0060  205.8590  153.0800 C   0  0  0  0  0  2  0  0  0  0  0  0
  161.5210  208.0390  151.9890 C   0  0  1  0  0  3  0  0  0  0  0  0
  160.8220  207.9000  154.4900 C   0  0  0  0  0  0  0  0  0  0  0  0
  162.4690  208.7670  151.2670 O   0  0  0  0  0  1  0  0  0  0  0  0
  160.4420  211.6540  154.5670 C   0  0  0  0  0  2  0  0  0  0  0  0
  160.0420  209.8260  155.8240 C   0  0  1  0  0  3  0  0  0  0  0  0
  160.7030  208.4700  155.8860 C   0  0  0  0  0  2  0  0  0  0  0  0
  160.6560  211.1140  153.1440 C   0  0  1  0  0  3  0  0  0  0  0  0
  160.1190  209.7560  153.0030 N   0  0  0  0  0  2  0  0  0  0  0  0
  160.0520  213.1250  149.9730 C   0  0  0  0  0  0  0  0  0  0  0  0
  160.6520  212.2710  150.9040 C   0  0  0  0  0  3  0  0  0  0  0  0
  158.8320  213.7380  150.2770 C   0  0  0  0  0  3  0  0  0  0  0  0
  160.0320  212.0230  152.1360 C   0  0  0  0  0  0  0  0  0  0  0  0
  158.8100  212.6360  152.4330 C   0  0  0  0  0  3  0  0  0  0  0  0
  158.2100  213.4920  151.5040 C   0  0  0  0  0  3  0  0  0  0  0  0
  160.8360  213.4420  148.4360 S   0  0  0  0  0  0  0  0  0  0  0  0
  159.8280  213.9690  147.4530 O   0  0  0  0  0  0  0  0  0  0  0  0
  161.5090  211.9770  147.8130 N   0  0  0  0  0  1  0  0  0  0  0  0
  161.9300  214.4530  148.6280 O   0  0  0  0  0  0  0  0  0  0  0  0
  162.3050  205.8700  150.9310 C   0  0  0  0  0  2  0  0  0  0  0  0
  160.8310  205.0170  150.2790 S   0  0  0  0  0  0  0  0  0  0  0  0
  160.9560  205.8880  148.6830 C   0  0  0  0  0  2  0  0  0  0  0  0
  161.5820  203.6890  147.9120 O   0  0  0  0  0  1  0  0  0  0  0  0
  161.0870  204.9300  147.5020 C   0  0  2  0  0  3  0  0  0  0  0  0
  163.0360  204.7290  146.0860 O   0  0  0  0  0  1  0  0  0  0  0  0
  161.9180  205.5200  146.3630 C   0  0  1  0  0  3  0  0  0  0  0  0
  161.0860  205.6850  145.1340 C   0  0  0  0  0  0  0  0  0  0  0  0
  159.9730  206.2750  145.1880 O   0  0  0  0  0  1  0  0  0  0  0  0
  161.5570  205.2140  143.9160 O   0  0  0  0  0  0  0  0  0  0  0  0
  1 25  1  6  0  0  0
  1  6  1  0  0  0  0
  3 10  1  6  0  0  0
  3 11  1  0  0  0  0
  3  2  1  0  0  0  0
  4  8  2  0  0  0  0
  5 14  1  6  0  0  0
  5  8  1  0  0  0  0
  6  4  1  0  0  0  0
  7  9  1  1  0  0  0
  7  1  1  0  0  0  0
  7  5  1  0  0  0  0
  8 12  1  0  0  0  0
 11 12  1  1  0  0  0
 11  2  1  0  0  0  0
 13 18  1  6  0  0  0
 13 10  1  0  0  0  0
 14 13  1  0  0  0  0
 15 17  2  0  0  0  0
 15 16  1  0  0  0  0
 16 18  2  0  0  0  0
 17 20  1  0  0  0  0
 18 19  1  0  0  0  0
 20 19  2  0  0  0  0
 21 24  2  0  0  0  0
 21 15  1  0  0  0  0
 22 21  2  0  0  0  0
 23 21  1  0  0  0  0
 26 25  1  0  0  0  0
 27 26  1  0  0  0  0
 29 28  1  1  0  0  0
 29 27  1  0  0  0  0
 31 30  1  6  0  0  0
 31 29  1  0  0  0  0
 32 33  1  0  0  0  0
 32 31  1  0  0  0  0
 34 32  2  0  0  0  0
M  END
>  <MODEL>
3

>  <REMARK>
 VINA RESULT:      -7.6      2.572      3.752
  Name = 
  8 active torsions:
  status: ('A' for Active; 'I' for Inactive)
    1  A    between atoms: C_1  and  S_9
    2  A    between atoms: C_4  and  C_11
    3  A    between atoms: C_5  and  C_32
    4  A    between atoms: C_8  and  C_18
    5  A    between atoms: C_11  and  S_27
    6  A    between atoms: C_18  and  C_33
    7  A    between atoms: S_27  and  C_30
    8  A    between atoms: C_30  and  C_33
                            x       y       z     vdW  Elec       q    Type
                         _______ _______ _______ _____ _____    ______ ____

>  <TORSDO>
F 8

$$$$
=
 OpenBabel11072414183D

 34 37  0  0  1  0  0  0  0  0999 V2000
  161.8900  206.5000  151.4420 C   0  0  2  0  0  3  0  0  0  0  0  0
  161.0580  209.9870  156.6160 O   0  0  0  0  0  0  0  0  0  0  0  0
  161.5360  210.1570  155.3270 N   0  0  2  0  0  0  0  0  0  0  0  0
  160.9220  206.1810  153.6930 C   0  0  0  0  0  3  0  0  0  0  0  0
  161.2800  208.5300  152.8740 C   0  0  2  0  0  3  0  0  0  0  0  0
  160.9390  205.6650  152.2870 C   0  0  0  0  0  2  0  0  0  0  0  0
  161.4320  207.9610  151.4550 C   0  0  1  0  0  3  0  0  0  0  0  0
  161.0150  207.4880  153.9770 C   0  0  0  0  0  0  0  0  0  0  0  0
  162.3270  208.7540  150.7330 O   0  0  0  0  0  1  0  0  0  0  0  0
  160.8270  211.2030  154.6170 C   0  0  0  0  0  2  0  0  0  0  0  0
  160.4850  209.2270  155.6480 C   0  0  1  0  0  3  0  0  0  0  0  0
  161.0820  207.8560  155.4430 C   0  0  0  0  0  2  0  0  0  0  0  0
  160.8540  210.8650  153.1180 C   0  0  1  0  0  3  0  0  0  0  0  0
  160.2380  209.5590  152.8550 N   0  0  0  0  0  2  0  0  0  0  0  0
  159.8990  213.2210  150.2890 C   0  0  0  0  0  0  0  0  0  0  0  0
  160.5570  212.2220  151.0140 C   0  0  0  0  0  3  0  0  0  0  0  0
  158.8490  213.9330  150.8790 C   0  0  0  0  0  3  0  0  0  0  0  0
  160.1640  211.9280  152.3270 C   0  0  0  0  0  0  0  0  0  0  0  0
  159.1110  212.6400  152.9110 C   0  0  0  0  0  3  0  0  0  0  0  0
  158.4540  213.6410  152.1880 C   0  0  0  0  0  3  0  0  0  0  0  0
  160.4000  213.5940  148.6500 S   0  0  0  0  0  0  0  0  0  0  0  0
  160.5870  212.3190  147.8750 O   0  0  0  0  0  0  0  0  0  0  0  0
  161.8990  214.4530  148.6790 N   0  0  0  0  0  1  0  0  0  0  0  0
  159.3520  214.4390  147.9840 O   0  0  0  0  0  0  0  0  0  0  0  0
  161.9870  205.9410  150.0220 C   0  0  0  0  0  2  0  0  0  0  0  0
  160.4360  206.1440  149.0830 S   0  0  0  0  0  0  0  0  0  0  0  0
  161.2550  205.7060  147.5150 C   0  0  0  0  0  2  0  0  0  0  0  0
  162.9810  204.2430  146.6760 O   0  0  0  0  0  1  0  0  0  0  0  0
  161.9000  204.3230  147.5580 C   0  0  2  0  0  3  0  0  0  0  0  0
  161.1230  202.5630  146.0940 O   0  0  0  0  0  1  0  0  0  0  0  0
  160.8890  203.2020  147.3150 C   0  0  1  0  0  3  0  0  0  0  0  0
  160.9230  202.2110  148.4320 C   0  0  0  0  0  0  0  0  0  0  0  0
  161.4570  201.0810  148.2700 O   0  0  0  0  0  0  0  0  0  0  0  0
  160.3890  202.5510  149.6680 O   0  0  0  0  0  1  0  0  0  0  0  0
  1 25  1  6  0  0  0
  1  7  1  0  0  0  0
  1  6  1  0  0  0  0
  3 10  1  6  0  0  0
  3 11  1  0  0  0  0
  3  2  1  0  0  0  0
  4  8  2  0  0  0  0
  5 14  1  6  0  0  0
  5  8  1  0  0  0  0
  6  4  1  0  0  0  0
  7  9  1  6  0  0  0
  7  5  1  0  0  0  0
  8 12  1  0  0  0  0
 11 12  1  1  0  0  0
 11  2  1  0  0  0  0
 13 18  1  6  0  0  0
 13 10  1  0  0  0  0
 14 13  1  0  0  0  0
 15 17  2  0  0  0  0
 15 16  1  0  0  0  0
 16 18  2  0  0  0  0
 17 20  1  0  0  0  0
 18 19  1  0  0  0  0
 20 19  2  0  0  0  0
 21 23  1  0  0  0  0
 21 15  1  0  0  0  0
 22 21  2  0  0  0  0
 24 21  2  0  0  0  0
 26 25  1  0  0  0  0
 27 29  1  0  0  0  0
 27 26  1  0  0  0  0
 29 28  1  6  0  0  0
 31 30  1  6  0  0  0
 31 29  1  0  0  0  0
 31 32  1  0  0  0  0
 32 34  1  0  0  0  0
 33 32  2  0  0  0  0
M  END
>  <MODEL>
4

>  <REMARK>
 VINA RESULT:      -7.3      2.483      3.127
  Name = 
  8 active torsions:
  status: ('A' for Active; 'I' for Inactive)
    1  A    between atoms: C_1  and  S_9
    2  A    between atoms: C_4  and  C_11
    3  A    between atoms: C_5  and  C_32
    4  A    between atoms: C_8  and  C_18
    5  A    between atoms: C_11  and  S_27
    6  A    between atoms: C_18  and  C_33
    7  A    between atoms: S_27  and  C_30
    8  A    between atoms: C_30  and  C_33
                            x       y       z     vdW  Elec       q    Type
                         _______ _______ _______ _____ _____    ______ ____

>  <TORSDO>
F 8

$$$$
=
 OpenBabel11072414183D

 34 37  0  0  1  0  0  0  0  0999 V2000
  161.0610  208.0100  153.9540 C   0  0  2  0  0  3  0  0  0  0  0  0
  162.6850  208.4220  147.8860 O   0  0  0  0  0  0  0  0  0  0  0  0
  162.8150  207.5160  148.9260 N   0  0  2  0  0  0  0  0  0  0  0  0
  160.7060  209.6020  152.0980 C   0  0  0  0  0  3  0  0  0  0  0  0
  161.4540  207.2690  151.5360 C   0  0  2  0  0  3  0  0  0  0  0  0
  160.1910  209.1400  153.4260 C   0  0  0  0  0  2  0  0  0  0  0  0
  161.0440  206.8470  152.9570 C   0  0  1  0  0  3  0  0  0  0  0  0
  161.2290  208.7550  151.1990 C   0  0  0  0  0  0  0  0  0  0  0  0
  161.8860  205.8230  153.3940 O   0  0  0  0  0  1  0  0  0  0  0  0
  162.2520  206.2220  148.5950 C   0  0  0  0  0  2  0  0  0  0  0  0
  161.6800  208.3930  148.7990 C   0  0  1  0  0  3  0  0  0  0  0  0
  161.7970  209.3730  149.9410 C   0  0  0  0  0  2  0  0  0  0  0  0
  161.7690  205.5640  149.8970 C   0  0  1  0  0  3  0  0  0  0  0  0
  160.7710  206.3980  150.5770 N   0  0  0  0  0  2  0  0  0  0  0  0
  160.7220  202.3790  148.1010 C   0  0  0  0  0  0  0  0  0  0  0  0
  161.2540  203.6500  148.3370 C   0  0  0  0  0  3  0  0  0  0  0  0
  160.1370  201.6630  149.1510 C   0  0  0  0  0  3  0  0  0  0  0  0
  161.2070  204.2070  149.6230 C   0  0  0  0  0  0  0  0  0  0  0  0
  160.6240  203.4840  150.6700 C   0  0  0  0  0  3  0  0  0  0  0  0
  160.0900  202.2140  150.4350 C   0  0  0  0  0  3  0  0  0  0  0  0
  160.7730  201.6890  146.4890 S   0  0  0  0  0  0  0  0  0  0  0  0
  159.3770  201.5630  145.9480 O   0  0  0  0  0  0  0  0  0  0  0  0
  161.4930  200.1190  146.5490 N   0  0  0  0  0  1  0  0  0  0  0  0
  161.5840  202.5780  145.5890 O   0  0  0  0  0  0  0  0  0  0  0  0
  160.6040  207.5770  155.3470 C   0  0  0  0  0  2  0  0  0  0  0  0
  161.5770  208.3580  156.6770 S   0  0  0  0  0  0  0  0  0  0  0  0
  160.2980  209.6260  156.9550 C   0  0  0  0  0  2  0  0  0  0  0  0
  161.9280  211.4000  156.8310 O   0  0  0  0  0  1  0  0  0  0  0  0
  160.6790  210.9810  156.3650 C   0  0  2  0  0  3  0  0  0  0  0  0
  160.0860  213.3240  156.3270 O   0  0  0  0  0  1  0  0  0  0  0  0
  159.6040  212.0420  156.6010 C   0  0  1  0  0  3  0  0  0  0  0  0
  158.3930  211.7580  155.7750 C   0  0  0  0  0  0  0  0  0  0  0  0
  157.3090  211.4210  156.3230 O   0  0  0  0  0  1  0  0  0  0  0  0
  158.4530  211.8990  154.3950 O   0  0  0  0  0  0  0  0  0  0  0  0
  1 25  1  1  0  0  0
  2 11  1  0  0  0  0
  2  3  1  0  0  0  0
  3 10  1  6  0  0  0
  4  6  1  0  0  0  0
  5 14  1  6  0  0  0
  5  7  1  0  0  0  0
  6  1  1  0  0  0  0
  7  9  1  1  0  0  0
  7  1  1  0  0  0  0
  8  5  1  0  0  0  0
  8  4  2  0  0  0  0
 10 13  1  0  0  0  0
 11  3  1  0  0  0  0
 11 12  1  1  0  0  0
 12  8  1  0  0  0  0
 13 18  1  6  0  0  0
 13 14  1  0  0  0  0
 15 16  2  0  0  0  0
 15 17  1  0  0  0  0
 16 18  1  0  0  0  0
 17 20  2  0  0  0  0
 18 19  2  0  0  0  0
 20 19  1  0  0  0  0
 21 23  1  0  0  0  0
 21 15  1  0  0  0  0
 22 21  2  0  0  0  0
 24 21  2  0  0  0  0
 25 26  1  0  0  0  0
 26 27  1  0  0  0  0
 29 31  1  0  0  0  0
 29 28  1  1  0  0  0
 29 27  1  0  0  0  0
 31 30  1  6  0  0  0
 32 33  1  0  0  0  0
 32 31  1  0  0  0  0
 34 32  2  0  0  0  0
M  END
>  <MODEL>
5

>  <REMARK>
 VINA RESULT:      -6.8      3.328     10.096
  Name = 
  8 active torsions:
  status: ('A' for Active; 'I' for Inactive)
    1  A    between atoms: C_1  and  S_9
    2  A    between atoms: C_4  and  C_11
    3  A    between atoms: C_5  and  C_32
    4  A    between atoms: C_8  and  C_18
    5  A    between atoms: C_11  and  S_27
    6  A    between atoms: C_18  and  C_33
    7  A    between atoms: S_27  and  C_30
    8  A    between atoms: C_30  and  C_33
                            x       y       z     vdW  Elec       q    Type
                         _______ _______ _______ _____ _____    ______ ____

>  <TORSDO>
F 8

$$$$
=
 OpenBabel11072414183D

 34 37  0  0  1  0  0  0  0  0999 V2000
  161.7590  206.2470  149.2810 C   0  0  2  0  0  3  0  0  0  0  0  0
  161.5170  207.3700  155.4700 O   0  0  0  0  0  0  0  0  0  0  0  0
  161.9250  208.0280  154.3210 N   0  0  2  0  0  0  0  0  0  0  0  0
  160.9130  205.0850  151.2910 C   0  0  0  0  0  3  0  0  0  0  0  0
  161.3940  207.5470  151.4550 C   0  0  2  0  0  3  0  0  0  0  0  0
  160.8040  205.1840  149.8010 C   0  0  0  0  0  2  0  0  0  0  0  0
  161.4140  207.5960  149.9190 C   0  0  1  0  0  3  0  0  0  0  0  0
  161.1210  206.1600  152.0660 C   0  0  0  0  0  0  0  0  0  0  0  0
  162.3180  208.5740  149.5000 O   0  0  0  0  0  1  0  0  0  0  0  0
  161.2530  209.3010  154.1550 C   0  0  0  0  0  2  0  0  0  0  0  0
  160.8290  207.0940  154.3330 C   0  0  1  0  0  3  0  0  0  0  0  0
  161.3070  205.8990  153.5450 C   0  0  0  0  0  2  0  0  0  0  0  0
  161.1600  209.5990  152.6500 C   0  0  1  0  0  3  0  0  0  0  0  0
  160.4330  208.5390  151.9410 N   0  0  0  0  0  2  0  0  0  0  0  0
  159.9660  212.7950  150.9680 C   0  0  0  0  0  0  0  0  0  0  0  0
  160.5870  211.5580  151.1690 C   0  0  0  0  0  3  0  0  0  0  0  0
  159.2640  213.3990  152.0170 C   0  0  0  0  0  3  0  0  0  0  0  0
  160.5030  210.9200  152.4150 C   0  0  0  0  0  0  0  0  0  0  0  0
  159.7960  211.5280  153.4580 C   0  0  0  0  0  3  0  0  0  0  0  0
  159.1770  212.7650  153.2600 C   0  0  0  0  0  3  0  0  0  0  0  0
  160.0810  213.5950  149.4120 S   0  0  0  0  0  0  0  0  0  0  0  0
  158.8660  214.4530  149.1920 O   0  0  0  0  0  0  0  0  0  0  0  0
  160.1650  212.4130  148.1540 N   0  0  0  0  0  1  0  0  0  0  0  0
  161.3150  214.4510  149.3770 O   0  0  0  0  0  0  0  0  0  0  0  0
  161.7240  206.3080  147.7540 C   0  0  0  0  0  2  0  0  0  0  0  0
  162.8210  205.0740  146.9790 S   0  0  0  0  0  0  0  0  0  0  0  0
  161.6090  203.7390  147.2430 C   0  0  0  0  0  2  0  0  0  0  0  0
  161.1380  203.5870  144.8810 O   0  0  0  0  0  1  0  0  0  0  0  0
  161.4540  202.8400  146.0200 C   0  0  2  0  0  3  0  0  0  0  0  0
  160.0490  201.1320  145.0440 O   0  0  0  0  0  1  0  0  0  0  0  0
  160.4490  201.7110  146.2510 C   0  0  1  0  0  3  0  0  0  0  0  0
  161.0210  200.6730  147.1580 C   0  0  0  0  0  0  0  0  0  0  0  0
  161.5720  199.6430  146.6850 O   0  0  0  0  0  0  0  0  0  0  0  0
  160.9740  200.8600  148.5330 O   0  0  0  0  0  1  0  0  0  0  0  0
  1 25  1  6  0  0  0
  1  6  1  0  0  0  0
  1  7  1  0  0  0  0
  3 10  1  1  0  0  0
  3 11  1  0  0  0  0
  3  2  1  0  0  0  0
  4  8  2  0  0  0  0
  5 14  1  6  0  0  0
  5  8  1  0  0  0  0
  6  4  1  0  0  0  0
  7  9  1  1  0  0  0
  7  5  1  0  0  0  0
  8 12  1  0  0  0  0
 11 12  1  6  0  0  0
 11  2  1  0  0  0  0
 13 18  1  1  0  0  0
 13 10  1  0  0  0  0
 14 13  1  0  0  0  0
 15 16  2  0  0  0  0
 15 17  1  0  0  0  0
 16 18  1  0  0  0  0
 17 20  2  0  0  0  0
 18 19  2  0  0  0  0
 20 19  1  0  0  0  0
 21 15  1  0  0  0  0
 22 21  2  0  0  0  0
 23 21  1  0  0  0  0
 24 21  2  0  0  0  0
 26 27  1  0  0  0  0
 26 25  1  0  0  0  0
 29 28  1  6  0  0  0
 29 31  1  0  0  0  0
 29 27  1  0  0  0  0
 31 30  1  6  0  0  0
 31 32  1  0  0  0  0
 32 34  1  0  0  0  0
 33 32  2  0  0  0  0
M  END
>  <MODEL>
6

>  <REMARK>
 VINA RESULT:      -6.8      2.673      3.081
  Name = 
  8 active torsions:
  status: ('A' for Active; 'I' for Inactive)
    1  A    between atoms: C_1  and  S_9
    2  A    between atoms: C_4  and  C_11
    3  A    between atoms: C_5  and  C_32
    4  A    between atoms: C_8  and  C_18
    5  A    between atoms: C_11  and  S_27
    6  A    between atoms: C_18  and  C_33
    7  A    between atoms: S_27  and  C_30
    8  A    between atoms: C_30  and  C_33
                            x       y       z     vdW  Elec       q    Type
                         _______ _______ _______ _____ _____    ______ ____

>  <TORSDO>
F 8

$$$$
=
 OpenBabel11072414183D

 34 37  0  0  1  0  0  0  0  0999 V2000
  160.7470  209.7390  154.5550 C   0  0  2  0  0  3  0  0  0  0  0  0
  162.6310  208.9500  148.6010 O   0  0  0  0  0  0  0  0  0  0  0  0
  162.7840  208.3110  149.8200 N   0  0  2  0  0  0  0  0  0  0  0  0
  160.3540  210.8430  152.3800 C   0  0  0  0  0  3  0  0  0  0  0  0
  161.3190  208.5220  152.3780 C   0  0  2  0  0  3  0  0  0  0  0  0
  159.8130  210.6410  153.7610 C   0  0  0  0  0  2  0  0  0  0  0  0
  160.8760  208.3890  153.8430 C   0  0  1  0  0  3  0  0  0  0  0  0
  160.9890  209.8710  151.7090 C   0  0  0  0  0  0  0  0  0  0  0  0
  161.7760  207.5680  154.5240 O   0  0  0  0  0  1  0  0  0  0  0  0
  162.3470  206.9300  149.7710 C   0  0  0  0  0  2  0  0  0  0  0  0
  161.5880  209.0310  149.4660 C   0  0  1  0  0  3  0  0  0  0  0  0
  161.5660  210.2450  150.3620 C   0  0  0  0  0  2  0  0  0  0  0  0
  161.8550  206.5340  151.1720 C   0  0  1  0  0  3  0  0  0  0  0  0
  160.7600  207.4020  151.6170 N   0  0  0  0  0  2  0  0  0  0  0  0
  160.9230  203.0220  150.0480 C   0  0  0  0  0  0  0  0  0  0  0  0
  161.3310  204.3590  150.0090 C   0  0  0  0  0  3  0  0  0  0  0  0
  160.6000  202.4290  151.2740 C   0  0  0  0  0  3  0  0  0  0  0  0
  161.4220  205.1050  151.1930 C   0  0  0  0  0  0  0  0  0  0  0  0
  161.1010  204.5050  152.4150 C   0  0  0  0  0  3  0  0  0  0  0  0
  160.6910  203.1690  152.4570 C   0  0  0  0  0  3  0  0  0  0  0  0
  160.8010  202.0950  148.5640 S   0  0  0  0  0  0  0  0  0  0  0  0
  161.6560  200.8630  148.6650 O   0  0  0  0  0  0  0  0  0  0  0  0
  161.3530  203.0500  147.2340 N   0  0  0  0  0  1  0  0  0  0  0  0
  159.3700  201.6990  148.3360 O   0  0  0  0  0  0  0  0  0  0  0  0
  160.2580  209.5850  155.9950 C   0  0  0  0  0  2  0  0  0  0  0  0
  160.3900  211.1330  156.9490 S   0  0  0  0  0  0  0  0  0  0  0  0
  158.5850  211.3830  156.9130 C   0  0  0  0  0  2  0  0  0  0  0  0
  158.8290  213.7590  157.2610 O   0  0  0  0  0  1  0  0  0  0  0  0
  158.1990  212.7920  156.4720 C   0  0  2  0  0  3  0  0  0  0  0  0
  156.3000  214.1030  157.1940 O   0  0  0  0  0  1  0  0  0  0  0  0
  156.6840  212.9950  156.4340 C   0  0  1  0  0  3  0  0  0  0  0  0
  156.2070  213.1440  155.0270 C   0  0  0  0  0  0  0  0  0  0  0  0
  156.6230  212.3690  154.1240 O   0  0  0  0  0  0  0  0  0  0  0  0
  155.2720  214.1230  154.7180 O   0  0  0  0  0  1  0  0  0  0  0  0
  1 25  1  1  0  0  0
  2 11  1  0  0  0  0
  2  3  1  0  0  0  0
  3 10  1  6  0  0  0
  4  6  1  0  0  0  0
  5 14  1  6  0  0  0
  5  7  1  0  0  0  0
  6  1  1  0  0  0  0
  7  9  1  1  0  0  0
  7  1  1  0  0  0  0
  8  5  1  0  0  0  0
  8  4  2  0  0  0  0
 10 13  1  0  0  0  0
 11  3  1  0  0  0  0
 11 12  1  1  0  0  0
 12  8  1  0  0  0  0
 13 18  1  6  0  0  0
 13 14  1  0  0  0  0
 15 17  1  0  0  0  0
 16 15  2  0  0  0  0
 16 18  1  0  0  0  0
 17 20  2  0  0  0  0
 18 19  2  0  0  0  0
 19 20  1  0  0  0  0
 21 22  2  0  0  0  0
 21 15  1  0  0  0  0
 23 21  1  0  0  0  0
 24 21  2  0  0  0  0
 25 26  1  0  0  0  0
 27 26  1  0  0  0  0
 29 27  1  0  0  0  0
 29 28  1  1  0  0  0
 31 29  1  0  0  0  0
 31 30  1  1  0  0  0
 32 31  1  0  0  0  0
 33 32  2  0  0  0  0
 34 32  1  0  0  0  0
M  END
>  <MODEL>
7

>  <REMARK>
 VINA RESULT:      -6.0      2.954     10.143
  Name = 
  8 active torsions:
  status: ('A' for Active; 'I' for Inactive)
    1  A    between atoms: C_1  and  S_9
    2  A    between atoms: C_4  and  C_11
    3  A    between atoms: C_5  and  C_32
    4  A    between atoms: C_8  and  C_18
    5  A    between atoms: C_11  and  S_27
    6  A    between atoms: C_18  and  C_33
    7  A    between atoms: S_27  and  C_30
    8  A    between atoms: C_30  and  C_33
                            x       y       z     vdW  Elec       q    Type
                         _______ _______ _______ _____ _____    ______ ____

>  <TORSDO>
F 8

$$$$
=
 OpenBabel11072414183D

 34 37  0  0  1  0  0  0  0  0999 V2000
  161.9360  205.8430  147.9710 C   0  0  2  0  0  3  0  0  0  0  0  0
  161.4850  205.8640  154.2490 O   0  0  0  0  0  0  0  0  0  0  0  0
  162.0150  206.6690  153.2540 N   0  0  2  0  0  0  0  0  0  0  0  0
  160.8770  204.4390  149.7050 C   0  0  0  0  0  3  0  0  0  0  0  0
  161.5890  206.7660  150.3320 C   0  0  2  0  0  3  0  0  0  0  0  0
  160.8550  204.8120  148.2560 C   0  0  0  0  0  2  0  0  0  0  0  0
  161.6930  207.0860  148.8320 C   0  0  1  0  0  3  0  0  0  0  0  0
  161.1490  205.3290  150.6700 C   0  0  0  0  0  0  0  0  0  0  0  0
  162.7100  208.0210  148.6290 O   0  0  0  0  0  1  0  0  0  0  0  0
  161.4810  208.0160  153.3010 C   0  0  0  0  0  2  0  0  0  0  0  0
  160.8330  205.8700  153.0590 C   0  0  1  0  0  3  0  0  0  0  0  0
  161.2320  204.7910  152.0810 C   0  0  0  0  0  2  0  0  0  0  0  0
  161.4960  208.5850  151.8730 C   0  0  1  0  0  3  0  0  0  0  0  0
  160.7060  207.7530  150.9590 N   0  0  0  0  0  2  0  0  0  0  0  0
  159.7090  211.7910  152.8710 C   0  0  0  0  0  0  0  0  0  0  0  0
  160.1760  210.4740  152.8990 C   0  0  0  0  0  3  0  0  0  0  0  0
  160.0480  212.6270  151.8010 C   0  0  0  0  0  3  0  0  0  0  0  0
  160.9870  209.9900  151.8620 C   0  0  0  0  0  0  0  0  0  0  0  0
  161.3260  210.8310  150.7970 C   0  0  0  0  0  3  0  0  0  0  0  0
  160.8580  212.1490  150.7660 C   0  0  0  0  0  3  0  0  0  0  0  0
  158.6870  212.3910  154.1640 S   0  0  0  0  0  0  0  0  0  0  0  0
  158.1120  213.7250  153.7780 O   0  0  0  0  0  0  0  0  0  0  0  0
  159.6220  212.5810  155.6050 N   0  0  0  0  0  1  0  0  0  0  0  0
  157.5730  211.4150  154.4160 O   0  0  0  0  0  0  0  0  0  0  0  0
  161.9870  206.1790  146.4800 C   0  0  0  0  0  2  0  0  0  0  0  0
  160.8160  205.1840  145.4980 S   0  0  0  0  0  0  0  0  0  0  0  0
  161.7820  203.6630  145.7710 C   0  0  0  0  0  2  0  0  0  0  0  0
  160.0170  202.6000  144.5160 O   0  0  0  0  0  1  0  0  0  0  0  0
  160.9650  202.3990  145.5230 C   0  0  2  0  0  3  0  0  0  0  0  0
  159.0580  201.3220  146.5490 O   0  0  0  0  0  1  0  0  0  0  0  0
  160.3230  201.8600  146.8020 C   0  0  1  0  0  3  0  0  0  0  0  0
  161.2010  200.8370  147.4430 C   0  0  0  0  0  0  0  0  0  0  0  0
  161.5760  200.9730  148.6390 O   0  0  0  0  0  1  0  0  0  0  0  0
  161.5810  199.7110  146.7260 O   0  0  0  0  0  0  0  0  0  0  0  0
  1 25  1  6  0  0  0
  1  6  1  0  0  0  0
  1  7  1  0  0  0  0
  3 10  1  1  0  0  0
  3  2  1  0  0  0  0
  4  8  2  0  0  0  0
  5  8  1  6  0  0  0
  5 14  1  0  0  0  0
  6  4  1  0  0  0  0
  7  9  1  1  0  0  0
  7  5  1  0  0  0  0
  8 12  1  0  0  0  0
 11 12  1  6  0  0  0
 11  3  1  0  0  0  0
 11  2  1  0  0  0  0
 13 18  1  1  0  0  0
 13 10  1  0  0  0  0
 14 13  1  0  0  0  0
 15 16  1  0  0  0  0
 15 21  1  0  0  0  0
 17 15  2  0  0  0  0
 18 16  2  0  0  0  0
 19 18  1  0  0  0  0
 20 19  2  0  0  0  0
 20 17  1  0  0  0  0
 21 24  2  0  0  0  0
 21 23  1  0  0  0  0
 22 21  2  0  0  0  0
 26 27  1  0  0  0  0
 26 25  1  0  0  0  0
 29 28  1  6  0  0  0
 29 27  1  0  0  0  0
 29 31  1  0  0  0  0
 31 30  1  6  0  0  0
 31 32  1  0  0  0  0
 32 33  1  0  0  0  0
 34 32  2  0  0  0  0
M  END
>  <MODEL>
8

>  <REMARK>
 VINA RESULT:      -5.7      2.121      2.869
  Name = 
  8 active torsions:
  status: ('A' for Active; 'I' for Inactive)
    1  A    between atoms: C_1  and  S_9
    2  A    between atoms: C_4  and  C_11
    3  A    between atoms: C_5  and  C_32
    4  A    between atoms: C_8  and  C_18
    5  A    between atoms: C_11  and  S_27
    6  A    between atoms: C_18  and  C_33
    7  A    between atoms: S_27  and  C_30
    8  A    between atoms: C_30  and  C_33
                            x       y       z     vdW  Elec       q    Type
                         _______ _______ _______ _____ _____    ______ ____

>  <TORSDO>
F 8

$$$$
=
 OpenBabel11072414183D

 34 37  0  0  1  0  0  0  0  0999 V2000
  162.6250  213.3550  141.7450 C   0  0  2  0  0  3  0  0  0  0  0  0
  161.7390  209.3000  137.0120 O   0  0  0  0  0  0  0  0  0  0  0  0
  161.1890  209.5650  138.2550 N   0  0  2  0  0  0  0  0  0  0  0  0
  163.5570  212.9910  139.4860 C   0  0  0  0  0  3  0  0  0  0  0  0
  161.3670  211.9000  140.0580 C   0  0  2  0  0  3  0  0  0  0  0  0
  163.3690  213.9940  140.5810 C   0  0  0  0  0  2  0  0  0  0  0  0
  161.2620  212.8510  141.2610 C   0  0  1  0  0  3  0  0  0  0  0  0
  162.6300  212.0680  139.1920 C   0  0  0  0  0  0  0  0  0  0  0  0
  160.5880  212.2070  142.3000 O   0  0  0  0  0  1  0  0  0  0  0  0
  159.7660  209.8290  138.1770 C   0  0  0  0  0  2  0  0  0  0  0  0
  161.7460  210.5960  137.4180 C   0  0  1  0  0  3  0  0  0  0  0  0
  162.9960  211.0590  138.1260 C   0  0  0  0  0  2  0  0  0  0  0  0
  159.3920  210.7780  139.3270 C   0  0  1  0  0  3  0  0  0  0  0  0
  160.1510  212.0310  139.2520 N   0  0  0  0  0  2  0  0  0  0  0  0
  155.6260  210.3400  139.0170 C   0  0  0  0  0  0  0  0  0  0  0  0
  156.9950  210.0550  139.0200 C   0  0  0  0  0  3  0  0  0  0  0  0
  155.1840  211.6350  139.3080 C   0  0  0  0  0  3  0  0  0  0  0  0
  157.9250  211.0610  139.3180 C   0  0  0  0  0  0  0  0  0  0  0  0
  157.4770  212.3540  139.6120 C   0  0  0  0  0  3  0  0  0  0  0  0
  156.1090  212.6410  139.6080 C   0  0  0  0  0  3  0  0  0  0  0  0
  154.4660  209.0820  138.6340 S   0  0  0  0  0  0  0  0  0  0  0  0
  153.6160  209.5130  137.4720 O   0  0  0  0  0  0  0  0  0  0  0  0
  153.4440  208.7960  139.9980 N   0  0  0  0  0  1  0  0  0  0  0  0
  155.1960  207.8160  138.2820 O   0  0  0  0  0  0  0  0  0  0  0  0
  162.4920  214.3370  142.9090 C   0  0  0  0  0  2  0  0  0  0  0  0
  162.9170  213.5810  144.5140 S   0  0  0  0  0  0  0  0  0  0  0  0
  161.2740  213.9660  145.2020 C   0  0  0  0  0  2  0  0  0  0  0  0
  159.7160  212.1710  145.6110 O   0  0  0  0  0  1  0  0  0  0  0  0
  160.7770  212.8920  146.1650 C   0  0  2  0  0  3  0  0  0  0  0  0
  159.0930  213.1690  147.8770 O   0  0  0  0  0  1  0  0  0  0  0  0
  160.4160  213.4620  147.5370 C   0  0  1  0  0  3  0  0  0  0  0  0
  161.3460  212.9440  148.5840 C   0  0  0  0  0  0  0  0  0  0  0  0
  160.9200  212.6670  149.7370 O   0  0  0  0  0  1  0  0  0  0  0  0
  162.6830  212.7360  148.2740 O   0  0  0  0  0  0  0  0  0  0  0  0
  1 25  1  1  0  0  0
  2 11  1  0  0  0  0
  2  3  1  0  0  0  0
  3 10  1  6  0  0  0
  4  6  1  0  0  0  0
  5  8  1  6  0  0  0
  5  7  1  0  0  0  0
  6  1  1  0  0  0  0
  7  1  1  0  0  0  0
  7  9  1  1  0  0  0
  8  4  2  0  0  0  0
 10 13  1  0  0  0  0
 11 12  1  1  0  0  0
 11  3  1  0  0  0  0
 12  8  1  0  0  0  0
 13 18  1  6  0  0  0
 14 13  1  0  0  0  0
 14  5  1  0  0  0  0
 15 16  2  0  0  0  0
 15 17  1  0  0  0  0
 16 18  1  0  0  0  0
 17 20  2  0  0  0  0
 18 19  2  0  0  0  0
 20 19  1  0  0  0  0
 21 15  1  0  0  0  0
 21 23  1  0  0  0  0
 22 21  2  0  0  0  0
 24 21  2  0  0  0  0
 25 26  1  0  0  0  0
 26 27  1  0  0  0  0
 27 29  1  0  0  0  0
 29 28  1  6  0  0  0
 29 31  1  0  0  0  0
 31 30  1  1  0  0  0
 31 32  1  0  0  0  0
 32 33  1  0  0  0  0
 34 32  2  0  0  0  0
M  END
>  <MODEL>
9

>  <REMARK>
 VINA RESULT:      -5.3      9.507     13.447
  Name = 
  8 active torsions:
  status: ('A' for Active; 'I' for Inactive)
    1  A    between atoms: C_1  and  S_9
    2  A    between atoms: C_4  and  C_11
    3  A    between atoms: C_5  and  C_32
    4  A    between atoms: C_8  and  C_18
    5  A    between atoms: C_11  and  S_27
    6  A    between atoms: C_18  and  C_33
    7  A    between atoms: S_27  and  C_30
    8  A    between atoms: C_30  and  C_33
                            x       y       z     vdW  Elec       q    Type
                         _______ _______ _______ _____ _____    ______ ____

>  <TORSDO>
F 8

$$$$
