=
 OpenBabel11072413193D

 27 31  0  0  1  0  0  0  0  0999 V2000
  161.1930  208.2470  150.6260 N   0  0  0  0  0  0  0  0  0  0  0  0
  160.0650  205.9710  150.2320 C   0  0  0  0  0  2  0  0  0  0  0  0
  161.7790  208.4460  147.9280 O   0  0  0  0  0  0  0  0  0  0  0  0
  161.0720  206.0770  147.5720 C   0  0  0  0  0  0  0  0  0  0  0  0
  161.2000  207.2690  148.4260 C   0  0  0  0  0  0  0  0  0  0  0  0
  160.6690  208.5330  151.9600 C   0  0  2  0  0  3  0  0  0  0  0  0
  161.5240  203.6150  147.6170 C   0  0  0  0  0  3  0  0  0  0  0  0
  160.7360  203.5180  150.3230 C   0  0  0  0  0  0  0  0  0  0  0  0
  162.2630  209.1490  150.2640 C   0  0  2  0  0  3  0  0  0  0  0  0
  161.5350  209.6950  152.4930 C   0  0  0  0  0  2  0  0  0  0  0  0
  161.6780  202.4420  148.3550 C   0  0  0  0  0  3  0  0  0  0  0  0
  160.7960  207.1890  149.7240 C   0  0  0  0  0  0  0  0  0  0  0  0
  162.5900  210.5790  148.3450 O   0  0  0  0  0  0  0  0  0  0  0  0
  161.0360  206.1840  146.3230 O   0  0  0  0  0  0  0  0  0  0  0  0
  161.0490  204.7740  148.2560 C   0  0  0  0  0  0  0  0  0  0  0  0
  162.1400  210.3250  151.2370 C   0  0  0  0  0  2  0  0  0  0  0  0
  162.2000  209.4720  148.7990 C   0  0  0  0  0  0  0  0  0  0  0  0
  161.3050  202.3990  149.7010 C   0  0  0  0  0  3  0  0  0  0  0  0
  160.4990  203.4730  151.7920 C   0  0  0  0  0  1  0  0  0  0  0  0
  160.6160  204.7240  149.6070 C   0  0  0  0  0  0  0  0  0  0  0  0
  162.0240  206.8280  153.1000 C   0  0  0  0  0  2  0  0  0  0  0  0
  160.6900  206.8060  155.0470 N   0  0  0  0  0  0  0  0  0  0  0  0
  161.9710  206.3540  154.5190 C   0  0  0  0  0  2  0  0  0  0  0  0
  160.6840  207.3400  152.8330 N   0  0  1  0  0  0  0  0  0  0  0  0
  160.1140  207.6600  154.0840 N   0  0  0  0  0  2  0  0  0  0  0  0
  160.6220  209.0790  156.1000 C   0  0  0  0  0  1  0  0  0  0  0  0
  160.9190  207.5810  156.2710 C   0  0  0  0  0  2  0  0  0  0  0  0
  1  6  1  0  0  0  0
  3  5  1  0  0  0  0
  3 17  1  0  0  0  0
  4 15  1  0  0  0  0
  4  5  1  0  0  0  0
  5 12  2  0  0  0  0
  6 10  1  1  0  0  0
  6 24  1  0  0  0  0
  7 15  2  0  0  0  0
  7 11  1  0  0  0  0
  8 19  1  0  0  0  0
  9  1  1  0  0  0  0
  9 16  1  1  0  0  0
 11 18  2  0  0  0  0
 12  2  1  0  0  0  0
 12  1  1  0  0  0  0
 13 17  2  0  0  0  0
 14  4  2  0  0  0  0
 15 20  1  0  0  0  0
 16 10  1  0  0  0  0
 17  9  1  0  0  0  0
 18  8  1  0  0  0  0
 20  2  1  0  0  0  0
 20  8  2  0  0  0  0
 21 23  1  0  0  0  0
 22 27  1  0  0  0  0
 23 22  1  0  0  0  0
 24 21  1  1  0  0  0
 24 25  1  0  0  0  0
 25 22  1  0  0  0  0
 26 27  1  0  0  0  0
M  END
>  <MODEL>
1

>  <REMARK>
 VINA RESULT:      -7.2      0.000      0.000
  Name = 
  2 active torsions:
  status: ('A' for Active; 'I' for Inactive)
    1  A    between atoms: N_7  and  C_17
    2  A    between atoms: C_9  and  N_14
                            x       y       z     vdW  Elec       q    Type
                         _______ _______ _______ _____ _____    ______ ____

>  <TORSDO>
F 2

$$$$
=
 OpenBabel11072413193D

 27 31  0  0  1  0  0  0  0  0999 V2000
  160.1610  212.2350  151.4200 N   0  0  0  0  0  0  0  0  0  0  0  0
  161.8340  210.3230  151.0300 C   0  0  0  0  0  2  0  0  0  0  0  0
  159.6120  211.2650  153.9540 O   0  0  0  0  0  0  0  0  0  0  0  0
  160.8990  209.1810  153.4650 C   0  0  0  0  0  0  0  0  0  0  0  0
  160.4540  210.5370  153.1010 C   0  0  0  0  0  0  0  0  0  0  0  0
  160.5620  213.1160  150.3250 C   0  0  2  0  0  3  0  0  0  0  0  0
  161.0790  206.8840  152.4860 C   0  0  0  0  0  3  0  0  0  0  0  0
  161.7980  207.9980  149.9980 C   0  0  0  0  0  0  0  0  0  0  0  0
  158.9080  212.6490  152.0100 C   0  0  2  0  0  3  0  0  0  0  0  0
  159.4190  214.1460  150.1960 C   0  0  0  0  0  2  0  0  0  0  0  0
  161.2060  206.0720  151.3610 C   0  0  0  0  0  3  0  0  0  0  0  0
  160.8330  211.0470  151.8970 C   0  0  0  0  0  0  0  0  0  0  0  0
  158.2810  213.1350  154.2920 O   0  0  0  0  0  0  0  0  0  0  0  0
  160.9390  208.8200  154.6650 O   0  0  0  0  0  0  0  0  0  0  0  0
  161.2310  208.2760  152.3540 C   0  0  0  0  0  0  0  0  0  0  0  0
  158.7070  214.0950  151.5490 C   0  0  0  0  0  2  0  0  0  0  0  0
  158.9240  212.4070  153.4930 C   0  0  0  0  0  0  0  0  0  0  0  0
  161.5440  206.6250  150.1230 C   0  0  0  0  0  3  0  0  0  0  0  0
  162.0020  208.5620  148.6360 C   0  0  0  0  0  1  0  0  0  0  0  0
  161.6300  208.8390  151.1130 C   0  0  0  0  0  0  0  0  0  0  0  0
  159.8160  212.5810  148.0460 C   0  0  0  0  0  2  0  0  0  0  0  0
  161.9920  212.5900  147.1330 N   0  0  0  0  0  0  0  0  0  0  0  0
  160.5830  212.5870  146.7600 C   0  0  0  0  0  2  0  0  0  0  0  0
  160.8260  212.3700  149.0760 N   0  0  1  0  0  0  0  0  0  0  0  0
  162.0600  212.7820  148.5280 N   0  0  0  0  0  2  0  0  0  0  0  0
  162.7060  213.5920  144.9490 C   0  0  0  0  0  1  0  0  0  0  0  0
  162.6600  213.7220  146.4800 C   0  0  0  0  0  2  0  0  0  0  0  0
  1 12  1  0  0  0  0
  1  9  1  0  0  0  0
  2 20  1  0  0  0  0
  2 12  1  0  0  0  0
  4 14  2  0  0  0  0
  5  4  1  0  0  0  0
  5  3  1  0  0  0  0
  6 10  1  6  0  0  0
  6  1  1  0  0  0  0
  8 18  2  0  0  0  0
  8 20  1  0  0  0  0
  9 16  1  1  0  0  0
  9 17  1  0  0  0  0
 10 16  1  0  0  0  0
 11  7  2  0  0  0  0
 12  5  2  0  0  0  0
 15  7  1  0  0  0  0
 15  4  1  0  0  0  0
 17  3  1  0  0  0  0
 17 13  2  0  0  0  0
 18 11  1  0  0  0  0
 19  8  1  0  0  0  0
 20 15  2  0  0  0  0
 22 25  1  0  0  0  0
 23 22  1  0  0  0  0
 23 21  1  0  0  0  0
 24 21  1  6  0  0  0
 24  6  1  0  0  0  0
 25 24  1  0  0  0  0
 26 27  1  0  0  0  0
 27 22  1  0  0  0  0
M  END
>  <MODEL>
2

>  <REMARK>
 VINA RESULT:      -6.6      4.022      6.946
  Name = 
  2 active torsions:
  status: ('A' for Active; 'I' for Inactive)
    1  A    between atoms: N_7  and  C_17
    2  A    between atoms: C_9  and  N_14
                            x       y       z     vdW  Elec       q    Type
                         _______ _______ _______ _____ _____    ______ ____

>  <TORSDO>
F 2

$$$$
=
 OpenBabel11072413193D

 27 31  0  0  1  0  0  0  0  0999 V2000
  161.0690  204.4340  149.8320 N   0  0  0  0  0  0  0  0  0  0  0  0
  160.5780  206.9550  149.9330 C   0  0  0  0  0  2  0  0  0  0  0  0
  160.8960  204.2700  152.5900 O   0  0  0  0  0  0  0  0  0  0  0  0
  160.8310  206.7610  152.7620 C   0  0  0  0  0  0  0  0  0  0  0  0
  160.8170  205.5220  151.9640 C   0  0  0  0  0  0  0  0  0  0  0  0
  160.8280  204.2120  148.4080 C   0  0  2  0  0  3  0  0  0  0  0  0
  161.9640  208.9920  152.8400 C   0  0  0  0  0  3  0  0  0  0  0  0
  161.9220  209.1130  150.0230 C   0  0  0  0  0  0  0  0  0  0  0  0
  161.7150  203.2990  150.4510 C   0  0  2  0  0  3  0  0  0  0  0  0
  161.4300  202.8210  148.1090 C   0  0  0  0  0  2  0  0  0  0  0  0
  162.6210  210.0210  152.1690 C   0  0  0  0  0  3  0  0  0  0  0  0
  160.7830  205.6200  150.6060 C   0  0  0  0  0  0  0  0  0  0  0  0
  161.1400  201.9720  152.3860 O   0  0  0  0  0  0  0  0  0  0  0  0
  160.4610  206.7550  153.9600 O   0  0  0  0  0  0  0  0  0  0  0  0
  161.3480  207.9670  152.0980 C   0  0  0  0  0  0  0  0  0  0  0  0
  161.5030  202.1380  149.4760 C   0  0  0  0  0  2  0  0  0  0  0  0
  161.2060  203.1080  151.8510 C   0  0  0  0  0  0  0  0  0  0  0  0
  162.6170  210.0720  150.7730 C   0  0  0  0  0  3  0  0  0  0  0  0
  162.0740  209.1200  148.5420 C   0  0  0  0  0  1  0  0  0  0  0  0
  161.2920  208.0420  150.6810 C   0  0  0  0  0  0  0  0  0  0  0  0
  162.7080  204.9710  147.0190 C   0  0  0  0  0  2  0  0  0  0  0  0
  161.3380  206.0340  145.4190 N   0  0  0  0  0  0  0  0  0  0  0  0
  162.7040  205.5870  145.6540 C   0  0  0  0  0  2  0  0  0  0  0  0
  161.3960  205.2900  147.5700 N   0  0  1  0  0  0  0  0  0  0  0  0
  160.5430  205.5390  146.4730 N   0  0  0  0  0  2  0  0  0  0  0  0
  160.1590  204.0940  144.3570 C   0  0  0  0  0  1  0  0  0  0  0  0
  160.8490  205.4530  144.1630 C   0  0  0  0  0  2  0  0  0  0  0  0
  1  9  1  0  0  0  0
  1 12  1  0  0  0  0
  2 12  1  0  0  0  0
  2 20  1  0  0  0  0
  4 14  2  0  0  0  0
  5  3  1  0  0  0  0
  5  4  1  0  0  0  0
  6 10  1  6  0  0  0
  6  1  1  0  0  0  0
  8 20  2  0  0  0  0
  8 18  1  0  0  0  0
  9 16  1  6  0  0  0
  9 17  1  0  0  0  0
 10 16  1  0  0  0  0
 11  7  1  0  0  0  0
 12  5  2  0  0  0  0
 15  4  1  0  0  0  0
 15  7  2  0  0  0  0
 17 13  2  0  0  0  0
 17  3  1  0  0  0  0
 18 11  2  0  0  0  0
 19  8  1  0  0  0  0
 20 15  1  0  0  0  0
 22 23  1  0  0  0  0
 22 25  1  0  0  0  0
 23 21  1  0  0  0  0
 24 21  1  6  0  0  0
 24  6  1  0  0  0  0
 25 24  1  0  0  0  0
 27 26  1  0  0  0  0
 27 22  1  0  0  0  0
M  END
>  <MODEL>
3

>  <REMARK>
 VINA RESULT:      -6.6      3.196      7.298
  Name = 
  2 active torsions:
  status: ('A' for Active; 'I' for Inactive)
    1  A    between atoms: N_7  and  C_17
    2  A    between atoms: C_9  and  N_14
                            x       y       z     vdW  Elec       q    Type
                         _______ _______ _______ _____ _____    ______ ____

>  <TORSDO>
F 2

$$$$
=
 OpenBabel11072413193D

 27 31  0  0  1  0  0  0  0  0999 V2000
  160.4640  211.2000  152.0210 N   0  0  0  0  0  0  0  0  0  0  0  0
  161.8950  209.3180  151.0150 C   0  0  0  0  0  2  0  0  0  0  0  0
  160.1440  209.7390  154.3500 O   0  0  0  0  0  0  0  0  0  0  0  0
  161.1670  207.7350  153.2660 C   0  0  0  0  0  0  0  0  0  0  0  0
  160.8060  209.1630  153.2570 C   0  0  0  0  0  0  0  0  0  0  0  0
  160.8060  212.2710  151.0880 C   0  0  2  0  0  3  0  0  0  0  0  0
  161.0160  205.6980  151.8190 C   0  0  0  0  0  3  0  0  0  0  0  0
  161.5220  207.2790  149.5390 C   0  0  0  0  0  0  0  0  0  0  0  0
  159.3360  211.5540  152.8530 C   0  0  2  0  0  3  0  0  0  0  0  0
  159.7540  213.3740  151.3340 C   0  0  0  0  0  2  0  0  0  0  0  0
  160.9290  205.1440  150.5430 C   0  0  0  0  0  3  0  0  0  0  0  0
  161.0790  209.8980  152.1430 C   0  0  0  0  0  0  0  0  0  0  0  0
  159.0400  211.5710  155.2500 O   0  0  0  0  0  0  0  0  0  0  0  0
  161.3200  207.1210  154.3480 O   0  0  0  0  0  0  0  0  0  0  0  0
  161.2760  207.0730  151.9570 C   0  0  0  0  0  0  0  0  0  0  0  0
  159.2120  213.0750  152.7330 C   0  0  0  0  0  2  0  0  0  0  0  0
  159.5120  210.9950  154.2360 C   0  0  0  0  0  0  0  0  0  0  0  0
  161.1620  205.9300  149.4120 C   0  0  0  0  0  3  0  0  0  0  0  0
  161.6080  208.1120  148.3080 C   0  0  0  0  0  1  0  0  0  0  0  0
  161.5690  207.8670  150.8160 C   0  0  0  0  0  0  0  0  0  0  0  0
  160.0050  212.5780  148.7840 C   0  0  0  0  0  2  0  0  0  0  0  0
  162.0860  212.0670  147.7960 N   0  0  0  0  0  0  0  0  0  0  0  0
  160.7750  212.6280  147.5010 C   0  0  0  0  0  2  0  0  0  0  0  0
  160.8460  211.7990  149.6870 N   0  0  1  0  0  0  0  0  0  0  0  0
  162.1650  211.8880  149.1920 N   0  0  0  0  0  2  0  0  0  0  0  0
  162.8460  214.4530  147.8940 C   0  0  0  0  0  1  0  0  0  0  0  0
  163.1220  213.0260  147.3970 C   0  0  0  0  0  2  0  0  0  0  0  0
  1 12  1  0  0  0  0
  1  9  1  0  0  0  0
  2 12  1  0  0  0  0
  4 14  2  0  0  0  0
  5  4  1  0  0  0  0
  5  3  1  0  0  0  0
  6 10  1  6  0  0  0
  6  1  1  0  0  0  0
  7 15  1  0  0  0  0
  8 20  1  0  0  0  0
  9 16  1  1  0  0  0
  9 17  1  0  0  0  0
 10 16  1  0  0  0  0
 11  7  2  0  0  0  0
 12  5  2  0  0  0  0
 15  4  1  0  0  0  0
 17  3  1  0  0  0  0
 17 13  2  0  0  0  0
 18  8  2  0  0  0  0
 18 11  1  0  0  0  0
 19  8  1  0  0  0  0
 20  2  1  0  0  0  0
 20 15  2  0  0  0  0
 22 25  1  0  0  0  0
 23 22  1  0  0  0  0
 23 21  1  0  0  0  0
 24 21  1  6  0  0  0
 24  6  1  0  0  0  0
 25 24  1  0  0  0  0
 27 22  1  0  0  0  0
 27 26  1  0  0  0  0
M  END
>  <MODEL>
4

>  <REMARK>
 VINA RESULT:      -6.4      3.609      6.185
  Name = 
  2 active torsions:
  status: ('A' for Active; 'I' for Inactive)
    1  A    between atoms: N_7  and  C_17
    2  A    between atoms: C_9  and  N_14
                            x       y       z     vdW  Elec       q    Type
                         _______ _______ _______ _____ _____    ______ ____

>  <TORSDO>
F 2

$$$$
=
 OpenBabel11072413193D

 27 31  0  0  1  0  0  0  0  0999 V2000
  161.5690  207.8430  151.4480 N   0  0  0  0  0  0  0  0  0  0  0  0
  161.6670  210.2840  152.2470 C   0  0  0  0  0  2  0  0  0  0  0  0
  162.1690  208.6440  148.8660 O   0  0  0  0  0  0  0  0  0  0  0  0
  161.8650  211.0380  149.5090 C   0  0  0  0  0  0  0  0  0  0  0  0
  161.9560  209.6110  149.8600 C   0  0  0  0  0  0  0  0  0  0  0  0
  161.6310  207.1760  152.7460 C   0  0  2  0  0  3  0  0  0  0  0  0
  160.4180  213.0380  149.9280 C   0  0  0  0  0  3  0  0  0  0  0  0
  160.0270  212.1990  152.5910 C   0  0  0  0  0  0  0  0  0  0  0  0
  161.2080  206.9270  150.3900 C   0  0  2  0  0  3  0  0  0  0  0  0
  161.2190  205.7140  152.4690 C   0  0  0  0  0  2  0  0  0  0  0  0
  159.5150  213.7070  150.7520 C   0  0  0  0  0  3  0  0  0  0  0  0
  161.7750  209.2450  151.1590 C   0  0  0  0  0  0  0  0  0  0  0  0
  162.2620  206.4010  148.2810 O   0  0  0  0  0  0  0  0  0  0  0  0
  162.4020  211.4770  148.4650 O   0  0  0  0  0  0  0  0  0  0  0  0
  161.0720  211.8890  150.4090 C   0  0  0  0  0  0  0  0  0  0  0  0
  161.4550  205.5320  150.9680 C   0  0  0  0  0  2  0  0  0  0  0  0
  161.9410  207.2750  149.1250 C   0  0  0  0  0  0  0  0  0  0  0  0
  159.3070  213.2810  152.0670 C   0  0  0  0  0  3  0  0  0  0  0  0
  159.6600  211.6870  153.9400 C   0  0  0  0  0  1  0  0  0  0  0  0
  160.9080  211.4840  151.7600 C   0  0  0  0  0  0  0  0  0  0  0  0
  160.0810  206.9140  154.6360 C   0  0  0  0  0  2  0  0  0  0  0  0
  160.9500  208.7470  155.8420 N   0  0  0  0  0  0  0  0  0  0  0  0
  160.0790  207.5860  155.9730 C   0  0  0  0  0  2  0  0  0  0  0  0
  160.7840  207.8430  153.7580 N   0  0  1  0  0  0  0  0  0  0  0  0
  161.5860  208.6580  154.5870 N   0  0  0  0  0  2  0  0  0  0  0  0
  162.7060  210.0360  157.0800 C   0  0  0  0  0  1  0  0  0  0  0  0
  161.9820  208.6960  156.8850 C   0  0  0  0  0  2  0  0  0  0  0  0
  1  6  1  0  0  0  0
  3 17  1  0  0  0  0
  3  5  1  0  0  0  0
  4  5  1  0  0  0  0
  4 15  1  0  0  0  0
  5 12  2  0  0  0  0
  6 10  1  6  0  0  0
  6 24  1  0  0  0  0
  7 15  2  0  0  0  0
  7 11  1  0  0  0  0
  8 19  1  0  0  0  0
  9 16  1  1  0  0  0
  9  1  1  0  0  0  0
 11 18  2  0  0  0  0
 12  1  1  0  0  0  0
 12  2  1  0  0  0  0
 13 17  2  0  0  0  0
 14  4  2  0  0  0  0
 15 20  1  0  0  0  0
 16 10  1  0  0  0  0
 17  9  1  0  0  0  0
 18  8  1  0  0  0  0
 20  2  1  0  0  0  0
 20  8  2  0  0  0  0
 21 23  1  0  0  0  0
 22 23  1  0  0  0  0
 22 27  1  0  0  0  0
 24 25  1  0  0  0  0
 24 21  1  1  0  0  0
 25 22  1  0  0  0  0
 27 26  1  0  0  0  0
M  END
>  <MODEL>
5

>  <REMARK>
 VINA RESULT:      -5.8      2.064      5.541
  Name = 
  2 active torsions:
  status: ('A' for Active; 'I' for Inactive)
    1  A    between atoms: N_7  and  C_17
    2  A    between atoms: C_9  and  N_14
                            x       y       z     vdW  Elec       q    Type
                         _______ _______ _______ _____ _____    ______ ____

>  <TORSDO>
F 2

$$$$
=
 OpenBabel11072413193D

 27 31  0  0  1  0  0  0  0  0999 V2000
  161.2690  203.4340  150.1110 N   0  0  0  0  0  0  0  0  0  0  0  0
  162.2820  204.2990  147.9130 C   0  0  0  0  0  2  0  0  0  0  0  0
  160.3650  201.1570  148.8210 O   0  0  0  0  0  0  0  0  0  0  0  0
  160.9620  202.1420  146.6050 C   0  0  0  0  0  0  0  0  0  0  0  0
  160.9690  202.1800  148.0770 C   0  0  0  0  0  0  0  0  0  0  0  0
  161.9580  204.3220  151.0450 C   0  0  2  0  0  3  0  0  0  0  0  0
  160.4560  203.6080  144.6400 C   0  0  0  0  0  3  0  0  0  0  0  0
  161.5640  205.8160  146.0000 C   0  0  0  0  0  0  0  0  0  0  0  0
  160.1860  202.7190  150.7490 C   0  0  2  0  0  3  0  0  0  0  0  0
  161.1930  204.1780  152.3780 C   0  0  0  0  0  2  0  0  0  0  0  0
  160.3630  204.8890  144.0990 C   0  0  0  0  0  3  0  0  0  0  0  0
  161.5260  203.2560  148.6990 C   0  0  0  0  0  0  0  0  0  0  0  0
  159.6650  200.3650  150.8860 O   0  0  0  0  0  0  0  0  0  0  0  0
  160.8490  201.0530  145.9940 O   0  0  0  0  0  0  0  0  0  0  0  0
  161.0350  203.4370  145.9110 C   0  0  0  0  0  0  0  0  0  0  0  0
  160.4560  202.8430  152.2500 C   0  0  0  0  0  2  0  0  0  0  0  0
  160.0790  201.3280  150.1920 C   0  0  0  0  0  0  0  0  0  0  0  0
  160.8960  205.9860  144.7800 C   0  0  0  0  0  3  0  0  0  0  0  0
  161.9770  207.0270  146.7610 C   0  0  0  0  0  1  0  0  0  0  0  0
  161.6270  204.5370  146.5840 C   0  0  0  0  0  0  0  0  0  0  0  0
  160.7090  206.2900  150.2630 C   0  0  0  0  0  2  0  0  0  0  0  0
  162.1130  207.8420  151.3520 N   0  0  0  0  0  0  0  0  0  0  0  0
  160.8310  207.7250  150.6700 C   0  0  0  0  0  2  0  0  0  0  0  0
  162.0190  205.7140  150.5490 N   0  0  1  0  0  0  0  0  0  0  0  0
  162.6220  206.5390  151.5230 N   0  0  0  0  0  2  0  0  0  0  0  0
  161.1560  207.4920  153.6420 C   0  0  0  0  0  1  0  0  0  0  0  0
  161.9010  208.4300  152.6800 C   0  0  0  0  0  2  0  0  0  0  0  0
  1  9  1  0  0  0  0
  1  6  1  0  0  0  0
  2 12  1  0  0  0  0
  3 17  1  0  0  0  0
  4  5  1  0  0  0  0
  5 12  2  0  0  0  0
  5  3  1  0  0  0  0
  6 10  1  1  0  0  0
  7 15  1  0  0  0  0
  8 20  1  0  0  0  0
  8 19  1  0  0  0  0
  9 16  1  1  0  0  0
 11  7  2  0  0  0  0
 11 18  1  0  0  0  0
 12  1  1  0  0  0  0
 14  4  2  0  0  0  0
 15 20  2  0  0  0  0
 15  4  1  0  0  0  0
 16 10  1  0  0  0  0
 17  9  1  0  0  0  0
 17 13  2  0  0  0  0
 18  8  2  0  0  0  0
 20  2  1  0  0  0  0
 21 23  1  0  0  0  0
 22 25  1  0  0  0  0
 22 27  1  0  0  0  0
 23 22  1  0  0  0  0
 24 21  1  1  0  0  0
 24  6  1  0  0  0  0
 24 25  1  0  0  0  0
 27 26  1  0  0  0  0
M  END
>  <MODEL>
6

>  <REMARK>
 VINA RESULT:      -5.7      3.161      5.356
  Name = 
  2 active torsions:
  status: ('A' for Active; 'I' for Inactive)
    1  A    between atoms: N_7  and  C_17
    2  A    between atoms: C_9  and  N_14
                            x       y       z     vdW  Elec       q    Type
                         _______ _______ _______ _____ _____    ______ ____

>  <TORSDO>
F 2

$$$$
=
 OpenBabel11072413193D

 27 31  0  0  1  0  0  0  0  0999 V2000
  158.7230  212.2050  153.6530 N   0  0  0  0  0  0  0  0  0  0  0  0
  160.7930  210.7530  153.1940 C   0  0  0  0  0  2  0  0  0  0  0  0
  158.3530  210.9430  156.0900 O   0  0  0  0  0  0  0  0  0  0  0  0
  160.0900  209.2460  155.5050 C   0  0  0  0  0  0  0  0  0  0  0  0
  159.3570  210.4920  155.2210 C   0  0  0  0  0  0  0  0  0  0  0  0
  158.9380  213.2350  152.6400 C   0  0  2  0  0  3  0  0  0  0  0  0
  160.8070  207.1300  154.3750 C   0  0  0  0  0  3  0  0  0  0  0  0
  161.3080  208.5660  152.0010 C   0  0  0  0  0  0  0  0  0  0  0  0
  157.3960  212.2800  154.2230 C   0  0  2  0  0  3  0  0  0  0  0  0
  157.5940  213.9890  152.5390 C   0  0  0  0  0  2  0  0  0  0  0  0
  161.1390  206.4570  153.2010 C   0  0  0  0  0  3  0  0  0  0  0  0
  159.6360  211.1650  154.0710 C   0  0  0  0  0  0  0  0  0  0  0  0
  156.6260  212.4350  156.5070 O   0  0  0  0  0  0  0  0  0  0  0  0
  160.1840  208.8120  156.6770 O   0  0  0  0  0  0  0  0  0  0  0  0
  160.6420  208.5270  154.3470 C   0  0  0  0  0  0  0  0  0  0  0  0
  156.8830  213.6750  153.8570 C   0  0  0  0  0  2  0  0  0  0  0  0
  157.4350  211.9350  155.6840 C   0  0  0  0  0  0  0  0  0  0  0  0
  161.3700  207.1660  152.0200 C   0  0  0  0  0  3  0  0  0  0  0  0
  161.4080  209.2650  150.6900 C   0  0  0  0  0  1  0  0  0  0  0  0
  160.9290  209.2590  153.1650 C   0  0  0  0  0  0  0  0  0  0  0  0
  158.4770  212.9270  150.2450 C   0  0  0  0  0  2  0  0  0  0  0  0
  160.7270  213.2030  149.5880 N   0  0  0  0  0  0  0  0  0  0  0  0
  159.3690  213.1420  149.0620 C   0  0  0  0  0  2  0  0  0  0  0  0
  159.3910  212.6660  151.3520 N   0  0  1  0  0  0  0  0  0  0  0  0
  160.6340  213.2300  150.9950 N   0  0  0  0  0  2  0  0  0  0  0  0
  162.4820  214.2240  148.1200 C   0  0  0  0  0  1  0  0  0  0  0  0
  161.3610  214.4500  149.1450 C   0  0  0  0  0  2  0  0  0  0  0  0
  1 12  1  0  0  0  0
  1  9  1  0  0  0  0
  2 12  1  0  0  0  0
  4 14  2  0  0  0  0
  5  4  1  0  0  0  0
  5  3  1  0  0  0  0
  6 10  1  6  0  0  0
  6  1  1  0  0  0  0
  8 18  2  0  0  0  0
  8 20  1  0  0  0  0
  9 16  1  1  0  0  0
  9 17  1  0  0  0  0
 10 16  1  0  0  0  0
 11  7  2  0  0  0  0
 12  5  2  0  0  0  0
 15  7  1  0  0  0  0
 15  4  1  0  0  0  0
 17  3  1  0  0  0  0
 17 13  2  0  0  0  0
 18 11  1  0  0  0  0
 19  8  1  0  0  0  0
 20  2  1  0  0  0  0
 20 15  2  0  0  0  0
 22 25  1  0  0  0  0
 23 22  1  0  0  0  0
 23 21  1  0  0  0  0
 24 21  1  6  0  0  0
 24  6  1  0  0  0  0
 25 24  1  0  0  0  0
 26 27  1  0  0  0  0
 27 22  1  0  0  0  0
M  END
>  <MODEL>
7

>  <REMARK>
 VINA RESULT:      -5.4      4.741      7.504
  Name = 
  2 active torsions:
  status: ('A' for Active; 'I' for Inactive)
    1  A    between atoms: N_7  and  C_17
    2  A    between atoms: C_9  and  N_14
                            x       y       z     vdW  Elec       q    Type
                         _______ _______ _______ _____ _____    ______ ____

>  <TORSDO>
F 2

$$$$
=
 OpenBabel11072413193D

 27 31  0  0  1  0  0  0  0  0999 V2000
  161.6270  204.8260  150.1880 N   0  0  0  0  0  0  0  0  0  0  0  0
  162.3200  204.2410  147.7830 C   0  0  0  0  0  2  0  0  0  0  0  0
  160.7290  202.2370  150.5800 O   0  0  0  0  0  0  0  0  0  0  0  0
  161.0010  201.7450  148.1470 C   0  0  0  0  0  0  0  0  0  0  0  0
  161.1760  202.6300  149.3110 C   0  0  0  0  0  0  0  0  0  0  0  0
  162.3600  206.0810  150.3380 C   0  0  2  0  0  3  0  0  0  0  0  0
  160.1770  201.8070  145.7840 C   0  0  0  0  0  3  0  0  0  0  0  0
  161.2890  204.3770  145.4610 C   0  0  0  0  0  0  0  0  0  0  0  0
  160.6740  204.6300  151.2570 C   0  0  2  0  0  3  0  0  0  0  0  0
  161.7660  206.7490  151.5970 C   0  0  0  0  0  2  0  0  0  0  0  0
  159.9390  202.5370  144.6210 C   0  0  0  0  0  3  0  0  0  0  0  0
  161.7300  203.8590  149.1180 C   0  0  0  0  0  0  0  0  0  0  0  0
  160.3260  202.8000  152.7950 O   0  0  0  0  0  0  0  0  0  0  0  0
  160.8890  200.5050  148.2970 O   0  0  0  0  0  0  0  0  0  0  0  0
  160.9080  202.3960  146.8310 C   0  0  0  0  0  0  0  0  0  0  0  0
  161.1070  205.5980  152.3610 C   0  0  0  0  0  2  0  0  0  0  0  0
  160.5930  203.1760  151.6250 C   0  0  0  0  0  0  0  0  0  0  0  0
  160.4740  203.8180  144.4670 C   0  0  0  0  0  3  0  0  0  0  0  0
  161.7080  205.7990  145.3220 C   0  0  0  0  0  1  0  0  0  0  0  0
  161.5020  203.6740  146.6610 C   0  0  0  0  0  0  0  0  0  0  0  0
  160.9040  207.2280  148.7230 C   0  0  0  0  0  2  0  0  0  0  0  0
  162.2940  209.1260  148.5380 N   0  0  0  0  0  0  0  0  0  0  0  0
  160.9630  208.6330  148.2100 C   0  0  0  0  0  2  0  0  0  0  0  0
  162.2730  206.9270  149.1270 N   0  0  1  0  0  0  0  0  0  0  0  0
  162.9090  208.1640  149.3650 N   0  0  0  0  0  2  0  0  0  0  0  0
  162.0130  211.6130  148.4000 C   0  0  0  0  0  1  0  0  0  0  0  0
  162.1720  210.3760  149.2970 C   0  0  0  0  0  2  0  0  0  0  0  0
  1  6  1  0  0  0  0
  1  9  1  0  0  0  0
  2 12  1  0  0  0  0
  3 17  1  0  0  0  0
  4 14  2  0  0  0  0
  4  5  1  0  0  0  0
  5  3  1  0  0  0  0
  6 10  1  1  0  0  0
  7 15  1  0  0  0  0
  8 20  1  0  0  0  0
  9 17  1  0  0  0  0
  9 16  1  1  0  0  0
 10 16  1  0  0  0  0
 11  7  2  0  0  0  0
 12  5  2  0  0  0  0
 12  1  1  0  0  0  0
 15  4  1  0  0  0  0
 17 13  2  0  0  0  0
 18 11  1  0  0  0  0
 18  8  2  0  0  0  0
 19  8  1  0  0  0  0
 20 15  2  0  0  0  0
 20  2  1  0  0  0  0
 22 27  1  0  0  0  0
 22 25  1  0  0  0  0
 23 22  1  0  0  0  0
 23 21  1  0  0  0  0
 24 21  1  1  0  0  0
 24 25  1  0  0  0  0
 24  6  1  0  0  0  0
 26 27  1  0  0  0  0
M  END
>  <MODEL>
8

>  <REMARK>
 VINA RESULT:      -5.1      3.453      5.459
  Name = 
  2 active torsions:
  status: ('A' for Active; 'I' for Inactive)
    1  A    between atoms: N_7  and  C_17
    2  A    between atoms: C_9  and  N_14
                            x       y       z     vdW  Elec       q    Type
                         _______ _______ _______ _____ _____    ______ ____

>  <TORSDO>
F 2

$$$$
=
 OpenBabel11072413193D

 27 31  0  0  1  0  0  0  0  0999 V2000
  161.7910  208.8040  150.9210 N   0  0  0  0  0  0  0  0  0  0  0  0
  161.5760  211.3110  151.4460 C   0  0  0  0  0  2  0  0  0  0  0  0
  162.2920  209.3840  148.2610 O   0  0  0  0  0  0  0  0  0  0  0  0
  161.6860  211.7770  148.6400 C   0  0  0  0  0  0  0  0  0  0  0  0
  161.9560  210.4200  149.1440 C   0  0  0  0  0  0  0  0  0  0  0  0
  161.9320  208.2960  152.2840 C   0  0  2  0  0  3  0  0  0  0  0  0
  159.9970  213.6120  148.8520 C   0  0  0  0  0  3  0  0  0  0  0  0
  159.7060  213.0290  151.5960 C   0  0  0  0  0  0  0  0  0  0  0  0
  161.5520  207.7380  149.9730 C   0  0  2  0  0  3  0  0  0  0  0  0
  161.7100  206.7720  152.1730 C   0  0  0  0  0  2  0  0  0  0  0  0
  159.0140  214.2490  149.6080 C   0  0  0  0  0  3  0  0  0  0  0  0
  161.8190  210.1790  150.4770 C   0  0  0  0  0  0  0  0  0  0  0  0
  162.6710  207.1200  147.9240 O   0  0  0  0  0  0  0  0  0  0  0  0
  162.1670  212.1620  147.5480 O   0  0  0  0  0  0  0  0  0  0  0  0
  160.7890  212.6150  149.4500 C   0  0  0  0  0  0  0  0  0  0  0  0
  161.9720  206.4570  150.6990 C   0  0  0  0  0  2  0  0  0  0  0  0
  162.2390  208.0350  148.6710 C   0  0  0  0  0  0  0  0  0  0  0  0
  158.8570  213.9480  150.9630 C   0  0  0  0  0  3  0  0  0  0  0  0
  159.4030  212.6270  152.9970 C   0  0  0  0  0  1  0  0  0  0  0  0
  160.6730  212.3430  150.8380 C   0  0  0  0  0  0  0  0  0  0  0  0
  160.4560  208.0600  154.2350 C   0  0  0  0  0  2  0  0  0  0  0  0
  161.0530  210.1430  155.1700 N   0  0  0  0  0  0  0  0  0  0  0  0
  160.3660  208.8940  155.4740 C   0  0  0  0  0  2  0  0  0  0  0  0
  161.0040  208.9590  153.2250 N   0  0  1  0  0  0  0  0  0  0  0  0
  161.6830  209.9840  153.9190 N   0  0  0  0  0  2  0  0  0  0  0  0
  162.3060  209.1820  157.1160 C   0  0  0  0  0  1  0  0  0  0  0  0
  162.0900  210.3810  156.1810 C   0  0  0  0  0  2  0  0  0  0  0  0
  1  6  1  0  0  0  0
  3 17  1  0  0  0  0
  3  5  1  0  0  0  0
  4  5  1  0  0  0  0
  4 15  1  0  0  0  0
  5 12  2  0  0  0  0
  6 10  1  6  0  0  0
  6 24  1  0  0  0  0
  7 15  2  0  0  0  0
  7 11  1  0  0  0  0
  8 19  1  0  0  0  0
  9 16  1  1  0  0  0
  9  1  1  0  0  0  0
 11 18  2  0  0  0  0
 12  1  1  0  0  0  0
 12  2  1  0  0  0  0
 13 17  2  0  0  0  0
 14  4  2  0  0  0  0
 15 20  1  0  0  0  0
 16 10  1  0  0  0  0
 17  9  1  0  0  0  0
 18  8  1  0  0  0  0
 20  2  1  0  0  0  0
 20  8  2  0  0  0  0
 21 23  1  0  0  0  0
 22 23  1  0  0  0  0
 22 27  1  0  0  0  0
 24 25  1  0  0  0  0
 24 21  1  1  0  0  0
 25 22  1  0  0  0  0
 27 26  1  0  0  0  0
M  END
>  <MODEL>
9

>  <REMARK>
 VINA RESULT:      -4.9      2.531      5.825
  Name = 
  2 active torsions:
  status: ('A' for Active; 'I' for Inactive)
    1  A    between atoms: N_7  and  C_17
    2  A    between atoms: C_9  and  N_14
                            x       y       z     vdW  Elec       q    Type
                         _______ _______ _______ _____ _____    ______ ____

>  <TORSDO>
F 2

$$$$
