=
 OpenBabel11072412243D

 27 30  0  0  1  0  0  0  0  0999 V2000
  160.7970  206.3530  150.3080 C   0  0  1  0  0  3  0  0  0  0  0  0
  161.0410  204.7130  147.0030 C   0  0  2  0  0  3  0  0  0  0  0  0
  161.0370  206.9050  152.7580 C   0  0  0  0  0  0  0  0  0  0  0  0
  162.3500  205.9640  146.7020 S   0  0  0  0  0  0  0  0  0  0  0  0
  161.0370  208.2810  152.4490 C   0  0  0  0  0  0  0  0  0  0  0  0
  161.3270  205.8850  151.6710 C   0  0  1  0  0  3  0  0  0  0  0  0
  161.1640  207.7480  150.0740 N   0  0  0  0  0  0  0  0  0  0  0  0
  162.1480  206.4560  148.3980 C   0  0  1  0  0  3  0  0  0  0  0  0
  161.9580  207.7940  148.9040 C   0  0  0  0  0  0  0  0  0  0  0  0
  160.7120  208.8220  154.7860 C   0  0  0  0  0  3  0  0  0  0  0  0
  162.4180  208.8500  148.3980 O   0  0  0  0  0  0  0  0  0  0  0  0
  160.9740  204.4100  148.5020 C   0  0  0  0  0  2  0  0  0  0  0  0
  160.8980  206.5090  154.0970 C   0  0  0  0  0  3  0  0  0  0  0  0
  161.4790  205.6300  149.1730 C   0  0  2  0  0  3  0  0  0  0  0  0
  160.8740  209.2320  153.4600 C   0  0  0  0  0  3  0  0  0  0  0  0
  161.2210  208.7030  151.0980 N   0  0  0  0  0  2  0  0  0  0  0  0
  160.7260  207.4630  155.1040 C   0  0  0  0  0  3  0  0  0  0  0  0
  160.7210  202.3080  146.5770 C   0  0  0  0  0  3  0  0  0  0  0  0
  161.9940  203.5720  145.0190 O   0  0  0  0  0  1  0  0  0  0  0  0
  161.2600  203.4730  146.1940 C   0  0  0  0  0  0  0  0  0  0  0  0
  161.3500  199.8960  146.4790 C   0  0  0  0  0  0  0  0  0  0  0  0
  161.5890  199.8310  147.8120 F   0  0  0  0  0  0  0  0  0  0  0  0
  160.9010  201.0100  145.9000 C   0  0  0  0  0  3  0  0  0  0  0  0
  161.4840  198.7740  145.7330 F   0  0  0  0  0  0  0  0  0  0  0  0
  160.7430  204.5880  151.9960 N   0  0  0  0  0  2  0  0  0  0  0  0
  161.2510  202.3810  151.4410 O   0  0  0  0  0  1  0  0  0  0  0  0
  161.7960  203.5910  151.8700 C   0  0  0  0  0  2  0  0  0  0  0  0
  1  7  1  6  0  0  0
  1  6  1  0  0  0  0
  2 20  1  6  0  0  0
  2 12  1  0  0  0  0
  3 13  1  0  0  0  0
  4  2  1  0  0  0  0
  5  3  2  0  0  0  0
  5 15  1  0  0  0  0
  6 25  1  1  0  0  0
  6  3  1  0  0  0  0
  7 16  1  0  0  0  0
  8  4  1  6  0  0  0
  8  9  1  0  0  0  0
  8 14  1  0  0  0  0
  9  7  1  0  0  0  0
 10 17  1  0  0  0  0
 11  9  2  0  0  0  0
 13 17  2  0  0  0  0
 14 12  1  6  0  0  0
 14  1  1  0  0  0  0
 15 10  2  0  0  0  0
 16  5  1  0  0  0  0
 19 20  1  0  0  0  0
 20 18  2  0  0  0  0
 21 22  1  0  0  0  0
 23 21  2  0  0  0  0
 23 18  1  0  0  0  0
 24 21  1  0  0  0  0
 26 27  1  0  0  0  0
 27 25  1  0  0  0  0
M  END
>  <MODEL>
1

>  <REMARK>
 VINA RESULT:      -9.0      0.000      0.000
  Name = 
  4 active torsions:
  status: ('A' for Active; 'I' for Inactive)
    1  A    between atoms: C_3  and  C_20
    2  A    between atoms: N_4  and  C_8
    3  A    between atoms: N_4  and  C_11
    4  A    between atoms: C_10  and  C_26
                            x       y       z     vdW  Elec       q    Type
                         _______ _______ _______ _____ _____    ______ ____

>  <TORSDO>
F 4

$$$$
=
 OpenBabel11072412243D

 27 30  0  0  1  0  0  0  0  0999 V2000
  160.7370  205.3070  149.8780 C   0  0  1  0  0  3  0  0  0  0  0  0
  160.7120  207.4920  152.8600 C   0  0  2  0  0  3  0  0  0  0  0  0
  161.3110  204.2410  147.6650 C   0  0  0  0  0  0  0  0  0  0  0  0
  161.6060  206.0950  153.6440 S   0  0  0  0  0  0  0  0  0  0  0  0
  160.9290  202.9820  148.1710 C   0  0  0  0  0  0  0  0  0  0  0  0
  161.6160  205.3800  148.6220 C   0  0  1  0  0  3  0  0  0  0  0  0
  160.7130  203.9420  150.4010 N   0  0  0  0  0  0  0  0  0  0  0  0
  161.6280  205.3240  152.0440 C   0  0  1  0  0  3  0  0  0  0  0  0
  161.2310  203.9760  151.7160 C   0  0  0  0  0  0  0  0  0  0  0  0
  160.9460  202.0600  145.9330 C   0  0  0  0  0  3  0  0  0  0  0  0
  161.3230  202.9720  152.4700 O   0  0  0  0  0  0  0  0  0  0  0  0
  161.0100  207.4980  151.3590 C   0  0  0  0  0  2  0  0  0  0  0  0
  161.5330  204.3820  146.2860 C   0  0  0  0  0  3  0  0  0  0  0  0
  161.3350  206.0930  151.0180 C   0  0  2  0  0  3  0  0  0  0  0  0
  160.7460  201.8990  147.3060 C   0  0  0  0  0  3  0  0  0  0  0  0
  160.7420  202.8100  149.5750 N   0  0  0  0  0  2  0  0  0  0  0  0
  161.3400  203.2990  145.4240 C   0  0  0  0  0  3  0  0  0  0  0  0
  160.8090  209.0060  154.8010 C   0  0  0  0  0  3  0  0  0  0  0  0
  161.6710  209.7750  152.7240 O   0  0  0  0  0  1  0  0  0  0  0  0
  161.0550  208.8020  153.5000 C   0  0  0  0  0  0  0  0  0  0  0  0
  161.9900  210.4380  156.4670 C   0  0  0  0  0  0  0  0  0  0  0  0
  162.9050  209.4790  156.7500 F   0  0  0  0  0  0  0  0  0  0  0  0
  161.0510  210.2610  155.5390 C   0  0  0  0  0  3  0  0  0  0  0  0
  162.0910  211.6420  157.0800 F   0  0  0  0  0  0  0  0  0  0  0  0
  161.4280  206.6750  147.9770 N   0  0  0  0  0  2  0  0  0  0  0  0
  162.3730  208.7320  148.5350 O   0  0  0  0  0  1  0  0  0  0  0  0
  162.6630  207.4270  148.1370 C   0  0  0  0  0  2  0  0  0  0  0  0
  1  7  1  1  0  0  0
  1 14  1  0  0  0  0
  2 20  1  1  0  0  0
  2  4  1  0  0  0  0
  3  5  1  0  0  0  0
  3  6  1  0  0  0  0
  5 16  1  0  0  0  0
  6 25  1  6  0  0  0
  6  1  1  0  0  0  0
  7  9  1  0  0  0  0
  8  9  1  1  0  0  0
  8  4  1  0  0  0  0
  9 11  2  0  0  0  0
 10 15  1  0  0  0  0
 12  2  1  0  0  0  0
 13  3  2  0  0  0  0
 14 12  1  1  0  0  0
 14  8  1  0  0  0  0
 15  5  2  0  0  0  0
 16  7  1  0  0  0  0
 17 10  2  0  0  0  0
 17 13  1  0  0  0  0
 18 23  1  0  0  0  0
 19 20  1  0  0  0  0
 20 18  2  0  0  0  0
 21 22  1  0  0  0  0
 21 24  1  0  0  0  0
 23 21  2  0  0  0  0
 25 27  1  0  0  0  0
 27 26  1  0  0  0  0
M  END
>  <MODEL>
2

>  <REMARK>
 VINA RESULT:      -9.0      4.492      8.585
  Name = 
  4 active torsions:
  status: ('A' for Active; 'I' for Inactive)
    1  A    between atoms: C_3  and  C_20
    2  A    between atoms: N_4  and  C_8
    3  A    between atoms: N_4  and  C_11
    4  A    between atoms: C_10  and  C_26
                            x       y       z     vdW  Elec       q    Type
                         _______ _______ _______ _____ _____    ______ ____

>  <TORSDO>
F 4

$$$$
=
 OpenBabel11072412243D

 27 30  0  0  1  0  0  0  0  0999 V2000
  160.7760  205.6820  149.8640 C   0  0  1  0  0  3  0  0  0  0  0  0
  160.6020  207.5420  153.0550 C   0  0  2  0  0  3  0  0  0  0  0  0
  161.4200  204.8930  147.5560 C   0  0  0  0  0  0  0  0  0  0  0  0
  161.5960  206.1400  153.6960 S   0  0  0  0  0  0  0  0  0  0  0  0
  161.1300  203.5640  147.9290 C   0  0  0  0  0  0  0  0  0  0  0  0
  161.6450  205.9470  148.6260 C   0  0  1  0  0  3  0  0  0  0  0  0
  160.8520  204.2720  150.2440 N   0  0  0  0  0  0  0  0  0  0  0  0
  161.6690  205.5400  152.0250 C   0  0  1  0  0  3  0  0  0  0  0  0
  161.3700  204.2080  151.5580 C   0  0  0  0  0  0  0  0  0  0  0  0
  161.2090  202.8800  145.6080 C   0  0  0  0  0  3  0  0  0  0  0  0
  161.5350  203.1410  152.2060 O   0  0  0  0  0  0  0  0  0  0  0  0
  160.8950  207.7230  151.5630 C   0  0  0  0  0  2  0  0  0  0  0  0
  161.6280  205.1890  146.2000 C   0  0  0  0  0  3  0  0  0  0  0  0
  161.3190  206.3880  151.0810 C   0  0  2  0  0  3  0  0  0  0  0  0
  161.0240  202.5650  146.9560 C   0  0  0  0  0  3  0  0  0  0  0  0
  160.9600  203.2360  149.3070 N   0  0  0  0  0  2  0  0  0  0  0  0
  161.5120  204.1900  145.2310 C   0  0  0  0  0  3  0  0  0  0  0  0
  160.4350  209.9810  153.3530 C   0  0  0  0  0  3  0  0  0  0  0  0
  161.4810  208.7030  155.0620 O   0  0  0  0  0  1  0  0  0  0  0  0
  160.8510  208.8000  153.8270 C   0  0  0  0  0  0  0  0  0  0  0  0
  159.8850  211.8380  154.9260 C   0  0  0  0  0  0  0  0  0  0  0  0
  158.8430  211.1620  155.4720 F   0  0  0  0  0  0  0  0  0  0  0  0
  160.6600  211.2940  153.9890 C   0  0  0  0  0  3  0  0  0  0  0  0
  160.2000  213.0630  155.4120 F   0  0  0  0  0  0  0  0  0  0  0  0
  161.3630  207.2840  148.1170 N   0  0  0  0  0  2  0  0  0  0  0  0
  162.1650  209.3800  148.7490 O   0  0  0  0  0  1  0  0  0  0  0  0
  162.5450  208.0990  148.3490 C   0  0  0  0  0  2  0  0  0  0  0  0
  1  7  1  1  0  0  0
  1 14  1  0  0  0  0
  2  4  1  0  0  0  0
  2 20  1  1  0  0  0
  3  5  1  0  0  0  0
  3  6  1  0  0  0  0
  5 16  1  0  0  0  0
  6 25  1  6  0  0  0
  6  1  1  0  0  0  0
  7  9  1  0  0  0  0
  8  9  1  1  0  0  0
  8  4  1  0  0  0  0
  9 11  2  0  0  0  0
 10 15  1  0  0  0  0
 12  2  1  0  0  0  0
 13  3  2  0  0  0  0
 14 12  1  1  0  0  0
 14  8  1  0  0  0  0
 15  5  2  0  0  0  0
 16  7  1  0  0  0  0
 17 10  2  0  0  0  0
 17 13  1  0  0  0  0
 18 20  2  0  0  0  0
 18 23  1  0  0  0  0
 20 19  1  0  0  0  0
 21 24  1  0  0  0  0
 21 22  1  0  0  0  0
 23 21  2  0  0  0  0
 25 27  1  0  0  0  0
 27 26  1  0  0  0  0
M  END
>  <MODEL>
3

>  <REMARK>
 VINA RESULT:      -8.9      4.685      8.659
  Name = 
  4 active torsions:
  status: ('A' for Active; 'I' for Inactive)
    1  A    between atoms: C_3  and  C_20
    2  A    between atoms: N_4  and  C_8
    3  A    between atoms: N_4  and  C_11
    4  A    between atoms: C_10  and  C_26
                            x       y       z     vdW  Elec       q    Type
                         _______ _______ _______ _____ _____    ______ ____

>  <TORSDO>
F 4

$$$$
=
 OpenBabel11072412243D

 27 30  0  0  1  0  0  0  0  0999 V2000
  160.6850  208.2760  151.8510 C   0  0  1  0  0  3  0  0  0  0  0  0
  160.9350  206.3530  148.7030 C   0  0  2  0  0  3  0  0  0  0  0  0
  160.9150  209.0370  154.2450 C   0  0  0  0  0  0  0  0  0  0  0  0
  162.2570  207.5610  148.3040 S   0  0  0  0  0  0  0  0  0  0  0  0
  160.9300  210.3810  153.8170 C   0  0  0  0  0  0  0  0  0  0  0  0
  161.2020  207.9240  153.2530 C   0  0  1  0  0  3  0  0  0  0  0  0
  161.0660  209.6420  151.4990 N   0  0  0  0  0  0  0  0  0  0  0  0
  162.0490  208.2010  149.9480 C   0  0  1  0  0  3  0  0  0  0  0  0
  161.8680  209.5790  150.3350 C   0  0  0  0  0  0  0  0  0  0  0  0
  160.5960  211.1260  156.0960 C   0  0  0  0  0  3  0  0  0  0  0  0
  162.3410  210.5830  149.7430 O   0  0  0  0  0  0  0  0  0  0  0  0
  160.8550  206.1810  150.2220 C   0  0  0  0  0  2  0  0  0  0  0  0
  160.7640  208.7600  155.6130 C   0  0  0  0  0  3  0  0  0  0  0  0
  161.3670  207.4510  150.7880 C   0  0  2  0  0  3  0  0  0  0  0  0
  160.7700  211.4180  154.7410 C   0  0  0  0  0  3  0  0  0  0  0  0
  161.1260  210.6820  152.4360 N   0  0  0  0  0  2  0  0  0  0  0  0
  160.5950  209.7990  156.5310 C   0  0  0  0  0  3  0  0  0  0  0  0
  160.9680  203.8900  148.6610 C   0  0  0  0  0  3  0  0  0  0  0  0
  161.4890  205.0620  146.6600 O   0  0  0  0  0  1  0  0  0  0  0  0
  161.1470  205.0450  148.0060 C   0  0  0  0  0  0  0  0  0  0  0  0
  161.1170  201.4040  148.7990 C   0  0  0  0  0  0  0  0  0  0  0  0
  160.7100  201.3800  150.0920 F   0  0  0  0  0  0  0  0  0  0  0  0
  161.1920  202.5410  148.1080 C   0  0  0  0  0  3  0  0  0  0  0  0
  161.3650  200.2310  148.1670 F   0  0  0  0  0  0  0  0  0  0  0  0
  160.6050  206.6650  153.6850 N   0  0  0  0  0  2  0  0  0  0  0  0
  161.1760  204.5020  153.0300 O   0  0  0  0  0  1  0  0  0  0  0  0
  161.6500  205.6530  153.6590 C   0  0  0  0  0  2  0  0  0  0  0  0
  1  7  1  6  0  0  0
  1  6  1  0  0  0  0
  2 20  1  6  0  0  0
  2 12  1  0  0  0  0
  3 13  1  0  0  0  0
  4  2  1  0  0  0  0
  5  3  2  0  0  0  0
  5 15  1  0  0  0  0
  6 25  1  1  0  0  0
  6  3  1  0  0  0  0
  7 16  1  0  0  0  0
  8  4  1  6  0  0  0
  8  9  1  0  0  0  0
  8 14  1  0  0  0  0
  9  7  1  0  0  0  0
 10 17  1  0  0  0  0
 11  9  2  0  0  0  0
 13 17  2  0  0  0  0
 14 12  1  6  0  0  0
 14  1  1  0  0  0  0
 15 10  2  0  0  0  0
 16  5  1  0  0  0  0
 19 20  1  0  0  0  0
 20 18  2  0  0  0  0
 21 22  1  0  0  0  0
 23 18  1  0  0  0  0
 23 21  2  0  0  0  0
 24 21  1  0  0  0  0
 26 27  1  0  0  0  0
 27 25  1  0  0  0  0
M  END
>  <MODEL>
4

>  <REMARK>
 VINA RESULT:      -8.7      1.806      2.544
  Name = 
  4 active torsions:
  status: ('A' for Active; 'I' for Inactive)
    1  A    between atoms: C_3  and  C_20
    2  A    between atoms: N_4  and  C_8
    3  A    between atoms: N_4  and  C_11
    4  A    between atoms: C_10  and  C_26
                            x       y       z     vdW  Elec       q    Type
                         _______ _______ _______ _____ _____    ______ ____

>  <TORSDO>
F 4

$$$$
=
 OpenBabel11072412243D

 27 30  0  0  1  0  0  0  0  0999 V2000
  161.7780  206.6330  150.3710 C   0  0  1  0  0  3  0  0  0  0  0  0
  161.4510  208.8080  153.3430 C   0  0  2  0  0  3  0  0  0  0  0  0
  161.3240  204.9740  148.5250 C   0  0  0  0  0  0  0  0  0  0  0  0
  161.1260  210.1180  152.1000 S   0  0  0  0  0  0  0  0  0  0  0  0
  162.1310  205.7270  147.6480 C   0  0  0  0  0  0  0  0  0  0  0  0
  160.7880  205.6110  149.7960 C   0  0  1  0  0  3  0  0  0  0  0  0
  162.2820  207.5030  149.3100 N   0  0  0  0  0  0  0  0  0  0  0  0
  161.1690  208.8390  150.8670 C   0  0  1  0  0  3  0  0  0  0  0  0
  161.9260  208.8320  149.6390 C   0  0  0  0  0  0  0  0  0  0  0  0
  162.1550  203.8920  146.0700 C   0  0  0  0  0  3  0  0  0  0  0  0
  162.2330  209.8410  148.9520 O   0  0  0  0  0  0  0  0  0  0  0  0
  161.0030  207.4580  152.7760 C   0  0  0  0  0  2  0  0  0  0  0  0
  160.9200  203.6860  148.1420 C   0  0  0  0  0  3  0  0  0  0  0  0
  161.0940  207.6000  151.3040 C   0  0  2  0  0  3  0  0  0  0  0  0
  162.5440  205.1850  146.4280 C   0  0  0  0  0  3  0  0  0  0  0  0
  162.5150  207.0550  148.0030 N   0  0  0  0  0  2  0  0  0  0  0  0
  161.3430  203.1440  146.9250 C   0  0  0  0  0  3  0  0  0  0  0  0
  159.9160  210.1160  154.7570 C   0  0  0  0  0  3  0  0  0  0  0  0
  161.0770  208.2890  155.7390 O   0  0  0  0  0  1  0  0  0  0  0  0
  160.7920  209.1080  154.6530 C   0  0  0  0  0  0  0  0  0  0  0  0
  158.1010  211.2380  156.0490 C   0  0  0  0  0  0  0  0  0  0  0  0
  157.3870  211.5260  154.9330 F   0  0  0  0  0  0  0  0  0  0  0  0
  159.2390  210.5460  155.9950 C   0  0  0  0  0  3  0  0  0  0  0  0
  157.5970  211.5830  157.2580 F   0  0  0  0  0  0  0  0  0  0  0  0
  160.4930  204.6030  150.8080 N   0  0  0  0  0  2  0  0  0  0  0  0
  161.6850  202.8340  151.7490 O   0  0  0  0  0  1  0  0  0  0  0  0
  161.7600  204.1780  151.3840 C   0  0  0  0  0  2  0  0  0  0  0  0
  1  7  1  6  0  0  0
  1 14  1  0  0  0  0
  2 20  1  1  0  0  0
  3  6  1  0  0  0  0
  4  2  1  0  0  0  0
  5 16  1  0  0  0  0
  5  3  2  0  0  0  0
  6  1  1  0  0  0  0
  6 25  1  1  0  0  0
  7  9  1  0  0  0  0
  8  9  1  1  0  0  0
  8 14  1  0  0  0  0
  8  4  1  0  0  0  0
 10 15  2  0  0  0  0
 10 17  1  0  0  0  0
 11  9  2  0  0  0  0
 12  2  1  0  0  0  0
 13  3  1  0  0  0  0
 14 12  1  1  0  0  0
 15  5  1  0  0  0  0
 16  7  1  0  0  0  0
 17 13  2  0  0  0  0
 18 23  1  0  0  0  0
 20 18  2  0  0  0  0
 20 19  1  0  0  0  0
 21 24  1  0  0  0  0
 22 21  1  0  0  0  0
 23 21  2  0  0  0  0
 25 27  1  0  0  0  0
 27 26  1  0  0  0  0
M  END
>  <MODEL>
5

>  <REMARK>
 VINA RESULT:      -8.4      4.753      8.270
  Name = 
  4 active torsions:
  status: ('A' for Active; 'I' for Inactive)
    1  A    between atoms: C_3  and  C_20
    2  A    between atoms: N_4  and  C_8
    3  A    between atoms: N_4  and  C_11
    4  A    between atoms: C_10  and  C_26
                            x       y       z     vdW  Elec       q    Type
                         _______ _______ _______ _____ _____    ______ ____

>  <TORSDO>
F 4

$$$$
=
 OpenBabel11072412243D

 27 30  0  0  1  0  0  0  0  0999 V2000
  161.5530  206.1170  151.4610 C   0  0  1  0  0  3  0  0  0  0  0  0
  161.9070  204.0880  148.3900 C   0  0  2  0  0  3  0  0  0  0  0  0
  160.8180  207.8400  153.1500 C   0  0  0  0  0  0  0  0  0  0  0  0
  160.8320  202.9040  149.2870 S   0  0  0  0  0  0  0  0  0  0  0  0
  161.0230  206.9090  154.1900 C   0  0  0  0  0  0  0  0  0  0  0  0
  160.6840  207.3550  151.7170 C   0  0  1  0  0  3  0  0  0  0  0  0
  161.3890  205.1490  152.5440 N   0  0  0  0  0  0  0  0  0  0  0  0
  160.6890  204.1330  150.5630 C   0  0  1  0  0  3  0  0  0  0  0  0
  160.8900  203.9520  151.9800 C   0  0  0  0  0  0  0  0  0  0  0  0
  160.8590  208.6830  155.8300 C   0  0  0  0  0  3  0  0  0  0  0  0
  160.6640  202.8990  152.6320 O   0  0  0  0  0  0  0  0  0  0  0  0
  161.6020  205.5080  148.8730 C   0  0  0  0  0  2  0  0  0  0  0  0
  160.6080  209.1890  153.4760 C   0  0  0  0  0  3  0  0  0  0  0  0
  161.0800  205.3500  150.2510 C   0  0  2  0  0  3  0  0  0  0  0  0
  161.0450  207.3320  155.5220 C   0  0  0  0  0  3  0  0  0  0  0  0
  161.1940  205.5270  153.8800 N   0  0  0  0  0  2  0  0  0  0  0  0
  160.6390  209.6090  154.8080 C   0  0  0  0  0  3  0  0  0  0  0  0
  162.2410  204.9090  146.0910 C   0  0  0  0  0  3  0  0  0  0  0  0
  161.1480  202.8210  146.3980 O   0  0  0  0  0  1  0  0  0  0  0  0
  161.7570  203.9620  146.9050 C   0  0  0  0  0  0  0  0  0  0  0  0
  161.2220  205.6420  143.9350 C   0  0  0  0  0  0  0  0  0  0  0  0
  160.3910  206.5230  144.5460 F   0  0  0  0  0  0  0  0  0  0  0  0
  162.1150  204.9290  144.6210 C   0  0  0  0  0  3  0  0  0  0  0  0
  161.2060  205.5530  142.5840 F   0  0  0  0  0  0  0  0  0  0  0  0
  161.0470  208.4040  150.7700 N   0  0  0  0  0  2  0  0  0  0  0  0
  162.7060  210.0250  151.0010 O   0  0  0  0  0  1  0  0  0  0  0  0
  162.4730  208.6530  150.9180 C   0  0  0  0  0  2  0  0  0  0  0  0
  1  6  1  0  0  0  0
  1  7  1  1  0  0  0
  2 20  1  6  0  0  0
  2 12  1  0  0  0  0
  2  4  1  0  0  0  0
  3 13  2  0  0  0  0
  3  5  1  0  0  0  0
  5 15  2  0  0  0  0
  6 25  1  6  0  0  0
  6  3  1  0  0  0  0
  7 16  1  0  0  0  0
  8  4  1  6  0  0  0
  8  9  1  0  0  0  0
  9  7  1  0  0  0  0
  9 11  2  0  0  0  0
 13 17  1  0  0  0  0
 14 12  1  6  0  0  0
 14  8  1  0  0  0  0
 14  1  1  0  0  0  0
 15 10  1  0  0  0  0
 16  5  1  0  0  0  0
 17 10  2  0  0  0  0
 18 20  2  0  0  0  0
 19 20  1  0  0  0  0
 21 22  1  0  0  0  0
 21 23  2  0  0  0  0
 23 18  1  0  0  0  0
 24 21  1  0  0  0  0
 25 27  1  0  0  0  0
 27 26  1  0  0  0  0
M  END
>  <MODEL>
6

>  <REMARK>
 VINA RESULT:      -8.0      2.673      4.169
  Name = 
  4 active torsions:
  status: ('A' for Active; 'I' for Inactive)
    1  A    between atoms: C_3  and  C_20
    2  A    between atoms: N_4  and  C_8
    3  A    between atoms: N_4  and  C_11
    4  A    between atoms: C_10  and  C_26
                            x       y       z     vdW  Elec       q    Type
                         _______ _______ _______ _____ _____    ______ ____

>  <TORSDO>
F 4

$$$$
=
 OpenBabel11072412243D

 27 30  0  0  1  0  0  0  0  0999 V2000
  160.9880  206.1920  149.2980 C   0  0  1  0  0  3  0  0  0  0  0  0
  161.4940  209.8550  149.2880 C   0  0  2  0  0  3  0  0  0  0  0  0
  161.1870  203.7220  148.8280 C   0  0  0  0  0  0  0  0  0  0  0  0
  162.4310  209.5290  150.8310 S   0  0  0  0  0  0  0  0  0  0  0  0
  160.8280  203.4380  150.1620 C   0  0  0  0  0  0  0  0  0  0  0  0
  161.6770  205.1100  148.4550 C   0  0  1  0  0  3  0  0  0  0  0  0
  160.9810  205.8090  150.7080 N   0  0  0  0  0  0  0  0  0  0  0  0
  162.1860  207.7980  150.5120 C   0  0  1  0  0  3  0  0  0  0  0  0
  161.6870  206.8010  151.4280 C   0  0  0  0  0  0  0  0  0  0  0  0
  160.4790  201.1120  149.5900 C   0  0  0  0  0  3  0  0  0  0  0  0
  161.8450  206.7970  152.6760 O   0  0  0  0  0  0  0  0  0  0  0  0
  161.5700  208.6210  148.3850 C   0  0  0  0  0  2  0  0  0  0  0  0
  161.2110  202.6760  147.8930 C   0  0  0  0  0  3  0  0  0  0  0  0
  161.7800  207.4760  149.3020 C   0  0  2  0  0  3  0  0  0  0  0  0
  160.4750  202.1390  150.5380 C   0  0  0  0  0  3  0  0  0  0  0  0
  160.8410  204.4810  151.1360 N   0  0  0  0  0  2  0  0  0  0  0  0
  160.8480  201.3800  148.2700 C   0  0  0  0  0  3  0  0  0  0  0  0
  161.2370  211.6700  147.6420 C   0  0  0  0  0  3  0  0  0  0  0  0
  163.2010  211.6270  148.9800 O   0  0  0  0  0  1  0  0  0  0  0  0
  161.9820  211.0860  148.5890 C   0  0  0  0  0  0  0  0  0  0  0  0
  161.0500  213.2290  145.7030 C   0  0  0  0  0  0  0  0  0  0  0  0
  159.9570  212.5970  145.2100 F   0  0  0  0  0  0  0  0  0  0  0  0
  161.6220  212.8510  146.8460 C   0  0  0  0  0  3  0  0  0  0  0  0
  161.5180  214.3280  145.0650 F   0  0  0  0  0  0  0  0  0  0  0  0
  161.4530  205.3860  147.0400 N   0  0  0  0  0  2  0  0  0  0  0  0
  162.5640  204.7370  145.0960 O   0  0  0  0  0  1  0  0  0  0  0  0
  162.7390  205.2850  146.3660 C   0  0  0  0  0  2  0  0  0  0  0  0
  1 14  1  0  0  0  0
  1  7  1  1  0  0  0
  2 20  1  6  0  0  0
  2  4  1  0  0  0  0
  3  5  1  0  0  0  0
  5 15  2  0  0  0  0
  5 16  1  0  0  0  0
  6 25  1  6  0  0  0
  6  3  1  0  0  0  0
  6  1  1  0  0  0  0
  7 16  1  0  0  0  0
  7  9  1  0  0  0  0
  8  4  1  1  0  0  0
  8  9  1  0  0  0  0
  9 11  2  0  0  0  0
 10 15  1  0  0  0  0
 12  2  1  0  0  0  0
 13 17  1  0  0  0  0
 13  3  2  0  0  0  0
 14 12  1  1  0  0  0
 14  8  1  0  0  0  0
 17 10  2  0  0  0  0
 18 20  2  0  0  0  0
 20 19  1  0  0  0  0
 21 23  2  0  0  0  0
 22 21  1  0  0  0  0
 23 18  1  0  0  0  0
 24 21  1  0  0  0  0
 26 27  1  0  0  0  0
 27 25  1  0  0  0  0
M  END
>  <MODEL>
7

>  <REMARK>
 VINA RESULT:      -7.8      4.754      7.621
  Name = 
  4 active torsions:
  status: ('A' for Active; 'I' for Inactive)
    1  A    between atoms: C_3  and  C_20
    2  A    between atoms: N_4  and  C_8
    3  A    between atoms: N_4  and  C_11
    4  A    between atoms: C_10  and  C_26
                            x       y       z     vdW  Elec       q    Type
                         _______ _______ _______ _____ _____    ______ ____

>  <TORSDO>
F 4

$$$$
=
 OpenBabel11072412243D

 27 30  0  0  1  0  0  0  0  0999 V2000
  161.5080  207.4370  152.2080 C   0  0  1  0  0  3  0  0  0  0  0  0
  161.7540  206.0160  148.8030 C   0  0  2  0  0  3  0  0  0  0  0  0
  160.7690  208.7390  154.2380 C   0  0  0  0  0  0  0  0  0  0  0  0
  160.9330  204.5640  149.5670 S   0  0  0  0  0  0  0  0  0  0  0  0
  161.1980  207.6850  155.0710 C   0  0  0  0  0  0  0  0  0  0  0  0
  160.5330  208.4860  152.7590 C   0  0  1  0  0  3  0  0  0  0  0  0
  161.5830  206.2900  153.1100 N   0  0  0  0  0  0  0  0  0  0  0  0
  160.7900  205.5320  151.0500 C   0  0  1  0  0  3  0  0  0  0  0  0
  161.1690  205.1470  152.3880 C   0  0  0  0  0  0  0  0  0  0  0  0
  161.0110  209.1220  157.0110 C   0  0  0  0  0  3  0  0  0  0  0  0
  161.1430  203.9800  152.8580 O   0  0  0  0  0  0  0  0  0  0  0  0
  161.3380  207.2810  149.5590 C   0  0  0  0  0  2  0  0  0  0  0  0
  160.4390  209.9730  154.8180 C   0  0  0  0  0  3  0  0  0  0  0  0
  160.9970  206.8260  150.9270 C   0  0  2  0  0  3  0  0  0  0  0  0
  161.3190  207.8790  156.4500 C   0  0  0  0  0  3  0  0  0  0  0  0
  161.4960  206.4100  154.5040 N   0  0  0  0  0  2  0  0  0  0  0  0
  160.5700  210.1660  156.1960 C   0  0  0  0  0  3  0  0  0  0  0  0
  162.3600  205.7300  146.4330 C   0  0  0  0  0  3  0  0  0  0  0  0
  160.2030  206.5830  146.9530 O   0  0  0  0  0  1  0  0  0  0  0  0
  161.4540  206.1190  147.3400 C   0  0  0  0  0  0  0  0  0  0  0  0
  161.3720  205.0980  144.2320 C   0  0  0  0  0  0  0  0  0  0  0  0
  160.4770  204.2500  144.7970 F   0  0  0  0  0  0  0  0  0  0  0  0
  162.2100  205.8260  144.9680 C   0  0  0  0  0  3  0  0  0  0  0  0
  161.3490  205.2760  142.8890 F   0  0  0  0  0  0  0  0  0  0  0  0
  160.6610  209.7170  151.9870 N   0  0  0  0  0  2  0  0  0  0  0  0
  162.2620  210.4840  150.4760 O   0  0  0  0  0  1  0  0  0  0  0  0
  162.0790  209.9370  151.7460 C   0  0  0  0  0  2  0  0  0  0  0  0
  1  6  1  0  0  0  0
  1  7  1  1  0  0  0
  2 20  1  6  0  0  0
  2 12  1  0  0  0  0
  2  4  1  0  0  0  0
  3 13  2  0  0  0  0
  3  5  1  0  0  0  0
  5 15  2  0  0  0  0
  6 25  1  6  0  0  0
  6  3  1  0  0  0  0
  7 16  1  0  0  0  0
  8  4  1  6  0  0  0
  8  9  1  0  0  0  0
  9 11  2  0  0  0  0
  9  7  1  0  0  0  0
 13 17  1  0  0  0  0
 14 12  1  6  0  0  0
 14  8  1  0  0  0  0
 14  1  1  0  0  0  0
 15 10  1  0  0  0  0
 16  5  1  0  0  0  0
 17 10  2  0  0  0  0
 18 20  2  0  0  0  0
 19 20  1  0  0  0  0
 21 22  1  0  0  0  0
 21 23  2  0  0  0  0
 23 18  1  0  0  0  0
 24 21  1  0  0  0  0
 26 27  1  0  0  0  0
 27 25  1  0  0  0  0
M  END
>  <MODEL>
8

>  <REMARK>
 VINA RESULT:      -7.6      2.757      4.348
  Name = 
  4 active torsions:
  status: ('A' for Active; 'I' for Inactive)
    1  A    between atoms: C_3  and  C_20
    2  A    between atoms: N_4  and  C_8
    3  A    between atoms: N_4  and  C_11
    4  A    between atoms: C_10  and  C_26
                            x       y       z     vdW  Elec       q    Type
                         _______ _______ _______ _____ _____    ______ ____

>  <TORSDO>
F 4

$$$$
=
 OpenBabel11072412243D

 27 30  0  0  1  0  0  0  0  0999 V2000
  160.6660  208.6710  152.2990 C   0  0  1  0  0  3  0  0  0  0  0  0
  160.8730  206.8310  149.0980 C   0  0  2  0  0  3  0  0  0  0  0  0
  160.9210  209.3660  154.7110 C   0  0  0  0  0  0  0  0  0  0  0  0
  162.2050  208.0360  148.7220 S   0  0  0  0  0  0  0  0  0  0  0  0
  160.9470  210.7200  154.3190 C   0  0  0  0  0  0  0  0  0  0  0  0
  161.1890  208.2770  153.6870 C   0  0  1  0  0  3  0  0  0  0  0  0
  161.0590  210.0430  151.9800 N   0  0  0  0  0  0  0  0  0  0  0  0
  162.0160  208.6340  150.3850 C   0  0  1  0  0  3  0  0  0  0  0  0
  161.8520  210.0030  150.8100 C   0  0  0  0  0  0  0  0  0  0  0  0
  160.6360  211.4070  156.6190 C   0  0  0  0  0  3  0  0  0  0  0  0
  162.3310  211.0180  150.2410 O   0  0  0  0  0  0  0  0  0  0  0  0
  160.8030  206.6200  150.6130 C   0  0  0  0  0  2  0  0  0  0  0  0
  160.7770  209.0540  156.0710 C   0  0  0  0  0  3  0  0  0  0  0  0
  161.3320  207.8690  151.2090 C   0  0  2  0  0  3  0  0  0  0  0  0
  160.8030  211.7340  155.2710 C   0  0  0  0  0  3  0  0  0  0  0  0
  161.1360  211.0570  152.9450 N   0  0  0  0  0  2  0  0  0  0  0  0
  160.6250  210.0690  157.0190 C   0  0  0  0  0  3  0  0  0  0  0  0
  161.5000  205.5390  147.0970 C   0  0  0  0  0  3  0  0  0  0  0  0
  160.8310  204.3530  149.0450 O   0  0  0  0  0  1  0  0  0  0  0  0
  161.0670  205.5410  148.3650 C   0  0  0  0  0  0  0  0  0  0  0  0
  160.9380  204.0320  145.1910 C   0  0  0  0  0  0  0  0  0  0  0  0
  159.9780  204.8660  144.7220 F   0  0  0  0  0  0  0  0  0  0  0  0
  161.6840  204.3450  146.2500 C   0  0  0  0  0  3  0  0  0  0  0  0
  161.2060  202.8910  144.5110 F   0  0  0  0  0  0  0  0  0  0  0  0
  160.5820  207.0130  154.0900 N   0  0  0  0  0  2  0  0  0  0  0  0
  161.2060  204.9050  153.3130 O   0  0  0  0  0  1  0  0  0  0  0  0
  161.6260  206.0000  154.0690 C   0  0  0  0  0  2  0  0  0  0  0  0
  1  7  1  6  0  0  0
  1  6  1  0  0  0  0
  2 20  1  6  0  0  0
  2 12  1  0  0  0  0
  3 13  1  0  0  0  0
  4  2  1  0  0  0  0
  5  3  2  0  0  0  0
  5 15  1  0  0  0  0
  6 25  1  1  0  0  0
  6  3  1  0  0  0  0
  7 16  1  0  0  0  0
  8  4  1  6  0  0  0
  8  9  1  0  0  0  0
  8 14  1  0  0  0  0
  9  7  1  0  0  0  0
 10 17  1  0  0  0  0
 11  9  2  0  0  0  0
 13 17  2  0  0  0  0
 14 12  1  6  0  0  0
 14  1  1  0  0  0  0
 15 10  2  0  0  0  0
 16  5  1  0  0  0  0
 18 20  2  0  0  0  0
 20 19  1  0  0  0  0
 21 23  2  0  0  0  0
 22 21  1  0  0  0  0
 23 18  1  0  0  0  0
 24 21  1  0  0  0  0
 26 27  1  0  0  0  0
 27 25  1  0  0  0  0
M  END
>  <MODEL>
9

>  <REMARK>
 VINA RESULT:      -7.3      2.493      3.411
  Name = 
  4 active torsions:
  status: ('A' for Active; 'I' for Inactive)
    1  A    between atoms: C_3  and  C_20
    2  A    between atoms: N_4  and  C_8
    3  A    between atoms: N_4  and  C_11
    4  A    between atoms: C_10  and  C_26
                            x       y       z     vdW  Elec       q    Type
                         _______ _______ _______ _____ _____    ______ ____

>  <TORSDO>
F 4

$$$$
