=
 OpenBabel11072411333D

 52 57  0  0  1  0  0  0  0  0999 V2000
  162.4570  209.3300  151.2480 C   0  0  0  0  0  2  0  0  0  0  0  0
  161.1530  207.7620  153.8370 C   0  0  0  0  0  0  0  0  0  0  0  0
  160.1740  209.1390  152.2440 C   0  0  0  0  0  2  0  0  0  0  0  0
  161.5650  207.3990  155.0060 N   0  0  0  0  0  2  0  0  0  0  0  0
  161.3220  208.3720  151.5650 C   0  0  2  0  0  3  0  0  0  0  0  0
  161.8100  207.3350  152.5810 C   0  0  2  0  0  3  0  0  0  0  0  0
  160.2580  208.8370  153.6620 N   0  0  0  0  0  2  0  0  0  0  0  0
  161.3510  205.9650  152.1930 C   0  0  0  0  0  0  0  0  0  0  0  0
  160.8130  205.2270  153.0610 O   0  0  0  0  0  0  0  0  0  0  0  0
  161.5310  205.4950  150.8500 N   0  0  0  0  0  2  0  0  0  0  0  0
  161.1290  204.1750  150.3750 C   0  0  1  0  0  3  0  0  0  0  0  0
  159.6650  201.8380  149.9040 C   0  0  1  0  0  3  0  0  0  0  0  0
  161.9290  203.7720  149.1220 C   0  0  1  0  0  3  0  0  0  0  0  0
  161.2000  203.1450  151.5110 C   0  0  0  0  0  2  0  0  0  0  0  0
  161.9650  202.2640  148.8230 C   0  0  0  0  0  2  0  0  0  0  0  0
  158.6480  200.9020  149.9300 F   0  0  0  0  0  0  0  0  0  0  0  0
  160.4040  201.8530  151.2460 C   0  0  0  0  0  2  0  0  0  0  0  0
  160.5900  201.5950  148.7000 C   0  0  1  0  0  3  0  0  0  0  0  0
  160.7750  200.2370  148.5100 F   0  0  0  0  0  0  0  0  0  0  0  0
  160.4160  206.5140  146.9890 C   0  0  0  0  0  3  0  0  0  0  0  0
  161.5560  204.5850  147.9200 C   0  0  0  0  0  0  0  0  0  0  0  0
  161.9730  204.2180  146.6330 C   0  0  0  0  0  3  0  0  0  0  0  0
  160.7780  205.7360  148.0930 C   0  0  0  0  0  3  0  0  0  0  0  0
  160.8340  206.1450  145.7070 C   0  0  0  0  0  0  0  0  0  0  0  0
  160.4790  206.9210  144.6120 O   0  0  0  0  0  1  0  0  0  0  0  0
  161.6130  204.9970  145.5300 C   0  0  0  0  0  3  0  0  0  0  0  0
  161.9530  210.4970  150.4090 C   0  0  0  0  0  2  0  0  0  0  0  0
  162.3530  210.3830  148.9390 C   0  0  1  0  0  3  0  0  0  0  0  0
  161.6360  209.2380  148.2320 C   0  0  0  0  0  1  0  0  0  0  0  0
  162.2820  211.7230  148.1910 C   0  0  2  0  0  3  0  0  0  0  0  0
  163.5260  212.5910  148.3620 C   0  0  0  0  0  1  0  0  0  0  0  0
  160.9680  212.4780  148.4750 C   0  0  2  0  0  3  0  0  0  0  0  0
  159.2920  211.2750  146.0780 O   0  0  0  0  0  1  0  0  0  0  0  0
  158.2040  213.6880  147.4320 C   0  0  0  0  0  2  0  0  0  0  0  0
  160.7300  213.1880  146.0150 C   0  0  2  0  0  3  0  0  0  0  0  0
  159.4110  212.5520  145.5210 C   0  0  0  0  0  0  0  0  0  0  0  0
  159.4440  212.4280  144.1300 O   0  0  0  0  0  1  0  0  0  0  0  0
  159.4660  214.4480  147.8260 C   0  0  0  0  0  2  0  0  0  0  0  0
  158.2050  213.4160  145.9310 C   0  0  1  0  0  3  0  0  0  0  0  0
  160.7370  213.6510  147.4920 C   0  0  1  0  0  3  0  0  0  0  0  0
  156.8880  212.7750  145.5260 C   0  0  0  0  0  1  0  0  0  0  0  0
  162.7150  213.8050  145.0360 C   0  0  0  0  0  1  0  0  0  0  0  0
  161.3450  214.0940  145.1210 O   0  0  0  0  0  0  0  0  0  0  0  0
  160.0070  214.4530  151.5090 C   0  0  0  0  0  2  0  0  0  0  0  0
  159.5540  212.3380  150.5830 C   0  0  0  0  0  2  0  0  0  0  0  0
  160.8360  214.3280  150.2510 C   0  0  0  0  0  2  0  0  0  0  0  0
  160.8350  212.8520  149.9670 C   0  0  2  0  0  3  0  0  0  0  0  0
  159.1440  213.2770  151.6210 N   0  0  0  0  0  0  0  0  0  0  0  0
  159.4380  212.6500  152.9010 C   0  0  0  0  0  2  0  0  0  0  0  0
  158.5520  212.1040  155.1430 C   0  0  0  0  0  2  0  0  0  0  0  0
  158.2880  212.8770  153.8660 C   0  0  0  0  0  3  0  0  0  0  0  0
  157.5850  211.5580  154.1120 C   0  0  0  0  0  2  0  0  0  0  0  0
  2  4  2  0  0  0  0
  3  7  1  0  0  0  0
  5  1  1  1  0  0  0
  5  3  1  0  0  0  0
  5  6  1  0  0  0  0
  6  8  1  6  0  0  0
  6  2  1  0  0  0  0
  7  2  1  0  0  0  0
  8  9  2  0  0  0  0
 10  8  1  0  0  0  0
 11 10  1  1  0  0  0
 11 14  1  0  0  0  0
 12 16  1  1  0  0  0
 12 17  1  0  0  0  0
 13 21  1  6  0  0  0
 13 11  1  0  0  0  0
 15 13  1  0  0  0  0
 17 14  1  0  0  0  0
 18 19  1  1  0  0  0
 18 15  1  0  0  0  0
 18 12  1  0  0  0  0
 20 23  1  0  0  0  0
 21 23  2  0  0  0  0
 22 21  1  0  0  0  0
 24 20  2  0  0  0  0
 25 24  1  0  0  0  0
 26 24  1  0  0  0  0
 26 22  2  0  0  0  0
 27  1  1  0  0  0  0
 28 29  1  6  0  0  0
 28 27  1  0  0  0  0
 30 31  1  1  0  0  0
 30 28  1  0  0  0  0
 32 30  1  1  0  0  0
 34 38  1  0  0  0  0
 35 43  1  6  0  0  0
 35 40  1  0  0  0  0
 36 39  1  0  0  0  0
 36 35  1  0  0  0  0
 36 33  1  0  0  0  0
 37 36  1  0  0  0  0
 39 41  1  1  0  0  0
 39 34  1  0  0  0  0
 40 38  1  0  0  0  0
 40 32  1  1  0  0  0
 42 43  1  0  0  0  0
 44 48  1  0  0  0  0
 45 48  1  0  0  0  0
 46 44  1  0  0  0  0
 47 32  1  6  0  0  0
 47 46  1  0  0  0  0
 47 45  1  0  0  0  0
 48 49  1  0  0  0  0
 49 51  1  0  0  0  0
 51 52  1  0  0  0  0
 51 50  1  0  0  0  0
 52 50  1  0  0  0  0
M  END
>  <MODEL>
1

>  <REMARK>
 VINA RESULT:      -4.9      0.000      0.000
  Name = 
  13 active torsions:
  status: ('A' for Active; 'I' for Inactive)
    1  A    between atoms: C_1  and  C_45
    2  A    between atoms: C_1  and  C_47
    3  A    between atoms: C_2  and  N_51
    4  A    between atoms: C_8  and  C_49
    5  A    between atoms: C_9  and  C_13
    6  A    between atoms: C_10  and  C_14
    7  A    between atoms: C_10  and  C_43
    8  A    between atoms: C_14  and  C_47
    9  A    between atoms: C_16  and  O_35
   10  A    between atoms: C_22  and  C_43
   11  A    between atoms: N_26  and  C_28
   12  A    between atoms: C_28  and  C_46
   13  A    between atoms: C_33  and  C_43
                            x       y       z     vdW  Elec       q    Type
                         _______ _______ _______ _____ _____    ______ ____

>  <TORSDO>
F 13

$$$$
=
 OpenBabel11072411333D

 52 57  0  0  1  0  0  0  0  0999 V2000
  162.0870  210.1030  148.5160 C   0  0  0  0  0  2  0  0  0  0  0  0
  161.8360  213.3750  148.2230 C   0  0  0  0  0  0  0  0  0  0  0  0
  160.7960  211.6610  147.0510 C   0  0  0  0  0  2  0  0  0  0  0  0
  162.6170  214.3870  148.4100 N   0  0  0  0  0  2  0  0  0  0  0  0
  161.0170  211.1810  148.4950 C   0  0  2  0  0  3  0  0  0  0  0  0
  161.5150  212.3950  149.2840 C   0  0  2  0  0  3  0  0  0  0  0  0
  161.4830  212.9360  146.9310 N   0  0  0  0  0  2  0  0  0  0  0  0
  160.4330  212.9240  150.1710 C   0  0  0  0  0  0  0  0  0  0  0  0
  159.8880  214.0240  149.8890 O   0  0  0  0  0  0  0  0  0  0  0  0
  160.0270  212.1890  151.3340 N   0  0  0  0  0  2  0  0  0  0  0  0
  158.9910  212.6230  152.2660 C   0  0  1  0  0  3  0  0  0  0  0  0
  156.5470  212.9120  153.5970 C   0  0  1  0  0  3  0  0  0  0  0  0
  159.6120  213.2000  153.5520 C   0  0  1  0  0  3  0  0  0  0  0  0
  158.0040  213.5750  151.5760 C   0  0  0  0  0  2  0  0  0  0  0  0
  158.6890  214.1160  154.3730 C   0  0  0  0  0  2  0  0  0  0  0  0
  155.2180  212.7560  153.9440 F   0  0  0  0  0  0  0  0  0  0  0  0
  156.6640  213.7440  152.3160 C   0  0  0  0  0  2  0  0  0  0  0  0
  157.3470  213.4910  154.7760 C   0  0  1  0  0  3  0  0  0  0  0  0
  156.5950  214.4470  155.4360 F   0  0  0  0  0  0  0  0  0  0  0  0
  160.8610  211.3130  156.5920 C   0  0  0  0  0  3  0  0  0  0  0  0
  160.2670  212.1460  154.3920 C   0  0  0  0  0  0  0  0  0  0  0  0
  160.8850  211.0300  153.8100 C   0  0  0  0  0  3  0  0  0  0  0  0
  160.2570  212.2820  155.7850 C   0  0  0  0  0  3  0  0  0  0  0  0
  161.4750  210.2020  156.0080 C   0  0  0  0  0  0  0  0  0  0  0  0
  162.0690  209.2370  156.8100 O   0  0  0  0  0  1  0  0  0  0  0  0
  161.4860  210.0610  154.6170 C   0  0  0  0  0  3  0  0  0  0  0  0
  161.4590  208.7320  148.7290 C   0  0  0  0  0  2  0  0  0  0  0  0
  162.0940  207.6490  147.8560 C   0  0  1  0  0  3  0  0  0  0  0  0
  163.5390  207.3630  148.2520 C   0  0  0  0  0  1  0  0  0  0  0  0
  161.2200  206.3930  147.7260 C   0  0  2  0  0  3  0  0  0  0  0  0
  159.7750  206.6000  148.1720 C   0  0  0  0  0  1  0  0  0  0  0  0
  161.8830  205.1550  148.3620 C   0  0  2  0  0  3  0  0  0  0  0  0
  160.1450  205.9330  145.8370 O   0  0  0  0  0  1  0  0  0  0  0  0
  163.0130  205.2950  145.3800 C   0  0  0  0  0  2  0  0  0  0  0  0
  160.7990  203.7310  146.5150 C   0  0  2  0  0  3  0  0  0  0  0  0
  160.5560  204.6950  145.3310 C   0  0  0  0  0  0  0  0  0  0  0  0
  159.5410  204.1890  144.5170 O   0  0  0  0  0  1  0  0  0  0  0  0
  163.2910  204.2290  146.4340 C   0  0  0  0  0  2  0  0  0  0  0  0
  161.8410  204.8690  144.5020 C   0  0  1  0  0  3  0  0  0  0  0  0
  162.0750  204.0020  147.3460 C   0  0  1  0  0  3  0  0  0  0  0  0
  161.6540  205.8730  143.3760 C   0  0  0  0  0  1  0  0  0  0  0  0
  161.2320  201.5810  147.2000 C   0  0  0  0  0  1  0  0  0  0  0  0
  160.5590  202.3630  146.2490 O   0  0  0  0  0  0  0  0  0  0  0  0
  160.7830  202.9720  151.2010 C   0  0  0  0  0  2  0  0  0  0  0  0
  162.0770  204.9120  150.8850 C   0  0  0  0  0  2  0  0  0  0  0  0
  160.7250  203.3150  149.7300 C   0  0  0  0  0  2  0  0  0  0  0  0
  161.1850  204.7450  149.6770 C   0  0  2  0  0  3  0  0  0  0  0  0
  161.7140  203.8900  151.8600 N   0  0  0  0  0  0  0  0  0  0  0  0
  160.9750  204.5590  152.9210 C   0  0  0  0  0  2  0  0  0  0  0  0
  160.7080  206.7110  154.1060 C   0  0  0  0  0  2  0  0  0  0  0  0
  161.6600  205.8630  153.2860 C   0  0  0  0  0  3  0  0  0  0  0  0
  160.9160  207.0100  152.6350 C   0  0  0  0  0  2  0  0  0  0  0  0
  1 27  1  0  0  0  0
  2  4  2  0  0  0  0
  2  6  1  0  0  0  0
  3  5  1  0  0  0  0
  5  1  1  6  0  0  0
  5  6  1  0  0  0  0
  6  8  1  1  0  0  0
  7  3  1  0  0  0  0
  7  2  1  0  0  0  0
  8 10  1  0  0  0  0
  9  8  2  0  0  0  0
 11 10  1  6  0  0  0
 11 13  1  0  0  0  0
 12 16  1  1  0  0  0
 12 18  1  0  0  0  0
 13 15  1  0  0  0  0
 13 21  1  1  0  0  0
 14 11  1  0  0  0  0
 14 17  1  0  0  0  0
 15 18  1  0  0  0  0
 17 12  1  0  0  0  0
 18 19  1  6  0  0  0
 21 23  1  0  0  0  0
 22 21  2  0  0  0  0
 22 26  1  0  0  0  0
 23 20  2  0  0  0  0
 24 20  1  0  0  0  0
 24 25  1  0  0  0  0
 26 24  2  0  0  0  0
 28 29  1  1  0  0  0
 28 27  1  0  0  0  0
 30 28  1  0  0  0  0
 30 31  1  1  0  0  0
 32 30  1  6  0  0  0
 34 38  1  0  0  0  0
 35 43  1  6  0  0  0
 35 40  1  0  0  0  0
 36 33  1  0  0  0  0
 36 35  1  0  0  0  0
 37 36  1  0  0  0  0
 38 40  1  0  0  0  0
 39 41  1  6  0  0  0
 39 36  1  0  0  0  0
 39 34  1  0  0  0  0
 40 32  1  6  0  0  0
 43 42  1  0  0  0  0
 44 48  1  0  0  0  0
 45 48  1  0  0  0  0
 46 44  1  0  0  0  0
 47 32  1  6  0  0  0
 47 46  1  0  0  0  0
 47 45  1  0  0  0  0
 48 49  1  0  0  0  0
 49 51  1  0  0  0  0
 51 50  1  0  0  0  0
 52 51  1  0  0  0  0
 52 50  1  0  0  0  0
M  END
>  <MODEL>
2

>  <REMARK>
 VINA RESULT:      -3.6      3.629      9.391
  Name = 
  13 active torsions:
  status: ('A' for Active; 'I' for Inactive)
    1  A    between atoms: C_1  and  C_45
    2  A    between atoms: C_1  and  C_47
    3  A    between atoms: C_2  and  N_51
    4  A    between atoms: C_8  and  C_49
    5  A    between atoms: C_9  and  C_13
    6  A    between atoms: C_10  and  C_14
    7  A    between atoms: C_10  and  C_43
    8  A    between atoms: C_14  and  C_47
    9  A    between atoms: C_16  and  O_35
   10  A    between atoms: C_22  and  C_43
   11  A    between atoms: N_26  and  C_28
   12  A    between atoms: C_28  and  C_46
   13  A    between atoms: C_33  and  C_43
                            x       y       z     vdW  Elec       q    Type
                         _______ _______ _______ _____ _____    ______ ____

>  <TORSDO>
F 13

$$$$
=
 OpenBabel11072411333D

 52 57  0  0  1  0  0  0  0  0999 V2000
  161.5260  207.9440  152.8700 C   0  0  0  0  0  2  0  0  0  0  0  0
  162.0340  207.9620  149.6140 C   0  0  0  0  0  0  0  0  0  0  0  0
  163.3850  207.2380  151.3580 C   0  0  0  0  0  2  0  0  0  0  0  0
  161.6660  208.7010  148.6210 N   0  0  0  0  0  2  0  0  0  0  0  0
  161.9220  206.9880  151.7580 C   0  0  2  0  0  3  0  0  0  0  0  0
  161.0760  207.2860  150.5160 C   0  0  2  0  0  3  0  0  0  0  0  0
  163.3510  207.9940  150.1180 N   0  0  0  0  0  2  0  0  0  0  0  0
  160.5870  206.0150  149.8970 C   0  0  0  0  0  0  0  0  0  0  0  0
  159.5070  206.0200  149.2510 O   0  0  0  0  0  0  0  0  0  0  0  0
  161.3390  204.8020  150.0460 N   0  0  0  0  0  2  0  0  0  0  0  0
  160.9440  203.5110  149.4910 C   0  0  1  0  0  3  0  0  0  0  0  0
  159.4450  201.2640  148.7610 C   0  0  1  0  0  3  0  0  0  0  0  0
  161.9020  203.0770  148.3670 C   0  0  1  0  0  3  0  0  0  0  0  0
  160.7860  202.4660  150.6050 C   0  0  0  0  0  2  0  0  0  0  0  0
  161.9020  201.5730  148.0480 C   0  0  0  0  0  2  0  0  0  0  0  0
  158.3880  200.3850  148.6170 F   0  0  0  0  0  0  0  0  0  0  0  0
  159.9720  201.2240  150.1990 C   0  0  0  0  0  2  0  0  0  0  0  0
  160.5280  200.9830  147.7060 C   0  0  1  0  0  3  0  0  0  0  0  0
  160.6660  199.6180  147.5210 F   0  0  0  0  0  0  0  0  0  0  0  0
  160.8240  204.2240  144.9190 C   0  0  0  0  0  3  0  0  0  0  0  0
  161.7590  203.9220  147.1380 C   0  0  0  0  0  0  0  0  0  0  0  0
  162.3930  205.1690  147.0330 C   0  0  0  0  0  3  0  0  0  0  0  0
  160.9750  203.4550  146.0770 C   0  0  0  0  0  3  0  0  0  0  0  0
  161.4560  205.4660  144.8200 C   0  0  0  0  0  0  0  0  0  0  0  0
  161.3020  206.2320  143.6720 O   0  0  0  0  0  1  0  0  0  0  0  0
  162.2400  205.9380  145.8770 C   0  0  0  0  0  3  0  0  0  0  0  0
  160.1460  208.5300  152.6030 C   0  0  0  0  0  2  0  0  0  0  0  0
  159.9560  209.9070  153.2410 C   0  0  1  0  0  3  0  0  0  0  0  0
  161.0310  210.2150  154.2790 C   0  0  0  0  0  1  0  0  0  0  0  0
  159.7460  211.0240  152.2080 C   0  0  2  0  0  3  0  0  0  0  0  0
  161.0400  211.6890  151.7480 C   0  0  0  0  0  1  0  0  0  0  0  0
  158.6670  212.0310  152.6520 C   0  0  2  0  0  3  0  0  0  0  0  0
  157.3420  212.1480  149.7830 O   0  0  0  0  0  1  0  0  0  0  0  0
  156.5610  214.2490  151.7360 C   0  0  0  0  0  2  0  0  0  0  0  0
  159.1570  213.4850  150.5890 C   0  0  2  0  0  3  0  0  0  0  0  0
  157.8720  213.4400  149.7300 C   0  0  0  0  0  0  0  0  0  0  0  0
  158.1880  213.7360  148.4020 O   0  0  0  0  0  1  0  0  0  0  0  0
  157.8420  214.4530  152.5380 C   0  0  0  0  0  2  0  0  0  0  0  0
  156.8370  214.4530  150.2500 C   0  0  1  0  0  3  0  0  0  0  0  0
  158.9380  213.4600  152.1200 C   0  0  1  0  0  3  0  0  0  0  0  0
  155.5330  214.3770  149.4720 C   0  0  0  0  0  1  0  0  0  0  0  0
  161.1030  213.7180  149.3880 C   0  0  0  0  0  1  0  0  0  0  0  0
  160.1490  214.3980  150.1600 O   0  0  0  0  0  0  0  0  0  0  0  0
  158.2790  213.1740  156.1980 C   0  0  0  0  0  2  0  0  0  0  0  0
  156.9500  212.1980  154.5190 C   0  0  0  0  0  2  0  0  0  0  0  0
  159.1730  212.9330  155.0030 C   0  0  0  0  0  2  0  0  0  0  0  0
  158.3990  211.9490  154.1700 C   0  0  2  0  0  3  0  0  0  0  0  0
  156.9040  212.8310  155.8330 N   0  0  0  0  0  0  0  0  0  0  0  0
  156.4500  211.8190  156.7760 C   0  0  0  0  0  2  0  0  0  0  0  0
  154.6770  210.1470  157.1900 C   0  0  0  0  0  2  0  0  0  0  0  0
  155.0080  211.4460  156.4820 C   0  0  0  0  0  3  0  0  0  0  0  0
  154.9850  210.1450  155.7070 C   0  0  0  0  0  2  0  0  0  0  0  0
  2  7  1  0  0  0  0
  2  6  1  0  0  0  0
  3  5  1  0  0  0  0
  4  2  2  0  0  0  0
  5  1  1  1  0  0  0
  6  8  1  6  0  0  0
  6  5  1  0  0  0  0
  7  3  1  0  0  0  0
  8 10  1  0  0  0  0
  9  8  2  0  0  0  0
 11 10  1  1  0  0  0
 11 14  1  0  0  0  0
 12 16  1  1  0  0  0
 12 17  1  0  0  0  0
 13 21  1  6  0  0  0
 13 11  1  0  0  0  0
 15 13  1  0  0  0  0
 17 14  1  0  0  0  0
 18 19  1  1  0  0  0
 18 15  1  0  0  0  0
 18 12  1  0  0  0  0
 20 23  1  0  0  0  0
 22 21  1  0  0  0  0
 23 21  2  0  0  0  0
 24 20  2  0  0  0  0
 24 26  1  0  0  0  0
 25 24  1  0  0  0  0
 26 22  2  0  0  0  0
 27  1  1  0  0  0  0
 27 28  1  0  0  0  0
 28 29  1  6  0  0  0
 30 31  1  1  0  0  0
 30 28  1  0  0  0  0
 32 30  1  1  0  0  0
 34 38  1  0  0  0  0
 35 43  1  1  0  0  0
 35 40  1  0  0  0  0
 36 33  1  0  0  0  0
 36 39  1  0  0  0  0
 36 35  1  0  0  0  0
 37 36  1  0  0  0  0
 39 41  1  6  0  0  0
 39 34  1  0  0  0  0
 40 38  1  0  0  0  0
 40 32  1  6  0  0  0
 42 43  1  0  0  0  0
 45 48  1  0  0  0  0
 46 44  1  0  0  0  0
 47 32  1  6  0  0  0
 47 45  1  0  0  0  0
 47 46  1  0  0  0  0
 48 44  1  0  0  0  0
 48 49  1  0  0  0  0
 51 49  1  0  0  0  0
 51 50  1  0  0  0  0
 52 51  1  0  0  0  0
 52 50  1  0  0  0  0
M  END
>  <MODEL>
3

>  <REMARK>
 VINA RESULT:      -2.5      2.498      3.825
  Name = 
  13 active torsions:
  status: ('A' for Active; 'I' for Inactive)
    1  A    between atoms: C_1  and  C_45
    2  A    between atoms: C_1  and  C_47
    3  A    between atoms: C_2  and  N_51
    4  A    between atoms: C_8  and  C_49
    5  A    between atoms: C_9  and  C_13
    6  A    between atoms: C_10  and  C_14
    7  A    between atoms: C_10  and  C_43
    8  A    between atoms: C_14  and  C_47
    9  A    between atoms: C_16  and  O_35
   10  A    between atoms: C_22  and  C_43
   11  A    between atoms: N_26  and  C_28
   12  A    between atoms: C_28  and  C_46
   13  A    between atoms: C_33  and  C_43
                            x       y       z     vdW  Elec       q    Type
                         _______ _______ _______ _____ _____    ______ ____

>  <TORSDO>
F 13

$$$$
=
 OpenBabel11072411333D

 52 57  0  0  1  0  0  0  0  0999 V2000
  160.6990  209.6180  151.3140 C   0  0  0  0  0  2  0  0  0  0  0  0
  162.6970  207.0110  151.5760 C   0  0  0  0  0  0  0  0  0  0  0  0
  161.0600  207.8210  153.0110 C   0  0  0  0  0  2  0  0  0  0  0  0
  163.8880  206.7100  151.1770 N   0  0  0  0  0  2  0  0  0  0  0  0
  160.6180  208.1230  151.5700 C   0  0  2  0  0  3  0  0  0  0  0  0
  161.6100  207.4040  150.6520 C   0  0  2  0  0  3  0  0  0  0  0  0
  162.4150  207.3030  152.9260 N   0  0  0  0  0  2  0  0  0  0  0  0
  160.9790  206.1910  150.0450 C   0  0  0  0  0  0  0  0  0  0  0  0
  159.9310  206.3190  149.3590 O   0  0  0  0  0  0  0  0  0  0  0  0
  161.5590  204.8940  150.2500 N   0  0  0  0  0  2  0  0  0  0  0  0
  161.0160  203.6510  149.7120 C   0  0  1  0  0  3  0  0  0  0  0  0
  159.2820  201.5530  149.0670 C   0  0  1  0  0  3  0  0  0  0  0  0
  161.8530  203.1550  148.5180 C   0  0  1  0  0  3  0  0  0  0  0  0
  160.8470  202.6060  150.8240 C   0  0  0  0  0  2  0  0  0  0  0  0
  161.7010  201.6610  148.1860 C   0  0  0  0  0  2  0  0  0  0  0  0
  158.1450  200.7700  148.9880 F   0  0  0  0  0  0  0  0  0  0  0  0
  159.9020  201.4450  150.4640 C   0  0  0  0  0  2  0  0  0  0  0  0
  160.2610  201.1970  147.9360 C   0  0  1  0  0  3  0  0  0  0  0  0
  160.2680  199.8280  147.7280 F   0  0  0  0  0  0  0  0  0  0  0  0
  161.1640  204.2420  144.9540 C   0  0  0  0  0  3  0  0  0  0  0  0
  161.7000  204.0290  147.3110 C   0  0  0  0  0  0  0  0  0  0  0  0
  161.9290  205.4110  147.3780 C   0  0  0  0  0  3  0  0  0  0  0  0
  161.3170  203.4500  146.0960 C   0  0  0  0  0  3  0  0  0  0  0  0
  161.3940  205.6190  145.0250 C   0  0  0  0  0  0  0  0  0  0  0  0
  161.2380  206.4070  143.8920 O   0  0  0  0  0  1  0  0  0  0  0  0
  161.7760  206.2030  146.2370 C   0  0  0  0  0  3  0  0  0  0  0  0
  161.1220  210.3540  152.5790 C   0  0  0  0  0  2  0  0  0  0  0  0
  159.9360  210.7400  153.4620 C   0  0  1  0  0  3  0  0  0  0  0  0
  159.7040  209.7390  154.5880 C   0  0  0  0  0  1  0  0  0  0  0  0
  159.9850  212.2040  153.9260 C   0  0  2  0  0  3  0  0  0  0  0  0
  160.4310  212.3760  155.3750 C   0  0  0  0  0  1  0  0  0  0  0  0
  158.6850  212.9630  153.5940 C   0  0  2  0  0  3  0  0  0  0  0  0
  157.3450  213.7670  156.3440 O   0  0  0  0  0  1  0  0  0  0  0  0
  155.6340  213.8480  153.9140 C   0  0  0  0  0  2  0  0  0  0  0  0
  157.1400  211.6760  155.1970 C   0  0  2  0  0  3  0  0  0  0  0  0
  156.4300  212.7520  156.0490 C   0  0  0  0  0  0  0  0  0  0  0  0
  155.9950  212.1840  157.2490 O   0  0  0  0  0  1  0  0  0  0  0  0
  156.1910  212.7030  153.0740 C   0  0  0  0  0  2  0  0  0  0  0  0
  155.2250  213.3360  155.2910 C   0  0  1  0  0  3  0  0  0  0  0  0
  157.4280  212.0680  153.7280 C   0  0  1  0  0  3  0  0  0  0  0  0
  154.5530  214.4520  156.0730 C   0  0  0  0  0  1  0  0  0  0  0  0
  155.4640  210.1990  154.6530 C   0  0  0  0  0  1  0  0  0  0  0  0
  156.6660  210.3530  155.3610 O   0  0  0  0  0  0  0  0  0  0  0  0
  160.1970  214.2380  150.4130 C   0  0  0  0  0  2  0  0  0  0  0  0
  158.3940  212.8760  151.0700 C   0  0  0  0  0  2  0  0  0  0  0  0
  160.1710  214.2280  151.9240 C   0  0  0  0  0  2  0  0  0  0  0  0
  158.7930  213.7240  152.2560 C   0  0  2  0  0  3  0  0  0  0  0  0
  159.1800  213.3080  149.9200 N   0  0  0  0  0  0  0  0  0  0  0  0
  158.2870  214.0690  149.0570 C   0  0  0  0  0  2  0  0  0  0  0  0
  157.6420  213.4020  146.7670 C   0  0  0  0  0  2  0  0  0  0  0  0
  157.4250  213.1230  148.2410 C   0  0  0  0  0  3  0  0  0  0  0  0
  156.4060  213.9310  147.4650 C   0  0  0  0  0  2  0  0  0  0  0  0
  1 27  1  0  0  0  0
  2  7  1  0  0  0  0
  4  2  2  0  0  0  0
  5  1  1  6  0  0  0
  5  3  1  0  0  0  0
  6  8  1  1  0  0  0
  6  5  1  0  0  0  0
  6  2  1  0  0  0  0
  7  3  1  0  0  0  0
  8 10  1  0  0  0  0
  9  8  2  0  0  0  0
 11 10  1  1  0  0  0
 11 14  1  0  0  0  0
 12 16  1  1  0  0  0
 12 17  1  0  0  0  0
 13 21  1  6  0  0  0
 13 11  1  0  0  0  0
 15 13  1  0  0  0  0
 17 14  1  0  0  0  0
 18 19  1  1  0  0  0
 18 15  1  0  0  0  0
 18 12  1  0  0  0  0
 20 24  2  0  0  0  0
 20 23  1  0  0  0  0
 21 22  1  0  0  0  0
 23 21  2  0  0  0  0
 24 26  1  0  0  0  0
 25 24  1  0  0  0  0
 26 22  2  0  0  0  0
 27 28  1  0  0  0  0
 28 30  1  0  0  0  0
 28 29  1  1  0  0  0
 30 31  1  1  0  0  0
 32 30  1  6  0  0  0
 34 39  1  0  0  0  0
 35 43  1  6  0  0  0
 35 36  1  0  0  0  0
 36 33  1  0  0  0  0
 36 37  1  0  0  0  0
 38 40  1  0  0  0  0
 38 34  1  0  0  0  0
 39 36  1  0  0  0  0
 39 41  1  1  0  0  0
 40 32  1  1  0  0  0
 40 35  1  0  0  0  0
 42 43  1  0  0  0  0
 44 46  1  0  0  0  0
 45 47  1  0  0  0  0
 46 47  1  0  0  0  0
 47 32  1  1  0  0  0
 48 44  1  0  0  0  0
 48 45  1  0  0  0  0
 49 48  1  0  0  0  0
 50 52  1  0  0  0  0
 50 51  1  0  0  0  0
 51 49  1  0  0  0  0
 52 51  1  0  0  0  0
M  END
>  <MODEL>
4

>  <REMARK>
 VINA RESULT:      -2.0      2.702      5.680
  Name = 
  13 active torsions:
  status: ('A' for Active; 'I' for Inactive)
    1  A    between atoms: C_1  and  C_45
    2  A    between atoms: C_1  and  C_47
    3  A    between atoms: C_2  and  N_51
    4  A    between atoms: C_8  and  C_49
    5  A    between atoms: C_9  and  C_13
    6  A    between atoms: C_10  and  C_14
    7  A    between atoms: C_10  and  C_43
    8  A    between atoms: C_14  and  C_47
    9  A    between atoms: C_16  and  O_35
   10  A    between atoms: C_22  and  C_43
   11  A    between atoms: N_26  and  C_28
   12  A    between atoms: C_28  and  C_46
   13  A    between atoms: C_33  and  C_43
                            x       y       z     vdW  Elec       q    Type
                         _______ _______ _______ _____ _____    ______ ____

>  <TORSDO>
F 13

$$$$
