=
 OpenBabel11072415103D

 39 43  0  0  1  0  0  0  0  0999 V2000
  161.1720  214.4530  150.8010 O   0  0  0  0  0  0  0  0  0  0  0  0
  160.0310  212.7770  149.5660 C   0  0  2  0  0  3  0  0  0  0  0  0
  161.9470  211.3420  150.3900 C   0  0  1  0  0  3  0  0  0  0  0  0
  158.8190  214.1270  152.6490 C   0  0  0  0  0  2  0  0  0  0  0  0
  160.7850  213.0280  148.2450 C   0  0  1  0  0  3  0  0  0  0  0  0
  159.3970  208.4790  156.9750 O   0  0  0  0  0  0  0  0  0  0  0  0
  157.4960  211.9810  152.6330 C   0  0  0  0  0  1  0  0  0  0  0  0
  162.0070  207.6100  151.1760 N   0  0  2  0  0  0  0  0  0  0  0  0
  158.8510  212.6270  152.9030 C   0  0  2  0  0  3  0  0  0  0  0  0
  158.5680  211.1240  156.2450 C   0  0  0  0  0  3  0  0  0  0  0  0
  160.9600  207.5580  152.1930 C   0  0  0  0  0  2  0  0  0  0  0  0
  162.3010  212.8340  148.4220 C   0  0  0  0  0  2  0  0  0  0  0  0
  160.0190  210.9220  154.3120 C   0  0  0  0  0  2  0  0  0  0  0  0
  158.3820  212.3800  155.4100 C   0  0  0  0  0  3  0  0  0  0  0  0
  160.1020  213.9360  150.5190 C   0  0  0  0  0  0  0  0  0  0  0  0
  161.7940  208.8100  150.3670 C   0  0  0  0  0  2  0  0  0  0  0  0
  161.0590  208.3030  155.2640 C   0  0  2  0  0  3  0  0  0  0  0  0
  161.4120  206.7200  153.3770 C   0  0  0  0  0  2  0  0  0  0  0  0
  162.1970  207.9830  156.2190 C   0  0  0  0  0  1  0  0  0  0  0  0
  159.4190  212.3130  154.2870 C   0  0  2  0  0  3  0  0  0  0  0  0
  162.6310  211.4750  149.0330 C   0  0  0  0  0  2  0  0  0  0  0  0
  159.5180  210.3030  155.5200 N   0  0  0  0  0  0  0  0  0  0  0  0
  158.8380  214.4310  151.1520 C   0  0  0  0  0  2  0  0  0  0  0  0
  159.9500  209.0140  155.9750 C   0  0  0  0  0  0  0  0  0  0  0  0
  160.4310  211.4610  150.2390 C   0  0  0  0  0  2  0  0  0  0  0  0
  162.3360  210.0410  151.0890 C   0  0  0  0  0  2  0  0  0  0  0  0
  160.5550  207.0370  154.5890 C   0  0  0  0  0  2  0  0  0  0  0  0
  160.7450  205.2520  148.4520 C   0  0  0  0  0  2  0  0  0  0  0  0
  160.3040  202.9290  148.7970 O   0  0  0  0  0  0  0  0  0  0  0  0
  160.7630  206.4880  149.3510 C   0  0  0  0  0  2  0  0  0  0  0  0
  161.8950  205.1070  151.1330 C   0  0  0  0  0  3  0  0  0  0  0  0
  161.3750  203.9920  150.6160 C   0  0  0  0  0  3  0  0  0  0  0  0
  161.9310  206.4000  150.3400 C   0  0  2  0  0  3  0  0  0  0  0  0
  160.7710  203.9950  149.2730 C   0  0  0  0  0  0  0  0  0  0  0  0
  158.7750  212.4580  146.8340 C   0  0  0  0  0  2  0  0  0  0  0  0
  160.2330  212.1530  147.1110 C   0  0  0  0  0  3  0  0  0  0  0  0
  160.9360  212.4330  145.7990 C   0  0  0  0  0  2  0  0  0  0  0  0
  158.5570  212.1360  145.3690 C   0  0  0  0  0  2  0  0  0  0  0  0
  159.9270  212.1100  144.7160 C   0  0  0  0  0  2  0  0  0  0  0  0
  2 25  1  1  0  0  0
  2 15  1  0  0  0  0
  3 21  1  6  0  0  0
  3 26  1  0  0  0  0
  4  9  1  0  0  0  0
  5 36  1  6  0  0  0
  5 12  1  0  0  0  0
  5  2  1  0  0  0  0
  8 16  1  6  0  0  0
  8 11  1  0  0  0  0
  9  7  1  1  0  0  0
  9 20  1  0  0  0  0
 11 18  1  0  0  0  0
 12 21  1  0  0  0  0
 13 22  1  0  0  0  0
 14 10  2  0  0  0  0
 15  1  2  0  0  0  0
 15 23  1  0  0  0  0
 16 26  1  0  0  0  0
 17 24  1  0  0  0  0
 17 19  1  1  0  0  0
 18 27  1  0  0  0  0
 20 13  1  6  0  0  0
 20 14  1  0  0  0  0
 22 24  1  0  0  0  0
 22 10  1  0  0  0  0
 23  4  1  0  0  0  0
 24  6  2  0  0  0  0
 25  3  1  0  0  0  0
 27 17  1  0  0  0  0
 28 34  1  0  0  0  0
 28 30  1  0  0  0  0
 29 34  2  0  0  0  0
 32 31  2  0  0  0  0
 33 30  1  1  0  0  0
 33 31  1  0  0  0  0
 33  8  1  0  0  0  0
 34 32  1  0  0  0  0
 35 36  1  0  0  0  0
 37 36  1  0  0  0  0
 38 35  1  0  0  0  0
 39 38  1  0  0  0  0
 39 37  1  0  0  0  0
M  END
>  <MODEL>
1

>  <REMARK>
 VINA RESULT:      -5.7      0.000      0.000
  Name = 
  2 active torsions:
  status: ('A' for Active; 'I' for Inactive)
    1  A    between atoms: C_7  and  C_9
    2  A    between atoms: N_12  and  C_20
                            x       y       z     vdW  Elec       q    Type
                         _______ _______ _______ _____ _____    ______ ____

>  <TORSDO>
F 2

$$$$
=
 OpenBabel11072415103D

 39 43  0  0  1  0  0  0  0  0999 V2000
  161.6020  214.3360  150.4820 O   0  0  0  0  0  0  0  0  0  0  0  0
  160.1520  213.0390  149.1210 C   0  0  2  0  0  3  0  0  0  0  0  0
  161.9750  211.3060  149.4160 C   0  0  1  0  0  3  0  0  0  0  0  0
  159.4450  213.8680  152.5280 C   0  0  0  0  0  2  0  0  0  0  0  0
  160.7790  213.4730  147.7810 C   0  0  1  0  0  3  0  0  0  0  0  0
  159.8600  207.4600  155.6450 O   0  0  0  0  0  0  0  0  0  0  0  0
  157.8970  211.8920  152.2940 C   0  0  0  0  0  1  0  0  0  0  0  0
  161.7030  207.5030  149.4960 N   0  0  2  0  0  0  0  0  0  0  0  0
  159.3370  212.3500  152.5000 C   0  0  2  0  0  3  0  0  0  0  0  0
  159.2570  210.2590  155.5200 C   0  0  0  0  0  3  0  0  0  0  0  0
  160.7750  207.3490  150.6140 C   0  0  0  0  0  2  0  0  0  0  0  0
  162.2750  213.1150  147.7230 C   0  0  0  0  0  2  0  0  0  0  0  0
  160.4550  210.3080  153.4130 C   0  0  0  0  0  2  0  0  0  0  0  0
  159.1220  211.6640  154.9590 C   0  0  0  0  0  3  0  0  0  0  0  0
  160.4560  213.9800  150.2510 C   0  0  0  0  0  0  0  0  0  0  0  0
  161.5380  208.8510  148.9540 C   0  0  0  0  0  2  0  0  0  0  0  0
  161.2940  207.4720  153.7300 C   0  0  2  0  0  3  0  0  0  0  0  0
  161.2590  206.2590  151.5570 C   0  0  0  0  0  2  0  0  0  0  0  0
  162.4870  206.8730  154.4570 C   0  0  0  0  0  1  0  0  0  0  0  0
  160.0150  211.7250  153.7180 C   0  0  2  0  0  3  0  0  0  0  0  0
  162.5160  211.6390  148.0290 C   0  0  0  0  0  2  0  0  0  0  0  0
  160.0240  209.5130  154.5420 N   0  0  0  0  0  0  0  0  0  0  0  0
  159.3330  214.4530  151.1220 C   0  0  0  0  0  2  0  0  0  0  0  0
  160.3560  208.1270  154.6960 C   0  0  0  0  0  0  0  0  0  0  0  0
  160.4740  211.5870  149.4870 C   0  0  0  0  0  2  0  0  0  0  0  0
  162.2900  209.8660  149.8110 C   0  0  0  0  0  2  0  0  0  0  0  0
  160.5800  206.4110  152.9070 C   0  0  0  0  0  2  0  0  0  0  0  0
  161.4970  204.0580  147.8650 C   0  0  0  0  0  2  0  0  0  0  0  0
  162.1770  203.6020  145.6200 O   0  0  0  0  0  0  0  0  0  0  0  0
  161.8810  205.1020  148.9130 C   0  0  0  0  0  2  0  0  0  0  0  0
  161.9120  206.8440  147.0880 C   0  0  0  0  0  3  0  0  0  0  0  0
  162.1480  205.9000  146.1750 C   0  0  0  0  0  3  0  0  0  0  0  0
  161.4010  206.4900  148.4720 C   0  0  2  0  0  3  0  0  0  0  0  0
  161.9680  204.4750  146.5010 C   0  0  0  0  0  0  0  0  0  0  0  0
  158.5180  212.8670  146.8440 C   0  0  0  0  0  2  0  0  0  0  0  0
  160.0110  212.8880  146.5890 C   0  0  0  0  0  3  0  0  0  0  0  0
  160.1730  213.7430  145.3490 C   0  0  0  0  0  2  0  0  0  0  0  0
  157.8640  212.9780  145.4820 C   0  0  0  0  0  2  0  0  0  0  0  0
  158.9160  213.5230  144.5330 C   0  0  0  0  0  2  0  0  0  0  0  0
  2 25  1  1  0  0  0
  2 15  1  0  0  0  0
  3 21  1  6  0  0  0
  3 25  1  0  0  0  0
  3 26  1  0  0  0  0
  5 36  1  6  0  0  0
  5  2  1  0  0  0  0
  8 16  1  6  0  0  0
  8 11  1  0  0  0  0
  9  7  1  1  0  0  0
  9  4  1  0  0  0  0
  9 20  1  0  0  0  0
 11 18  1  0  0  0  0
 12  5  1  0  0  0  0
 12 21  1  0  0  0  0
 13 22  1  0  0  0  0
 14 10  2  0  0  0  0
 15  1  2  0  0  0  0
 15 23  1  0  0  0  0
 16 26  1  0  0  0  0
 17 19  1  1  0  0  0
 17 24  1  0  0  0  0
 18 27  1  0  0  0  0
 20 13  1  6  0  0  0
 20 14  1  0  0  0  0
 22 24  1  0  0  0  0
 22 10  1  0  0  0  0
 23  4  1  0  0  0  0
 24  6  2  0  0  0  0
 27 17  1  0  0  0  0
 28 30  1  0  0  0  0
 29 34  2  0  0  0  0
 32 34  1  0  0  0  0
 32 31  2  0  0  0  0
 33 31  1  6  0  0  0
 33 30  1  0  0  0  0
 33  8  1  0  0  0  0
 34 28  1  0  0  0  0
 36 35  1  0  0  0  0
 37 36  1  0  0  0  0
 38 35  1  0  0  0  0
 39 37  1  0  0  0  0
 39 38  1  0  0  0  0
M  END
>  <MODEL>
2

>  <REMARK>
 VINA RESULT:      -4.3      1.406      1.799
  Name = 
  2 active torsions:
  status: ('A' for Active; 'I' for Inactive)
    1  A    between atoms: C_7  and  C_9
    2  A    between atoms: N_12  and  C_20
                            x       y       z     vdW  Elec       q    Type
                         _______ _______ _______ _____ _____    ______ ____

>  <TORSDO>
F 2

$$$$
