=
 OpenBabel11072412523D

 41 45  0  0  1  0  0  0  0  0999 V2000
  162.3240  208.3170  149.9590 O   0  0  0  0  0  0  0  0  0  0  0  0
  158.4070  213.8010  149.0650 C   0  0  2  0  0  3  0  0  0  0  0  0
  162.3600  208.6640  151.3140 C   0  0  0  0  0  0  0  0  0  0  0  0
  157.9390  213.3870  151.3740 C   0  0  1  0  0  3  0  0  0  0  0  0
  158.8230  213.2940  154.6040 C   0  0  1  0  0  3  0  0  0  0  0  0
  162.0190  210.0710  151.7470 C   0  0  1  0  0  3  0  0  0  0  0  0
  161.1010  210.8090  150.7470 C   0  0  2  0  0  0  0  0  0  0  0  0
  158.4810  214.4520  152.3240 C   0  0  0  0  0  2  0  0  0  0  0  0
  161.5800  210.5600  149.3050 C   0  0  1  0  0  3  0  0  0  0  0  0
  162.9030  211.1270  149.0860 N   0  0  0  0  0  1  0  0  0  0  0  0
  156.3520  214.4530  148.1230 C   0  0  0  0  0  2  0  0  0  0  0  0
  161.1140  209.1690  156.0260 N   0  0  0  0  0  2  0  0  0  0  0  0
  158.4850  209.7410  154.0960 C   0  0  0  0  0  2  0  0  0  0  0  0
  160.2880  213.1650  154.1730 C   0  0  0  0  0  1  0  0  0  0  0  0
  161.1920  212.2110  151.0440 O   0  0  0  0  0  0  0  0  0  0  0  0
  157.1790  214.0830  146.8800 C   0  0  1  0  0  3  0  0  0  0  0  0
  160.3790  213.2330  150.5320 C   0  0  0  0  0  0  0  0  0  0  0  0
  160.8590  214.3940  150.4380 O   0  0  0  0  0  0  0  0  0  0  0  0
  157.9750  214.2540  153.7520 C   0  0  0  0  0  2  0  0  0  0  0  0
  159.3490  207.7770  156.5800 O   0  0  0  0  0  0  0  0  0  0  0  0
  158.8190  211.2770  155.9140 C   0  0  1  0  0  3  0  0  0  0  0  0
  161.7000  210.4210  155.5720 C   0  0  0  0  0  2  0  0  0  0  0  0
  159.6640  210.2920  150.8890 C   0  0  0  0  0  1  0  0  0  0  0  0
  159.7100  208.8820  156.0970 C   0  0  0  0  0  0  0  0  0  0  0  0
  156.6980  213.9560  150.6680 C   0  0  0  0  0  2  0  0  0  0  0  0
  158.6360  209.8090  155.5910 C   0  0  2  0  0  3  0  0  0  0  0  0
  158.7300  213.2220  147.3950 S   0  0  0  0  0  0  0  0  0  0  0  0
  158.9220  213.0080  150.2330 C   0  0  2  0  0  3  0  0  0  0  0  0
  158.1380  212.0160  154.8530 N   0  0  2  0  0  0  0  0  0  0  0  0
  162.2810  210.2720  154.2040 C   0  0  0  0  0  3  0  0  0  0  0  0
  161.5950  209.0630  148.9850 C   0  0  0  0  0  2  0  0  0  0  0  0
  162.8140  207.8090  152.1710 N   0  0  0  0  0  2  0  0  0  0  0  0
  161.4810  210.1600  153.1480 C   0  0  0  0  0  3  0  0  0  0  0  0
  156.9530  213.6250  149.2200 C   0  0  2  0  0  3  0  0  0  0  0  0
  158.1610  211.1600  153.6640 C   0  0  0  0  0  2  0  0  0  0  0  0
  155.7570  212.4800  145.2880 C   0  0  0  0  0  3  0  0  0  0  0  0
  156.4000  213.2030  146.0070 C   0  0  0  0  0  0  0  0  0  0  0  0
  158.1940  211.6100  157.2610 C   0  0  0  0  0  2  0  0  0  0  0  0
  156.8150  212.1420  157.0760 C   0  0  0  0  0  0  0  0  0  0  0  0
  155.7790  211.2850  156.7350 O   0  0  0  0  0  0  0  0  0  0  0  0
  156.5850  213.3660  157.2570 O   0  0  0  0  0  1  0  0  0  0  0  0
  1  3  1  0  0  0  0
  2 27  1  6  0  0  0
  2 34  1  0  0  0  0
  2 28  1  0  0  0  0
  3  6  1  0  0  0  0
  3 32  2  0  0  0  0
  4 25  1  6  0  0  0
  4  8  1  0  0  0  0
  5 14  1  6  0  0  0
  5 29  1  0  0  0  0
  6 33  1  1  0  0  0
  7 23  1  1  0  0  0
  7 15  1  0  0  0  0
  7  6  1  0  0  0  0
  8 19  1  0  0  0  0
  9 10  1  1  0  0  0
  9  7  1  0  0  0  0
 12 24  1  0  0  0  0
 16 37  1  6  0  0  0
 16 27  1  0  0  0  0
 16 11  1  0  0  0  0
 17 15  1  0  0  0  0
 18 17  2  0  0  0  0
 19  5  1  0  0  0  0
 21 38  1  1  0  0  0
 22 12  1  0  0  0  0
 24 20  2  0  0  0  0
 26 13  1  6  0  0  0
 26 21  1  0  0  0  0
 26 24  1  0  0  0  0
 28 17  1  1  0  0  0
 28  4  1  0  0  0  0
 29 35  1  6  0  0  0
 29 21  1  0  0  0  0
 30 22  1  0  0  0  0
 31  9  1  0  0  0  0
 31  1  1  0  0  0  0
 33 30  2  0  0  0  0
 34 11  1  6  0  0  0
 34 25  1  0  0  0  0
 35 13  1  0  0  0  0
 36 37  3  0  0  0  0
 39 41  1  0  0  0  0
 39 38  1  0  0  0  0
 40 39  2  0  0  0  0
M  END
>  <MODEL>
1

>  <REMARK>
 VINA RESULT:       6.2      0.000      0.000
  Name = 
  3 active torsions:
  status: ('A' for Active; 'I' for Inactive)
    1  A    between atoms: C_14  and  C_26
    2  A    between atoms: C_18  and  C_27
    3  A    between atoms: C_24  and  C_26
                            x       y       z     vdW  Elec       q    Type
                         _______ _______ _______ _____ _____    ______ ____

>  <TORSDO>
F 3

$$$$
=
 OpenBabel11072412523D

 41 45  0  0  1  0  0  0  0  0999 V2000
  160.2120  212.6150  148.6370 O   0  0  0  0  0  0  0  0  0  0  0  0
  160.4830  210.3060  155.0250 C   0  0  2  0  0  3  0  0  0  0  0  0
  160.9190  211.4630  148.2770 C   0  0  0  0  0  0  0  0  0  0  0  0
  160.6960  208.2220  153.8700 C   0  0  1  0  0  3  0  0  0  0  0  0
  162.3840  206.0620  151.9440 C   0  0  1  0  0  3  0  0  0  0  0  0
  161.6890  210.6870  149.3200 C   0  0  1  0  0  3  0  0  0  0  0  0
  161.1430  210.8870  150.7510 C   0  0  2  0  0  0  0  0  0  0  0  0
  162.0630  207.5580  154.0210 C   0  0  0  0  0  2  0  0  0  0  0  0
  160.8320  212.3750  150.9970 C   0  0  1  0  0  3  0  0  0  0  0  0
  162.0440  213.1810  150.9420 N   0  0  0  0  0  1  0  0  0  0  0  0
  159.0980  209.8540  156.8720 C   0  0  0  0  0  2  0  0  0  0  0  0
  161.9730  206.8270  147.0930 N   0  0  0  0  0  2  0  0  0  0  0  0
  159.7890  206.8870  149.5810 C   0  0  0  0  0  2  0  0  0  0  0  0
  163.1960  207.2350  151.3850 C   0  0  0  0  0  1  0  0  0  0  0  0
  162.1710  210.4590  151.6590 O   0  0  0  0  0  0  0  0  0  0  0  0
  159.0280  211.3870  156.7790 C   0  0  1  0  0  3  0  0  0  0  0  0
  162.0430  210.2670  153.0430 C   0  0  0  0  0  0  0  0  0  0  0  0
  163.0630  210.4130  153.7670 O   0  0  0  0  0  0  0  0  0  0  0  0
  162.0750  206.1410  153.4490 C   0  0  0  0  0  2  0  0  0  0  0  0
  160.0580  205.6420  146.5560 O   0  0  0  0  0  0  0  0  0  0  0  0
  161.5970  205.3180  149.7960 C   0  0  1  0  0  3  0  0  0  0  0  0
  163.0000  207.3100  148.0030 C   0  0  0  0  0  2  0  0  0  0  0  0
  159.8550  210.0740  150.9300 C   0  0  0  0  0  1  0  0  0  0  0  0
  160.8250  206.0520  147.4660 C   0  0  0  0  0  0  0  0  0  0  0  0
  159.9190  208.0310  155.1830 C   0  0  0  0  0  2  0  0  0  0  0  0
  160.4560  205.7290  148.8900 C   0  0  2  0  0  3  0  0  0  0  0  0
  159.7800  211.9500  155.1880 S   0  0  0  0  0  0  0  0  0  0  0  0
  160.7670  209.7580  153.6550 C   0  0  2  0  0  3  0  0  0  0  0  0
  161.1990  205.6980  151.1500 N   0  0  2  0  0  0  0  0  0  0  0  0
  162.8490  208.7760  148.2470 C   0  0  0  0  0  3  0  0  0  0  0  0
  159.8140  212.8950  149.9780 C   0  0  0  0  0  2  0  0  0  0  0  0
  161.0130  211.1480  147.0260 N   0  0  0  0  0  2  0  0  0  0  0  0
  161.8470  209.2270  148.9950 C   0  0  0  0  0  3  0  0  0  0  0  0
  159.3960  209.4160  155.4680 C   0  0  2  0  0  3  0  0  0  0  0  0
  160.2800  206.8300  151.0170 C   0  0  0  0  0  2  0  0  0  0  0  0
  156.4840  212.1880  156.8950 C   0  0  0  0  0  3  0  0  0  0  0  0
  157.6340  211.8270  156.8410 C   0  0  0  0  0  0  0  0  0  0  0  0
  161.8230  203.8160  149.7240 C   0  0  0  0  0  2  0  0  0  0  0  0
  160.7560  203.0930  150.4700 C   0  0  0  0  0  0  0  0  0  0  0  0
  160.8330  202.9680  151.8490 O   0  0  0  0  0  1  0  0  0  0  0  0
  159.7680  202.6200  149.8510 O   0  0  0  0  0  0  0  0  0  0  0  0
  1 31  1  0  0  0  0
  2 27  1  6  0  0  0
  2 34  1  0  0  0  0
  3  1  1  0  0  0  0
  3  6  1  0  0  0  0
  4  8  1  1  0  0  0
  4 25  1  0  0  0  0
  5 14  1  6  0  0  0
  5 19  1  0  0  0  0
  6 33  1  6  0  0  0
  6  7  1  0  0  0  0
  7 23  1  1  0  0  0
  7  9  1  0  0  0  0
  7 15  1  0  0  0  0
  9 10  1  6  0  0  0
 12 24  1  0  0  0  0
 12 22  1  0  0  0  0
 13 35  1  0  0  0  0
 15 17  1  0  0  0  0
 16 37  1  6  0  0  0
 16 11  1  0  0  0  0
 17 18  2  0  0  0  0
 19  8  1  0  0  0  0
 20 24  2  0  0  0  0
 21 38  1  1  0  0  0
 21 29  1  0  0  0  0
 22 30  1  0  0  0  0
 24 26  1  0  0  0  0
 26 13  1  1  0  0  0
 26 21  1  0  0  0  0
 27 16  1  0  0  0  0
 28 17  1  1  0  0  0
 28  4  1  0  0  0  0
 28  2  1  0  0  0  0
 29 35  1  6  0  0  0
 29  5  1  0  0  0  0
 30 33  2  0  0  0  0
 31  9  1  0  0  0  0
 32  3  2  0  0  0  0
 34 25  1  1  0  0  0
 34 11  1  0  0  0  0
 37 36  3  0  0  0  0
 38 39  1  0  0  0  0
 39 40  1  0  0  0  0
 41 39  2  0  0  0  0
M  END
>  <MODEL>
2

>  <REMARK>
 VINA RESULT:       8.2      3.547      7.760
  Name = 
  3 active torsions:
  status: ('A' for Active; 'I' for Inactive)
    1  A    between atoms: C_14  and  C_26
    2  A    between atoms: C_18  and  C_27
    3  A    between atoms: C_24  and  C_26
                            x       y       z     vdW  Elec       q    Type
                         _______ _______ _______ _____ _____    ______ ____

>  <TORSDO>
F 3

$$$$
