=
 OpenBabel11072414373D

 26 30  0  0  1  0  0  0  0  0999 V2000
  162.2370  208.1830  151.0850 C   0  0  0  0  0  2  0  0  0  0  0  0
  160.9280  206.7990  152.7520 C   0  0  0  0  0  0  0  0  0  0  0  0
  160.3210  207.4830  153.6890 N   0  0  0  0  0  0  0  0  0  0  0  0
  160.7090  208.7790  155.7770 C   0  0  0  0  0  2  0  0  0  0  0  0
  162.6260  205.7600  151.4640 C   0  0  0  0  0  2  0  0  0  0  0  0
  161.3130  211.5020  156.5560 C   0  0  0  0  0  2  0  0  0  0  0  0
  160.9390  211.2220  154.0470 N   0  0  0  0  0  2  0  0  0  0  0  0
  160.7480  209.8890  153.5300 C   0  0  0  0  0  0  0  0  0  0  0  0
  160.4150  205.5500  152.3350 N   0  0  0  0  0  2  0  0  0  0  0  0
  163.5580  210.9050  156.1690 O   0  0  0  0  0  0  0  0  0  0  0  0
  161.6260  203.5060  151.8400 C   0  0  0  0  0  1  0  0  0  0  0  0
  161.3410  204.9310  151.4090 C   0  0  2  0  0  3  0  0  0  0  0  0
  162.4130  210.5110  156.3170 C   0  0  0  0  0  0  0  0  0  0  0  0
  160.7940  209.7040  152.0590 C   0  0  2  0  0  3  0  0  0  0  0  0
  162.1240  209.0430  156.2690 C   0  0  0  0  0  2  0  0  0  0  0  0
  162.2360  209.4720  151.8500 C   0  0  2  0  0  3  0  0  0  0  0  0
  161.5840  210.5800  151.2900 O   0  0  0  0  0  0  0  0  0  0  0  0
  160.6510  208.7600  154.2850 C   0  0  0  0  0  0  0  0  0  0  0  0
  162.2740  207.0790  152.1460 C   0  0  1  0  0  3  0  0  0  0  0  0
  160.4780  211.8170  155.3050 C   0  0  1  0  0  3  0  0  0  0  0  0
  156.2360  211.6670  155.8370 C   0  0  0  0  0  3  0  0  0  0  0  0
  156.7660  211.7920  154.5910 N   0  0  0  0  0  0  0  0  0  0  0  0
  158.9890  211.7500  155.4780 C   0  0  0  0  0  0  0  0  0  0  0  0
  158.4580  211.6260  156.7650 C   0  0  0  0  0  3  0  0  0  0  0  0
  158.1110  211.8370  154.3910 C   0  0  0  0  0  3  0  0  0  0  0  0
  157.0750  211.5820  156.9500 C   0  0  0  0  0  3  0  0  0  0  0  0
  2  3  2  0  0  0  0
  3 18  1  0  0  0  0
  4 15  1  0  0  0  0
  5 19  1  0  0  0  0
  7 20  1  0  0  0  0
  8  7  1  0  0  0  0
  8 18  2  0  0  0  0
  9  2  1  0  0  0  0
 10 13  2  0  0  0  0
 12  5  1  0  0  0  0
 12 11  1  1  0  0  0
 12  9  1  0  0  0  0
 13  6  1  0  0  0  0
 14 17  1  6  0  0  0
 14  8  1  0  0  0  0
 15 13  1  0  0  0  0
 16  1  1  6  0  0  0
 16 14  1  0  0  0  0
 17 16  1  0  0  0  0
 18  4  1  0  0  0  0
 19  1  1  6  0  0  0
 19  2  1  0  0  0  0
 20 23  1  1  0  0  0
 20  6  1  0  0  0  0
 21 26  1  0  0  0  0
 22 21  2  0  0  0  0
 23 24  1  0  0  0  0
 24 26  2  0  0  0  0
 25 22  1  0  0  0  0
 25 23  2  0  0  0  0
M  END
>  <MODEL>
1

>  <REMARK>
 VINA RESULT:      -6.2      0.000      0.000
  Name = 
  1 active torsions:
  status: ('A' for Active; 'I' for Inactive)
    1  A    between atoms: C_10  and  C_26
                            x       y       z     vdW  Elec       q    Type
                         _______ _______ _______ _____ _____    ______ ____

>  <TORSDO>
F 1

$$$$
=
 OpenBabel11072414373D

 26 30  0  0  1  0  0  0  0  0999 V2000
  158.9680  213.5890  142.8560 C   0  0  0  0  0  2  0  0  0  0  0  0
  161.2090  212.6590  143.5790 C   0  0  0  0  0  0  0  0  0  0  0  0
  162.0570  212.4310  142.6070 N   0  0  0  0  0  0  0  0  0  0  0  0
  162.5530  210.8910  140.7170 C   0  0  0  0  0  2  0  0  0  0  0  0
  159.3490  212.4630  145.0360 C   0  0  0  0  0  2  0  0  0  0  0  0
  161.8910  210.6220  137.9100 C   0  0  0  0  0  2  0  0  0  0  0  0
  160.9520  212.7420  138.9770 N   0  0  0  0  0  2  0  0  0  0  0  0
  161.1190  212.9210  140.3990 C   0  0  0  0  0  0  0  0  0  0  0  0
  161.6770  212.9610  144.8770 N   0  0  0  0  0  2  0  0  0  0  0  0
  159.9560  209.5200  138.6770 O   0  0  0  0  0  0  0  0  0  0  0  0
  160.8430  212.1600  147.0100 C   0  0  0  0  0  1  0  0  0  0  0  0
  160.5570  213.0180  145.7940 C   0  0  2  0  0  3  0  0  0  0  0  0
  161.0630  209.9460  138.9620 C   0  0  0  0  0  0  0  0  0  0  0  0
  160.3530  214.0100  141.0530 C   0  0  2  0  0  3  0  0  0  0  0  0
  161.5830  209.7760  140.3560 C   0  0  0  0  0  2  0  0  0  0  0  0
  159.0990  213.3090  141.3890 C   0  0  2  0  0  3  0  0  0  0  0  0
  159.1160  214.3960  140.5010 O   0  0  0  0  0  0  0  0  0  0  0  0
  161.8280  212.0970  141.2170 C   0  0  0  0  0  0  0  0  0  0  0  0
  159.7210  212.4530  143.5560 C   0  0  1  0  0  3  0  0  0  0  0  0
  161.8650  212.1570  137.9910 C   0  0  1  0  0  3  0  0  0  0  0  0
  165.7010  214.0450  137.8620 C   0  0  0  0  0  3  0  0  0  0  0  0
  164.7080  214.4530  137.0270 N   0  0  0  0  0  0  0  0  0  0  0  0
  163.2010  212.8370  137.9480 C   0  0  0  0  0  0  0  0  0  0  0  0
  164.2150  212.4040  138.8080 C   0  0  0  0  0  3  0  0  0  0  0  0
  163.4770  213.8750  137.0500 C   0  0  0  0  0  3  0  0  0  0  0  0
  165.4720  213.0100  138.7700 C   0  0  0  0  0  3  0  0  0  0  0  0
  2  9  1  0  0  0  0
  3  2  2  0  0  0  0
  4 18  1  0  0  0  0
  5 12  1  0  0  0  0
  6 20  1  0  0  0  0
  6 13  1  0  0  0  0
  7  8  1  0  0  0  0
  8 18  2  0  0  0  0
  9 12  1  0  0  0  0
 10 13  2  0  0  0  0
 12 11  1  1  0  0  0
 13 15  1  0  0  0  0
 14  8  1  6  0  0  0
 14 16  1  0  0  0  0
 15  4  1  0  0  0  0
 16  1  1  1  0  0  0
 17 14  1  0  0  0  0
 17 16  1  0  0  0  0
 18  3  1  0  0  0  0
 19  1  1  6  0  0  0
 19  2  1  0  0  0  0
 19  5  1  0  0  0  0
 20 23  1  1  0  0  0
 20  7  1  0  0  0  0
 21 26  1  0  0  0  0
 22 25  1  0  0  0  0
 22 21  2  0  0  0  0
 23 24  1  0  0  0  0
 25 23  2  0  0  0  0
 26 24  2  0  0  0  0
M  END
>  <MODEL>
2

>  <REMARK>
 VINA RESULT:      -4.8     11.998     15.034
  Name = 
  1 active torsions:
  status: ('A' for Active; 'I' for Inactive)
    1  A    between atoms: C_10  and  C_26
                            x       y       z     vdW  Elec       q    Type
                         _______ _______ _______ _____ _____    ______ ____

>  <TORSDO>
F 1

$$$$
=
 OpenBabel11072414373D

 26 30  0  0  1  0  0  0  0  0999 V2000
  161.7540  214.2030  143.9590 C   0  0  0  0  0  2  0  0  0  0  0  0
  159.8480  212.5390  144.0030 C   0  0  0  0  0  0  0  0  0  0  0  0
  159.7670  211.7570  142.9550 N   0  0  0  0  0  0  0  0  0  0  0  0
  159.1330  211.7110  140.5500 C   0  0  0  0  0  2  0  0  0  0  0  0
  159.7460  214.4530  145.3970 C   0  0  0  0  0  2  0  0  0  0  0  0
  160.3690  212.1860  137.9740 C   0  0  0  0  0  2  0  0  0  0  0  0
  161.9990  212.3560  139.9310 N   0  0  0  0  0  2  0  0  0  0  0  0
  161.4710  212.2560  141.2690 C   0  0  0  0  0  0  0  0  0  0  0  0
  159.3630  212.1030  145.2560 N   0  0  0  0  0  2  0  0  0  0  0  0
  159.8480  214.4490  138.3640 O   0  0  0  0  0  0  0  0  0  0  0  0
  158.0910  213.3520  146.9030 C   0  0  0  0  0  1  0  0  0  0  0  0
  159.4270  213.1950  146.2070 C   0  0  2  0  0  3  0  0  0  0  0  0
  159.6650  213.2920  138.7030 C   0  0  0  0  0  0  0  0  0  0  0  0
  162.3670  212.6140  142.3950 C   0  0  2  0  0  3  0  0  0  0  0  0
  158.7310  212.9920  139.8340 C   0  0  0  0  0  2  0  0  0  0  0  0
  162.1100  214.0620  142.5090 C   0  0  2  0  0  3  0  0  0  0  0  0
  163.3800  213.5680  142.1790 O   0  0  0  0  0  0  0  0  0  0  0  0
  160.1770  211.9760  141.5850 C   0  0  0  0  0  0  0  0  0  0  0  0
  160.2400  213.9890  144.0300 C   0  0  1  0  0  3  0  0  0  0  0  0
  161.6060  211.6470  138.7100 C   0  0  1  0  0  3  0  0  0  0  0  0
  161.8700  207.3900  139.0390 C   0  0  0  0  0  3  0  0  0  0  0  0
  162.2990  208.1840  140.0570 N   0  0  0  0  0  0  0  0  0  0  0  0
  161.6890  210.1550  138.8420 C   0  0  0  0  0  0  0  0  0  0  0  0
  161.2500  209.3510  137.7870 C   0  0  0  0  0  3  0  0  0  0  0  0
  162.2220  209.5390  139.9820 C   0  0  0  0  0  3  0  0  0  0  0  0
  161.3370  207.9610  137.8820 C   0  0  0  0  0  3  0  0  0  0  0  0
  2 19  1  0  0  0  0
  2  9  1  0  0  0  0
  3  2  2  0  0  0  0
  4 18  1  0  0  0  0
  5 12  1  0  0  0  0
  6 13  1  0  0  0  0
  6 20  1  0  0  0  0
  7  8  1  0  0  0  0
  8 18  2  0  0  0  0
  9 12  1  0  0  0  0
 10 13  2  0  0  0  0
 12 11  1  6  0  0  0
 13 15  1  0  0  0  0
 14  8  1  6  0  0  0
 14 16  1  0  0  0  0
 15  4  1  0  0  0  0
 16  1  1  1  0  0  0
 17 14  1  0  0  0  0
 17 16  1  0  0  0  0
 18  3  1  0  0  0  0
 19  1  1  1  0  0  0
 19  5  1  0  0  0  0
 20 23  1  1  0  0  0
 20  7  1  0  0  0  0
 21 22  1  0  0  0  0
 23 25  1  0  0  0  0
 24 26  1  0  0  0  0
 24 23  2  0  0  0  0
 25 22  2  0  0  0  0
 26 21  2  0  0  0  0
M  END
>  <MODEL>
3

>  <REMARK>
 VINA RESULT:      -4.4     11.261     14.463
  Name = 
  1 active torsions:
  status: ('A' for Active; 'I' for Inactive)
    1  A    between atoms: C_10  and  C_26
                            x       y       z     vdW  Elec       q    Type
                         _______ _______ _______ _____ _____    ______ ____

>  <TORSDO>
F 1

$$$$
=
 OpenBabel11072414373D

 26 30  0  0  1  0  0  0  0  0999 V2000
  158.2910  213.9570  156.9860 C   0  0  0  0  0  2  0  0  0  0  0  0
  156.6430  212.3510  155.9320 C   0  0  0  0  0  0  0  0  0  0  0  0
  157.1740  211.4350  155.1600 N   0  0  0  0  0  0  0  0  0  0  0  0
  158.2340  211.0730  152.9380 C   0  0  0  0  0  2  0  0  0  0  0  0
  155.8680  214.4400  156.7410 C   0  0  0  0  0  2  0  0  0  0  0  0
  160.8760  211.1680  151.7560 C   0  0  0  0  0  2  0  0  0  0  0  0
  160.8740  211.5730  154.2760 N   0  0  0  0  0  2  0  0  0  0  0  0
  159.6030  211.6660  154.9510 C   0  0  0  0  0  0  0  0  0  0  0  0
  155.4250  212.1000  156.6010 N   0  0  0  0  0  2  0  0  0  0  0  0
  160.4630  213.4730  151.5040 O   0  0  0  0  0  0  0  0  0  0  0  0
  153.5300  213.5860  156.9010 C   0  0  0  0  0  1  0  0  0  0  0  0
  154.9760  213.3100  157.2600 C   0  0  2  0  0  3  0  0  0  0  0  0
  159.9870  212.3760  151.7470 C   0  0  0  0  0  0  0  0  0  0  0  0
  159.5970  212.1580  156.3500 C   0  0  2  0  0  3  0  0  0  0  0  0
  158.5200  212.2510  152.0200 C   0  0  0  0  0  2  0  0  0  0  0  0
  159.4780  213.6130  156.1360 C   0  0  2  0  0  3  0  0  0  0  0  0
  160.6040  213.0550  156.7590 O   0  0  0  0  0  0  0  0  0  0  0  0
  158.3890  211.4570  154.3730 C   0  0  0  0  0  0  0  0  0  0  0  0
  157.0730  213.7840  156.0730 C   0  0  1  0  0  3  0  0  0  0  0  0
  161.2870  210.7110  153.1650 C   0  0  1  0  0  3  0  0  0  0  0  0
  160.8290  206.5330  153.9600 C   0  0  0  0  0  3  0  0  0  0  0  0
  160.9200  207.4200  154.9870 N   0  0  0  0  0  0  0  0  0  0  0  0
  161.1110  209.2500  153.4560 C   0  0  0  0  0  0  0  0  0  0  0  0
  161.0240  208.3480  152.3910 C   0  0  0  0  0  3  0  0  0  0  0  0
  161.0610  208.7540  154.7650 C   0  0  0  0  0  3  0  0  0  0  0  0
  160.8800  206.9820  152.6400 C   0  0  0  0  0  3  0  0  0  0  0  0
  2 19  1  0  0  0  0
  2  9  1  0  0  0  0
  3  2  2  0  0  0  0
  4 18  1  0  0  0  0
  5 12  1  0  0  0  0
  6 20  1  0  0  0  0
  7  8  1  0  0  0  0
  9 12  1  0  0  0  0
 10 13  2  0  0  0  0
 12 11  1  6  0  0  0
 13  6  1  0  0  0  0
 13 15  1  0  0  0  0
 14  8  1  6  0  0  0
 14 17  1  0  0  0  0
 15  4  1  0  0  0  0
 16 14  1  0  0  0  0
 16 17  1  0  0  0  0
 16  1  1  1  0  0  0
 18  8  2  0  0  0  0
 18  3  1  0  0  0  0
 19  5  1  1  0  0  0
 19  1  1  0  0  0  0
 20 23  1  1  0  0  0
 20  7  1  0  0  0  0
 21 22  1  0  0  0  0
 23 25  1  0  0  0  0
 24 26  1  0  0  0  0
 24 23  2  0  0  0  0
 25 22  2  0  0  0  0
 26 21  2  0  0  0  0
M  END
>  <MODEL>
4

>  <REMARK>
 VINA RESULT:      -4.3      1.975      7.141
  Name = 
  1 active torsions:
  status: ('A' for Active; 'I' for Inactive)
    1  A    between atoms: C_10  and  C_26
                            x       y       z     vdW  Elec       q    Type
                         _______ _______ _______ _____ _____    ______ ____

>  <TORSDO>
F 1

$$$$
