=
 OpenBabel11072411013D

 30 35  0  0  1  0  0  0  0  0999 V2000
  160.6740  207.4040  154.2760 C   0  0  2  0  0  3  0  0  0  0  0  0
  159.8690  212.4600  155.6500 C   0  0  1  0  0  3  0  0  0  0  0  0
  159.8640  211.3280  156.4720 O   0  0  0  0  0  0  0  0  0  0  0  0
  159.1900  212.6940  153.3850 C   0  0  0  0  0  0  0  0  0  0  0  0
  159.9830  212.0490  154.2250 C   0  0  0  0  0  0  0  0  0  0  0  0
  160.8930  211.0860  153.7750 O   0  0  0  0  0  0  0  0  0  0  0  0
  161.2670  207.9160  155.4640 O   0  0  0  0  0  0  0  0  0  0  0  0
  160.9100  209.7660  154.2450 C   0  0  0  0  0  0  0  0  0  0  0  0
  161.1200  211.2450  157.1130 C   0  0  1  0  0  3  0  0  0  0  0  0
  161.3300  209.3090  155.4340 C   0  0  0  0  0  0  0  0  0  0  0  0
  158.2730  213.6830  154.0140 C   0  0  0  0  0  2  0  0  0  0  0  0
  160.8080  208.4530  152.1460 C   0  0  1  0  0  3  0  0  0  0  0  0
  161.1930  206.7500  151.7370 S   0  0  0  0  0  0  0  0  0  0  0  0
  161.6010  206.4840  153.5020 C   0  0  0  0  0  2  0  0  0  0  0  0
  161.8640  210.0810  156.6240 C   0  0  1  0  0  0  0  0  0  0  0  0
  162.2690  211.3980  156.1880 N   0  0  2  0  0  0  0  0  0  0  0  0
  160.5660  208.6080  153.4360 C   0  0  1  0  0  3  0  0  0  0  0  0
  163.2450  210.3820  156.4920 N   0  0  0  0  0  2  0  0  0  0  0  0
  158.3070  213.3760  155.8110 S   0  0  0  0  0  0  0  0  0  0  0  0
  162.2850  210.7470  149.3950 C   0  0  0  0  0  1  0  0  0  0  0  0
  161.9240  209.4920  150.1030 C   0  0  0  0  0  0  0  0  0  0  0  0
  161.1630  209.5640  151.3120 N   0  0  0  0  0  2  0  0  0  0  0  0
  162.2700  208.3840  149.6150 O   0  0  0  0  0  0  0  0  0  0  0  0
  159.2520  212.4590  151.9050 C   0  0  2  0  0  3  0  0  0  0  0  0
  159.6690  212.8720  149.0350 O   0  0  0  0  0  0  0  0  0  0  0  0
  160.2470  213.3170  151.2620 N   0  0  0  0  0  2  0  0  0  0  0  0
  161.4130  214.4530  149.3390 C   0  0  0  0  0  1  0  0  0  0  0  0
  160.3900  213.5050  149.8500 C   0  0  0  0  0  0  0  0  0  0  0  0
  157.8850  212.5640  151.2400 C   0  0  0  0  0  2  0  0  0  0  0  0
  157.5190  213.9040  151.1200 O   0  0  0  0  0  1  0  0  0  0  0  0
  1 14  1  6  0  0  0
  1  7  1  0  0  0  0
  2  5  1  6  0  0  0
  2 19  1  0  0  0  0
  2  3  1  0  0  0  0
  4 11  1  0  0  0  0
  4  5  2  0  0  0  0
  6  5  1  0  0  0  0
  6  8  1  0  0  0  0
  8 10  2  0  0  0  0
  9  3  1  6  0  0  0
 10  7  1  0  0  0  0
 11 19  1  0  0  0  0
 12 22  1  1  0  0  0
 12 17  1  0  0  0  0
 13 12  1  0  0  0  0
 13 14  1  0  0  0  0
 15 10  1  6  0  0  0
 15  9  1  0  0  0  0
 16 18  1  1  0  0  0
 16 15  1  0  0  0  0
 16  9  1  0  0  0  0
 17  8  1  1  0  0  0
 17  1  1  0  0  0  0
 18 15  1  0  0  0  0
 20 21  1  0  0  0  0
 21 22  1  0  0  0  0
 23 21  2  0  0  0  0
 24 29  1  6  0  0  0
 24  4  1  0  0  0  0
 25 28  2  0  0  0  0
 26 24  1  0  0  0  0
 27 28  1  0  0  0  0
 28 26  1  0  0  0  0
 30 29  1  0  0  0  0
M  END
>  <MODEL>
1

>  <REMARK>
 VINA RESULT:      -5.1      0.000      0.000
  Name = 
  4 active torsions:
  status: ('A' for Active; 'I' for Inactive)
    1  A    between atoms: C_3  and  CA_9
    2  A    between atoms: N_5  and  CA_9
    3  A    between atoms: C_8  and  CA_9
    4  A    between atoms: N_17  and  C_20
                            x       y       z     vdW  Elec       q    Type
                         _______ _______ _______ _____ _____    ______ ____

>  <TORSDO>
F 4

$$$$
=
 OpenBabel11072411013D

 30 35  0  0  1  0  0  0  0  0999 V2000
  160.3980  213.6530  150.6960 C   0  0  2  0  0  3  0  0  0  0  0  0
  158.7540  213.2520  155.7190 C   0  0  1  0  0  3  0  0  0  0  0  0
  158.7000  214.3670  154.8770 O   0  0  0  0  0  0  0  0  0  0  0  0
  160.3720  211.5150  155.8350 C   0  0  0  0  0  0  0  0  0  0  0  0
  159.5130  212.1560  155.0590 C   0  0  0  0  0  0  0  0  0  0  0  0
  159.3150  211.7810  153.7250 O   0  0  0  0  0  0  0  0  0  0  0  0
  159.1590  214.2370  151.0820 O   0  0  0  0  0  0  0  0  0  0  0  0
  159.4790  212.6600  152.6470 C   0  0  0  0  0  0  0  0  0  0  0  0
  157.3930  214.4530  154.3470 C   0  0  1  0  0  3  0  0  0  0  0  0
  158.6840  213.6710  152.2660 C   0  0  0  0  0  0  0  0  0  0  0  0
  160.4780  212.0350  157.2250 C   0  0  0  0  0  2  0  0  0  0  0  0
  161.0370  211.4130  151.1780 C   0  0  1  0  0  3  0  0  0  0  0  0
  161.4720  211.5510  149.4440 S   0  0  0  0  0  0  0  0  0  0  0  0
  160.3350  212.9810  149.3350 C   0  0  0  0  0  2  0  0  0  0  0  0
  157.4100  214.1840  152.9070 C   0  0  1  0  0  0  0  0  0  0  0  0
  156.8900  213.1710  153.7960 N   0  0  2  0  0  0  0  0  0  0  0  0
  160.5300  212.5390  151.6490 C   0  0  1  0  0  3  0  0  0  0  0  0
  156.2740  213.4260  152.5200 N   0  0  0  0  0  2  0  0  0  0  0  0
  159.6380  213.6530  157.2570 S   0  0  0  0  0  0  0  0  0  0  0  0
  161.0770  207.6890  152.2460 C   0  0  0  0  0  1  0  0  0  0  0  0
  161.4700  208.9250  151.5210 C   0  0  0  0  0  0  0  0  0  0  0  0
  160.8250  210.1600  151.8410 N   0  0  0  0  0  2  0  0  0  0  0  0
  162.3830  208.8710  150.6560 O   0  0  0  0  0  0  0  0  0  0  0  0
  161.1450  210.3280  155.3420 C   0  0  2  0  0  3  0  0  0  0  0  0
  159.4260  207.9570  155.3190 O   0  0  0  0  0  0  0  0  0  0  0  0
  161.1260  209.2300  156.3080 N   0  0  0  0  0  2  0  0  0  0  0  0
  160.4100  207.0100  157.2610 C   0  0  0  0  0  1  0  0  0  0  0  0
  160.2820  208.0770  156.2340 C   0  0  0  0  0  0  0  0  0  0  0  0
  162.5600  210.6920  154.9110 C   0  0  0  0  0  2  0  0  0  0  0  0
  163.3860  210.7870  156.0310 O   0  0  0  0  0  1  0  0  0  0  0  0
  1 14  1  6  0  0  0
  1  7  1  0  0  0  0
  1 17  1  0  0  0  0
  2  3  1  6  0  0  0
  2 19  1  0  0  0  0
  4 11  1  0  0  0  0
  5  2  1  0  0  0  0
  5  4  2  0  0  0  0
  6  5  1  0  0  0  0
  7 10  1  0  0  0  0
  8  6  1  0  0  0  0
  9  3  1  1  0  0  0
 10  8  2  0  0  0  0
 11 19  1  0  0  0  0
 12 17  1  0  0  0  0
 12 22  1  6  0  0  0
 13 12  1  0  0  0  0
 14 13  1  0  0  0  0
 15 10  1  6  0  0  0
 15 16  1  0  0  0  0
 15  9  1  0  0  0  0
 16 18  1  6  0  0  0
 16  9  1  0  0  0  0
 17  8  1  6  0  0  0
 18 15  1  0  0  0  0
 21 22  1  0  0  0  0
 21 20  1  0  0  0  0
 23 21  2  0  0  0  0
 24 29  1  1  0  0  0
 24  4  1  0  0  0  0
 24 26  1  0  0  0  0
 25 28  2  0  0  0  0
 28 26  1  0  0  0  0
 28 27  1  0  0  0  0
 29 30  1  0  0  0  0
M  END
>  <MODEL>
2

>  <REMARK>
 VINA RESULT:      -4.8      2.211      5.694
  Name = 
  4 active torsions:
  status: ('A' for Active; 'I' for Inactive)
    1  A    between atoms: C_3  and  CA_9
    2  A    between atoms: N_5  and  CA_9
    3  A    between atoms: C_8  and  CA_9
    4  A    between atoms: N_17  and  C_20
                            x       y       z     vdW  Elec       q    Type
                         _______ _______ _______ _____ _____    ______ ____

>  <TORSDO>
F 4

$$$$
=
 OpenBabel11072411013D

 30 35  0  0  1  0  0  0  0  0999 V2000
  161.4640  213.7460  149.0160 C   0  0  2  0  0  3  0  0  0  0  0  0
  158.3340  213.2430  153.2630 C   0  0  1  0  0  3  0  0  0  0  0  0
  158.5290  214.3720  152.4600 O   0  0  0  0  0  0  0  0  0  0  0  0
  159.8590  211.5220  153.8590 C   0  0  0  0  0  0  0  0  0  0  0  0
  159.2780  212.1670  152.8610 C   0  0  0  0  0  0  0  0  0  0  0  0
  159.5140  211.8120  151.5280 O   0  0  0  0  0  0  0  0  0  0  0  0
  160.1580  214.3100  149.0010 O   0  0  0  0  0  0  0  0  0  0  0  0
  159.9950  212.7110  150.5670 C   0  0  0  0  0  0  0  0  0  0  0  0
  157.4540  214.4530  151.5480 C   0  0  1  0  0  3  0  0  0  0  0  0
  159.3450  213.7200  149.9680 C   0  0  0  0  0  0  0  0  0  0  0  0
  159.5160  212.0190  155.2190 C   0  0  0  0  0  2  0  0  0  0  0  0
  161.9550  211.5050  149.6460 C   0  0  1  0  0  3  0  0  0  0  0  0
  162.9090  211.6760  148.1390 S   0  0  0  0  0  0  0  0  0  0  0  0
  161.8430  213.0960  147.6960 C   0  0  0  0  0  2  0  0  0  0  0  0
  157.9260  214.2080  150.1830 C   0  0  1  0  0  0  0  0  0  0  0  0
  157.1690  213.1750  150.8510 N   0  0  2  0  0  0  0  0  0  0  0  0
  161.3080  212.6170  149.9490 C   0  0  1  0  0  3  0  0  0  0  0  0
  156.9800  213.4460  149.4490 N   0  0  0  0  0  2  0  0  0  0  0  0
  158.6840  213.6280  155.0050 S   0  0  0  0  0  0  0  0  0  0  0  0
  161.2100  207.7480  150.2260 C   0  0  0  0  0  1  0  0  0  0  0  0
  161.7510  208.9650  149.5700 C   0  0  0  0  0  0  0  0  0  0  0  0
  161.5630  210.2390  150.1930 N   0  0  0  0  0  2  0  0  0  0  0  0
  162.3890  208.8550  148.4910 O   0  0  0  0  0  0  0  0  0  0  0  0
  160.7660  210.3510  153.6190 C   0  0  2  0  0  3  0  0  0  0  0  0
  161.5100  207.5430  153.2420 O   0  0  0  0  0  0  0  0  0  0  0  0
  160.4190  209.2140  154.4710 N   0  0  0  0  0  2  0  0  0  0  0  0
  160.4510  206.8140  155.2380 C   0  0  0  0  0  1  0  0  0  0  0  0
  160.8340  207.8610  154.2560 C   0  0  0  0  0  0  0  0  0  0  0  0
  162.2390  210.7230  153.7260 C   0  0  0  0  0  2  0  0  0  0  0  0
  162.6310  210.7260  155.0650 O   0  0  0  0  0  1  0  0  0  0  0  0
  1 14  1  6  0  0  0
  1 17  1  0  0  0  0
  2  3  1  6  0  0  0
  2 19  1  0  0  0  0
  4 11  1  0  0  0  0
  5  2  1  0  0  0  0
  5  4  2  0  0  0  0
  6  5  1  0  0  0  0
  7  1  1  0  0  0  0
  7 10  1  0  0  0  0
  8  6  1  0  0  0  0
  9  3  1  1  0  0  0
 10 15  1  0  0  0  0
 10  8  2  0  0  0  0
 12 17  1  0  0  0  0
 12 22  1  6  0  0  0
 13 12  1  0  0  0  0
 14 13  1  0  0  0  0
 15 18  1  6  0  0  0
 15 16  1  0  0  0  0
 15  9  1  0  0  0  0
 16 18  1  6  0  0  0
 16  9  1  0  0  0  0
 17  8  1  6  0  0  0
 19 11  1  0  0  0  0
 21 22  1  0  0  0  0
 21 20  1  0  0  0  0
 23 21  2  0  0  0  0
 24 29  1  1  0  0  0
 24  4  1  0  0  0  0
 24 26  1  0  0  0  0
 25 28  2  0  0  0  0
 28 26  1  0  0  0  0
 28 27  1  0  0  0  0
 29 30  1  0  0  0  0
M  END
>  <MODEL>
3

>  <REMARK>
 VINA RESULT:      -4.6      2.185      5.938
  Name = 
  4 active torsions:
  status: ('A' for Active; 'I' for Inactive)
    1  A    between atoms: C_3  and  CA_9
    2  A    between atoms: N_5  and  CA_9
    3  A    between atoms: C_8  and  CA_9
    4  A    between atoms: N_17  and  C_20
                            x       y       z     vdW  Elec       q    Type
                         _______ _______ _______ _____ _____    ______ ____

>  <TORSDO>
F 4

$$$$
=
 OpenBabel11072411013D

 30 35  0  0  1  0  0  0  0  0999 V2000
  157.3440  213.1320  148.8810 C   0  0  2  0  0  3  0  0  0  0  0  0
  161.9810  210.7840  149.9230 C   0  0  1  0  0  3  0  0  0  0  0  0
  161.2890  210.8340  148.7080 O   0  0  0  0  0  0  0  0  0  0  0  0
  161.1410  210.6990  152.1440 C   0  0  0  0  0  0  0  0  0  0  0  0
  161.1450  211.3710  151.0050 C   0  0  0  0  0  0  0  0  0  0  0  0
  160.4440  212.5740  150.8650 O   0  0  0  0  0  0  0  0  0  0  0  0
  158.4170  213.2420  147.9520 O   0  0  0  0  0  0  0  0  0  0  0  0
  159.4690  212.7860  149.8800 C   0  0  0  0  0  0  0  0  0  0  0  0
  161.8660  211.8540  147.9180 C   0  0  1  0  0  3  0  0  0  0  0  0
  159.6410  212.9700  148.5630 C   0  0  0  0  0  0  0  0  0  0  0  0
  161.9260  209.4350  152.1370 C   0  0  0  0  0  2  0  0  0  0  0  0
  157.5320  213.5710  151.2110 C   0  0  1  0  0  3  0  0  0  0  0  0
  156.0280  214.4530  150.7950 S   0  0  0  0  0  0  0  0  0  0  0  0
  156.5690  214.4270  149.0460 C   0  0  0  0  0  2  0  0  0  0  0  0
  160.9200  212.9620  147.7510 C   0  0  1  0  0  0  0  0  0  0  0  0
  162.0440  213.1360  148.6420 N   0  0  2  0  0  0  0  0  0  0  0  0
  158.0540  212.9630  150.1600 C   0  0  1  0  0  3  0  0  0  0  0  0
  161.5920  214.2110  147.7970 N   0  0  0  0  0  2  0  0  0  0  0  0
  162.3200  209.0610  150.3960 S   0  0  0  0  0  0  0  0  0  0  0  0
  158.7440  214.3570  154.8060 C   0  0  0  0  0  1  0  0  0  0  0  0
  157.8160  213.9710  153.7120 C   0  0  0  0  0  0  0  0  0  0  0  0
  158.3160  213.8550  152.3770 N   0  0  0  0  0  2  0  0  0  0  0  0
  156.6110  213.7270  153.9810 O   0  0  0  0  0  0  0  0  0  0  0  0
  160.4220  211.2110  153.3580 C   0  0  2  0  0  3  0  0  0  0  0  0
  161.1450  209.0150  155.1560 O   0  0  0  0  0  0  0  0  0  0  0  0
  161.3010  211.2660  154.5250 N   0  0  0  0  0  2  0  0  0  0  0  0
  162.5970  210.3470  156.4800 C   0  0  0  0  0  1  0  0  0  0  0  0
  161.6450  210.1530  155.3560 C   0  0  0  0  0  0  0  0  0  0  0  0
  159.1370  210.4420  153.6410 C   0  0  0  0  0  2  0  0  0  0  0  0
  158.5200  210.9550  154.7810 O   0  0  0  0  0  1  0  0  0  0  0  0
  1 14  1  1  0  0  0
  1 17  1  0  0  0  0
  2  3  1  6  0  0  0
  2 19  1  0  0  0  0
  2  5  1  0  0  0  0
  4 24  1  0  0  0  0
  5  4  2  0  0  0  0
  6  5  1  0  0  0  0
  7 10  1  0  0  0  0
  7  1  1  0  0  0  0
  8  6  1  0  0  0  0
  9 16  1  0  0  0  0
  9  3  1  1  0  0  0
 10  8  2  0  0  0  0
 11  4  1  0  0  0  0
 12 22  1  6  0  0  0
 13 12  1  0  0  0  0
 14 13  1  0  0  0  0
 15 18  1  6  0  0  0
 15  9  1  0  0  0  0
 15 10  1  0  0  0  0
 15 16  1  0  0  0  0
 16 18  1  6  0  0  0
 17  8  1  6  0  0  0
 17 12  1  0  0  0  0
 19 11  1  0  0  0  0
 21 23  2  0  0  0  0
 21 20  1  0  0  0  0
 22 21  1  0  0  0  0
 24 29  1  1  0  0  0
 24 26  1  0  0  0  0
 25 28  2  0  0  0  0
 26 28  1  0  0  0  0
 28 27  1  0  0  0  0
 29 30  1  0  0  0  0
M  END
>  <MODEL>
4

>  <REMARK>
 VINA RESULT:      -3.9      2.319      7.127
  Name = 
  4 active torsions:
  status: ('A' for Active; 'I' for Inactive)
    1  A    between atoms: C_3  and  CA_9
    2  A    between atoms: N_5  and  CA_9
    3  A    between atoms: C_8  and  CA_9
    4  A    between atoms: N_17  and  C_20
                            x       y       z     vdW  Elec       q    Type
                         _______ _______ _______ _____ _____    ______ ____

>  <TORSDO>
F 4

$$$$
=
 OpenBabel11072411013D

 30 35  0  0  1  0  0  0  0  0999 V2000
  161.4800  209.5340  155.7600 C   0  0  2  0  0  3  0  0  0  0  0  0
  161.5680  210.3490  150.5240 C   0  0  1  0  0  3  0  0  0  0  0  0
  162.5210  209.6990  151.3150 O   0  0  0  0  0  0  0  0  0  0  0  0
  160.1590  212.1880  151.0500 C   0  0  0  0  0  0  0  0  0  0  0  0
  160.5260  210.9640  151.3900 C   0  0  0  0  0  0  0  0  0  0  0  0
  159.9290  210.2940  152.4630 O   0  0  0  0  0  0  0  0  0  0  0  0
  161.9030  208.4900  154.8900 O   0  0  0  0  0  0  0  0  0  0  0  0
  160.6520  209.7840  153.5500 C   0  0  0  0  0  0  0  0  0  0  0  0
  162.3100  208.3070  151.1990 C   0  0  1  0  0  3  0  0  0  0  0  0
  161.4500  208.7070  153.5890 C   0  0  0  0  0  0  0  0  0  0  0  0
  160.8900  212.7710  149.8920 C   0  0  0  0  0  2  0  0  0  0  0  0
  159.4740  210.7820  155.4880 C   0  0  1  0  0  3  0  0  0  0  0  0
  159.4210  210.3850  157.2350 S   0  0  0  0  0  0  0  0  0  0  0  0
  160.6120  209.0360  156.9020 C   0  0  0  0  0  2  0  0  0  0  0  0
  161.8350  207.7570  152.4720 C   0  0  1  0  0  0  0  0  0  0  0  0
  160.8950  207.9030  151.3850 N   0  0  2  0  0  0  0  0  0  0  0  0
  160.5580  210.3010  154.9060 C   0  0  1  0  0  3  0  0  0  0  0  0
  160.8520  206.7570  152.2560 N   0  0  0  0  0  2  0  0  0  0  0  0
  162.3340  211.7020  149.5800 S   0  0  0  0  0  0  0  0  0  0  0  0
  156.1540  212.3440  154.2440 C   0  0  0  0  0  1  0  0  0  0  0  0
  157.3500  212.1370  155.1000 C   0  0  0  0  0  0  0  0  0  0  0  0
  158.3160  211.1510  154.7270 N   0  0  0  0  0  2  0  0  0  0  0  0
  157.5090  212.8500  156.1250 O   0  0  0  0  0  0  0  0  0  0  0  0
  159.0550  212.9080  151.7680 C   0  0  2  0  0  3  0  0  0  0  0  0
  158.4750  214.4510  149.3470 O   0  0  0  0  0  0  0  0  0  0  0  0
  157.8170  212.9140  150.9890 N   0  0  0  0  0  2  0  0  0  0  0  0
  156.3020  213.5350  149.0740 C   0  0  0  0  0  1  0  0  0  0  0  0
  157.5950  213.6680  149.7930 C   0  0  0  0  0  0  0  0  0  0  0  0
  159.4630  214.3060  152.2130 C   0  0  0  0  0  2  0  0  0  0  0  0
  159.2390  214.4520  153.5820 O   0  0  0  0  0  1  0  0  0  0  0  0
  1 14  1  1  0  0  0
  2 19  1  1  0  0  0
  2  3  1  0  0  0  0
  2  5  1  0  0  0  0
  4  5  2  0  0  0  0
  4 24  1  0  0  0  0
  5  6  1  0  0  0  0
  6  8  1  0  0  0  0
  7  1  1  0  0  0  0
  8 10  2  0  0  0  0
  9  3  1  1  0  0  0
  9 16  1  0  0  0  0
  9 15  1  0  0  0  0
 10  7  1  0  0  0  0
 11  4  1  0  0  0  0
 12 22  1  6  0  0  0
 12 13  1  0  0  0  0
 14 13  1  0  0  0  0
 15 18  1  1  0  0  0
 15 10  1  0  0  0  0
 16 18  1  6  0  0  0
 16 15  1  0  0  0  0
 17  8  1  6  0  0  0
 17 12  1  0  0  0  0
 17  1  1  0  0  0  0
 19 11  1  0  0  0  0
 20 21  1  0  0  0  0
 21 23  2  0  0  0  0
 22 21  1  0  0  0  0
 24 29  1  6  0  0  0
 25 28  2  0  0  0  0
 26 24  1  0  0  0  0
 27 28  1  0  0  0  0
 28 26  1  0  0  0  0
 29 30  1  0  0  0  0
M  END
>  <MODEL>
5

>  <REMARK>
 VINA RESULT:      -3.6      2.312      4.831
  Name = 
  4 active torsions:
  status: ('A' for Active; 'I' for Inactive)
    1  A    between atoms: C_3  and  CA_9
    2  A    between atoms: N_5  and  CA_9
    3  A    between atoms: C_8  and  CA_9
    4  A    between atoms: N_17  and  C_20
                            x       y       z     vdW  Elec       q    Type
                         _______ _______ _______ _____ _____    ______ ____

>  <TORSDO>
F 4

$$$$
=
 OpenBabel11072411013D

 30 35  0  0  1  0  0  0  0  0999 V2000
  162.1310  211.6750  150.4040 C   0  0  2  0  0  3  0  0  0  0  0  0
  160.2890  209.0200  154.6050 C   0  0  1  0  0  3  0  0  0  0  0  0
  160.7030  210.3540  154.5380 O   0  0  0  0  0  0  0  0  0  0  0  0
  161.0950  207.1190  153.4300 C   0  0  0  0  0  0  0  0  0  0  0  0
  160.5830  208.3330  153.3190 C   0  0  0  0  0  0  0  0  0  0  0  0
  160.3000  208.8940  152.0680 O   0  0  0  0  0  0  0  0  0  0  0  0
  161.2060  212.3010  151.2850 O   0  0  0  0  0  0  0  0  0  0  0  0
  160.8320  210.1170  151.6360 C   0  0  0  0  0  0  0  0  0  0  0  0
  159.5530  211.1640  154.4150 C   0  0  1  0  0  3  0  0  0  0  0  0
  160.5080  211.3550  152.0350 C   0  0  0  0  0  0  0  0  0  0  0  0
  161.3480  206.6630  154.8230 C   0  0  0  0  0  2  0  0  0  0  0  0
  161.8290  209.5180  149.4480 C   0  0  1  0  0  3  0  0  0  0  0  0
  162.3430  210.4770  148.0240 S   0  0  0  0  0  0  0  0  0  0  0  0
  161.8590  211.9850  148.9420 C   0  0  0  0  0  2  0  0  0  0  0  0
  159.5130  211.7930  153.0920 C   0  0  1  0  0  0  0  0  0  0  0  0
  158.6090  210.7010  153.3690 N   0  0  2  0  0  0  0  0  0  0  0  0
  161.7860  210.2500  150.5470 C   0  0  1  0  0  3  0  0  0  0  0  0
  158.1850  211.8380  152.5920 N   0  0  0  0  0  2  0  0  0  0  0  0
  161.2050  208.1290  155.8990 S   0  0  0  0  0  0  0  0  0  0  0  0
  160.4910  206.0500  148.3560 C   0  0  0  0  0  1  0  0  0  0  0  0
  161.3700  207.2460  148.3860 C   0  0  0  0  0  0  0  0  0  0  0  0
  161.1220  208.2750  149.3490 N   0  0  0  0  0  2  0  0  0  0  0  0
  162.3360  207.3250  147.5820 O   0  0  0  0  0  0  0  0  0  0  0  0
  161.3610  206.2630  152.2260 C   0  0  2  0  0  3  0  0  0  0  0  0
  160.7030  204.1020  150.3610 O   0  0  0  0  0  0  0  0  0  0  0  0
  161.2030  204.8410  152.5280 N   0  0  0  0  0  2  0  0  0  0  0  0
  160.8290  202.4020  152.0130 C   0  0  0  0  0  1  0  0  0  0  0  0
  160.9080  203.8190  151.5710 C   0  0  0  0  0  0  0  0  0  0  0  0
  162.7060  206.5680  151.5790 C   0  0  0  0  0  2  0  0  0  0  0  0
  163.6560  205.6380  151.9990 O   0  0  0  0  0  1  0  0  0  0  0  0
  1 14  1  6  0  0  0
  1 17  1  0  0  0  0
  1  7  1  0  0  0  0
  2  5  1  6  0  0  0
  2 19  1  0  0  0  0
  3  2  1  0  0  0  0
  4 11  1  0  0  0  0
  5  4  2  0  0  0  0
  6  5  1  0  0  0  0
  7 10  1  0  0  0  0
  8 10  2  0  0  0  0
  8  6  1  0  0  0  0
  9  3  1  6  0  0  0
 11 19  1  0  0  0  0
 12 22  1  6  0  0  0
 12 17  1  0  0  0  0
 13 14  1  0  0  0  0
 13 12  1  0  0  0  0
 15 10  1  6  0  0  0
 15 16  1  0  0  0  0
 15  9  1  0  0  0  0
 16 18  1  1  0  0  0
 16  9  1  0  0  0  0
 17  8  1  6  0  0  0
 18 15  1  0  0  0  0
 20 21  1  0  0  0  0
 21 22  1  0  0  0  0
 23 21  2  0  0  0  0
 24 29  1  1  0  0  0
 24 26  1  0  0  0  0
 24  4  1  0  0  0  0
 25 28  2  0  0  0  0
 28 27  1  0  0  0  0
 28 26  1  0  0  0  0
 29 30  1  0  0  0  0
M  END
>  <MODEL>
6

>  <REMARK>
 VINA RESULT:      -3.6      2.800      6.118
  Name = 
  4 active torsions:
  status: ('A' for Active; 'I' for Inactive)
    1  A    between atoms: C_3  and  CA_9
    2  A    between atoms: N_5  and  CA_9
    3  A    between atoms: C_8  and  CA_9
    4  A    between atoms: N_17  and  C_20
                            x       y       z     vdW  Elec       q    Type
                         _______ _______ _______ _____ _____    ______ ____

>  <TORSDO>
F 4

$$$$
=
 OpenBabel11072411013D

 30 35  0  0  1  0  0  0  0  0999 V2000
  161.7780  213.7550  149.1210 C   0  0  2  0  0  3  0  0  0  0  0  0
  159.3060  212.0170  153.4750 C   0  0  1  0  0  3  0  0  0  0  0  0
  159.6160  213.3340  153.1240 O   0  0  0  0  0  0  0  0  0  0  0  0
  160.4930  210.0070  153.0310 C   0  0  0  0  0  0  0  0  0  0  0  0
  159.9200  211.0750  152.5010 C   0  0  0  0  0  0  0  0  0  0  0  0
  159.8640  211.2620  151.1150 O   0  0  0  0  0  0  0  0  0  0  0  0
  160.6400  214.4530  149.6130 O   0  0  0  0  0  0  0  0  0  0  0  0
  160.3760  212.3970  150.4710 C   0  0  0  0  0  0  0  0  0  0  0  0
  158.4560  213.9270  152.5760 C   0  0  1  0  0  3  0  0  0  0  0  0
  159.8760  213.6410  150.4510 C   0  0  0  0  0  0  0  0  0  0  0  0
  160.4800  209.9540  154.5180 C   0  0  0  0  0  2  0  0  0  0  0  0
  161.8600  211.4070  148.7510 C   0  0  1  0  0  3  0  0  0  0  0  0
  162.5850  212.0390  147.2380 S   0  0  0  0  0  0  0  0  0  0  0  0
  161.7980  213.6500  147.6060 C   0  0  0  0  0  2  0  0  0  0  0  0
  158.6480  214.1930  151.1480 C   0  0  1  0  0  0  0  0  0  0  0  0
  157.7960  213.0940  151.5410 N   0  0  2  0  0  0  0  0  0  0  0  0
  161.5250  212.3790  149.5810 C   0  0  1  0  0  3  0  0  0  0  0  0
  157.4570  213.9330  150.4200 N   0  0  0  0  0  2  0  0  0  0  0  0
  159.9950  211.6100  155.1080 S   0  0  0  0  0  0  0  0  0  0  0  0
  161.1960  207.5920  148.6320 C   0  0  0  0  0  1  0  0  0  0  0  0
  161.9500  208.8680  148.5420 C   0  0  0  0  0  0  0  0  0  0  0  0
  161.2910  210.0960  148.8660 N   0  0  0  0  0  2  0  0  0  0  0  0
  163.1640  208.8470  148.2090 O   0  0  0  0  0  0  0  0  0  0  0  0
  161.0750  208.9200  152.1760 C   0  0  2  0  0  3  0  0  0  0  0  0
  162.3490  206.3940  151.4170 O   0  0  0  0  0  0  0  0  0  0  0  0
  160.8450  207.5960  152.7530 N   0  0  0  0  0  2  0  0  0  0  0  0
  161.2220  205.1260  153.0770 C   0  0  0  0  0  1  0  0  0  0  0  0
  161.5180  206.3950  152.3630 C   0  0  0  0  0  0  0  0  0  0  0  0
  162.5440  209.1590  151.8500 C   0  0  0  0  0  2  0  0  0  0  0  0
  162.8720  210.4930  152.0910 O   0  0  0  0  0  1  0  0  0  0  0  0
  1 14  1  6  0  0  0
  1 17  1  0  0  0  0
  1  7  1  0  0  0  0
  2  5  1  6  0  0  0
  2 19  1  0  0  0  0
  3  2  1  0  0  0  0
  4 11  1  0  0  0  0
  5  4  2  0  0  0  0
  6  5  1  0  0  0  0
  7 10  1  0  0  0  0
  8  6  1  0  0  0  0
  9  3  1  6  0  0  0
 10  8  2  0  0  0  0
 10 15  1  0  0  0  0
 11 19  1  0  0  0  0
 12 22  1  6  0  0  0
 12 17  1  0  0  0  0
 13 14  1  0  0  0  0
 13 12  1  0  0  0  0
 15 18  1  6  0  0  0
 15 16  1  0  0  0  0
 15  9  1  0  0  0  0
 16 18  1  1  0  0  0
 16  9  1  0  0  0  0
 17  8  1  6  0  0  0
 21 20  1  0  0  0  0
 21 22  1  0  0  0  0
 23 21  2  0  0  0  0
 24 29  1  1  0  0  0
 24 26  1  0  0  0  0
 24  4  1  0  0  0  0
 25 28  2  0  0  0  0
 28 26  1  0  0  0  0
 28 27  1  0  0  0  0
 29 30  1  0  0  0  0
M  END
>  <MODEL>
7

>  <REMARK>
 VINA RESULT:      -3.1      2.677      5.919
  Name = 
  4 active torsions:
  status: ('A' for Active; 'I' for Inactive)
    1  A    between atoms: C_3  and  CA_9
    2  A    between atoms: N_5  and  CA_9
    3  A    between atoms: C_8  and  CA_9
    4  A    between atoms: N_17  and  C_20
                            x       y       z     vdW  Elec       q    Type
                         _______ _______ _______ _____ _____    ______ ____

>  <TORSDO>
F 4

$$$$
