=
 OpenBabel11072412103D

 50 55  0  0  1  0  0  0  0  0999 V2000
  161.1020  205.8360  151.5860 C   0  0  2  0  0  0  0  0  0  0  0  0
  161.6400  208.7660  150.9350 N   0  0  0  0  0  0  0  0  0  0  0  0
  159.9170  206.6250  150.8440 C   0  0  0  0  0  1  0  0  0  0  0  0
  160.5990  209.9690  154.2220 O   0  0  0  0  0  1  0  0  0  0  0  0
  161.2440  209.0520  153.4410 C   0  0  2  0  0  3  0  0  0  0  0  0
  162.7190  207.8220  151.0350 C   0  0  0  0  0  2  0  0  0  0  0  0
  161.1300  209.5160  151.8990 C   0  0  0  0  0  0  0  0  0  0  0  0
  160.6120  207.5770  153.5450 C   0  0  0  0  0  2  0  0  0  0  0  0
  161.5570  206.3620  153.0460 C   0  0  2  0  0  3  0  0  0  0  0  0
  160.8420  210.8500  151.5280 N   0  0  0  0  0  2  0  0  0  0  0  0
  162.3980  206.4660  151.6580 C   0  0  1  0  0  3  0  0  0  0  0  0
  161.3250  204.4140  151.5110 C   0  0  0  0  0  0  0  0  0  0  0  0
  161.3270  203.2200  151.3770 C   0  0  0  0  0  0  0  0  0  0  0  0
  161.2330  201.8490  151.2260 C   0  0  0  0  0  2  0  0  0  0  0  0
  159.9720  201.6850  149.3740 C   0  0  0  0  0  2  0  0  0  0  0  0
  161.5190  202.2550  147.6110 C   0  0  1  0  0  3  0  0  0  0  0  0
  161.3160  201.6830  149.8540 N   0  0  0  0  0  0  0  0  0  0  0  0
  162.0510  202.5820  149.0320 C   0  0  0  0  0  2  0  0  0  0  0  0
  160.0810  201.7910  147.8500 C   0  0  0  0  0  2  0  0  0  0  0  0
  161.8940  205.6810  146.3560 C   0  0  1  0  0  3  0  0  0  0  0  0
  161.7800  206.9020  147.3300 C   0  0  0  0  0  1  0  0  0  0  0  0
  160.8270  204.3690  144.4400 C   0  0  0  0  0  2  0  0  0  0  0  0
  160.5800  203.1940  145.5060 C   0  0  0  0  0  2  0  0  0  0  0  0
  161.2060  204.5890  147.2100 C   0  0  0  0  0  2  0  0  0  0  0  0
  161.0960  205.8230  145.0160 C   0  0  0  0  0  2  0  0  0  0  0  0
  161.5400  203.3590  146.5500 N   0  0  1  0  0  0  0  0  0  0  0  0
  159.9940  211.8680  152.1720 C   0  0  0  0  0  2  0  0  0  0  0  0
  160.0530  213.2180  151.2760 C   0  0  1  0  0  3  0  0  0  0  0  0
  159.6490  212.8250  148.7700 C   0  0  0  0  0  2  0  0  0  0  0  0
  161.8910  213.1290  147.6940 C   0  0  2  0  0  0  0  0  0  0  0  0
  160.4940  213.2220  149.7680 C   0  0  1  0  0  3  0  0  0  0  0  0
  160.7050  213.6820  145.4130 N   0  0  0  0  0  0  0  0  0  0  0  0
  159.7850  213.7330  146.5460 C   0  0  0  0  0  2  0  0  0  0  0  0
  161.7510  213.7700  149.1170 C   0  0  0  0  0  2  0  0  0  0  0  0
  160.3480  212.6880  147.4550 C   0  0  2  0  0  3  0  0  0  0  0  0
  159.6790  212.0400  144.1230 O   0  0  0  0  0  0  0  0  0  0  0  0
  161.9090  214.4460  145.5500 C   0  0  0  0  0  2  0  0  0  0  0  0
  162.7970  211.9350  147.5510 C   0  0  0  0  0  1  0  0  0  0  0  0
  160.7180  212.6720  144.4530 C   0  0  0  0  0  0  0  0  0  0  0  0
  162.5800  214.2690  146.8880 C   0  0  0  0  0  2  0  0  0  0  0  0
  161.8700  212.5640  143.6450 O   0  0  0  0  0  0  0  0  0  0  0  0
  161.7910  212.9500  142.3400 C   0  0  0  0  0  0  0  0  0  0  0  0
  162.0760  214.1360  142.0610 O   0  0  0  0  0  0  0  0  0  0  0  0
  160.8400  210.7160  141.4300 F   0  0  0  0  0  0  0  0  0  0  0  0
  163.0000  211.3640  140.9250 F   0  0  0  0  0  0  0  0  0  0  0  0
  161.1820  212.4360  140.1000 F   0  0  0  0  0  0  0  0  0  0  0  0
  161.6750  211.8130  141.2390 C   0  0  0  0  0  0  0  0  0  0  0  0
  158.7610  213.6660  151.2490 O   0  0  0  0  0  0  0  0  0  0  0  0
  157.2070  214.1580  152.9650 C   0  0  0  0  0  1  0  0  0  0  0  0
  158.1490  213.1250  152.3740 C   0  0  0  0  0  2  0  0  0  0  0  0
  1  3  1  6  0  0  0
  1 11  1  0  0  0  0
  1  9  1  0  0  0  0
  2  6  1  0  0  0  0
  2  7  2  0  0  0  0
  5  8  1  0  0  0  0
  5  4  1  1  0  0  0
  7  5  1  0  0  0  0
  9  8  1  6  0  0  0
 10  7  1  0  0  0  0
 10 27  1  0  0  0  0
 11  6  1  6  0  0  0
 11  9  1  0  0  0  0
 12  1  1  0  0  0  0
 13 12  3  0  0  0  0
 14 13  1  0  0  0  0
 15 17  1  0  0  0  0
 16 19  1  1  0  0  0
 16 18  1  0  0  0  0
 17 14  1  0  0  0  0
 18 17  1  0  0  0  0
 19 15  1  0  0  0  0
 20 24  1  0  0  0  0
 20 21  1  1  0  0  0
 22 25  1  0  0  0  0
 22 23  1  0  0  0  0
 25 20  1  0  0  0  0
 26 23  1  6  0  0  0
 26 24  1  0  0  0  0
 26 16  1  0  0  0  0
 28 27  1  6  0  0  0
 29 31  1  0  0  0  0
 30 38  1  1  0  0  0
 30 34  1  0  0  0  0
 31 28  1  6  0  0  0
 32 37  1  0  0  0  0
 32 33  1  0  0  0  0
 34 31  1  0  0  0  0
 35 33  1  6  0  0  0
 35 30  1  0  0  0  0
 35 29  1  0  0  0  0
 36 39  2  0  0  0  0
 37 40  1  0  0  0  0
 39 32  1  0  0  0  0
 40 30  1  0  0  0  0
 41 39  1  0  0  0  0
 42 41  1  0  0  0  0
 43 42  2  0  0  0  0
 45 47  1  0  0  0  0
 46 47  1  0  0  0  0
 47 44  1  0  0  0  0
 47 42  1  0  0  0  0
 48 28  1  0  0  0  0
 48 50  1  0  0  0  0
 50 49  1  0  0  0  0
M  END
>  <MODEL>
1

>  <REMARK>
 VINA RESULT:      -6.4      0.000      0.000
  Name = 
  12 active torsions:
  status: ('A' for Active; 'I' for Inactive)
    1  A    between atoms: O_1  and  C_27
    2  A    between atoms: O_1  and  C_49
    3  A    between atoms: C_6  and  C_7
    4  A    between atoms: C_9  and  C_27
    5  A    between atoms: C_12  and  C_38
    6  A    between atoms: C_12  and  O_39
    7  A    between atoms: C_27  and  C_29
    8  A    between atoms: C_29  and  N_46
    9  A    between atoms: C_31  and  C_35
   10  A    between atoms: C_31  and  N_36
   11  A    between atoms: C_33  and  N_43
   12  A    between atoms: O_39  and  C_44
                            x       y       z     vdW  Elec       q    Type
                         _______ _______ _______ _____ _____    ______ ____

>  <TORSDO>
F 12

$$$$
=
 OpenBabel11072412103D

 50 55  0  0  1  0  0  0  0  0999 V2000
  161.3460  205.6740  144.4390 C   0  0  2  0  0  0  0  0  0  0  0  0
  161.9970  206.2740  147.3570 N   0  0  0  0  0  0  0  0  0  0  0  0
  160.1630  206.3250  145.3080 C   0  0  0  0  0  1  0  0  0  0  0  0
  161.2040  202.9010  148.5090 O   0  0  0  0  0  1  0  0  0  0  0  0
  161.7560  203.7430  147.5860 C   0  0  2  0  0  3  0  0  0  0  0  0
  163.0290  206.2620  146.3570 C   0  0  0  0  0  2  0  0  0  0  0  0
  161.5800  205.2620  148.1010 C   0  0  0  0  0  0  0  0  0  0  0  0
  161.0570  203.6430  146.1420 C   0  0  0  0  0  2  0  0  0  0  0  0
  161.9080  204.2290  144.8970 C   0  0  2  0  0  3  0  0  0  0  0  0
  161.3410  205.5790  149.4590 N   0  0  0  0  0  2  0  0  0  0  0  0
  162.6740  205.6590  145.0010 C   0  0  1  0  0  3  0  0  0  0  0  0
  161.4900  205.8010  143.0100 C   0  0  0  0  0  0  0  0  0  0  0  0
  161.7210  206.0650  141.8600 C   0  0  0  0  0  0  0  0  0  0  0  0
  162.0050  206.4590  140.5660 C   0  0  0  0  0  2  0  0  0  0  0  0
  163.0210  208.4300  140.2120 C   0  0  0  0  0  2  0  0  0  0  0  0
  161.1710  209.9430  139.8730 C   0  0  1  0  0  3  0  0  0  0  0  0
  161.7910  207.8260  140.6050 N   0  0  0  0  0  0  0  0  0  0  0  0
  160.7620  208.4460  139.8420 C   0  0  0  0  0  2  0  0  0  0  0  0
  162.6970  209.9080  139.9800 C   0  0  0  0  0  2  0  0  0  0  0  0
  161.4110  212.8240  137.6170 C   0  0  1  0  0  3  0  0  0  0  0  0
  162.2330  214.0920  138.0300 C   0  0  0  0  0  1  0  0  0  0  0  0
  159.0970  211.8220  137.1950 C   0  0  0  0  0  2  0  0  0  0  0  0
  159.3410  210.9440  138.5170 C   0  0  0  0  0  2  0  0  0  0  0  0
  161.2130  212.1680  139.0040 C   0  0  0  0  0  2  0  0  0  0  0  0
  159.9950  213.1180  137.0130 C   0  0  0  0  0  2  0  0  0  0  0  0
  160.7510  210.8410  138.7070 N   0  0  1  0  0  0  0  0  0  0  0  0
  160.5840  204.8600  150.4980 C   0  0  0  0  0  2  0  0  0  0  0  0
  161.3270  205.0930  151.9200 C   0  0  1  0  0  3  0  0  0  0  0  0
  160.7770  206.5360  153.9720 C   0  0  0  0  0  2  0  0  0  0  0  0
  161.1280  208.9000  153.2180 C   0  0  2  0  0  0  0  0  0  0  0  0
  161.2680  206.4560  152.6990 C   0  0  1  0  0  3  0  0  0  0  0  0
  161.4960  209.6270  155.7180 N   0  0  0  0  0  0  0  0  0  0  0  0
  161.5650  208.1790  155.5430 C   0  0  0  0  0  2  0  0  0  0  0  0
  161.8390  207.8160  152.3380 C   0  0  0  0  0  2  0  0  0  0  0  0
  160.6000  207.9520  154.4230 C   0  0  2  0  0  3  0  0  0  0  0  0
  159.7380  209.7760  157.2340 O   0  0  0  0  0  0  0  0  0  0  0  0
  162.3240  210.4030  154.8430 C   0  0  0  0  0  2  0  0  0  0  0  0
  159.9730  209.6480  152.6070 C   0  0  0  0  0  1  0  0  0  0  0  0
  160.4360  210.2990  156.3240 C   0  0  0  0  0  0  0  0  0  0  0  0
  162.2530  209.9590  153.4040 C   0  0  0  0  0  2  0  0  0  0  0  0
  160.3400  211.6890  156.1010 O   0  0  0  0  0  0  0  0  0  0  0  0
  159.1200  212.2860  156.2190 C   0  0  0  0  0  0  0  0  0  0  0  0
  158.9600  213.1120  157.1450 O   0  0  0  0  0  0  0  0  0  0  0  0
  156.9500  212.9200  154.9500 F   0  0  0  0  0  0  0  0  0  0  0  0
  157.7850  210.7680  154.8430 F   0  0  0  0  0  0  0  0  0  0  0  0
  158.8290  212.5290  153.8720 F   0  0  0  0  0  0  0  0  0  0  0  0
  158.1120  212.1550  155.0020 C   0  0  0  0  0  0  0  0  0  0  0  0
  160.7320  204.1970  152.7650 O   0  0  0  0  0  0  0  0  0  0  0  0
  161.9170  202.3960  151.7890 C   0  0  0  0  0  1  0  0  0  0  0  0
  160.5600  203.0330  152.0240 C   0  0  0  0  0  2  0  0  0  0  0  0
  1  9  1  0  0  0  0
  1 11  1  0  0  0  0
  1  3  1  1  0  0  0
  2  7  2  0  0  0  0
  5  7  1  0  0  0  0
  5  4  1  1  0  0  0
  6  2  1  0  0  0  0
  7 10  1  0  0  0  0
  8  5  1  0  0  0  0
  9 11  1  0  0  0  0
  9  8  1  1  0  0  0
 10 27  1  0  0  0  0
 11  6  1  1  0  0  0
 12  1  1  0  0  0  0
 13 12  3  0  0  0  0
 14 17  1  0  0  0  0
 14 13  1  0  0  0  0
 15 17  1  0  0  0  0
 16 18  1  6  0  0  0
 16 19  1  0  0  0  0
 18 17  1  0  0  0  0
 19 15  1  0  0  0  0
 20 21  1  1  0  0  0
 20 24  1  0  0  0  0
 22 23  1  0  0  0  0
 25 22  1  0  0  0  0
 25 20  1  0  0  0  0
 26 23  1  1  0  0  0
 26 24  1  0  0  0  0
 26 16  1  0  0  0  0
 28 27  1  6  0  0  0
 28 48  1  0  0  0  0
 30 38  1  6  0  0  0
 30 40  1  0  0  0  0
 30 35  1  0  0  0  0
 31 28  1  1  0  0  0
 31 29  1  0  0  0  0
 32 39  1  0  0  0  0
 33 32  1  0  0  0  0
 34 31  1  0  0  0  0
 34 30  1  0  0  0  0
 35 29  1  6  0  0  0
 35 33  1  0  0  0  0
 37 32  1  0  0  0  0
 39 36  2  0  0  0  0
 40 37  1  0  0  0  0
 41 42  1  0  0  0  0
 41 39  1  0  0  0  0
 42 43  2  0  0  0  0
 44 47  1  0  0  0  0
 45 47  1  0  0  0  0
 46 47  1  0  0  0  0
 47 42  1  0  0  0  0
 49 50  1  0  0  0  0
 50 48  1  0  0  0  0
M  END
>  <MODEL>
2

>  <REMARK>
 VINA RESULT:      -5.4      5.584     10.271
  Name = 
  12 active torsions:
  status: ('A' for Active; 'I' for Inactive)
    1  A    between atoms: O_1  and  C_27
    2  A    between atoms: O_1  and  C_49
    3  A    between atoms: C_6  and  C_7
    4  A    between atoms: C_9  and  C_27
    5  A    between atoms: C_12  and  C_38
    6  A    between atoms: C_12  and  O_39
    7  A    between atoms: C_27  and  C_29
    8  A    between atoms: C_29  and  N_46
    9  A    between atoms: C_31  and  C_35
   10  A    between atoms: C_31  and  N_36
   11  A    between atoms: C_33  and  N_43
   12  A    between atoms: O_39  and  C_44
                            x       y       z     vdW  Elec       q    Type
                         _______ _______ _______ _____ _____    ______ ____

>  <TORSDO>
F 12

$$$$
=
 OpenBabel11072412103D

 50 55  0  0  1  0  0  0  0  0999 V2000
  160.0800  213.4270  144.0250 C   0  0  2  0  0  0  0  0  0  0  0  0
  159.8110  212.9760  147.0290 N   0  0  0  0  0  0  0  0  0  0  0  0
  160.1610  211.9020  144.5210 C   0  0  0  0  0  1  0  0  0  0  0  0
  163.3530  213.5560  147.7060 O   0  0  0  0  0  1  0  0  0  0  0  0
  162.2020  213.8720  147.0420 C   0  0  2  0  0  3  0  0  0  0  0  0
  159.2010  214.1130  146.3950 C   0  0  0  0  0  2  0  0  0  0  0  0
  161.0230  212.8980  147.5560 C   0  0  0  0  0  0  0  0  0  0  0  0
  162.3190  213.6830  145.4490 C   0  0  0  0  0  2  0  0  0  0  0  0
  161.2090  214.4530  144.5580 C   0  0  2  0  0  3  0  0  0  0  0  0
  161.0930  212.2090  148.7890 N   0  0  0  0  0  2  0  0  0  0  0  0
  159.6360  214.4260  144.9660 C   0  0  1  0  0  3  0  0  0  0  0  0
  159.6420  213.8500  142.7180 C   0  0  0  0  0  0  0  0  0  0  0  0
  159.4320  214.1020  141.5620 C   0  0  0  0  0  0  0  0  0  0  0  0
  159.2840  214.3730  140.2150 C   0  0  0  0  0  2  0  0  0  0  0  0
  157.6780  214.4300  138.6460 C   0  0  0  0  0  2  0  0  0  0  0  0
  156.2550  212.5790  139.2560 C   0  0  1  0  0  3  0  0  0  0  0  0
  157.9890  213.9590  139.9560 N   0  0  0  0  0  0  0  0  0  0  0  0
  157.6160  212.5860  140.0020 C   0  0  0  0  0  2  0  0  0  0  0  0
  156.3720  213.7320  138.2570 C   0  0  0  0  0  2  0  0  0  0  0  0
  154.1600  209.6370  138.6210 C   0  0  1  0  0  3  0  0  0  0  0  0
  153.2240  209.0690  139.7410 C   0  0  0  0  0  1  0  0  0  0  0  0
  156.2670  209.2870  137.2160 C   0  0  0  0  0  2  0  0  0  0  0  0
  156.9050  210.5080  138.0400 C   0  0  0  0  0  2  0  0  0  0  0  0
  155.1260  210.4860  139.4810 C   0  0  0  0  0  2  0  0  0  0  0  0
  155.0070  208.5640  137.8550 C   0  0  0  0  0  2  0  0  0  0  0  0
  155.8250  211.3020  138.5290 N   0  0  1  0  0  0  0  0  0  0  0  0
  162.2420  211.6310  149.5070 C   0  0  0  0  0  2  0  0  0  0  0  0
  161.7270  210.3310  150.3280 C   0  0  1  0  0  3  0  0  0  0  0  0
  161.1750  207.8240  150.3890 C   0  0  0  0  0  2  0  0  0  0  0  0
  162.2590  206.8690  148.3420 C   0  0  2  0  0  0  0  0  0  0  0  0
  161.6950  208.8890  149.7070 C   0  0  1  0  0  3  0  0  0  0  0  0
  160.5640  204.8600  148.3990 N   0  0  0  0  0  0  0  0  0  0  0  0
  160.1480  205.9650  149.2590 C   0  0  0  0  0  2  0  0  0  0  0  0
  162.0300  208.4190  148.3030 C   0  0  0  0  0  2  0  0  0  0  0  0
  161.4600  206.5220  149.7100 C   0  0  2  0  0  3  0  0  0  0  0  0
  160.7230  203.1520  149.9690 O   0  0  0  0  0  0  0  0  0  0  0  0
  160.8840  205.2080  147.0460 C   0  0  0  0  0  2  0  0  0  0  0  0
  163.6780  206.3750  148.4340 C   0  0  0  0  0  1  0  0  0  0  0  0
  161.0660  203.6450  148.8610 C   0  0  0  0  0  0  0  0  0  0  0  0
  161.7590  206.4300  146.9340 C   0  0  0  0  0  2  0  0  0  0  0  0
  161.7500  202.8340  147.9320 O   0  0  0  0  0  0  0  0  0  0  0  0
  161.1980  201.6390  147.5770 C   0  0  0  0  0  0  0  0  0  0  0  0
  160.9450  200.8170  148.4860 O   0  0  0  0  0  0  0  0  0  0  0  0
  159.2670  201.7500  145.8510 F   0  0  0  0  0  0  0  0  0  0  0  0
  160.9720  200.2100  145.6060 F   0  0  0  0  0  0  0  0  0  0  0  0
  161.2940  202.4360  145.3390 F   0  0  0  0  0  0  0  0  0  0  0  0
  160.6120  201.5030  146.1090 C   0  0  0  0  0  0  0  0  0  0  0  0
  162.5960  210.2260  151.3790 O   0  0  0  0  0  0  0  0  0  0  0  0
  160.8070  211.0740  152.6760 C   0  0  0  0  0  1  0  0  0  0  0  0
  161.8120  209.9510  152.4930 C   0  0  0  0  0  2  0  0  0  0  0  0
  1  3  1  1  0  0  0
  1  9  1  0  0  0  0
  1 11  1  0  0  0  0
  2  7  2  0  0  0  0
  5  7  1  0  0  0  0
  5  4  1  1  0  0  0
  6  2  1  0  0  0  0
  7 10  1  0  0  0  0
  8  5  1  0  0  0  0
  9 11  1  0  0  0  0
  9  8  1  1  0  0  0
 10 27  1  0  0  0  0
 11  6  1  1  0  0  0
 12  1  1  0  0  0  0
 13 12  3  0  0  0  0
 14 13  1  0  0  0  0
 15 17  1  0  0  0  0
 16 19  1  6  0  0  0
 16 18  1  0  0  0  0
 17 18  1  0  0  0  0
 17 14  1  0  0  0  0
 19 15  1  0  0  0  0
 20 24  1  0  0  0  0
 20 21  1  1  0  0  0
 22 25  1  0  0  0  0
 22 23  1  0  0  0  0
 25 20  1  0  0  0  0
 26 23  1  1  0  0  0
 26 16  1  0  0  0  0
 26 24  1  0  0  0  0
 28 27  1  6  0  0  0
 28 48  1  0  0  0  0
 30 38  1  1  0  0  0
 30 35  1  0  0  0  0
 31 28  1  6  0  0  0
 31 29  1  0  0  0  0
 32 39  1  0  0  0  0
 32 33  1  0  0  0  0
 34 30  1  0  0  0  0
 34 31  1  0  0  0  0
 35 33  1  6  0  0  0
 35 29  1  0  0  0  0
 37 32  1  0  0  0  0
 39 36  2  0  0  0  0
 40 37  1  0  0  0  0
 40 30  1  0  0  0  0
 41 39  1  0  0  0  0
 42 41  1  0  0  0  0
 42 43  2  0  0  0  0
 44 47  1  0  0  0  0
 45 47  1  0  0  0  0
 46 47  1  0  0  0  0
 47 42  1  0  0  0  0
 48 50  1  0  0  0  0
 50 49  1  0  0  0  0
M  END
>  <MODEL>
3

>  <REMARK>
 VINA RESULT:      -5.1      5.100     10.371
  Name = 
  12 active torsions:
  status: ('A' for Active; 'I' for Inactive)
    1  A    between atoms: O_1  and  C_27
    2  A    between atoms: O_1  and  C_49
    3  A    between atoms: C_6  and  C_7
    4  A    between atoms: C_9  and  C_27
    5  A    between atoms: C_12  and  C_38
    6  A    between atoms: C_12  and  O_39
    7  A    between atoms: C_27  and  C_29
    8  A    between atoms: C_29  and  N_46
    9  A    between atoms: C_31  and  C_35
   10  A    between atoms: C_31  and  N_36
   11  A    between atoms: C_33  and  N_43
   12  A    between atoms: O_39  and  C_44
                            x       y       z     vdW  Elec       q    Type
                         _______ _______ _______ _____ _____    ______ ____

>  <TORSDO>
F 12

$$$$
=
 OpenBabel11072412103D

 50 55  0  0  1  0  0  0  0  0999 V2000
  159.8850  213.2640  144.7650 C   0  0  2  0  0  0  0  0  0  0  0  0
  159.8460  213.2520  147.8140 N   0  0  0  0  0  0  0  0  0  0  0  0
  159.7290  211.8270  145.4640 C   0  0  0  0  0  1  0  0  0  0  0  0
  163.4850  213.1920  148.1290 O   0  0  0  0  0  1  0  0  0  0  0  0
  162.3520  213.6470  147.5170 C   0  0  2  0  0  3  0  0  0  0  0  0
  159.3990  214.4000  147.0750 C   0  0  0  0  0  2  0  0  0  0  0  0
  161.0700  212.9990  148.2530 C   0  0  0  0  0  0  0  0  0  0  0  0
  162.2660  213.2430  145.9630 C   0  0  0  0  0  2  0  0  0  0  0  0
  161.2360  214.1020  145.0600 C   0  0  2  0  0  3  0  0  0  0  0  0
  161.1360  212.4680  149.5620 N   0  0  0  0  0  2  0  0  0  0  0  0
  159.7350  214.4400  145.5870 C   0  0  1  0  0  3  0  0  0  0  0  0
  159.4020  213.6010  143.4490 C   0  0  0  0  0  0  0  0  0  0  0  0
  159.1840  213.9370  142.3160 C   0  0  0  0  0  0  0  0  0  0  0  0
  159.0140  214.3800  141.0180 C   0  0  0  0  0  2  0  0  0  0  0  0
  160.6870  212.9050  141.2830 C   0  0  0  0  0  2  0  0  0  0  0  0
  160.7880  211.8050  139.1360 C   0  0  1  0  0  3  0  0  0  0  0  0
  159.9260  213.6180  140.3090 N   0  0  0  0  0  0  0  0  0  0  0  0
  159.5140  212.6700  139.3300 C   0  0  0  0  0  2  0  0  0  0  0  0
  161.4860  211.8620  140.4970 C   0  0  0  0  0  2  0  0  0  0  0  0
  161.2450  208.1730  139.3570 C   0  0  1  0  0  3  0  0  0  0  0  0
  162.4050  207.5680  140.2170 C   0  0  0  0  0  1  0  0  0  0  0  0
  160.3220  208.6010  137.0110 C   0  0  0  0  0  2  0  0  0  0  0  0
  160.6170  210.1560  137.2810 C   0  0  0  0  0  2  0  0  0  0  0  0
  161.7590  209.6240  139.1930 C   0  0  0  0  0  2  0  0  0  0  0  0
  161.0820  207.5510  137.9280 C   0  0  0  0  0  2  0  0  0  0  0  0
  160.6240  210.3480  138.6950 N   0  0  1  0  0  0  0  0  0  0  0  0
  162.2240  211.7660  150.2640 C   0  0  0  0  0  2  0  0  0  0  0  0
  161.6200  210.4060  150.9060 C   0  0  1  0  0  3  0  0  0  0  0  0
  161.1330  207.8910  150.7230 C   0  0  0  0  0  2  0  0  0  0  0  0
  162.1720  207.1840  148.5550 C   0  0  2  0  0  0  0  0  0  0  0  0
  161.6030  209.0350  150.1400 C   0  0  1  0  0  3  0  0  0  0  0  0
  160.5310  205.1320  148.4540 N   0  0  0  0  0  0  0  0  0  0  0  0
  160.1160  206.1300  149.4370 C   0  0  0  0  0  2  0  0  0  0  0  0
  161.9020  208.7220  148.6850 C   0  0  0  0  0  2  0  0  0  0  0  0
  161.4290  206.6750  149.9030 C   0  0  2  0  0  3  0  0  0  0  0  0
  160.7850  203.2760  149.8320 O   0  0  0  0  0  0  0  0  0  0  0  0
  160.7960  205.6270  147.1350 C   0  0  0  0  0  2  0  0  0  0  0  0
  163.6050  206.7240  148.5510 C   0  0  0  0  0  1  0  0  0  0  0  0
  161.0780  203.8910  148.7710 C   0  0  0  0  0  0  0  0  0  0  0  0
  161.6360  206.8780  147.1250 C   0  0  0  0  0  2  0  0  0  0  0  0
  161.7520  203.2000  147.7420 O   0  0  0  0  0  0  0  0  0  0  0  0
  161.1470  202.1160  147.1790 C   0  0  0  0  0  0  0  0  0  0  0  0
  160.7680  202.2090  145.9890 O   0  0  0  0  0  0  0  0  0  0  0  0
  161.4650  199.5440  147.2330 F   0  0  0  0  0  0  0  0  0  0  0  0
  160.1190  200.5920  148.7910 F   0  0  0  0  0  0  0  0  0  0  0  0
  162.3710  200.8380  148.7660 F   0  0  0  0  0  0  0  0  0  0  0  0
  161.2620  200.7280  147.9370 C   0  0  0  0  0  0  0  0  0  0  0  0
  162.4030  210.1690  152.0020 O   0  0  0  0  0  0  0  0  0  0  0  0
  160.3200  211.0970  152.6360 C   0  0  0  0  0  1  0  0  0  0  0  0
  161.6010  210.4330  153.1060 C   0  0  0  0  0  2  0  0  0  0  0  0
  1  9  1  0  0  0  0
  1  3  1  1  0  0  0
  1 11  1  0  0  0  0
  2  7  2  0  0  0  0
  5  4  1  1  0  0  0
  5  7  1  0  0  0  0
  6  2  1  0  0  0  0
  7 10  1  0  0  0  0
  8  5  1  0  0  0  0
  9 11  1  0  0  0  0
  9  8  1  1  0  0  0
 10 27  1  0  0  0  0
 11  6  1  1  0  0  0
 12  1  1  0  0  0  0
 13 12  3  0  0  0  0
 14 13  1  0  0  0  0
 16 18  1  1  0  0  0
 16 19  1  0  0  0  0
 17 14  1  0  0  0  0
 17 15  1  0  0  0  0
 18 17  1  0  0  0  0
 19 15  1  0  0  0  0
 20 21  1  1  0  0  0
 22 23  1  0  0  0  0
 22 25  1  0  0  0  0
 24 20  1  0  0  0  0
 25 20  1  0  0  0  0
 26 23  1  6  0  0  0
 26 16  1  0  0  0  0
 26 24  1  0  0  0  0
 28 27  1  6  0  0  0
 28 48  1  0  0  0  0
 30 38  1  1  0  0  0
 30 34  1  0  0  0  0
 30 35  1  0  0  0  0
 31 29  1  0  0  0  0
 31 28  1  6  0  0  0
 32 39  1  0  0  0  0
 32 33  1  0  0  0  0
 34 31  1  0  0  0  0
 35 33  1  6  0  0  0
 35 29  1  0  0  0  0
 37 32  1  0  0  0  0
 39 36  2  0  0  0  0
 40 37  1  0  0  0  0
 40 30  1  0  0  0  0
 41 39  1  0  0  0  0
 42 41  1  0  0  0  0
 42 47  1  0  0  0  0
 43 42  2  0  0  0  0
 44 47  1  0  0  0  0
 47 46  1  0  0  0  0
 47 45  1  0  0  0  0
 48 50  1  0  0  0  0
 49 50  1  0  0  0  0
M  END
>  <MODEL>
4

>  <REMARK>
 VINA RESULT:      -5.0      4.637      9.739
  Name = 
  12 active torsions:
  status: ('A' for Active; 'I' for Inactive)
    1  A    between atoms: O_1  and  C_27
    2  A    between atoms: O_1  and  C_49
    3  A    between atoms: C_6  and  C_7
    4  A    between atoms: C_9  and  C_27
    5  A    between atoms: C_12  and  C_38
    6  A    between atoms: C_12  and  O_39
    7  A    between atoms: C_27  and  C_29
    8  A    between atoms: C_29  and  N_46
    9  A    between atoms: C_31  and  C_35
   10  A    between atoms: C_31  and  N_36
   11  A    between atoms: C_33  and  N_43
   12  A    between atoms: O_39  and  C_44
                            x       y       z     vdW  Elec       q    Type
                         _______ _______ _______ _____ _____    ______ ____

>  <TORSDO>
F 12

$$$$
=
 OpenBabel11072412103D

 50 55  0  0  1  0  0  0  0  0999 V2000
  161.8310  213.8580  146.6660 C   0  0  2  0  0  0  0  0  0  0  0  0
  161.6930  211.9340  149.0270 N   0  0  0  0  0  0  0  0  0  0  0  0
  162.7110  214.2510  147.9510 C   0  0  0  0  0  1  0  0  0  0  0  0
  158.6770  213.4440  150.4290 O   0  0  0  0  0  1  0  0  0  0  0  0
  159.4060  213.0220  149.3530 C   0  0  2  0  0  3  0  0  0  0  0  0
  161.4770  211.4710  147.6840 C   0  0  0  0  0  2  0  0  0  0  0  0
  160.7870  212.3790  149.8840 C   0  0  0  0  0  0  0  0  0  0  0  0
  159.7900  214.2130  148.3440 C   0  0  0  0  0  2  0  0  0  0  0  0
  160.2280  213.7670  146.8510 C   0  0  2  0  0  3  0  0  0  0  0  0
  160.9480  211.9210  151.2130 N   0  0  0  0  0  2  0  0  0  0  0  0
  161.2610  212.5350  146.6110 C   0  0  1  0  0  3  0  0  0  0  0  0
  162.1250  214.2520  145.3100 C   0  0  0  0  0  0  0  0  0  0  0  0
  162.3810  214.3870  144.1440 C   0  0  0  0  0  0  0  0  0  0  0  0
  162.7140  214.4530  142.8040 C   0  0  0  0  0  2  0  0  0  0  0  0
  161.2940  214.4340  141.0650 C   0  0  0  0  0  2  0  0  0  0  0  0
  160.7720  212.0900  140.8140 C   0  0  1  0  0  3  0  0  0  0  0  0
  161.7280  213.6900  142.2020 N   0  0  0  0  0  0  0  0  0  0  0  0
  161.9730  212.3600  141.7590 C   0  0  0  0  0  2  0  0  0  0  0  0
  160.4240  213.4700  140.2530 C   0  0  0  0  0  2  0  0  0  0  0  0
  161.3980  208.8070  139.3060 C   0  0  1  0  0  3  0  0  0  0  0  0
  162.0960  207.6730  140.1310 C   0  0  0  0  0  1  0  0  0  0  0  0
  161.5950  210.4840  137.3870 C   0  0  0  0  0  2  0  0  0  0  0  0
  161.5990  211.6280  138.5130 C   0  0  0  0  0  2  0  0  0  0  0  0
  161.8020  210.0400  140.1490 C   0  0  0  0  0  2  0  0  0  0  0  0
  161.9510  209.0090  137.8550 C   0  0  0  0  0  2  0  0  0  0  0  0
  160.9520  211.0920  139.6670 N   0  0  1  0  0  0  0  0  0  0  0  0
  160.3870  212.4210  152.4800 C   0  0  0  0  0  2  0  0  0  0  0  0
  160.1160  211.1510  153.4510 C   0  0  1  0  0  3  0  0  0  0  0  0
  160.4990  209.1880  151.8400 C   0  0  0  0  0  2  0  0  0  0  0  0
  161.1850  207.2720  153.3020 C   0  0  2  0  0  0  0  0  0  0  0  0
  160.5960  209.6960  153.1060 C   0  0  1  0  0  3  0  0  0  0  0  0
  162.3750  206.1480  151.2440 N   0  0  0  0  0  0  0  0  0  0  0  0
  162.0480  207.5500  151.0010 C   0  0  0  0  0  2  0  0  0  0  0  0
  161.3540  208.6880  153.9500 C   0  0  0  0  0  2  0  0  0  0  0  0
  160.7920  207.7220  151.7940 C   0  0  2  0  0  3  0  0  0  0  0  0
  161.1780  205.1410  149.5220 O   0  0  0  0  0  0  0  0  0  0  0  0
  163.0960  205.8740  152.4510 C   0  0  0  0  0  2  0  0  0  0  0  0
  160.1200  206.3680  153.8640 C   0  0  0  0  0  1  0  0  0  0  0  0
  161.7090  205.0700  150.6620 C   0  0  0  0  0  0  0  0  0  0  0  0
  162.5380  206.5860  153.6560 C   0  0  0  0  0  2  0  0  0  0  0  0
  161.8890  203.8030  151.2560 O   0  0  0  0  0  0  0  0  0  0  0  0
  160.8500  202.9210  151.2410 C   0  0  0  0  0  0  0  0  0  0  0  0
  159.9460  203.0650  152.0940 O   0  0  0  0  0  0  0  0  0  0  0  0
  161.7720  201.7000  149.1470 F   0  0  0  0  0  0  0  0  0  0  0  0
  159.6160  202.5310  149.1660 F   0  0  0  0  0  0  0  0  0  0  0  0
  160.2510  200.7660  150.4360 F   0  0  0  0  0  0  0  0  0  0  0  0
  160.6830  201.9980  149.9620 C   0  0  0  0  0  0  0  0  0  0  0  0
  160.7800  211.4580  154.6070 O   0  0  0  0  0  0  0  0  0  0  0  0
  159.0100  211.5700  156.1740 C   0  0  0  0  0  1  0  0  0  0  0  0
  159.9620  212.3520  155.2880 C   0  0  0  0  0  2  0  0  0  0  0  0
  1  9  1  0  0  0  0
  1  3  1  1  0  0  0
  2  7  2  0  0  0  0
  5  7  1  0  0  0  0
  5  4  1  1  0  0  0
  6  2  1  0  0  0  0
  7 10  1  0  0  0  0
  8  5  1  0  0  0  0
  9  8  1  1  0  0  0
 10 27  1  0  0  0  0
 11  1  1  0  0  0  0
 11  9  1  0  0  0  0
 11  6  1  1  0  0  0
 12  1  1  0  0  0  0
 13 12  3  0  0  0  0
 14 13  1  0  0  0  0
 15 17  1  0  0  0  0
 16 19  1  6  0  0  0
 16 18  1  0  0  0  0
 17 14  1  0  0  0  0
 18 17  1  0  0  0  0
 19 15  1  0  0  0  0
 20 21  1  1  0  0  0
 20 24  1  0  0  0  0
 22 25  1  0  0  0  0
 22 23  1  0  0  0  0
 25 20  1  0  0  0  0
 26 23  1  6  0  0  0
 26 24  1  0  0  0  0
 26 16  1  0  0  0  0
 28 27  1  6  0  0  0
 28 48  1  0  0  0  0
 29 31  1  0  0  0  0
 30 40  1  0  0  0  0
 30 38  1  1  0  0  0
 30 34  1  0  0  0  0
 31 28  1  6  0  0  0
 31 34  1  0  0  0  0
 32 37  1  0  0  0  0
 33 32  1  0  0  0  0
 35 33  1  6  0  0  0
 35 29  1  0  0  0  0
 35 30  1  0  0  0  0
 36 39  2  0  0  0  0
 37 40  1  0  0  0  0
 39 32  1  0  0  0  0
 39 41  1  0  0  0  0
 42 41  1  0  0  0  0
 42 43  2  0  0  0  0
 44 47  1  0  0  0  0
 45 47  1  0  0  0  0
 47 46  1  0  0  0  0
 47 42  1  0  0  0  0
 48 50  1  0  0  0  0
 50 49  1  0  0  0  0
M  END
>  <MODEL>
5

>  <REMARK>
 VINA RESULT:      -4.4      4.286      9.715
  Name = 
  12 active torsions:
  status: ('A' for Active; 'I' for Inactive)
    1  A    between atoms: O_1  and  C_27
    2  A    between atoms: O_1  and  C_49
    3  A    between atoms: C_6  and  C_7
    4  A    between atoms: C_9  and  C_27
    5  A    between atoms: C_12  and  C_38
    6  A    between atoms: C_12  and  O_39
    7  A    between atoms: C_27  and  C_29
    8  A    between atoms: C_29  and  N_46
    9  A    between atoms: C_31  and  C_35
   10  A    between atoms: C_31  and  N_36
   11  A    between atoms: C_33  and  N_43
   12  A    between atoms: O_39  and  C_44
                            x       y       z     vdW  Elec       q    Type
                         _______ _______ _______ _____ _____    ______ ____

>  <TORSDO>
F 12

$$$$
=
 OpenBabel11072412103D

 50 55  0  0  1  0  0  0  0  0999 V2000
  160.9230  204.1430  151.2270 C   0  0  2  0  0  0  0  0  0  0  0  0
  161.6230  207.0970  151.5180 N   0  0  0  0  0  0  0  0  0  0  0  0
  159.8060  205.1860  150.7330 C   0  0  0  0  0  1  0  0  0  0  0  0
  160.5060  207.2980  154.9890 O   0  0  0  0  0  1  0  0  0  0  0  0
  161.1390  206.6280  153.9810 C   0  0  2  0  0  3  0  0  0  0  0  0
  162.6510  206.1070  151.3500 C   0  0  0  0  0  2  0  0  0  0  0  0
  161.1090  207.5450  152.6530 C   0  0  0  0  0  0  0  0  0  0  0  0
  160.4360  205.2300  153.6120 C   0  0  0  0  0  2  0  0  0  0  0  0
  161.3430  204.1730  152.7880 C   0  0  2  0  0  3  0  0  0  0  0  0
  160.8990  208.9430  152.7020 N   0  0  0  0  0  2  0  0  0  0  0  0
  162.2420  204.6470  151.5200 C   0  0  1  0  0  3  0  0  0  0  0  0
  161.0820  202.8010  150.7250 C   0  0  0  0  0  0  0  0  0  0  0  0
  161.1520  201.7560  150.1350 C   0  0  0  0  0  0  0  0  0  0  0  0
  161.1700  200.5910  149.3920 C   0  0  0  0  0  2  0  0  0  0  0  0
  160.2200  200.9700  147.3930 C   0  0  0  0  0  2  0  0  0  0  0  0
  161.7330  202.5410  146.3600 C   0  0  1  0  0  3  0  0  0  0  0  0
  161.4480  201.0430  148.1140 N   0  0  0  0  0  0  0  0  0  0  0  0
  161.9920  202.3370  147.8760 C   0  0  0  0  0  2  0  0  0  0  0  0
  160.4640  201.7310  146.0870 C   0  0  0  0  0  2  0  0  0  0  0  0
  161.6800  206.2020  146.5730 C   0  0  1  0  0  3  0  0  0  0  0  0
  161.5310  206.9160  147.9590 C   0  0  0  0  0  1  0  0  0  0  0  0
  160.5890  205.6360  144.3320 C   0  0  0  0  0  2  0  0  0  0  0  0
  160.5420  204.1160  144.8460 C   0  0  0  0  0  2  0  0  0  0  0  0
  161.1700  204.7880  146.9420 C   0  0  0  0  0  2  0  0  0  0  0  0
  160.7670  206.7660  145.4330 C   0  0  0  0  0  2  0  0  0  0  0  0
  161.5630  203.9680  145.8320 N   0  0  1  0  0  0  0  0  0  0  0  0
  160.0740  209.7630  153.6050 C   0  0  0  0  0  2  0  0  0  0  0  0
  160.1840  211.3090  153.1300 C   0  0  1  0  0  3  0  0  0  0  0  0
  161.5740  211.3450  150.9710 C   0  0  0  0  0  2  0  0  0  0  0  0
  160.4100  212.9850  149.4760 C   0  0  2  0  0  0  0  0  0  0  0  0
  160.4430  211.7260  151.6380 C   0  0  1  0  0  3  0  0  0  0  0  0
  161.4870  211.8160  147.3810 N   0  0  0  0  0  0  0  0  0  0  0  0
  161.5970  211.0040  148.5900 C   0  0  0  0  0  2  0  0  0  0  0  0
  159.5300  212.4170  150.6410 C   0  0  0  0  0  2  0  0  0  0  0  0
  161.7190  212.0450  149.6570 C   0  0  2  0  0  3  0  0  0  0  0  0
  163.7370  212.0660  146.8460 O   0  0  0  0  0  0  0  0  0  0  0  0
  160.1740  212.2960  147.0670 C   0  0  0  0  0  2  0  0  0  0  0  0
  160.8040  214.4360  149.5410 C   0  0  0  0  0  1  0  0  0  0  0  0
  162.5510  212.4880  146.7820 C   0  0  0  0  0  0  0  0  0  0  0  0
  159.4490  212.8720  148.2560 C   0  0  0  0  0  2  0  0  0  0  0  0
  162.2340  213.5020  145.8540 O   0  0  0  0  0  0  0  0  0  0  0  0
  162.6060  213.3370  144.5530 C   0  0  0  0  0  0  0  0  0  0  0  0
  163.8190  213.4670  144.2700 O   0  0  0  0  0  0  0  0  0  0  0  0
  160.4560  211.9790  144.0500 F   0  0  0  0  0  0  0  0  0  0  0  0
  162.2830  211.8460  142.6420 F   0  0  0  0  0  0  0  0  0  0  0  0
  161.0190  213.7180  142.8240 F   0  0  0  0  0  0  0  0  0  0  0  0
  161.5600  212.6730  143.5630 C   0  0  0  0  0  0  0  0  0  0  0  0
  158.9580  211.8420  153.4200 O   0  0  0  0  0  0  0  0  0  0  0  0
  158.0030  213.8170  154.3090 C   0  0  0  0  0  1  0  0  0  0  0  0
  159.1980  212.8800  154.3130 C   0  0  0  0  0  2  0  0  0  0  0  0
  1  3  1  6  0  0  0
  1 11  1  0  0  0  0
  1  9  1  0  0  0  0
  2  7  2  0  0  0  0
  5  4  1  1  0  0  0
  6  2  1  0  0  0  0
  7 10  1  0  0  0  0
  7  5  1  0  0  0  0
  8  5  1  0  0  0  0
  9  8  1  1  0  0  0
 10 27  1  0  0  0  0
 11  6  1  1  0  0  0
 11  9  1  0  0  0  0
 12  1  1  0  0  0  0
 13 12  3  0  0  0  0
 14 13  1  0  0  0  0
 15 17  1  0  0  0  0
 16 19  1  1  0  0  0
 16 18  1  0  0  0  0
 17 14  1  0  0  0  0
 18 17  1  0  0  0  0
 19 15  1  0  0  0  0
 20 24  1  0  0  0  0
 20 21  1  1  0  0  0
 22 23  1  0  0  0  0
 22 25  1  0  0  0  0
 25 20  1  0  0  0  0
 26 23  1  6  0  0  0
 26 16  1  0  0  0  0
 26 24  1  0  0  0  0
 28 48  1  0  0  0  0
 28 27  1  6  0  0  0
 29 31  1  0  0  0  0
 30 38  1  1  0  0  0
 30 35  1  0  0  0  0
 30 34  1  0  0  0  0
 31 28  1  6  0  0  0
 32 33  1  0  0  0  0
 34 31  1  0  0  0  0
 35 33  1  6  0  0  0
 35 29  1  0  0  0  0
 37 32  1  0  0  0  0
 37 40  1  0  0  0  0
 39 36  2  0  0  0  0
 39 32  1  0  0  0  0
 40 30  1  0  0  0  0
 41 39  1  0  0  0  0
 42 41  1  0  0  0  0
 43 42  2  0  0  0  0
 45 47  1  0  0  0  0
 46 47  1  0  0  0  0
 47 44  1  0  0  0  0
 47 42  1  0  0  0  0
 48 50  1  0  0  0  0
 49 50  1  0  0  0  0
M  END
>  <MODEL>
6

>  <REMARK>
 VINA RESULT:      -4.1      1.639      2.403
  Name = 
  12 active torsions:
  status: ('A' for Active; 'I' for Inactive)
    1  A    between atoms: O_1  and  C_27
    2  A    between atoms: O_1  and  C_49
    3  A    between atoms: C_6  and  C_7
    4  A    between atoms: C_9  and  C_27
    5  A    between atoms: C_12  and  C_38
    6  A    between atoms: C_12  and  O_39
    7  A    between atoms: C_27  and  C_29
    8  A    between atoms: C_29  and  N_46
    9  A    between atoms: C_31  and  C_35
   10  A    between atoms: C_31  and  N_36
   11  A    between atoms: C_33  and  N_43
   12  A    between atoms: O_39  and  C_44
                            x       y       z     vdW  Elec       q    Type
                         _______ _______ _______ _____ _____    ______ ____

>  <TORSDO>
F 12

$$$$
