=
 OpenBabel11072413093D

 35 41  0  0  1  0  0  0  0  0999 V2000
  161.5080  208.6590  151.4760 N   0  0  0  0  0  0  0  0  0  0  0  0
  162.0290  209.9650  153.3880 C   0  0  0  0  0  2  0  0  0  0  0  0
  161.9450  210.2290  149.0230 N   0  0  0  0  0  2  0  0  0  0  0  0
  161.1110  202.2900  148.5500 C   0  0  0  0  0  0  0  0  0  0  0  0
  161.3360  203.6490  147.8970 C   0  0  0  0  0  3  0  0  0  0  0  0
  162.5700  209.4690  152.0590 C   0  0  2  0  0  3  0  0  0  0  0  0
  161.4320  206.6470  150.0490 C   0  0  0  0  0  0  0  0  0  0  0  0
  161.3390  204.7340  148.9240 C   0  0  0  0  0  0  0  0  0  0  0  0
  161.2310  205.7540  151.0290 C   0  0  0  0  0  3  0  0  0  0  0  0
  161.5010  206.0380  148.8000 C   0  0  0  0  0  0  0  0  0  0  0  0
  160.8130  209.1000  153.6910 C   0  0  2  0  0  3  0  0  0  0  0  0
  161.1600  204.4790  150.3220 C   0  0  2  0  0  3  0  0  0  0  0  0
  161.7210  206.7680  147.6380 C   0  0  0  0  0  3  0  0  0  0  0  0
  161.8790  211.0680  150.2120 C   0  0  0  0  0  2  0  0  0  0  0  0
  161.5880  208.0370  150.1840 C   0  0  0  0  0  0  0  0  0  0  0  0
  162.9720  210.6600  151.1870 C   0  0  0  0  0  2  0  0  0  0  0  0
  161.8070  208.8010  149.0050 C   0  0  0  0  0  0  0  0  0  0  0  0
  160.3970  208.4400  152.3810 C   0  0  0  0  0  2  0  0  0  0  0  0
  160.9760  203.2520  150.7830 C   0  0  0  0  0  3  0  0  0  0  0  0
  161.8720  208.1560  147.7530 C   0  0  0  0  0  3  0  0  0  0  0  0
  160.9550  202.1570  149.8470 N   0  0  0  0  0  0  0  0  0  0  0  0
  161.6270  210.9030  155.7360 O   0  0  0  0  0  1  0  0  0  0  0  0
  159.7320  209.8770  154.4760 C   0  0  1  0  0  3  0  0  0  0  0  0
  159.3520  211.0080  156.7840 C   0  0  0  0  0  2  0  0  0  0  0  0
  159.3120  213.5090  156.1380 C   0  0  0  0  0  2  0  0  0  0  0  0
  160.2450  210.8270  155.5540 C   0  0  1  0  0  0  0  0  0  0  0  0
  158.2560  213.3020  155.0410 C   0  0  2  0  0  3  0  0  0  0  0  0
  158.3340  211.9460  154.3180 C   0  0  0  0  0  2  0  0  0  0  0  0
  159.2690  212.4640  157.2600 C   0  0  0  0  0  2  0  0  0  0  0  0
  159.7570  211.3880  154.2190 C   0  0  2  0  0  3  0  0  0  0  0  0
  157.7080  214.0780  152.8300 O   0  0  0  0  0  1  0  0  0  0  0  0
  158.2940  214.4510  154.0420 C   0  0  0  0  0  2  0  0  0  0  0  0
  160.5580  201.1730  146.3690 N   0  0  0  0  0  1  0  0  0  0  0  0
  161.0690  201.0930  147.6970 C   0  0  0  0  0  0  0  0  0  0  0  0
  161.4830  199.9860  148.1330 O   0  0  0  0  0  0  0  0  0  0  0  0
  1  6  1  0  0  0  0
  1 18  1  0  0  0  0
  2 11  1  0  0  0  0
  3 14  1  0  0  0  0
  4 21  1  0  0  0  0
  5  4  2  0  0  0  0
  5  8  1  0  0  0  0
  6 16  1  6  0  0  0
  6  2  1  0  0  0  0
  7 15  1  0  0  0  0
  7  9  2  0  0  0  0
  8 12  1  0  0  0  0
 10  8  2  0  0  0  0
 10  7  1  0  0  0  0
 11 18  1  6  0  0  0
 12 19  1  1  0  0  0
 12  9  1  0  0  0  0
 13 20  2  0  0  0  0
 13 10  1  0  0  0  0
 14 16  1  0  0  0  0
 15  1  1  0  0  0  0
 17  3  1  0  0  0  0
 17 15  2  0  0  0  0
 20 17  1  0  0  0  0
 21 19  2  0  0  0  0
 23 11  1  6  0  0  0
 23 26  1  0  0  0  0
 24 29  1  0  0  0  0
 25 29  1  0  0  0  0
 26 22  1  1  0  0  0
 26 24  1  0  0  0  0
 27 32  1  6  0  0  0
 27 25  1  0  0  0  0
 28 27  1  0  0  0  0
 30 28  1  1  0  0  0
 30 23  1  0  0  0  0
 30 26  1  0  0  0  0
 31 32  1  0  0  0  0
 33 34  1  0  0  0  0
 34 35  2  0  0  0  0
 34  4  1  0  0  0  0
M  END
>  <MODEL>
1

>  <REMARK>
 VINA RESULT:      -8.2      0.000      0.000
  Name = 
  3 active torsions:
  status: ('A' for Active; 'I' for Inactive)
    1  A    between atoms: C_6  and  C_18
    2  A    between atoms: C_7  and  C_15
    3  A    between atoms: C_20  and  C_24
                            x       y       z     vdW  Elec       q    Type
                         _______ _______ _______ _____ _____    ______ ____

>  <TORSDO>
F 3

$$$$
=
 OpenBabel11072413093D

 35 41  0  0  1  0  0  0  0  0999 V2000
  161.6030  209.0620  151.7010 N   0  0  0  0  0  0  0  0  0  0  0  0
  162.3680  210.6700  153.2700 C   0  0  0  0  0  2  0  0  0  0  0  0
  161.7860  210.1400  148.9680 N   0  0  0  0  0  2  0  0  0  0  0  0
  160.7390  202.2890  150.0660 C   0  0  0  0  0  0  0  0  0  0  0  0
  160.9160  203.4970  149.1520 C   0  0  0  0  0  3  0  0  0  0  0  0
  162.7420  209.9190  152.0050 C   0  0  2  0  0  3  0  0  0  0  0  0
  161.3210  206.8290  150.6890 C   0  0  0  0  0  0  0  0  0  0  0  0
  161.0590  204.7490  149.9540 C   0  0  0  0  0  0  0  0  0  0  0  0
  161.2160  206.1380  151.8330 C   0  0  0  0  0  3  0  0  0  0  0  0
  161.2330  206.0010  149.5740 C   0  0  0  0  0  0  0  0  0  0  0  0
  161.1770  209.9260  153.8590 C   0  0  2  0  0  3  0  0  0  0  0  0
  161.0380  204.7600  151.3860 C   0  0  2  0  0  3  0  0  0  0  0  0
  161.3330  206.4990  148.2800 C   0  0  0  0  0  3  0  0  0  0  0  0
  161.8760  211.1830  149.9800 C   0  0  0  0  0  2  0  0  0  0  0  0
  161.5200  208.2120  150.5460 C   0  0  0  0  0  0  0  0  0  0  0  0
  163.0650  210.9140  150.8890 C   0  0  0  0  0  2  0  0  0  0  0  0
  161.6170  208.7400  149.2290 C   0  0  0  0  0  0  0  0  0  0  0  0
  160.6000  209.0570  152.7480 C   0  0  0  0  0  2  0  0  0  0  0  0
  160.8830  203.6450  152.0840 C   0  0  0  0  0  3  0  0  0  0  0  0
  161.5240  207.8770  148.1190 C   0  0  0  0  0  3  0  0  0  0  0  0
  160.7310  202.4010  151.3740 N   0  0  0  0  0  0  0  0  0  0  0  0
  159.6540  211.7930  152.3460 O   0  0  0  0  0  1  0  0  0  0  0  0
  160.2110  210.8760  154.6000 C   0  0  1  0  0  3  0  0  0  0  0  0
  159.0940  213.2080  154.3390 C   0  0  0  0  0  2  0  0  0  0  0  0
  156.6250  212.5620  153.9420 C   0  0  0  0  0  2  0  0  0  0  0  0
  159.4260  211.8460  153.7230 C   0  0  1  0  0  0  0  0  0  0  0  0
  156.5670  211.6590  155.1840 C   0  0  2  0  0  3  0  0  0  0  0  0
  157.8860  210.9410  155.5230 C   0  0  0  0  0  2  0  0  0  0  0  0
  157.6700  213.6810  154.0250 C   0  0  0  0  0  2  0  0  0  0  0  0
  158.7330  210.6080  154.2910 C   0  0  2  0  0  3  0  0  0  0  0  0
  154.8470  210.4090  156.3110 O   0  0  0  0  0  1  0  0  0  0  0  0
  155.4230  210.6600  155.0630 C   0  0  0  0  0  2  0  0  0  0  0  0
  161.4310  200.5400  148.4010 N   0  0  0  0  0  1  0  0  0  0  0  0
  160.5740  200.9600  149.4590 C   0  0  0  0  0  0  0  0  0  0  0  0
  159.6730  200.1810  149.8690 O   0  0  0  0  0  0  0  0  0  0  0  0
  1  6  1  0  0  0  0
  1 18  1  0  0  0  0
  2 11  1  0  0  0  0
  3 17  1  0  0  0  0
  3 14  1  0  0  0  0
  4 21  1  0  0  0  0
  5  8  1  0  0  0  0
  5  4  2  0  0  0  0
  6 16  1  6  0  0  0
  6  2  1  0  0  0  0
  7  9  2  0  0  0  0
  8 12  1  0  0  0  0
 10  8  2  0  0  0  0
 10  7  1  0  0  0  0
 11 18  1  6  0  0  0
 12  9  1  1  0  0  0
 12 19  1  0  0  0  0
 13 10  1  0  0  0  0
 14 16  1  0  0  0  0
 15  7  1  0  0  0  0
 15  1  1  0  0  0  0
 17 15  2  0  0  0  0
 20 13  2  0  0  0  0
 20 17  1  0  0  0  0
 21 19  2  0  0  0  0
 23 11  1  6  0  0  0
 25 29  1  0  0  0  0
 25 27  1  0  0  0  0
 26 22  1  6  0  0  0
 26 30  1  0  0  0  0
 26 24  1  0  0  0  0
 26 23  1  0  0  0  0
 27 32  1  6  0  0  0
 27 28  1  0  0  0  0
 29 24  1  0  0  0  0
 30 23  1  0  0  0  0
 30 28  1  1  0  0  0
 32 31  1  0  0  0  0
 33 34  1  0  0  0  0
 34 35  2  0  0  0  0
 34  4  1  0  0  0  0
M  END
>  <MODEL>
2

>  <REMARK>
 VINA RESULT:      -7.2      1.669      2.137
  Name = 
  3 active torsions:
  status: ('A' for Active; 'I' for Inactive)
    1  A    between atoms: C_6  and  C_18
    2  A    between atoms: C_7  and  C_15
    3  A    between atoms: C_20  and  C_24
                            x       y       z     vdW  Elec       q    Type
                         _______ _______ _______ _____ _____    ______ ____

>  <TORSDO>
F 3

$$$$
=
 OpenBabel11072413093D

 35 41  0  0  1  0  0  0  0  0999 V2000
  161.5770  206.6510  150.1310 N   0  0  0  0  0  0  0  0  0  0  0  0
  162.3740  207.7830  152.0580 C   0  0  0  0  0  2  0  0  0  0  0  0
  161.4700  208.4960  147.8390 N   0  0  0  0  0  2  0  0  0  0  0  0
  160.9800  200.6110  146.6020 C   0  0  0  0  0  0  0  0  0  0  0  0
  161.0090  202.0430  146.0820 C   0  0  0  0  0  3  0  0  0  0  0  0
  162.6860  207.4690  150.6060 C   0  0  2  0  0  3  0  0  0  0  0  0
  161.3440  204.7980  148.5160 C   0  0  0  0  0  0  0  0  0  0  0  0
  161.1450  203.0130  147.2110 C   0  0  0  0  0  0  0  0  0  0  0  0
  161.3750  203.7960  149.4060 C   0  0  0  0  0  3  0  0  0  0  0  0
  161.2130  204.3300  147.2130 C   0  0  0  0  0  0  0  0  0  0  0  0
  161.2820  206.8050  152.4700 C   0  0  2  0  0  3  0  0  0  0  0  0
  161.2420  202.6000  148.5800 C   0  0  2  0  0  3  0  0  0  0  0  0
  161.1760  205.1920  146.1230 C   0  0  0  0  0  3  0  0  0  0  0  0
  161.5820  209.1990  149.1090 C   0  0  0  0  0  2  0  0  0  0  0  0
  161.4490  206.1740  148.7820 C   0  0  0  0  0  0  0  0  0  0  0  0
  162.8560  208.7710  149.8210 C   0  0  0  0  0  2  0  0  0  0  0  0
  161.4060  207.0710  147.6800 C   0  0  0  0  0  0  0  0  0  0  0  0
  160.6660  206.2580  151.1880 C   0  0  0  0  0  2  0  0  0  0  0  0
  161.2110  201.3210  148.9200 C   0  0  0  0  0  3  0  0  0  0  0  0
  161.2720  206.5680  146.3700 C   0  0  0  0  0  3  0  0  0  0  0  0
  161.0740  200.3320  147.8820 N   0  0  0  0  0  0  0  0  0  0  0  0
  162.0800  206.8410  155.2010 O   0  0  0  0  0  1  0  0  0  0  0  0
  160.3260  207.4150  153.5200 C   0  0  1  0  0  3  0  0  0  0  0  0
  159.7570  207.2530  156.0500 C   0  0  0  0  0  2  0  0  0  0  0  0
  160.6200  209.5260  156.9250 C   0  0  0  0  0  2  0  0  0  0  0  0
  160.8240  207.4010  154.9620 C   0  0  1  0  0  0  0  0  0  0  0  0
  159.8460  210.3280  155.8670 C   0  0  2  0  0  3  0  0  0  0  0  0
  159.6880  209.6230  154.5090 C   0  0  0  0  0  2  0  0  0  0  0  0
  159.9990  208.1640  157.2600 C   0  0  0  0  0  2  0  0  0  0  0  0
  160.8610  208.7020  154.1600 C   0  0  2  0  0  3  0  0  0  0  0  0
  159.9010  212.3710  154.5960 O   0  0  0  0  0  1  0  0  0  0  0  0
  160.4630  211.7100  155.6910 C   0  0  0  0  0  2  0  0  0  0  0  0
  161.6720  198.3550  145.7410 N   0  0  0  0  0  1  0  0  0  0  0  0
  160.8440  199.5090  145.6370 C   0  0  0  0  0  0  0  0  0  0  0  0
  159.9930  199.5780  144.7110 O   0  0  0  0  0  0  0  0  0  0  0  0
  1  6  1  0  0  0  0
  1 18  1  0  0  0  0
  2 11  1  0  0  0  0
  3 14  1  0  0  0  0
  4 21  1  0  0  0  0
  5  4  2  0  0  0  0
  5  8  1  0  0  0  0
  6 16  1  6  0  0  0
  6  2  1  0  0  0  0
  7 15  1  0  0  0  0
  7  9  2  0  0  0  0
  8 10  2  0  0  0  0
  8 12  1  0  0  0  0
 10  7  1  0  0  0  0
 11 18  1  6  0  0  0
 12 19  1  6  0  0  0
 12  9  1  0  0  0  0
 13 20  2  0  0  0  0
 13 10  1  0  0  0  0
 14 16  1  0  0  0  0
 15  1  1  0  0  0  0
 17  3  1  0  0  0  0
 17 15  2  0  0  0  0
 20 17  1  0  0  0  0
 21 19  2  0  0  0  0
 23 11  1  6  0  0  0
 23 30  1  0  0  0  0
 23 26  1  0  0  0  0
 24 29  1  0  0  0  0
 25 29  1  0  0  0  0
 26 22  1  1  0  0  0
 26 24  1  0  0  0  0
 27 32  1  6  0  0  0
 27 25  1  0  0  0  0
 28 27  1  0  0  0  0
 30 28  1  1  0  0  0
 30 26  1  0  0  0  0
 31 32  1  0  0  0  0
 34 33  1  0  0  0  0
 34  4  1  0  0  0  0
 35 34  2  0  0  0  0
M  END
>  <MODEL>
3

>  <REMARK>
 VINA RESULT:      -7.0      1.908      2.914
  Name = 
  3 active torsions:
  status: ('A' for Active; 'I' for Inactive)
    1  A    between atoms: C_6  and  C_18
    2  A    between atoms: C_7  and  C_15
    3  A    between atoms: C_20  and  C_24
                            x       y       z     vdW  Elec       q    Type
                         _______ _______ _______ _____ _____    ______ ____

>  <TORSDO>
F 3

$$$$
=
 OpenBabel11072413093D

 35 41  0  0  1  0  0  0  0  0999 V2000
  160.4850  213.5160  144.5050 N   0  0  0  0  0  0  0  0  0  0  0  0
  160.6910  214.0390  142.1990 C   0  0  0  0  0  2  0  0  0  0  0  0
  163.1490  213.1890  145.7150 N   0  0  0  0  0  2  0  0  0  0  0  0
  156.7420  214.0700  150.4190 C   0  0  0  0  0  0  0  0  0  0  0  0
  158.2430  213.8780  150.2310 C   0  0  0  0  0  2  0  0  0  0  0  0
  161.1280  214.4530  143.5930 C   0  0  2  0  0  3  0  0  0  0  0  0
  159.5770  213.6560  146.7960 C   0  0  0  0  0  0  0  0  0  0  0  0
  158.5890  213.8080  148.7790 C   0  0  0  0  0  0  0  0  0  0  0  0
  158.2910  213.8210  146.4560 C   0  0  0  0  0  3  0  0  0  0  0  0
  159.7520  213.6540  148.1760 C   0  0  0  0  0  0  0  0  0  0  0  0
  159.5000  213.1110  142.3960 C   0  0  2  0  0  3  0  0  0  0  0  0
  157.6060  213.9200  147.7420 C   0  0  0  0  0  0  0  0  0  0  0  0
  161.0070  213.5150  148.7560 C   0  0  0  0  0  3  0  0  0  0  0  0
  163.1930  213.1340  144.2610 C   0  0  0  0  0  2  0  0  0  0  0  0
  160.6740  213.5200  145.9290 C   0  0  0  0  0  0  0  0  0  0  0  0
  162.6550  214.4330  143.6830 C   0  0  0  0  0  2  0  0  0  0  0  0
  161.9650  213.3690  146.5060 C   0  0  0  0  0  0  0  0  0  0  0  0
  159.5320  212.6440  143.8460 C   0  0  0  0  0  2  0  0  0  0  0  0
  156.3230  214.0910  148.0200 C   0  0  0  0  0  3  0  0  0  0  0  0
  162.1120  213.3710  147.9070 C   0  0  0  0  0  3  0  0  0  0  0  0
  155.9180  214.1600  149.4010 N   0  0  0  0  0  0  0  0  0  0  0  0
  158.1300  213.7030  139.9740 O   0  0  0  0  0  1  0  0  0  0  0  0
  159.4240  212.0280  141.2970 C   0  0  1  0  0  3  0  0  0  0  0  0
  157.9310  211.2960  139.3000 C   0  0  0  0  0  2  0  0  0  0  0  0
  159.4400  211.8710  137.2830 C   0  0  0  0  0  2  0  0  0  0  0  0
  158.6760  212.4190  140.0260 C   0  0  1  0  0  0  0  0  0  0  0  0
  160.6440  211.1020  137.8490 C   0  0  2  0  0  3  0  0  0  0  0  0
  160.7520  211.1110  139.3840 C   0  0  0  0  0  2  0  0  0  0  0  0
  158.0790  211.3620  137.7740 C   0  0  0  0  0  2  0  0  0  0  0  0
  160.2040  212.3890  140.0270 C   0  0  2  0  0  3  0  0  0  0  0  0
  163.0500  211.0640  137.8690 O   0  0  0  0  0  1  0  0  0  0  0  0
  161.9370  211.5950  137.2130 C   0  0  0  0  0  2  0  0  0  0  0  0
  157.0870  214.2350  152.9010 N   0  0  0  0  0  1  0  0  0  0  0  0
  156.2050  214.1550  151.7850 C   0  0  0  0  0  0  0  0  0  0  0  0
  154.9610  214.1580  151.9800 O   0  0  0  0  0  0  0  0  0  0  0  0
  1 15  1  0  0  0  0
  3 17  1  0  0  0  0
  4 34  1  0  0  0  0
  5  4  1  0  0  0  0
  6  2  1  6  0  0  0
  6 16  1  0  0  0  0
  6  1  1  0  0  0  0
  7 10  1  0  0  0  0
  8  5  1  0  0  0  0
  9  7  2  0  0  0  0
  9 12  1  0  0  0  0
 10 13  1  0  0  0  0
 10  8  2  0  0  0  0
 11  2  1  6  0  0  0
 11 18  1  0  0  0  0
 12 19  2  0  0  0  0
 12  8  1  0  0  0  0
 14  3  1  0  0  0  0
 15 17  2  0  0  0  0
 15  7  1  0  0  0  0
 16 14  1  0  0  0  0
 17 20  1  0  0  0  0
 18  1  1  0  0  0  0
 19 21  1  0  0  0  0
 20 13  2  0  0  0  0
 21  4  2  0  0  0  0
 23 11  1  1  0  0  0
 24 26  1  0  0  0  0
 25 29  1  0  0  0  0
 25 27  1  0  0  0  0
 26 22  1  6  0  0  0
 26 30  1  0  0  0  0
 26 23  1  0  0  0  0
 27 32  1  6  0  0  0
 27 28  1  0  0  0  0
 29 24  1  0  0  0  0
 30 28  1  6  0  0  0
 30 23  1  0  0  0  0
 32 31  1  0  0  0  0
 34 35  2  0  0  0  0
 34 33  1  0  0  0  0
M  END
>  <MODEL>
4

>  <REMARK>
 VINA RESULT:      -6.2      7.641     12.639
  Name = 
  3 active torsions:
  status: ('A' for Active; 'I' for Inactive)
    1  A    between atoms: C_6  and  C_18
    2  A    between atoms: C_7  and  C_15
    3  A    between atoms: C_20  and  C_24
                            x       y       z     vdW  Elec       q    Type
                         _______ _______ _______ _____ _____    ______ ____

>  <TORSDO>
F 3

$$$$
