=
 OpenBabel11072414153D

 34 38  0  0  1  0  0  0  0  0999 V2000
  162.0080  208.2330  148.3770 C   0  0  0  0  0  0  0  0  0  0  0  0
  158.7210  214.2300  149.4380 N   0  0  0  0  0  0  0  0  0  0  0  0
  162.1880  210.8910  148.6010 C   0  0  2  0  0  3  0  0  0  0  0  0
  158.6550  214.4530  148.1580 C   0  0  0  0  0  3  0  0  0  0  0  0
  160.6280  209.0410  153.3710 C   0  0  1  0  0  0  0  0  0  0  0  0
  159.5440  209.8600  153.0450 O   0  0  0  0  0  1  0  0  0  0  0  0
  162.3510  210.3920  151.6070 C   0  0  0  0  0  2  0  0  0  0  0  0
  160.7680  206.8210  150.5230 C   0  0  0  0  0  0  0  0  0  0  0  0
  160.7690  212.2660  151.8380 C   0  0  0  0  0  3  0  0  0  0  0  0
  161.2590  206.0970  151.5050 C   0  0  0  0  0  0  0  0  0  0  0  0
  161.9730  206.7630  148.3040 C   0  0  2  0  0  3  0  0  0  0  0  0
  160.7520  207.9260  152.3670 C   0  0  0  0  0  0  0  0  0  0  0  0
  159.1820  213.4750  147.1940 C   0  0  0  0  0  3  0  0  0  0  0  0
  161.6780  204.8290  150.9780 C   0  0  0  0  0  0  0  0  0  0  0  0
  159.1770  214.0980  152.2730 C   0  0  0  0  0  1  0  0  0  0  0  0
  159.8170  213.2000  151.3250 N   0  0  0  0  0  0  0  0  0  0  0  0
  160.1740  212.2620  149.0640 C   0  0  0  0  0  0  0  0  0  0  0  0
  161.4730  204.8060  149.6900 N   0  0  0  0  0  0  0  0  0  0  0  0
  159.2170  212.9720  150.0090 C   0  0  2  0  0  3  0  0  0  0  0  0
  161.7500  206.3440  146.9320 N   0  0  0  0  0  1  0  0  0  0  0  0
  163.4890  211.2470  148.9580 O   0  0  0  0  0  1  0  0  0  0  0  0
  160.4020  208.0510  151.0110 C   0  0  0  0  0  3  0  0  0  0  0  0
  161.1780  211.4940  149.5510 C   0  0  0  0  0  0  0  0  0  0  0  0
  160.3710  211.5590  146.6860 F   0  0  0  0  0  0  0  0  0  0  0  0
  162.1630  210.0510  153.4070 S   0  0  0  0  0  0  0  0  0  0  0  0
  161.3790  211.3930  151.0320 C   0  0  0  0  0  0  0  0  0  0  0  0
  159.9070  212.4360  147.6100 C   0  0  0  0  0  0  0  0  0  0  0  0
  161.2720  206.7340  152.6400 O   0  0  0  0  0  0  0  0  0  0  0  0
  162.2340  203.6890  151.7520 C   0  0  0  0  0  1  0  0  0  0  0  0
  162.0700  209.4340  148.4800 C   0  0  0  0  0  0  0  0  0  0  0  0
  160.9300  206.1040  149.2240 C   0  0  1  0  0  3  0  0  0  0  0  0
  160.4190  208.4780  154.7780 C   0  0  0  0  0  2  0  0  0  0  0  0
  161.4550  208.9560  155.7470 C   0  0  0  0  0  3  0  0  0  0  0  0
  161.8300  208.2250  156.6480 O   0  0  0  0  0  0  0  0  0  0  0  0
  1 30  3  0  0  0  0
  2 19  1  0  0  0  0
  3 21  1  1  0  0  0
  3 23  1  0  0  0  0
  4  2  2  0  0  0  0
  5  6  1  6  0  0  0
  5 25  1  0  0  0  0
  5 32  1  0  0  0  0
  7 25  1  0  0  0  0
  8 22  1  0  0  0  0
  8 10  2  0  0  0  0
 10 28  1  0  0  0  0
 11 20  1  6  0  0  0
 11  1  1  0  0  0  0
 11 31  1  0  0  0  0
 12 28  1  0  0  0  0
 12  5  1  0  0  0  0
 13 27  2  0  0  0  0
 13  4  1  0  0  0  0
 14 10  1  0  0  0  0
 14 29  1  0  0  0  0
 16  9  1  0  0  0  0
 16 15  1  0  0  0  0
 17 23  2  0  0  0  0
 18 14  2  0  0  0  0
 19 17  1  6  0  0  0
 19 16  1  0  0  0  0
 22 12  2  0  0  0  0
 23 26  1  0  0  0  0
 24 27  1  0  0  0  0
 26  7  1  0  0  0  0
 26  9  2  0  0  0  0
 27 17  1  0  0  0  0
 30  3  1  0  0  0  0
 31 18  1  1  0  0  0
 31  8  1  0  0  0  0
 32 33  1  0  0  0  0
 33 34  2  0  0  0  0
M  END
>  <MODEL>
1

>  <REMARK>
 VINA RESULT:      -2.7      0.000      0.000
  Name = 
  2 active torsions:
  status: ('A' for Active; 'I' for Inactive)
    1  A    between atoms: C_3  and  C_6
    2  A    between atoms: C_3  and  C_10
                            x       y       z     vdW  Elec       q    Type
                         _______ _______ _______ _____ _____    ______ ____

>  <TORSDO>
F 2

$$$$
=
 OpenBabel11072414153D

 34 38  0  0  1  0  0  0  0  0999 V2000
  160.9540  207.1380  154.7100 C   0  0  0  0  0  0  0  0  0  0  0  0
  160.7610  204.3690  148.3710 N   0  0  0  0  0  0  0  0  0  0  0  0
  162.2520  205.7880  152.8030 C   0  0  2  0  0  3  0  0  0  0  0  0
  160.4880  203.1960  148.8620 C   0  0  0  0  0  3  0  0  0  0  0  0
  161.2650  210.6670  150.8450 C   0  0  1  0  0  0  0  0  0  0  0  0
  160.5670  209.8760  149.9280 O   0  0  0  0  0  1  0  0  0  0  0  0
  162.9120  208.5300  151.6380 C   0  0  0  0  0  2  0  0  0  0  0  0
  159.8000  209.6440  153.9850 C   0  0  0  0  0  0  0  0  0  0  0  0
  162.3380  207.5570  149.4490 C   0  0  0  0  0  3  0  0  0  0  0  0
  160.1720  210.8860  154.2070 C   0  0  0  0  0  0  0  0  0  0  0  0
  160.3060  207.9310  155.7700 C   0  0  2  0  0  3  0  0  0  0  0  0
  160.6790  210.5030  152.2210 C   0  0  0  0  0  0  0  0  0  0  0  0
  160.3210  203.0030  150.3100 C   0  0  0  0  0  3  0  0  0  0  0  0
  159.8970  211.2120  155.5770 C   0  0  0  0  0  0  0  0  0  0  0  0
  161.7890  206.7730  147.1770 C   0  0  0  0  0  1  0  0  0  0  0  0
  161.7590  206.5530  148.6140 N   0  0  0  0  0  0  0  0  0  0  0  0
  161.1480  205.2750  150.6410 C   0  0  0  0  0  0  0  0  0  0  0  0
  159.3990  210.1680  156.1790 N   0  0  0  0  0  0  0  0  0  0  0  0
  160.8220  205.5870  149.1900 C   0  0  2  0  0  3  0  0  0  0  0  0
  159.6100  207.0460  156.6870 N   0  0  0  0  0  1  0  0  0  0  0  0
  163.6290  205.9340  152.9760 O   0  0  0  0  0  1  0  0  0  0  0  0
  160.0960  209.3110  152.6870 C   0  0  0  0  0  3  0  0  0  0  0  0
  161.8360  206.1640  151.3980 C   0  0  0  0  0  0  0  0  0  0  0  0
  160.4650  203.7580  152.4910 F   0  0  0  0  0  0  0  0  0  0  0  0
  163.0390  210.1840  150.8360 S   0  0  0  0  0  0  0  0  0  0  0  0
  162.3270  207.4370  150.7790 C   0  0  0  0  0  0  0  0  0  0  0  0
  160.6360  203.9790  151.1640 C   0  0  0  0  0  0  0  0  0  0  0  0
  160.7160  211.4410  153.1620 O   0  0  0  0  0  0  0  0  0  0  0  0
  160.1070  212.5290  156.2330 C   0  0  0  0  0  1  0  0  0  0  0  0
  161.5240  206.5290  153.8390 C   0  0  0  0  0  0  0  0  0  0  0  0
  159.3380  209.0110  155.2550 C   0  0  1  0  0  3  0  0  0  0  0  0
  161.1890  212.1280  150.3970 C   0  0  0  0  0  2  0  0  0  0  0  0
  161.4910  212.2990  148.9410 C   0  0  0  0  0  3  0  0  0  0  0  0
  162.1050  213.2800  148.5570 O   0  0  0  0  0  0  0  0  0  0  0  0
  1 11  1  0  0  0  0
  2  4  2  0  0  0  0
  3 21  1  6  0  0  0
  3 30  1  0  0  0  0
  4 13  1  0  0  0  0
  5  6  1  6  0  0  0
  5 12  1  0  0  0  0
  8 10  2  0  0  0  0
  9 26  2  0  0  0  0
 10 14  1  0  0  0  0
 11 20  1  1  0  0  0
 12 22  2  0  0  0  0
 12 28  1  0  0  0  0
 13 27  2  0  0  0  0
 14 18  2  0  0  0  0
 14 29  1  0  0  0  0
 15 16  1  0  0  0  0
 16 19  1  0  0  0  0
 16  9  1  0  0  0  0
 17 27  1  0  0  0  0
 17 23  2  0  0  0  0
 19  2  1  6  0  0  0
 19 17  1  0  0  0  0
 22  8  1  0  0  0  0
 23  3  1  0  0  0  0
 25  5  1  0  0  0  0
 25  7  1  0  0  0  0
 26 23  1  0  0  0  0
 26  7  1  0  0  0  0
 27 24  1  0  0  0  0
 28 10  1  0  0  0  0
 30  1  3  0  0  0  0
 31  8  1  6  0  0  0
 31 11  1  0  0  0  0
 31 18  1  0  0  0  0
 32  5  1  0  0  0  0
 33 32  1  0  0  0  0
 34 33  2  0  0  0  0
M  END
>  <MODEL>
2

>  <REMARK>
 VINA RESULT:      -1.8      3.067      7.239
  Name = 
  2 active torsions:
  status: ('A' for Active; 'I' for Inactive)
    1  A    between atoms: C_3  and  C_6
    2  A    between atoms: C_3  and  C_10
                            x       y       z     vdW  Elec       q    Type
                         _______ _______ _______ _____ _____    ______ ____

>  <TORSDO>
F 2

$$$$
=
 OpenBabel11072414153D

 34 38  0  0  1  0  0  0  0  0999 V2000
  161.4920  211.1840  151.3470 C   0  0  0  0  0  0  0  0  0  0  0  0
  156.0850  213.5780  147.7510 N   0  0  0  0  0  0  0  0  0  0  0  0
  160.3550  213.2600  150.1050 C   0  0  2  0  0  3  0  0  0  0  0  0
  156.7140  213.3910  146.6280 C   0  0  0  0  0  3  0  0  0  0  0  0
  157.2180  212.0400  154.2610 C   0  0  1  0  0  0  0  0  0  0  0  0
  156.3300  211.8390  153.2010 O   0  0  0  0  0  1  0  0  0  0  0  0
  158.8740  213.7210  152.7320 C   0  0  0  0  0  2  0  0  0  0  0  0
  159.9610  209.8670  153.3610 C   0  0  0  0  0  0  0  0  0  0  0  0
  156.8670  214.0810  151.3490 C   0  0  0  0  0  3  0  0  0  0  0  0
  160.0110  209.9020  154.6750 C   0  0  0  0  0  0  0  0  0  0  0  0
  162.1340  210.0900  152.0950 C   0  0  2  0  0  3  0  0  0  0  0  0
  158.3760  211.0850  154.1530 C   0  0  0  0  0  0  0  0  0  0  0  0
  158.0640  212.8080  146.6060 C   0  0  0  0  0  3  0  0  0  0  0  0
  161.1490  209.1430  155.1120 C   0  0  0  0  0  0  0  0  0  0  0  0
  154.7510  214.4530  150.1410 C   0  0  0  0  0  1  0  0  0  0  0  0
  156.1340  214.0050  150.1260 N   0  0  0  0  0  0  0  0  0  0  0  0
  158.1290  213.0320  149.0350 C   0  0  0  0  0  0  0  0  0  0  0  0
  161.7920  208.6880  154.0740 N   0  0  0  0  0  0  0  0  0  0  0  0
  156.6120  213.1360  149.0490 C   0  0  2  0  0  3  0  0  0  0  0  0
  162.9830  209.3190  151.2050 N   0  0  0  0  0  1  0  0  0  0  0  0
  160.8740  214.4530  150.6100 O   0  0  0  0  0  1  0  0  0  0  0  0
  158.8990  210.6230  152.9320 C   0  0  0  0  0  3  0  0  0  0  0  0
  158.8440  213.2550  150.1640 C   0  0  0  0  0  0  0  0  0  0  0  0
  159.9870  212.0940  147.6730 F   0  0  0  0  0  0  0  0  0  0  0  0
  157.8110  213.7790  154.2360 S   0  0  0  0  0  0  0  0  0  0  0  0
  158.1350  213.6650  151.4180 C   0  0  0  0  0  0  0  0  0  0  0  0
  158.7460  212.6370  147.7390 C   0  0  0  0  0  0  0  0  0  0  0  0
  159.0700  210.6360  155.1940 O   0  0  0  0  0  0  0  0  0  0  0  0
  161.5440  208.8740  156.5200 C   0  0  0  0  0  1  0  0  0  0  0  0
  160.9640  212.1100  150.7810 C   0  0  0  0  0  0  0  0  0  0  0  0
  161.1530  209.1510  152.8190 C   0  0  1  0  0  3  0  0  0  0  0  0
  156.4700  211.8320  155.5800 C   0  0  0  0  0  2  0  0  0  0  0  0
  155.4500  210.7400  155.4960 C   0  0  0  0  0  3  0  0  0  0  0  0
  154.8370  210.4000  156.4930 O   0  0  0  0  0  0  0  0  0  0  0  0
  1 11  1  0  0  0  0
  3 23  1  0  0  0  0
  3 21  1  1  0  0  0
  3 30  1  0  0  0  0
  4  2  2  0  0  0  0
  5  6  1  6  0  0  0
  5 32  1  0  0  0  0
  7 25  1  0  0  0  0
  8 10  2  0  0  0  0
  9 26  2  0  0  0  0
 10 14  1  0  0  0  0
 10 28  1  0  0  0  0
 11 20  1  6  0  0  0
 11 31  1  0  0  0  0
 12  5  1  0  0  0  0
 12 28  1  0  0  0  0
 13  4  1  0  0  0  0
 13 27  2  0  0  0  0
 14 29  1  0  0  0  0
 16 15  1  0  0  0  0
 16  9  1  0  0  0  0
 17 19  1  0  0  0  0
 17 23  2  0  0  0  0
 18 14  2  0  0  0  0
 19  2  1  6  0  0  0
 19 16  1  0  0  0  0
 22  8  1  0  0  0  0
 22 12  2  0  0  0  0
 23 26  1  0  0  0  0
 24 27  1  0  0  0  0
 25  5  1  0  0  0  0
 26  7  1  0  0  0  0
 27 17  1  0  0  0  0
 30  1  3  0  0  0  0
 31  8  1  1  0  0  0
 31 18  1  0  0  0  0
 33 32  1  0  0  0  0
 33 34  2  0  0  0  0
M  END
>  <MODEL>
3

>  <REMARK>
 VINA RESULT:      -1.7      3.258      4.517
  Name = 
  2 active torsions:
  status: ('A' for Active; 'I' for Inactive)
    1  A    between atoms: C_3  and  C_6
    2  A    between atoms: C_3  and  C_10
                            x       y       z     vdW  Elec       q    Type
                         _______ _______ _______ _____ _____    ______ ____

>  <TORSDO>
F 2

$$$$
=
 OpenBabel11072414153D

 34 38  0  0  1  0  0  0  0  0999 V2000
  161.8960  209.5720  149.7420 C   0  0  0  0  0  0  0  0  0  0  0  0
  158.7530  209.7550  155.9050 N   0  0  0  0  0  0  0  0  0  0  0  0
  162.0830  210.1300  152.3500 C   0  0  2  0  0  3  0  0  0  0  0  0
  158.4910  211.0210  155.7650 C   0  0  0  0  0  3  0  0  0  0  0  0
  161.2860  204.8560  151.9520 C   0  0  1  0  0  0  0  0  0  0  0  0
  160.1570  205.2330  152.6860 O   0  0  0  0  0  1  0  0  0  0  0  0
  162.7070  207.1640  152.7010 C   0  0  0  0  0  2  0  0  0  0  0  0
  161.0110  206.9570  149.0250 C   0  0  0  0  0  0  0  0  0  0  0  0
  161.1610  207.2340  154.6180 C   0  0  0  0  0  3  0  0  0  0  0  0
  161.6540  205.8950  148.5860 C   0  0  0  0  0  0  0  0  0  0  0  0
  161.8640  209.2230  148.3120 C   0  0  2  0  0  3  0  0  0  0  0  0
  161.2660  205.5150  150.6000 C   0  0  0  0  0  0  0  0  0  0  0  0
  158.8730  211.7400  154.5400 C   0  0  0  0  0  3  0  0  0  0  0  0
  161.9990  206.1030  147.2090 C   0  0  0  0  0  0  0  0  0  0  0  0
  159.6370  207.0970  156.5510 C   0  0  0  0  0  1  0  0  0  0  0  0
  160.1340  207.8400  155.4040 N   0  0  0  0  0  0  0  0  0  0  0  0
  160.1500  209.7750  153.8630 C   0  0  0  0  0  0  0  0  0  0  0  0
  161.6000  207.2870  146.8360 N   0  0  0  0  0  0  0  0  0  0  0  0
  159.3420  208.9340  154.8390 C   0  0  2  0  0  3  0  0  0  0  0  0
  161.4390  210.3750  147.5360 N   0  0  0  0  0  1  0  0  0  0  0  0
  163.4200  210.0850  152.7470 O   0  0  0  0  0  1  0  0  0  0  0  0
  160.7120  206.7830  150.3540 C   0  0  0  0  0  3  0  0  0  0  0  0
  161.2240  209.2470  153.2270 C   0  0  0  0  0  0  0  0  0  0  0  0
  159.9890  211.8620  152.5200 F   0  0  0  0  0  0  0  0  0  0  0  0
  162.7990  205.3330  152.8810 S   0  0  0  0  0  0  0  0  0  0  0  0
  161.6500  207.8440  153.5350 C   0  0  0  0  0  0  0  0  0  0  0  0
  159.6630  211.1620  153.6350 C   0  0  0  0  0  0  0  0  0  0  0  0
  161.8330  204.9990  149.5130 O   0  0  0  0  0  0  0  0  0  0  0  0
  162.6770  205.1320  146.3110 C   0  0  0  0  0  1  0  0  0  0  0  0
  161.9620  209.8190  150.9220 C   0  0  0  0  0  0  0  0  0  0  0  0
  160.9800  208.0110  147.9700 C   0  0  1  0  0  3  0  0  0  0  0  0
  161.2990  203.3330  151.8110 C   0  0  0  0  0  2  0  0  0  0  0  0
  160.4710  202.8560  150.6590 C   0  0  0  0  0  3  0  0  0  0  0  0
  160.6460  201.7390  150.2030 O   0  0  0  0  0  0  0  0  0  0  0  0
  1 30  3  0  0  0  0
  3 21  1  1  0  0  0
  3 23  1  0  0  0  0
  4  2  2  0  0  0  0
  5  6  1  1  0  0  0
  5 25  1  0  0  0  0
  7 25  1  0  0  0  0
  7 26  1  0  0  0  0
  8 22  1  0  0  0  0
  9 16  1  0  0  0  0
 10  8  2  0  0  0  0
 10 28  1  0  0  0  0
 11 20  1  6  0  0  0
 11  1  1  0  0  0  0
 12  5  1  0  0  0  0
 13  4  1  0  0  0  0
 14 10  1  0  0  0  0
 16 15  1  0  0  0  0
 18 14  2  0  0  0  0
 19 17  1  6  0  0  0
 19 16  1  0  0  0  0
 19  2  1  0  0  0  0
 22 12  2  0  0  0  0
 23 26  1  0  0  0  0
 23 17  2  0  0  0  0
 24 27  1  0  0  0  0
 26  9  2  0  0  0  0
 27 17  1  0  0  0  0
 27 13  2  0  0  0  0
 28 12  1  0  0  0  0
 29 14  1  0  0  0  0
 30  3  1  0  0  0  0
 31 18  1  6  0  0  0
 31 11  1  0  0  0  0
 31  8  1  0  0  0  0
 32  5  1  0  0  0  0
 33 32  1  0  0  0  0
 34 33  2  0  0  0  0
M  END
>  <MODEL>
4

>  <REMARK>
 VINA RESULT:      -1.5      3.104      5.260
  Name = 
  2 active torsions:
  status: ('A' for Active; 'I' for Inactive)
    1  A    between atoms: C_3  and  C_6
    2  A    between atoms: C_3  and  C_10
                            x       y       z     vdW  Elec       q    Type
                         _______ _______ _______ _____ _____    ______ ____

>  <TORSDO>
F 2

$$$$
=
 OpenBabel11072414153D

 34 38  0  0  1  0  0  0  0  0999 V2000
  161.9580  208.3410  149.5680 C   0  0  0  0  0  0  0  0  0  0  0  0
  158.7810  213.9030  152.1860 N   0  0  0  0  0  0  0  0  0  0  0  0
  162.1860  210.8440  150.4770 C   0  0  2  0  0  3  0  0  0  0  0  0
  158.7140  214.4530  151.0100 C   0  0  0  0  0  3  0  0  0  0  0  0
  160.6120  207.8360  154.6110 C   0  0  1  0  0  0  0  0  0  0  0  0
  159.5410  208.7300  154.5200 O   0  0  0  0  0  1  0  0  0  0  0  0
  162.3510  209.5740  153.2470 C   0  0  0  0  0  2  0  0  0  0  0  0
  160.7020  206.4370  151.2810 C   0  0  0  0  0  0  0  0  0  0  0  0
  160.8030  211.3480  153.9730 C   0  0  0  0  0  3  0  0  0  0  0  0
  161.1850  205.4730  152.0360 C   0  0  0  0  0  0  0  0  0  0  0  0
  161.8980  206.9400  149.1150 C   0  0  2  0  0  3  0  0  0  0  0  0
  160.7120  207.0210  153.3500 C   0  0  0  0  0  0  0  0  0  0  0  0
  159.2200  213.7530  149.8190 C   0  0  0  0  0  3  0  0  0  0  0  0
  161.5790  204.3810  151.1920 C   0  0  0  0  0  0  0  0  0  0  0  0
  159.2450  213.0270  154.8840 C   0  0  0  0  0  1  0  0  0  0  0  0
  159.8660  212.3980  153.7300 N   0  0  0  0  0  0  0  0  0  0  0  0
  160.1970  212.0790  151.2990 C   0  0  0  0  0  0  0  0  0  0  0  0
  161.3690  204.6980  149.9450 N   0  0  0  0  0  0  0  0  0  0  0  0
  159.2570  212.5310  152.4050 C   0  0  2  0  0  3  0  0  0  0  0  0
  161.6630  206.8990  147.6820 N   0  0  0  0  0  1  0  0  0  0  0  0
  163.4950  211.0730  150.9040 O   0  0  0  0  0  1  0  0  0  0  0  0
  160.3590  207.5010  152.0760 C   0  0  0  0  0  3  0  0  0  0  0  0
  161.1910  211.1940  151.5610 C   0  0  0  0  0  0  0  0  0  0  0  0
  160.3740  212.0180  148.8190 F   0  0  0  0  0  0  0  0  0  0  0  0
  162.1640  208.7770  154.8980 S   0  0  0  0  0  0  0  0  0  0  0  0
  161.3950  210.7060  152.9620 C   0  0  0  0  0  0  0  0  0  0  0  0
  159.9280  212.6300  149.9440 C   0  0  0  0  0  0  0  0  0  0  0  0
  161.2120  205.7900  153.2980 O   0  0  0  0  0  0  0  0  0  0  0  0
  162.1180  203.0690  151.6370 C   0  0  0  0  0  1  0  0  0  0  0  0
  162.0420  209.4710  149.9810 C   0  0  0  0  0  0  0  0  0  0  0  0
  160.8470  206.0810  149.8380 C   0  0  1  0  0  3  0  0  0  0  0  0
  160.3980  206.9290  155.8240 C   0  0  0  0  0  2  0  0  0  0  0  0
  160.5230  207.6650  157.1210 C   0  0  0  0  0  3  0  0  0  0  0  0
  160.0040  208.7610  157.2520 O   0  0  0  0  0  0  0  0  0  0  0  0
  1 30  3  0  0  0  0
  2 19  1  0  0  0  0
  3 21  1  1  0  0  0
  3 23  1  0  0  0  0
  4  2  2  0  0  0  0
  5  6  1  6  0  0  0
  5 25  1  0  0  0  0
  5 32  1  0  0  0  0
  7 25  1  0  0  0  0
  8 10  2  0  0  0  0
  8 22  1  0  0  0  0
 10 28  1  0  0  0  0
 11 20  1  6  0  0  0
 11  1  1  0  0  0  0
 11 31  1  0  0  0  0
 12  5  1  0  0  0  0
 13 27  2  0  0  0  0
 13  4  1  0  0  0  0
 14 29  1  0  0  0  0
 14 10  1  0  0  0  0
 16  9  1  0  0  0  0
 16 15  1  0  0  0  0
 17 23  2  0  0  0  0
 18 14  2  0  0  0  0
 19 17  1  6  0  0  0
 19 16  1  0  0  0  0
 22 12  2  0  0  0  0
 23 26  1  0  0  0  0
 24 27  1  0  0  0  0
 26  7  1  0  0  0  0
 26  9  2  0  0  0  0
 27 17  1  0  0  0  0
 28 12  1  0  0  0  0
 30  3  1  0  0  0  0
 31 18  1  1  0  0  0
 31  8  1  0  0  0  0
 32 33  1  0  0  0  0
 33 34  2  0  0  0  0
M  END
>  <MODEL>
5

>  <REMARK>
 VINA RESULT:      -1.4      1.490      1.858
  Name = 
  2 active torsions:
  status: ('A' for Active; 'I' for Inactive)
    1  A    between atoms: C_3  and  C_6
    2  A    between atoms: C_3  and  C_10
                            x       y       z     vdW  Elec       q    Type
                         _______ _______ _______ _____ _____    ______ ____

>  <TORSDO>
F 2

$$$$
