=
 OpenBabel11072411253D

 42 45  0  0  1  0  0  0  0  0999 V2000
  161.0240  206.0660  151.4390 C   0  0  1  0  0  3  0  0  0  0  0  0
  160.3210  201.4800  150.3800 C   0  0  0  0  0  2  0  0  0  0  0  0
  161.0100  206.4920  149.9830 C   0  0  0  0  0  0  0  0  0  0  0  0
  160.0440  201.8020  148.9000 C   0  0  0  0  0  2  0  0  0  0  0  0
  160.9910  204.1060  149.3550 C   0  0  0  0  0  0  0  0  0  0  0  0
  162.1040  202.5550  147.9320 O   0  0  0  0  0  1  0  0  0  0  0  0
  160.9210  205.5690  148.9910 C   0  0  0  0  0  0  0  0  0  0  0  0
  161.4770  204.7250  151.5940 O   0  0  0  0  0  0  0  0  0  0  0  0
  161.4550  202.3110  150.9820 C   0  0  0  0  0  2  0  0  0  0  0  0
  160.8430  202.9910  148.3430 C   0  0  1  0  0  3  0  0  0  0  0  0
  161.2850  203.7550  150.6170 C   0  0  0  0  0  0  0  0  0  0  0  0
  161.1330  205.1160  146.4760 C   0  0  0  0  0  2  0  0  0  0  0  0
  162.0900  206.2450  146.8380 C   0  0  0  0  0  2  0  0  0  0  0  0
  160.7670  206.1040  147.5650 C   0  0  0  0  0  3  0  0  0  0  0  0
  160.8990  207.9650  149.6740 C   0  0  0  0  0  2  0  0  0  0  0  0
  162.2680  208.5970  149.4570 C   0  0  0  0  0  2  0  0  0  0  0  0
  162.2150  209.6830  148.3920 C   0  0  0  0  0  2  0  0  0  0  0  0
  161.9630  211.0420  149.0280 C   0  0  0  0  0  2  0  0  0  0  0  0
  162.4410  212.1610  148.1400 C   0  0  0  0  0  0  0  0  0  0  0  0
  163.6410  212.3380  148.0010 O   0  0  0  0  0  0  0  0  0  0  0  0
  160.1070  212.4600  147.2160 C   0  0  2  0  0  3  0  0  0  0  0  0
  161.9780  213.2750  145.9850 C   0  0  0  0  0  2  0  0  0  0  0  0
  160.8900  213.1740  145.1040 O   0  0  0  0  0  0  0  0  0  0  0  0
  161.4830  213.0600  147.4020 C   0  0  2  0  0  3  0  0  0  0  0  0
  159.9970  212.2830  145.7190 C   0  0  0  0  0  2  0  0  0  0  0  0
  159.1090  213.7080  149.2200 C   0  0  0  0  0  1  0  0  0  0  0  0
  157.6250  212.7410  147.4730 C   0  0  0  0  0  1  0  0  0  0  0  0
  158.9810  213.3640  147.7400 C   0  0  0  0  0  3  0  0  0  0  0  0
  161.8750  206.9930  152.3130 C   0  0  0  0  0  2  0  0  0  0  0  0
  161.0610  207.7450  153.3690 C   0  0  2  0  0  3  0  0  0  0  0  0
  161.2790  209.2610  153.3030 C   0  0  1  0  0  3  0  0  0  0  0  0
  162.4010  209.5440  152.5190 O   0  0  0  0  0  1  0  0  0  0  0  0
  160.0740  209.9760  152.6990 C   0  0  0  0  0  2  0  0  0  0  0  0
  159.5760  212.3100  152.7120 O   0  0  0  0  0  0  0  0  0  0  0  0
  159.7970  211.2730  153.3940 C   0  0  0  0  0  0  0  0  0  0  0  0
  159.7390  211.3420  154.8610 C   0  0  0  0  0  0  0  0  0  0  0  0
  160.6970  211.8460  155.5050 O   0  0  0  0  0  0  0  0  0  0  0  0
  158.5540  210.8260  155.6100 C   0  0  0  0  0  1  0  0  0  0  0  0
  161.3560  207.2370  154.6660 O   0  0  0  0  0  0  0  0  0  0  0  0
  160.7070  207.7200  155.8000 C   0  0  0  0  0  0  0  0  0  0  0  0
  159.5070  207.4050  156.0120 O   0  0  0  0  0  0  0  0  0  0  0  0
  161.3780  208.5320  156.7110 O   0  0  0  0  0  1  0  0  0  0  0  0
  1  8  1  0  0  0  0
  1 29  1  1  0  0  0
  2  9  1  0  0  0  0
  3  1  1  0  0  0  0
  4  2  1  0  0  0  0
  5 11  2  0  0  0  0
  7  5  1  0  0  0  0
  7  3  2  0  0  0  0
 10  6  1  1  0  0  0
 10  4  1  0  0  0  0
 10  5  1  0  0  0  0
 11  9  1  0  0  0  0
 11  8  1  0  0  0  0
 12 13  1  0  0  0  0
 12 14  1  0  0  0  0
 13 14  1  0  0  0  0
 14  7  1  0  0  0  0
 15  3  1  0  0  0  0
 16 15  1  0  0  0  0
 17 18  1  0  0  0  0
 17 16  1  0  0  0  0
 19 18  1  0  0  0  0
 20 19  2  0  0  0  0
 21 24  1  0  0  0  0
 21 28  1  6  0  0  0
 22 24  1  0  0  0  0
 23 25  1  0  0  0  0
 23 22  1  0  0  0  0
 24 19  1  1  0  0  0
 25 21  1  0  0  0  0
 27 28  1  0  0  0  0
 28 26  1  0  0  0  0
 30 29  1  6  0  0  0
 30 39  1  0  0  0  0
 31 32  1  6  0  0  0
 31 30  1  0  0  0  0
 33 31  1  0  0  0  0
 33 35  1  0  0  0  0
 34 35  2  0  0  0  0
 35 36  1  0  0  0  0
 36 37  2  0  0  0  0
 36 38  1  0  0  0  0
 39 40  1  0  0  0  0
 40 41  2  0  0  0  0
 40 42  1  0  0  0  0
M  END
>  <MODEL>
1

>  <REMARK>
 VINA RESULT:      -7.4      0.000      0.000
  Name = 
  16 active torsions:
  status: ('A' for Active; 'I' for Inactive)
    1  A    between atoms: C_1  and  O_14
    2  A    between atoms: C_2  and  C_39
    3  A    between atoms: C_2  and  C_40
    4  A    between atoms: C_3  and  C_25
    5  A    between atoms: C_7  and  C_28
    6  A    between atoms: C_8  and  C_17
    7  A    between atoms: C_9  and  C_32
    8  A    between atoms: C_9  and  C_38
    9  A    between atoms: O_14  and  C_38
   10  A    between atoms: C_19  and  C_31
   11  A    between atoms: C_23  and  C_28
   12  A    between atoms: C_23  and  C_34
   13  A    between atoms: C_24  and  C_41
   14  A    between atoms: C_25  and  C_38
   15  A    between atoms: C_32  and  C_41
   16  A    between atoms: C_34  and  C_40
                            x       y       z     vdW  Elec       q    Type
                         _______ _______ _______ _____ _____    ______ ____

>  <TORSDO>
F 16

$$$$
=
 OpenBabel11072411253D

 42 45  0  0  1  0  0  0  0  0999 V2000
  161.1920  207.0230  152.4690 C   0  0  1  0  0  3  0  0  0  0  0  0
  161.7410  208.1260  157.0650 C   0  0  0  0  0  2  0  0  0  0  0  0
  160.8600  208.4520  152.0780 C   0  0  0  0  0  0  0  0  0  0  0  0
  161.6620  209.6360  156.7740 C   0  0  0  0  0  2  0  0  0  0  0  0
  160.7910  209.0210  154.4790 C   0  0  0  0  0  0  0  0  0  0  0  0
  159.4170  210.1170  156.0840 O   0  0  0  0  0  1  0  0  0  0  0  0
  160.7400  209.4190  153.0230 C   0  0  0  0  0  0  0  0  0  0  0  0
  160.8180  206.7420  153.8130 O   0  0  0  0  0  0  0  0  0  0  0  0
  160.7570  207.2950  156.2410 C   0  0  0  0  0  2  0  0  0  0  0  0
  160.7280  210.0180  155.6150 C   0  0  1  0  0  3  0  0  0  0  0  0
  160.8040  207.7180  154.8040 C   0  0  0  0  0  0  0  0  0  0  0  0
  160.1670  211.8520  153.5930 C   0  0  0  0  0  2  0  0  0  0  0  0
  159.1140  211.3310  152.6240 C   0  0  0  0  0  2  0  0  0  0  0  0
  160.5490  210.8520  152.5210 C   0  0  0  0  0  3  0  0  0  0  0  0
  160.8620  208.8070  150.6110 C   0  0  0  0  0  2  0  0  0  0  0  0
  162.2790  208.9610  150.0740 C   0  0  0  0  0  2  0  0  0  0  0  0
  162.3060  209.8240  148.8210 C   0  0  0  0  0  2  0  0  0  0  0  0
  161.9740  211.2690  149.1600 C   0  0  0  0  0  2  0  0  0  0  0  0
  162.4260  212.2070  148.0710 C   0  0  0  0  0  0  0  0  0  0  0  0
  163.6130  212.2600  147.7880 O   0  0  0  0  0  0  0  0  0  0  0  0
  160.0920  212.4420  147.1290 C   0  0  2  0  0  3  0  0  0  0  0  0
  161.9560  213.2600  145.8880 C   0  0  0  0  0  2  0  0  0  0  0  0
  160.8740  213.1180  145.0040 O   0  0  0  0  0  0  0  0  0  0  0  0
  161.4560  213.0710  147.3070 C   0  0  2  0  0  3  0  0  0  0  0  0
  159.9950  212.2270  145.6350 C   0  0  0  0  0  2  0  0  0  0  0  0
  159.0190  213.6570  149.1140 C   0  0  0  0  0  1  0  0  0  0  0  0
  157.6030  212.7210  147.2950 C   0  0  0  0  0  1  0  0  0  0  0  0
  158.9480  213.3370  147.6240 C   0  0  0  0  0  3  0  0  0  0  0  0
  160.5430  205.9950  151.5360 C   0  0  0  0  0  2  0  0  0  0  0  0
  161.5410  205.3220  150.5900 C   0  0  2  0  0  3  0  0  0  0  0  0
  160.9390  205.0510  149.2060 C   0  0  1  0  0  3  0  0  0  0  0  0
  160.1920  206.1560  148.7900 O   0  0  0  0  0  1  0  0  0  0  0  0
  162.0220  204.7810  148.1670 C   0  0  0  0  0  2  0  0  0  0  0  0
  161.2030  202.6610  147.4380 O   0  0  0  0  0  0  0  0  0  0  0  0
  161.5510  203.8280  147.1130 C   0  0  0  0  0  0  0  0  0  0  0  0
  161.4510  204.2510  145.7080 C   0  0  0  0  0  0  0  0  0  0  0  0
  160.7850  203.5620  144.8910 O   0  0  0  0  0  0  0  0  0  0  0  0
  162.1250  205.4940  145.2290 C   0  0  0  0  0  1  0  0  0  0  0  0
  162.0410  204.1270  151.1780 O   0  0  0  0  0  0  0  0  0  0  0  0
  161.1950  203.0680  151.5010 C   0  0  0  0  0  0  0  0  0  0  0  0
  161.1050  202.0830  150.7220 O   0  0  0  0  0  0  0  0  0  0  0  0
  160.4650  203.0770  152.6870 O   0  0  0  0  0  1  0  0  0  0  0  0
  1 29  1  6  0  0  0
  1  8  1  0  0  0  0
  3  1  1  0  0  0  0
  3  7  2  0  0  0  0
  4  2  1  0  0  0  0
  5 11  2  0  0  0  0
  5 10  1  0  0  0  0
  7  5  1  0  0  0  0
  8 11  1  0  0  0  0
  9  2  1  0  0  0  0
 10  6  1  1  0  0  0
 10  4  1  0  0  0  0
 11  9  1  0  0  0  0
 13 12  1  0  0  0  0
 14 13  1  0  0  0  0
 14  7  1  0  0  0  0
 14 12  1  0  0  0  0
 15  3  1  0  0  0  0
 16 15  1  0  0  0  0
 17 18  1  0  0  0  0
 17 16  1  0  0  0  0
 19 18  1  0  0  0  0
 20 19  2  0  0  0  0
 21 24  1  0  0  0  0
 21 28  1  6  0  0  0
 22 24  1  0  0  0  0
 23 25  1  0  0  0  0
 23 22  1  0  0  0  0
 24 19  1  1  0  0  0
 25 21  1  0  0  0  0
 27 28  1  0  0  0  0
 28 26  1  0  0  0  0
 30 39  1  0  0  0  0
 30 29  1  1  0  0  0
 31 32  1  6  0  0  0
 31 30  1  0  0  0  0
 33 31  1  0  0  0  0
 35 34  2  0  0  0  0
 35 33  1  0  0  0  0
 36 35  1  0  0  0  0
 37 36  2  0  0  0  0
 38 36  1  0  0  0  0
 39 40  1  0  0  0  0
 40 42  1  0  0  0  0
 41 40  2  0  0  0  0
M  END
>  <MODEL>
2

>  <REMARK>
 VINA RESULT:      -7.0      1.503      6.624
  Name = 
  16 active torsions:
  status: ('A' for Active; 'I' for Inactive)
    1  A    between atoms: C_1  and  O_14
    2  A    between atoms: C_2  and  C_39
    3  A    between atoms: C_2  and  C_40
    4  A    between atoms: C_3  and  C_25
    5  A    between atoms: C_7  and  C_28
    6  A    between atoms: C_8  and  C_17
    7  A    between atoms: C_9  and  C_32
    8  A    between atoms: C_9  and  C_38
    9  A    between atoms: O_14  and  C_38
   10  A    between atoms: C_19  and  C_31
   11  A    between atoms: C_23  and  C_28
   12  A    between atoms: C_23  and  C_34
   13  A    between atoms: C_24  and  C_41
   14  A    between atoms: C_25  and  C_38
   15  A    between atoms: C_32  and  C_41
   16  A    between atoms: C_34  and  C_40
                            x       y       z     vdW  Elec       q    Type
                         _______ _______ _______ _____ _____    ______ ____

>  <TORSDO>
F 16

$$$$
=
 OpenBabel11072411253D

 42 45  0  0  1  0  0  0  0  0999 V2000
  161.2980  209.7530  151.5590 C   0  0  1  0  0  3  0  0  0  0  0  0
  158.3690  212.2390  154.3670 C   0  0  0  0  0  2  0  0  0  0  0  0
  161.3300  208.5630  152.5010 C   0  0  0  0  0  0  0  0  0  0  0  0
  158.1180  211.0250  155.2810 C   0  0  0  0  0  2  0  0  0  0  0  0
  160.0980  209.9240  154.1520 C   0  0  0  0  0  0  0  0  0  0  0  0
  160.1660  210.5670  156.4430 O   0  0  0  0  0  1  0  0  0  0  0  0
  160.6990  208.6140  153.7030 C   0  0  0  0  0  0  0  0  0  0  0  0
  161.0670  210.9730  152.2550 O   0  0  0  0  0  0  0  0  0  0  0  0
  159.8210  212.3630  153.9040 C   0  0  0  0  0  2  0  0  0  0  0  0
  159.3220  210.0830  155.4410 C   0  0  1  0  0  3  0  0  0  0  0  0
  160.3260  211.0330  153.4290 C   0  0  0  0  0  0  0  0  0  0  0  0
  159.8580  207.3970  155.7970 C   0  0  0  0  0  2  0  0  0  0  0  0
  161.3800  207.4330  155.8480 C   0  0  0  0  0  2  0  0  0  0  0  0
  160.6640  207.3180  154.5170 C   0  0  0  0  0  3  0  0  0  0  0  0
  161.9050  207.2650  151.9900 C   0  0  0  0  0  2  0  0  0  0  0  0
  160.8380  206.3990  151.3330 C   0  0  0  0  0  2  0  0  0  0  0  0
  161.4300  205.1080  150.7860 C   0  0  0  0  0  2  0  0  0  0  0  0
  160.7450  204.7150  149.4870 C   0  0  0  0  0  2  0  0  0  0  0  0
  160.8690  203.2360  149.2270 C   0  0  0  0  0  0  0  0  0  0  0  0
  160.3800  202.4500  150.0230 O   0  0  0  0  0  0  0  0  0  0  0  0
  160.9050  203.0970  146.7030 C   0  0  2  0  0  3  0  0  0  0  0  0
  161.4790  201.1810  148.0000 C   0  0  0  0  0  2  0  0  0  0  0  0
  161.1630  200.7480  146.7030 O   0  0  0  0  0  0  0  0  0  0  0  0
  161.5640  202.6950  148.0040 C   0  0  2  0  0  3  0  0  0  0  0  0
  160.4050  201.7860  146.1400 C   0  0  0  0  0  2  0  0  0  0  0  0
  162.9430  204.6220  146.4040 C   0  0  0  0  0  1  0  0  0  0  0  0
  161.1150  204.6170  144.7160 C   0  0  0  0  0  1  0  0  0  0  0  0
  161.8730  203.7750  145.7230 C   0  0  0  0  0  3  0  0  0  0  0  0
  162.5810  209.8770  150.7300 C   0  0  0  0  0  2  0  0  0  0  0  0
  162.3180  210.0490  149.2320 C   0  0  2  0  0  3  0  0  0  0  0  0
  161.8850  211.4760  148.8760 C   0  0  1  0  0  3  0  0  0  0  0  0
  163.0110  212.2580  148.6020 O   0  0  0  0  0  1  0  0  0  0  0  0
  160.9730  211.4970  147.6540 C   0  0  0  0  0  2  0  0  0  0  0  0
  159.8420  213.4650  148.3920 O   0  0  0  0  0  0  0  0  0  0  0  0
  160.3810  212.8540  147.4300 C   0  0  0  0  0  0  0  0  0  0  0  0
  160.4580  213.4990  146.1110 C   0  0  0  0  0  0  0  0  0  0  0  0
  159.4020  213.7480  145.4720 O   0  0  0  0  0  0  0  0  0  0  0  0
  161.7740  213.8720  145.5120 C   0  0  0  0  0  1  0  0  0  0  0  0
  161.3590  209.0940  148.7910 O   0  0  0  0  0  0  0  0  0  0  0  0
  161.7480  207.8990  148.1900 C   0  0  0  0  0  0  0  0  0  0  0  0
  162.8970  207.4360  148.4110 O   0  0  0  0  0  1  0  0  0  0  0  0
  160.8700  207.2010  147.3640 O   0  0  0  0  0  0  0  0  0  0  0  0
  1 29  1  1  0  0  0
  1  8  1  0  0  0  0
  1  3  1  0  0  0  0
  2  4  1  0  0  0  0
  3  7  2  0  0  0  0
  4 10  1  0  0  0  0
  5 10  1  0  0  0  0
  7  5  1  0  0  0  0
  7 14  1  0  0  0  0
  8 11  1  0  0  0  0
  9  2  1  0  0  0  0
 10  6  1  1  0  0  0
 11  9  1  0  0  0  0
 11  5  2  0  0  0  0
 12 13  1  0  0  0  0
 14 12  1  0  0  0  0
 14 13  1  0  0  0  0
 15  3  1  0  0  0  0
 16 15  1  0  0  0  0
 17 16  1  0  0  0  0
 18 17  1  0  0  0  0
 19 18  1  0  0  0  0
 19 20  2  0  0  0  0
 21 28  1  6  0  0  0
 21 24  1  0  0  0  0
 22 24  1  0  0  0  0
 23 22  1  0  0  0  0
 24 19  1  1  0  0  0
 25 23  1  0  0  0  0
 25 21  1  0  0  0  0
 27 28  1  0  0  0  0
 28 26  1  0  0  0  0
 30 29  1  1  0  0  0
 31 32  1  6  0  0  0
 31 30  1  0  0  0  0
 33 31  1  0  0  0  0
 35 33  1  0  0  0  0
 35 34  2  0  0  0  0
 36 35  1  0  0  0  0
 37 36  2  0  0  0  0
 38 36  1  0  0  0  0
 39 30  1  0  0  0  0
 40 41  1  0  0  0  0
 40 39  1  0  0  0  0
 42 40  2  0  0  0  0
M  END
>  <MODEL>
3

>  <REMARK>
 VINA RESULT:      -7.0      1.870      8.436
  Name = 
  16 active torsions:
  status: ('A' for Active; 'I' for Inactive)
    1  A    between atoms: C_1  and  O_14
    2  A    between atoms: C_2  and  C_39
    3  A    between atoms: C_2  and  C_40
    4  A    between atoms: C_3  and  C_25
    5  A    between atoms: C_7  and  C_28
    6  A    between atoms: C_8  and  C_17
    7  A    between atoms: C_9  and  C_32
    8  A    between atoms: C_9  and  C_38
    9  A    between atoms: O_14  and  C_38
   10  A    between atoms: C_19  and  C_31
   11  A    between atoms: C_23  and  C_28
   12  A    between atoms: C_23  and  C_34
   13  A    between atoms: C_24  and  C_41
   14  A    between atoms: C_25  and  C_38
   15  A    between atoms: C_32  and  C_41
   16  A    between atoms: C_34  and  C_40
                            x       y       z     vdW  Elec       q    Type
                         _______ _______ _______ _____ _____    ______ ____

>  <TORSDO>
F 16

$$$$
=
 OpenBabel11072411253D

 42 45  0  0  1  0  0  0  0  0999 V2000
  160.9300  208.5840  151.9760 C   0  0  1  0  0  3  0  0  0  0  0  0
  158.1360  212.0130  153.7310 C   0  0  0  0  0  2  0  0  0  0  0  0
  161.2730  208.0420  153.3510 C   0  0  0  0  0  0  0  0  0  0  0  0
  158.2020  211.4230  155.1520 C   0  0  0  0  0  2  0  0  0  0  0  0
  160.1250  209.9940  154.3330 C   0  0  0  0  0  0  0  0  0  0  0  0
  160.4460  211.7150  155.9450 O   0  0  0  0  0  1  0  0  0  0  0  0
  160.8310  208.6670  154.4730 C   0  0  0  0  0  0  0  0  0  0  0  0
  160.6350  209.9760  152.0140 O   0  0  0  0  0  0  0  0  0  0  0  0
  159.4680  211.9520  152.9830 C   0  0  0  0  0  2  0  0  0  0  0  0
  159.5380  210.7500  155.5040 C   0  0  1  0  0  3  0  0  0  0  0  0
  160.0790  210.5910  153.1300 C   0  0  0  0  0  0  0  0  0  0  0  0
  159.9930  207.0540  156.2810 C   0  0  0  0  0  2  0  0  0  0  0  0
  160.1840  208.4240  156.9190 C   0  0  0  0  0  2  0  0  0  0  0  0
  161.1050  207.9660  155.8050 C   0  0  0  0  0  3  0  0  0  0  0  0
  161.9440  206.6930  153.4380 C   0  0  0  0  0  2  0  0  0  0  0  0
  161.0710  205.5940  152.8440 C   0  0  0  0  0  2  0  0  0  0  0  0
  161.8300  204.7850  151.8030 C   0  0  0  0  0  2  0  0  0  0  0  0
  160.8800  203.8830  151.0310 C   0  0  0  0  0  2  0  0  0  0  0  0
  161.3710  202.4590  151.0070 C   0  0  0  0  0  0  0  0  0  0  0  0
  162.1410  202.0810  151.8760 O   0  0  0  0  0  0  0  0  0  0  0  0
  160.5690  202.1260  148.6330 C   0  0  2  0  0  3  0  0  0  0  0  0
  159.6400  200.8100  150.3900 C   0  0  0  0  0  2  0  0  0  0  0  0
  158.7640  200.7510  149.2940 O   0  0  0  0  0  0  0  0  0  0  0  0
  160.9280  201.4780  149.9520 C   0  0  2  0  0  3  0  0  0  0  0  0
  159.0850  201.8650  148.5040 C   0  0  0  0  0  2  0  0  0  0  0  0
  160.6400  201.7450  146.1000 C   0  0  0  0  0  1  0  0  0  0  0  0
  161.5880  200.0510  147.6550 C   0  0  0  0  0  1  0  0  0  0  0  0
  161.3310  201.5290  147.4420 C   0  0  0  0  0  3  0  0  0  0  0  0
  162.0410  208.3290  150.9520 C   0  0  0  0  0  2  0  0  0  0  0  0
  161.5440  208.3440  149.5040 C   0  0  2  0  0  3  0  0  0  0  0  0
  161.5580  206.9490  148.8690 C   0  0  1  0  0  3  0  0  0  0  0  0
  160.2530  206.4570  148.7770 O   0  0  0  0  0  1  0  0  0  0  0  0
  162.1640  206.9760  147.4680 C   0  0  0  0  0  2  0  0  0  0  0  0
  162.6080  204.6320  147.3900 O   0  0  0  0  0  0  0  0  0  0  0  0
  162.1000  205.6320  146.8130 C   0  0  0  0  0  0  0  0  0  0  0  0
  161.4150  205.4560  145.5240 C   0  0  0  0  0  0  0  0  0  0  0  0
  161.9380  204.7430  144.6270 O   0  0  0  0  0  0  0  0  0  0  0  0
  160.0990  206.1090  145.2560 C   0  0  0  0  0  1  0  0  0  0  0  0
  162.3070  209.2680  148.7360 O   0  0  0  0  0  0  0  0  0  0  0  0
  161.9320  210.6050  148.6280 C   0  0  0  0  0  0  0  0  0  0  0  0
  161.2580  210.9840  147.6340 O   0  0  0  0  0  0  0  0  0  0  0  0
  162.2770  211.5230  149.6170 O   0  0  0  0  0  1  0  0  0  0  0  0
  1 29  1  6  0  0  0
  1  8  1  0  0  0  0
  1  3  1  0  0  0  0
  2  4  1  0  0  0  0
  3 15  1  0  0  0  0
  3  7  2  0  0  0  0
  4 10  1  0  0  0  0
  5  7  1  0  0  0  0
  5 10  1  0  0  0  0
  7 14  1  0  0  0  0
  8 11  1  0  0  0  0
  9 11  1  0  0  0  0
  9  2  1  0  0  0  0
 10  6  1  6  0  0  0
 11  5  2  0  0  0  0
 12 13  1  0  0  0  0
 14 12  1  0  0  0  0
 14 13  1  0  0  0  0
 16 15  1  0  0  0  0
 17 16  1  0  0  0  0
 18 17  1  0  0  0  0
 19 18  1  0  0  0  0
 19 20  2  0  0  0  0
 21 28  1  6  0  0  0
 21 24  1  0  0  0  0
 23 22  1  0  0  0  0
 24 22  1  0  0  0  0
 24 19  1  1  0  0  0
 25 21  1  0  0  0  0
 25 23  1  0  0  0  0
 26 28  1  0  0  0  0
 28 27  1  0  0  0  0
 30 29  1  1  0  0  0
 31 32  1  6  0  0  0
 31 30  1  0  0  0  0
 33 31  1  0  0  0  0
 35 34  2  0  0  0  0
 35 33  1  0  0  0  0
 36 35  1  0  0  0  0
 37 36  2  0  0  0  0
 38 36  1  0  0  0  0
 39 30  1  0  0  0  0
 40 39  1  0  0  0  0
 40 42  1  0  0  0  0
 41 40  2  0  0  0  0
M  END
>  <MODEL>
4

>  <REMARK>
 VINA RESULT:      -6.8      2.274      9.304
  Name = 
  16 active torsions:
  status: ('A' for Active; 'I' for Inactive)
    1  A    between atoms: C_1  and  O_14
    2  A    between atoms: C_2  and  C_39
    3  A    between atoms: C_2  and  C_40
    4  A    between atoms: C_3  and  C_25
    5  A    between atoms: C_7  and  C_28
    6  A    between atoms: C_8  and  C_17
    7  A    between atoms: C_9  and  C_32
    8  A    between atoms: C_9  and  C_38
    9  A    between atoms: O_14  and  C_38
   10  A    between atoms: C_19  and  C_31
   11  A    between atoms: C_23  and  C_28
   12  A    between atoms: C_23  and  C_34
   13  A    between atoms: C_24  and  C_41
   14  A    between atoms: C_25  and  C_38
   15  A    between atoms: C_32  and  C_41
   16  A    between atoms: C_34  and  C_40
                            x       y       z     vdW  Elec       q    Type
                         _______ _______ _______ _____ _____    ______ ____

>  <TORSDO>
F 16

$$$$
=
 OpenBabel11072411253D

 42 45  0  0  1  0  0  0  0  0999 V2000
  159.2780  212.3080  151.9260 C   0  0  1  0  0  3  0  0  0  0  0  0
  155.5750  212.4110  154.9120 C   0  0  0  0  0  2  0  0  0  0  0  0
  160.0550  211.3310  152.7880 C   0  0  0  0  0  0  0  0  0  0  0  0
  156.1390  211.2470  155.7480 C   0  0  0  0  0  2  0  0  0  0  0  0
  158.3320  211.6040  154.5330 C   0  0  0  0  0  0  0  0  0  0  0  0
  158.1060  212.0520  156.8600 O   0  0  0  0  0  1  0  0  0  0  0  0
  159.5750  210.9370  153.9960 C   0  0  0  0  0  0  0  0  0  0  0  0
  158.3960  213.1120  152.7000 O   0  0  0  0  0  0  0  0  0  0  0  0
  156.6430  213.4010  154.4470 C   0  0  0  0  0  2  0  0  0  0  0  0
  157.6730  211.2070  155.8360 C   0  0  1  0  0  3  0  0  0  0  0  0
  157.8190  212.6620  153.8830 C   0  0  0  0  0  0  0  0  0  0  0  0
  160.3460  209.9540  156.2350 C   0  0  0  0  0  2  0  0  0  0  0  0
  161.5820  210.3650  155.4460 C   0  0  0  0  0  2  0  0  0  0  0  0
  160.3560  209.8410  154.7240 C   0  0  0  0  0  3  0  0  0  0  0  0
  161.2680  210.6610  152.1900 C   0  0  0  0  0  2  0  0  0  0  0  0
  160.9410  209.2630  151.6780 C   0  0  0  0  0  2  0  0  0  0  0  0
  162.1600  208.6030  151.0500 C   0  0  0  0  0  2  0  0  0  0  0  0
  161.8170  207.2040  150.5610 C   0  0  0  0  0  2  0  0  0  0  0  0
  161.4990  207.2000  149.0890 C   0  0  0  0  0  0  0  0  0  0  0  0
  161.8280  208.1580  148.4070 O   0  0  0  0  0  0  0  0  0  0  0  0
  161.5560  204.7340  148.5350 C   0  0  2  0  0  3  0  0  0  0  0  0
  160.7180  206.2860  146.9310 C   0  0  0  0  0  2  0  0  0  0  0  0
  161.0400  205.0970  146.2580 O   0  0  0  0  0  0  0  0  0  0  0  0
  160.8010  206.0400  148.4250 C   0  0  2  0  0  3  0  0  0  0  0  0
  161.9310  204.4220  147.1040 C   0  0  0  0  0  2  0  0  0  0  0  0
  160.8650  203.4560  150.6460 C   0  0  0  0  0  1  0  0  0  0  0  0
  161.0260  202.2810  148.4580 C   0  0  0  0  0  1  0  0  0  0  0  0
  160.7120  203.6010  149.1350 C   0  0  0  0  0  3  0  0  0  0  0  0
  160.1940  213.2130  151.0960 C   0  0  0  0  0  2  0  0  0  0  0  0
  159.8300  213.2430  149.6090 C   0  0  2  0  0  3  0  0  0  0  0  0
  161.0290  213.6000  148.7230 C   0  0  1  0  0  3  0  0  0  0  0  0
  161.8220  212.4660  148.5190 O   0  0  0  0  0  1  0  0  0  0  0  0
  160.5840  214.1300  147.3630 C   0  0  0  0  0  2  0  0  0  0  0  0
  159.7880  212.1430  146.3080 O   0  0  0  0  0  0  0  0  0  0  0  0
  160.6450  213.0670  146.3100 C   0  0  0  0  0  0  0  0  0  0  0  0
  161.6670  213.1130  145.2550 C   0  0  0  0  0  0  0  0  0  0  0  0
  162.8420  213.4720  145.5340 O   0  0  0  0  0  0  0  0  0  0  0  0
  161.3400  212.7350  143.8480 C   0  0  0  0  0  1  0  0  0  0  0  0
  158.7440  214.1350  149.3900 O   0  0  0  0  0  0  0  0  0  0  0  0
  157.4570  213.6650  149.1410 C   0  0  0  0  0  0  0  0  0  0  0  0
  157.1630  213.2340  147.9950 O   0  0  0  0  0  0  0  0  0  0  0  0
  156.4980  213.6460  150.1510 O   0  0  0  0  0  1  0  0  0  0  0  0
  1 29  1  1  0  0  0
  1  8  1  0  0  0  0
  1  3  1  0  0  0  0
  2  4  1  0  0  0  0
  3  7  2  0  0  0  0
  4 10  1  0  0  0  0
  5 10  1  0  0  0  0
  7  5  1  0  0  0  0
  7 14  1  0  0  0  0
  8 11  1  0  0  0  0
  9  2  1  0  0  0  0
 10  6  1  1  0  0  0
 11  9  1  0  0  0  0
 11  5  2  0  0  0  0
 13 12  1  0  0  0  0
 14 13  1  0  0  0  0
 14 12  1  0  0  0  0
 15  3  1  0  0  0  0
 16 15  1  0  0  0  0
 17 16  1  0  0  0  0
 18 17  1  0  0  0  0
 19 18  1  0  0  0  0
 20 19  2  0  0  0  0
 21 28  1  6  0  0  0
 22 24  1  0  0  0  0
 23 22  1  0  0  0  0
 23 25  1  0  0  0  0
 24 21  1  0  0  0  0
 24 19  1  1  0  0  0
 25 21  1  0  0  0  0
 27 28  1  0  0  0  0
 28 26  1  0  0  0  0
 30 29  1  1  0  0  0
 31 32  1  6  0  0  0
 31 30  1  0  0  0  0
 33 31  1  0  0  0  0
 34 35  2  0  0  0  0
 35 33  1  0  0  0  0
 36 37  2  0  0  0  0
 36 35  1  0  0  0  0
 38 36  1  0  0  0  0
 39 30  1  0  0  0  0
 40 39  1  0  0  0  0
 40 42  1  0  0  0  0
 41 40  2  0  0  0  0
M  END
>  <MODEL>
5

>  <REMARK>
 VINA RESULT:      -6.5      2.337      8.751
  Name = 
  16 active torsions:
  status: ('A' for Active; 'I' for Inactive)
    1  A    between atoms: C_1  and  O_14
    2  A    between atoms: C_2  and  C_39
    3  A    between atoms: C_2  and  C_40
    4  A    between atoms: C_3  and  C_25
    5  A    between atoms: C_7  and  C_28
    6  A    between atoms: C_8  and  C_17
    7  A    between atoms: C_9  and  C_32
    8  A    between atoms: C_9  and  C_38
    9  A    between atoms: O_14  and  C_38
   10  A    between atoms: C_19  and  C_31
   11  A    between atoms: C_23  and  C_28
   12  A    between atoms: C_23  and  C_34
   13  A    between atoms: C_24  and  C_41
   14  A    between atoms: C_25  and  C_38
   15  A    between atoms: C_32  and  C_41
   16  A    between atoms: C_34  and  C_40
                            x       y       z     vdW  Elec       q    Type
                         _______ _______ _______ _____ _____    ______ ____

>  <TORSDO>
F 16

$$$$
=
 OpenBabel11072411253D

 42 45  0  0  1  0  0  0  0  0999 V2000
  160.9530  210.5060  151.5730 C   0  0  1  0  0  3  0  0  0  0  0  0
  157.4260  213.5420  152.5660 C   0  0  0  0  0  2  0  0  0  0  0  0
  160.8910  209.8530  152.9410 C   0  0  0  0  0  0  0  0  0  0  0  0
  157.0930  212.8170  153.8830 C   0  0  0  0  0  2  0  0  0  0  0  0
  159.3050  211.6130  153.6340 C   0  0  0  0  0  0  0  0  0  0  0  0
  158.9270  213.1810  155.3850 O   0  0  0  0  0  1  0  0  0  0  0  0
  160.0560  210.3300  153.9000 C   0  0  0  0  0  0  0  0  0  0  0  0
  160.5280  211.8640  151.6150 O   0  0  0  0  0  0  0  0  0  0  0  0
  158.9260  213.6480  152.2920 C   0  0  0  0  0  2  0  0  0  0  0  0
  158.3050  212.2060  154.6020 C   0  0  1  0  0  3  0  0  0  0  0  0
  159.5880  212.3240  152.5300 C   0  0  0  0  0  0  0  0  0  0  0  0
  159.5460  210.3180  156.4130 C   0  0  0  0  0  2  0  0  0  0  0  0
  161.0000  209.9090  156.2220 C   0  0  0  0  0  2  0  0  0  0  0  0
  159.9570  209.5180  155.1930 C   0  0  0  0  0  3  0  0  0  0  0  0
  161.6270  208.5510  153.1430 C   0  0  0  0  0  2  0  0  0  0  0  0
  160.8690  207.3790  152.5330 C   0  0  0  0  0  2  0  0  0  0  0  0
  161.7960  206.2050  152.2510 C   0  0  0  0  0  2  0  0  0  0  0  0
  160.9990  204.9190  152.0990 C   0  0  0  0  0  2  0  0  0  0  0  0
  160.7610  204.5890  150.6480 C   0  0  0  0  0  0  0  0  0  0  0  0
  160.0910  205.3490  149.9670 O   0  0  0  0  0  0  0  0  0  0  0  0
  160.5960  202.9090  148.7670 C   0  0  2  0  0  3  0  0  0  0  0  0
  161.2070  202.1790  150.9520 C   0  0  0  0  0  2  0  0  0  0  0  0
  160.7770  201.0580  150.2250 O   0  0  0  0  0  0  0  0  0  0  0  0
  161.3410  203.3550  150.0050 C   0  0  2  0  0  3  0  0  0  0  0  0
  160.0120  201.5740  149.1680 C   0  0  0  0  0  2  0  0  0  0  0  0
  161.9550  204.0850  146.9400 C   0  0  0  0  0  1  0  0  0  0  0  0
  160.8340  201.9130  146.4740 C   0  0  0  0  0  1  0  0  0  0  0  0
  161.5060  202.7560  147.5400 C   0  0  0  0  0  3  0  0  0  0  0  0
  162.3530  210.4320  150.9530 C   0  0  0  0  0  2  0  0  0  0  0  0
  162.3320  210.3160  149.4260 C   0  0  2  0  0  3  0  0  0  0  0  0
  162.0310  211.6560  148.7440 C   0  0  1  0  0  3  0  0  0  0  0  0
  163.2240  212.2450  148.3120 O   0  0  0  0  0  1  0  0  0  0  0  0
  161.1160  211.4780  147.5370 C   0  0  0  0  0  2  0  0  0  0  0  0
  160.0830  213.4810  148.3230 O   0  0  0  0  0  0  0  0  0  0  0  0
  160.0820  212.5590  147.4640 C   0  0  0  0  0  0  0  0  0  0  0  0
  159.0920  212.5790  146.3770 C   0  0  0  0  0  0  0  0  0  0  0  0
  159.4510  212.3270  145.1960 O   0  0  0  0  0  0  0  0  0  0  0  0
  157.6570  212.8900  146.6480 C   0  0  0  0  0  1  0  0  0  0  0  0
  161.4040  209.3140  149.0250 O   0  0  0  0  0  0  0  0  0  0  0  0
  161.8250  208.0330  148.6760 C   0  0  0  0  0  0  0  0  0  0  0  0
  162.7030  207.4560  149.3690 O   0  0  0  0  0  1  0  0  0  0  0  0
  161.2690  207.3760  147.5810 O   0  0  0  0  0  0  0  0  0  0  0  0
  1 29  1  1  0  0  0
  1  8  1  0  0  0  0
  1  3  1  0  0  0  0
  2  4  1  0  0  0  0
  3 15  1  0  0  0  0
  3  7  2  0  0  0  0
  4 10  1  0  0  0  0
  5  7  1  0  0  0  0
  5 10  1  0  0  0  0
  7 14  1  0  0  0  0
  8 11  1  0  0  0  0
  9 11  1  0  0  0  0
  9  2  1  0  0  0  0
 10  6  1  6  0  0  0
 11  5  2  0  0  0  0
 13 12  1  0  0  0  0
 14 13  1  0  0  0  0
 14 12  1  0  0  0  0
 16 15  1  0  0  0  0
 17 16  1  0  0  0  0
 18 17  1  0  0  0  0
 19 18  1  0  0  0  0
 20 19  2  0  0  0  0
 21 28  1  6  0  0  0
 21 25  1  0  0  0  0
 21 24  1  0  0  0  0
 23 22  1  0  0  0  0
 24 19  1  1  0  0  0
 24 22  1  0  0  0  0
 25 23  1  0  0  0  0
 26 28  1  0  0  0  0
 27 28  1  0  0  0  0
 30 29  1  1  0  0  0
 31 32  1  6  0  0  0
 31 30  1  0  0  0  0
 33 31  1  0  0  0  0
 35 33  1  0  0  0  0
 35 34  2  0  0  0  0
 36 38  1  0  0  0  0
 36 35  1  0  0  0  0
 37 36  2  0  0  0  0
 39 30  1  0  0  0  0
 40 39  1  0  0  0  0
 40 41  1  0  0  0  0
 42 40  2  0  0  0  0
M  END
>  <MODEL>
6

>  <REMARK>
 VINA RESULT:      -6.5      2.099      8.809
  Name = 
  16 active torsions:
  status: ('A' for Active; 'I' for Inactive)
    1  A    between atoms: C_1  and  O_14
    2  A    between atoms: C_2  and  C_39
    3  A    between atoms: C_2  and  C_40
    4  A    between atoms: C_3  and  C_25
    5  A    between atoms: C_7  and  C_28
    6  A    between atoms: C_8  and  C_17
    7  A    between atoms: C_9  and  C_32
    8  A    between atoms: C_9  and  C_38
    9  A    between atoms: O_14  and  C_38
   10  A    between atoms: C_19  and  C_31
   11  A    between atoms: C_23  and  C_28
   12  A    between atoms: C_23  and  C_34
   13  A    between atoms: C_24  and  C_41
   14  A    between atoms: C_25  and  C_38
   15  A    between atoms: C_32  and  C_41
   16  A    between atoms: C_34  and  C_40
                            x       y       z     vdW  Elec       q    Type
                         _______ _______ _______ _____ _____    ______ ____

>  <TORSDO>
F 16

$$$$
=
 OpenBabel11072411253D

 42 45  0  0  1  0  0  0  0  0999 V2000
  162.2770  207.8480  152.3060 C   0  0  1  0  0  3  0  0  0  0  0  0
  160.4360  207.3540  156.6660 C   0  0  0  0  0  2  0  0  0  0  0  0
  161.8880  209.3130  152.2150 C   0  0  0  0  0  0  0  0  0  0  0  0
  160.2050  208.8700  156.8050 C   0  0  0  0  0  2  0  0  0  0  0  0
  160.6190  209.0360  154.3130 C   0  0  0  0  0  0  0  0  0  0  0  0
  158.4790  209.4780  155.2560 O   0  0  0  0  0  1  0  0  0  0  0  0
  161.1630  209.9000  153.2010 C   0  0  0  0  0  0  0  0  0  0  0  0
  161.3940  207.1170  153.1480 O   0  0  0  0  0  0  0  0  0  0  0  0
  160.1220  206.8160  155.2690 C   0  0  0  0  0  2  0  0  0  0  0  0
  159.8500  209.5880  155.4940 C   0  0  1  0  0  3  0  0  0  0  0  0
  160.7370  207.7000  154.2260 C   0  0  0  0  0  0  0  0  0  0  0  0
  159.9260  211.9760  154.0570 C   0  0  0  0  0  2  0  0  0  0  0  0
  159.5620  211.7770  152.5920 C   0  0  0  0  0  2  0  0  0  0  0  0
  160.9460  211.4110  153.0900 C   0  0  0  0  0  3  0  0  0  0  0  0
  162.4910  210.1420  151.1070 C   0  0  0  0  0  2  0  0  0  0  0  0
  161.5870  210.1800  149.8810 C   0  0  0  0  0  2  0  0  0  0  0  0
  162.0680  211.2100  148.8690 C   0  0  0  0  0  2  0  0  0  0  0  0
  161.3510  212.5350  149.0740 C   0  0  0  0  0  2  0  0  0  0  0  0
  161.6060  213.4810  147.9300 C   0  0  0  0  0  0  0  0  0  0  0  0
  162.7100  213.9900  147.8140 O   0  0  0  0  0  0  0  0  0  0  0  0
  159.4750  212.7430  146.7860 C   0  0  2  0  0  3  0  0  0  0  0  0
  161.1660  213.8550  145.5280 C   0  0  0  0  0  2  0  0  0  0  0  0
  160.3210  213.1910  144.6260 O   0  0  0  0  0  0  0  0  0  0  0  0
  160.5440  213.8060  146.9100 C   0  0  2  0  0  3  0  0  0  0  0  0
  159.6680  212.2090  145.3850 C   0  0  0  0  0  2  0  0  0  0  0  0
  157.5350  213.2010  148.3970 C   0  0  0  0  0  1  0  0  0  0  0  0
  157.0870  212.6070  146.0230 C   0  0  0  0  0  1  0  0  0  0  0  0
  158.0540  213.2950  146.9660 C   0  0  0  0  0  3  0  0  0  0  0  0
  162.3420  207.1740  150.9310 C   0  0  0  0  0  2  0  0  0  0  0  0
  161.1560  206.2450  150.6570 C   0  0  2  0  0  3  0  0  0  0  0  0
  161.5820  204.7780  150.5320 C   0  0  1  0  0  3  0  0  0  0  0  0
  161.9050  204.2690  151.7940 O   0  0  0  0  0  1  0  0  0  0  0  0
  160.4700  203.9190  149.9360 C   0  0  0  0  0  2  0  0  0  0  0  0
  161.5900  203.4230  147.8870 O   0  0  0  0  0  0  0  0  0  0  0  0
  160.9980  202.9710  148.9040 C   0  0  0  0  0  0  0  0  0  0  0  0
  160.8710  201.5180  149.0840 C   0  0  0  0  0  0  0  0  0  0  0  0
  160.4640  201.0550  150.1830 O   0  0  0  0  0  0  0  0  0  0  0  0
  161.2120  200.5720  147.9810 C   0  0  0  0  0  1  0  0  0  0  0  0
  160.4530  206.6790  149.4980 O   0  0  0  0  0  0  0  0  0  0  0  0
  161.0760  206.7450  148.2550 C   0  0  0  0  0  0  0  0  0  0  0  0
  160.4810  206.3060  147.2360 O   0  0  0  0  0  0  0  0  0  0  0  0
  162.3420  207.3110  148.1230 O   0  0  0  0  0  1  0  0  0  0  0  0
  1 29  1  6  0  0  0
  1  8  1  0  0  0  0
  2  4  1  0  0  0  0
  3  1  1  0  0  0  0
  3  7  2  0  0  0  0
  5 10  1  0  0  0  0
  7  5  1  0  0  0  0
  8 11  1  0  0  0  0
  9  2  1  0  0  0  0
 10  6  1  6  0  0  0
 10  4  1  0  0  0  0
 11  5  2  0  0  0  0
 11  9  1  0  0  0  0
 13 14  1  0  0  0  0
 13 12  1  0  0  0  0
 14  7  1  0  0  0  0
 14 12  1  0  0  0  0
 15  3  1  0  0  0  0
 16 15  1  0  0  0  0
 17 18  1  0  0  0  0
 17 16  1  0  0  0  0
 19 18  1  0  0  0  0
 20 19  2  0  0  0  0
 21 24  1  0  0  0  0
 21 28  1  6  0  0  0
 22 24  1  0  0  0  0
 23 25  1  0  0  0  0
 23 22  1  0  0  0  0
 24 19  1  1  0  0  0
 25 21  1  0  0  0  0
 27 28  1  0  0  0  0
 28 26  1  0  0  0  0
 30 29  1  6  0  0  0
 31 30  1  0  0  0  0
 31 32  1  1  0  0  0
 33 31  1  0  0  0  0
 34 35  2  0  0  0  0
 35 36  1  0  0  0  0
 35 33  1  0  0  0  0
 36 37  2  0  0  0  0
 38 36  1  0  0  0  0
 39 30  1  0  0  0  0
 40 39  1  0  0  0  0
 41 40  2  0  0  0  0
 42 40  1  0  0  0  0
M  END
>  <MODEL>
7

>  <REMARK>
 VINA RESULT:      -6.4      1.651      6.630
  Name = 
  16 active torsions:
  status: ('A' for Active; 'I' for Inactive)
    1  A    between atoms: C_1  and  O_14
    2  A    between atoms: C_2  and  C_39
    3  A    between atoms: C_2  and  C_40
    4  A    between atoms: C_3  and  C_25
    5  A    between atoms: C_7  and  C_28
    6  A    between atoms: C_8  and  C_17
    7  A    between atoms: C_9  and  C_32
    8  A    between atoms: C_9  and  C_38
    9  A    between atoms: O_14  and  C_38
   10  A    between atoms: C_19  and  C_31
   11  A    between atoms: C_23  and  C_28
   12  A    between atoms: C_23  and  C_34
   13  A    between atoms: C_24  and  C_41
   14  A    between atoms: C_25  and  C_38
   15  A    between atoms: C_32  and  C_41
   16  A    between atoms: C_34  and  C_40
                            x       y       z     vdW  Elec       q    Type
                         _______ _______ _______ _____ _____    ______ ____

>  <TORSDO>
F 16

$$$$
=
 OpenBabel11072411253D

 42 45  0  0  1  0  0  0  0  0999 V2000
  160.7290  210.9830  152.5770 C   0  0  1  0  0  3  0  0  0  0  0  0
  161.1120  214.4530  149.3440 C   0  0  0  0  0  2  0  0  0  0  0  0
  161.4150  209.9620  151.6880 C   0  0  0  0  0  0  0  0  0  0  0  0
  162.0280  213.5990  148.4480 C   0  0  0  0  0  2  0  0  0  0  0  0
  161.3360  211.6100  149.8520 C   0  0  0  0  0  0  0  0  0  0  0  0
  160.7000  211.8070  147.5660 O   0  0  0  0  0  1  0  0  0  0  0  0
  161.7710  210.2790  150.4160 C   0  0  0  0  0  0  0  0  0  0  0  0
  160.0570  211.9810  151.8170 O   0  0  0  0  0  0  0  0  0  0  0  0
  159.9700  213.6600  149.9780 C   0  0  0  0  0  2  0  0  0  0  0  0
  161.7240  212.0930  148.4720 C   0  0  1  0  0  3  0  0  0  0  0  0
  160.4920  212.3790  150.5580 C   0  0  0  0  0  0  0  0  0  0  0  0
  162.4850  209.3360  148.1410 C   0  0  0  0  0  2  0  0  0  0  0  0
  161.7210  208.2490  148.8870 C   0  0  0  0  0  2  0  0  0  0  0  0
  162.5850  209.2340  149.6490 C   0  0  0  0  0  3  0  0  0  0  0  0
  161.8650  208.6640  152.3110 C   0  0  0  0  0  2  0  0  0  0  0  0
  160.7320  207.6470  152.3670 C   0  0  0  0  0  2  0  0  0  0  0  0
  161.2290  206.2880  152.8400 C   0  0  0  0  0  2  0  0  0  0  0  0
  162.0390  205.6060  151.7480 C   0  0  0  0  0  2  0  0  0  0  0  0
  161.4260  204.2880  151.3530 C   0  0  0  0  0  0  0  0  0  0  0  0
  161.5690  203.3220  152.0860 O   0  0  0  0  0  0  0  0  0  0  0  0
  161.2850  203.2360  149.0590 C   0  0  2  0  0  3  0  0  0  0  0  0
  160.5110  205.4670  149.3850 C   0  0  0  0  0  2  0  0  0  0  0  0
  160.7220  205.2780  148.0100 O   0  0  0  0  0  0  0  0  0  0  0  0
  160.6240  204.1270  150.0870 C   0  0  2  0  0  3  0  0  0  0  0  0
  161.5890  204.1790  147.9170 C   0  0  0  0  0  2  0  0  0  0  0  0
  160.2670  200.9450  149.5910 C   0  0  0  0  0  1  0  0  0  0  0  0
  160.8460  201.5520  147.2490 C   0  0  0  0  0  1  0  0  0  0  0  0
  160.3800  202.0880  148.5880 C   0  0  0  0  0  3  0  0  0  0  0  0
  159.7410  210.3380  153.5540 C   0  0  0  0  0  2  0  0  0  0  0  0
  159.8940  210.8430  154.9920 C   0  0  2  0  0  3  0  0  0  0  0  0
  158.9190  211.9820  155.3160 C   0  0  1  0  0  3  0  0  0  0  0  0
  159.5840  213.2090  155.2400 O   0  0  0  0  0  1  0  0  0  0  0  0
  157.7440  212.0080  154.3440 C   0  0  0  0  0  2  0  0  0  0  0  0
  155.8760  210.6900  155.0320 O   0  0  0  0  0  0  0  0  0  0  0  0
  156.4380  211.8190  155.0520 C   0  0  0  0  0  0  0  0  0  0  0  0
  155.8240  212.9230  155.8030 C   0  0  0  0  0  0  0  0  0  0  0  0
  155.4760  212.7500  157.0010 O   0  0  0  0  0  0  0  0  0  0  0  0
  155.6080  214.2580  155.1700 C   0  0  0  0  0  1  0  0  0  0  0  0
  161.2410  211.2340  155.2300 O   0  0  0  0  0  0  0  0  0  0  0  0
  162.1760  210.3390  155.7450 C   0  0  0  0  0  0  0  0  0  0  0  0
  163.3720  210.7040  155.8910 O   0  0  0  0  0  0  0  0  0  0  0  0
  161.7980  209.0520  156.1170 O   0  0  0  0  0  1  0  0  0  0  0  0
  1 29  1  1  0  0  0
  2  9  1  0  0  0  0
  3 15  1  0  0  0  0
  3  1  1  0  0  0  0
  4 10  1  0  0  0  0
  4  2  1  0  0  0  0
  5  7  1  0  0  0  0
  5 11  2  0  0  0  0
  7  3  2  0  0  0  0
  8  1  1  0  0  0  0
  9 11  1  0  0  0  0
 10  6  1  6  0  0  0
 10  5  1  0  0  0  0
 11  8  1  0  0  0  0
 12 13  1  0  0  0  0
 12 14  1  0  0  0  0
 13 14  1  0  0  0  0
 14  7  1  0  0  0  0
 15 16  1  0  0  0  0
 16 17  1  0  0  0  0
 18 17  1  0  0  0  0
 19 18  1  0  0  0  0
 19 20  2  0  0  0  0
 21 28  1  6  0  0  0
 21 24  1  0  0  0  0
 22 24  1  0  0  0  0
 23 22  1  0  0  0  0
 24 19  1  1  0  0  0
 25 23  1  0  0  0  0
 25 21  1  0  0  0  0
 27 28  1  0  0  0  0
 28 26  1  0  0  0  0
 30 29  1  6  0  0  0
 30 39  1  0  0  0  0
 30 31  1  0  0  0  0
 31 32  1  6  0  0  0
 33 35  1  0  0  0  0
 33 31  1  0  0  0  0
 34 35  2  0  0  0  0
 35 36  1  0  0  0  0
 36 37  2  0  0  0  0
 38 36  1  0  0  0  0
 39 40  1  0  0  0  0
 40 41  2  0  0  0  0
 40 42  1  0  0  0  0
M  END
>  <MODEL>
8

>  <REMARK>
 VINA RESULT:      -5.9      2.048      7.326
  Name = 
  16 active torsions:
  status: ('A' for Active; 'I' for Inactive)
    1  A    between atoms: C_1  and  O_14
    2  A    between atoms: C_2  and  C_39
    3  A    between atoms: C_2  and  C_40
    4  A    between atoms: C_3  and  C_25
    5  A    between atoms: C_7  and  C_28
    6  A    between atoms: C_8  and  C_17
    7  A    between atoms: C_9  and  C_32
    8  A    between atoms: C_9  and  C_38
    9  A    between atoms: O_14  and  C_38
   10  A    between atoms: C_19  and  C_31
   11  A    between atoms: C_23  and  C_28
   12  A    between atoms: C_23  and  C_34
   13  A    between atoms: C_24  and  C_41
   14  A    between atoms: C_25  and  C_38
   15  A    between atoms: C_32  and  C_41
   16  A    between atoms: C_34  and  C_40
                            x       y       z     vdW  Elec       q    Type
                         _______ _______ _______ _____ _____    ______ ____

>  <TORSDO>
F 16

$$$$
=
 OpenBabel11072411253D

 42 45  0  0  1  0  0  0  0  0999 V2000
  160.2720  210.9400  152.2480 C   0  0  1  0  0  3  0  0  0  0  0  0
  159.4200  212.2510  156.7420 C   0  0  0  0  0  2  0  0  0  0  0  0
  160.7080  209.5430  152.6490 C   0  0  0  0  0  0  0  0  0  0  0  0
  159.6010  210.8110  157.2600 C   0  0  0  0  0  2  0  0  0  0  0  0
  160.6180  210.2640  155.0070 C   0  0  0  0  0  0  0  0  0  0  0  0
  161.9160  210.2430  157.0020 O   0  0  0  0  0  1  0  0  0  0  0  0
  160.8040  209.1940  153.9580 C   0  0  0  0  0  0  0  0  0  0  0  0
  160.5230  211.8890  153.2790 O   0  0  0  0  0  0  0  0  0  0  0  0
  160.4210  212.6360  155.6530 C   0  0  0  0  0  2  0  0  0  0  0  0
  160.6420  209.9810  156.4930 C   0  0  1  0  0  3  0  0  0  0  0  0
  160.5100  211.5470  154.6270 C   0  0  0  0  0  0  0  0  0  0  0  0
  160.0240  206.9970  155.0260 C   0  0  0  0  0  2  0  0  0  0  0  0
  161.2930  207.4480  155.7380 C   0  0  0  0  0  2  0  0  0  0  0  0
  161.1090  207.7250  154.2590 C   0  0  0  0  0  3  0  0  0  0  0  0
  160.8410  208.5000  151.5650 C   0  0  0  0  0  2  0  0  0  0  0  0
  162.2990  208.1380  151.3120 C   0  0  0  0  0  2  0  0  0  0  0  0
  162.4380  207.1850  150.1340 C   0  0  0  0  0  2  0  0  0  0  0  0
  161.1300  206.4500  149.8850 C   0  0  0  0  0  2  0  0  0  0  0  0
  161.0670  205.1620  150.6640 C   0  0  0  0  0  0  0  0  0  0  0  0
  160.5840  205.1680  151.7850 O   0  0  0  0  0  0  0  0  0  0  0  0
  160.7380  203.3420  148.9410 C   0  0  2  0  0  3  0  0  0  0  0  0
  161.4500  202.7690  151.1430 C   0  0  0  0  0  2  0  0  0  0  0  0
  160.9420  201.6100  150.5360 O   0  0  0  0  0  0  0  0  0  0  0  0
  161.5680  203.8590  150.0950 C   0  0  2  0  0  3  0  0  0  0  0  0
  160.1340  202.0670  149.4840 C   0  0  0  0  0  2  0  0  0  0  0  0
  161.9560  204.3090  146.9040 C   0  0  0  0  0  1  0  0  0  0  0  0
  160.8480  202.0860  146.7700 C   0  0  0  0  0  1  0  0  0  0  0  0
  161.5700  203.0560  147.6830 C   0  0  0  0  0  3  0  0  0  0  0  0
  160.9380  211.4120  150.9510 C   0  0  0  0  0  2  0  0  0  0  0  0
  160.6240  212.8700  150.6060 C   0  0  2  0  0  3  0  0  0  0  0  0
  159.1210  213.1680  150.6510 C   0  0  1  0  0  3  0  0  0  0  0  0
  158.8060  213.8410  151.8350 O   0  0  0  0  0  1  0  0  0  0  0  0
  158.6850  214.0350  149.4730 C   0  0  0  0  0  2  0  0  0  0  0  0
  156.6850  212.8220  149.0000 O   0  0  0  0  0  0  0  0  0  0  0  0
  157.7650  213.2950  148.5530 C   0  0  0  0  0  0  0  0  0  0  0  0
  158.0870  213.1500  147.1260 C   0  0  0  0  0  0  0  0  0  0  0  0
  159.2280  213.4750  146.7040 O   0  0  0  0  0  0  0  0  0  0  0  0
  157.0810  212.6160  146.1600 C   0  0  0  0  0  1  0  0  0  0  0  0
  161.1780  213.2020  149.3380 O   0  0  0  0  0  0  0  0  0  0  0  0
  161.9270  212.2810  148.6100 C   0  0  0  0  0  0  0  0  0  0  0  0
  161.3410  211.3710  147.9670 O   0  0  0  0  0  0  0  0  0  0  0  0
  163.3160  212.3680  148.5690 O   0  0  0  0  0  1  0  0  0  0  0  0
  1 29  1  6  0  0  0
  1  3  1  0  0  0  0
  1  8  1  0  0  0  0
  2  4  1  0  0  0  0
  3  7  2  0  0  0  0
  5 10  1  0  0  0  0
  7 14  1  0  0  0  0
  7  5  1  0  0  0  0
  8 11  1  0  0  0  0
  9  2  1  0  0  0  0
 10  6  1  1  0  0  0
 10  4  1  0  0  0  0
 11  5  2  0  0  0  0
 11  9  1  0  0  0  0
 12 13  1  0  0  0  0
 14 12  1  0  0  0  0
 14 13  1  0  0  0  0
 15  3  1  0  0  0  0
 16 15  1  0  0  0  0
 17 16  1  0  0  0  0
 18 17  1  0  0  0  0
 18 19  1  0  0  0  0
 19 20  2  0  0  0  0
 21 28  1  6  0  0  0
 21 25  1  0  0  0  0
 21 24  1  0  0  0  0
 23 22  1  0  0  0  0
 24 19  1  1  0  0  0
 24 22  1  0  0  0  0
 25 23  1  0  0  0  0
 26 28  1  0  0  0  0
 27 28  1  0  0  0  0
 30 31  1  0  0  0  0
 30 29  1  6  0  0  0
 31 32  1  1  0  0  0
 33 31  1  0  0  0  0
 35 34  2  0  0  0  0
 35 33  1  0  0  0  0
 36 35  1  0  0  0  0
 37 36  2  0  0  0  0
 38 36  1  0  0  0  0
 39 30  1  0  0  0  0
 40 39  1  0  0  0  0
 41 40  2  0  0  0  0
 42 40  1  0  0  0  0
M  END
>  <MODEL>
9

>  <REMARK>
 VINA RESULT:      -5.6      1.748      8.506
  Name = 
  16 active torsions:
  status: ('A' for Active; 'I' for Inactive)
    1  A    between atoms: C_1  and  O_14
    2  A    between atoms: C_2  and  C_39
    3  A    between atoms: C_2  and  C_40
    4  A    between atoms: C_3  and  C_25
    5  A    between atoms: C_7  and  C_28
    6  A    between atoms: C_8  and  C_17
    7  A    between atoms: C_9  and  C_32
    8  A    between atoms: C_9  and  C_38
    9  A    between atoms: O_14  and  C_38
   10  A    between atoms: C_19  and  C_31
   11  A    between atoms: C_23  and  C_28
   12  A    between atoms: C_23  and  C_34
   13  A    between atoms: C_24  and  C_41
   14  A    between atoms: C_25  and  C_38
   15  A    between atoms: C_32  and  C_41
   16  A    between atoms: C_34  and  C_40
                            x       y       z     vdW  Elec       q    Type
                         _______ _______ _______ _____ _____    ______ ____

>  <TORSDO>
F 16

$$$$
