=
 OpenBabel11072411253D

 42 48  0  0  1  0  0  0  0  0999 V2000
  160.4460  211.5920  150.6310 C   0  0  1  0  0  3  0  0  0  0  0  0
  159.0300  213.3330  149.4950 C   0  0  2  0  0  3  0  0  0  0  0  0
  161.2430  209.9070  151.9700 C   0  0  1  0  0  3  0  0  0  0  0  0
  157.7410  212.7700  146.3630 N   0  0  0  0  0  0  0  0  0  0  0  0
  162.1230  209.5300  153.1520 C   0  0  0  0  0  2  0  0  0  0  0  0
  161.3230  209.7860  154.4440 C   0  0  0  0  0  2  0  0  0  0  0  0
  159.1300  213.7560  148.0260 C   0  0  2  0  0  3  0  0  0  0  0  0
  158.9910  212.1560  146.3030 N   0  0  0  0  0  0  0  0  0  0  0  0
  162.4510  211.2600  149.0560 C   0  0  0  0  0  2  0  0  0  0  0  0
  158.6950  213.1820  154.3500 N   0  0  0  0  0  0  0  0  0  0  0  0
  162.0460  212.5370  148.3410 C   0  0  1  0  0  3  0  0  0  0  0  0
  158.3510  214.3090  150.2240 O   0  0  0  0  0  1  0  0  0  0  0  0
  160.4200  211.0110  154.3980 C   0  0  0  0  0  0  0  0  0  0  0  0
  157.7800  213.7330  147.3950 C   0  0  0  0  0  0  0  0  0  0  0  0
  160.3720  213.0580  150.1680 C   0  0  2  0  0  3  0  0  0  0  0  0
  161.2610  210.6090  149.7630 C   0  0  1  0  0  3  0  0  0  0  0  0
  161.0460  211.3960  151.9920 C   0  0  2  0  0  3  0  0  0  0  0  0
  159.3640  212.8500  153.2130 C   0  0  0  0  0  3  0  0  0  0  0  0
  161.7820  209.5690  150.6590 N   0  0  0  0  0  0  0  0  0  0  0  0
  156.5440  212.2280  145.7450 C   0  0  0  0  0  1  0  0  0  0  0  0
  158.8420  212.4680  155.5000 C   0  0  0  0  0  3  0  0  0  0  0  0
  160.2160  211.7410  153.1970 C   0  0  0  0  0  0  0  0  0  0  0  0
  159.7840  212.6740  147.1870 C   0  0  0  0  0  0  0  0  0  0  0  0
  159.7070  211.3700  155.5420 C   0  0  0  0  0  3  0  0  0  0  0  0
  161.1140  212.2450  147.2920 O   0  0  0  0  0  0  0  0  0  0  0  0
  161.5860  213.5580  149.3800 C   0  0  0  0  0  2  0  0  0  0  0  0
  156.7970  214.4530  147.7250 O   0  0  0  0  0  0  0  0  0  0  0  0
  161.1590  208.3170  150.2500 C   0  0  0  0  0  2  0  0  0  0  0  0
  162.2270  207.3010  149.8860 C   0  0  2  0  0  3  0  0  0  0  0  0
  162.9650  207.7430  148.6350 C   0  0  0  0  0  1  0  0  0  0  0  0
  161.5160  205.2110  150.6950 O   0  0  0  0  0  0  0  0  0  0  0  0
  161.6280  205.9340  149.7170 C   0  0  0  0  0  0  0  0  0  0  0  0
  160.4290  206.2040  146.0830 C   0  0  0  0  0  2  0  0  0  0  0  0
  161.1060  205.4770  148.3820 C   0  0  1  0  0  3  0  0  0  0  0  0
  163.4140  205.0010  146.1190 F   0  0  0  0  0  0  0  0  0  0  0  0
  160.7770  204.5030  144.4850 O   0  0  0  0  0  0  0  0  0  0  0  0
  161.0410  206.6520  147.4060 C   0  0  0  0  0  2  0  0  0  0  0  0
  161.1190  204.9770  145.5550 C   0  0  0  0  0  0  0  0  0  0  0  0
  162.2260  204.3250  146.3400 C   0  0  2  0  0  3  0  0  0  0  0  0
  161.9230  204.2840  147.8470 C   0  0  2  0  0  3  0  0  0  0  0  0
  161.2470  203.0260  148.1860 C   0  0  0  0  0  0  0  0  0  0  0  0
  160.6880  201.9920  148.4610 C   0  0  0  0  0  3  0  0  0  0  0  0
  1 17  1  0  0  0  0
  2 15  1  0  0  0  0
  2 12  1  0  0  0  0
  3 17  1  0  0  0  0
  3  5  1  0  0  0  0
  4 14  1  0  0  0  0
  5  6  1  0  0  0  0
  7  2  1  0  0  0  0
  8  4  1  0  0  0  0
  8 23  2  0  0  0  0
  9 16  1  0  0  0  0
 10 21  1  0  0  0  0
 11  9  1  0  0  0  0
 11 26  1  0  0  0  0
 13  6  1  0  0  0  0
 13 24  1  0  0  0  0
 14 27  2  0  0  0  0
 14  7  1  0  0  0  0
 15  1  1  0  0  0  0
 16  1  1  0  0  0  0
 16 19  1  0  0  0  0
 17 22  1  0  0  0  0
 18 10  2  0  0  0  0
 19  3  1  0  0  0  0
 20  4  1  0  0  0  0
 21 24  2  0  0  0  0
 22 18  1  0  0  0  0
 22 13  2  0  0  0  0
 23 25  1  0  0  0  0
 23  7  1  0  0  0  0
 25 11  1  0  0  0  0
 26 15  1  0  0  0  0
 28 19  1  0  0  0  0
 29 28  1  0  0  0  0
 30 29  1  0  0  0  0
 32 29  1  0  0  0  0
 32 31  2  0  0  0  0
 33 37  1  0  0  0  0
 34 32  1  0  0  0  0
 35 39  1  0  0  0  0
 36 38  2  0  0  0  0
 37 34  1  0  0  0  0
 38 33  1  0  0  0  0
 38 39  1  0  0  0  0
 39 40  1  0  0  0  0
 40 41  1  0  0  0  0
 40 34  1  0  0  0  0
 41 42  3  0  0  0  0
M  END
>  <MODEL>
1

>  <REMARK>
 VINA RESULT:      -6.7      0.000      0.000
  Name = 
  5 active torsions:
  status: ('A' for Active; 'I' for Inactive)
    1  A    between atoms: C_3  and  C_41
    2  A    between atoms: C_14  and  C_20
    3  A    between atoms: C_14  and  N_29
    4  A    between atoms: C_20  and  C_41
    5  A    between atoms: C_39  and  C_40
                            x       y       z     vdW  Elec       q    Type
                         _______ _______ _______ _____ _____    ______ ____

>  <TORSDO>
F 5

$$$$
=
 OpenBabel11072411253D

 42 48  0  0  1  0  0  0  0  0999 V2000
  161.0780  209.6640  150.7970 C   0  0  1  0  0  3  0  0  0  0  0  0
  160.3010  212.0570  150.7900 C   0  0  2  0  0  3  0  0  0  0  0  0
  161.3260  207.4120  151.1600 C   0  0  1  0  0  3  0  0  0  0  0  0
  158.5810  213.3310  148.1060 N   0  0  0  0  0  0  0  0  0  0  0  0
  162.1190  206.3150  151.8530 C   0  0  0  0  0  2  0  0  0  0  0  0
  161.6090  206.2000  153.3030 C   0  0  0  0  0  2  0  0  0  0  0  0
  160.3990  213.0320  149.6130 C   0  0  2  0  0  3  0  0  0  0  0  0
  159.5000  212.4700  147.5090 N   0  0  0  0  0  0  0  0  0  0  0  0
  162.6440  209.4880  148.7650 C   0  0  0  0  0  2  0  0  0  0  0  0
  160.4330  209.8940  155.1500 N   0  0  0  0  0  0  0  0  0  0  0  0
  162.6710  211.0050  148.7070 C   0  0  1  0  0  3  0  0  0  0  0  0
  160.1110  212.7640  151.9770 O   0  0  0  0  0  1  0  0  0  0  0  0
  161.2250  207.5240  153.9470 C   0  0  0  0  0  0  0  0  0  0  0  0
  159.0790  213.6840  149.3790 C   0  0  0  0  0  0  0  0  0  0  0  0
  161.5060  211.1350  150.9520 C   0  0  2  0  0  3  0  0  0  0  0  0
  161.3770  208.9720  149.4500 C   0  0  1  0  0  3  0  0  0  0  0  0
  161.6980  208.7240  151.7880 C   0  0  2  0  0  3  0  0  0  0  0  0
  160.8100  209.9160  153.8440 C   0  0  0  0  0  3  0  0  0  0  0  0
  161.5630  207.5420  149.7290 N   0  0  0  0  0  0  0  0  0  0  0  0
  157.2110  213.4920  147.6500 C   0  0  0  0  0  1  0  0  0  0  0  0
  160.4220  208.7390  155.8720 C   0  0  0  0  0  3  0  0  0  0  0  0
  161.1840  208.7310  153.2000 C   0  0  0  0  0  0  0  0  0  0  0  0
  160.5160  212.2900  148.2950 C   0  0  0  0  0  0  0  0  0  0  0  0
  160.8170  207.5350  155.2820 C   0  0  0  0  0  3  0  0  0  0  0  0
  161.5940  211.4900  147.8950 O   0  0  0  0  0  0  0  0  0  0  0  0
  162.7310  211.5500  150.1330 C   0  0  0  0  0  2  0  0  0  0  0  0
  158.4730  214.4390  150.1890 O   0  0  0  0  0  0  0  0  0  0  0  0
  160.4830  206.8410  149.0490 C   0  0  0  0  0  2  0  0  0  0  0  0
  161.0470  205.7230  148.1920 C   0  0  2  0  0  3  0  0  0  0  0  0
  160.4360  205.7680  146.8040 C   0  0  0  0  0  1  0  0  0  0  0  0
  160.1690  204.3290  149.8700 O   0  0  0  0  0  0  0  0  0  0  0  0
  160.8310  204.3870  148.8450 C   0  0  0  0  0  0  0  0  0  0  0  0
  161.3470  200.6220  148.3170 C   0  0  0  0  0  2  0  0  0  0  0  0
  161.3570  203.1250  148.2180 C   0  0  1  0  0  3  0  0  0  0  0  0
  159.3220  201.7310  146.0740 F   0  0  0  0  0  0  0  0  0  0  0  0
  161.6790  199.6580  146.1900 O   0  0  0  0  0  0  0  0  0  0  0  0
  160.7450  201.8990  148.8960 C   0  0  0  0  0  2  0  0  0  0  0  0
  161.2730  200.6220  146.8150 C   0  0  0  0  0  0  0  0  0  0  0  0
  160.7060  201.8050  146.0770 C   0  0  2  0  0  3  0  0  0  0  0  0
  161.1550  203.1410  146.6890 C   0  0  2  0  0  3  0  0  0  0  0  0
  162.3820  203.6040  146.0300 C   0  0  0  0  0  0  0  0  0  0  0  0
  163.3940  203.9860  145.4920 C   0  0  0  0  0  3  0  0  0  0  0  0
  1 15  1  0  0  0  0
  1 17  1  0  0  0  0
  2 15  1  0  0  0  0
  2 12  1  0  0  0  0
  3 17  1  0  0  0  0
  3  5  1  0  0  0  0
  4 14  1  0  0  0  0
  5  6  1  0  0  0  0
  6 13  1  0  0  0  0
  7  2  1  0  0  0  0
  8  4  1  0  0  0  0
  8 23  2  0  0  0  0
  9 16  1  0  0  0  0
 10 21  1  0  0  0  0
 11  9  1  0  0  0  0
 11 26  1  0  0  0  0
 13 24  1  0  0  0  0
 14  7  1  0  0  0  0
 14 27  2  0  0  0  0
 16 19  1  0  0  0  0
 16  1  1  0  0  0  0
 17 22  1  0  0  0  0
 18 10  2  0  0  0  0
 19  3  1  0  0  0  0
 20  4  1  0  0  0  0
 22 18  1  0  0  0  0
 22 13  2  0  0  0  0
 23  7  1  0  0  0  0
 24 21  2  0  0  0  0
 25 23  1  0  0  0  0
 25 11  1  0  0  0  0
 26 15  1  0  0  0  0
 28 19  1  0  0  0  0
 29 32  1  0  0  0  0
 29 28  1  0  0  0  0
 30 29  1  0  0  0  0
 32 31  2  0  0  0  0
 33 37  1  0  0  0  0
 34 32  1  0  0  0  0
 34 37  1  0  0  0  0
 35 39  1  0  0  0  0
 36 38  2  0  0  0  0
 38 33  1  0  0  0  0
 39 40  1  0  0  0  0
 39 38  1  0  0  0  0
 40 34  1  0  0  0  0
 41 40  1  0  0  0  0
 42 41  3  0  0  0  0
M  END
>  <MODEL>
2

>  <REMARK>
 VINA RESULT:      -6.5      1.982      3.130
  Name = 
  5 active torsions:
  status: ('A' for Active; 'I' for Inactive)
    1  A    between atoms: C_3  and  C_41
    2  A    between atoms: C_14  and  C_20
    3  A    between atoms: C_14  and  N_29
    4  A    between atoms: C_20  and  C_41
    5  A    between atoms: C_39  and  C_40
                            x       y       z     vdW  Elec       q    Type
                         _______ _______ _______ _____ _____    ______ ____

>  <TORSDO>
F 5

$$$$
=
 OpenBabel11072411253D

 42 48  0  0  1  0  0  0  0  0999 V2000
  160.8790  211.8910  149.3690 C   0  0  1  0  0  3  0  0  0  0  0  0
  159.7930  213.5130  147.7830 C   0  0  2  0  0  3  0  0  0  0  0  0
  161.3140  210.2550  150.9180 C   0  0  1  0  0  3  0  0  0  0  0  0
  159.7960  212.9230  144.4010 N   0  0  0  0  0  0  0  0  0  0  0  0
  161.7410  209.9320  152.3420 C   0  0  0  0  0  2  0  0  0  0  0  0
  160.5040  210.0620  153.2520 C   0  0  0  0  0  2  0  0  0  0  0  0
  160.3720  213.9910  146.4480 C   0  0  2  0  0  3  0  0  0  0  0  0
  161.0410  212.4430  144.8040 N   0  0  0  0  0  0  0  0  0  0  0  0
  163.3430  211.8200  148.6340 C   0  0  0  0  0  2  0  0  0  0  0  0
  157.7390  213.1690  152.1840 N   0  0  0  0  0  0  0  0  0  0  0  0
  163.0890  213.0700  147.8120 C   0  0  1  0  0  3  0  0  0  0  0  0
  158.7950  214.3890  148.2080 O   0  0  0  0  0  1  0  0  0  0  0  0
  159.5530  211.1870  152.8720 C   0  0  0  0  0  0  0  0  0  0  0  0
  159.3530  213.8500  145.3690 C   0  0  0  0  0  0  0  0  0  0  0  0
  160.8210  213.3560  148.9000 C   0  0  2  0  0  3  0  0  0  0  0  0
  162.0550  211.0260  148.8650 C   0  0  1  0  0  3  0  0  0  0  0  0
  160.9630  211.7130  150.8570 C   0  0  2  0  0  3  0  0  0  0  0  0
  158.8060  212.9450  151.3710 C   0  0  0  0  0  3  0  0  0  0  0  0
  162.3250  210.0170  149.8960 N   0  0  0  0  0  0  0  0  0  0  0  0
  158.9710  212.2800  143.3930 C   0  0  0  0  0  1  0  0  0  0  0  0
  157.5360  212.4360  153.3140 C   0  0  0  0  0  3  0  0  0  0  0  0
  159.7210  211.9310  151.6740 C   0  0  0  0  0  0  0  0  0  0  0  0
  161.3990  213.0110  145.9130 C   0  0  0  0  0  0  0  0  0  0  0  0
  158.4390  211.4330  153.6760 C   0  0  0  0  0  3  0  0  0  0  0  0
  162.6380  212.7190  146.4970 O   0  0  0  0  0  0  0  0  0  0  0  0
  162.1760  214.0040  148.6040 C   0  0  0  0  0  2  0  0  0  0  0  0
  158.2470  214.4530  145.3130 O   0  0  0  0  0  0  0  0  0  0  0  0
  162.0320  208.7220  149.2970 C   0  0  0  0  0  2  0  0  0  0  0  0
  161.7110  207.7090  150.3810 C   0  0  2  0  0  3  0  0  0  0  0  0
  162.9880  207.2400  151.0550 C   0  0  0  0  0  1  0  0  0  0  0  0
  159.9220  206.7820  149.1690 O   0  0  0  0  0  0  0  0  0  0  0  0
  160.9290  206.5550  149.8200 C   0  0  0  0  0  0  0  0  0  0  0  0
  161.6720  203.2390  151.6020 C   0  0  0  0  0  2  0  0  0  0  0  0
  161.4100  205.1390  149.9920 C   0  0  1  0  0  3  0  0  0  0  0  0
  159.0650  202.8770  149.7490 F   0  0  0  0  0  0  0  0  0  0  0  0
  161.5730  201.1470  150.5160 O   0  0  0  0  0  0  0  0  0  0  0  0
  161.1050  204.6410  151.4040 C   0  0  0  0  0  2  0  0  0  0  0  0
  161.2370  202.3190  150.4950 C   0  0  0  0  0  0  0  0  0  0  0  0
  160.3930  202.8330  149.3590 C   0  0  2  0  0  3  0  0  0  0  0  0
  160.8430  204.2250  148.8870 C   0  0  2  0  0  3  0  0  0  0  0  0
  161.8230  204.0910  147.8010 C   0  0  0  0  0  0  0  0  0  0  0  0
  162.6260  203.9830  146.9060 C   0  0  0  0  0  3  0  0  0  0  0  0
  1 17  1  0  0  0  0
  2 12  1  0  0  0  0
  2 15  1  0  0  0  0
  3  5  1  0  0  0  0
  4  8  1  0  0  0  0
  4 14  1  0  0  0  0
  5  6  1  0  0  0  0
  7  2  1  0  0  0  0
  8 23  2  0  0  0  0
  9 16  1  0  0  0  0
 10 21  1  0  0  0  0
 11 26  1  0  0  0  0
 11  9  1  0  0  0  0
 13  6  1  0  0  0  0
 13 24  1  0  0  0  0
 14  7  1  0  0  0  0
 15  1  1  0  0  0  0
 16  1  1  0  0  0  0
 16 19  1  0  0  0  0
 17  3  1  0  0  0  0
 17 22  1  0  0  0  0
 18 22  1  0  0  0  0
 18 10  2  0  0  0  0
 19  3  1  0  0  0  0
 20  4  1  0  0  0  0
 21 24  2  0  0  0  0
 22 13  2  0  0  0  0
 23  7  1  0  0  0  0
 23 25  1  0  0  0  0
 25 11  1  0  0  0  0
 26 15  1  0  0  0  0
 27 14  2  0  0  0  0
 28 19  1  0  0  0  0
 28 29  1  0  0  0  0
 29 30  1  0  0  0  0
 31 32  2  0  0  0  0
 32 34  1  0  0  0  0
 32 29  1  0  0  0  0
 34 37  1  0  0  0  0
 37 33  1  0  0  0  0
 38 36  2  0  0  0  0
 38 33  1  0  0  0  0
 39 35  1  0  0  0  0
 39 38  1  0  0  0  0
 40 39  1  0  0  0  0
 40 34  1  0  0  0  0
 41 40  1  0  0  0  0
 42 41  3  0  0  0  0
M  END
>  <MODEL>
3

>  <REMARK>
 VINA RESULT:      -6.4      2.074      2.796
  Name = 
  5 active torsions:
  status: ('A' for Active; 'I' for Inactive)
    1  A    between atoms: C_3  and  C_41
    2  A    between atoms: C_14  and  C_20
    3  A    between atoms: C_14  and  N_29
    4  A    between atoms: C_20  and  C_41
    5  A    between atoms: C_39  and  C_40
                            x       y       z     vdW  Elec       q    Type
                         _______ _______ _______ _____ _____    ______ ____

>  <TORSDO>
F 5

$$$$
=
 OpenBabel11072411253D

 42 48  0  0  1  0  0  0  0  0999 V2000
  161.0910  209.5880  150.8300 C   0  0  1  0  0  3  0  0  0  0  0  0
  160.3030  211.9750  150.7320 C   0  0  2  0  0  3  0  0  0  0  0  0
  161.3420  207.3500  151.2670 C   0  0  1  0  0  3  0  0  0  0  0  0
  158.6400  213.1570  147.9710 N   0  0  0  0  0  0  0  0  0  0  0  0
  162.1250  206.2790  152.0110 C   0  0  0  0  0  2  0  0  0  0  0  0
  161.5810  206.2050  153.4520 C   0  0  0  0  0  2  0  0  0  0  0  0
  160.4230  212.9140  149.5280 C   0  0  2  0  0  3  0  0  0  0  0  0
  159.5770  212.2840  147.4210 N   0  0  0  0  0  0  0  0  0  0  0  0
  162.7060  209.3590  148.8410 C   0  0  0  0  0  2  0  0  0  0  0  0
  160.3440  209.9460  155.1580 N   0  0  0  0  0  0  0  0  0  0  0  0
  162.7260  210.8740  148.7380 C   0  0  1  0  0  3  0  0  0  0  0  0
  160.0810  212.7170  151.8910 O   0  0  0  0  0  1  0  0  0  0  0  0
  161.1760  207.5450  154.0460 C   0  0  0  0  0  0  0  0  0  0  0  0
  159.1060  213.5520  149.2430 C   0  0  0  0  0  0  0  0  0  0  0  0
  161.5080  211.0650  150.9500 C   0  0  2  0  0  3  0  0  0  0  0  0
  161.4250  208.8570  149.5110 C   0  0  1  0  0  3  0  0  0  0  0  0
  161.6930  208.6820  151.8630 C   0  0  2  0  0  3  0  0  0  0  0  0
  160.7510  209.9310  153.8610 C   0  0  0  0  0  3  0  0  0  0  0  0
  161.6130  207.4380  149.8380 N   0  0  0  0  0  0  0  0  0  0  0  0
  157.2800  213.2970  147.4780 C   0  0  0  0  0  1  0  0  0  0  0  0
  160.3220  208.8140  155.9130 C   0  0  0  0  0  3  0  0  0  0  0  0
  161.1460  208.7290  153.2620 C   0  0  0  0  0  0  0  0  0  0  0  0
  160.5750  212.1330  148.2360 C   0  0  0  0  0  0  0  0  0  0  0  0
  160.7370  207.5940  155.3700 C   0  0  0  0  0  3  0  0  0  0  0  0
  161.6670  211.3280  147.8860 O   0  0  0  0  0  0  0  0  0  0  0  0
  162.7500  211.4630  150.1470 C   0  0  0  0  0  2  0  0  0  0  0  0
  158.4780  214.3270  150.0160 O   0  0  0  0  0  0  0  0  0  0  0  0
  160.5520  206.7100  149.1550 C   0  0  0  0  0  2  0  0  0  0  0  0
  161.1510  205.7110  148.1820 C   0  0  2  0  0  3  0  0  0  0  0  0
  160.4750  205.8290  146.8280 C   0  0  0  0  0  1  0  0  0  0  0  0
  161.2060  204.1300  149.9220 O   0  0  0  0  0  0  0  0  0  0  0  0
  161.0540  204.3130  148.7240 C   0  0  0  0  0  0  0  0  0  0  0  0
  161.2060  202.0230  145.6490 C   0  0  0  0  0  2  0  0  0  0  0  0
  160.7070  203.1570  147.8260 C   0  0  1  0  0  3  0  0  0  0  0  0
  162.6930  200.5780  148.1110 F   0  0  0  0  0  0  0  0  0  0  0  0
  160.8070  199.7010  145.7560 O   0  0  0  0  0  0  0  0  0  0  0  0
  161.6190  203.1430  146.6000 C   0  0  0  0  0  2  0  0  0  0  0  0
  161.0950  200.7110  146.3740 C   0  0  0  0  0  0  0  0  0  0  0  0
  161.3320  200.6350  147.8590 C   0  0  2  0  0  3  0  0  0  0  0  0
  160.7140  201.8270  148.6070 C   0  0  2  0  0  3  0  0  0  0  0  0
  159.3500  201.4950  149.0350 C   0  0  0  0  0  0  0  0  0  0  0  0
  158.2260  201.2250  149.3860 C   0  0  0  0  0  3  0  0  0  0  0  0
  1 15  1  0  0  0  0
  1 17  1  0  0  0  0
  2 15  1  0  0  0  0
  2 12  1  0  0  0  0
  3 17  1  0  0  0  0
  3  5  1  0  0  0  0
  4 14  1  0  0  0  0
  5  6  1  0  0  0  0
  6 13  1  0  0  0  0
  7  2  1  0  0  0  0
  8  4  1  0  0  0  0
  8 23  2  0  0  0  0
  9 16  1  0  0  0  0
 10 21  1  0  0  0  0
 11  9  1  0  0  0  0
 11 26  1  0  0  0  0
 13 24  1  0  0  0  0
 14  7  1  0  0  0  0
 14 27  2  0  0  0  0
 16 19  1  0  0  0  0
 16  1  1  0  0  0  0
 17 22  1  0  0  0  0
 18 10  2  0  0  0  0
 19  3  1  0  0  0  0
 20  4  1  0  0  0  0
 22 18  1  0  0  0  0
 22 13  2  0  0  0  0
 23  7  1  0  0  0  0
 24 21  2  0  0  0  0
 25 23  1  0  0  0  0
 25 11  1  0  0  0  0
 26 15  1  0  0  0  0
 28 19  1  0  0  0  0
 29 32  1  0  0  0  0
 29 28  1  0  0  0  0
 30 29  1  0  0  0  0
 32 31  2  0  0  0  0
 33 38  1  0  0  0  0
 33 37  1  0  0  0  0
 34 40  1  0  0  0  0
 34 32  1  0  0  0  0
 36 38  2  0  0  0  0
 37 34  1  0  0  0  0
 38 39  1  0  0  0  0
 39 35  1  0  0  0  0
 39 40  1  0  0  0  0
 40 41  1  0  0  0  0
 41 42  3  0  0  0  0
M  END
>  <MODEL>
4

>  <REMARK>
 VINA RESULT:      -5.6      1.991      2.966
  Name = 
  5 active torsions:
  status: ('A' for Active; 'I' for Inactive)
    1  A    between atoms: C_3  and  C_41
    2  A    between atoms: C_14  and  C_20
    3  A    between atoms: C_14  and  N_29
    4  A    between atoms: C_20  and  C_41
    5  A    between atoms: C_39  and  C_40
                            x       y       z     vdW  Elec       q    Type
                         _______ _______ _______ _____ _____    ______ ____

>  <TORSDO>
F 5

$$$$
=
 OpenBabel11072411253D

 42 48  0  0  1  0  0  0  0  0999 V2000
  160.5590  211.5400  150.2740 C   0  0  1  0  0  3  0  0  0  0  0  0
  158.9990  213.2770  149.3370 C   0  0  2  0  0  3  0  0  0  0  0  0
  161.4890  209.7560  151.3760 C   0  0  1  0  0  3  0  0  0  0  0  0
  157.9440  213.1050  146.0750 N   0  0  0  0  0  0  0  0  0  0  0  0
  162.3500  209.2870  152.5390 C   0  0  0  0  0  2  0  0  0  0  0  0
  161.4620  209.2320  153.7980 C   0  0  0  0  0  2  0  0  0  0  0  0
  159.1180  213.9480  147.9650 C   0  0  2  0  0  3  0  0  0  0  0  0
  159.2610  212.6540  146.0020 N   0  0  0  0  0  0  0  0  0  0  0  0
  162.6650  211.7050  148.8070 C   0  0  0  0  0  2  0  0  0  0  0  0
  158.4470  212.2770  154.0700 N   0  0  0  0  0  0  0  0  0  0  0  0
  162.1420  213.0290  148.2800 C   0  0  1  0  0  3  0  0  0  0  0  0
  158.1700  214.0340  150.1650 O   0  0  0  0  0  1  0  0  0  0  0  0
  160.4200  210.3370  153.8870 C   0  0  0  0  0  0  0  0  0  0  0  0
  157.8130  213.8790  147.2480 C   0  0  0  0  0  0  0  0  0  0  0  0
  160.3290  213.0450  150.0480 C   0  0  2  0  0  3  0  0  0  0  0  0
  161.5300  210.8140  149.3170 C   0  0  1  0  0  3  0  0  0  0  0  0
  161.1110  211.1870  151.6230 C   0  0  2  0  0  3  0  0  0  0  0  0
  159.2060  212.2180  152.9430 C   0  0  0  0  0  3  0  0  0  0  0  0
  162.1300  209.7040  150.0680 N   0  0  0  0  0  0  0  0  0  0  0  0
  156.8530  212.5430  145.2960 C   0  0  0  0  0  1  0  0  0  0  0  0
  158.6230  211.4020  155.0980 C   0  0  0  0  0  3  0  0  0  0  0  0
  160.1870  211.2300  152.8080 C   0  0  0  0  0  0  0  0  0  0  0  0
  159.9400  213.1030  147.0110 C   0  0  0  0  0  0  0  0  0  0  0  0
  159.6130  210.4170  155.0230 C   0  0  0  0  0  3  0  0  0  0  0  0
  161.3050  212.8150  147.1360 O   0  0  0  0  0  0  0  0  0  0  0  0
  161.5100  213.8030  149.4350 C   0  0  0  0  0  2  0  0  0  0  0  0
  156.7350  214.4190  147.6210 O   0  0  0  0  0  0  0  0  0  0  0  0
  161.6860  208.4770  149.4210 C   0  0  0  0  0  2  0  0  0  0  0  0
  161.6200  207.3500  150.4360 C   0  0  2  0  0  3  0  0  0  0  0  0
  163.0210  206.8960  150.8050 C   0  0  0  0  0  1  0  0  0  0  0  0
  159.7220  206.4510  149.3790 O   0  0  0  0  0  0  0  0  0  0  0  0
  160.7910  206.2100  149.9160 C   0  0  0  0  0  0  0  0  0  0  0  0
  161.5230  202.7640  151.4380 C   0  0  0  0  0  2  0  0  0  0  0  0
  161.2930  204.7930  149.9870 C   0  0  1  0  0  3  0  0  0  0  0  0
  159.0090  202.5210  149.4410 F   0  0  0  0  0  0  0  0  0  0  0  0
  161.5170  200.7740  150.1720 O   0  0  0  0  0  0  0  0  0  0  0  0
  160.9360  204.1680  151.3350 C   0  0  0  0  0  2  0  0  0  0  0  0
  161.1570  201.9370  150.2370 C   0  0  0  0  0  0  0  0  0  0  0  0
  160.3550  202.5340  149.1110 C   0  0  2  0  0  3  0  0  0  0  0  0
  160.7960  203.9690  148.7820 C   0  0  2  0  0  3  0  0  0  0  0  0
  161.8260  203.9470  147.7360 C   0  0  0  0  0  0  0  0  0  0  0  0
  162.6720  203.9320  146.8750 C   0  0  0  0  0  3  0  0  0  0  0  0
  1 17  1  0  0  0  0
  2 15  1  0  0  0  0
  2 12  1  0  0  0  0
  3 17  1  0  0  0  0
  3  5  1  0  0  0  0
  4 14  1  0  0  0  0
  5  6  1  0  0  0  0
  6 13  1  0  0  0  0
  7  2  1  0  0  0  0
  8  4  1  0  0  0  0
  8 23  2  0  0  0  0
  9 16  1  0  0  0  0
 10 21  1  0  0  0  0
 11  9  1  0  0  0  0
 11 26  1  0  0  0  0
 13 24  1  0  0  0  0
 14 27  2  0  0  0  0
 14  7  1  0  0  0  0
 15  1  1  0  0  0  0
 16 19  1  0  0  0  0
 16  1  1  0  0  0  0
 17 22  1  0  0  0  0
 18 10  2  0  0  0  0
 19  3  1  0  0  0  0
 20  4  1  0  0  0  0
 22 18  1  0  0  0  0
 22 13  2  0  0  0  0
 23 25  1  0  0  0  0
 23  7  1  0  0  0  0
 24 21  2  0  0  0  0
 25 11  1  0  0  0  0
 26 15  1  0  0  0  0
 28 19  1  0  0  0  0
 28 29  1  0  0  0  0
 29 30  1  0  0  0  0
 31 32  2  0  0  0  0
 32 34  1  0  0  0  0
 32 29  1  0  0  0  0
 34 37  1  0  0  0  0
 36 38  2  0  0  0  0
 37 33  1  0  0  0  0
 38 33  1  0  0  0  0
 39 35  1  0  0  0  0
 39 38  1  0  0  0  0
 40 39  1  0  0  0  0
 40 34  1  0  0  0  0
 41 40  1  0  0  0  0
 42 41  3  0  0  0  0
M  END
>  <MODEL>
5

>  <REMARK>
 VINA RESULT:      -5.6      1.653      2.361
  Name = 
  5 active torsions:
  status: ('A' for Active; 'I' for Inactive)
    1  A    between atoms: C_3  and  C_41
    2  A    between atoms: C_14  and  C_20
    3  A    between atoms: C_14  and  N_29
    4  A    between atoms: C_20  and  C_41
    5  A    between atoms: C_39  and  C_40
                            x       y       z     vdW  Elec       q    Type
                         _______ _______ _______ _____ _____    ______ ____

>  <TORSDO>
F 5

$$$$
=
 OpenBabel11072411253D

 42 48  0  0  1  0  0  0  0  0999 V2000
  160.9380  209.6490  151.4580 C   0  0  1  0  0  3  0  0  0  0  0  0
  160.5180  212.0240  150.7450 C   0  0  2  0  0  3  0  0  0  0  0  0
  160.8300  207.5670  152.4150 C   0  0  1  0  0  3  0  0  0  0  0  0
  159.2150  212.7170  147.6450 N   0  0  0  0  0  0  0  0  0  0  0  0
  161.4000  206.6130  153.4540 C   0  0  0  0  0  2  0  0  0  0  0  0
  160.7670  206.9560  154.8170 C   0  0  0  0  0  2  0  0  0  0  0  0
  160.8470  212.6250  149.3750 C   0  0  2  0  0  3  0  0  0  0  0  0
  160.0440  211.6240  147.3990 N   0  0  0  0  0  0  0  0  0  0  0  0
  162.6170  208.7440  149.7320 C   0  0  0  0  0  2  0  0  0  0  0  0
  159.9950  211.1250  155.5010 N   0  0  0  0  0  0  0  0  0  0  0  0
  162.8670  210.1740  149.2880 C   0  0  1  0  0  3  0  0  0  0  0  0
  160.3390  213.0440  151.6790 O   0  0  0  0  0  1  0  0  0  0  0  0
  160.5290  208.4410  155.0490 C   0  0  0  0  0  0  0  0  0  0  0  0
  159.6580  213.3400  148.8310 C   0  0  0  0  0  0  0  0  0  0  0  0
  161.5610  211.0450  151.2760 C   0  0  2  0  0  3  0  0  0  0  0  0
  161.2390  208.5860  150.3780 C   0  0  1  0  0  3  0  0  0  0  0  0
  161.3380  208.9460  152.7220 C   0  0  2  0  0  3  0  0  0  0  0  0
  160.4730  210.7470  154.2850 C   0  0  0  0  0  3  0  0  0  0  0  0
  161.1950  207.2750  151.0360 N   0  0  0  0  0  0  0  0  0  0  0  0
  157.9230  212.9090  147.0100 C   0  0  0  0  0  1  0  0  0  0  0  0
  159.7610  210.2180  156.4900 C   0  0  0  0  0  3  0  0  0  0  0  0
  160.7210  209.3960  154.0160 C   0  0  0  0  0  0  0  0  0  0  0  0
  160.9590  211.5450  148.3150 C   0  0  0  0  0  0  0  0  0  0  0  0
  160.0240  208.8610  156.2800 C   0  0  0  0  0  3  0  0  0  0  0  0
  161.9390  210.5450  148.2610 O   0  0  0  0  0  0  0  0  0  0  0  0
  162.8940  211.0750  150.5220 C   0  0  0  0  0  2  0  0  0  0  0  0
  159.1060  214.3520  149.3450 O   0  0  0  0  0  0  0  0  0  0  0  0
  160.0810  206.5490  150.4420 C   0  0  0  0  0  2  0  0  0  0  0  0
  160.5300  205.1590  150.0260 C   0  0  2  0  0  3  0  0  0  0  0  0
  161.1070  204.4170  151.2190 C   0  0  0  0  0  1  0  0  0  0  0  0
  162.7030  205.3500  149.1500 O   0  0  0  0  0  0  0  0  0  0  0  0
  161.5150  205.2310  148.8950 C   0  0  0  0  0  0  0  0  0  0  0  0
  160.4310  206.3230  145.3800 C   0  0  0  0  0  2  0  0  0  0  0  0
  161.0640  205.0910  147.4660 C   0  0  1  0  0  3  0  0  0  0  0  0
  163.4710  205.2730  145.2640 F   0  0  0  0  0  0  0  0  0  0  0  0
  160.9210  205.0760  143.4390 O   0  0  0  0  0  0  0  0  0  0  0  0
  160.9730  206.4630  146.7990 C   0  0  0  0  0  2  0  0  0  0  0  0
  161.2010  205.2900  144.6060 C   0  0  0  0  0  0  0  0  0  0  0  0
  162.3120  204.5140  145.2610 C   0  0  2  0  0  3  0  0  0  0  0  0
  161.9590  204.0970  146.6980 C   0  0  2  0  0  3  0  0  0  0  0  0
  161.3370  202.7680  146.6940 C   0  0  0  0  0  0  0  0  0  0  0  0
  160.8250  201.6740  146.6860 C   0  0  0  0  0  3  0  0  0  0  0  0
  1 17  1  0  0  0  0
  2 15  1  0  0  0  0
  2 12  1  0  0  0  0
  3 17  1  0  0  0  0
  3  5  1  0  0  0  0
  4 14  1  0  0  0  0
  5  6  1  0  0  0  0
  6 13  1  0  0  0  0
  7  2  1  0  0  0  0
  8  4  1  0  0  0  0
  8 23  2  0  0  0  0
  9 16  1  0  0  0  0
 10 21  1  0  0  0  0
 11  9  1  0  0  0  0
 11 26  1  0  0  0  0
 13 24  1  0  0  0  0
 14 27  2  0  0  0  0
 14  7  1  0  0  0  0
 15  1  1  0  0  0  0
 16 19  1  0  0  0  0
 16  1  1  0  0  0  0
 17 22  1  0  0  0  0
 18 10  2  0  0  0  0
 19  3  1  0  0  0  0
 20  4  1  0  0  0  0
 22 18  1  0  0  0  0
 22 13  2  0  0  0  0
 23  7  1  0  0  0  0
 24 21  2  0  0  0  0
 25 23  1  0  0  0  0
 25 11  1  0  0  0  0
 26 15  1  0  0  0  0
 28 19  1  0  0  0  0
 29 28  1  0  0  0  0
 29 30  1  0  0  0  0
 32 31  2  0  0  0  0
 32 29  1  0  0  0  0
 33 37  1  0  0  0  0
 34 32  1  0  0  0  0
 36 38  2  0  0  0  0
 37 34  1  0  0  0  0
 38 39  1  0  0  0  0
 38 33  1  0  0  0  0
 39 35  1  0  0  0  0
 39 40  1  0  0  0  0
 40 34  1  0  0  0  0
 41 40  1  0  0  0  0
 42 41  3  0  0  0  0
M  END
>  <MODEL>
6

>  <REMARK>
 VINA RESULT:      -5.5      1.590      2.284
  Name = 
  5 active torsions:
  status: ('A' for Active; 'I' for Inactive)
    1  A    between atoms: C_3  and  C_41
    2  A    between atoms: C_14  and  C_20
    3  A    between atoms: C_14  and  N_29
    4  A    between atoms: C_20  and  C_41
    5  A    between atoms: C_39  and  C_40
                            x       y       z     vdW  Elec       q    Type
                         _______ _______ _______ _____ _____    ______ ____

>  <TORSDO>
F 5

$$$$
=
 OpenBabel11072411253D

 42 48  0  0  1  0  0  0  0  0999 V2000
  161.2080  209.6380  150.4740 C   0  0  1  0  0  3  0  0  0  0  0  0
  160.1700  211.9280  150.4040 C   0  0  2  0  0  3  0  0  0  0  0  0
  161.6700  207.4200  150.8420 C   0  0  1  0  0  3  0  0  0  0  0  0
  158.6150  213.0580  147.5590 N   0  0  0  0  0  0  0  0  0  0  0  0
  162.5040  206.4050  151.6070 C   0  0  0  0  0  2  0  0  0  0  0  0
  161.8570  206.2020  152.9920 C   0  0  0  0  0  2  0  0  0  0  0  0
  160.2830  212.9320  149.2530 C   0  0  2  0  0  3  0  0  0  0  0  0
  159.6850  212.3190  147.0580 N   0  0  0  0  0  0  0  0  0  0  0  0
  162.9940  209.6810  148.6240 C   0  0  0  0  0  2  0  0  0  0  0  0
  160.0770  209.7010  154.7320 N   0  0  0  0  0  0  0  0  0  0  0  0
  162.8540  211.1920  148.5830 C   0  0  1  0  0  3  0  0  0  0  0  0
  159.7740  212.5840  151.5690 O   0  0  0  0  0  1  0  0  0  0  0  0
  161.2580  207.4600  153.6010 C   0  0  0  0  0  0  0  0  0  0  0  0
  158.9300  213.4380  148.8820 C   0  0  0  0  0  0  0  0  0  0  0  0
  161.4470  211.1430  150.6880 C   0  0  2  0  0  3  0  0  0  0  0  0
  161.7270  209.0120  149.1610 C   0  0  1  0  0  3  0  0  0  0  0  0
  161.8210  208.7520  151.5190 C   0  0  2  0  0  3  0  0  0  0  0  0
  160.5880  209.7930  153.4760 C   0  0  0  0  0  3  0  0  0  0  0  0
  162.0440  207.6070  149.4460 N   0  0  0  0  0  0  0  0  0  0  0  0
  157.2930  213.0750  146.9570 C   0  0  0  0  0  1  0  0  0  0  0  0
  160.1190  208.5370  155.4380 C   0  0  0  0  0  3  0  0  0  0  0  0
  161.1610  208.6710  152.8660 C   0  0  0  0  0  0  0  0  0  0  0  0
  160.6240  212.2370  147.9490 C   0  0  0  0  0  0  0  0  0  0  0  0
  160.7110  207.3970  154.8840 C   0  0  0  0  0  3  0  0  0  0  0  0
  161.8240  211.5720  147.6620 O   0  0  0  0  0  0  0  0  0  0  0  0
  162.6990  211.7110  150.0120 C   0  0  0  0  0  2  0  0  0  0  0  0
  158.1590  214.1020  149.6270 O   0  0  0  0  0  0  0  0  0  0  0  0
  161.1300  206.8040  148.6460 C   0  0  0  0  0  2  0  0  0  0  0  0
  161.9120  205.8270  147.7870 C   0  0  2  0  0  3  0  0  0  0  0  0
  162.3140  206.4850  146.4800 C   0  0  0  0  0  1  0  0  0  0  0  0
  160.3610  204.5200  146.5980 O   0  0  0  0  0  0  0  0  0  0  0  0
  161.1220  204.5710  147.5510 C   0  0  0  0  0  0  0  0  0  0  0  0
  161.4800  202.5430  150.7880 C   0  0  0  0  0  2  0  0  0  0  0  0
  161.3090  203.3620  148.4280 C   0  0  1  0  0  3  0  0  0  0  0  0
  158.5320  202.0860  149.5820 F   0  0  0  0  0  0  0  0  0  0  0  0
  160.7090  200.3250  151.0060 O   0  0  0  0  0  0  0  0  0  0  0  0
  161.2020  203.7530  149.9020 C   0  0  0  0  0  2  0  0  0  0  0  0
  160.6380  201.3670  150.3790 C   0  0  0  0  0  0  0  0  0  0  0  0
  159.7090  201.4650  149.1980 C   0  0  2  0  0  3  0  0  0  0  0  0
  160.3420  202.2310  148.0250 C   0  0  2  0  0  3  0  0  0  0  0  0
  161.0240  201.2920  147.1260 C   0  0  0  0  0  0  0  0  0  0  0  0
  161.5800  200.5170  146.3850 C   0  0  0  0  0  3  0  0  0  0  0  0
  1 15  1  0  0  0  0
  1 17  1  0  0  0  0
  2 15  1  0  0  0  0
  2 12  1  0  0  0  0
  3 17  1  0  0  0  0
  3  5  1  0  0  0  0
  4 14  1  0  0  0  0
  5  6  1  0  0  0  0
  6 13  1  0  0  0  0
  7  2  1  0  0  0  0
  8  4  1  0  0  0  0
  8 23  2  0  0  0  0
  9 16  1  0  0  0  0
 10 21  1  0  0  0  0
 11  9  1  0  0  0  0
 11 26  1  0  0  0  0
 13 24  1  0  0  0  0
 14  7  1  0  0  0  0
 14 27  2  0  0  0  0
 16 19  1  0  0  0  0
 16  1  1  0  0  0  0
 17 22  1  0  0  0  0
 18 10  2  0  0  0  0
 19  3  1  0  0  0  0
 20  4  1  0  0  0  0
 22 18  1  0  0  0  0
 22 13  2  0  0  0  0
 23  7  1  0  0  0  0
 24 21  2  0  0  0  0
 25 23  1  0  0  0  0
 25 11  1  0  0  0  0
 26 15  1  0  0  0  0
 28 19  1  0  0  0  0
 29 28  1  0  0  0  0
 30 29  1  0  0  0  0
 31 32  2  0  0  0  0
 32 29  1  0  0  0  0
 32 34  1  0  0  0  0
 34 37  1  0  0  0  0
 37 33  1  0  0  0  0
 38 33  1  0  0  0  0
 38 36  2  0  0  0  0
 39 35  1  0  0  0  0
 39 38  1  0  0  0  0
 40 34  1  0  0  0  0
 40 39  1  0  0  0  0
 41 40  1  0  0  0  0
 42 41  3  0  0  0  0
M  END
>  <MODEL>
7

>  <REMARK>
 VINA RESULT:      -4.5      2.106      3.341
  Name = 
  5 active torsions:
  status: ('A' for Active; 'I' for Inactive)
    1  A    between atoms: C_3  and  C_41
    2  A    between atoms: C_14  and  C_20
    3  A    between atoms: C_14  and  N_29
    4  A    between atoms: C_20  and  C_41
    5  A    between atoms: C_39  and  C_40
                            x       y       z     vdW  Elec       q    Type
                         _______ _______ _______ _____ _____    ______ ____

>  <TORSDO>
F 5

$$$$
