=
 OpenBabel11072410243D

 51 55  0  0  1  0  0  0  0  0999 V2000
  158.1180  212.4180  154.5820 N   0  0  0  0  0  0  0  0  0  0  0  0
  160.4810  209.5480  153.7030 C   0  0  2  0  0  3  0  0  0  0  0  0
  159.2620  213.4090  152.8500 C   0  0  0  0  0  0  0  0  0  0  0  0
  157.0660  212.2990  155.5490 C   0  0  0  0  0  0  0  0  0  0  0  0
  159.4520  210.3380  154.4820 C   0  0  0  0  0  0  0  0  0  0  0  0
  160.6330  211.5410  152.3660 O   0  0  0  0  0  0  0  0  0  0  0  0
  158.5610  211.3100  153.7290 C   0  0  2  0  0  3  0  0  0  0  0  0
  160.6550  210.1370  152.3040 C   0  0  1  0  0  3  0  0  0  0  0  0
  159.2310  210.1200  155.7480 N   0  0  0  0  0  0  0  0  0  0  0  0
  159.2900  211.9580  152.5210 C   0  0  1  0  0  0  0  0  0  0  0  0
  156.6440  213.4140  156.2630 O   0  0  0  0  0  1  0  0  0  0  0  0
  159.7410  214.2730  152.1290 O   0  0  0  0  0  0  0  0  0  0  0  0
  158.5790  213.7150  154.1230 C   0  0  0  0  0  2  0  0  0  0  0  0
  158.5670  211.7330  151.3470 O   0  0  0  0  0  1  0  0  0  0  0  0
  156.5050  211.1880  155.7540 O   0  0  0  0  0  0  0  0  0  0  0  0
  161.9300  209.6290  151.6370 C   0  0  2  0  0  3  0  0  0  0  0  0
  163.0130  210.4800  151.8780 O   0  0  0  0  0  1  0  0  0  0  0  0
  161.7010  209.3950  150.1410 C   0  0  2  0  0  3  0  0  0  0  0  0
  162.6480  207.1710  150.7580 C   0  0  0  0  0  2  0  0  0  0  0  0
  161.8860  207.9270  149.7480 C   0  0  1  0  0  0  0  0  0  0  0  0
  161.1280  206.9230  150.6760 C   0  0  2  0  0  0  0  0  0  0  0  0
  161.1900  205.4960  151.2080 C   0  0  0  0  0  2  0  0  0  0  0  0
  162.3660  207.6320  148.3290 C   0  0  0  0  0  1  0  0  0  0  0  0
  160.6280  205.6920  149.8480 C   0  0  2  0  0  3  0  0  0  0  0  0
  161.5810  205.1210  148.9040 N   0  0  0  0  0  2  0  0  0  0  0  0
  161.1120  203.4860  148.5510 S   0  0  0  0  0  0  0  0  0  0  0  0
  162.2270  202.5530  148.9370 O   0  0  0  0  0  0  0  0  0  0  0  0
  159.8730  203.1230  149.3260 O   0  0  0  0  0  0  0  0  0  0  0  0
  160.8100  203.3220  146.7910 C   0  0  1  0  0  3  0  0  0  0  0  0
  162.8230  204.6810  146.1780 O   0  0  0  0  0  1  0  0  0  0  0  0
  159.7980  204.2060  144.1540 F   0  0  0  0  0  0  0  0  0  0  0  0
  161.4550  204.4730  145.9970 C   0  0  1  0  0  0  0  0  0  0  0  0
  161.8470  205.3440  143.7150 F   0  0  0  0  0  0  0  0  0  0  0  0
  160.9330  204.8400  144.6230 C   0  0  0  0  0  0  0  0  0  0  0  0
  160.6720  205.7650  145.8030 C   0  0  0  0  0  2  0  0  0  0  0  0
  161.1770  201.9250  146.2940 C   0  0  0  0  0  2  0  0  0  0  0  0
  160.0280  201.1130  144.4110 O   0  0  0  0  0  0  0  0  0  0  0  0
  160.0100  201.2930  145.6140 C   0  0  0  0  0  3  0  0  0  0  0  0
  161.6170  211.2440  148.4700 C   0  0  0  0  0  1  0  0  0  0  0  0
  162.5300  210.3310  149.2670 C   0  0  0  0  0  2  0  0  0  0  0  0
  159.6480  208.0710  156.8120 O   0  0  0  0  0  0  0  0  0  0  0  0
  159.9850  209.2700  156.6200 C   0  0  0  0  0  0  0  0  0  0  0  0
  161.2260  209.8060  157.2500 C   0  0  1  0  0  3  0  0  0  0  0  0
  162.2800  208.0240  156.0610 O   0  0  0  0  0  1  0  0  0  0  0  0
  162.3140  208.7460  157.2560 C   0  0  0  0  0  2  0  0  0  0  0  0
  161.6820  210.9620  156.5600 O   0  0  0  0  0  0  0  0  0  0  0  0
  162.9940  211.0850  156.1080 C   0  0  0  0  0  0  0  0  0  0  0  0
  163.3440  210.6940  154.8190 O   0  0  0  0  0  0  0  0  0  0  0  0
  163.8700  211.5670  156.8710 O   0  0  0  0  0  1  0  0  0  0  0  0
  160.1050  208.0900  153.6160 C   0  0  0  0  0  3  0  0  0  0  0  0
  160.8840  207.1230  154.1030 C   0  0  0  0  0  2  0  0  0  0  0  0
  1  4  1  0  0  0  0
  2 50  1  6  0  0  0
  2  5  1  0  0  0  0
  3 13  1  0  0  0  0
  4 15  2  0  0  0  0
  4 11  1  0  0  0  0
  5  9  2  0  0  0  0
  6 10  1  0  0  0  0
  7  5  1  1  0  0  0
  7  1  1  0  0  0  0
  8 16  1  1  0  0  0
  8  6  1  0  0  0  0
  8  2  1  0  0  0  0
  9 42  1  0  0  0  0
 10 14  1  6  0  0  0
 10  3  1  0  0  0  0
 10  7  1  0  0  0  0
 12  3  2  0  0  0  0
 13  1  1  0  0  0  0
 16 17  1  6  0  0  0
 18 40  1  6  0  0  0
 18 16  1  0  0  0  0
 20 23  1  6  0  0  0
 20 18  1  0  0  0  0
 20 21  1  0  0  0  0
 20 19  1  0  0  0  0
 21 19  1  6  0  0  0
 21 22  1  0  0  0  0
 24 25  1  6  0  0  0
 24 21  1  0  0  0  0
 24 22  1  0  0  0  0
 26 25  1  0  0  0  0
 26 27  2  0  0  0  0
 26 28  2  0  0  0  0
 29 36  1  6  0  0  0
 29 26  1  0  0  0  0
 31 34  1  0  0  0  0
 32 30  1  1  0  0  0
 32 29  1  0  0  0  0
 33 34  1  0  0  0  0
 34 35  1  0  0  0  0
 34 32  1  0  0  0  0
 35 32  1  0  0  0  0
 37 38  2  0  0  0  0
 38 36  1  0  0  0  0
 39 40  1  0  0  0  0
 42 41  2  0  0  0  0
 42 43  1  0  0  0  0
 43 45  1  6  0  0  0
 44 45  1  0  0  0  0
 46 43  1  0  0  0  0
 47 46  1  0  0  0  0
 47 49  1  0  0  0  0
 48 47  2  0  0  0  0
 50 51  2  0  0  0  0
M  END
>  <MODEL>
1

>  <REMARK>
 VINA RESULT:      -5.3      0.000      0.000
  Name = 
  16 active torsions:
  status: ('A' for Active; 'I' for Inactive)
    1  A    between atoms: S_1  and  N_23
    2  A    between atoms: S_1  and  C_49
    3  A    between atoms: C_4  and  O_50
    4  A    between atoms: C_5  and  C_13
    5  A    between atoms: C_11  and  C_24
    6  A    between atoms: C_11  and  C_39
    7  A    between atoms: C_11  and  O_50
    8  A    between atoms: C_14  and  C_33
    9  A    between atoms: C_19  and  C_29
   10  A    between atoms: C_22  and  C_33
   11  A    between atoms: N_23  and  C_43
   12  A    between atoms: C_24  and  N_25
   13  A    between atoms: C_29  and  C_33
   14  A    between atoms: C_30  and  C_49
   15  A    between atoms: C_32  and  C_47
   16  A    between atoms: C_32  and  C_49
                            x       y       z     vdW  Elec       q    Type
                         _______ _______ _______ _____ _____    ______ ____

>  <TORSDO>
F 16

$$$$
=
 OpenBabel11072410243D

 51 55  0  0  1  0  0  0  0  0999 V2000
  161.1480  201.9990  149.2470 N   0  0  0  0  0  0  0  0  0  0  0  0
  161.5030  205.8020  149.3500 C   0  0  2  0  0  3  0  0  0  0  0  0
  161.7090  202.2500  151.4640 C   0  0  0  0  0  0  0  0  0  0  0  0
  160.6790  201.2870  148.0940 C   0  0  0  0  0  0  0  0  0  0  0  0
  161.3370  204.4170  148.7630 C   0  0  0  0  0  0  0  0  0  0  0  0
  161.8440  204.6130  151.4120 O   0  0  0  0  0  0  0  0  0  0  0  0
  160.6840  203.3420  149.6120 C   0  0  2  0  0  3  0  0  0  0  0  0
  161.2680  205.7690  150.8600 C   0  0  1  0  0  3  0  0  0  0  0  0
  161.6260  204.1580  147.5180 N   0  0  0  0  0  0  0  0  0  0  0  0
  161.0020  203.5140  151.1220 C   0  0  1  0  0  0  0  0  0  0  0  0
  161.1040  199.9840  147.8580 O   0  0  0  0  0  1  0  0  0  0  0  0
  162.1270  201.9930  152.5840 O   0  0  0  0  0  0  0  0  0  0  0  0
  161.8410  201.3190  150.3260 C   0  0  0  0  0  2  0  0  0  0  0  0
  159.8160  203.5970  151.8570 O   0  0  0  0  0  1  0  0  0  0  0  0
  159.8700  201.8270  147.2920 O   0  0  0  0  0  0  0  0  0  0  0  0
  161.7940  207.0320  151.5350 C   0  0  2  0  0  3  0  0  0  0  0  0
  163.1710  206.9560  151.7700 O   0  0  0  0  0  1  0  0  0  0  0  0
  161.0070  207.3300  152.8140 C   0  0  2  0  0  3  0  0  0  0  0  0
  161.8600  209.6050  152.2480 C   0  0  0  0  0  2  0  0  0  0  0  0
  161.0970  208.8030  153.2220 C   0  0  1  0  0  0  0  0  0  0  0  0
  160.3270  209.7720  152.2660 C   0  0  2  0  0  0  0  0  0  0  0  0
  160.3360  211.2040  151.7440 C   0  0  0  0  0  2  0  0  0  0  0  0
  161.5000  209.1130  154.6600 C   0  0  0  0  0  1  0  0  0  0  0  0
  159.7280  210.9690  153.0780 C   0  0  2  0  0  3  0  0  0  0  0  0
  160.6090  211.5840  154.0650 N   0  0  0  0  0  2  0  0  0  0  0  0
  159.6450  212.2210  155.3610 S   0  0  0  0  0  0  0  0  0  0  0  0
  159.1920  211.0930  156.2470 O   0  0  0  0  0  0  0  0  0  0  0  0
  160.4530  213.1960  156.1770 O   0  0  0  0  0  0  0  0  0  0  0  0
  158.1990  213.0340  154.6810 C   0  0  1  0  0  3  0  0  0  0  0  0
  157.2350  213.4210  156.9610 O   0  0  0  0  0  1  0  0  0  0  0  0
  155.3910  213.3100  153.7900 F   0  0  0  0  0  0  0  0  0  0  0  0
  157.0080  212.9790  155.6570 C   0  0  1  0  0  0  0  0  0  0  0  0
  154.6950  213.7750  156.0230 F   0  0  0  0  0  0  0  0  0  0  0  0
  155.5960  213.1900  155.1510 C   0  0  0  0  0  0  0  0  0  0  0  0
  156.0460  211.8010  155.5810 C   0  0  0  0  0  2  0  0  0  0  0  0
  158.5380  214.4350  154.1740 C   0  0  0  0  0  2  0  0  0  0  0  0
  157.6510  214.3280  151.9990 O   0  0  0  0  0  0  0  0  0  0  0  0
  158.6500  214.4340  152.6870 C   0  0  0  0  0  3  0  0  0  0  0  0
  160.2550  206.3650  154.9870 C   0  0  0  0  0  1  0  0  0  0  0  0
  161.3740  206.3950  153.9620 C   0  0  0  0  0  2  0  0  0  0  0  0
  163.5030  205.2780  146.6670 O   0  0  0  0  0  0  0  0  0  0  0  0
  162.2700  205.0320  146.5840 C   0  0  0  0  0  0  0  0  0  0  0  0
  161.4720  205.5970  145.4570 C   0  0  1  0  0  3  0  0  0  0  0  0
  161.5000  206.0340  143.1110 O   0  0  0  0  0  1  0  0  0  0  0  0
  162.2710  205.5450  144.1680 C   0  0  0  0  0  2  0  0  0  0  0  0
  160.2520  204.8840  145.2990 O   0  0  0  0  0  0  0  0  0  0  0  0
  160.2040  203.6230  144.7070 C   0  0  0  0  0  0  0  0  0  0  0  0
  161.2410  202.7120  144.8830 O   0  0  0  0  0  1  0  0  0  0  0  0
  159.2030  203.3020  144.0150 O   0  0  0  0  0  0  0  0  0  0  0  0
  160.5750  206.7920  148.6950 C   0  0  0  0  0  3  0  0  0  0  0  0
  161.0150  207.9240  148.1420 C   0  0  0  0  0  2  0  0  0  0  0  0
  1  7  1  0  0  0  0
  1 13  1  0  0  0  0
  2 50  1  6  0  0  0
  2  8  1  0  0  0  0
  3 12  2  0  0  0  0
  4  1  1  0  0  0  0
  5  2  1  0  0  0  0
  7  5  1  6  0  0  0
  7 10  1  0  0  0  0
  8  6  1  0  0  0  0
  8 16  1  1  0  0  0
  9  5  2  0  0  0  0
 10  6  1  0  0  0  0
 10  3  1  0  0  0  0
 10 14  1  1  0  0  0
 11  4  1  0  0  0  0
 13  3  1  0  0  0  0
 15  4  2  0  0  0  0
 16 17  1  1  0  0  0
 16 18  1  0  0  0  0
 18 20  1  0  0  0  0
 18 40  1  1  0  0  0
 19 21  1  0  0  0  0
 19 20  1  0  0  0  0
 20 23  1  1  0  0  0
 21 22  1  6  0  0  0
 21 24  1  0  0  0  0
 21 20  1  0  0  0  0
 22 24  1  0  0  0  0
 24 25  1  1  0  0  0
 25 26  1  0  0  0  0
 26 28  2  0  0  0  0
 26 27  2  0  0  0  0
 29 36  1  1  0  0  0
 29 26  1  0  0  0  0
 29 32  1  0  0  0  0
 31 34  1  0  0  0  0
 32 30  1  1  0  0  0
 34 35  1  0  0  0  0
 34 32  1  0  0  0  0
 34 33  1  0  0  0  0
 35 32  1  0  0  0  0
 37 38  2  0  0  0  0
 38 36  1  0  0  0  0
 40 39  1  0  0  0  0
 42 41  2  0  0  0  0
 42  9  1  0  0  0  0
 43 45  1  6  0  0  0
 43 42  1  0  0  0  0
 44 45  1  0  0  0  0
 46 43  1  0  0  0  0
 47 48  1  0  0  0  0
 47 46  1  0  0  0  0
 49 47  2  0  0  0  0
 51 50  2  0  0  0  0
M  END
>  <MODEL>
2

>  <REMARK>
 VINA RESULT:      -4.6      3.918     11.046
  Name = 
  16 active torsions:
  status: ('A' for Active; 'I' for Inactive)
    1  A    between atoms: S_1  and  N_23
    2  A    between atoms: S_1  and  C_49
    3  A    between atoms: C_4  and  O_50
    4  A    between atoms: C_5  and  C_13
    5  A    between atoms: C_11  and  C_24
    6  A    between atoms: C_11  and  C_39
    7  A    between atoms: C_11  and  O_50
    8  A    between atoms: C_14  and  C_33
    9  A    between atoms: C_19  and  C_29
   10  A    between atoms: C_22  and  C_33
   11  A    between atoms: N_23  and  C_43
   12  A    between atoms: C_24  and  N_25
   13  A    between atoms: C_29  and  C_33
   14  A    between atoms: C_30  and  C_49
   15  A    between atoms: C_32  and  C_47
   16  A    between atoms: C_32  and  C_49
                            x       y       z     vdW  Elec       q    Type
                         _______ _______ _______ _____ _____    ______ ____

>  <TORSDO>
F 16

$$$$
=
 OpenBabel11072410243D

 51 55  0  0  1  0  0  0  0  0999 V2000
  159.5240  212.0790  155.8500 N   0  0  0  0  0  0  0  0  0  0  0  0
  160.5570  210.8900  152.3690 C   0  0  2  0  0  3  0  0  0  0  0  0
  159.6760  209.8230  156.2690 C   0  0  0  0  0  0  0  0  0  0  0  0
  159.4030  213.4650  156.2010 C   0  0  0  0  0  0  0  0  0  0  0  0
  160.0730  211.8310  153.4520 C   0  0  0  0  0  0  0  0  0  0  0  0
  160.3650  209.2180  154.0870 O   0  0  0  0  0  0  0  0  0  0  0  0
  160.5050  211.5730  154.8840 C   0  0  2  0  0  3  0  0  0  0  0  0
  161.1460  209.6240  152.9910 C   0  0  1  0  0  3  0  0  0  0  0  0
  159.4030  212.9130  153.1720 N   0  0  0  0  0  0  0  0  0  0  0  0
  160.6660  210.0590  155.1840 C   0  0  1  0  0  0  0  0  0  0  0  0
  158.5050  213.8590  157.1860 O   0  0  0  0  0  1  0  0  0  0  0  0
  159.4970  208.7330  156.7940 O   0  0  0  0  0  0  0  0  0  0  0  0
  158.9390  211.0370  156.6740 C   0  0  0  0  0  2  0  0  0  0  0  0
  161.9520  209.7980  155.6640 O   0  0  0  0  0  1  0  0  0  0  0  0
  160.1140  214.3350  155.6300 O   0  0  0  0  0  0  0  0  0  0  0  0
  161.2850  208.5080  151.9610 C   0  0  2  0  0  3  0  0  0  0  0  0
  160.1360  208.3880  151.1710 O   0  0  0  0  0  1  0  0  0  0  0  0
  161.6560  207.1870  152.6420 C   0  0  2  0  0  3  0  0  0  0  0  0
  162.5390  204.8930  152.2120 C   0  0  0  0  0  2  0  0  0  0  0  0
  161.8120  206.0400  151.6390 C   0  0  1  0  0  0  0  0  0  0  0  0
  161.0150  204.7510  152.0220 C   0  0  2  0  0  0  0  0  0  0  0  0
  161.0340  203.2360  151.8660 C   0  0  0  0  0  2  0  0  0  0  0  0
  162.3080  206.3910  150.2390 C   0  0  0  0  0  1  0  0  0  0  0  0
  160.4990  204.0310  150.7320 C   0  0  2  0  0  3  0  0  0  0  0  0
  161.4540  203.9100  149.6360 N   0  0  0  0  0  2  0  0  0  0  0  0
  160.9370  202.6340  148.5760 S   0  0  0  0  0  0  0  0  0  0  0  0
  161.9280  201.5040  148.6360 O   0  0  0  0  0  0  0  0  0  0  0  0
  159.5830  202.1270  148.9980 O   0  0  0  0  0  0  0  0  0  0  0  0
  160.8690  203.2510  146.8940 C   0  0  1  0  0  3  0  0  0  0  0  0
  163.0100  204.5170  147.1940 O   0  0  0  0  0  1  0  0  0  0  0  0
  160.4030  205.1770  144.6960 F   0  0  0  0  0  0  0  0  0  0  0  0
  161.6930  204.5420  146.7310 C   0  0  1  0  0  0  0  0  0  0  0  0
  162.5370  206.1710  145.0720 F   0  0  0  0  0  0  0  0  0  0  0  0
  161.4520  205.4590  145.5500 C   0  0  0  0  0  0  0  0  0  0  0  0
  161.0080  205.8860  146.9420 C   0  0  0  0  0  2  0  0  0  0  0  0
  161.2070  202.1520  145.8870 C   0  0  0  0  0  2  0  0  0  0  0  0
  159.9210  200.4960  144.8250 O   0  0  0  0  0  0  0  0  0  0  0  0
  159.9640  201.6380  145.2450 C   0  0  0  0  0  3  0  0  0  0  0  0
  161.5000  206.5330  155.0430 C   0  0  0  0  0  1  0  0  0  0  0  0
  160.7080  206.8260  153.7820 C   0  0  0  0  0  2  0  0  0  0  0  0
  159.4080  212.8820  150.8260 O   0  0  0  0  0  0  0  0  0  0  0  0
  158.8870  213.3020  151.8940 C   0  0  0  0  0  0  0  0  0  0  0  0
  157.6680  214.1610  151.8410 C   0  0  1  0  0  3  0  0  0  0  0  0
  156.3970  214.1220  149.8210 O   0  0  0  0  0  1  0  0  0  0  0  0
  156.5730  213.4740  151.0450 C   0  0  0  0  0  2  0  0  0  0  0  0
  157.2020  214.4530  153.1510 O   0  0  0  0  0  0  0  0  0  0  0  0
  156.1440  213.7560  153.7330 C   0  0  0  0  0  0  0  0  0  0  0  0
  156.3260  212.4690  154.2290 O   0  0  0  0  0  1  0  0  0  0  0  0
  155.0160  214.3040  153.8220 O   0  0  0  0  0  0  0  0  0  0  0  0
  161.5710  211.5550  151.4740 C   0  0  0  0  0  3  0  0  0  0  0  0
  161.8130  211.1320  150.2320 C   0  0  0  0  0  2  0  0  0  0  0  0
  1  4  1  0  0  0  0
  1 13  1  0  0  0  0
  2 50  1  1  0  0  0
  2  8  1  0  0  0  0
  2  5  1  0  0  0  0
  3 13  1  0  0  0  0
  3 12  2  0  0  0  0
  4 11  1  0  0  0  0
  6 10  1  0  0  0  0
  7  5  1  6  0  0  0
  7 10  1  0  0  0  0
  7  1  1  0  0  0  0
  8 16  1  6  0  0  0
  8  6  1  0  0  0  0
  9  5  2  0  0  0  0
 10 14  1  1  0  0  0
 10  3  1  0  0  0  0
 15  4  2  0  0  0  0
 16 17  1  1  0  0  0
 16 18  1  0  0  0  0
 18 40  1  1  0  0  0
 20 23  1  6  0  0  0
 20 21  1  0  0  0  0
 20 19  1  0  0  0  0
 20 18  1  0  0  0  0
 21 22  1  1  0  0  0
 21 19  1  0  0  0  0
 24 25  1  6  0  0  0
 24 22  1  0  0  0  0
 24 21  1  0  0  0  0
 26 27  2  0  0  0  0
 26 28  2  0  0  0  0
 26 25  1  0  0  0  0
 29 36  1  6  0  0  0
 29 26  1  0  0  0  0
 31 34  1  0  0  0  0
 32 29  1  0  0  0  0
 32 35  1  0  0  0  0
 32 30  1  1  0  0  0
 33 34  1  0  0  0  0
 34 32  1  0  0  0  0
 34 35  1  0  0  0  0
 37 38  2  0  0  0  0
 38 36  1  0  0  0  0
 40 39  1  0  0  0  0
 41 42  2  0  0  0  0
 42  9  1  0  0  0  0
 43 45  1  6  0  0  0
 43 42  1  0  0  0  0
 43 46  1  0  0  0  0
 44 45  1  0  0  0  0
 46 47  1  0  0  0  0
 47 49  2  0  0  0  0
 47 48  1  0  0  0  0
 51 50  2  0  0  0  0
M  END
>  <MODEL>
3

>  <REMARK>
 VINA RESULT:      -3.9      1.794      4.553
  Name = 
  16 active torsions:
  status: ('A' for Active; 'I' for Inactive)
    1  A    between atoms: S_1  and  N_23
    2  A    between atoms: S_1  and  C_49
    3  A    between atoms: C_4  and  O_50
    4  A    between atoms: C_5  and  C_13
    5  A    between atoms: C_11  and  C_24
    6  A    between atoms: C_11  and  C_39
    7  A    between atoms: C_11  and  O_50
    8  A    between atoms: C_14  and  C_33
    9  A    between atoms: C_19  and  C_29
   10  A    between atoms: C_22  and  C_33
   11  A    between atoms: N_23  and  C_43
   12  A    between atoms: C_24  and  N_25
   13  A    between atoms: C_29  and  C_33
   14  A    between atoms: C_30  and  C_49
   15  A    between atoms: C_32  and  C_47
   16  A    between atoms: C_32  and  C_49
                            x       y       z     vdW  Elec       q    Type
                         _______ _______ _______ _____ _____    ______ ____

>  <TORSDO>
F 16

$$$$
=
 OpenBabel11072410243D

 51 55  0  0  1  0  0  0  0  0999 V2000
  160.8360  201.1630  146.9820 N   0  0  0  0  0  0  0  0  0  0  0  0
  161.3890  204.7570  148.1530 C   0  0  2  0  0  3  0  0  0  0  0  0
  161.3680  200.7490  149.1820 C   0  0  0  0  0  0  0  0  0  0  0  0
  160.3510  200.8300  145.6740 C   0  0  0  0  0  0  0  0  0  0  0  0
  161.1600  203.6040  147.1990 C   0  0  0  0  0  0  0  0  0  0  0  0
  161.6280  203.0200  149.7980 O   0  0  0  0  0  0  0  0  0  0  0  0
  160.4360  202.3720  147.7090 C   0  0  2  0  0  3  0  0  0  0  0  0
  161.1240  204.3150  149.5920 C   0  0  1  0  0  3  0  0  0  0  0  0
  161.4580  203.6910  145.9330 N   0  0  0  0  0  0  0  0  0  0  0  0
  160.7350  202.0960  149.2080 C   0  0  1  0  0  0  0  0  0  0  0  0
  160.7100  199.6250  145.0820 O   0  0  0  0  0  1  0  0  0  0  0  0
  161.7510  200.1640  150.1860 O   0  0  0  0  0  0  0  0  0  0  0  0
  161.4720  200.1690  147.8280 C   0  0  0  0  0  2  0  0  0  0  0  0
  159.5420  202.0340  149.9320 O   0  0  0  0  0  1  0  0  0  0  0  0
  159.5860  201.6180  145.0540 O   0  0  0  0  0  0  0  0  0  0  0  0
  161.7040  205.3060  150.5970 C   0  0  2  0  0  3  0  0  0  0  0  0
  162.7860  204.7590  151.2950 O   0  0  0  0  0  1  0  0  0  0  0  0
  160.6120  205.8220  151.5380 C   0  0  2  0  0  3  0  0  0  0  0  0
  162.2150  207.7260  151.7220 C   0  0  0  0  0  2  0  0  0  0  0  0
  161.0730  207.0370  152.3500 C   0  0  1  0  0  0  0  0  0  0  0  0
  160.8330  208.4050  151.6330 C   0  0  2  0  0  0  0  0  0  0  0  0
  161.3800  209.8240  151.5380 C   0  0  0  0  0  2  0  0  0  0  0  0
  161.2740  206.8460  153.8510 C   0  0  0  0  0  1  0  0  0  0  0  0
  160.4890  209.5130  152.6840 C   0  0  2  0  0  3  0  0  0  0  0  0
  161.3140  209.5380  153.8870 N   0  0  0  0  0  2  0  0  0  0  0  0
  160.3750  210.1770  155.2010 S   0  0  0  0  0  0  0  0  0  0  0  0
  159.6680  209.0500  155.9020 O   0  0  0  0  0  0  0  0  0  0  0  0
  161.2720  210.8850  156.1820 O   0  0  0  0  0  0  0  0  0  0  0  0
  159.1470  211.3130  154.5560 C   0  0  1  0  0  3  0  0  0  0  0  0
  158.3310  211.7020  156.8920 O   0  0  0  0  0  1  0  0  0  0  0  0
  156.5860  212.5790  153.7850 F   0  0  0  0  0  0  0  0  0  0  0  0
  157.9900  211.5210  155.5510 C   0  0  1  0  0  0  0  0  0  0  0  0
  156.0490  212.9610  156.0760 F   0  0  0  0  0  0  0  0  0  0  0  0
  156.7260  212.2320  155.1150 C   0  0  0  0  0  0  0  0  0  0  0  0
  156.7020  210.7300  155.3600 C   0  0  0  0  0  2  0  0  0  0  0  0
  159.7940  212.6050  154.0580 C   0  0  0  0  0  2  0  0  0  0  0  0
  159.1220  213.9470  152.2490 O   0  0  0  0  0  0  0  0  0  0  0  0
  159.4510  212.8370  152.6260 C   0  0  0  0  0  3  0  0  0  0  0  0
  161.0840  203.6610  152.6880 C   0  0  0  0  0  1  0  0  0  0  0  0
  160.0340  204.7250  152.4270 C   0  0  0  0  0  2  0  0  0  0  0  0
  163.3270  205.0800  145.6470 O   0  0  0  0  0  0  0  0  0  0  0  0
  162.1650  204.7540  145.2840 C   0  0  0  0  0  0  0  0  0  0  0  0
  161.5310  205.4320  144.1160 C   0  0  1  0  0  3  0  0  0  0  0  0
  159.4040  205.9600  145.0590 O   0  0  0  0  0  1  0  0  0  0  0  0
  160.5900  206.5250  144.5890 C   0  0  0  0  0  2  0  0  0  0  0  0
  162.5210  205.9840  143.2580 O   0  0  0  0  0  0  0  0  0  0  0  0
  162.2500  206.3120  141.9310 C   0  0  0  0  0  0  0  0  0  0  0  0
  163.0760  207.1850  141.2290 O   0  0  0  0  0  0  0  0  0  0  0  0
  161.2540  205.8000  141.3570 O   0  0  0  0  0  1  0  0  0  0  0  0
  160.5260  205.9420  147.8010 C   0  0  0  0  0  3  0  0  0  0  0  0
  160.9700  207.1970  147.8850 C   0  0  0  0  0  2  0  0  0  0  0  0
  1  7  1  0  0  0  0
  1 13  1  0  0  0  0
  2 50  1  6  0  0  0
  2  8  1  0  0  0  0
  3 10  1  0  0  0  0
  3 12  2  0  0  0  0
  4  1  1  0  0  0  0
  5  2  1  0  0  0  0
  7  5  1  6  0  0  0
  7 10  1  0  0  0  0
  8  6  1  0  0  0  0
  8 16  1  1  0  0  0
  9  5  2  0  0  0  0
 10  6  1  0  0  0  0
 10 14  1  1  0  0  0
 11  4  1  0  0  0  0
 13  3  1  0  0  0  0
 15  4  2  0  0  0  0
 16 17  1  1  0  0  0
 16 18  1  0  0  0  0
 18 20  1  0  0  0  0
 18 40  1  1  0  0  0
 19 20  1  0  0  0  0
 20 23  1  1  0  0  0
 21 22  1  6  0  0  0
 21 19  1  0  0  0  0
 21 20  1  0  0  0  0
 21 24  1  0  0  0  0
 22 24  1  0  0  0  0
 24 25  1  1  0  0  0
 25 26  1  0  0  0  0
 26 27  2  0  0  0  0
 26 28  2  0  0  0  0
 29 36  1  1  0  0  0
 29 26  1  0  0  0  0
 29 32  1  0  0  0  0
 31 34  1  0  0  0  0
 32 30  1  1  0  0  0
 34 35  1  0  0  0  0
 34 32  1  0  0  0  0
 34 33  1  0  0  0  0
 35 32  1  0  0  0  0
 37 38  2  0  0  0  0
 38 36  1  0  0  0  0
 40 39  1  0  0  0  0
 42 41  2  0  0  0  0
 42  9  1  0  0  0  0
 43 45  1  1  0  0  0
 43 42  1  0  0  0  0
 45 44  1  0  0  0  0
 46 43  1  0  0  0  0
 47 46  1  0  0  0  0
 48 47  2  0  0  0  0
 49 47  1  0  0  0  0
 50 51  2  0  0  0  0
M  END
>  <MODEL>
4

>  <REMARK>
 VINA RESULT:      -3.0      3.785     11.307
  Name = 
  16 active torsions:
  status: ('A' for Active; 'I' for Inactive)
    1  A    between atoms: S_1  and  N_23
    2  A    between atoms: S_1  and  C_49
    3  A    between atoms: C_4  and  O_50
    4  A    between atoms: C_5  and  C_13
    5  A    between atoms: C_11  and  C_24
    6  A    between atoms: C_11  and  C_39
    7  A    between atoms: C_11  and  O_50
    8  A    between atoms: C_14  and  C_33
    9  A    between atoms: C_19  and  C_29
   10  A    between atoms: C_22  and  C_33
   11  A    between atoms: N_23  and  C_43
   12  A    between atoms: C_24  and  N_25
   13  A    between atoms: C_29  and  C_33
   14  A    between atoms: C_30  and  C_49
   15  A    between atoms: C_32  and  C_47
   16  A    between atoms: C_32  and  C_49
                            x       y       z     vdW  Elec       q    Type
                         _______ _______ _______ _____ _____    ______ ____

>  <TORSDO>
F 16

$$$$
=
 OpenBabel11072410243D

 51 55  0  0  1  0  0  0  0  0999 V2000
  161.0890  202.8260  150.5920 N   0  0  0  0  0  0  0  0  0  0  0  0
  161.2010  206.2190  148.8380 C   0  0  2  0  0  3  0  0  0  0  0  0
  161.5020  204.1630  152.4180 C   0  0  0  0  0  0  0  0  0  0  0  0
  160.7330  201.6090  149.9220 C   0  0  0  0  0  0  0  0  0  0  0  0
  161.1550  204.7140  148.9960 C   0  0  0  0  0  0  0  0  0  0  0  0
  161.4930  206.2090  151.2250 O   0  0  0  0  0  0  0  0  0  0  0  0
  160.5210  204.1340  150.2470 C   0  0  2  0  0  3  0  0  0  0  0  0
  160.8800  206.9010  150.1670 C   0  0  1  0  0  3  0  0  0  0  0  0
  161.5320  203.9110  148.0410 N   0  0  0  0  0  0  0  0  0  0  0  0
  160.7390  205.0410  151.4880 C   0  0  1  0  0  0  0  0  0  0  0  0
  161.2500  200.3940  150.3580 O   0  0  0  0  0  1  0  0  0  0  0  0
  161.8680  204.5160  153.5300 O   0  0  0  0  0  0  0  0  0  0  0  0
  161.7580  202.8120  151.8800 C   0  0  0  0  0  2  0  0  0  0  0  0
  159.5100  205.3700  152.0650 O   0  0  0  0  0  1  0  0  0  0  0  0
  159.9400  201.6250  148.9410 O   0  0  0  0  0  0  0  0  0  0  0  0
  161.2870  208.3710  150.1530 C   0  0  2  0  0  3  0  0  0  0  0  0
  162.0620  208.6820  149.0300 O   0  0  0  0  0  1  0  0  0  0  0  0
  161.9900  208.7500  151.4610 C   0  0  2  0  0  3  0  0  0  0  0  0
  160.7540  208.2470  153.5690 C   0  0  0  0  0  2  0  0  0  0  0  0
  161.0080  209.2540  152.5220 C   0  0  1  0  0  0  0  0  0  0  0  0
  161.6480  209.4500  153.9350 C   0  0  2  0  0  0  0  0  0  0  0  0
  161.3120  209.4290  155.4200 C   0  0  0  0  0  2  0  0  0  0  0  0
  159.7190  209.9110  152.0350 C   0  0  0  0  0  1  0  0  0  0  0  0
  160.9850  210.6650  154.6660 C   0  0  2  0  0  3  0  0  0  0  0  0
  159.5300  210.7470  154.5880 N   0  0  0  0  0  2  0  0  0  0  0  0
  159.0640  212.4180  154.5070 S   0  0  0  0  0  0  0  0  0  0  0  0
  159.6220  213.1490  155.6980 O   0  0  0  0  0  0  0  0  0  0  0  0
  159.6000  213.0440  153.2470 O   0  0  0  0  0  0  0  0  0  0  0  0
  157.2760  212.5380  154.5450 C   0  0  1  0  0  3  0  0  0  0  0  0
  156.7560  212.6600  156.9930 O   0  0  0  0  0  1  0  0  0  0  0  0
  155.0440  210.5950  154.4880 F   0  0  0  0  0  0  0  0  0  0  0  0
  156.6930  211.9030  155.8220 C   0  0  1  0  0  0  0  0  0  0  0  0
  154.6390  210.9450  156.8120 F   0  0  0  0  0  0  0  0  0  0  0  0
  155.5090  210.9630  155.7370 C   0  0  0  0  0  0  0  0  0  0  0  0
  156.8890  210.4110  156.0610 C   0  0  0  0  0  2  0  0  0  0  0  0
  156.8100  213.9680  154.2800 C   0  0  0  0  0  2  0  0  0  0  0  0
  156.2030  214.4440  152.0590 O   0  0  0  0  0  0  0  0  0  0  0  0
  155.8530  213.9980  153.1370 C   0  0  0  0  0  3  0  0  0  0  0  0
  162.6400  211.0090  150.6310 C   0  0  0  0  0  1  0  0  0  0  0  0
  163.1480  209.7190  151.2460 C   0  0  0  0  0  2  0  0  0  0  0  0
  163.3770  204.6510  146.7950 O   0  0  0  0  0  0  0  0  0  0  0  0
  162.1750  204.2730  146.8130 C   0  0  0  0  0  0  0  0  0  0  0  0
  161.4200  204.1290  145.5350 C   0  0  1  0  0  3  0  0  0  0  0  0
  161.1420  205.5070  143.6060 O   0  0  0  0  0  1  0  0  0  0  0  0
  162.1010  204.9140  144.4290 C   0  0  0  0  0  2  0  0  0  0  0  0
  161.3170  202.7610  145.1640 O   0  0  0  0  0  0  0  0  0  0  0  0
  160.1030  202.1830  144.7960 C   0  0  0  0  0  0  0  0  0  0  0  0
  159.8780  200.8210  144.9790 O   0  0  0  0  0  1  0  0  0  0  0  0
  159.1970  202.9040  144.3070 O   0  0  0  0  0  0  0  0  0  0  0  0
  160.2530  206.6890  147.7640 C   0  0  0  0  0  3  0  0  0  0  0  0
  160.6800  207.2560  146.6350 C   0  0  0  0  0  2  0  0  0  0  0  0
  1 13  1  0  0  0  0
  2 50  1  6  0  0  0
  2  5  1  0  0  0  0
  2  8  1  0  0  0  0
  3 12  2  0  0  0  0
  4 11  1  0  0  0  0
  4  1  1  0  0  0  0
  6 10  1  0  0  0  0
  7  5  1  6  0  0  0
  7  1  1  0  0  0  0
  7 10  1  0  0  0  0
  8 16  1  6  0  0  0
  8  6  1  0  0  0  0
  9  5  2  0  0  0  0
 10 14  1  1  0  0  0
 10  3  1  0  0  0  0
 13  3  1  0  0  0  0
 15  4  2  0  0  0  0
 16 17  1  6  0  0  0
 16 18  1  0  0  0  0
 18 40  1  6  0  0  0
 18 20  1  0  0  0  0
 20 23  1  6  0  0  0
 20 19  1  0  0  0  0
 20 21  1  0  0  0  0
 21 19  1  1  0  0  0
 21 24  1  0  0  0  0
 21 22  1  0  0  0  0
 24 25  1  6  0  0  0
 24 22  1  0  0  0  0
 26 29  1  0  0  0  0
 26 25  1  0  0  0  0
 26 27  2  0  0  0  0
 28 26  2  0  0  0  0
 29 36  1  1  0  0  0
 29 32  1  0  0  0  0
 31 34  1  0  0  0  0
 32 35  1  0  0  0  0
 32 30  1  1  0  0  0
 34 32  1  0  0  0  0
 34 35  1  0  0  0  0
 34 33  1  0  0  0  0
 37 38  2  0  0  0  0
 38 36  1  0  0  0  0
 39 40  1  0  0  0  0
 41 42  2  0  0  0  0
 42  9  1  0  0  0  0
 43 45  1  6  0  0  0
 43 42  1  0  0  0  0
 44 45  1  0  0  0  0
 46 43  1  0  0  0  0
 47 48  1  0  0  0  0
 47 46  1  0  0  0  0
 49 47  2  0  0  0  0
 51 50  2  0  0  0  0
M  END
>  <MODEL>
5

>  <REMARK>
 VINA RESULT:      -2.6      3.781     10.645
  Name = 
  16 active torsions:
  status: ('A' for Active; 'I' for Inactive)
    1  A    between atoms: S_1  and  N_23
    2  A    between atoms: S_1  and  C_49
    3  A    between atoms: C_4  and  O_50
    4  A    between atoms: C_5  and  C_13
    5  A    between atoms: C_11  and  C_24
    6  A    between atoms: C_11  and  C_39
    7  A    between atoms: C_11  and  O_50
    8  A    between atoms: C_14  and  C_33
    9  A    between atoms: C_19  and  C_29
   10  A    between atoms: C_22  and  C_33
   11  A    between atoms: N_23  and  C_43
   12  A    between atoms: C_24  and  N_25
   13  A    between atoms: C_29  and  C_33
   14  A    between atoms: C_30  and  C_49
   15  A    between atoms: C_32  and  C_47
   16  A    between atoms: C_32  and  C_49
                            x       y       z     vdW  Elec       q    Type
                         _______ _______ _______ _____ _____    ______ ____

>  <TORSDO>
F 16

$$$$
