=
 OpenBabel11072414083D

 57 63  0  0  1  0  0  0  0  0999 V2000
  161.3720  210.7700  152.8450 C   0  0  1  0  0  3  0  0  0  0  0  0
  163.7510  208.0460  148.8450 O   0  0  0  0  0  0  0  0  0  0  0  0
  162.1570  206.5010  149.6900 C   0  0  0  0  0  2  0  0  0  0  0  0
  162.5350  207.7850  149.0420 C   0  0  0  0  0  0  0  0  0  0  0  0
  161.0280  207.3570  151.6320 O   0  0  0  0  0  0  0  0  0  0  0  0
  162.2390  214.3140  148.2670 C   0  0  0  0  0  2  0  0  0  0  0  0
  160.9970  212.2410  148.3200 C   0  0  0  0  0  0  0  0  0  0  0  0
  160.6640  209.4510  152.7020 C   0  0  0  0  0  0  0  0  0  0  0  0
  160.6080  210.8930  147.7970 C   0  0  0  0  0  2  0  0  0  0  0  0
  161.5150  208.7260  148.6960 N   0  0  0  0  0  2  0  0  0  0  0  0
  159.4440  209.3910  152.7240 O   0  0  0  0  0  0  0  0  0  0  0  0
  162.1580  206.6400  151.2040 C   0  0  1  0  0  3  0  0  0  0  0  0
  160.8480  211.5580  150.5980 O   0  0  0  0  0  0  0  0  0  0  0  0
  160.8100  211.9040  151.9760 C   0  0  1  0  0  3  0  0  0  0  0  0
  162.8310  210.1390  147.3690 O   0  0  0  0  0  0  0  0  0  0  0  0
  161.7270  209.9190  147.9370 C   0  0  0  0  0  0  0  0  0  0  0  0
  161.0920  212.5160  149.6110 C   0  0  0  0  0  0  0  0  0  0  0  0
  161.4410  213.3430  147.4070 C   0  0  1  0  0  3  0  0  0  0  0  0
  161.4740  208.1910  152.6660 C   0  0  1  0  0  3  0  0  0  0  0  0
  161.4110  211.1520  154.1870 O   0  0  0  0  0  1  0  0  0  0  0  0
  161.6280  214.1810  149.9800 S   0  0  0  0  0  0  0  0  0  0  0  0
  159.5460  208.6180  157.2600 C   0  0  0  0  0  2  0  0  0  0  0  0
  160.3960  207.1520  156.5710 S   0  0  0  0  0  0  0  0  0  0  0  0
  161.3490  207.5020  153.9450 N   0  0  0  0  0  2  0  0  0  0  0  0
  160.2400  209.2850  155.0580 N   0  0  0  0  0  0  0  0  0  0  0  0
  160.6710  208.0720  155.0640 C   0  0  0  0  0  0  0  0  0  0  0  0
  159.0310  210.9690  156.4300 C   0  0  0  0  0  1  0  0  0  0  0  0
  159.6120  209.6530  156.2450 N   0  0  0  0  0  0  0  0  0  0  0  0
  159.8680  213.3950  145.3870 C   0  0  1  0  0  3  0  0  0  0  0  0
  160.3370  214.1090  146.6430 C   0  0  1  0  0  3  0  0  0  0  0  0
  157.8860  214.4510  146.6650 C   0  0  0  0  0  1  0  0  0  0  0  0
  158.9920  213.4060  146.6520 C   0  0  1  0  0  3  0  0  0  0  0  0
  158.1080  214.4490  144.1010 O   0  0  0  0  0  0  0  0  0  0  0  0
  158.8610  213.6880  143.1900 C   0  0  1  0  0  3  0  0  0  0  0  0
  160.2270  214.3070  142.9740 C   0  0  1  0  0  3  0  0  0  0  0  0
  159.4980  214.4250  144.3130 C   0  0  2  0  0  0  0  0  0  0  0  0
  161.3090  213.2150  142.9090 C   0  0  2  0  0  3  0  0  0  0  0  0
  163.2680  213.4490  144.4350 O   0  0  0  0  0  1  0  0  0  0  0  0
  162.6710  213.7570  143.2200 C   0  0  0  0  0  0  0  0  0  0  0  0
  163.3000  214.4500  142.3730 O   0  0  0  0  0  0  0  0  0  0  0  0
  161.3200  212.4400  141.5850 C   0  0  1  0  0  3  0  0  0  0  0  0
  160.6980  211.1990  141.7330 O   0  0  0  0  0  1  0  0  0  0  0  0
  161.3760  214.2720  139.8730 O   0  0  0  0  0  0  0  0  0  0  0  0
  160.7110  213.1930  140.4430 C   0  0  0  0  0  0  0  0  0  0  0  0
  159.5910  212.8380  139.9900 O   0  0  0  0  0  1  0  0  0  0  0  0
  159.3970  212.3280  152.3660 C   0  0  0  0  0  2  0  0  0  0  0  0
  159.4310  213.0830  153.5410 O   0  0  0  0  0  1  0  0  0  0  0  0
  162.2230  205.2570  151.8600 C   0  0  0  0  0  2  0  0  0  0  0  0
  160.9200  204.4720  151.7250 C   0  0  1  0  0  3  0  0  0  0  0  0
  159.7750  205.4250  151.4320 C   0  0  0  0  0  1  0  0  0  0  0  0
  161.0390  203.7650  149.3000 C   0  0  0  0  0  3  0  0  0  0  0  0
  161.1820  203.1040  147.0150 F   0  0  0  0  0  0  0  0  0  0  0  0
  161.2630  201.0830  150.0640 C   0  0  0  0  0  3  0  0  0  0  0  0
  161.2780  201.4290  148.7090 C   0  0  0  0  0  3  0  0  0  0  0  0
  161.0220  203.4220  150.6620 C   0  0  0  0  0  0  0  0  0  0  0  0
  161.1650  202.7700  148.3270 C   0  0  0  0  0  0  0  0  0  0  0  0
  161.1340  202.0780  151.0370 C   0  0  0  0  0  3  0  0  0  0  0  0
  1 20  1  1  0  0  0
  2  4  2  0  0  0  0
  3 12  1  0  0  0  0
  4  3  1  0  0  0  0
  5 19  1  0  0  0  0
  6 21  1  0  0  0  0
  7 17  2  0  0  0  0
  8 11  2  0  0  0  0
  8  1  1  0  0  0  0
  9 16  1  0  0  0  0
  9  7  1  0  0  0  0
 10  4  1  0  0  0  0
 12  5  1  0  0  0  0
 12 48  1  1  0  0  0
 13 14  1  0  0  0  0
 14 46  1  1  0  0  0
 14  1  1  0  0  0  0
 15 16  2  0  0  0  0
 16 10  1  0  0  0  0
 17 21  1  0  0  0  0
 17 13  1  0  0  0  0
 18  6  1  1  0  0  0
 18  7  1  0  0  0  0
 19  8  1  0  0  0  0
 19 24  1  1  0  0  0
 23 22  1  0  0  0  0
 24 26  1  0  0  0  0
 25 26  2  0  0  0  0
 25 28  1  0  0  0  0
 26 23  1  0  0  0  0
 28 27  1  0  0  0  0
 28 22  1  0  0  0  0
 29 36  1  6  0  0  0
 29 30  1  0  0  0  0
 29 32  1  0  0  0  0
 30 32  1  0  0  0  0
 30 18  1  1  0  0  0
 32 31  1  6  0  0  0
 34 33  1  6  0  0  0
 34 36  1  0  0  0  0
 35 37  1  1  0  0  0
 35 34  1  0  0  0  0
 35 36  1  0  0  0  0
 36 33  1  1  0  0  0
 37 39  1  6  0  0  0
 39 38  1  0  0  0  0
 40 39  2  0  0  0  0
 41 42  1  1  0  0  0
 41 37  1  0  0  0  0
 43 44  2  0  0  0  0
 44 41  1  0  0  0  0
 45 44  1  0  0  0  0
 46 47  1  0  0  0  0
 49 50  1  6  0  0  0
 49 48  1  0  0  0  0
 51 55  1  0  0  0  0
 52 56  1  0  0  0  0
 53 57  1  0  0  0  0
 54 53  2  0  0  0  0
 55 57  2  0  0  0  0
 55 49  1  0  0  0  0
 56 54  1  0  0  0  0
 56 51  2  0  0  0  0
M  END
>  <MODEL>
1

>  <REMARK>
 VINA RESULT:      -1.9      0.000      0.000
  Name = 
  11 active torsions:
  status: ('A' for Active; 'I' for Inactive)
    1  A    between atoms: N_10  and  C_54
    2  A    between atoms: C_11  and  C_48
    3  A    between atoms: C_14  and  C_46
    4  A    between atoms: C_22  and  C_38
    5  A    between atoms: C_24  and  C_33
    6  A    between atoms: C_24  and  C_48
    7  A    between atoms: C_25  and  C_30
    8  A    between atoms: C_25  and  C_40
    9  A    between atoms: C_28  and  C_52
   10  A    between atoms: C_34  and  C_48
   11  A    between atoms: C_36  and  C_40
                            x       y       z     vdW  Elec       q    Type
                         _______ _______ _______ _____ _____    ______ ____

>  <TORSDO>
F 11

$$$$
=
 OpenBabel11072414083D

 57 63  0  0  1  0  0  0  0  0999 V2000
  161.2550  207.5250  148.9650 C   0  0  1  0  0  3  0  0  0  0  0  0
  159.5780  204.2180  152.8800 O   0  0  0  0  0  0  0  0  0  0  0  0
  161.6470  203.2660  152.2060 C   0  0  0  0  0  2  0  0  0  0  0  0
  160.8240  204.3640  152.7790 C   0  0  0  0  0  0  0  0  0  0  0  0
  162.5870  204.4210  150.3190 O   0  0  0  0  0  0  0  0  0  0  0  0
  158.9320  210.6420  153.3420 C   0  0  0  0  0  2  0  0  0  0  0  0
  160.7780  209.0850  153.4510 C   0  0  0  0  0  0  0  0  0  0  0  0
  162.3370  206.5090  149.2040 C   0  0  0  0  0  0  0  0  0  0  0  0
  161.5390  207.9430  154.0470 C   0  0  0  0  0  2  0  0  0  0  0  0
  161.4550  205.5890  153.1620 N   0  0  0  0  0  2  0  0  0  0  0  0
  163.5090  206.8490  149.2710 O   0  0  0  0  0  0  0  0  0  0  0  0
  161.7200  203.3810  150.6910 C   0  0  1  0  0  3  0  0  0  0  0  0
  161.3180  208.4640  151.2140 O   0  0  0  0  0  0  0  0  0  0  0  0
  161.3500  208.7890  149.8310 C   0  0  1  0  0  3  0  0  0  0  0  0
  159.6530  206.5110  154.3430 O   0  0  0  0  0  0  0  0  0  0  0  0
  160.8100  206.6560  153.8620 C   0  0  0  0  0  0  0  0  0  0  0  0
  160.7000  209.3010  152.1470 C   0  0  0  0  0  0  0  0  0  0  0  0
  159.9310  209.9920  154.2900 C   0  0  1  0  0  3  0  0  0  0  0  0
  161.9780  205.0550  149.2270 C   0  0  1  0  0  3  0  0  0  0  0  0
  161.1990  207.8590  147.6100 O   0  0  0  0  0  1  0  0  0  0  0  0
  159.6860  210.6980  151.6820 S   0  0  0  0  0  0  0  0  0  0  0  0
  161.0290  204.8160  144.3230 C   0  0  0  0  0  2  0  0  0  0  0  0
  162.4220  204.0170  145.2000 S   0  0  0  0  0  0  0  0  0  0  0  0
  162.4180  204.4300  147.9860 N   0  0  0  0  0  2  0  0  0  0  0  0
  160.6850  205.3460  146.6420 N   0  0  0  0  0  0  0  0  0  0  0  0
  161.7760  204.6690  146.7330 C   0  0  0  0  0  0  0  0  0  0  0  0
  159.0150  206.2100  145.0150 C   0  0  0  0  0  1  0  0  0  0  0  0
  160.2150  205.4610  145.3360 N   0  0  0  0  0  0  0  0  0  0  0  0
  159.7350  211.9050  155.9810 C   0  0  1  0  0  3  0  0  0  0  0  0
  160.6640  211.0840  155.1030 C   0  0  1  0  0  3  0  0  0  0  0  0
  161.9490  211.3630  157.2000 C   0  0  0  0  0  1  0  0  0  0  0  0
  160.6530  210.8360  156.6000 C   0  0  1  0  0  3  0  0  0  0  0  0
  160.9630  213.5570  157.2580 O   0  0  0  0  0  0  0  0  0  0  0  0
  159.6190  213.9730  157.2600 C   0  0  1  0  0  3  0  0  0  0  0  0
  159.2040  214.4530  155.8850 C   0  0  1  0  0  3  0  0  0  0  0  0
  160.2460  213.3490  156.0650 C   0  0  2  0  0  0  0  0  0  0  0  0
  157.7830  213.9670  155.5520 C   0  0  2  0  0  3  0  0  0  0  0  0
  155.9630  213.8260  157.2510 O   0  0  0  0  0  1  0  0  0  0  0  0
  157.1310  213.2950  156.7210 C   0  0  0  0  0  0  0  0  0  0  0  0
  157.6040  212.2270  157.1990 O   0  0  0  0  0  0  0  0  0  0  0  0
  157.7160  213.0750  154.3040 C   0  0  1  0  0  3  0  0  0  0  0  0
  156.6680  212.1580  154.4070 O   0  0  0  0  0  1  0  0  0  0  0  0
  158.7490  214.1450  152.2850 O   0  0  0  0  0  0  0  0  0  0  0  0
  157.6110  213.8420  153.0230 C   0  0  0  0  0  0  0  0  0  0  0  0
  156.4800  214.2060  152.6060 O   0  0  0  0  0  1  0  0  0  0  0  0
  162.5760  209.6450  149.5270 C   0  0  0  0  0  2  0  0  0  0  0  0
  162.1990  210.9800  149.3640 O   0  0  0  0  0  1  0  0  0  0  0  0
  162.1570  202.0460  150.0820 C   0  0  0  0  0  2  0  0  0  0  0  0
  160.9790  201.1490  149.7030 C   0  0  1  0  0  3  0  0  0  0  0  0
  159.6840  201.7710  150.1930 C   0  0  0  0  0  1  0  0  0  0  0  0
  161.4870  199.7520  147.6580 C   0  0  0  0  0  3  0  0  0  0  0  0
  161.9390  198.4170  145.7360 F   0  0  0  0  0  0  0  0  0  0  0  0
  160.1950  201.6210  146.0260 C   0  0  0  0  0  3  0  0  0  0  0  0
  160.7540  200.4680  145.4640 C   0  0  0  0  0  3  0  0  0  0  0  0
  160.9280  200.9080  148.2260 C   0  0  0  0  0  0  0  0  0  0  0  0
  161.4000  199.5340  146.2800 C   0  0  0  0  0  0  0  0  0  0  0  0
  160.2840  201.8400  147.4030 C   0  0  0  0  0  3  0  0  0  0  0  0
  1 20  1  6  0  0  0
  1  8  1  0  0  0  0
  1 14  1  0  0  0  0
  3  4  1  0  0  0  0
  4  2  2  0  0  0  0
  4 10  1  0  0  0  0
  5 12  1  0  0  0  0
  7  9  1  0  0  0  0
  7 18  1  0  0  0  0
  8 19  1  0  0  0  0
  8 11  2  0  0  0  0
 10 16  1  0  0  0  0
 12 48  1  6  0  0  0
 12  3  1  0  0  0  0
 13 17  1  0  0  0  0
 14 46  1  1  0  0  0
 14 13  1  0  0  0  0
 16  9  1  0  0  0  0
 16 15  2  0  0  0  0
 17  7  2  0  0  0  0
 18  6  1  6  0  0  0
 19 24  1  6  0  0  0
 19  5  1  0  0  0  0
 21 17  1  0  0  0  0
 21  6  1  0  0  0  0
 22 23  1  0  0  0  0
 22 28  1  0  0  0  0
 23 26  1  0  0  0  0
 25 26  2  0  0  0  0
 26 24  1  0  0  0  0
 27 28  1  0  0  0  0
 28 25  1  0  0  0  0
 29 36  1  1  0  0  0
 29 32  1  0  0  0  0
 30 18  1  6  0  0  0
 30 29  1  0  0  0  0
 30 32  1  0  0  0  0
 32 31  1  1  0  0  0
 34 33  1  1  0  0  0
 35 37  1  6  0  0  0
 35 36  1  0  0  0  0
 35 34  1  0  0  0  0
 36 33  1  6  0  0  0
 36 34  1  0  0  0  0
 37 39  1  1  0  0  0
 39 40  2  0  0  0  0
 39 38  1  0  0  0  0
 41 42  1  1  0  0  0
 41 37  1  0  0  0  0
 43 44  2  0  0  0  0
 44 41  1  0  0  0  0
 45 44  1  0  0  0  0
 47 46  1  0  0  0  0
 49 48  1  0  0  0  0
 49 50  1  6  0  0  0
 51 55  1  0  0  0  0
 52 56  1  0  0  0  0
 53 57  1  0  0  0  0
 54 53  2  0  0  0  0
 54 56  1  0  0  0  0
 55 49  1  0  0  0  0
 56 51  2  0  0  0  0
 57 55  2  0  0  0  0
M  END
>  <MODEL>
2

>  <REMARK>
 VINA RESULT:       0.4      4.727      8.954
  Name = 
  11 active torsions:
  status: ('A' for Active; 'I' for Inactive)
    1  A    between atoms: N_10  and  C_54
    2  A    between atoms: C_11  and  C_48
    3  A    between atoms: C_14  and  C_46
    4  A    between atoms: C_22  and  C_38
    5  A    between atoms: C_24  and  C_33
    6  A    between atoms: C_24  and  C_48
    7  A    between atoms: C_25  and  C_30
    8  A    between atoms: C_25  and  C_40
    9  A    between atoms: C_28  and  C_52
   10  A    between atoms: C_34  and  C_48
   11  A    between atoms: C_36  and  C_40
                            x       y       z     vdW  Elec       q    Type
                         _______ _______ _______ _____ _____    ______ ____

>  <TORSDO>
F 11

$$$$
