=
 OpenBabel11072410523D

 40 43  0  0  1  0  0  0  0  0999 V2000
  161.2040  206.3290  150.4070 N   0  0  0  0  0  0  0  0  0  0  0  0
  162.4380  208.0520  151.0500 N   0  0  0  0  0  0  0  0  0  0  0  0
  160.3980  205.2140  150.4310 O   0  0  0  0  0  1  0  0  0  0  0  0
  161.4360  207.1510  149.3730 C   0  0  0  0  0  0  0  0  0  0  0  0
  162.1850  208.2060  149.7560 N   0  0  0  0  0  0  0  0  0  0  0  0
  161.8360  206.9100  151.4380 C   0  0  0  0  0  0  0  0  0  0  0  0
  161.7960  206.4250  152.8520 C   0  0  0  0  0  2  0  0  0  0  0  0
  160.7940  207.1850  153.6650 C   0  0  0  0  0  3  0  0  0  0  0  0
  161.1110  207.6830  154.8580 C   0  0  0  0  0  3  0  0  0  0  0  0
  160.1000  208.4220  155.6670 C   0  0  0  0  0  2  0  0  0  0  0  0
  160.7120  209.6790  156.2770 C   0  0  2  0  0  3  0  0  0  0  0  0
  159.4290  211.9190  156.2260 C   0  0  1  0  0  3  0  0  0  0  0  0
  160.2370  210.8870  155.6010 N   0  0  0  0  0  0  0  0  0  0  0  0
  159.9240  212.6110  153.9970 C   0  0  1  0  0  3  0  0  0  0  0  0
  159.2160  212.9900  155.2330 N   0  0  0  0  0  2  0  0  0  0  0  0
  160.5540  211.3100  154.2980 C   0  0  0  0  0  0  0  0  0  0  0  0
  161.3110  210.6730  153.5180 O   0  0  0  0  0  0  0  0  0  0  0  0
  157.6990  213.3750  153.0440 C   0  0  0  0  0  1  0  0  0  0  0  0
  159.6520  213.0880  151.5610 C   0  0  0  0  0  1  0  0  0  0  0  0
  158.5900  211.2280  152.5540 O   0  0  0  0  0  1  0  0  0  0  0  0
  158.9570  212.5520  152.7980 C   0  0  0  0  0  0  0  0  0  0  0  0
  158.0870  211.3480  156.6630 C   0  0  0  0  0  2  0  0  0  0  0  0
  157.4040  210.8400  155.5570 O   0  0  0  0  0  1  0  0  0  0  0  0
  162.7900  210.7870  156.6670 O   0  0  0  0  0  1  0  0  0  0  0  0
  162.2280  209.5900  156.2230 C   0  0  0  0  0  2  0  0  0  0  0  0
  160.8320  207.0040  148.0180 C   0  0  0  0  0  2  0  0  0  0  0  0
  161.5760  203.8310  146.3900 C   0  0  2  0  0  3  0  0  0  0  0  0
  161.2310  206.1950  145.6750 C   0  0  0  0  0  2  0  0  0  0  0  0
  161.9420  204.2640  147.6790 O   0  0  0  0  0  0  0  0  0  0  0  0
  161.8890  206.5880  146.9990 C   0  0  2  0  0  3  0  0  0  0  0  0
  160.5850  204.8130  145.7600 C   0  0  0  0  0  2  0  0  0  0  0  0
  162.7360  205.4130  147.5110 C   0  0  0  0  0  2  0  0  0  0  0  0
  159.9840  200.5680  145.1330 C   0  0  0  0  0  1  0  0  0  0  0  0
  160.5900  201.9200  145.2940 C   0  0  0  0  0  3  0  0  0  0  0  0
  160.9860  202.4560  146.4550 C   0  0  0  0  0  0  0  0  0  0  0  0
  161.2430  200.4270  149.3570 N   0  0  0  0  0  0  0  0  0  0  0  0
  160.1540  201.1760  149.6280 C   0  0  0  0  0  3  0  0  0  0  0  0
  159.9120  202.0230  148.6080 N   0  0  0  0  0  0  0  0  0  0  0  0
  161.6640  200.8210  148.1660 N   0  0  0  0  0  0  0  0  0  0  0  0
  160.8660  201.7770  147.7240 N   0  0  0  0  0  0  0  0  0  0  0  0
  1  3  1  0  0  0  0
  1  6  1  0  0  0  0
  2  6  2  0  0  0  0
  4  5  2  0  0  0  0
  4  1  1  0  0  0  0
  5  2  1  0  0  0  0
  6  7  1  0  0  0  0
  7  8  1  0  0  0  0
  8  9  2  0  0  0  0
  9 10  1  0  0  0  0
 11 10  1  6  0  0  0
 12 22  1  6  0  0  0
 13 12  1  0  0  0  0
 13 11  1  0  0  0  0
 14 21  1  6  0  0  0
 14 16  1  0  0  0  0
 14 15  1  0  0  0  0
 15 12  1  0  0  0  0
 16 13  1  0  0  0  0
 17 16  2  0  0  0  0
 19 21  1  0  0  0  0
 20 21  1  0  0  0  0
 21 18  1  0  0  0  0
 23 22  1  0  0  0  0
 25 11  1  0  0  0  0
 25 24  1  0  0  0  0
 26  4  1  0  0  0  0
 27 35  1  1  0  0  0
 27 29  1  0  0  0  0
 28 31  1  0  0  0  0
 28 30  1  0  0  0  0
 30 32  1  0  0  0  0
 30 26  1  1  0  0  0
 31 27  1  0  0  0  0
 32 29  1  0  0  0  0
 33 34  1  0  0  0  0
 34 35  2  0  0  0  0
 35 40  1  0  0  0  0
 36 37  1  0  0  0  0
 38 37  2  0  0  0  0
 39 36  2  0  0  0  0
 40 39  1  0  0  0  0
 40 38  1  0  0  0  0
M  END
>  <MODEL>
1

>  <REMARK>
 VINA RESULT:      -7.3      0.000      0.000
  Name = 
  12 active torsions:
  status: ('A' for Active; 'I' for Inactive)
    1  A    between atoms: C_1  and  C_28
    2  A    between atoms: C_1  and  CA_30
    3  A    between atoms: C_2  and  C_26
    4  A    between atoms: C_8  and  C_11
    5  A    between atoms: C_9  and  C_40
    6  A    between atoms: C_14  and  C_37
    7  A    between atoms: C_15  and  C_40
    8  A    between atoms: N_19  and  CA_30
    9  A    between atoms: CA_21  and  C_33
   10  A    between atoms: C_26  and  N_38
   11  A    between atoms: CA_30  and  C_39
   12  A    between atoms: C_35  and  C_37
                            x       y       z     vdW  Elec       q    Type
                         _______ _______ _______ _____ _____    ______ ____

>  <TORSDO>
F 12

$$$$
=
 OpenBabel11072410523D

 40 43  0  0  1  0  0  0  0  0999 V2000
  161.3150  207.5590  152.8570 N   0  0  0  0  0  0  0  0  0  0  0  0
  161.8420  209.0250  151.2830 N   0  0  0  0  0  0  0  0  0  0  0  0
  160.7300  206.9680  153.9520 O   0  0  0  0  0  1  0  0  0  0  0  0
  161.9940  206.9610  151.8670 C   0  0  0  0  0  0  0  0  0  0  0  0
  162.3170  207.8460  150.9010 N   0  0  0  0  0  0  0  0  0  0  0  0
  161.2330  208.8410  152.4710 C   0  0  0  0  0  0  0  0  0  0  0  0
  160.4790  209.9090  153.1970 C   0  0  0  0  0  2  0  0  0  0  0  0
  160.5510  211.2200  152.4750 C   0  0  0  0  0  3  0  0  0  0  0  0
  159.4610  211.9590  152.2810 C   0  0  0  0  0  3  0  0  0  0  0  0
  159.5400  213.2530  151.5460 C   0  0  0  0  0  2  0  0  0  0  0  0
  158.3660  213.3990  150.5840 C   0  0  2  0  0  3  0  0  0  0  0  0
  157.9450  213.8850  148.0840 C   0  0  1  0  0  3  0  0  0  0  0  0
  158.8190  213.7320  149.2330 N   0  0  0  0  0  0  0  0  0  0  0  0
  160.1740  214.3870  147.3940 C   0  0  1  0  0  3  0  0  0  0  0  0
  158.7790  214.2790  146.9310 N   0  0  0  0  0  2  0  0  0  0  0  0
  160.1270  214.0580  148.8330 C   0  0  0  0  0  0  0  0  0  0  0  0
  161.1110  214.1000  149.6190 O   0  0  0  0  0  0  0  0  0  0  0  0
  160.9890  212.0090  147.0510 C   0  0  0  0  0  1  0  0  0  0  0  0
  160.7340  213.5240  145.1200 C   0  0  0  0  0  1  0  0  0  0  0  0
  162.4250  213.8740  146.7300 O   0  0  0  0  0  1  0  0  0  0  0  0
  161.1010  213.4550  146.5900 C   0  0  0  0  0  0  0  0  0  0  0  0
  157.2350  212.5740  147.7800 C   0  0  0  0  0  2  0  0  0  0  0  0
  157.1180  212.4050  146.4000 O   0  0  0  0  0  1  0  0  0  0  0  0
  156.6740  213.9400  152.1780 O   0  0  0  0  0  1  0  0  0  0  0  0
  157.4040  214.4530  151.1060 C   0  0  0  0  0  2  0  0  0  0  0  0
  162.2360  205.4920  151.7680 C   0  0  0  0  0  2  0  0  0  0  0  0
  160.7350  202.9740  149.6050 C   0  0  2  0  0  3  0  0  0  0  0  0
  161.1810  203.2310  152.0460 C   0  0  0  0  0  2  0  0  0  0  0  0
  160.7500  204.3730  149.4450 O   0  0  0  0  0  0  0  0  0  0  0  0
  160.9190  204.7240  151.8360 C   0  0  2  0  0  3  0  0  0  0  0  0
  161.6550  202.5600  150.7580 C   0  0  0  0  0  2  0  0  0  0  0  0
  160.0860  204.9170  150.5600 C   0  0  0  0  0  2  0  0  0  0  0  0
  161.5980  200.1040  147.2010 C   0  0  0  0  0  1  0  0  0  0  0  0
  161.2130  200.9670  148.3550 C   0  0  0  0  0  3  0  0  0  0  0  0
  161.1500  202.3040  148.3330 C   0  0  0  0  0  0  0  0  0  0  0  0
  161.4730  203.8140  145.1360 N   0  0  0  0  0  0  0  0  0  0  0  0
  162.3240  204.5460  145.8850 C   0  0  0  0  0  3  0  0  0  0  0  0
  162.3210  204.0980  147.1560 N   0  0  0  0  0  0  0  0  0  0  0  0
  160.9500  202.9180  145.9570 N   0  0  0  0  0  0  0  0  0  0  0  0
  161.4600  203.0930  147.1640 N   0  0  0  0  0  0  0  0  0  0  0  0
  1  3  1  0  0  0  0
  2  6  2  0  0  0  0
  4  1  1  0  0  0  0
  5  2  1  0  0  0  0
  5  4  2  0  0  0  0
  6  1  1  0  0  0  0
  6  7  1  0  0  0  0
  8  7  1  0  0  0  0
  9  8  2  0  0  0  0
 10  9  1  0  0  0  0
 11 25  1  1  0  0  0
 11 10  1  0  0  0  0
 12 22  1  6  0  0  0
 12 13  1  0  0  0  0
 13 11  1  0  0  0  0
 14 21  1  6  0  0  0
 14 16  1  0  0  0  0
 15 14  1  0  0  0  0
 15 12  1  0  0  0  0
 16 13  1  0  0  0  0
 16 17  2  0  0  0  0
 19 21  1  0  0  0  0
 21 20  1  0  0  0  0
 21 18  1  0  0  0  0
 23 22  1  0  0  0  0
 25 24  1  0  0  0  0
 26  4  1  0  0  0  0
 27 35  1  6  0  0  0
 27 31  1  0  0  0  0
 29 27  1  0  0  0  0
 29 32  1  0  0  0  0
 30 26  1  6  0  0  0
 30 28  1  0  0  0  0
 31 28  1  0  0  0  0
 32 30  1  0  0  0  0
 33 34  1  0  0  0  0
 35 34  2  0  0  0  0
 36 37  1  0  0  0  0
 36 39  2  0  0  0  0
 37 38  2  0  0  0  0
 38 40  1  0  0  0  0
 39 40  1  0  0  0  0
 40 35  1  0  0  0  0
M  END
>  <MODEL>
2

>  <REMARK>
 VINA RESULT:      -7.0      3.530      5.609
  Name = 
  12 active torsions:
  status: ('A' for Active; 'I' for Inactive)
    1  A    between atoms: C_1  and  C_28
    2  A    between atoms: C_1  and  CA_30
    3  A    between atoms: C_2  and  C_26
    4  A    between atoms: C_8  and  C_11
    5  A    between atoms: C_9  and  C_40
    6  A    between atoms: C_14  and  C_37
    7  A    between atoms: C_15  and  C_40
    8  A    between atoms: N_19  and  CA_30
    9  A    between atoms: CA_21  and  C_33
   10  A    between atoms: C_26  and  N_38
   11  A    between atoms: CA_30  and  C_39
   12  A    between atoms: C_35  and  C_37
                            x       y       z     vdW  Elec       q    Type
                         _______ _______ _______ _____ _____    ______ ____

>  <TORSDO>
F 12

$$$$
=
 OpenBabel11072410523D

 40 43  0  0  1  0  0  0  0  0999 V2000
  162.3290  207.6610  149.8110 N   0  0  0  0  0  0  0  0  0  0  0  0
  161.7280  209.4250  151.0080 N   0  0  0  0  0  0  0  0  0  0  0  0
  162.8280  206.8740  148.7990 O   0  0  0  0  0  1  0  0  0  0  0  0
  162.0620  207.3010  151.0750 C   0  0  0  0  0  0  0  0  0  0  0  0
  161.6980  208.3700  151.8130 N   0  0  0  0  0  0  0  0  0  0  0  0
  162.1150  208.9860  149.7940 C   0  0  0  0  0  0  0  0  0  0  0  0
  162.3700  209.8810  148.6250 C   0  0  0  0  0  2  0  0  0  0  0  0
  161.7110  211.2150  148.8000 C   0  0  0  0  0  3  0  0  0  0  0  0
  162.2880  212.3310  148.3590 C   0  0  0  0  0  3  0  0  0  0  0  0
  161.6320  213.6550  148.5560 C   0  0  0  0  0  2  0  0  0  0  0  0
  160.1180  213.5330  148.4200 C   0  0  2  0  0  3  0  0  0  0  0  0
  158.2890  213.9250  146.6410 C   0  0  1  0  0  3  0  0  0  0  0  0
  159.6770  213.8300  147.0570 N   0  0  0  0  0  0  0  0  0  0  0  0
  159.6650  214.4530  144.7650 C   0  0  1  0  0  3  0  0  0  0  0  0
  158.2700  214.3000  145.2130 N   0  0  0  0  0  2  0  0  0  0  0  0
  160.4860  214.1710  145.9590 C   0  0  0  0  0  0  0  0  0  0  0  0
  161.7420  214.2610  146.0140 O   0  0  0  0  0  0  0  0  0  0  0  0
  159.8940  212.0490  143.9840 C   0  0  0  0  0  1  0  0  0  0  0  0
  158.9810  213.7650  142.4640 C   0  0  0  0  0  1  0  0  0  0  0  0
  161.2560  213.7810  143.0940 O   0  0  0  0  0  1  0  0  0  0  0  0
  159.9760  213.5150  143.5810 C   0  0  0  0  0  0  0  0  0  0  0  0
  157.5850  212.5900  146.8330 C   0  0  0  0  0  2  0  0  0  0  0  0
  156.9740  212.5500  148.0860 O   0  0  0  0  0  1  0  0  0  0  0  0
  159.1330  213.7440  150.5840 O   0  0  0  0  0  1  0  0  0  0  0  0
  159.4370  214.4510  149.4210 C   0  0  0  0  0  2  0  0  0  0  0  0
  162.2770  205.9350  151.6320 C   0  0  0  0  0  2  0  0  0  0  0  0
  160.7040  203.2660  149.7140 C   0  0  2  0  0  3  0  0  0  0  0  0
  161.1870  203.7250  152.1180 C   0  0  0  0  0  2  0  0  0  0  0  0
  160.7420  204.6460  149.4330 O   0  0  0  0  0  0  0  0  0  0  0  0
  160.9490  205.1990  151.7820 C   0  0  2  0  0  3  0  0  0  0  0  0
  161.6320  202.9370  150.8870 C   0  0  0  0  0  2  0  0  0  0  0  0
  160.1020  205.2960  150.5040 C   0  0  0  0  0  2  0  0  0  0  0  0
  161.4800  200.1830  147.5570 C   0  0  0  0  0  1  0  0  0  0  0  0
  161.1260  201.1490  148.6360 C   0  0  0  0  0  3  0  0  0  0  0  0
  161.0910  202.4810  148.5000 C   0  0  0  0  0  0  0  0  0  0  0  0
  162.2860  204.5310  145.8590 N   0  0  0  0  0  0  0  0  0  0  0  0
  161.3930  203.7410  145.2260 C   0  0  0  0  0  3  0  0  0  0  0  0
  160.8360  202.8810  146.1030 N   0  0  0  0  0  0  0  0  0  0  0  0
  162.2720  204.1480  147.1250 N   0  0  0  0  0  0  0  0  0  0  0  0
  161.4040  203.1610  147.2650 N   0  0  0  0  0  0  0  0  0  0  0  0
  1  4  1  0  0  0  0
  2  5  1  0  0  0  0
  3  1  1  0  0  0  0
  4 26  1  0  0  0  0
  4  5  2  0  0  0  0
  6  1  1  0  0  0  0
  6  2  2  0  0  0  0
  7  8  1  0  0  0  0
  7  6  1  0  0  0  0
  9 10  1  0  0  0  0
  9  8  2  0  0  0  0
 11 10  1  6  0  0  0
 11 25  1  0  0  0  0
 12 22  1  6  0  0  0
 12 13  1  0  0  0  0
 13 11  1  0  0  0  0
 14 21  1  6  0  0  0
 14 15  1  0  0  0  0
 14 16  1  0  0  0  0
 15 12  1  0  0  0  0
 16 17  2  0  0  0  0
 16 13  1  0  0  0  0
 19 21  1  0  0  0  0
 20 21  1  0  0  0  0
 21 18  1  0  0  0  0
 22 23  1  0  0  0  0
 25 24  1  0  0  0  0
 27 35  1  6  0  0  0
 27 31  1  0  0  0  0
 29 27  1  0  0  0  0
 29 32  1  0  0  0  0
 30 26  1  6  0  0  0
 30 28  1  0  0  0  0
 31 28  1  0  0  0  0
 32 30  1  0  0  0  0
 33 34  1  0  0  0  0
 35 34  2  0  0  0  0
 36 39  2  0  0  0  0
 37 36  1  0  0  0  0
 37 38  2  0  0  0  0
 38 40  1  0  0  0  0
 39 40  1  0  0  0  0
 40 35  1  0  0  0  0
M  END
>  <MODEL>
3

>  <REMARK>
 VINA RESULT:      -6.4      4.435      6.629
  Name = 
  12 active torsions:
  status: ('A' for Active; 'I' for Inactive)
    1  A    between atoms: C_1  and  C_28
    2  A    between atoms: C_1  and  CA_30
    3  A    between atoms: C_2  and  C_26
    4  A    between atoms: C_8  and  C_11
    5  A    between atoms: C_9  and  C_40
    6  A    between atoms: C_14  and  C_37
    7  A    between atoms: C_15  and  C_40
    8  A    between atoms: N_19  and  CA_30
    9  A    between atoms: CA_21  and  C_33
   10  A    between atoms: C_26  and  N_38
   11  A    between atoms: CA_30  and  C_39
   12  A    between atoms: C_35  and  C_37
                            x       y       z     vdW  Elec       q    Type
                         _______ _______ _______ _____ _____    ______ ____

>  <TORSDO>
F 12

$$$$
=
 OpenBabel11072410523D

 40 43  0  0  1  0  0  0  0  0999 V2000
  160.8410  209.0910  154.2620 N   0  0  0  0  0  0  0  0  0  0  0  0
  160.7500  208.0420  156.2110 N   0  0  0  0  0  0  0  0  0  0  0  0
  160.8060  209.3490  152.9110 O   0  0  0  0  0  1  0  0  0  0  0  0
  160.7800  209.9750  155.2680 C   0  0  0  0  0  0  0  0  0  0  0  0
  160.7220  209.3460  156.4600 N   0  0  0  0  0  0  0  0  0  0  0  0
  160.8210  207.8960  154.8720 C   0  0  0  0  0  0  0  0  0  0  0  0
  160.7730  206.5760  154.1730 C   0  0  0  0  0  2  0  0  0  0  0  0
  161.5680  206.5970  152.9030 C   0  0  0  0  0  3  0  0  0  0  0  0
  161.1150  206.0100  151.7980 C   0  0  0  0  0  3  0  0  0  0  0  0
  161.9230  206.0220  150.5450 C   0  0  0  0  0  2  0  0  0  0  0  0
  161.0170  206.1040  149.3210 C   0  0  2  0  0  3  0  0  0  0  0  0
  161.6200  205.2430  146.9630 C   0  0  1  0  0  3  0  0  0  0  0  0
  161.3090  205.0340  148.3660 N   0  0  0  0  0  0  0  0  0  0  0  0
  161.7930  202.9080  147.4240 C   0  0  1  0  0  3  0  0  0  0  0  0
  161.9110  203.9250  146.3640 N   0  0  0  0  0  2  0  0  0  0  0  0
  161.4410  203.6630  148.6430 C   0  0  0  0  0  0  0  0  0  0  0  0
  161.3140  203.1640  149.7930 O   0  0  0  0  0  0  0  0  0  0  0  0
  160.3410  201.9270  145.5890 C   0  0  0  0  0  1  0  0  0  0  0  0
  161.3310  200.4570  147.3080 C   0  0  0  0  0  1  0  0  0  0  0  0
  159.6160  201.9860  147.8510 O   0  0  0  0  0  1  0  0  0  0  0  0
  160.7510  201.8350  147.0530 C   0  0  0  0  0  0  0  0  0  0  0  0
  160.4410  205.8850  146.2480 C   0  0  0  0  0  2  0  0  0  0  0  0
  160.6210  205.8030  144.8670 O   0  0  0  0  0  1  0  0  0  0  0  0
  162.4530  207.9570  148.8710 O   0  0  0  0  0  1  0  0  0  0  0  0
  161.1630  207.4680  148.6660 C   0  0  0  0  0  2  0  0  0  0  0  0
  160.6480  211.4500  155.0950 C   0  0  0  0  0  2  0  0  0  0  0  0
  158.1100  213.1590  153.1170 C   0  0  2  0  0  3  0  0  0  0  0  0
  158.2160  211.1280  154.5610 C   0  0  0  0  0  2  0  0  0  0  0  0
  159.2140  213.7110  153.7960 O   0  0  0  0  0  0  0  0  0  0  0  0
  159.2260  211.9040  155.4090 C   0  0  2  0  0  3  0  0  0  0  0  0
  158.1960  211.6300  153.1180 C   0  0  0  0  0  2  0  0  0  0  0  0
  159.0440  213.4090  155.1600 C   0  0  0  0  0  2  0  0  0  0  0  0
  159.3890  214.3280  149.6880 C   0  0  0  0  0  1  0  0  0  0  0  0
  159.2220  213.8280  151.0830 C   0  0  0  0  0  3  0  0  0  0  0  0
  158.0510  213.6830  151.7160 C   0  0  0  0  0  0  0  0  0  0  0  0
  154.6850  214.4530  150.8890 N   0  0  0  0  0  0  0  0  0  0  0  0
  155.2780  214.4230  149.6770 C   0  0  0  0  0  3  0  0  0  0  0  0
  156.5890  214.1420  149.8120 N   0  0  0  0  0  0  0  0  0  0  0  0
  155.6420  214.1890  151.7640 N   0  0  0  0  0  0  0  0  0  0  0  0
  156.7780  214.0050  151.1150 N   0  0  0  0  0  0  0  0  0  0  0  0
  1  6  1  0  0  0  0
  1  4  1  0  0  0  0
  2  5  1  0  0  0  0
  3  1  1  0  0  0  0
  4  5  2  0  0  0  0
  6  2  2  0  0  0  0
  7  6  1  0  0  0  0
  8  7  1  0  0  0  0
  9  8  2  0  0  0  0
 10  9  1  0  0  0  0
 11 25  1  6  0  0  0
 11 10  1  0  0  0  0
 12 22  1  6  0  0  0
 12 13  1  0  0  0  0
 13 16  1  0  0  0  0
 13 11  1  0  0  0  0
 14 21  1  6  0  0  0
 14 16  1  0  0  0  0
 15 12  1  0  0  0  0
 15 14  1  0  0  0  0
 16 17  2  0  0  0  0
 18 21  1  0  0  0  0
 21 19  1  0  0  0  0
 21 20  1  0  0  0  0
 23 22  1  0  0  0  0
 25 24  1  0  0  0  0
 26  4  1  0  0  0  0
 27 35  1  6  0  0  0
 27 31  1  0  0  0  0
 27 29  1  0  0  0  0
 28 30  1  0  0  0  0
 29 32  1  0  0  0  0
 30 26  1  6  0  0  0
 31 28  1  0  0  0  0
 32 30  1  0  0  0  0
 33 34  1  0  0  0  0
 34 35  2  0  0  0  0
 36 39  2  0  0  0  0
 37 38  2  0  0  0  0
 37 36  1  0  0  0  0
 38 40  1  0  0  0  0
 40 35  1  0  0  0  0
 40 39  1  0  0  0  0
M  END
>  <MODEL>
4

>  <REMARK>
 VINA RESULT:      -5.9      2.608     10.502
  Name = 
  12 active torsions:
  status: ('A' for Active; 'I' for Inactive)
    1  A    between atoms: C_1  and  C_28
    2  A    between atoms: C_1  and  CA_30
    3  A    between atoms: C_2  and  C_26
    4  A    between atoms: C_8  and  C_11
    5  A    between atoms: C_9  and  C_40
    6  A    between atoms: C_14  and  C_37
    7  A    between atoms: C_15  and  C_40
    8  A    between atoms: N_19  and  CA_30
    9  A    between atoms: CA_21  and  C_33
   10  A    between atoms: C_26  and  N_38
   11  A    between atoms: CA_30  and  C_39
   12  A    between atoms: C_35  and  C_37
                            x       y       z     vdW  Elec       q    Type
                         _______ _______ _______ _____ _____    ______ ____

>  <TORSDO>
F 12

$$$$
=
 OpenBabel11072410523D

 40 43  0  0  1  0  0  0  0  0999 V2000
  161.7230  207.7670  150.2870 N   0  0  0  0  0  0  0  0  0  0  0  0
  162.3470  209.8350  149.7980 N   0  0  0  0  0  0  0  0  0  0  0  0
  161.3470  206.6440  150.9860 O   0  0  0  0  0  1  0  0  0  0  0  0
  161.5830  208.0010  148.9740 C   0  0  0  0  0  0  0  0  0  0  0  0
  161.9580  209.2600  148.6660 N   0  0  0  0  0  0  0  0  0  0  0  0
  162.2000  208.9210  150.7780 C   0  0  0  0  0  0  0  0  0  0  0  0
  162.4360  209.2050  152.2270 C   0  0  0  0  0  2  0  0  0  0  0  0
  161.3490  210.0590  152.8030 C   0  0  0  0  0  3  0  0  0  0  0  0
  160.1920  210.2240  152.1650 C   0  0  0  0  0  3  0  0  0  0  0  0
  159.1240  211.0910  152.7400 C   0  0  0  0  0  2  0  0  0  0  0  0
  159.6750  212.4720  153.0800 C   0  0  2  0  0  3  0  0  0  0  0  0
  159.3420  213.4110  155.4610 C   0  0  1  0  0  3  0  0  0  0  0  0
  158.8750  213.1270  154.1160 N   0  0  0  0  0  0  0  0  0  0  0  0
  157.1380  214.3000  155.2340 C   0  0  1  0  0  3  0  0  0  0  0  0
  158.2640  214.1300  156.1700 N   0  0  0  0  0  2  0  0  0  0  0  0
  157.5900  213.6770  153.9730 C   0  0  0  0  0  0  0  0  0  0  0  0
  156.9390  213.6700  152.8940 O   0  0  0  0  0  0  0  0  0  0  0  0
  155.8570  212.1520  155.6590 C   0  0  0  0  0  1  0  0  0  0  0  0
  155.7070  214.0240  157.2610 C   0  0  0  0  0  1  0  0  0  0  0  0
  154.7420  214.1770  155.1110 O   0  0  0  0  0  1  0  0  0  0  0  0
  155.8480  213.6690  155.7930 C   0  0  0  0  0  0  0  0  0  0  0  0
  159.6660  212.1180  156.1950 C   0  0  0  0  0  2  0  0  0  0  0  0
  158.6830  211.8530  157.1480 O   0  0  0  0  0  1  0  0  0  0  0  0
  158.9690  212.7380  150.8160 O   0  0  0  0  0  1  0  0  0  0  0  0
  159.7350  213.3240  151.8240 C   0  0  0  0  0  2  0  0  0  0  0  0
  160.9610  207.0550  148.0030 C   0  0  0  0  0  2  0  0  0  0  0  0
  161.5950  203.8660  146.3600 C   0  0  2  0  0  3  0  0  0  0  0  0
  161.2680  206.2340  145.6500 C   0  0  0  0  0  2  0  0  0  0  0  0
  162.0120  204.2950  147.6350 O   0  0  0  0  0  0  0  0  0  0  0  0
  161.9760  206.6180  146.9510 C   0  0  2  0  0  3  0  0  0  0  0  0
  160.6010  204.8650  145.7610 C   0  0  0  0  0  2  0  0  0  0  0  0
  162.8200  205.4300  147.4380 C   0  0  0  0  0  2  0  0  0  0  0  0
  159.9690  200.6000  145.1560 C   0  0  0  0  0  1  0  0  0  0  0  0
  160.5940  201.9460  145.2950 C   0  0  0  0  0  3  0  0  0  0  0  0
  160.9840  202.5020  146.4490 C   0  0  0  0  0  0  0  0  0  0  0  0
  160.1270  201.3740  149.7040 N   0  0  0  0  0  0  0  0  0  0  0  0
  161.1480  200.5540  149.3770 C   0  0  0  0  0  3  0  0  0  0  0  0
  161.5990  200.8500  148.1420 N   0  0  0  0  0  0  0  0  0  0  0  0
  159.9580  202.1710  148.6620 N   0  0  0  0  0  0  0  0  0  0  0  0
  160.8400  201.8530  147.7310 N   0  0  0  0  0  0  0  0  0  0  0  0
  1  6  1  0  0  0  0
  1  3  1  0  0  0  0
  2  6  2  0  0  0  0
  4  1  1  0  0  0  0
  5  4  2  0  0  0  0
  5  2  1  0  0  0  0
  6  7  1  0  0  0  0
  7  8  1  0  0  0  0
  9 10  1  0  0  0  0
  9  8  2  0  0  0  0
 10 11  1  0  0  0  0
 11 25  1  6  0  0  0
 11 13  1  0  0  0  0
 12 15  1  0  0  0  0
 12 22  1  1  0  0  0
 13 12  1  0  0  0  0
 14 21  1  1  0  0  0
 14 15  1  0  0  0  0
 16 13  1  0  0  0  0
 16 14  1  0  0  0  0
 17 16  2  0  0  0  0
 18 21  1  0  0  0  0
 20 21  1  0  0  0  0
 21 19  1  0  0  0  0
 22 23  1  0  0  0  0
 24 25  1  0  0  0  0
 26  4  1  0  0  0  0
 27 35  1  1  0  0  0
 27 29  1  0  0  0  0
 28 31  1  0  0  0  0
 28 30  1  0  0  0  0
 30 32  1  0  0  0  0
 30 26  1  1  0  0  0
 31 27  1  0  0  0  0
 32 29  1  0  0  0  0
 33 34  1  0  0  0  0
 34 35  2  0  0  0  0
 35 40  1  0  0  0  0
 37 36  1  0  0  0  0
 38 37  2  0  0  0  0
 39 36  2  0  0  0  0
 40 38  1  0  0  0  0
 40 39  1  0  0  0  0
M  END
>  <MODEL>
5

>  <REMARK>
 VINA RESULT:      -5.4      1.883      3.086
  Name = 
  12 active torsions:
  status: ('A' for Active; 'I' for Inactive)
    1  A    between atoms: C_1  and  C_28
    2  A    between atoms: C_1  and  CA_30
    3  A    between atoms: C_2  and  C_26
    4  A    between atoms: C_8  and  C_11
    5  A    between atoms: C_9  and  C_40
    6  A    between atoms: C_14  and  C_37
    7  A    between atoms: C_15  and  C_40
    8  A    between atoms: N_19  and  CA_30
    9  A    between atoms: CA_21  and  C_33
   10  A    between atoms: C_26  and  N_38
   11  A    between atoms: CA_30  and  C_39
   12  A    between atoms: C_35  and  C_37
                            x       y       z     vdW  Elec       q    Type
                         _______ _______ _______ _____ _____    ______ ____

>  <TORSDO>
F 12

$$$$
=
 OpenBabel11072410523D

 40 43  0  0  1  0  0  0  0  0999 V2000
  161.4110  207.0890  153.4850 N   0  0  0  0  0  0  0  0  0  0  0  0
  161.9940  208.9630  152.4590 N   0  0  0  0  0  0  0  0  0  0  0  0
  160.8460  206.2050  154.3740 O   0  0  0  0  0  1  0  0  0  0  0  0
  161.9210  206.8210  152.2740 C   0  0  0  0  0  0  0  0  0  0  0  0
  162.2780  207.9570  151.6390 N   0  0  0  0  0  0  0  0  0  0  0  0
  161.4670  208.4260  153.5770 C   0  0  0  0  0  0  0  0  0  0  0  0
  160.9220  209.2320  154.7120 C   0  0  0  0  0  2  0  0  0  0  0  0
  160.7870  210.6780  154.3450 C   0  0  0  0  0  3  0  0  0  0  0  0
  160.0660  211.0550  153.2920 C   0  0  0  0  0  3  0  0  0  0  0  0
  159.9530  212.4960  152.9240 C   0  0  0  0  0  2  0  0  0  0  0  0
  158.9810  212.6820  151.7650 C   0  0  2  0  0  3  0  0  0  0  0  0
  159.2550  214.2800  149.7560 C   0  0  1  0  0  3  0  0  0  0  0  0
  159.6690  213.1420  150.5580 N   0  0  0  0  0  0  0  0  0  0  0  0
  161.2760  213.4120  148.8290 C   0  0  1  0  0  3  0  0  0  0  0  0
  160.2410  214.4490  148.6700 N   0  0  0  0  0  2  0  0  0  0  0  0
  160.8750  212.6510  150.0300 C   0  0  0  0  0  0  0  0  0  0  0  0
  161.5360  211.7120  150.5480 O   0  0  0  0  0  0  0  0  0  0  0  0
  162.6100  212.8930  146.7340 C   0  0  0  0  0  1  0  0  0  0  0  0
  161.4840  211.0770  147.9690 C   0  0  0  0  0  1  0  0  0  0  0  0
  160.2430  212.6960  146.7810 O   0  0  0  0  0  1  0  0  0  0  0  0
  161.3860  212.5360  147.5660 C   0  0  0  0  0  0  0  0  0  0  0  0
  157.8740  214.0380  149.1640 C   0  0  0  0  0  2  0  0  0  0  0  0
  157.8210  212.7700  148.5860 O   0  0  0  0  0  1  0  0  0  0  0  0
  157.7160  213.6360  153.5500 O   0  0  0  0  0  1  0  0  0  0  0  0
  157.8840  213.6550  152.1660 C   0  0  0  0  0  2  0  0  0  0  0  0
  161.9590  205.4680  151.6480 C   0  0  0  0  0  2  0  0  0  0  0  0
  160.8380  204.0800  148.4720 C   0  0  2  0  0  3  0  0  0  0  0  0
  160.5010  203.5700  150.8890 C   0  0  0  0  0  2  0  0  0  0  0  0
  161.1440  205.4180  148.7860 O   0  0  0  0  0  0  0  0  0  0  0  0
  160.5820  205.0810  151.1180 C   0  0  2  0  0  3  0  0  0  0  0  0
  161.2470  203.1560  149.6230 C   0  0  0  0  0  2  0  0  0  0  0  0
  160.2560  205.8090  149.8050 C   0  0  0  0  0  2  0  0  0  0  0  0
  163.4760  204.1080  145.6780 C   0  0  0  0  0  1  0  0  0  0  0  0
  162.6390  204.3500  146.8880 C   0  0  0  0  0  3  0  0  0  0  0  0
  161.5250  203.6780  147.2040 C   0  0  0  0  0  0  0  0  0  0  0  0
  160.4660  200.6490  145.6830 N   0  0  0  0  0  0  0  0  0  0  0  0
  160.0170  201.5780  144.8130 C   0  0  0  0  0  3  0  0  0  0  0  0
  160.3380  202.8120  145.2500 N   0  0  0  0  0  0  0  0  0  0  0  0
  161.0630  201.3230  146.6530 N   0  0  0  0  0  0  0  0  0  0  0  0
  160.9810  202.6160  146.3890 N   0  0  0  0  0  0  0  0  0  0  0  0
  1  6  1  0  0  0  0
  1  3  1  0  0  0  0
  2  6  2  0  0  0  0
  4  1  1  0  0  0  0
  5  4  2  0  0  0  0
  5  2  1  0  0  0  0
  6  7  1  0  0  0  0
  8  7  1  0  0  0  0
  9  8  2  0  0  0  0
 10  9  1  0  0  0  0
 11 25  1  1  0  0  0
 11 10  1  0  0  0  0
 12 22  1  6  0  0  0
 12 13  1  0  0  0  0
 13 11  1  0  0  0  0
 14 21  1  6  0  0  0
 14 16  1  0  0  0  0
 15 14  1  0  0  0  0
 15 12  1  0  0  0  0
 16 17  2  0  0  0  0
 16 13  1  0  0  0  0
 18 21  1  0  0  0  0
 20 21  1  0  0  0  0
 21 19  1  0  0  0  0
 23 22  1  0  0  0  0
 25 24  1  0  0  0  0
 26  4  1  0  0  0  0
 27 35  1  6  0  0  0
 27 29  1  0  0  0  0
 27 31  1  0  0  0  0
 28 30  1  0  0  0  0
 29 32  1  0  0  0  0
 30 26  1  6  0  0  0
 31 28  1  0  0  0  0
 32 30  1  0  0  0  0
 33 34  1  0  0  0  0
 34 35  2  0  0  0  0
 36 39  2  0  0  0  0
 37 38  2  0  0  0  0
 37 36  1  0  0  0  0
 38 40  1  0  0  0  0
 40 39  1  0  0  0  0
 40 35  1  0  0  0  0
M  END
>  <MODEL>
6

>  <REMARK>
 VINA RESULT:      -5.2      2.873      4.748
  Name = 
  12 active torsions:
  status: ('A' for Active; 'I' for Inactive)
    1  A    between atoms: C_1  and  C_28
    2  A    between atoms: C_1  and  CA_30
    3  A    between atoms: C_2  and  C_26
    4  A    between atoms: C_8  and  C_11
    5  A    between atoms: C_9  and  C_40
    6  A    between atoms: C_14  and  C_37
    7  A    between atoms: C_15  and  C_40
    8  A    between atoms: N_19  and  CA_30
    9  A    between atoms: CA_21  and  C_33
   10  A    between atoms: C_26  and  N_38
   11  A    between atoms: CA_30  and  C_39
   12  A    between atoms: C_35  and  C_37
                            x       y       z     vdW  Elec       q    Type
                         _______ _______ _______ _____ _____    ______ ____

>  <TORSDO>
F 12

$$$$
=
 OpenBabel11072410523D

 40 43  0  0  1  0  0  0  0  0999 V2000
  161.0490  208.6900  152.3820 N   0  0  0  0  0  0  0  0  0  0  0  0
  162.3850  207.0930  151.6260 N   0  0  0  0  0  0  0  0  0  0  0  0
  160.2280  209.7910  152.4390 O   0  0  0  0  0  1  0  0  0  0  0  0
  161.1810  207.7170  153.2960 C   0  0  0  0  0  0  0  0  0  0  0  0
  161.9910  206.7380  152.8440 N   0  0  0  0  0  0  0  0  0  0  0  0
  161.8060  208.2790  151.3530 C   0  0  0  0  0  0  0  0  0  0  0  0
  161.9150  208.9780  150.0360 C   0  0  0  0  0  2  0  0  0  0  0  0
  161.5780  208.0630  148.8990 C   0  0  0  0  0  3  0  0  0  0  0  0
  162.5160  207.6460  148.0510 C   0  0  0  0  0  3  0  0  0  0  0  0
  162.1660  206.7500  146.9120 C   0  0  0  0  0  2  0  0  0  0  0  0
  160.8950  205.9640  147.2150 C   0  0  2  0  0  3  0  0  0  0  0  0
  161.7500  203.5500  146.8890 C   0  0  1  0  0  3  0  0  0  0  0  0
  161.2000  204.6190  147.7040 N   0  0  0  0  0  0  0  0  0  0  0  0
  161.5640  202.7560  149.1320 C   0  0  1  0  0  3  0  0  0  0  0  0
  161.9680  202.3820  147.7650 N   0  0  0  0  0  2  0  0  0  0  0  0
  161.1200  204.1610  149.0300 C   0  0  0  0  0  0  0  0  0  0  0  0
  160.7550  204.8780  150.0000 O   0  0  0  0  0  0  0  0  0  0  0  0
  160.9470  200.3670  149.7240 C   0  0  0  0  0  1  0  0  0  0  0  0
  160.0700  202.2440  151.0650 C   0  0  0  0  0  1  0  0  0  0  0  0
  159.3430  201.8850  148.8480 O   0  0  0  0  0  1  0  0  0  0  0  0
  160.4700  201.8120  149.6670 C   0  0  0  0  0  0  0  0  0  0  0  0
  160.7830  203.1830  145.7730 C   0  0  0  0  0  2  0  0  0  0  0  0
  160.5310  201.8110  145.7950 O   0  0  0  0  0  1  0  0  0  0  0  0
  160.6470  206.5700  144.9190 O   0  0  0  0  0  1  0  0  0  0  0  0
  160.0220  205.9020  145.9720 C   0  0  0  0  0  2  0  0  0  0  0  0
  160.4250  207.6480  154.5800 C   0  0  0  0  0  2  0  0  0  0  0  0
  160.5400  210.6600  156.6260 C   0  0  2  0  0  3  0  0  0  0  0  0
  160.4810  208.2000  157.0290 C   0  0  0  0  0  2  0  0  0  0  0  0
  161.0840  210.4480  155.3450 O   0  0  0  0  0  0  0  0  0  0  0  0
  161.3100  208.0700  155.7490 C   0  0  2  0  0  3  0  0  0  0  0  0
  159.6490  209.4810  157.0280 C   0  0  0  0  0  2  0  0  0  0  0  0
  162.0190  209.4040  155.4690 C   0  0  0  0  0  2  0  0  0  0  0  0
  159.8090  214.3780  157.2610 C   0  0  0  0  0  1  0  0  0  0  0  0
  160.3940  213.0120  157.1480 C   0  0  0  0  0  3  0  0  0  0  0  0
  159.7630  211.9400  156.6520 C   0  0  0  0  0  0  0  0  0  0  0  0
  156.2550  211.9870  156.1120 N   0  0  0  0  0  0  0  0  0  0  0  0
  156.7380  212.0260  154.8520 C   0  0  0  0  0  3  0  0  0  0  0  0
  158.0860  212.0190  154.8760 N   0  0  0  0  0  0  0  0  0  0  0  0
  157.3140  211.9550  156.9030 N   0  0  0  0  0  0  0  0  0  0  0  0
  158.4060  211.9760  156.1590 N   0  0  0  0  0  0  0  0  0  0  0  0
  1  3  1  0  0  0  0
  1  4  1  0  0  0  0
  2  5  1  0  0  0  0
  4 26  1  0  0  0  0
  5  4  2  0  0  0  0
  6  2  2  0  0  0  0
  6  1  1  0  0  0  0
  7  6  1  0  0  0  0
  8  7  1  0  0  0  0
  9  8  2  0  0  0  0
 10 11  1  0  0  0  0
 10  9  1  0  0  0  0
 11 25  1  6  0  0  0
 11 13  1  0  0  0  0
 12 22  1  6  0  0  0
 12 13  1  0  0  0  0
 12 15  1  0  0  0  0
 13 16  1  0  0  0  0
 14 21  1  6  0  0  0
 15 14  1  0  0  0  0
 16 14  1  0  0  0  0
 16 17  2  0  0  0  0
 20 21  1  0  0  0  0
 21 18  1  0  0  0  0
 21 19  1  0  0  0  0
 22 23  1  0  0  0  0
 24 25  1  0  0  0  0
 27 35  1  6  0  0  0
 27 31  1  0  0  0  0
 29 32  1  0  0  0  0
 29 27  1  0  0  0  0
 30 26  1  6  0  0  0
 30 28  1  0  0  0  0
 31 28  1  0  0  0  0
 32 30  1  0  0  0  0
 34 33  1  0  0  0  0
 35 34  2  0  0  0  0
 36 39  2  0  0  0  0
 37 38  2  0  0  0  0
 37 36  1  0  0  0  0
 38 40  1  0  0  0  0
 40 35  1  0  0  0  0
 40 39  1  0  0  0  0
M  END
>  <MODEL>
7

>  <REMARK>
 VINA RESULT:      -5.2      1.926     10.792
  Name = 
  12 active torsions:
  status: ('A' for Active; 'I' for Inactive)
    1  A    between atoms: C_1  and  C_28
    2  A    between atoms: C_1  and  CA_30
    3  A    between atoms: C_2  and  C_26
    4  A    between atoms: C_8  and  C_11
    5  A    between atoms: C_9  and  C_40
    6  A    between atoms: C_14  and  C_37
    7  A    between atoms: C_15  and  C_40
    8  A    between atoms: N_19  and  CA_30
    9  A    between atoms: CA_21  and  C_33
   10  A    between atoms: C_26  and  N_38
   11  A    between atoms: CA_30  and  C_39
   12  A    between atoms: C_35  and  C_37
                            x       y       z     vdW  Elec       q    Type
                         _______ _______ _______ _____ _____    ______ ____

>  <TORSDO>
F 12

$$$$
=
 OpenBabel11072410523D

 40 43  0  0  1  0  0  0  0  0999 V2000
  162.1780  207.7130  151.4340 N   0  0  0  0  0  0  0  0  0  0  0  0
  161.4240  209.7950  151.3800 N   0  0  0  0  0  0  0  0  0  0  0  0
  162.4170  206.4170  151.8290 O   0  0  0  0  0  1  0  0  0  0  0  0
  162.3680  208.2490  150.2200 C   0  0  0  0  0  0  0  0  0  0  0  0
  161.9100  209.5170  150.1760 N   0  0  0  0  0  0  0  0  0  0  0  0
  161.5890  208.6920  152.1370 C   0  0  0  0  0  0  0  0  0  0  0  0
  161.0820  208.5580  153.5370 C   0  0  0  0  0  2  0  0  0  0  0  0
  160.9780  209.8900  154.2140 C   0  0  0  0  0  3  0  0  0  0  0  0
  160.0270  210.1320  155.1140 C   0  0  0  0  0  3  0  0  0  0  0  0
  159.9210  211.4680  155.7680 C   0  0  0  0  0  2  0  0  0  0  0  0
  158.4670  211.9220  155.8340 C   0  0  2  0  0  3  0  0  0  0  0  0
  156.9240  213.6220  154.6550 C   0  0  1  0  0  3  0  0  0  0  0  0
  158.1410  212.8350  154.7380 N   0  0  0  0  0  0  0  0  0  0  0  0
  158.3000  214.1800  152.7870 C   0  0  1  0  0  3  0  0  0  0  0  0
  157.0060  214.4530  153.4370 N   0  0  0  0  0  2  0  0  0  0  0  0
  158.9640  213.1870  153.6540 C   0  0  0  0  0  0  0  0  0  0  0  0
  160.1280  212.7370  153.4830 O   0  0  0  0  0  0  0  0  0  0  0  0
  156.8920  214.3320  150.6810 C   0  0  0  0  0  1  0  0  0  0  0  0
  159.3340  214.0160  150.5200 C   0  0  0  0  0  1  0  0  0  0  0  0
  157.9330  212.2990  151.3360 O   0  0  0  0  0  1  0  0  0  0  0  0
  158.1020  213.6850  151.3400 C   0  0  0  0  0  0  0  0  0  0  0  0
  155.7080  212.7110  154.5750 C   0  0  0  0  0  2  0  0  0  0  0  0
  154.9060  212.8890  155.7020 O   0  0  0  0  0  1  0  0  0  0  0  0
  158.8630  213.7940  157.2610 O   0  0  0  0  0  1  0  0  0  0  0  0
  158.1930  212.5730  157.1800 C   0  0  0  0  0  2  0  0  0  0  0  0
  162.8830  207.5050  149.0340 C   0  0  0  0  0  2  0  0  0  0  0  0
  160.9470  204.5210  148.2500 C   0  0  2  0  0  3  0  0  0  0  0  0
  160.4580  206.9090  148.7750 C   0  0  0  0  0  2  0  0  0  0  0  0
  162.2370  204.8710  147.8090 O   0  0  0  0  0  0  0  0  0  0  0  0
  161.7590  207.2350  148.0390 C   0  0  2  0  0  3  0  0  0  0  0  0
  160.4750  205.4890  149.3380 C   0  0  0  0  0  2  0  0  0  0  0  0
  162.1080  206.0760  147.0920 C   0  0  0  0  0  2  0  0  0  0  0  0
  160.8390  201.6490  150.7990 C   0  0  0  0  0  1  0  0  0  0  0  0
  160.8650  202.9570  150.0860 C   0  0  0  0  0  3  0  0  0  0  0  0
  160.9400  203.1130  148.7580 C   0  0  0  0  0  0  0  0  0  0  0  0
  160.9460  200.8670  146.0080 N   0  0  0  0  0  0  0  0  0  0  0  0
  161.2400  200.0520  147.0440 C   0  0  0  0  0  3  0  0  0  0  0  0
  161.2820  200.7610  148.1900 N   0  0  0  0  0  0  0  0  0  0  0  0
  160.8080  202.0760  146.5290 N   0  0  0  0  0  0  0  0  0  0  0  0
  161.0120  202.0060  147.8330 N   0  0  0  0  0  0  0  0  0  0  0  0
  1  3  1  0  0  0  0
  1  6  1  0  0  0  0
  2  6  2  0  0  0  0
  4  1  1  0  0  0  0
  5  4  2  0  0  0  0
  5  2  1  0  0  0  0
  6  7  1  0  0  0  0
  7  8  1  0  0  0  0
  8  9  2  0  0  0  0
  9 10  1  0  0  0  0
 11 10  1  1  0  0  0
 11 25  1  0  0  0  0
 12 22  1  6  0  0  0
 12 13  1  0  0  0  0
 13 11  1  0  0  0  0
 14 21  1  6  0  0  0
 14 15  1  0  0  0  0
 14 16  1  0  0  0  0
 15 12  1  0  0  0  0
 16 13  1  0  0  0  0
 17 16  2  0  0  0  0
 18 21  1  0  0  0  0
 19 21  1  0  0  0  0
 20 21  1  0  0  0  0
 22 23  1  0  0  0  0
 25 24  1  0  0  0  0
 26  4  1  0  0  0  0
 27 35  1  1  0  0  0
 27 31  1  0  0  0  0
 28 31  1  0  0  0  0
 29 27  1  0  0  0  0
 30 28  1  0  0  0  0
 30 26  1  1  0  0  0
 32 29  1  0  0  0  0
 32 30  1  0  0  0  0
 34 33  1  0  0  0  0
 35 34  2  0  0  0  0
 36 39  2  0  0  0  0
 36 37  1  0  0  0  0
 37 38  2  0  0  0  0
 39 40  1  0  0  0  0
 40 38  1  0  0  0  0
 40 35  1  0  0  0  0
M  END
>  <MODEL>
8

>  <REMARK>
 VINA RESULT:      -5.1      1.864      2.886
  Name = 
  12 active torsions:
  status: ('A' for Active; 'I' for Inactive)
    1  A    between atoms: C_1  and  C_28
    2  A    between atoms: C_1  and  CA_30
    3  A    between atoms: C_2  and  C_26
    4  A    between atoms: C_8  and  C_11
    5  A    between atoms: C_9  and  C_40
    6  A    between atoms: C_14  and  C_37
    7  A    between atoms: C_15  and  C_40
    8  A    between atoms: N_19  and  CA_30
    9  A    between atoms: CA_21  and  C_33
   10  A    between atoms: C_26  and  N_38
   11  A    between atoms: CA_30  and  C_39
   12  A    between atoms: C_35  and  C_37
                            x       y       z     vdW  Elec       q    Type
                         _______ _______ _______ _____ _____    ______ ____

>  <TORSDO>
F 12

$$$$
=
 OpenBabel11072410523D

 40 43  0  0  1  0  0  0  0  0999 V2000
  161.3640  207.6700  153.6620 N   0  0  0  0  0  0  0  0  0  0  0  0
  161.7410  209.7940  153.1630 N   0  0  0  0  0  0  0  0  0  0  0  0
  160.9250  206.5330  154.3010 O   0  0  0  0  0  1  0  0  0  0  0  0
  161.8070  207.7840  152.4020 C   0  0  0  0  0  0  0  0  0  0  0  0
  162.0380  209.0750  152.0870 N   0  0  0  0  0  0  0  0  0  0  0  0
  161.3310  208.9330  154.1150 C   0  0  0  0  0  0  0  0  0  0  0  0
  160.8100  209.3520  155.4520 C   0  0  0  0  0  2  0  0  0  0  0  0
  160.1840  210.7120  155.3960 C   0  0  0  0  0  3  0  0  0  0  0  0
  160.4620  211.6350  156.3140 C   0  0  0  0  0  3  0  0  0  0  0  0
  159.8190  212.9790  156.2590 C   0  0  0  0  0  2  0  0  0  0  0  0
  158.3000  212.8490  156.2090 C   0  0  2  0  0  3  0  0  0  0  0  0
  156.4600  212.7710  154.4000 C   0  0  1  0  0  3  0  0  0  0  0  0
  157.7810  213.1450  154.8730 N   0  0  0  0  0  0  0  0  0  0  0  0
  157.5390  214.0270  152.6810 C   0  0  1  0  0  3  0  0  0  0  0  0
  156.3040  213.3040  153.0320 N   0  0  0  0  0  2  0  0  0  0  0  0
  158.4040  213.9100  153.8720 C   0  0  0  0  0  0  0  0  0  0  0  0
  159.5330  214.4530  154.0040 O   0  0  0  0  0  0  0  0  0  0  0  0
  157.1740  213.3200  150.2710 C   0  0  0  0  0  1  0  0  0  0  0  0
  159.3120  214.3490  150.9520 C   0  0  0  0  0  1  0  0  0  0  0  0
  158.7130  212.1840  151.6800 O   0  0  0  0  0  1  0  0  0  0  0  0
  158.1810  213.4450  151.4060 C   0  0  0  0  0  0  0  0  0  0  0  0
  156.3120  211.2570  154.3830 C   0  0  0  0  0  2  0  0  0  0  0  0
  155.2740  210.8720  155.2320 O   0  0  0  0  0  1  0  0  0  0  0  0
  156.4070  214.1680  156.8210 O   0  0  0  0  0  1  0  0  0  0  0  0
  157.6730  213.7640  157.2470 C   0  0  0  0  0  2  0  0  0  0  0  0
  161.8970  206.6580  151.4280 C   0  0  0  0  0  2  0  0  0  0  0  0
  161.0060  205.0110  148.3030 C   0  0  2  0  0  3  0  0  0  0  0  0
  160.1930  204.9810  150.6600 C   0  0  0  0  0  2  0  0  0  0  0  0
  161.5460  206.2970  148.4950 O   0  0  0  0  0  0  0  0  0  0  0  0
  160.5680  206.4640  150.7040 C   0  0  2  0  0  3  0  0  0  0  0  0
  161.0170  204.2270  149.6180 C   0  0  0  0  0  2  0  0  0  0  0  0
  160.6180  207.0160  149.2710 C   0  0  0  0  0  2  0  0  0  0  0  0
  163.7540  204.3590  145.6980 C   0  0  0  0  0  1  0  0  0  0  0  0
  162.8490  204.9070  146.7480 C   0  0  0  0  0  3  0  0  0  0  0  0
  161.7760  204.2800  147.2470 C   0  0  0  0  0  0  0  0  0  0  0  0
  160.9800  200.8490  146.7990 N   0  0  0  0  0  0  0  0  0  0  0  0
  160.5740  201.3920  145.6310 C   0  0  0  0  0  3  0  0  0  0  0  0
  160.8050  202.7200  145.6360 N   0  0  0  0  0  0  0  0  0  0  0  0
  161.4600  201.8530  147.5150 N   0  0  0  0  0  0  0  0  0  0  0  0
  161.3510  202.9690  146.8150 N   0  0  0  0  0  0  0  0  0  0  0  0
  1  6  1  0  0  0  0
  1  3  1  0  0  0  0
  2  6  2  0  0  0  0
  4  1  1  0  0  0  0
  5  4  2  0  0  0  0
  5  2  1  0  0  0  0
  6  7  1  0  0  0  0
  8  7  1  0  0  0  0
  8  9  2  0  0  0  0
 10  9  1  0  0  0  0
 11 10  1  6  0  0  0
 11 25  1  0  0  0  0
 12 22  1  6  0  0  0
 12 13  1  0  0  0  0
 13 11  1  0  0  0  0
 14 21  1  6  0  0  0
 14 15  1  0  0  0  0
 14 16  1  0  0  0  0
 15 12  1  0  0  0  0
 16 17  2  0  0  0  0
 16 13  1  0  0  0  0
 18 21  1  0  0  0  0
 19 21  1  0  0  0  0
 21 20  1  0  0  0  0
 22 23  1  0  0  0  0
 24 25  1  0  0  0  0
 26  4  1  0  0  0  0
 27 35  1  6  0  0  0
 27 29  1  0  0  0  0
 27 31  1  0  0  0  0
 28 30  1  0  0  0  0
 29 32  1  0  0  0  0
 30 26  1  6  0  0  0
 31 28  1  0  0  0  0
 32 30  1  0  0  0  0
 33 34  1  0  0  0  0
 34 35  2  0  0  0  0
 36 39  2  0  0  0  0
 37 38  2  0  0  0  0
 37 36  1  0  0  0  0
 38 40  1  0  0  0  0
 40 35  1  0  0  0  0
 40 39  1  0  0  0  0
M  END
>  <MODEL>
9

>  <REMARK>
 VINA RESULT:      -5.1      2.080      3.629
  Name = 
  12 active torsions:
  status: ('A' for Active; 'I' for Inactive)
    1  A    between atoms: C_1  and  C_28
    2  A    between atoms: C_1  and  CA_30
    3  A    between atoms: C_2  and  C_26
    4  A    between atoms: C_8  and  C_11
    5  A    between atoms: C_9  and  C_40
    6  A    between atoms: C_14  and  C_37
    7  A    between atoms: C_15  and  C_40
    8  A    between atoms: N_19  and  CA_30
    9  A    between atoms: CA_21  and  C_33
   10  A    between atoms: C_26  and  N_38
   11  A    between atoms: CA_30  and  C_39
   12  A    between atoms: C_35  and  C_37
                            x       y       z     vdW  Elec       q    Type
                         _______ _______ _______ _____ _____    ______ ____

>  <TORSDO>
F 12

$$$$
