=
 OpenBabel11072412123D

 31 33  0  0  1  0  0  0  0  0999 V2000
  160.1330  203.2260  148.1520 F   0  0  0  0  0  0  0  0  0  0  0  0
  161.3480  205.0220  149.1000 C   0  0  0  0  0  0  0  0  0  0  0  0
  161.2770  203.7200  152.1070 C   0  0  0  0  0  2  0  0  0  0  0  0
  160.6400  202.9000  151.0050 C   0  0  1  0  0  3  0  0  0  0  0  0
  160.2160  204.3610  151.2340 C   0  0  2  0  0  3  0  0  0  0  0  0
  161.6650  202.6960  149.8890 C   0  0  0  0  0  2  0  0  0  0  0  0
  162.3390  203.3540  147.7270 F   0  0  0  0  0  0  0  0  0  0  0  0
  160.8320  205.3780  150.2990 C   0  0  0  0  0  0  0  0  0  0  0  0
  161.3620  203.5740  148.6830 C   0  0  0  0  0  0  0  0  0  0  0  0
  161.8570  206.0410  148.1580 C   0  0  0  0  0  0  0  0  0  0  0  0
  162.6060  206.9570  148.5930 O   0  0  0  0  0  0  0  0  0  0  0  0
  160.3090  206.2500  146.3290 N   0  0  0  0  0  2  0  0  0  0  0  0
  161.5090  206.0010  146.7280 C   0  0  2  0  0  3  0  0  0  0  0  0
  160.0930  206.0750  144.9060 C   0  0  0  0  0  2  0  0  0  0  0  0
  161.2050  205.1750  144.3940 C   0  0  0  0  0  2  0  0  0  0  0  0
  162.6470  205.4510  145.4670 S   0  0  0  0  0  0  0  0  0  0  0  0
  160.7080  206.8320  150.6780 C   0  0  0  0  0  2  0  0  0  0  0  0
  161.0070  207.0290  153.1480 C   0  0  0  0  0  1  0  0  0  0  0  0
  161.6560  207.2710  151.7950 C   0  0  1  0  0  0  0  0  0  0  0  0
  162.8630  206.5690  151.7230 O   0  0  0  0  0  1  0  0  0  0  0  0
  161.9270  208.7590  151.6210 C   0  0  0  0  0  2  0  0  0  0  0  0
  161.6680  209.4690  152.8280 O   0  0  0  0  0  0  0  0  0  0  0  0
  160.7410  210.5100  152.8970 C   0  0  0  0  0  0  0  0  0  0  0  0
  160.6570  211.3200  151.9350 O   0  0  0  0  0  0  0  0  0  0  0  0
  159.4920  212.0270  154.2230 O   0  0  0  0  0  1  0  0  0  0  0  0
  159.8600  210.6860  154.0960 C   0  0  2  0  0  3  0  0  0  0  0  0
  160.5790  210.2210  155.3480 C   0  0  0  0  0  2  0  0  0  0  0  0
  161.9550  208.0780  156.7170 O   0  0  0  0  0  0  0  0  0  0  0  0
  160.5710  208.0440  156.5990 C   0  0  0  0  0  0  0  0  0  0  0  0
  159.8730  209.0950  155.9360 N   0  0  0  0  0  2  0  0  0  0  0  0
  159.9280  207.0770  157.0840 O   0  0  0  0  0  1  0  0  0  0  0  0
  1  9  1  0  0  0  0
  2  8  2  0  0  0  0
  4  6  1  6  0  0  0
  4  5  1  0  0  0  0
  4  3  1  0  0  0  0
  5  3  1  1  0  0  0
  7  9  1  0  0  0  0
  8 17  1  0  0  0  0
  8  5  1  0  0  0  0
  9  2  1  0  0  0  0
  9  6  1  0  0  0  0
 10 11  2  0  0  0  0
 10  2  1  0  0  0  0
 12 13  1  0  0  0  0
 13 10  1  1  0  0  0
 14 12  1  0  0  0  0
 15 14  1  0  0  0  0
 15 16  1  0  0  0  0
 16 13  1  0  0  0  0
 17 19  1  0  0  0  0
 19 18  1  1  0  0  0
 20 19  1  0  0  0  0
 21 19  1  0  0  0  0
 21 22  1  0  0  0  0
 22 23  1  0  0  0  0
 23 26  1  0  0  0  0
 24 23  2  0  0  0  0
 26 25  1  1  0  0  0
 26 27  1  0  0  0  0
 27 30  1  0  0  0  0
 29 28  2  0  0  0  0
 29 31  1  0  0  0  0
 30 29  1  0  0  0  0
M  END
>  <MODEL>
1

>  <REMARK>
 VINA RESULT:      -7.1      0.000      0.000
  Name = 
  10 active torsions:
  status: ('A' for Active; 'I' for Inactive)
    1  A    between atoms: C_4  and  N_18
    2  A    between atoms: C_4  and  C_23
    3  A    between atoms: C_6  and  C_22
    4  A    between atoms: C_7  and  C_12
    5  A    between atoms: C_7  and  C_28
    6  A    between atoms: C_9  and  C_22
    7  A    between atoms: C_12  and  C_14
    8  A    between atoms: C_14  and  O_15
    9  A    between atoms: O_15  and  C_24
   10  A    between atoms: C_23  and  C_24
                            x       y       z     vdW  Elec       q    Type
                         _______ _______ _______ _____ _____    ______ ____

>  <TORSDO>
F 10

$$$$
=
 OpenBabel11072412123D

 31 33  0  0  1  0  0  0  0  0999 V2000
  162.7170  209.6400  155.9500 F   0  0  0  0  0  0  0  0  0  0  0  0
  161.1480  209.4120  154.1930 C   0  0  0  0  0  0  0  0  0  0  0  0
  159.3410  207.2340  155.8470 C   0  0  0  0  0  2  0  0  0  0  0  0
  160.5410  207.8020  156.5750 C   0  0  1  0  0  3  0  0  0  0  0  0
  160.7050  207.1580  155.1890 C   0  0  2  0  0  3  0  0  0  0  0  0
  160.4430  209.3280  156.5660 C   0  0  0  0  0  2  0  0  0  0  0  0
  161.2610  211.3210  155.6050 F   0  0  0  0  0  0  0  0  0  0  0  0
  160.7950  208.1180  154.0230 C   0  0  0  0  0  0  0  0  0  0  0  0
  161.4210  209.9460  155.5760 C   0  0  0  0  0  0  0  0  0  0  0  0
  161.3240  210.3110  153.0330 C   0  0  0  0  0  0  0  0  0  0  0  0
  162.4150  210.2890  152.4020 O   0  0  0  0  0  0  0  0  0  0  0  0
  160.4650  212.1260  151.7070 N   0  0  0  0  0  2  0  0  0  0  0  0
  160.2520  211.2250  152.6050 C   0  0  2  0  0  3  0  0  0  0  0  0
  159.3460  213.0130  151.4600 C   0  0  0  0  0  2  0  0  0  0  0  0
  158.4390  212.9360  152.6760 C   0  0  0  0  0  2  0  0  0  0  0  0
  158.6500  211.2780  153.3910 S   0  0  0  0  0  0  0  0  0  0  0  0
  160.6310  207.5440  152.6390 C   0  0  0  0  0  2  0  0  0  0  0  0
  162.4940  207.0740  151.0460 C   0  0  0  0  0  1  0  0  0  0  0  0
  161.7200  206.5450  152.2420 C   0  0  1  0  0  0  0  0  0  0  0  0
  162.5990  206.3230  153.3070 O   0  0  0  0  0  1  0  0  0  0  0  0
  161.0410  205.2350  151.8680 C   0  0  0  0  0  2  0  0  0  0  0  0
  160.9490  205.0930  150.4540 O   0  0  0  0  0  0  0  0  0  0  0  0
  160.9910  203.8490  149.8240 C   0  0  0  0  0  0  0  0  0  0  0  0
  161.0600  202.8070  150.5310 O   0  0  0  0  0  0  0  0  0  0  0  0
  161.2890  202.4290  147.9500 O   0  0  0  0  0  1  0  0  0  0  0  0
  160.9690  203.7330  148.3310 C   0  0  2  0  0  3  0  0  0  0  0  0
  161.9510  204.7130  147.7150 C   0  0  0  0  0  2  0  0  0  0  0  0
  160.4140  206.3760  145.9180 O   0  0  0  0  0  1  0  0  0  0  0  0
  161.2140  205.3640  145.4040 C   0  0  0  0  0  0  0  0  0  0  0  0
  161.9870  204.5390  146.2730 N   0  0  0  0  0  2  0  0  0  0  0  0
  161.2600  205.1740  144.1610 O   0  0  0  0  0  0  0  0  0  0  0  0
  2  9  1  0  0  0  0
  4  3  1  6  0  0  0
  5  3  1  6  0  0  0
  5  4  1  0  0  0  0
  6  4  1  0  0  0  0
  8  2  2  0  0  0  0
  8  5  1  0  0  0  0
  9  7  1  0  0  0  0
  9  1  1  0  0  0  0
  9  6  1  0  0  0  0
 10  2  1  0  0  0  0
 11 10  2  0  0  0  0
 12 13  1  0  0  0  0
 13 10  1  1  0  0  0
 13 16  1  0  0  0  0
 14 12  1  0  0  0  0
 14 15  1  0  0  0  0
 15 16  1  0  0  0  0
 17  8  1  0  0  0  0
 19 18  1  6  0  0  0
 19 17  1  0  0  0  0
 19 20  1  0  0  0  0
 21 19  1  0  0  0  0
 22 21  1  0  0  0  0
 23 22  1  0  0  0  0
 23 24  2  0  0  0  0
 26 25  1  1  0  0  0
 26 23  1  0  0  0  0
 27 26  1  0  0  0  0
 29 28  1  0  0  0  0
 29 30  1  0  0  0  0
 30 27  1  0  0  0  0
 31 29  2  0  0  0  0
M  END
>  <MODEL>
2

>  <REMARK>
 VINA RESULT:      -7.0      4.047      8.347
  Name = 
  10 active torsions:
  status: ('A' for Active; 'I' for Inactive)
    1  A    between atoms: C_4  and  N_18
    2  A    between atoms: C_4  and  C_23
    3  A    between atoms: C_6  and  C_22
    4  A    between atoms: C_7  and  C_12
    5  A    between atoms: C_7  and  C_28
    6  A    between atoms: C_9  and  C_22
    7  A    between atoms: C_12  and  C_14
    8  A    between atoms: C_14  and  O_15
    9  A    between atoms: O_15  and  C_24
   10  A    between atoms: C_23  and  C_24
                            x       y       z     vdW  Elec       q    Type
                         _______ _______ _______ _____ _____    ______ ____

>  <TORSDO>
F 10

$$$$
=
 OpenBabel11072412123D

 31 33  0  0  1  0  0  0  0  0999 V2000
  160.1380  203.2880  148.2250 F   0  0  0  0  0  0  0  0  0  0  0  0
  161.3480  205.1230  149.1030 C   0  0  0  0  0  0  0  0  0  0  0  0
  161.2090  203.9800  152.1710 C   0  0  0  0  0  2  0  0  0  0  0  0
  160.5870  203.1080  151.1010 C   0  0  1  0  0  3  0  0  0  0  0  0
  160.1700  204.5810  151.2450 C   0  0  2  0  0  3  0  0  0  0  0  0
  161.6320  202.8390  150.0180 C   0  0  0  0  0  2  0  0  0  0  0  0
  162.3540  203.3790  147.8380 F   0  0  0  0  0  0  0  0  0  0  0  0
  160.8110  205.5440  150.2700 C   0  0  0  0  0  0  0  0  0  0  0  0
  161.3590  203.6550  148.7620 C   0  0  0  0  0  0  0  0  0  0  0  0
  161.8830  206.0880  148.1190 C   0  0  0  0  0  0  0  0  0  0  0  0
  162.6700  206.9910  148.5130 O   0  0  0  0  0  0  0  0  0  0  0  0
  160.3130  206.2590  146.3040 N   0  0  0  0  0  2  0  0  0  0  0  0
  161.5160  206.0100  146.6950 C   0  0  2  0  0  3  0  0  0  0  0  0
  160.0780  206.0460  144.8890 C   0  0  0  0  0  2  0  0  0  0  0  0
  161.1750  205.1210  144.3900 C   0  0  0  0  0  2  0  0  0  0  0  0
  162.6320  205.4130  145.4370 S   0  0  0  0  0  0  0  0  0  0  0  0
  160.6900  207.0160  150.5710 C   0  0  0  0  0  2  0  0  0  0  0  0
  160.9860  207.3710  153.0230 C   0  0  0  0  0  1  0  0  0  0  0  0
  161.6420  207.5140  151.6600 C   0  0  1  0  0  0  0  0  0  0  0  0
  162.8390  206.7910  151.6390 O   0  0  0  0  0  1  0  0  0  0  0  0
  161.9360  208.9830  151.3900 C   0  0  0  0  0  2  0  0  0  0  0  0
  162.0950  209.7040  152.6080 O   0  0  0  0  0  0  0  0  0  0  0  0
  161.1930  210.6860  153.0180 C   0  0  0  0  0  0  0  0  0  0  0  0
  160.5060  211.2880  152.1490 O   0  0  0  0  0  0  0  0  0  0  0  0
  162.2370  210.8130  155.1420 O   0  0  0  0  0  1  0  0  0  0  0  0
  161.0390  211.0440  154.4640 C   0  0  2  0  0  3  0  0  0  0  0  0
  159.9200  210.2310  155.0900 C   0  0  0  0  0  2  0  0  0  0  0  0
  157.5240  211.4560  154.0330 O   0  0  0  0  0  0  0  0  0  0  0  0
  157.8970  211.6950  155.3500 C   0  0  0  0  0  0  0  0  0  0  0  0
  159.0690  211.0930  155.8930 N   0  0  0  0  0  2  0  0  0  0  0  0
  157.1910  212.4470  156.0710 O   0  0  0  0  0  1  0  0  0  0  0  0
  1  9  1  0  0  0  0
  2  8  2  0  0  0  0
  4  6  1  6  0  0  0
  4  5  1  0  0  0  0
  4  3  1  0  0  0  0
  5  3  1  1  0  0  0
  7  9  1  0  0  0  0
  8 17  1  0  0  0  0
  8  5  1  0  0  0  0
  9  2  1  0  0  0  0
  9  6  1  0  0  0  0
 10 11  2  0  0  0  0
 10  2  1  0  0  0  0
 12 13  1  0  0  0  0
 13 10  1  1  0  0  0
 14 12  1  0  0  0  0
 15 14  1  0  0  0  0
 15 16  1  0  0  0  0
 16 13  1  0  0  0  0
 17 19  1  0  0  0  0
 19 18  1  1  0  0  0
 20 19  1  0  0  0  0
 21 19  1  0  0  0  0
 21 22  1  0  0  0  0
 22 23  1  0  0  0  0
 23 26  1  0  0  0  0
 24 23  2  0  0  0  0
 26 27  1  0  0  0  0
 26 25  1  1  0  0  0
 27 30  1  0  0  0  0
 28 29  2  0  0  0  0
 29 30  1  0  0  0  0
 29 31  1  0  0  0  0
M  END
>  <MODEL>
3

>  <REMARK>
 VINA RESULT:      -7.0      1.301      1.931
  Name = 
  10 active torsions:
  status: ('A' for Active; 'I' for Inactive)
    1  A    between atoms: C_4  and  N_18
    2  A    between atoms: C_4  and  C_23
    3  A    between atoms: C_6  and  C_22
    4  A    between atoms: C_7  and  C_12
    5  A    between atoms: C_7  and  C_28
    6  A    between atoms: C_9  and  C_22
    7  A    between atoms: C_12  and  C_14
    8  A    between atoms: C_14  and  O_15
    9  A    between atoms: O_15  and  C_24
   10  A    between atoms: C_23  and  C_24
                            x       y       z     vdW  Elec       q    Type
                         _______ _______ _______ _____ _____    ______ ____

>  <TORSDO>
F 10

$$$$
=
 OpenBabel11072412123D

 31 33  0  0  1  0  0  0  0  0999 V2000
  160.1080  203.2620  148.1830 F   0  0  0  0  0  0  0  0  0  0  0  0
  161.3320  205.0630  149.1090 C   0  0  0  0  0  0  0  0  0  0  0  0
  161.2260  203.8140  152.1380 C   0  0  0  0  0  2  0  0  0  0  0  0
  160.5900  202.9810  151.0450 C   0  0  1  0  0  3  0  0  0  0  0  0
  160.1780  204.4490  151.2450 C   0  0  2  0  0  3  0  0  0  0  0  0
  161.6220  202.7490  149.9410 C   0  0  0  0  0  2  0  0  0  0  0  0
  162.3190  203.3630  147.7730 F   0  0  0  0  0  0  0  0  0  0  0  0
  160.8100  205.4440  150.2970 C   0  0  0  0  0  0  0  0  0  0  0  0
  161.3360  203.6080  148.7170 C   0  0  0  0  0  0  0  0  0  0  0  0
  161.8570  206.0610  148.1540 C   0  0  0  0  0  0  0  0  0  0  0  0
  162.6230  206.9700  148.5760 O   0  0  0  0  0  0  0  0  0  0  0  0
  160.3030  206.2460  146.3260 N   0  0  0  0  0  2  0  0  0  0  0  0
  161.5060  206.0090  146.7250 C   0  0  2  0  0  3  0  0  0  0  0  0
  160.0860  206.0610  144.9050 C   0  0  0  0  0  2  0  0  0  0  0  0
  161.2030  205.1660  144.3970 C   0  0  0  0  0  2  0  0  0  0  0  0
  162.6450  205.4590  145.4650 S   0  0  0  0  0  0  0  0  0  0  0  0
  160.6950  206.9050  150.6500 C   0  0  0  0  0  2  0  0  0  0  0  0
  160.9720  207.1500  153.1180 C   0  0  0  0  0  1  0  0  0  0  0  0
  161.6380  207.3550  151.7680 C   0  0  1  0  0  0  0  0  0  0  0  0
  162.8370  206.6370  151.7230 O   0  0  0  0  0  1  0  0  0  0  0  0
  161.9300  208.8360  151.5660 C   0  0  0  0  0  2  0  0  0  0  0  0
  160.8930  209.6410  152.1170 O   0  0  0  0  0  0  0  0  0  0  0  0
  161.1370  210.6080  153.0940 C   0  0  0  0  0  0  0  0  0  0  0  0
  162.1480  210.4860  153.8370 O   0  0  0  0  0  0  0  0  0  0  0  0
  160.2050  212.1620  154.6210 O   0  0  0  0  0  1  0  0  0  0  0  0
  160.2140  211.7730  153.2810 C   0  0  2  0  0  3  0  0  0  0  0  0
  158.8110  211.4070  152.8330 C   0  0  0  0  0  2  0  0  0  0  0  0
  157.2170  213.7960  152.5040 O   0  0  0  0  0  0  0  0  0  0  0  0
  157.0740  213.0250  153.6520 C   0  0  0  0  0  0  0  0  0  0  0  0
  157.8450  211.8390  153.8290 N   0  0  0  0  0  2  0  0  0  0  0  0
  156.2570  213.3760  154.5420 O   0  0  0  0  0  1  0  0  0  0  0  0
  1  9  1  0  0  0  0
  2  8  2  0  0  0  0
  4  6  1  6  0  0  0
  4  5  1  0  0  0  0
  4  3  1  0  0  0  0
  5  3  1  1  0  0  0
  7  9  1  0  0  0  0
  8 17  1  0  0  0  0
  8  5  1  0  0  0  0
  9  2  1  0  0  0  0
  9  6  1  0  0  0  0
 10 11  2  0  0  0  0
 10  2  1  0  0  0  0
 12 13  1  0  0  0  0
 13 10  1  1  0  0  0
 14 12  1  0  0  0  0
 15 14  1  0  0  0  0
 15 16  1  0  0  0  0
 16 13  1  0  0  0  0
 17 19  1  0  0  0  0
 19 18  1  1  0  0  0
 20 19  1  0  0  0  0
 21 19  1  0  0  0  0
 21 22  1  0  0  0  0
 22 23  1  0  0  0  0
 23 26  1  0  0  0  0
 23 24  2  0  0  0  0
 26 25  1  1  0  0  0
 27 26  1  0  0  0  0
 27 30  1  0  0  0  0
 28 29  2  0  0  0  0
 29 30  1  0  0  0  0
 29 31  1  0  0  0  0
M  END
>  <MODEL>
4

>  <REMARK>
 VINA RESULT:      -6.9      1.636      2.638
  Name = 
  10 active torsions:
  status: ('A' for Active; 'I' for Inactive)
    1  A    between atoms: C_4  and  N_18
    2  A    between atoms: C_4  and  C_23
    3  A    between atoms: C_6  and  C_22
    4  A    between atoms: C_7  and  C_12
    5  A    between atoms: C_7  and  C_28
    6  A    between atoms: C_9  and  C_22
    7  A    between atoms: C_12  and  C_14
    8  A    between atoms: C_14  and  O_15
    9  A    between atoms: O_15  and  C_24
   10  A    between atoms: C_23  and  C_24
                            x       y       z     vdW  Elec       q    Type
                         _______ _______ _______ _____ _____    ______ ____

>  <TORSDO>
F 10

$$$$
=
 OpenBabel11072412123D

 31 33  0  0  1  0  0  0  0  0999 V2000
  163.4610  205.6250  152.5080 F   0  0  0  0  0  0  0  0  0  0  0  0
  161.6400  206.9220  151.7320 C   0  0  0  0  0  0  0  0  0  0  0  0
  159.8860  204.2840  150.8910 C   0  0  0  0  0  2  0  0  0  0  0  0
  161.2280  204.0190  151.5390 C   0  0  1  0  0  3  0  0  0  0  0  0
  161.1260  204.9300  150.3050 C   0  0  2  0  0  3  0  0  0  0  0  0
  161.2810  204.7560  152.8780 C   0  0  0  0  0  2  0  0  0  0  0  0
  162.1430  206.6210  154.0360 F   0  0  0  0  0  0  0  0  0  0  0  0
  161.1400  206.4170  150.5810 C   0  0  0  0  0  0  0  0  0  0  0  0
  162.1610  205.9960  152.8010 C   0  0  0  0  0  0  0  0  0  0  0  0
  161.7350  208.3810  151.9450 C   0  0  0  0  0  0  0  0  0  0  0  0
  162.6930  209.0150  151.4260 O   0  0  0  0  0  0  0  0  0  0  0  0
  160.0600  210.0830  152.2440 N   0  0  0  0  0  2  0  0  0  0  0  0
  160.7320  209.1030  152.7460 C   0  0  2  0  0  3  0  0  0  0  0  0
  159.1830  210.7600  153.1790 C   0  0  0  0  0  2  0  0  0  0  0  0
  159.6880  210.4390  154.5750 C   0  0  0  0  0  2  0  0  0  0  0  0
  160.4870  208.8080  154.4890 S   0  0  0  0  0  0  0  0  0  0  0  0
  160.7230  207.3340  149.4600 C   0  0  0  0  0  2  0  0  0  0  0  0
  162.0190  209.0960  148.2590 C   0  0  0  0  0  1  0  0  0  0  0  0
  161.8190  207.5990  148.4270 C   0  0  1  0  0  0  0  0  0  0  0  0
  163.0230  207.0080  148.8210 O   0  0  0  0  0  1  0  0  0  0  0  0
  161.3710  206.9960  147.1030 C   0  0  0  0  0  2  0  0  0  0  0  0
  161.3890  205.5730  147.1580 O   0  0  0  0  0  0  0  0  0  0  0  0
  162.1230  204.8010  146.2560 C   0  0  0  0  0  0  0  0  0  0  0  0
  163.3780  204.7640  146.3610 O   0  0  0  0  0  0  0  0  0  0  0  0
  160.2720  204.6800  144.7800 O   0  0  0  0  0  1  0  0  0  0  0  0
  161.4460  204.0300  145.1640 C   0  0  2  0  0  3  0  0  0  0  0  0
  161.1330  202.6210  145.6330 C   0  0  0  0  0  2  0  0  0  0  0  0
  161.4040  200.2050  147.1970 O   0  0  0  0  0  0  0  0  0  0  0  0
  161.0870  201.4020  147.8280 C   0  0  0  0  0  0  0  0  0  0  0  0
  160.9570  202.6060  147.0750 N   0  0  0  0  0  2  0  0  0  0  0  0
  160.9140  201.4240  149.0740 O   0  0  0  0  0  1  0  0  0  0  0  0
  1  9  1  0  0  0  0
  2 10  1  0  0  0  0
  2  9  1  0  0  0  0
  4  3  1  1  0  0  0
  4  6  1  0  0  0  0
  5  8  1  0  0  0  0
  5  3  1  1  0  0  0
  5  4  1  0  0  0  0
  8  2  2  0  0  0  0
  9  6  1  0  0  0  0
  9  7  1  0  0  0  0
 11 10  2  0  0  0  0
 12 13  1  0  0  0  0
 12 14  1  0  0  0  0
 13 10  1  1  0  0  0
 13 16  1  0  0  0  0
 14 15  1  0  0  0  0
 16 15  1  0  0  0  0
 17  8  1  0  0  0  0
 19 18  1  6  0  0  0
 19 20  1  0  0  0  0
 19 17  1  0  0  0  0
 21 22  1  0  0  0  0
 21 19  1  0  0  0  0
 23 24  2  0  0  0  0
 23 22  1  0  0  0  0
 26 25  1  1  0  0  0
 26 27  1  0  0  0  0
 26 23  1  0  0  0  0
 27 30  1  0  0  0  0
 28 29  2  0  0  0  0
 29 31  1  0  0  0  0
 30 29  1  0  0  0  0
M  END
>  <MODEL>
5

>  <REMARK>
 VINA RESULT:      -6.9      3.477      7.602
  Name = 
  10 active torsions:
  status: ('A' for Active; 'I' for Inactive)
    1  A    between atoms: C_4  and  N_18
    2  A    between atoms: C_4  and  C_23
    3  A    between atoms: C_6  and  C_22
    4  A    between atoms: C_7  and  C_12
    5  A    between atoms: C_7  and  C_28
    6  A    between atoms: C_9  and  C_22
    7  A    between atoms: C_12  and  C_14
    8  A    between atoms: C_14  and  O_15
    9  A    between atoms: O_15  and  C_24
   10  A    between atoms: C_23  and  C_24
                            x       y       z     vdW  Elec       q    Type
                         _______ _______ _______ _____ _____    ______ ____

>  <TORSDO>
F 10

$$$$
=
 OpenBabel11072412123D

 31 33  0  0  1  0  0  0  0  0999 V2000
  160.0640  202.9070  149.1450 F   0  0  0  0  0  0  0  0  0  0  0  0
  161.3590  204.8880  149.1030 C   0  0  0  0  0  0  0  0  0  0  0  0
  161.4030  205.1430  152.3710 C   0  0  0  0  0  2  0  0  0  0  0  0
  160.6980  203.9310  151.8010 C   0  0  1  0  0  3  0  0  0  0  0  0
  160.3150  205.3440  151.3330 C   0  0  2  0  0  3  0  0  0  0  0  0
  161.6650  203.1880  150.8780 C   0  0  0  0  0  2  0  0  0  0  0  0
  162.2510  202.7340  148.6390 F   0  0  0  0  0  0  0  0  0  0  0  0
  160.9070  205.7820  150.0120 C   0  0  0  0  0  0  0  0  0  0  0  0
  161.3240  203.4130  149.4120 C   0  0  0  0  0  0  0  0  0  0  0  0
  161.8440  205.3280  147.7780 C   0  0  0  0  0  0  0  0  0  0  0  0
  162.8450  206.0930  147.7150 O   0  0  0  0  0  0  0  0  0  0  0  0
  161.2080  203.6520  146.1740 N   0  0  0  0  0  2  0  0  0  0  0  0
  161.1840  204.8880  146.5380 C   0  0  2  0  0  3  0  0  0  0  0  0
  160.6020  203.3860  144.8840 C   0  0  0  0  0  2  0  0  0  0  0  0
  160.5700  204.7030  144.1280 C   0  0  0  0  0  2  0  0  0  0  0  0
  160.4560  206.0260  145.3700 S   0  0  0  0  0  0  0  0  0  0  0  0
  160.8300  207.2490  149.6710 C   0  0  0  0  0  2  0  0  0  0  0  0
  161.3570  208.7400  151.6010 C   0  0  0  0  0  1  0  0  0  0  0  0
  161.9100  208.1040  150.3360 C   0  0  1  0  0  0  0  0  0  0  0  0
  163.0290  207.3290  150.6540 O   0  0  0  0  0  1  0  0  0  0  0  0
  162.3150  209.1950  149.3550 C   0  0  0  0  0  2  0  0  0  0  0  0
  162.2300  210.4820  149.9580 O   0  0  0  0  0  0  0  0  0  0  0  0
  161.8510  211.6190  149.2430 C   0  0  0  0  0  0  0  0  0  0  0  0
  161.0080  212.4070  149.7480 O   0  0  0  0  0  0  0  0  0  0  0  0
  163.7780  212.2030  147.9920 O   0  0  0  0  0  1  0  0  0  0  0  0
  162.4180  211.9070  147.8860 C   0  0  2  0  0  3  0  0  0  0  0  0
  161.6780  213.0670  147.2450 C   0  0  0  0  0  2  0  0  0  0  0  0
  158.7930  213.1990  147.3600 O   0  0  0  0  0  1  0  0  0  0  0  0
  159.4130  212.6480  146.2460 C   0  0  0  0  0  0  0  0  0  0  0  0
  160.8350  212.5820  146.1660 N   0  0  0  0  0  2  0  0  0  0  0  0
  158.7140  212.2050  145.2980 O   0  0  0  0  0  0  0  0  0  0  0  0
  1  9  1  0  0  0  0
  2  9  1  0  0  0  0
  2  8  2  0  0  0  0
  4  6  1  6  0  0  0
  4  3  1  0  0  0  0
  5  4  1  0  0  0  0
  5  3  1  1  0  0  0
  7  9  1  0  0  0  0
  8  5  1  0  0  0  0
  9  6  1  0  0  0  0
 10  2  1  0  0  0  0
 11 10  2  0  0  0  0
 12 13  1  0  0  0  0
 13 10  1  6  0  0  0
 14 12  1  0  0  0  0
 15 14  1  0  0  0  0
 15 16  1  0  0  0  0
 16 13  1  0  0  0  0
 17  8  1  0  0  0  0
 17 19  1  0  0  0  0
 19 20  1  0  0  0  0
 19 18  1  1  0  0  0
 21 22  1  0  0  0  0
 21 19  1  0  0  0  0
 23 24  2  0  0  0  0
 23 22  1  0  0  0  0
 26 25  1  1  0  0  0
 26 23  1  0  0  0  0
 27 26  1  0  0  0  0
 29 28  1  0  0  0  0
 30 29  1  0  0  0  0
 30 27  1  0  0  0  0
 31 29  2  0  0  0  0
M  END
>  <MODEL>
6

>  <REMARK>
 VINA RESULT:      -6.7      3.275      5.046
  Name = 
  10 active torsions:
  status: ('A' for Active; 'I' for Inactive)
    1  A    between atoms: C_4  and  N_18
    2  A    between atoms: C_4  and  C_23
    3  A    between atoms: C_6  and  C_22
    4  A    between atoms: C_7  and  C_12
    5  A    between atoms: C_7  and  C_28
    6  A    between atoms: C_9  and  C_22
    7  A    between atoms: C_12  and  C_14
    8  A    between atoms: C_14  and  O_15
    9  A    between atoms: O_15  and  C_24
   10  A    between atoms: C_23  and  C_24
                            x       y       z     vdW  Elec       q    Type
                         _______ _______ _______ _____ _____    ______ ____

>  <TORSDO>
F 10

$$$$
=
 OpenBabel11072412123D

 31 33  0  0  1  0  0  0  0  0999 V2000
  160.1040  203.1580  148.1220 F   0  0  0  0  0  0  0  0  0  0  0  0
  161.3470  204.9330  149.0760 C   0  0  0  0  0  0  0  0  0  0  0  0
  161.1670  203.6760  152.0970 C   0  0  0  0  0  2  0  0  0  0  0  0
  160.5330  202.8590  150.9910 C   0  0  1  0  0  3  0  0  0  0  0  0
  160.1460  204.3340  151.1890 C   0  0  2  0  0  3  0  0  0  0  0  0
  161.5780  202.6100  149.9030 C   0  0  0  0  0  2  0  0  0  0  0  0
  162.3230  203.2180  147.7490 F   0  0  0  0  0  0  0  0  0  0  0  0
  160.8130  205.3200  150.2560 C   0  0  0  0  0  0  0  0  0  0  0  0
  161.3300  203.4790  148.6780 C   0  0  0  0  0  0  0  0  0  0  0  0
  161.9080  205.9230  148.1320 C   0  0  0  0  0  0  0  0  0  0  0  0
  162.7060  206.7980  148.5650 O   0  0  0  0  0  0  0  0  0  0  0  0
  160.3630  206.2030  146.3090 N   0  0  0  0  0  2  0  0  0  0  0  0
  161.5530  205.9030  146.7030 C   0  0  2  0  0  3  0  0  0  0  0  0
  160.1360  206.0430  144.8860 C   0  0  0  0  0  2  0  0  0  0  0  0
  161.2080  205.1000  144.3670 C   0  0  0  0  0  2  0  0  0  0  0  0
  162.6630  205.3130  145.4370 S   0  0  0  0  0  0  0  0  0  0  0  0
  160.7210  206.7820  150.6120 C   0  0  0  0  0  2  0  0  0  0  0  0
  162.7800  206.2030  151.8990 C   0  0  0  0  0  1  0  0  0  0  0  0
  161.6490  207.2080  151.7500 C   0  0  1  0  0  0  0  0  0  0  0  0
  162.1820  208.4780  151.5050 O   0  0  0  0  0  1  0  0  0  0  0  0
  160.8310  207.2450  153.0340 C   0  0  0  0  0  2  0  0  0  0  0  0
  161.2950  208.2710  153.9050 O   0  0  0  0  0  0  0  0  0  0  0  0
  161.1150  208.2150  155.2880 C   0  0  0  0  0  0  0  0  0  0  0  0
  160.5370  207.2130  155.7900 O   0  0  0  0  0  0  0  0  0  0  0  0
  160.5810  209.6560  157.0930 O   0  0  0  0  0  1  0  0  0  0  0  0
  161.5830  209.3250  156.1780 C   0  0  2  0  0  3  0  0  0  0  0  0
  161.9550  210.5400  155.3490 C   0  0  0  0  0  2  0  0  0  0  0  0
  160.6940  211.2420  152.8440 O   0  0  0  0  0  0  0  0  0  0  0  0
  160.2250  211.7950  154.0300 C   0  0  0  0  0  0  0  0  0  0  0  0
  160.8280  211.4550  155.2760 N   0  0  0  0  0  2  0  0  0  0  0  0
  159.2600  212.6010  154.0030 O   0  0  0  0  0  1  0  0  0  0  0  0
  1  9  1  0  0  0  0
  2  8  2  0  0  0  0
  4  6  1  6  0  0  0
  4  5  1  0  0  0  0
  4  3  1  0  0  0  0
  5  3  1  1  0  0  0
  7  9  1  0  0  0  0
  8 17  1  0  0  0  0
  8  5  1  0  0  0  0
  9  2  1  0  0  0  0
  9  6  1  0  0  0  0
 10 11  2  0  0  0  0
 10  2  1  0  0  0  0
 12 13  1  0  0  0  0
 13 10  1  1  0  0  0
 14 12  1  0  0  0  0
 15 14  1  0  0  0  0
 15 16  1  0  0  0  0
 16 13  1  0  0  0  0
 17 19  1  0  0  0  0
 19 18  1  1  0  0  0
 19 21  1  0  0  0  0
 20 19  1  0  0  0  0
 21 22  1  0  0  0  0
 22 23  1  0  0  0  0
 23 24  2  0  0  0  0
 23 26  1  0  0  0  0
 26 25  1  1  0  0  0
 27 26  1  0  0  0  0
 28 29  2  0  0  0  0
 29 30  1  0  0  0  0
 30 27  1  0  0  0  0
 31 29  1  0  0  0  0
M  END
>  <MODEL>
7

>  <REMARK>
 VINA RESULT:      -6.7      1.019      2.422
  Name = 
  10 active torsions:
  status: ('A' for Active; 'I' for Inactive)
    1  A    between atoms: C_4  and  N_18
    2  A    between atoms: C_4  and  C_23
    3  A    between atoms: C_6  and  C_22
    4  A    between atoms: C_7  and  C_12
    5  A    between atoms: C_7  and  C_28
    6  A    between atoms: C_9  and  C_22
    7  A    between atoms: C_12  and  C_14
    8  A    between atoms: C_14  and  O_15
    9  A    between atoms: O_15  and  C_24
   10  A    between atoms: C_23  and  C_24
                            x       y       z     vdW  Elec       q    Type
                         _______ _______ _______ _____ _____    ______ ____

>  <TORSDO>
F 10

$$$$
=
 OpenBabel11072412123D

 31 33  0  0  1  0  0  0  0  0999 V2000
  161.8610  210.5290  156.5270 F   0  0  0  0  0  0  0  0  0  0  0  0
  160.2480  210.2850  154.8120 C   0  0  0  0  0  0  0  0  0  0  0  0
  160.3280  207.0120  154.9540 C   0  0  0  0  0  2  0  0  0  0  0  0
  161.1990  207.7490  155.9490 C   0  0  1  0  0  3  0  0  0  0  0  0
  161.3110  208.0480  154.4450 C   0  0  2  0  0  3  0  0  0  0  0  0
  160.3270  208.7270  156.7360 C   0  0  0  0  0  2  0  0  0  0  0  0
  159.7130  210.9870  157.0200 F   0  0  0  0  0  0  0  0  0  0  0  0
  160.5870  209.2870  153.9660 C   0  0  0  0  0  0  0  0  0  0  0  0
  160.5490  210.1640  156.2840 C   0  0  0  0  0  0  0  0  0  0  0  0
  159.6280  211.5300  154.3120 C   0  0  0  0  0  0  0  0  0  0  0  0
  160.3250  212.3320  153.6330 O   0  0  0  0  0  0  0  0  0  0  0  0
  157.3510  210.9100  154.7820 N   0  0  0  0  0  2  0  0  0  0  0  0
  158.2160  211.8460  154.5890 C   0  0  2  0  0  3  0  0  0  0  0  0
  155.9860  211.3690  154.9440 C   0  0  0  0  0  2  0  0  0  0  0  0
  155.9100  212.7620  154.3430 C   0  0  0  0  0  2  0  0  0  0  0  0
  157.5610  213.5040  154.5150 S   0  0  0  0  0  0  0  0  0  0  0  0
  160.3950  209.4450  152.4790 C   0  0  0  0  0  2  0  0  0  0  0  0
  161.4560  210.7490  150.6350 C   0  0  0  0  0  1  0  0  0  0  0  0
  161.6900  209.6940  151.7040 C   0  0  1  0  0  0  0  0  0  0  0  0
  162.7080  210.1160  152.5640 O   0  0  0  0  0  1  0  0  0  0  0  0
  162.0990  208.3850  151.0420 C   0  0  0  0  0  2  0  0  0  0  0  0
  160.9800  207.5170  150.8920 O   0  0  0  0  0  0  0  0  0  0  0  0
  161.1160  206.1850  150.5000 C   0  0  0  0  0  0  0  0  0  0  0  0
  161.5820  205.3490  151.3210 O   0  0  0  0  0  0  0  0  0  0  0  0
  160.8200  204.3480  149.0310 O   0  0  0  0  0  1  0  0  0  0  0  0
  160.7330  205.7380  149.1220 C   0  0  2  0  0  3  0  0  0  0  0  0
  161.6380  206.3870  148.0900 C   0  0  0  0  0  2  0  0  0  0  0  0
  162.7100  205.0090  145.7860 O   0  0  0  0  0  1  0  0  0  0  0  0
  161.5270  205.7300  145.6690 C   0  0  0  0  0  0  0  0  0  0  0  0
  160.9780  206.4080  146.7960 N   0  0  0  0  0  2  0  0  0  0  0  0
  160.9350  205.7820  144.5600 O   0  0  0  0  0  0  0  0  0  0  0  0
  2  9  1  0  0  0  0
  4  3  1  6  0  0  0
  4  6  1  0  0  0  0
  5  3  1  6  0  0  0
  5  4  1  0  0  0  0
  8  5  1  0  0  0  0
  8  2  2  0  0  0  0
  9  1  1  0  0  0  0
  9  6  1  0  0  0  0
  9  7  1  0  0  0  0
 10  2  1  0  0  0  0
 11 10  2  0  0  0  0
 12 14  1  0  0  0  0
 13 10  1  6  0  0  0
 13 12  1  0  0  0  0
 15 16  1  0  0  0  0
 15 14  1  0  0  0  0
 16 13  1  0  0  0  0
 17  8  1  0  0  0  0
 19 18  1  6  0  0  0
 19 17  1  0  0  0  0
 19 20  1  0  0  0  0
 21 19  1  0  0  0  0
 22 21  1  0  0  0  0
 23 22  1  0  0  0  0
 23 24  2  0  0  0  0
 26 25  1  1  0  0  0
 26 23  1  0  0  0  0
 27 26  1  0  0  0  0
 29 28  1  0  0  0  0
 29 30  1  0  0  0  0
 30 27  1  0  0  0  0
 31 29  2  0  0  0  0
M  END
>  <MODEL>
8

>  <REMARK>
 VINA RESULT:      -6.4      4.307      8.660
  Name = 
  10 active torsions:
  status: ('A' for Active; 'I' for Inactive)
    1  A    between atoms: C_4  and  N_18
    2  A    between atoms: C_4  and  C_23
    3  A    between atoms: C_6  and  C_22
    4  A    between atoms: C_7  and  C_12
    5  A    between atoms: C_7  and  C_28
    6  A    between atoms: C_9  and  C_22
    7  A    between atoms: C_12  and  C_14
    8  A    between atoms: C_14  and  O_15
    9  A    between atoms: O_15  and  C_24
   10  A    between atoms: C_23  and  C_24
                            x       y       z     vdW  Elec       q    Type
                         _______ _______ _______ _____ _____    ______ ____

>  <TORSDO>
F 10

$$$$
=
 OpenBabel11072412123D

 31 33  0  0  1  0  0  0  0  0999 V2000
  160.0770  206.7830  154.4590 F   0  0  0  0  0  0  0  0  0  0  0  0
  161.3950  207.2050  152.5390 C   0  0  0  0  0  0  0  0  0  0  0  0
  161.0230  210.4530  152.7760 C   0  0  0  0  0  2  0  0  0  0  0  0
  160.3800  209.6220  153.8650 C   0  0  1  0  0  3  0  0  0  0  0  0
  160.0810  209.3310  152.3860 C   0  0  2  0  0  3  0  0  0  0  0  0
  161.4460  208.7250  154.4940 C   0  0  0  0  0  2  0  0  0  0  0  0
  162.3070  206.5340  154.6290 F   0  0  0  0  0  0  0  0  0  0  0  0
  160.8430  208.1760  151.7760 C   0  0  0  0  0  0  0  0  0  0  0  0
  161.2990  207.2790  154.0410 C   0  0  0  0  0  0  0  0  0  0  0  0
  162.0530  206.0340  151.9230 C   0  0  0  0  0  0  0  0  0  0  0  0
  163.2780  206.1010  151.6340 O   0  0  0  0  0  0  0  0  0  0  0  0
  161.0600  203.9430  152.5810 N   0  0  0  0  0  2  0  0  0  0  0  0
  161.3050  204.7960  151.6460 C   0  0  2  0  0  3  0  0  0  0  0  0
  160.4030  202.7290  152.1390 C   0  0  0  0  0  2  0  0  0  0  0  0
  160.6500  202.6070  150.6450 C   0  0  0  0  0  2  0  0  0  0  0  0
  160.8320  204.2970  149.9980 S   0  0  0  0  0  0  0  0  0  0  0  0
  160.8320  208.0550  150.2730 C   0  0  0  0  0  2  0  0  0  0  0  0
  161.5830  210.0080  148.9140 C   0  0  0  0  0  1  0  0  0  0  0  0
  162.0260  208.7180  149.5830 C   0  0  1  0  0  0  0  0  0  0  0  0
  163.0400  208.9920  150.5050 O   0  0  0  0  0  1  0  0  0  0  0  0
  162.5510  207.7540  148.5280 C   0  0  0  0  0  2  0  0  0  0  0  0
  161.5460  206.8210  148.1430 O   0  0  0  0  0  0  0  0  0  0  0  0
  161.4650  206.3030  146.8500 C   0  0  0  0  0  0  0  0  0  0  0  0
  160.4580  206.5780  146.1430 O   0  0  0  0  0  0  0  0  0  0  0  0
  162.6280  205.5830  144.9140 O   0  0  0  0  0  1  0  0  0  0  0  0
  162.5410  205.4190  146.2980 C   0  0  2  0  0  3  0  0  0  0  0  0
  162.2520  203.9680  146.6350 C   0  0  0  0  0  2  0  0  0  0  0  0
  160.9280  201.4230  146.9960 O   0  0  0  0  0  1  0  0  0  0  0  0
  160.7710  202.1190  145.8030 C   0  0  0  0  0  0  0  0  0  0  0  0
  161.4080  203.3790  145.6090 N   0  0  0  0  0  2  0  0  0  0  0  0
  160.0580  201.6330  144.8870 O   0  0  0  0  0  0  0  0  0  0  0  0
  2  9  1  0  0  0  0
  4  3  1  6  0  0  0
  4  6  1  0  0  0  0
  5  3  1  6  0  0  0
  5  4  1  0  0  0  0
  8  5  1  0  0  0  0
  8  2  2  0  0  0  0
  9  1  1  0  0  0  0
  9  6  1  0  0  0  0
  9  7  1  0  0  0  0
 10  2  1  0  0  0  0
 11 10  2  0  0  0  0
 13 10  1  6  0  0  0
 13 12  1  0  0  0  0
 14 12  1  0  0  0  0
 15 14  1  0  0  0  0
 16 15  1  0  0  0  0
 16 13  1  0  0  0  0
 17  8  1  0  0  0  0
 19 18  1  6  0  0  0
 19 17  1  0  0  0  0
 19 20  1  0  0  0  0
 21 19  1  0  0  0  0
 22 21  1  0  0  0  0
 23 22  1  0  0  0  0
 24 23  2  0  0  0  0
 26 25  1  6  0  0  0
 26 27  1  0  0  0  0
 26 23  1  0  0  0  0
 29 28  1  0  0  0  0
 30 29  1  0  0  0  0
 30 27  1  0  0  0  0
 31 29  2  0  0  0  0
M  END
>  <MODEL>
9

>  <REMARK>
 VINA RESULT:      -6.4      3.418      7.513
  Name = 
  10 active torsions:
  status: ('A' for Active; 'I' for Inactive)
    1  A    between atoms: C_4  and  N_18
    2  A    between atoms: C_4  and  C_23
    3  A    between atoms: C_6  and  C_22
    4  A    between atoms: C_7  and  C_12
    5  A    between atoms: C_7  and  C_28
    6  A    between atoms: C_9  and  C_22
    7  A    between atoms: C_12  and  C_14
    8  A    between atoms: C_14  and  O_15
    9  A    between atoms: O_15  and  C_24
   10  A    between atoms: C_23  and  C_24
                            x       y       z     vdW  Elec       q    Type
                         _______ _______ _______ _____ _____    ______ ____

>  <TORSDO>
F 10

$$$$
