=
 OpenBabel11072413233D

 44 49  0  0  1  0  0  0  0  0999 V2000
  158.2670  213.9620  155.0880 C   0  0  0  0  0  2  0  0  0  0  0  0
  161.7210  210.9920  154.6470 C   0  0  2  0  0  3  0  0  0  0  0  0
  162.3000  210.4540  152.1770 N   0  0  0  0  0  2  0  0  0  0  0  0
  158.4800  213.0000  157.2550 O   0  0  0  0  0  1  0  0  0  0  0  0
  162.3230  211.0630  156.0450 C   0  0  0  0  0  2  0  0  0  0  0  0
  159.5450  213.5430  152.8250 C   0  0  0  0  0  2  0  0  0  0  0  0
  160.9540  210.3600  151.6120 C   0  0  2  0  0  3  0  0  0  0  0  0
  159.1380  213.1220  154.2250 C   0  0  2  0  0  3  0  0  0  0  0  0
  160.3920  210.2910  154.5900 C   0  0  0  0  0  0  0  0  0  0  0  0
  160.5240  212.6270  152.3700 O   0  0  0  0  0  0  0  0  0  0  0  0
  157.7510  212.8890  156.0670 C   0  0  2  0  0  0  0  0  0  0  0  0
  159.8310  207.6840  157.2610 N   0  0  0  0  0  1  0  0  0  0  0  0
  163.9200  210.4760  153.8230 O   0  0  0  0  0  0  0  0  0  0  0  0
  159.3640  210.7800  153.6040 C   0  0  1  0  0  3  0  0  0  0  0  0
  159.9960  209.2900  155.3920 C   0  0  0  0  0  3  0  0  0  0  0  0
  162.6920  210.5870  153.5520 C   0  0  0  0  0  0  0  0  0  0  0  0
  158.3990  211.8260  154.1800 C   0  0  1  0  0  0  0  0  0  0  0  0
  159.9570  211.3240  152.2630 C   0  0  2  0  0  3  0  0  0  0  0  0
  161.8340  208.8490  156.9940 N   0  0  0  0  0  0  0  0  0  0  0  0
  157.9850  211.5980  155.5040 O   0  0  0  0  0  0  0  0  0  0  0  0
  157.1530  211.8730  153.2820 C   0  0  0  0  0  1  0  0  0  0  0  0
  162.8640  209.7000  156.4220 C   0  0  0  0  0  2  0  0  0  0  0  0
  160.6350  208.6150  156.5460 C   0  0  0  0  0  0  0  0  0  0  0  0
  156.2730  213.0450  156.3820 C   0  0  0  0  0  0  0  0  0  0  0  0
  155.4360  211.9150  156.5130 C   0  0  0  0  0  0  0  0  0  0  0  0
  154.3440  214.4510  156.8410 C   0  0  0  0  0  3  0  0  0  0  0  0
  153.5580  213.3080  156.9610 C   0  0  0  0  0  3  0  0  0  0  0  0
  155.7000  214.3150  156.5520 C   0  0  0  0  0  3  0  0  0  0  0  0
  154.1140  212.0790  156.7980 N   0  0  0  0  0  0  0  0  0  0  0  0
  155.9660  210.5970  156.3450 N   0  0  0  0  0  2  0  0  0  0  0  0
  155.3130  209.4590  155.1650 S   0  0  0  0  0  1  0  0  0  0  0  0
  160.4640  208.9170  151.5990 C   0  0  0  0  0  2  0  0  0  0  0  0
  161.5180  207.8700  150.5500 P   0  0  2  0  0  0  0  0  0  0  0  0
  162.6890  207.1050  151.5010 O   0  0  0  0  0  1  0  0  0  0  0  0
  162.2110  208.7540  149.5390 O   0  0  0  0  0  0  0  0  0  0  0  0
  160.3740  206.4250  149.5070 S   0  0  0  0  0  0  0  0  0  0  0  0
  161.3080  205.0300  150.2080 C   0  0  0  0  0  2  0  0  0  0  0  0
  160.7810  201.4650  149.1290 C   0  0  0  0  0  3  0  0  0  0  0  0
  161.2250  202.7300  145.6840 C   0  0  0  0  0  1  0  0  0  0  0  0
  161.1670  203.8260  149.3440 C   0  0  0  0  0  0  0  0  0  0  0  0
  160.9210  202.6710  149.8890 N   0  0  0  0  0  0  0  0  0  0  0  0
  161.1290  202.7260  147.1320 N   0  0  0  0  0  0  0  0  0  0  0  0
  161.3700  203.9750  147.8580 C   0  0  0  0  0  2  0  0  0  0  0  0
  160.8780  201.4900  147.8050 C   0  0  0  0  0  3  0  0  0  0  0  0
  1 11  1  0  0  0  0
  2  5  1  1  0  0  0
  3 16  1  0  0  0  0
  5 22  1  0  0  0  0
  7 32  1  1  0  0  0
  7  3  1  0  0  0  0
  7 18  1  0  0  0  0
  8  6  1  6  0  0  0
  8  1  1  0  0  0  0
  9  2  1  0  0  0  0
  9 15  2  0  0  0  0
 10  6  1  0  0  0  0
 11 24  1  0  0  0  0
 11  4  1  1  0  0  0
 14 17  1  0  0  0  0
 14  9  1  1  0  0  0
 15 23  1  0  0  0  0
 16 13  2  0  0  0  0
 16  2  1  0  0  0  0
 17 21  1  6  0  0  0
 17  8  1  0  0  0  0
 17 20  1  0  0  0  0
 18 10  1  1  0  0  0
 18 14  1  0  0  0  0
 20 11  1  0  0  0  0
 22 19  1  0  0  0  0
 23 19  2  0  0  0  0
 23 12  1  0  0  0  0
 24 25  1  0  0  0  0
 24 28  2  0  0  0  0
 25 29  2  0  0  0  0
 26 27  2  0  0  0  0
 28 26  1  0  0  0  0
 29 27  1  0  0  0  0
 30 25  1  0  0  0  0
 31 30  1  0  0  0  0
 33 35  2  6  0  0  0
 33 34  1  0  0  0  0
 33 32  1  0  0  0  0
 36 37  1  0  0  0  0
 36 33  1  0  0  0  0
 38 41  1  0  0  0  0
 39 42  1  0  0  0  0
 40 41  2  0  0  0  0
 40 37  1  0  0  0  0
 42 44  1  0  0  0  0
 42 43  1  0  0  0  0
 43 40  1  0  0  0  0
 44 38  2  0  0  0  0
M  END
>  <MODEL>
1

>  <REMARK>
 VINA RESULT:      -2.4      0.000      0.000
  Name = 
  7 active torsions:
  status: ('A' for Active; 'I' for Inactive)
    1  A    between atoms: C_1  and  S_9
    2  A    between atoms: C_1  and  C_11
    3  A    between atoms: P_6  and  S_9
    4  A    between atoms: P_6  and  C_41
    5  A    between atoms: C_8  and  C_23
    6  A    between atoms: N_10  and  C_16
    7  A    between atoms: C_18  and  C_41
                            x       y       z     vdW  Elec       q    Type
                         _______ _______ _______ _____ _____    ______ ____

>  <TORSDO>
F 7

$$$$
=
 OpenBabel11072413233D

 44 49  0  0  1  0  0  0  0  0999 V2000
  158.5330  214.0760  154.4150 C   0  0  0  0  0  2  0  0  0  0  0  0
  161.9500  211.0310  154.3650 C   0  0  2  0  0  3  0  0  0  0  0  0
  162.5780  210.2370  151.9780 N   0  0  0  0  0  2  0  0  0  0  0  0
  158.6790  213.3370  156.6730 O   0  0  0  0  0  1  0  0  0  0  0  0
  162.5200  211.2360  155.7630 C   0  0  0  0  0  2  0  0  0  0  0  0
  159.8580  213.4110  152.2390 C   0  0  0  0  0  2  0  0  0  0  0  0
  161.2450  210.1030  151.3920 C   0  0  2  0  0  3  0  0  0  0  0  0
  159.4110  213.1410  153.6640 C   0  0  2  0  0  3  0  0  0  0  0  0
  160.6120  210.3450  154.3470 C   0  0  0  0  0  0  0  0  0  0  0  0
  160.8330  212.4410  151.9050 O   0  0  0  0  0  0  0  0  0  0  0  0
  157.9770  213.1150  155.4850 C   0  0  2  0  0  0  0  0  0  0  0  0
  159.9470  208.0320  157.2530 N   0  0  0  0  0  1  0  0  0  0  0  0
  164.1590  210.4060  153.6530 O   0  0  0  0  0  0  0  0  0  0  0  0
  159.6150  210.7450  153.2910 C   0  0  1  0  0  3  0  0  0  0  0  0
  160.1810  209.4370  155.2360 C   0  0  0  0  0  3  0  0  0  0  0  0
  162.9400  210.5040  153.3410 C   0  0  0  0  0  0  0  0  0  0  0  0
  158.6530  211.8570  153.7330 C   0  0  1  0  0  0  0  0  0  0  0  0
  160.2480  211.1410  151.9160 C   0  0  2  0  0  3  0  0  0  0  0  0
  161.9740  209.1380  156.9200 N   0  0  0  0  0  0  0  0  0  0  0  0
  158.2050  211.7700  155.0620 O   0  0  0  0  0  0  0  0  0  0  0  0
  157.4300  211.8280  152.8030 C   0  0  0  0  0  1  0  0  0  0  0  0
  163.0300  209.9120  156.2910 C   0  0  0  0  0  2  0  0  0  0  0  0
  160.7820  208.8750  156.4690 C   0  0  0  0  0  0  0  0  0  0  0  0
  156.4950  213.3210  155.7450 C   0  0  0  0  0  0  0  0  0  0  0  0
  155.6750  213.9680  154.7940 C   0  0  0  0  0  0  0  0  0  0  0  0
  154.5400  213.0670  157.1670 C   0  0  0  0  0  3  0  0  0  0  0  0
  153.7710  213.7090  156.2000 C   0  0  0  0  0  3  0  0  0  0  0  0
  155.9000  212.8740  156.9350 C   0  0  0  0  0  3  0  0  0  0  0  0
  154.3470  214.1400  155.0480 N   0  0  0  0  0  0  0  0  0  0  0  0
  156.2290  214.4480  153.5660 N   0  0  0  0  0  2  0  0  0  0  0  0
  155.3760  214.3120  152.0270 S   0  0  0  0  0  1  0  0  0  0  0  0
  160.7330  208.6730  151.5140 C   0  0  0  0  0  2  0  0  0  0  0  0
  161.6100  207.5580  150.3750 P   0  0  2  0  0  0  0  0  0  0  0  0
  162.7930  206.6940  151.2210 O   0  0  0  0  0  1  0  0  0  0  0  0
  162.2830  208.3950  149.3130 O   0  0  0  0  0  0  0  0  0  0  0  0
  160.2720  206.2160  149.4270 S   0  0  0  0  0  0  0  0  0  0  0  0
  161.4390  204.8240  149.5220 C   0  0  0  0  0  2  0  0  0  0  0  0
  161.1940  203.7850  145.9150 C   0  0  0  0  0  3  0  0  0  0  0  0
  161.0930  200.3220  147.2060 C   0  0  0  0  0  1  0  0  0  0  0  0
  161.3290  203.9730  148.3060 C   0  0  0  0  0  0  0  0  0  0  0  0
  161.3070  204.5320  147.1310 N   0  0  0  0  0  0  0  0  0  0  0  0
  161.1610  201.7710  147.1980 N   0  0  0  0  0  0  0  0  0  0  0  0
  161.1880  202.4830  148.4780 C   0  0  0  0  0  2  0  0  0  0  0  0
  161.1260  202.4590  145.9450 C   0  0  0  0  0  3  0  0  0  0  0  0
  1 11  1  0  0  0  0
  2  5  1  1  0  0  0
  3 16  1  0  0  0  0
  5 22  1  0  0  0  0
  7 32  1  1  0  0  0
  7 18  1  0  0  0  0
  7  3  1  0  0  0  0
  8  6  1  6  0  0  0
  8 17  1  0  0  0  0
  8  1  1  0  0  0  0
  9  2  1  0  0  0  0
  9 15  2  0  0  0  0
 10  6  1  0  0  0  0
 11 24  1  0  0  0  0
 11  4  1  1  0  0  0
 14 17  1  0  0  0  0
 14  9  1  1  0  0  0
 15 23  1  0  0  0  0
 16 13  2  0  0  0  0
 16  2  1  0  0  0  0
 17 21  1  6  0  0  0
 17 20  1  0  0  0  0
 18 10  1  1  0  0  0
 18 14  1  0  0  0  0
 20 11  1  0  0  0  0
 22 19  1  0  0  0  0
 23 19  2  0  0  0  0
 23 12  1  0  0  0  0
 24 28  2  0  0  0  0
 25 29  2  0  0  0  0
 25 24  1  0  0  0  0
 27 26  2  0  0  0  0
 28 26  1  0  0  0  0
 29 27  1  0  0  0  0
 30 25  1  0  0  0  0
 31 30  1  0  0  0  0
 33 35  2  6  0  0  0
 33 34  1  0  0  0  0
 33 32  1  0  0  0  0
 36 37  1  0  0  0  0
 36 33  1  0  0  0  0
 38 44  2  0  0  0  0
 38 41  1  0  0  0  0
 40 43  1  0  0  0  0
 40 37  1  0  0  0  0
 41 40  2  0  0  0  0
 42 39  1  0  0  0  0
 42 43  1  0  0  0  0
 44 42  1  0  0  0  0
M  END
>  <MODEL>
2

>  <REMARK>
 VINA RESULT:      -1.3      1.382      1.701
  Name = 
  7 active torsions:
  status: ('A' for Active; 'I' for Inactive)
    1  A    between atoms: C_1  and  S_9
    2  A    between atoms: C_1  and  C_11
    3  A    between atoms: P_6  and  S_9
    4  A    between atoms: P_6  and  C_41
    5  A    between atoms: C_8  and  C_23
    6  A    between atoms: N_10  and  C_16
    7  A    between atoms: C_18  and  C_41
                            x       y       z     vdW  Elec       q    Type
                         _______ _______ _______ _____ _____    ______ ____

>  <TORSDO>
F 7

$$$$
=
 OpenBabel11072413233D

 44 49  0  0  1  0  0  0  0  0999 V2000
  158.6030  214.2720  153.0560 C   0  0  0  0  0  2  0  0  0  0  0  0
  161.7290  211.1240  154.1820 C   0  0  2  0  0  3  0  0  0  0  0  0
  162.7030  209.8700  152.1320 N   0  0  0  0  0  2  0  0  0  0  0  0
  158.2930  213.9630  155.3950 O   0  0  0  0  0  1  0  0  0  0  0  0
  162.0590  211.5620  155.6030 C   0  0  0  0  0  2  0  0  0  0  0  0
  160.2330  213.1530  151.3170 C   0  0  0  0  0  2  0  0  0  0  0  0
  161.4860  209.6870  151.3400 C   0  0  2  0  0  3  0  0  0  0  0  0
  159.5240  213.1750  152.6590 C   0  0  2  0  0  3  0  0  0  0  0  0
  160.3650  210.5070  154.0350 C   0  0  0  0  0  0  0  0  0  0  0  0
  161.1740  212.0960  151.3470 O   0  0  0  0  0  0  0  0  0  0  0  0
  157.7950  213.5540  154.1550 C   0  0  2  0  0  0  0  0  0  0  0  0
  159.0240  208.8110  157.1280 N   0  0  0  0  0  1  0  0  0  0  0  0
  163.9740  210.2800  154.0160 O   0  0  0  0  0  0  0  0  0  0  0  0
  159.6040  210.7450  152.7580 C   0  0  1  0  0  3  0  0  0  0  0  0
  159.7160  209.8010  154.9740 C   0  0  0  0  0  3  0  0  0  0  0  0
  162.8390  210.3710  153.4700 C   0  0  0  0  0  0  0  0  0  0  0  0
  158.6680  211.9610  152.8090 C   0  0  1  0  0  0  0  0  0  0  0  0
  160.4970  210.8480  151.4770 C   0  0  2  0  0  3  0  0  0  0  0  0
  161.1570  209.7440  156.9890 N   0  0  0  0  0  0  0  0  0  0  0  0
  157.9880  212.1450  154.0260 O   0  0  0  0  0  0  0  0  0  0  0  0
  157.6280  211.8130  151.6870 C   0  0  0  0  0  1  0  0  0  0  0  0
  162.3640  210.3400  156.4420 C   0  0  0  0  0  2  0  0  0  0  0  0
  160.0470  209.4540  156.3770 C   0  0  0  0  0  0  0  0  0  0  0  0
  156.3110  213.8710  154.0930 C   0  0  0  0  0  0  0  0  0  0  0  0
  155.5290  213.9190  155.2690 C   0  0  0  0  0  0  0  0  0  0  0  0
  154.3150  214.4150  152.8170 C   0  0  0  0  0  3  0  0  0  0  0  0
  153.5850  214.4530  154.0030 C   0  0  0  0  0  3  0  0  0  0  0  0
  155.6760  214.1250  152.8670 C   0  0  0  0  0  3  0  0  0  0  0  0
  154.2000  214.2080  155.1890 N   0  0  0  0  0  0  0  0  0  0  0  0
  156.1230  213.6640  156.5450 N   0  0  0  0  0  2  0  0  0  0  0  0
  156.1880  212.0480  157.2500 S   0  0  0  0  0  1  0  0  0  0  0  0
  160.8520  208.3290  151.6140 C   0  0  0  0  0  2  0  0  0  0  0  0
  161.9380  206.9720  151.0790 P   0  0  2  0  0  0  0  0  0  0  0  0
  162.7710  206.3490  152.4130 O   0  0  0  0  0  1  0  0  0  0  0  0
  162.9400  207.5250  150.0930 O   0  0  0  0  0  0  0  0  0  0  0  0
  160.8360  205.4330  150.1280 S   0  0  0  0  0  0  0  0  0  0  0  0
  161.4330  205.8880  148.4710 C   0  0  0  0  0  2  0  0  0  0  0  0
  161.1260  203.8890  145.3000 C   0  0  0  0  0  3  0  0  0  0  0  0
  161.1200  200.9170  147.4980 C   0  0  0  0  0  1  0  0  0  0  0  0
  161.3110  204.7330  147.5420 C   0  0  0  0  0  0  0  0  0  0  0  0
  161.2530  204.9450  146.2590 N   0  0  0  0  0  0  0  0  0  0  0  0
  161.1610  202.3080  147.0890 N   0  0  0  0  0  0  0  0  0  0  0  0
  161.2020  203.3470  148.1220 C   0  0  0  0  0  2  0  0  0  0  0  0
  161.0840  202.6230  145.6960 C   0  0  0  0  0  3  0  0  0  0  0  0
  1 11  1  0  0  0  0
  2  5  1  1  0  0  0
  3 16  1  0  0  0  0
  5 22  1  0  0  0  0
  6 10  1  0  0  0  0
  7 18  1  0  0  0  0
  7 32  1  1  0  0  0
  7  3  1  0  0  0  0
  8  6  1  6  0  0  0
  8 17  1  0  0  0  0
  8  1  1  0  0  0  0
  9  2  1  0  0  0  0
  9 15  2  0  0  0  0
 11  4  1  1  0  0  0
 14 17  1  0  0  0  0
 14  9  1  1  0  0  0
 15 23  1  0  0  0  0
 16 13  2  0  0  0  0
 16  2  1  0  0  0  0
 17 21  1  6  0  0  0
 17 20  1  0  0  0  0
 18 10  1  1  0  0  0
 18 14  1  0  0  0  0
 20 11  1  0  0  0  0
 22 19  1  0  0  0  0
 23 19  2  0  0  0  0
 23 12  1  0  0  0  0
 24 11  1  0  0  0  0
 24 25  1  0  0  0  0
 25 30  1  0  0  0  0
 26 28  1  0  0  0  0
 26 27  2  0  0  0  0
 27 29  1  0  0  0  0
 28 24  2  0  0  0  0
 29 25  2  0  0  0  0
 30 31  1  0  0  0  0
 33 35  2  6  0  0  0
 33 32  1  0  0  0  0
 33 34  1  0  0  0  0
 36 33  1  0  0  0  0
 37 36  1  0  0  0  0
 38 44  2  0  0  0  0
 38 41  1  0  0  0  0
 40 43  1  0  0  0  0
 40 37  1  0  0  0  0
 41 40  2  0  0  0  0
 42 39  1  0  0  0  0
 42 43  1  0  0  0  0
 44 42  1  0  0  0  0
M  END
>  <MODEL>
3

>  <REMARK>
 VINA RESULT:      -0.9      1.589      2.046
  Name = 
  7 active torsions:
  status: ('A' for Active; 'I' for Inactive)
    1  A    between atoms: C_1  and  S_9
    2  A    between atoms: C_1  and  C_11
    3  A    between atoms: P_6  and  S_9
    4  A    between atoms: P_6  and  C_41
    5  A    between atoms: C_8  and  C_23
    6  A    between atoms: N_10  and  C_16
    7  A    between atoms: C_18  and  C_41
                            x       y       z     vdW  Elec       q    Type
                         _______ _______ _______ _____ _____    ______ ____

>  <TORSDO>
F 7

$$$$
=
 OpenBabel11072413233D

 44 49  0  0  1  0  0  0  0  0999 V2000
  158.5620  214.3990  153.0570 C   0  0  0  0  0  2  0  0  0  0  0  0
  161.6200  211.1430  154.0570 C   0  0  2  0  0  3  0  0  0  0  0  0
  162.7840  210.1540  151.9620 N   0  0  0  0  0  2  0  0  0  0  0  0
  158.0550  213.8030  155.3050 O   0  0  0  0  0  1  0  0  0  0  0  0
  161.8190  211.4030  155.5450 C   0  0  0  0  0  2  0  0  0  0  0  0
  160.3510  213.5070  151.3440 C   0  0  0  0  0  2  0  0  0  0  0  0
  161.6430  210.0680  151.0500 C   0  0  2  0  0  3  0  0  0  0  0  0
  159.5280  213.3620  152.6100 C   0  0  2  0  0  3  0  0  0  0  0  0
  160.2820  210.5460  153.7160 C   0  0  0  0  0  0  0  0  0  0  0  0
  161.2990  212.4560  151.3250 O   0  0  0  0  0  0  0  0  0  0  0  0
  157.6720  213.5490  153.9850 C   0  0  2  0  0  0  0  0  0  0  0  0
  158.7000  208.4770  156.4480 N   0  0  0  0  0  1  0  0  0  0  0  0
  163.8810  210.3300  153.9860 O   0  0  0  0  0  0  0  0  0  0  0  0
  159.6310  210.9380  152.4160 C   0  0  1  0  0  3  0  0  0  0  0  0
  159.5640  209.7280  154.5010 C   0  0  0  0  0  3  0  0  0  0  0  0
  162.7970  210.4860  153.3580 C   0  0  0  0  0  0  0  0  0  0  0  0
  158.6790  212.1360  152.5350 C   0  0  1  0  0  0  0  0  0  0  0  0
  160.6300  211.2010  151.2420 C   0  0  2  0  0  3  0  0  0  0  0  0
  160.8250  209.4250  156.6130 N   0  0  0  0  0  0  0  0  0  0  0  0
  157.8940  212.1670  153.7010 O   0  0  0  0  0  0  0  0  0  0  0  0
  157.7420  212.1260  151.3170 C   0  0  0  0  0  1  0  0  0  0  0  0
  162.0670  210.0870  156.2500 C   0  0  0  0  0  2  0  0  0  0  0  0
  159.7750  209.2110  155.8740 C   0  0  0  0  0  0  0  0  0  0  0  0
  156.1940  213.8680  153.8330 C   0  0  0  0  0  0  0  0  0  0  0  0
  155.3360  213.8860  154.9550 C   0  0  0  0  0  0  0  0  0  0  0  0
  154.2870  214.4450  152.4410 C   0  0  0  0  0  3  0  0  0  0  0  0
  153.4790  214.4520  153.5760 C   0  0  0  0  0  3  0  0  0  0  0  0
  155.6420  214.1530  152.5740 C   0  0  0  0  0  3  0  0  0  0  0  0
  154.0150  214.1770  154.7940 N   0  0  0  0  0  0  0  0  0  0  0  0
  155.8440  213.5970  156.2600 N   0  0  0  0  0  2  0  0  0  0  0  0
  155.1960  212.2960  157.2600 S   0  0  0  0  0  1  0  0  0  0  0  0
  161.0050  208.6850  151.0980 C   0  0  0  0  0  2  0  0  0  0  0  0
  161.9790  207.4740  150.1540 P   0  0  2  0  0  0  0  0  0  0  0  0
  163.0060  206.6280  151.1990 O   0  0  0  0  0  1  0  0  0  0  0  0
  162.8180  208.2210  149.1440 O   0  0  0  0  0  0  0  0  0  0  0  0
  160.7260  206.1180  149.1150 S   0  0  0  0  0  0  0  0  0  0  0  0
  160.7970  204.8760  150.4420 C   0  0  0  0  0  2  0  0  0  0  0  0
  160.9650  201.1270  150.1860 C   0  0  0  0  0  3  0  0  0  0  0  0
  160.9090  201.6500  146.5270 C   0  0  0  0  0  1  0  0  0  0  0  0
  160.8570  203.5060  149.8660 C   0  0  0  0  0  0  0  0  0  0  0  0
  160.8970  202.4760  150.6610 N   0  0  0  0  0  0  0  0  0  0  0  0
  160.9100  201.9520  147.9460 N   0  0  0  0  0  0  0  0  0  0  0  0
  160.9280  203.3540  148.3690 C   0  0  0  0  0  2  0  0  0  0  0  0
  160.9700  200.8730  148.8830 C   0  0  0  0  0  3  0  0  0  0  0  0
  1 11  1  0  0  0  0
  2  5  1  1  0  0  0
  3 16  1  0  0  0  0
  5 22  1  0  0  0  0
  7 32  1  1  0  0  0
  7 18  1  0  0  0  0
  7  3  1  0  0  0  0
  8  6  1  6  0  0  0
  8  1  1  0  0  0  0
  9  2  1  0  0  0  0
  9 15  2  0  0  0  0
 10  6  1  0  0  0  0
 11  4  1  1  0  0  0
 14 17  1  0  0  0  0
 14  9  1  1  0  0  0
 15 23  1  0  0  0  0
 16 13  2  0  0  0  0
 16  2  1  0  0  0  0
 17 21  1  6  0  0  0
 17  8  1  0  0  0  0
 17 20  1  0  0  0  0
 18 10  1  1  0  0  0
 18 14  1  0  0  0  0
 20 11  1  0  0  0  0
 22 19  1  0  0  0  0
 23 12  1  0  0  0  0
 23 19  2  0  0  0  0
 24 11  1  0  0  0  0
 24 25  1  0  0  0  0
 25 30  1  0  0  0  0
 26 28  1  0  0  0  0
 26 27  2  0  0  0  0
 27 29  1  0  0  0  0
 28 24  2  0  0  0  0
 29 25  2  0  0  0  0
 30 31  1  0  0  0  0
 33 35  2  6  0  0  0
 33 32  1  0  0  0  0
 33 34  1  0  0  0  0
 36 33  1  0  0  0  0
 36 37  1  0  0  0  0
 38 41  1  0  0  0  0
 39 42  1  0  0  0  0
 40 37  1  0  0  0  0
 40 41  2  0  0  0  0
 42 43  1  0  0  0  0
 42 44  1  0  0  0  0
 43 40  1  0  0  0  0
 44 38  2  0  0  0  0
M  END
>  <MODEL>
4

>  <REMARK>
 VINA RESULT:      -0.7      1.601      1.836
  Name = 
  7 active torsions:
  status: ('A' for Active; 'I' for Inactive)
    1  A    between atoms: C_1  and  S_9
    2  A    between atoms: C_1  and  C_11
    3  A    between atoms: P_6  and  S_9
    4  A    between atoms: P_6  and  C_41
    5  A    between atoms: C_8  and  C_23
    6  A    between atoms: N_10  and  C_16
    7  A    between atoms: C_18  and  C_41
                            x       y       z     vdW  Elec       q    Type
                         _______ _______ _______ _____ _____    ______ ____

>  <TORSDO>
F 7

$$$$
