=
 OpenBabel11072413223D

 44 48  0  0  1  0  0  0  0  0999 V2000
  160.3230  209.8320  154.0260 C   0  0  2  0  0  3  0  0  0  0  0  0
  158.0880  211.7900  152.6240 C   0  0  0  0  0  2  0  0  0  0  0  0
  160.0690  213.0590  153.4920 C   0  0  0  0  0  2  0  0  0  0  0  0
  160.0130  212.2800  154.8030 C   0  0  0  0  0  2  0  0  0  0  0  0
  159.3760  210.8940  154.6160 C   0  0  1  0  0  3  0  0  0  0  0  0
  158.0180  210.9730  153.9130 C   0  0  0  0  0  2  0  0  0  0  0  0
  158.6740  213.1810  152.8880 C   0  0  1  0  0  3  0  0  0  0  0  0
  157.5580  213.8380  150.7770 C   0  0  0  0  0  0  0  0  0  0  0  0
  157.9820  213.3650  149.5380 N   0  0  0  0  0  0  0  0  0  0  0  0
  158.7280  214.0420  151.6200 C   0  0  2  0  0  3  0  0  0  0  0  0
  159.8660  213.6580  150.7610 N   0  0  0  0  0  0  0  0  0  0  0  0
  156.3580  214.0630  151.0890 O   0  0  0  0  0  0  0  0  0  0  0  0
  157.1140  213.0070  148.4310 C   0  0  0  0  0  1  0  0  0  0  0  0
  159.3740  213.2300  149.4940 N   0  0  0  0  0  0  0  0  0  0  0  0
  161.0230  209.0450  155.1540 C   0  0  1  0  0  3  0  0  0  0  0  0
  162.1520  210.9710  156.5000 C   0  0  2  0  0  3  0  0  0  0  0  0
  161.1370  209.8550  156.4520 C   0  0  2  0  0  0  0  0  0  0  0  0
  163.4460  210.4310  156.6220 O   0  0  0  0  0  0  0  0  0  0  0  0
  162.4120  209.7070  157.2460 C   0  0  1  0  0  3  0  0  0  0  0  0
  159.9510  210.0780  157.2610 N   0  0  0  0  0  1  0  0  0  0  0  0
  160.3570  207.7310  155.4260 C   0  0  0  0  0  0  0  0  0  0  0  0
  159.6710  207.5430  156.6180 O   0  0  0  0  0  1  0  0  0  0  0  0
  160.4040  206.8010  154.5780 O   0  0  0  0  0  0  0  0  0  0  0  0
  161.2650  210.4390  153.1730 O   0  0  0  0  0  0  0  0  0  0  0  0
  161.1350  209.8220  151.9190 C   0  0  1  0  0  3  0  0  0  0  0  0
  161.8340  210.6400  150.8470 C   0  0  0  0  0  1  0  0  0  0  0  0
  161.7940  208.4540  151.9700 C   0  0  0  0  0  2  0  0  0  0  0  0
  160.8450  207.3760  151.4750 C   0  0  0  0  0  2  0  0  0  0  0  0
  161.5380  206.4540  150.4680 C   0  0  2  0  0  3  0  0  0  0  0  0
  160.9020  206.5330  149.0790 C   0  0  0  0  0  2  0  0  0  0  0  0
  161.9220  206.6200  147.9540 C   0  0  2  0  0  3  0  0  0  0  0  0
  162.6370  207.8130  148.0610 O   0  0  0  0  0  1  0  0  0  0  0  0
  161.1980  206.5750  146.6200 C   0  0  0  0  0  2  0  0  0  0  0  0
  160.5960  205.1690  144.7250 N   0  0  0  0  0  1  0  0  0  0  0  0
  161.3280  205.2030  145.9800 C   0  0  0  0  0  2  0  0  0  0  0  0
  161.7080  205.0100  150.9630 C   0  0  1  0  0  3  0  0  0  0  0  0
  160.7180  203.9440  152.6340 C   0  0  0  0  0  1  0  0  0  0  0  0
  161.6210  204.9710  152.3580 O   0  0  0  0  0  0  0  0  0  0  0  0
  160.7020  204.1310  150.3780 N   0  0  0  0  0  2  0  0  0  0  0  0
  161.3840  202.9950  149.7760 C   0  0  1  0  0  3  0  0  0  0  0  0
  160.1950  201.1860  149.0520 N   0  0  0  0  0  0  0  0  0  0  0  0
  160.7310  201.7940  150.1600 O   0  0  0  0  0  0  0  0  0  0  0  0
  160.4480  201.8750  148.0200 N   0  0  0  0  0  0  0  0  0  0  0  0
  161.1670  202.9910  148.3710 O   0  0  0  0  0  0  0  0  0  0  0  0
  1 24  1  1  0  0  0
  1 15  1  0  0  0  0
  2  6  1  0  0  0  0
  3  4  1  0  0  0  0
  5  1  1  6  0  0  0
  5  4  1  0  0  0  0
  6  5  1  0  0  0  0
  7  2  1  6  0  0  0
  7  3  1  0  0  0  0
  8 12  2  0  0  0  0
  8 10  1  0  0  0  0
  9  8  1  0  0  0  0
 10 11  1  6  0  0  0
 10  7  1  0  0  0  0
 13  9  1  0  0  0  0
 14  9  1  0  0  0  0
 14 11  2  0  0  0  0
 15 21  1  1  0  0  0
 15 17  1  0  0  0  0
 16 18  1  6  0  0  0
 16 19  1  0  0  0  0
 17 16  1  0  0  0  0
 17 19  1  0  0  0  0
 17 20  1  1  0  0  0
 19 18  1  6  0  0  0
 21 22  1  0  0  0  0
 23 21  2  0  0  0  0
 25 26  1  6  0  0  0
 25 27  1  0  0  0  0
 25 24  1  0  0  0  0
 28 27  1  0  0  0  0
 29 30  1  6  0  0  0
 29 36  1  0  0  0  0
 29 28  1  0  0  0  0
 31 32  1  1  0  0  0
 31 30  1  0  0  0  0
 33 31  1  0  0  0  0
 34 35  1  0  0  0  0
 35 33  1  0  0  0  0
 36 39  1  6  0  0  0
 36 38  1  0  0  0  0
 38 37  1  0  0  0  0
 40 42  1  0  0  0  0
 40 39  1  1  0  0  0
 41 42  1  0  0  0  0
 43 44  1  0  0  0  0
 43 41  2  0  0  0  0
 44 40  1  0  0  0  0
M  END
>  <MODEL>
1

>  <REMARK>
 VINA RESULT:      -6.0      0.000      0.000
  Name = 
  18 active torsions:
  status: ('A' for Active; 'I' for Inactive)
    1  A    between atoms: C_2  and  C_27
    2  A    between atoms: C_3  and  N_16
    3  A    between atoms: C_4  and  O_7
    4  A    between atoms: C_4  and  C_27
    5  A    between atoms: C_4  and  C_28
    6  A    between atoms: C_5  and  C_26
    7  A    between atoms: C_5  and  C_35
    8  A    between atoms: O_7  and  C_25
    9  A    between atoms: C_12  and  C_42
   10  A    between atoms: C_14  and  C_25
   11  A    between atoms: C_14  and  C_38
   12  A    between atoms: N_16  and  C_19
   13  A    between atoms: C_19  and  C_32
   14  A    between atoms: C_19  and  O_44
   15  A    between atoms: C_21  and  C_27
   16  A    between atoms: C_23  and  C_26
   17  A    between atoms: C_32  and  C_35
   18  A    between atoms: C_32  and  C_38
                            x       y       z     vdW  Elec       q    Type
                         _______ _______ _______ _____ _____    ______ ____

>  <TORSDO>
F 18

$$$$
=
 OpenBabel11072413223D

 44 48  0  0  1  0  0  0  0  0999 V2000
  161.6140  207.5530  151.0800 C   0  0  2  0  0  3  0  0  0  0  0  0
  161.9910  204.4410  150.0970 C   0  0  0  0  0  2  0  0  0  0  0  0
  160.6200  205.7970  148.4940 C   0  0  0  0  0  2  0  0  0  0  0  0
  159.8090  206.3740  149.6510 C   0  0  0  0  0  2  0  0  0  0  0  0
  160.6140  206.3870  150.9600 C   0  0  1  0  0  3  0  0  0  0  0  0
  161.2180  205.0170  151.2810 C   0  0  0  0  0  2  0  0  0  0  0  0
  161.1160  204.3970  148.8400 C   0  0  1  0  0  3  0  0  0  0  0  0
  162.0010  204.7560  146.5540 C   0  0  0  0  0  0  0  0  0  0  0  0
  161.3580  204.2560  145.4250 N   0  0  0  0  0  0  0  0  0  0  0  0
  161.8510  203.7930  147.6370 C   0  0  2  0  0  3  0  0  0  0  0  0
  161.0770  202.6890  147.0360 N   0  0  0  0  0  0  0  0  0  0  0  0
  162.6200  205.8520  146.6040 O   0  0  0  0  0  0  0  0  0  0  0  0
  161.2510  204.9360  144.1470 C   0  0  0  0  0  1  0  0  0  0  0  0
  160.7730  203.0110  145.6810 N   0  0  0  0  0  0  0  0  0  0  0  0
  161.8050  207.9510  152.5590 C   0  0  1  0  0  3  0  0  0  0  0  0
  162.0140  210.4940  153.0910 C   0  0  2  0  0  3  0  0  0  0  0  0
  161.1310  209.2860  152.9000 C   0  0  2  0  0  0  0  0  0  0  0  0
  162.6710  210.4100  154.3320 O   0  0  0  0  0  0  0  0  0  0  0  0
  161.3800  209.8510  154.2760 C   0  0  1  0  0  3  0  0  0  0  0  0
  159.8120  209.5770  152.3640 N   0  0  0  0  0  1  0  0  0  0  0  0
  161.3340  206.8830  153.4990 C   0  0  0  0  0  0  0  0  0  0  0  0
  162.1480  205.7900  153.7590 O   0  0  0  0  0  0  0  0  0  0  0  0
  160.2130  206.9770  154.0650 O   0  0  0  0  0  1  0  0  0  0  0  0
  161.1790  208.6500  150.3130 O   0  0  0  0  0  0  0  0  0  0  0  0
  162.2980  209.1280  149.6140 C   0  0  1  0  0  3  0  0  0  0  0  0
  162.8450  208.0590  148.6860 C   0  0  0  0  0  1  0  0  0  0  0  0
  161.8800  210.3170  148.7660 C   0  0  0  0  0  2  0  0  0  0  0  0
  161.9040  211.6000  149.5800 C   0  0  0  0  0  2  0  0  0  0  0  0
  161.1430  212.7200  148.8640 C   0  0  2  0  0  3  0  0  0  0  0  0
  162.0420  213.5150  147.9160 C   0  0  0  0  0  2  0  0  0  0  0  0
  161.6050  213.4320  146.4610 C   0  0  2  0  0  3  0  0  0  0  0  0
  160.6800  212.3980  146.3090 O   0  0  0  0  0  1  0  0  0  0  0  0
  162.8200  213.1630  145.5910 C   0  0  0  0  0  2  0  0  0  0  0  0
  162.5490  212.6700  143.2210 N   0  0  0  0  0  1  0  0  0  0  0  0
  162.6260  213.7410  144.1990 C   0  0  0  0  0  2  0  0  0  0  0  0
  160.3290  213.6170  149.8070 C   0  0  1  0  0  3  0  0  0  0  0  0
  158.4740  213.5450  148.5960 C   0  0  0  0  0  1  0  0  0  0  0  0
  159.4550  214.4190  149.0650 O   0  0  0  0  0  0  0  0  0  0  0  0
  159.5750  212.8220  150.7710 N   0  0  0  0  0  2  0  0  0  0  0  0
  159.3350  213.6420  151.9490 C   0  0  1  0  0  3  0  0  0  0  0  0
  157.4970  213.2780  153.2530 N   0  0  0  0  0  0  0  0  0  0  0  0
  157.9410  213.8650  152.0930 O   0  0  0  0  0  0  0  0  0  0  0  0
  158.4650  212.7200  153.8480 N   0  0  0  0  0  0  0  0  0  0  0  0
  159.6190  212.8940  153.1240 O   0  0  0  0  0  0  0  0  0  0  0  0
  1 24  1  6  0  0  0
  1 15  1  0  0  0  0
  2  6  1  0  0  0  0
  3  4  1  0  0  0  0
  4  5  1  0  0  0  0
  5  1  1  6  0  0  0
  5  6  1  0  0  0  0
  7  3  1  6  0  0  0
  7  2  1  0  0  0  0
  8 12  2  0  0  0  0
  9 14  1  0  0  0  0
  9  8  1  0  0  0  0
 10  8  1  6  0  0  0
 10  7  1  0  0  0  0
 11 10  1  0  0  0  0
 13  9  1  0  0  0  0
 14 11  2  0  0  0  0
 15 17  1  0  0  0  0
 15 21  1  1  0  0  0
 16 19  1  0  0  0  0
 16 18  1  1  0  0  0
 17 20  1  6  0  0  0
 17 16  1  0  0  0  0
 17 19  1  0  0  0  0
 19 18  1  1  0  0  0
 21 22  2  0  0  0  0
 21 23  1  0  0  0  0
 25 26  1  6  0  0  0
 25 24  1  0  0  0  0
 27 28  1  0  0  0  0
 27 25  1  0  0  0  0
 29 30  1  1  0  0  0
 29 28  1  0  0  0  0
 29 36  1  0  0  0  0
 31 32  1  1  0  0  0
 31 30  1  0  0  0  0
 33 31  1  0  0  0  0
 34 35  1  0  0  0  0
 35 33  1  0  0  0  0
 36 38  1  6  0  0  0
 36 39  1  0  0  0  0
 37 38  1  0  0  0  0
 40 39  1  6  0  0  0
 40 42  1  0  0  0  0
 40 44  1  0  0  0  0
 41 43  2  0  0  0  0
 42 41  1  0  0  0  0
 44 43  1  0  0  0  0
M  END
>  <MODEL>
2

>  <REMARK>
 VINA RESULT:      -5.2      2.874      8.100
  Name = 
  18 active torsions:
  status: ('A' for Active; 'I' for Inactive)
    1  A    between atoms: C_2  and  C_27
    2  A    between atoms: C_3  and  N_16
    3  A    between atoms: C_4  and  O_7
    4  A    between atoms: C_4  and  C_27
    5  A    between atoms: C_4  and  C_28
    6  A    between atoms: C_5  and  C_26
    7  A    between atoms: C_5  and  C_35
    8  A    between atoms: O_7  and  C_25
    9  A    between atoms: C_12  and  C_42
   10  A    between atoms: C_14  and  C_25
   11  A    between atoms: C_14  and  C_38
   12  A    between atoms: N_16  and  C_19
   13  A    between atoms: C_19  and  C_32
   14  A    between atoms: C_19  and  O_44
   15  A    between atoms: C_21  and  C_27
   16  A    between atoms: C_23  and  C_26
   17  A    between atoms: C_32  and  C_35
   18  A    between atoms: C_32  and  C_38
                            x       y       z     vdW  Elec       q    Type
                         _______ _______ _______ _____ _____    ______ ____

>  <TORSDO>
F 18

$$$$
=
 OpenBabel11072413223D

 44 48  0  0  1  0  0  0  0  0999 V2000
  161.0600  213.2700  147.3960 C   0  0  2  0  0  3  0  0  0  0  0  0
  160.3800  213.4260  150.6070 C   0  0  0  0  0  2  0  0  0  0  0  0
  158.3140  213.4070  149.1860 C   0  0  0  0  0  2  0  0  0  0  0  0
  158.9260  214.4520  148.2560 C   0  0  0  0  0  2  0  0  0  0  0  0
  160.4610  214.3930  148.2640 C   0  0  1  0  0  3  0  0  0  0  0  0
  161.0340  214.4520  149.6840 C   0  0  0  0  0  2  0  0  0  0  0  0
  158.8560  213.5760  150.6020 C   0  0  1  0  0  3  0  0  0  0  0  0
  157.6890  213.2300  152.7590 C   0  0  0  0  0  0  0  0  0  0  0  0
  158.3160  212.6390  153.8530 N   0  0  0  0  0  0  0  0  0  0  0  0
  158.1680  212.5820  151.5450 C   0  0  2  0  0  3  0  0  0  0  0  0
  159.1160  211.5590  152.0290 N   0  0  0  0  0  0  0  0  0  0  0  0
  156.8370  214.1560  152.8310 O   0  0  0  0  0  0  0  0  0  0  0  0
  158.1330  213.0280  155.2390 C   0  0  0  0  0  1  0  0  0  0  0  0
  159.2000  211.6310  153.4500 N   0  0  0  0  0  0  0  0  0  0  0  0
  160.6510  213.4520  145.9190 C   0  0  1  0  0  3  0  0  0  0  0  0
  161.8760  214.4240  143.8330 C   0  0  2  0  0  3  0  0  0  0  0  0
  161.8560  213.4320  144.9700 C   0  0  2  0  0  0  0  0  0  0  0  0
  160.9720  214.0180  142.8340 O   0  0  0  0  0  0  0  0  0  0  0  0
  161.6060  212.9860  143.5500 C   0  0  1  0  0  3  0  0  0  0  0  0
  163.1660  213.0760  145.4870 N   0  0  0  0  0  1  0  0  0  0  0  0
  159.6370  212.4400  145.4820 C   0  0  0  0  0  0  0  0  0  0  0  0
  160.0120  211.1120  145.3350 O   0  0  0  0  0  1  0  0  0  0  0  0
  158.4450  212.7810  145.2600 O   0  0  0  0  0  0  0  0  0  0  0  0
  160.6570  212.0110  147.8810 O   0  0  0  0  0  0  0  0  0  0  0  0
  161.8110  211.2170  147.9610 C   0  0  1  0  0  3  0  0  0  0  0  0
  163.0060  212.0510  148.3840 C   0  0  0  0  0  1  0  0  0  0  0  0
  161.5970  210.1380  149.0090 C   0  0  0  0  0  2  0  0  0  0  0  0
  162.0550  208.7840  148.4950 C   0  0  0  0  0  2  0  0  0  0  0  0
  161.5580  207.6550  149.4030 C   0  0  2  0  0  3  0  0  0  0  0  0
  162.0810  207.7910  150.8340 C   0  0  0  0  0  2  0  0  0  0  0  0
  161.5010  208.9870  151.5740 C   0  0  2  0  0  3  0  0  0  0  0  0
  162.5360  209.8030  152.0310 O   0  0  0  0  0  1  0  0  0  0  0  0
  160.6820  208.4930  152.7540 C   0  0  0  0  0  2  0  0  0  0  0  0
  161.3630  207.0150  154.5660 N   0  0  0  0  0  1  0  0  0  0  0  0
  161.0880  207.0810  153.1410 C   0  0  0  0  0  2  0  0  0  0  0  0
  161.7740  206.2500  148.8210 C   0  0  1  0  0  3  0  0  0  0  0  0
  160.5780  205.1610  150.3360 C   0  0  0  0  0  1  0  0  0  0  0  0
  160.6140  205.4850  148.9790 O   0  0  0  0  0  0  0  0  0  0  0  0
  162.1370  206.3150  147.4090 N   0  0  0  0  0  2  0  0  0  0  0  0
  161.1850  205.5110  146.6570 C   0  0  1  0  0  3  0  0  0  0  0  0
  161.5170  205.1090  144.4350 N   0  0  0  0  0  0  0  0  0  0  0  0
  161.0620  206.0340  145.3430 O   0  0  0  0  0  0  0  0  0  0  0  0
  161.9050  204.0670  145.0410 N   0  0  0  0  0  0  0  0  0  0  0  0
  161.7370  204.2280  146.3950 O   0  0  0  0  0  0  0  0  0  0  0  0
  1 24  1  1  0  0  0
  4  5  1  0  0  0  0
  4  3  1  0  0  0  0
  5  1  1  1  0  0  0
  5  6  1  0  0  0  0
  6  2  1  0  0  0  0
  7  3  1  6  0  0  0
  7  2  1  0  0  0  0
  7 10  1  0  0  0  0
  8 12  2  0  0  0  0
  8  9  1  0  0  0  0
  9 13  1  0  0  0  0
 10 11  1  1  0  0  0
 10  8  1  0  0  0  0
 11 14  2  0  0  0  0
 14  9  1  0  0  0  0
 15 21  1  6  0  0  0
 15  1  1  0  0  0  0
 16 18  1  1  0  0  0
 16 17  1  0  0  0  0
 17 20  1  1  0  0  0
 17 15  1  0  0  0  0
 19 18  1  1  0  0  0
 19 16  1  0  0  0  0
 19 17  1  0  0  0  0
 22 21  1  0  0  0  0
 23 21  2  0  0  0  0
 24 25  1  0  0  0  0
 25 26  1  1  0  0  0
 25 27  1  0  0  0  0
 28 27  1  0  0  0  0
 29 28  1  6  0  0  0
 29 30  1  0  0  0  0
 30 31  1  0  0  0  0
 31 32  1  1  0  0  0
 31 33  1  0  0  0  0
 33 35  1  0  0  0  0
 35 34  1  0  0  0  0
 36 39  1  6  0  0  0
 36 38  1  0  0  0  0
 36 29  1  0  0  0  0
 38 37  1  0  0  0  0
 40 39  1  1  0  0  0
 41 43  2  0  0  0  0
 41 42  1  0  0  0  0
 42 40  1  0  0  0  0
 43 44  1  0  0  0  0
 44 40  1  0  0  0  0
M  END
>  <MODEL>
3

>  <REMARK>
 VINA RESULT:      -5.1      3.503      7.072
  Name = 
  18 active torsions:
  status: ('A' for Active; 'I' for Inactive)
    1  A    between atoms: C_2  and  C_27
    2  A    between atoms: C_3  and  N_16
    3  A    between atoms: C_4  and  O_7
    4  A    between atoms: C_4  and  C_27
    5  A    between atoms: C_4  and  C_28
    6  A    between atoms: C_5  and  C_26
    7  A    between atoms: C_5  and  C_35
    8  A    between atoms: O_7  and  C_25
    9  A    between atoms: C_12  and  C_42
   10  A    between atoms: C_14  and  C_25
   11  A    between atoms: C_14  and  C_38
   12  A    between atoms: N_16  and  C_19
   13  A    between atoms: C_19  and  C_32
   14  A    between atoms: C_19  and  O_44
   15  A    between atoms: C_21  and  C_27
   16  A    between atoms: C_23  and  C_26
   17  A    between atoms: C_32  and  C_35
   18  A    between atoms: C_32  and  C_38
                            x       y       z     vdW  Elec       q    Type
                         _______ _______ _______ _____ _____    ______ ____

>  <TORSDO>
F 18

$$$$
=
 OpenBabel11072413223D

 44 48  0  0  1  0  0  0  0  0999 V2000
  161.5200  207.6100  152.4590 C   0  0  2  0  0  3  0  0  0  0  0  0
  162.1840  205.0230  150.5460 C   0  0  0  0  0  2  0  0  0  0  0  0
  160.3190  204.5720  152.1610 C   0  0  0  0  0  2  0  0  0  0  0  0
  161.1310  205.1930  153.2940 C   0  0  0  0  0  2  0  0  0  0  0  0
  162.1350  206.2330  152.7740 C   0  0  1  0  0  3  0  0  0  0  0  0
  163.0130  205.6750  151.6500 C   0  0  0  0  0  2  0  0  0  0  0  0
  161.2480  203.9540  151.1200 C   0  0  1  0  0  3  0  0  0  0  0  0
  160.7790  201.8480  149.9050 C   0  0  0  0  0  0  0  0  0  0  0  0
  161.2360  201.6250  148.6090 N   0  0  0  0  0  0  0  0  0  0  0  0
  160.4230  203.2550  150.0340 C   0  0  2  0  0  3  0  0  0  0  0  0
  160.7010  203.8240  148.7000 N   0  0  0  0  0  0  0  0  0  0  0  0
  160.6800  200.9630  150.7960 O   0  0  0  0  0  0  0  0  0  0  0  0
  161.7200  200.3570  148.0930 C   0  0  0  0  0  1  0  0  0  0  0  0
  161.2170  202.8020  147.8520 N   0  0  0  0  0  0  0  0  0  0  0  0
  162.2180  208.2480  151.2390 C   0  0  1  0  0  3  0  0  0  0  0  0
  162.3930  207.5300  148.7390 C   0  0  2  0  0  3  0  0  0  0  0  0
  161.5240  207.8970  149.9160 C   0  0  2  0  0  0  0  0  0  0  0  0
  162.9960  208.6890  148.2150 O   0  0  0  0  0  0  0  0  0  0  0  0
  161.7110  208.8550  148.7660 C   0  0  1  0  0  3  0  0  0  0  0  0
  160.2280  207.2400  149.9420 N   0  0  0  0  0  1  0  0  0  0  0  0
  162.3470  209.7340  151.3720 C   0  0  0  0  0  0  0  0  0  0  0  0
  161.3050  210.5530  150.9590 O   0  0  0  0  0  0  0  0  0  0  0  0
  163.3860  210.2460  151.8670 O   0  0  0  0  0  1  0  0  0  0  0  0
  161.6020  208.4500  153.5850 O   0  0  0  0  0  0  0  0  0  0  0  0
  160.2910  208.6480  154.0430 C   0  0  1  0  0  3  0  0  0  0  0  0
  160.0780  207.9480  155.3730 C   0  0  0  0  0  1  0  0  0  0  0  0
  160.0600  210.1350  154.2530 C   0  0  0  0  0  2  0  0  0  0  0  0
  159.0350  210.6700  153.2680 C   0  0  0  0  0  2  0  0  0  0  0  0
  158.7310  212.1460  153.5370 C   0  0  2  0  0  3  0  0  0  0  0  0
  159.5760  213.0790  152.6680 C   0  0  0  0  0  2  0  0  0  0  0  0
  158.7470  213.9470  151.7350 C   0  0  2  0  0  3  0  0  0  0  0  0
  157.3940  213.8060  152.0420 O   0  0  0  0  0  1  0  0  0  0  0  0
  158.9930  213.5130  150.3000 C   0  0  0  0  0  2  0  0  0  0  0  0
  157.0810  213.0170  148.8750 N   0  0  0  0  0  1  0  0  0  0  0  0
  157.9340  214.0840  149.3730 C   0  0  0  0  0  2  0  0  0  0  0  0
  158.7620  212.5260  155.0240 C   0  0  1  0  0  3  0  0  0  0  0  0
  160.1890  212.8120  156.6960 C   0  0  0  0  0  1  0  0  0  0  0  0
  159.9980  213.0980  155.3440 O   0  0  0  0  0  0  0  0  0  0  0  0
  157.6850  213.4530  155.3540 N   0  0  0  0  0  2  0  0  0  0  0  0
  156.6090  212.6980  155.9790 C   0  0  1  0  0  3  0  0  0  0  0  0
  155.4730  211.1120  154.7920 N   0  0  0  0  0  0  0  0  0  0  0  0
  155.5840  212.4610  155.0250 O   0  0  0  0  0  0  0  0  0  0  0  0
  156.3150  210.4850  155.5010 N   0  0  0  0  0  0  0  0  0  0  0  0
  157.0450  211.3730  156.2520 O   0  0  0  0  0  0  0  0  0  0  0  0
  1 24  1  1  0  0  0
  2  6  1  0  0  0  0
  3  4  1  0  0  0  0
  5  1  1  6  0  0  0
  5  4  1  0  0  0  0
  6  5  1  0  0  0  0
  7  2  1  6  0  0  0
  7  3  1  0  0  0  0
  8 10  1  0  0  0  0
  8 12  2  0  0  0  0
  9  8  1  0  0  0  0
 10 11  1  6  0  0  0
 10  7  1  0  0  0  0
 13  9  1  0  0  0  0
 14  9  1  0  0  0  0
 14 11  2  0  0  0  0
 15 21  1  1  0  0  0
 15  1  1  0  0  0  0
 16 18  1  1  0  0  0
 16 19  1  0  0  0  0
 16 17  1  0  0  0  0
 17 20  1  1  0  0  0
 17 15  1  0  0  0  0
 19 18  1  1  0  0  0
 19 17  1  0  0  0  0
 21 23  1  0  0  0  0
 22 21  2  0  0  0  0
 24 25  1  0  0  0  0
 25 27  1  0  0  0  0
 25 26  1  1  0  0  0
 28 29  1  0  0  0  0
 28 27  1  0  0  0  0
 29 30  1  6  0  0  0
 29 36  1  0  0  0  0
 31 32  1  1  0  0  0
 31 30  1  0  0  0  0
 33 31  1  0  0  0  0
 34 35  1  0  0  0  0
 35 33  1  0  0  0  0
 36 38  1  6  0  0  0
 36 39  1  0  0  0  0
 38 37  1  0  0  0  0
 40 39  1  6  0  0  0
 40 44  1  0  0  0  0
 41 42  1  0  0  0  0
 41 43  2  0  0  0  0
 42 40  1  0  0  0  0
 43 44  1  0  0  0  0
M  END
>  <MODEL>
4

>  <REMARK>
 VINA RESULT:      -4.8      2.216      9.025
  Name = 
  18 active torsions:
  status: ('A' for Active; 'I' for Inactive)
    1  A    between atoms: C_2  and  C_27
    2  A    between atoms: C_3  and  N_16
    3  A    between atoms: C_4  and  O_7
    4  A    between atoms: C_4  and  C_27
    5  A    between atoms: C_4  and  C_28
    6  A    between atoms: C_5  and  C_26
    7  A    between atoms: C_5  and  C_35
    8  A    between atoms: O_7  and  C_25
    9  A    between atoms: C_12  and  C_42
   10  A    between atoms: C_14  and  C_25
   11  A    between atoms: C_14  and  C_38
   12  A    between atoms: N_16  and  C_19
   13  A    between atoms: C_19  and  C_32
   14  A    between atoms: C_19  and  O_44
   15  A    between atoms: C_21  and  C_27
   16  A    between atoms: C_23  and  C_26
   17  A    between atoms: C_32  and  C_35
   18  A    between atoms: C_32  and  C_38
                            x       y       z     vdW  Elec       q    Type
                         _______ _______ _______ _____ _____    ______ ____

>  <TORSDO>
F 18

$$$$
=
 OpenBabel11072413223D

 44 48  0  0  1  0  0  0  0  0999 V2000
  161.5470  205.4180  148.1590 C   0  0  2  0  0  3  0  0  0  0  0  0
  160.4690  206.9960  150.8310 C   0  0  0  0  0  2  0  0  0  0  0  0
  162.2590  205.3220  151.3600 C   0  0  0  0  0  2  0  0  0  0  0  0
  161.5670  204.2820  150.4830 C   0  0  0  0  0  2  0  0  0  0  0  0
  160.7300  204.9380  149.3740 C   0  0  1  0  0  3  0  0  0  0  0  0
  159.7630  205.9900  149.9250 C   0  0  0  0  0  2  0  0  0  0  0  0
  161.2340  206.2840  151.9510 C   0  0  1  0  0  3  0  0  0  0  0  0
  161.1390  207.5100  154.1010 C   0  0  0  0  0  0  0  0  0  0  0  0
  160.8380  208.8670  154.1660 N   0  0  0  0  0  0  0  0  0  0  0  0
  161.9290  207.2670  152.9010 C   0  0  2  0  0  3  0  0  0  0  0  0
  162.0680  208.6000  152.2830 N   0  0  0  0  0  0  0  0  0  0  0  0
  160.7940  206.6530  154.9590 O   0  0  0  0  0  0  0  0  0  0  0  0
  160.0370  209.5040  155.1960 C   0  0  0  0  0  1  0  0  0  0  0  0
  161.3720  209.5600  153.0740 N   0  0  0  0  0  0  0  0  0  0  0  0
  162.2020  204.2200  147.4400 C   0  0  1  0  0  3  0  0  0  0  0  0
  160.4010  202.4050  147.9460 C   0  0  2  0  0  3  0  0  0  0  0  0
  161.1700  203.2080  146.9260 C   0  0  2  0  0  0  0  0  0  0  0  0
  161.2330  201.4100  148.4920 O   0  0  0  0  0  0  0  0  0  0  0  0
  161.4710  201.7460  147.1460 C   0  0  1  0  0  3  0  0  0  0  0  0
  160.4410  203.4910  145.7020 N   0  0  0  0  0  1  0  0  0  0  0  0
  163.0990  204.6510  146.3200 C   0  0  0  0  0  0  0  0  0  0  0  0
  162.5690  205.3620  145.2520 O   0  0  0  0  0  0  0  0  0  0  0  0
  164.3300  204.3850  146.3450 O   0  0  0  0  0  1  0  0  0  0  0  0
  162.5150  206.3570  148.5620 O   0  0  0  0  0  0  0  0  0  0  0  0
  162.3030  207.5150  147.8000 C   0  0  1  0  0  3  0  0  0  0  0  0
  160.9180  207.4990  147.1780 C   0  0  0  0  0  1  0  0  0  0  0  0
  162.3960  208.7290  148.7080 C   0  0  0  0  0  2  0  0  0  0  0  0
  161.4090  209.8020  148.2820 C   0  0  0  0  0  2  0  0  0  0  0  0
  161.9480  211.2010  148.5960 C   0  0  2  0  0  3  0  0  0  0  0  0
  161.7410  211.5860  150.0620 C   0  0  0  0  0  2  0  0  0  0  0  0
  160.4780  212.3990  150.2980 C   0  0  2  0  0  3  0  0  0  0  0  0
  160.7530  213.7550  150.1190 O   0  0  0  0  0  1  0  0  0  0  0  0
  159.9880  212.1590  151.7150 C   0  0  0  0  0  2  0  0  0  0  0  0
  158.2370  212.9230  153.2260 N   0  0  0  0  0  1  0  0  0  0  0  0
  159.1980  213.3530  152.2240 C   0  0  0  0  0  2  0  0  0  0  0  0
  161.4660  212.2860  147.6220 C   0  0  1  0  0  3  0  0  0  0  0  0
  162.7060  214.0970  147.3180 C   0  0  0  0  0  1  0  0  0  0  0  0
  162.5460  212.7800  146.8850 O   0  0  0  0  0  0  0  0  0  0  0  0
  160.4460  211.7650  146.7170 N   0  0  0  0  0  2  0  0  0  0  0  0
  159.4820  212.8240  146.4600 C   0  0  1  0  0  3  0  0  0  0  0  0
  157.2880  212.3200  146.0790 N   0  0  0  0  0  0  0  0  0  0  0  0
  158.5330  212.3760  145.5030 O   0  0  0  0  0  0  0  0  0  0  0  0
  157.3580  212.6890  147.2880 N   0  0  0  0  0  0  0  0  0  0  0  0
  158.6560  213.0140  147.6000 O   0  0  0  0  0  0  0  0  0  0  0  0
  1 24  1  1  0  0  0
  3  7  1  0  0  0  0
  4  3  1  0  0  0  0
  5  1  1  6  0  0  0
  5  6  1  0  0  0  0
  5  4  1  0  0  0  0
  6  2  1  0  0  0  0
  7  2  1  6  0  0  0
  7 10  1  0  0  0  0
  8  9  1  0  0  0  0
  8 12  2  0  0  0  0
  9 13  1  0  0  0  0
 10 11  1  6  0  0  0
 10  8  1  0  0  0  0
 11 14  2  0  0  0  0
 14  9  1  0  0  0  0
 15 21  1  6  0  0  0
 15  1  1  0  0  0  0
 16 18  1  1  0  0  0
 17 20  1  6  0  0  0
 17 19  1  0  0  0  0
 17 15  1  0  0  0  0
 17 16  1  0  0  0  0
 19 16  1  0  0  0  0
 19 18  1  1  0  0  0
 21 23  1  0  0  0  0
 22 21  2  0  0  0  0
 25 26  1  1  0  0  0
 25 24  1  0  0  0  0
 25 27  1  0  0  0  0
 28 27  1  0  0  0  0
 29 28  1  6  0  0  0
 29 30  1  0  0  0  0
 30 31  1  0  0  0  0
 31 32  1  1  0  0  0
 31 33  1  0  0  0  0
 33 35  1  0  0  0  0
 35 34  1  0  0  0  0
 36 39  1  6  0  0  0
 36 29  1  0  0  0  0
 38 37  1  0  0  0  0
 38 36  1  0  0  0  0
 40 39  1  1  0  0  0
 40 44  1  0  0  0  0
 41 43  2  0  0  0  0
 42 41  1  0  0  0  0
 42 40  1  0  0  0  0
 43 44  1  0  0  0  0
M  END
>  <MODEL>
5

>  <REMARK>
 VINA RESULT:      -4.7      2.864      8.968
  Name = 
  18 active torsions:
  status: ('A' for Active; 'I' for Inactive)
    1  A    between atoms: C_2  and  C_27
    2  A    between atoms: C_3  and  N_16
    3  A    between atoms: C_4  and  O_7
    4  A    between atoms: C_4  and  C_27
    5  A    between atoms: C_4  and  C_28
    6  A    between atoms: C_5  and  C_26
    7  A    between atoms: C_5  and  C_35
    8  A    between atoms: O_7  and  C_25
    9  A    between atoms: C_12  and  C_42
   10  A    between atoms: C_14  and  C_25
   11  A    between atoms: C_14  and  C_38
   12  A    between atoms: N_16  and  C_19
   13  A    between atoms: C_19  and  C_32
   14  A    between atoms: C_19  and  O_44
   15  A    between atoms: C_21  and  C_27
   16  A    between atoms: C_23  and  C_26
   17  A    between atoms: C_32  and  C_35
   18  A    between atoms: C_32  and  C_38
                            x       y       z     vdW  Elec       q    Type
                         _______ _______ _______ _____ _____    ______ ____

>  <TORSDO>
F 18

$$$$
=
 OpenBabel11072413223D

 44 48  0  0  1  0  0  0  0  0999 V2000
  158.8790  211.6870  153.3310 C   0  0  2  0  0  3  0  0  0  0  0  0
  158.9430  214.4480  151.5510 C   0  0  0  0  0  2  0  0  0  0  0  0
  159.7790  212.4590  150.2720 C   0  0  0  0  0  2  0  0  0  0  0  0
  160.6340  212.0340  151.4630 C   0  0  0  0  0  2  0  0  0  0  0  0
  160.0490  212.5330  152.7930 C   0  0  1  0  0  3  0  0  0  0  0  0
  159.7660  214.0390  152.7710 C   0  0  0  0  0  2  0  0  0  0  0  0
  159.6100  213.9750  150.2550 C   0  0  1  0  0  3  0  0  0  0  0  0
  157.7300  213.4820  148.7200 C   0  0  0  0  0  0  0  0  0  0  0  0
  157.9320  212.9330  147.4560 N   0  0  0  0  0  0  0  0  0  0  0  0
  158.8270  214.3980  149.0070 C   0  0  2  0  0  3  0  0  0  0  0  0
  159.6730  214.3410  147.7990 N   0  0  0  0  0  0  0  0  0  0  0  0
  156.7460  213.2310  149.4660 O   0  0  0  0  0  0  0  0  0  0  0  0
  157.0760  211.9480  146.8210 C   0  0  0  0  0  1  0  0  0  0  0  0
  159.1070  213.4190  146.8720 N   0  0  0  0  0  0  0  0  0  0  0  0
  158.0270  212.5100  154.3200 C   0  0  1  0  0  3  0  0  0  0  0  0
  155.6350  212.6800  153.2970 C   0  0  2  0  0  3  0  0  0  0  0  0
  156.5550  212.0760  154.3290 C   0  0  2  0  0  0  0  0  0  0  0  0
  155.3350  214.0100  153.6490 O   0  0  0  0  0  0  0  0  0  0  0  0
  155.5340  213.1160  154.7190 C   0  0  1  0  0  3  0  0  0  0  0  0
  156.2130  210.7220  154.7300 N   0  0  0  0  0  1  0  0  0  0  0  0
  158.5810  212.4750  155.7120 C   0  0  0  0  0  0  0  0  0  0  0  0
  157.7320  212.6690  156.7930 O   0  0  0  0  0  1  0  0  0  0  0  0
  159.8060  212.2590  155.9090 O   0  0  0  0  0  0  0  0  0  0  0  0
  159.3650  210.5130  153.9370 O   0  0  0  0  0  0  0  0  0  0  0  0
  160.5140  210.1330  153.2280 C   0  0  1  0  0  3  0  0  0  0  0  0
  161.6660  209.8680  154.1800 C   0  0  0  0  0  1  0  0  0  0  0  0
  160.2260  208.8490  152.4700 C   0  0  0  0  0  2  0  0  0  0  0  0
  161.5160  208.1660  152.0490 C   0  0  0  0  0  2  0  0  0  0  0  0
  161.2360  207.0090  151.0850 C   0  0  2  0  0  3  0  0  0  0  0  0
  162.0100  205.7440  151.4610 C   0  0  0  0  0  2  0  0  0  0  0  0
  161.1400  204.6770  152.1080 C   0  0  2  0  0  3  0  0  0  0  0  0
  161.2500  204.7610  153.4970 O   0  0  0  0  0  1  0  0  0  0  0  0
  161.6000  203.3080  151.6410 C   0  0  0  0  0  2  0  0  0  0  0  0
  160.6040  201.7210  150.0850 N   0  0  0  0  0  1  0  0  0  0  0  0
  161.1710  203.0530  150.2060 C   0  0  0  0  0  2  0  0  0  0  0  0
  161.3910  207.3830  149.6040 C   0  0  1  0  0  3  0  0  0  0  0  0
  161.9940  209.2830  148.6360 C   0  0  0  0  0  1  0  0  0  0  0  0
  162.4750  208.2510  149.4420 O   0  0  0  0  0  0  0  0  0  0  0  0
  161.5780  206.1950  148.7780 N   0  0  0  0  0  2  0  0  0  0  0  0
  161.2170  206.5310  147.4080 C   0  0  1  0  0  3  0  0  0  0  0  0
  162.1370  205.3880  145.6590 N   0  0  0  0  0  0  0  0  0  0  0  0
  162.3560  206.3900  146.5720 O   0  0  0  0  0  0  0  0  0  0  0  0
  160.9840  204.8940  145.8330 N   0  0  0  0  0  0  0  0  0  0  0  0
  160.3580  205.5320  146.8760 O   0  0  0  0  0  0  0  0  0  0  0  0
  1 24  1  1  0  0  0
  1 15  1  0  0  0  0
  2  6  1  0  0  0  0
  3  4  1  0  0  0  0
  4  5  1  0  0  0  0
  5  1  1  6  0  0  0
  6  5  1  0  0  0  0
  7  3  1  1  0  0  0
  7  2  1  0  0  0  0
  8 10  1  0  0  0  0
  8 12  2  0  0  0  0
  9  8  1  0  0  0  0
 10 11  1  6  0  0  0
 10  7  1  0  0  0  0
 13  9  1  0  0  0  0
 14  9  1  0  0  0  0
 14 11  2  0  0  0  0
 15 17  1  0  0  0  0
 15 21  1  1  0  0  0
 16 18  1  6  0  0  0
 16 17  1  0  0  0  0
 16 19  1  0  0  0  0
 17 19  1  0  0  0  0
 17 20  1  1  0  0  0
 19 18  1  6  0  0  0
 21 23  2  0  0  0  0
 21 22  1  0  0  0  0
 25 24  1  0  0  0  0
 25 26  1  1  0  0  0
 27 25  1  0  0  0  0
 28 27  1  0  0  0  0
 29 30  1  1  0  0  0
 29 28  1  0  0  0  0
 30 31  1  0  0  0  0
 31 32  1  1  0  0  0
 33 31  1  0  0  0  0
 34 35  1  0  0  0  0
 35 33  1  0  0  0  0
 36 39  1  6  0  0  0
 36 29  1  0  0  0  0
 37 38  1  0  0  0  0
 38 36  1  0  0  0  0
 40 39  1  1  0  0  0
 41 43  2  0  0  0  0
 41 42  1  0  0  0  0
 42 40  1  0  0  0  0
 43 44  1  0  0  0  0
 44 40  1  0  0  0  0
M  END
>  <MODEL>
6

>  <REMARK>
 VINA RESULT:      -4.4      2.114      4.419
  Name = 
  18 active torsions:
  status: ('A' for Active; 'I' for Inactive)
    1  A    between atoms: C_2  and  C_27
    2  A    between atoms: C_3  and  N_16
    3  A    between atoms: C_4  and  O_7
    4  A    between atoms: C_4  and  C_27
    5  A    between atoms: C_4  and  C_28
    6  A    between atoms: C_5  and  C_26
    7  A    between atoms: C_5  and  C_35
    8  A    between atoms: O_7  and  C_25
    9  A    between atoms: C_12  and  C_42
   10  A    between atoms: C_14  and  C_25
   11  A    between atoms: C_14  and  C_38
   12  A    between atoms: N_16  and  C_19
   13  A    between atoms: C_19  and  C_32
   14  A    between atoms: C_19  and  O_44
   15  A    between atoms: C_21  and  C_27
   16  A    between atoms: C_23  and  C_26
   17  A    between atoms: C_32  and  C_35
   18  A    between atoms: C_32  and  C_38
                            x       y       z     vdW  Elec       q    Type
                         _______ _______ _______ _____ _____    ______ ____

>  <TORSDO>
F 18

$$$$
=
 OpenBabel11072413223D

 44 48  0  0  1  0  0  0  0  0999 V2000
  160.4580  212.4600  150.7430 C   0  0  2  0  0  3  0  0  0  0  0  0
  159.5270  213.7830  153.6030 C   0  0  0  0  0  2  0  0  0  0  0  0
  157.6580  212.5760  152.4480 C   0  0  0  0  0  2  0  0  0  0  0  0
  158.0230  213.2440  151.1250 C   0  0  0  0  0  2  0  0  0  0  0  0
  159.5090  213.6290  151.0720 C   0  0  1  0  0  3  0  0  0  0  0  0
  159.9380  214.4500  152.2920 C   0  0  0  0  0  2  0  0  0  0  0  0
  158.0260  213.4820  153.6190 C   0  0  1  0  0  3  0  0  0  0  0  0
  156.1560  213.0720  155.1920 C   0  0  0  0  0  0  0  0  0  0  0  0
  156.0320  213.7700  156.3900 N   0  0  0  0  0  0  0  0  0  0  0  0
  157.5720  212.8400  154.9360 C   0  0  2  0  0  3  0  0  0  0  0  0
  158.2550  213.4530  156.0930 N   0  0  0  0  0  0  0  0  0  0  0  0
  155.1920  212.6950  154.4740 O   0  0  0  0  0  0  0  0  0  0  0  0
  154.7820  214.2210  156.9750 C   0  0  0  0  0  1  0  0  0  0  0  0
  157.2830  214.0320  156.9590 N   0  0  0  0  0  0  0  0  0  0  0  0
  160.6000  212.2930  149.2150 C   0  0  1  0  0  3  0  0  0  0  0  0
  159.4410  214.4400  148.3000 C   0  0  2  0  0  3  0  0  0  0  0  0
  160.7050  213.6380  148.4850 C   0  0  2  0  0  0  0  0  0  0  0  0
  158.6500  213.8560  147.2930 O   0  0  0  0  0  0  0  0  0  0  0  0
  160.0440  213.7390  147.1320 C   0  0  1  0  0  3  0  0  0  0  0  0
  161.9140  214.4320  148.6210 N   0  0  0  0  0  1  0  0  0  0  0  0
  161.7580  211.4170  148.8460 C   0  0  0  0  0  0  0  0  0  0  0  0
  162.9550  211.5330  149.5390 O   0  0  0  0  0  1  0  0  0  0  0  0
  161.6510  210.5680  147.9210 O   0  0  0  0  0  0  0  0  0  0  0  0
  159.9950  211.2730  151.3410 O   0  0  0  0  0  0  0  0  0  0  0  0
  161.1160  210.6270  151.8850 C   0  0  1  0  0  3  0  0  0  0  0  0
  161.1520  210.7990  153.3930 C   0  0  0  0  0  1  0  0  0  0  0  0
  161.0240  209.1410  151.5850 C   0  0  0  0  0  2  0  0  0  0  0  0
  162.3980  208.5570  151.3070 C   0  0  0  0  0  2  0  0  0  0  0  0
  162.2880  207.1540  150.7030 C   0  0  2  0  0  3  0  0  0  0  0  0
  161.2810  207.0960  149.5540 C   0  0  0  0  0  2  0  0  0  0  0  0
  161.8720  206.5500  148.2630 C   0  0  2  0  0  3  0  0  0  0  0  0
  162.7070  207.5080  147.6880 O   0  0  0  0  0  1  0  0  0  0  0  0
  160.7450  206.2120  147.3030 C   0  0  0  0  0  2  0  0  0  0  0  0
  161.9890  204.6960  145.8590 N   0  0  0  0  0  1  0  0  0  0  0  0
  161.2820  205.9640  145.9030 C   0  0  0  0  0  2  0  0  0  0  0  0
  162.0690  206.0450  151.7430 C   0  0  1  0  0  3  0  0  0  0  0  0
  160.9350  206.4550  153.6020 C   0  0  0  0  0  1  0  0  0  0  0  0
  160.7710  206.1230  152.2570 O   0  0  0  0  0  0  0  0  0  0  0  0
  162.2940  204.7260  151.1610 N   0  0  0  0  0  2  0  0  0  0  0  0
  161.0290  204.0070  151.1620 C   0  0  1  0  0  3  0  0  0  0  0  0
  160.6270  202.3810  149.6100 N   0  0  0  0  0  0  0  0  0  0  0  0
  160.6400  203.7370  149.8230 O   0  0  0  0  0  0  0  0  0  0  0  0
  160.9610  201.7770  150.6720 N   0  0  0  0  0  0  0  0  0  0  0  0
  161.2220  202.6910  151.6640 O   0  0  0  0  0  0  0  0  0  0  0  0
  1 24  1  6  0  0  0
  2  7  1  0  0  0  0
  4  3  1  0  0  0  0
  5  1  1  1  0  0  0
  5  4  1  0  0  0  0
  5  6  1  0  0  0  0
  6  2  1  0  0  0  0
  7  3  1  6  0  0  0
  7 10  1  0  0  0  0
  8  9  1  0  0  0  0
  9 14  1  0  0  0  0
  9 13  1  0  0  0  0
 10  8  1  1  0  0  0
 10 11  1  0  0  0  0
 11 14  2  0  0  0  0
 12  8  2  0  0  0  0
 15 21  1  1  0  0  0
 15  1  1  0  0  0  0
 16 18  1  1  0  0  0
 16 17  1  0  0  0  0
 17 20  1  1  0  0  0
 17 15  1  0  0  0  0
 19 18  1  1  0  0  0
 19 16  1  0  0  0  0
 19 17  1  0  0  0  0
 21 22  1  0  0  0  0
 23 21  2  0  0  0  0
 24 25  1  0  0  0  0
 25 26  1  1  0  0  0
 27 25  1  0  0  0  0
 28 27  1  0  0  0  0
 29 30  1  6  0  0  0
 29 28  1  0  0  0  0
 29 36  1  0  0  0  0
 31 32  1  6  0  0  0
 31 30  1  0  0  0  0
 33 31  1  0  0  0  0
 34 35  1  0  0  0  0
 35 33  1  0  0  0  0
 36 39  1  6  0  0  0
 36 38  1  0  0  0  0
 38 37  1  0  0  0  0
 40 39  1  6  0  0  0
 40 44  1  0  0  0  0
 41 42  1  0  0  0  0
 41 43  2  0  0  0  0
 42 40  1  0  0  0  0
 43 44  1  0  0  0  0
M  END
>  <MODEL>
7

>  <REMARK>
 VINA RESULT:      -4.4      2.514      5.178
  Name = 
  18 active torsions:
  status: ('A' for Active; 'I' for Inactive)
    1  A    between atoms: C_2  and  C_27
    2  A    between atoms: C_3  and  N_16
    3  A    between atoms: C_4  and  O_7
    4  A    between atoms: C_4  and  C_27
    5  A    between atoms: C_4  and  C_28
    6  A    between atoms: C_5  and  C_26
    7  A    between atoms: C_5  and  C_35
    8  A    between atoms: O_7  and  C_25
    9  A    between atoms: C_12  and  C_42
   10  A    between atoms: C_14  and  C_25
   11  A    between atoms: C_14  and  C_38
   12  A    between atoms: N_16  and  C_19
   13  A    between atoms: C_19  and  C_32
   14  A    between atoms: C_19  and  O_44
   15  A    between atoms: C_21  and  C_27
   16  A    between atoms: C_23  and  C_26
   17  A    between atoms: C_32  and  C_35
   18  A    between atoms: C_32  and  C_38
                            x       y       z     vdW  Elec       q    Type
                         _______ _______ _______ _____ _____    ______ ____

>  <TORSDO>
F 18

$$$$
=
 OpenBabel11072413223D

 44 48  0  0  1  0  0  0  0  0999 V2000
  161.4620  207.5460  151.0670 C   0  0  2  0  0  3  0  0  0  0  0  0
  160.4170  205.0760  149.1700 C   0  0  0  0  0  2  0  0  0  0  0  0
  162.3310  206.3300  148.1470 C   0  0  0  0  0  2  0  0  0  0  0  0
  161.6640  207.6590  148.4900 C   0  0  0  0  0  2  0  0  0  0  0  0
  160.7360  207.5330  149.7080 C   0  0  1  0  0  3  0  0  0  0  0  0
  159.7330  206.3860  149.5530 C   0  0  0  0  0  2  0  0  0  0  0  0
  161.2770  205.2520  147.9150 C   0  0  1  0  0  3  0  0  0  0  0  0
  161.5100  203.5170  146.1630 C   0  0  0  0  0  0  0  0  0  0  0  0
  160.9180  202.2620  146.2810 N   0  0  0  0  0  0  0  0  0  0  0  0
  161.9540  203.9460  147.4830 C   0  0  2  0  0  3  0  0  0  0  0  0
  161.5810  202.8290  148.3720 N   0  0  0  0  0  0  0  0  0  0  0  0
  161.6460  204.1510  145.0820 O   0  0  0  0  0  0  0  0  0  0  0  0
  160.3180  201.5090  145.1950 C   0  0  0  0  0  1  0  0  0  0  0  0
  160.9300  201.8180  147.6080 N   0  0  0  0  0  0  0  0  0  0  0  0
  161.0610  206.3150  151.9060 C   0  0  1  0  0  3  0  0  0  0  0  0
  161.5760  203.8660  151.1750 C   0  0  2  0  0  3  0  0  0  0  0  0
  162.0640  205.1620  151.7740 C   0  0  2  0  0  0  0  0  0  0  0  0
  160.7800  203.1810  152.1120 O   0  0  0  0  0  0  0  0  0  0  0  0
  161.8350  203.9480  152.6400 C   0  0  1  0  0  3  0  0  0  0  0  0
  163.4640  205.4590  151.5190 N   0  0  0  0  0  1  0  0  0  0  0  0
  160.8580  206.6550  153.3510 C   0  0  0  0  0  0  0  0  0  0  0  0
  161.9510  206.7000  154.2060 O   0  0  0  0  0  1  0  0  0  0  0  0
  159.7070  206.9130  153.7940 O   0  0  0  0  0  0  0  0  0  0  0  0
  161.1850  208.7410  151.7570 O   0  0  0  0  0  0  0  0  0  0  0  0
  162.3360  209.5390  151.6690 C   0  0  1  0  0  3  0  0  0  0  0  0
  162.3290  210.3480  150.3840 C   0  0  0  0  0  1  0  0  0  0  0  0
  162.3530  210.5120  152.8360 C   0  0  0  0  0  2  0  0  0  0  0  0
  161.5850  209.9530  154.0210 C   0  0  0  0  0  2  0  0  0  0  0  0
  160.2030  210.6030  154.1380 C   0  0  2  0  0  3  0  0  0  0  0  0
  160.2000  212.0480  153.6380 C   0  0  0  0  0  2  0  0  0  0  0  0
  159.1960  212.2960  152.5220 C   0  0  2  0  0  3  0  0  0  0  0  0
  159.8740  212.5550  151.3310 O   0  0  0  0  0  1  0  0  0  0  0  0
  158.3300  213.4890  152.8870 C   0  0  0  0  0  2  0  0  0  0  0  0
  156.1300  214.2730  152.1970 N   0  0  0  0  0  1  0  0  0  0  0  0
  157.4490  213.8960  151.7180 C   0  0  0  0  0  2  0  0  0  0  0  0
  159.5610  210.4510  155.5250 C   0  0  1  0  0  3  0  0  0  0  0  0
  160.0730  208.7060  156.7910 C   0  0  0  0  0  1  0  0  0  0  0  0
  160.5100  209.9840  156.4400 O   0  0  0  0  0  0  0  0  0  0  0  0
  159.0060  211.7180  155.9890 N   0  0  0  0  0  2  0  0  0  0  0  0
  157.6180  211.4940  156.3690 C   0  0  1  0  0  3  0  0  0  0  0  0
  155.9350  212.5990  155.2920 N   0  0  0  0  0  0  0  0  0  0  0  0
  156.8990  212.7140  156.2640 O   0  0  0  0  0  0  0  0  0  0  0  0
  155.9750  211.4400  154.7840 N   0  0  0  0  0  0  0  0  0  0  0  0
  156.9690  210.7040  155.3820 O   0  0  0  0  0  0  0  0  0  0  0  0
  1 24  1  1  0  0  0
  1 15  1  0  0  0  0
  2  6  1  0  0  0  0
  3  4  1  0  0  0  0
  4  5  1  0  0  0  0
  5  1  1  1  0  0  0
  6  5  1  0  0  0  0
  7  3  1  1  0  0  0
  7  2  1  0  0  0  0
  8  9  1  0  0  0  0
  9 14  1  0  0  0  0
 10  8  1  6  0  0  0
 10  7  1  0  0  0  0
 10 11  1  0  0  0  0
 12  8  2  0  0  0  0
 13  9  1  0  0  0  0
 14 11  2  0  0  0  0
 15 21  1  1  0  0  0
 16 17  1  0  0  0  0
 16 18  1  1  0  0  0
 16 19  1  0  0  0  0
 17 20  1  6  0  0  0
 17 15  1  0  0  0  0
 17 19  1  0  0  0  0
 19 18  1  1  0  0  0
 21 23  2  0  0  0  0
 21 22  1  0  0  0  0
 25 26  1  6  0  0  0
 25 24  1  0  0  0  0
 25 27  1  0  0  0  0
 27 28  1  0  0  0  0
 28 29  1  0  0  0  0
 29 30  1  1  0  0  0
 29 36  1  0  0  0  0
 31 32  1  6  0  0  0
 31 33  1  0  0  0  0
 31 30  1  0  0  0  0
 35 34  1  0  0  0  0
 35 33  1  0  0  0  0
 36 39  1  1  0  0  0
 36 38  1  0  0  0  0
 38 37  1  0  0  0  0
 40 39  1  6  0  0  0
 41 42  1  0  0  0  0
 42 40  1  0  0  0  0
 43 41  2  0  0  0  0
 43 44  1  0  0  0  0
 44 40  1  0  0  0  0
M  END
>  <MODEL>
8

>  <REMARK>
 VINA RESULT:      -4.4      2.308      8.714
  Name = 
  18 active torsions:
  status: ('A' for Active; 'I' for Inactive)
    1  A    between atoms: C_2  and  C_27
    2  A    between atoms: C_3  and  N_16
    3  A    between atoms: C_4  and  O_7
    4  A    between atoms: C_4  and  C_27
    5  A    between atoms: C_4  and  C_28
    6  A    between atoms: C_5  and  C_26
    7  A    between atoms: C_5  and  C_35
    8  A    between atoms: O_7  and  C_25
    9  A    between atoms: C_12  and  C_42
   10  A    between atoms: C_14  and  C_25
   11  A    between atoms: C_14  and  C_38
   12  A    between atoms: N_16  and  C_19
   13  A    between atoms: C_19  and  C_32
   14  A    between atoms: C_19  and  O_44
   15  A    between atoms: C_21  and  C_27
   16  A    between atoms: C_23  and  C_26
   17  A    between atoms: C_32  and  C_35
   18  A    between atoms: C_32  and  C_38
                            x       y       z     vdW  Elec       q    Type
                         _______ _______ _______ _____ _____    ______ ____

>  <TORSDO>
F 18

$$$$
=
 OpenBabel11072413223D

 44 48  0  0  1  0  0  0  0  0999 V2000
  160.2480  213.1900  148.1140 C   0  0  2  0  0  3  0  0  0  0  0  0
  159.8760  213.3760  144.8550 C   0  0  0  0  0  2  0  0  0  0  0  0
  162.2550  212.9610  145.5300 C   0  0  0  0  0  2  0  0  0  0  0  0
  162.1580  214.0490  146.5960 C   0  0  0  0  0  2  0  0  0  0  0  0
  160.7150  214.2390  147.0860 C   0  0  1  0  0  3  0  0  0  0  0  0
  159.7350  214.4520  145.9290 C   0  0  0  0  0  2  0  0  0  0  0  0
  161.3240  213.2780  144.3640 C   0  0  1  0  0  3  0  0  0  0  0  0
  162.0950  212.7970  142.0600 C   0  0  0  0  0  0  0  0  0  0  0  0
  161.2060  212.6340  141.0010 N   0  0  0  0  0  0  0  0  0  0  0  0
  161.4960  212.2280  143.2600 C   0  0  2  0  0  3  0  0  0  0  0  0
  160.1900  211.7110  142.8030 N   0  0  0  0  0  0  0  0  0  0  0  0
  163.2320  213.3330  141.9690 O   0  0  0  0  0  0  0  0  0  0  0  0
  161.4200  213.1000  139.6430 C   0  0  0  0  0  1  0  0  0  0  0  0
  160.0330  211.9930  141.4150 N   0  0  0  0  0  0  0  0  0  0  0  0
  159.1170  213.7630  148.9950 C   0  0  1  0  0  3  0  0  0  0  0  0
  156.5580  214.1310  148.6600 C   0  0  2  0  0  3  0  0  0  0  0  0
  157.7410  213.1940  148.6260 C   0  0  2  0  0  0  0  0  0  0  0  0
  156.1920  214.3840  149.9950 O   0  0  0  0  0  0  0  0  0  0  0  0
  156.7150  213.1050  149.7290 C   0  0  1  0  0  3  0  0  0  0  0  0
  157.6480  212.1350  147.6360 N   0  0  0  0  0  1  0  0  0  0  0  0
  159.3800  213.5630  150.4560 C   0  0  0  0  0  0  0  0  0  0  0  0
  160.2980  214.3770  151.1060 O   0  0  0  0  0  1  0  0  0  0  0  0
  158.7660  212.6730  151.1020 O   0  0  0  0  0  0  0  0  0  0  0  0
  161.3330  212.7610  148.9000 O   0  0  0  0  0  0  0  0  0  0  0  0
  161.2510  211.3620  148.9790 C   0  0  1  0  0  3  0  0  0  0  0  0
  162.4260  210.7160  148.2680 C   0  0  0  0  0  1  0  0  0  0  0  0
  161.2990  210.9450  150.4390 C   0  0  0  0  0  2  0  0  0  0  0  0
  162.3660  209.8890  150.6670 C   0  0  0  0  0  2  0  0  0  0  0  0
  161.7700  208.6340  151.3120 C   0  0  2  0  0  3  0  0  0  0  0  0
  161.0460  207.7500  150.2950 C   0  0  0  0  0  2  0  0  0  0  0  0
  161.8970  206.5950  149.7890 C   0  0  2  0  0  3  0  0  0  0  0  0
  162.8750  206.2840  150.7340 O   0  0  0  0  0  1  0  0  0  0  0  0
  162.5590  206.9990  148.4830 C   0  0  0  0  0  2  0  0  0  0  0  0
  162.3790  205.2350  146.8140 N   0  0  0  0  0  1  0  0  0  0  0  0
  161.7780  206.4680  147.2930 C   0  0  0  0  0  2  0  0  0  0  0  0
  160.9250  208.9200  152.5620 C   0  0  1  0  0  3  0  0  0  0  0  0
  161.5720  207.1340  153.7030 C   0  0  0  0  0  1  0  0  0  0  0  0
  160.4560  207.7200  153.1040 O   0  0  0  0  0  0  0  0  0  0  0  0
  161.6970  209.6490  153.5630 N   0  0  0  0  0  2  0  0  0  0  0  0
  161.0620  210.9420  153.7740 C   0  0  1  0  0  3  0  0  0  0  0  0
  158.8280  211.0710  154.2250 N   0  0  0  0  0  0  0  0  0  0  0  0
  159.7540  210.9210  153.2220 O   0  0  0  0  0  0  0  0  0  0  0  0
  159.4180  211.1880  155.3390 N   0  0  0  0  0  0  0  0  0  0  0  0
  160.7770  211.1210  155.1540 O   0  0  0  0  0  0  0  0  0  0  0  0
  1 24  1  1  0  0  0
  1 15  1  0  0  0  0
  2  6  1  0  0  0  0
  3  4  1  0  0  0  0
  4  5  1  0  0  0  0
  5  1  1  6  0  0  0
  6  5  1  0  0  0  0
  7  2  1  1  0  0  0
  7  3  1  0  0  0  0
  9 14  1  0  0  0  0
  9  8  1  0  0  0  0
 10  8  1  6  0  0  0
 10  7  1  0  0  0  0
 11 10  1  0  0  0  0
 12  8  2  0  0  0  0
 13  9  1  0  0  0  0
 14 11  2  0  0  0  0
 15 21  1  1  0  0  0
 16 19  1  0  0  0  0
 16 18  1  1  0  0  0
 17 20  1  6  0  0  0
 17 16  1  0  0  0  0
 17 15  1  0  0  0  0
 17 19  1  0  0  0  0
 19 18  1  1  0  0  0
 21 23  2  0  0  0  0
 21 22  1  0  0  0  0
 24 25  1  0  0  0  0
 25 26  1  6  0  0  0
 25 27  1  0  0  0  0
 27 28  1  0  0  0  0
 28 29  1  0  0  0  0
 29 30  1  6  0  0  0
 29 36  1  0  0  0  0
 31 30  1  0  0  0  0
 31 32  1  1  0  0  0
 33 31  1  0  0  0  0
 34 35  1  0  0  0  0
 35 33  1  0  0  0  0
 36 38  1  1  0  0  0
 36 39  1  0  0  0  0
 38 37  1  0  0  0  0
 40 39  1  1  0  0  0
 40 44  1  0  0  0  0
 41 43  2  0  0  0  0
 42 40  1  0  0  0  0
 42 41  1  0  0  0  0
 44 43  1  0  0  0  0
M  END
>  <MODEL>
9

>  <REMARK>
 VINA RESULT:      -4.3      4.111      7.674
  Name = 
  18 active torsions:
  status: ('A' for Active; 'I' for Inactive)
    1  A    between atoms: C_2  and  C_27
    2  A    between atoms: C_3  and  N_16
    3  A    between atoms: C_4  and  O_7
    4  A    between atoms: C_4  and  C_27
    5  A    between atoms: C_4  and  C_28
    6  A    between atoms: C_5  and  C_26
    7  A    between atoms: C_5  and  C_35
    8  A    between atoms: O_7  and  C_25
    9  A    between atoms: C_12  and  C_42
   10  A    between atoms: C_14  and  C_25
   11  A    between atoms: C_14  and  C_38
   12  A    between atoms: N_16  and  C_19
   13  A    between atoms: C_19  and  C_32
   14  A    between atoms: C_19  and  O_44
   15  A    between atoms: C_21  and  C_27
   16  A    between atoms: C_23  and  C_26
   17  A    between atoms: C_32  and  C_35
   18  A    between atoms: C_32  and  C_38
                            x       y       z     vdW  Elec       q    Type
                         _______ _______ _______ _____ _____    ______ ____

>  <TORSDO>
F 18

$$$$
