=
 OpenBabel11072411473D

 53 59  0  0  1  0  0  0  0  0999 V2000
  161.7230  205.1030  145.5210 C   0  0  0  0  0  0  0  0  0  0  0  0
  162.8520  206.0890  143.6530 N   0  0  0  0  0  0  0  0  0  0  0  0
  160.6990  205.1120  143.3200 C   0  0  0  0  0  3  0  0  0  0  0  0
  161.8170  205.7820  142.8220 C   0  0  0  0  0  0  0  0  0  0  0  0
  160.6570  204.7720  144.6770 C   0  0  0  0  0  3  0  0  0  0  0  0
  162.8230  205.7720  144.9760 C   0  0  0  0  0  3  0  0  0  0  0  0
  161.8830  206.1840  141.3880 C   0  0  0  0  0  2  0  0  0  0  0  0
  161.6010  207.6760  141.2090 C   0  0  0  0  0  2  0  0  0  0  0  0
  161.9230  210.5480  139.6140 C   0  0  2  0  0  3  0  0  0  0  0  0
  161.6730  208.4540  138.7660 C   0  0  1  0  0  0  0  0  0  0  0  0
  161.6230  209.8280  138.4360 O   0  0  0  0  0  0  0  0  0  0  0  0
  162.4460  208.2890  140.0890 C   0  0  1  0  0  3  0  0  0  0  0  0
  162.8590  209.6930  140.4370 C   0  0  0  0  0  2  0  0  0  0  0  0
  160.3620  207.9760  138.8680 O   0  0  0  0  0  1  0  0  0  0  0  0
  162.3250  207.7620  137.7650 F   0  0  0  0  0  0  0  0  0  0  0  0
  160.6660  210.8830  140.4550 C   0  0  2  0  0  3  0  0  0  0  0  0
  158.6390  212.2640  140.0230 C   0  0  2  0  0  3  0  0  0  0  0  0
  158.3570  212.0300  137.2530 S   0  0  0  0  0  0  0  0  0  0  0  0
  159.4050  211.0220  139.5830 C   0  0  1  0  0  3  0  0  0  0  0  0
  157.2260  212.1530  139.7000 N   0  0  0  0  0  2  0  0  0  0  0  0
  156.9430  212.1670  138.3130 C   0  0  0  0  0  0  0  0  0  0  0  0
  159.4330  212.2710  138.7150 C   0  0  2  0  0  3  0  0  0  0  0  0
  155.7130  211.9730  137.8570 C   0  0  0  0  0  2  0  0  0  0  0  0
  160.9130  212.0900  141.1840 O   0  0  0  0  0  0  0  0  0  0  0  0
  162.3130  212.3310  143.0120 O   0  0  0  0  0  0  0  0  0  0  0  0
  161.1590  212.1070  142.5610 C   0  0  0  0  0  0  0  0  0  0  0  0
  160.0990  211.8290  143.4700 N   0  0  0  0  0  1  0  0  0  0  0  0
  161.6910  204.8400  146.9910 C   0  0  0  0  0  2  0  0  0  0  0  0
  160.4430  206.0080  148.6020 C   0  0  2  0  0  3  0  0  0  0  0  0
  161.6440  206.0860  147.7510 N   0  0  0  0  0  0  0  0  0  0  0  0
  160.4160  206.8000  147.3670 C   0  0  0  0  0  2  0  0  0  0  0  0
  161.8290  206.9870  153.1230 O   0  0  0  0  0  0  0  0  0  0  0  0
  161.9270  208.1900  149.4850 S   0  0  0  0  0  0  0  0  0  0  0  0
  162.2550  208.2860  151.2190 N   0  0  0  0  0  0  0  0  0  0  0  0
  161.1400  206.1690  151.0320 N   0  0  0  0  0  0  0  0  0  0  0  0
  161.7610  207.1330  151.8730 C   0  0  0  0  0  0  0  0  0  0  0  0
  160.7070  206.8740  149.8270 C   0  0  2  0  0  3  0  0  0  0  0  0
  162.4070  209.5570  151.9030 C   0  0  0  0  0  2  0  0  0  0  0  0
  159.9040  212.1990  152.8160 O   0  0  0  0  0  1  0  0  0  0  0  0
  161.1500  210.3930  151.7200 C   0  0  1  0  0  3  0  0  0  0  0  0
  160.1240  209.8690  152.5380 O   0  0  0  0  0  0  0  0  0  0  0  0
  160.7220  211.0660  152.9690 C   0  0  2  0  0  0  0  0  0  0  0  0
  161.5360  210.9470  154.1200 O   0  0  0  0  0  0  0  0  0  0  0  0
  160.8470  210.3170  155.1870 C   0  0  1  0  0  3  0  0  0  0  0  0
  161.7920  209.4880  156.0580 C   0  0  0  0  0  1  0  0  0  0  0  0
  160.0970  211.2150  155.9660 O   0  0  0  0  0  0  0  0  0  0  0  0
  158.8630  210.5860  156.1450 C   0  0  0  0  0  2  0  0  0  0  0  0
  157.7640  211.4980  155.6210 C   0  0  0  0  0  1  0  0  0  0  0  0
  161.6810  204.8020  150.9720 C   0  0  0  0  0  2  0  0  0  0  0  0
  160.6230  203.7530  151.2950 C   0  0  0  0  0  2  0  0  0  0  0  0
  161.3080  202.4080  151.4850 C   0  0  0  0  0  2  0  0  0  0  0  0
  160.9330  201.4600  150.3940 C   0  0  0  0  0  3  0  0  0  0  0  0
  160.2350  201.9080  149.2170 S   0  0  0  0  0  0  0  0  0  0  0  0
  1 28  1  0  0  0  0
  2  6  2  0  0  0  0
  3  5  1  0  0  0  0
  4  3  2  0  0  0  0
  4  2  1  0  0  0  0
  5  1  2  0  0  0  0
  6  1  1  0  0  0  0
  7  4  1  0  0  0  0
  8  7  1  0  0  0  0
  9 13  1  0  0  0  0
  9 16  1  1  0  0  0
 10 15  1  6  0  0  0
 10 14  1  0  0  0  0
 10 12  1  0  0  0  0
 11 10  1  0  0  0  0
 11  9  1  0  0  0  0
 12 13  1  0  0  0  0
 12  8  1  1  0  0  0
 16 24  1  6  0  0  0
 17 20  1  6  0  0  0
 18 21  1  0  0  0  0
 19 17  1  0  0  0  0
 19 16  1  1  0  0  0
 21 20  1  0  0  0  0
 22 18  1  6  0  0  0
 22 19  1  0  0  0  0
 22 17  1  0  0  0  0
 23 21  2  0  0  0  0
 24 26  1  0  0  0  0
 26 25  2  0  0  0  0
 26 27  1  0  0  0  0
 28 30  1  0  0  0  0
 29 31  1  6  0  0  0
 29 37  1  0  0  0  0
 30 29  1  0  0  0  0
 31 30  1  0  0  0  0
 33 34  1  0  0  0  0
 34 36  1  0  0  0  0
 34 38  1  0  0  0  0
 35 36  1  0  0  0  0
 36 32  2  0  0  0  0
 37 33  1  6  0  0  0
 37 35  1  0  0  0  0
 40 38  1  1  0  0  0
 40 41  1  0  0  0  0
 40 42  1  0  0  0  0
 41 42  1  0  0  0  0
 42 39  1  6  0  0  0
 42 43  1  0  0  0  0
 43 44  1  0  0  0  0
 44 46  1  0  0  0  0
 44 45  1  1  0  0  0
 46 47  1  0  0  0  0
 48 47  1  0  0  0  0
 49 35  1  0  0  0  0
 49 50  1  0  0  0  0
 50 51  1  0  0  0  0
 52 51  1  0  0  0  0
 53 52  2  0  0  0  0
M  END
>  <MODEL>
1

>  <REMARK>
 VINA RESULT:      -3.9      0.000      0.000
  Name = 
  20 active torsions:
  status: ('A' for Active; 'I' for Inactive)
    1  A    between atoms: C_1  and  C_14
    2  A    between atoms: C_1  and  C_15
    3  A    between atoms: C_2  and  O_18
    4  A    between atoms: C_2  and  O_21
    5  A    between atoms: C_3  and  C_20
    6  A    between atoms: C_4  and  C_14
    7  A    between atoms: C_4  and  N_29
    8  A    between atoms: C_6  and  C_43
    9  A    between atoms: C_9  and  O_18
   10  A    between atoms: C_12  and  C_43
   11  A    between atoms: C_19  and  C_50
   12  A    between atoms: C_20  and  N_40
   13  A    between atoms: O_21  and  C_52
   14  A    between atoms: N_23  and  C_51
   15  A    between atoms: C_25  and  C_39
   16  A    between atoms: O_28  and  C_36
   17  A    between atoms: O_28  and  C_43
   18  A    between atoms: C_33  and  C_48
   19  A    between atoms: C_42  and  C_51
   20  A    between atoms: C_48  and  C_50
                            x       y       z     vdW  Elec       q    Type
                         _______ _______ _______ _____ _____    ______ ____

>  <TORSDO>
F 20

$$$$
=
 OpenBabel11072411473D

 53 59  0  0  1  0  0  0  0  0999 V2000
  161.3330  205.5360  146.1180 C   0  0  0  0  0  0  0  0  0  0  0  0
  160.5140  206.1200  143.9450 N   0  0  0  0  0  0  0  0  0  0  0  0
  162.7610  205.3400  144.1650 C   0  0  0  0  0  3  0  0  0  0  0  0
  161.7080  205.7980  143.3710 C   0  0  0  0  0  0  0  0  0  0  0  0
  162.5670  205.2120  145.5450 C   0  0  0  0  0  3  0  0  0  0  0  0
  160.3090  205.9930  145.2830 C   0  0  0  0  0  3  0  0  0  0  0  0
  161.8700  205.9200  141.8950 C   0  0  0  0  0  2  0  0  0  0  0  0
  161.6120  207.3500  141.4160 C   0  0  0  0  0  2  0  0  0  0  0  0
  162.2590  209.9780  139.5280 C   0  0  2  0  0  3  0  0  0  0  0  0
  162.0270  207.8000  138.9260 C   0  0  1  0  0  0  0  0  0  0  0  0
  162.0790  209.1190  138.4220 O   0  0  0  0  0  0  0  0  0  0  0  0
  162.6180  207.7880  140.3490 C   0  0  1  0  0  3  0  0  0  0  0  0
  163.0460  209.2120  140.5680 C   0  0  0  0  0  2  0  0  0  0  0  0
  160.6930  207.3750  138.9150 O   0  0  0  0  0  1  0  0  0  0  0  0
  162.7680  206.9650  138.1140 F   0  0  0  0  0  0  0  0  0  0  0  0
  160.9230  210.4550  140.1480 C   0  0  2  0  0  3  0  0  0  0  0  0
  158.5650  211.1510  139.7480 C   0  0  2  0  0  3  0  0  0  0  0  0
  158.6300  211.9030  137.0580 S   0  0  0  0  0  0  0  0  0  0  0  0
  159.7840  210.4920  139.1130 C   0  0  1  0  0  3  0  0  0  0  0  0
  157.3360  210.7140  139.1060 N   0  0  0  0  0  2  0  0  0  0  0  0
  157.1880  211.1580  137.7700 C   0  0  0  0  0  0  0  0  0  0  0  0
  159.4030  211.9110  138.7190 C   0  0  2  0  0  3  0  0  0  0  0  0
  156.1700  210.7600  137.0190 C   0  0  0  0  0  2  0  0  0  0  0  0
  161.1230  211.7490  140.7270 O   0  0  0  0  0  0  0  0  0  0  0  0
  162.5040  212.1720  142.5360 O   0  0  0  0  0  0  0  0  0  0  0  0
  161.3480  211.9420  142.0940 C   0  0  0  0  0  0  0  0  0  0  0  0
  160.2610  211.8380  143.0090 N   0  0  0  0  0  1  0  0  0  0  0  0
  161.0490  205.3370  147.5710 C   0  0  0  0  0  2  0  0  0  0  0  0
  161.1990  207.3030  148.8470 C   0  0  2  0  0  3  0  0  0  0  0  0
  161.9580  206.1210  148.4010 N   0  0  0  0  0  0  0  0  0  0  0  0
  162.1560  207.4230  147.7430 C   0  0  0  0  0  2  0  0  0  0  0  0
  162.8570  210.4200  152.1410 O   0  0  0  0  0  0  0  0  0  0  0  0
  160.7630  207.2560  151.5940 S   0  0  0  0  0  0  0  0  0  0  0  0
  161.5310  208.5310  152.5480 N   0  0  0  0  0  0  0  0  0  0  0  0
  162.0900  209.1740  150.3040 N   0  0  0  0  0  0  0  0  0  0  0  0
  162.1900  209.4480  151.6960 C   0  0  0  0  0  0  0  0  0  0  0  0
  161.8010  207.7470  150.1740 C   0  0  2  0  0  3  0  0  0  0  0  0
  161.9480  208.3170  153.9220 C   0  0  0  0  0  2  0  0  0  0  0  0
  158.9770  209.4450  155.9170 O   0  0  0  0  0  1  0  0  0  0  0  0
  160.7260  208.1310  154.8080 C   0  0  1  0  0  3  0  0  0  0  0  0
  161.0810  208.4090  156.1470 O   0  0  0  0  0  0  0  0  0  0  0  0
  160.3140  209.3830  155.4850 C   0  0  2  0  0  0  0  0  0  0  0  0
  161.0020  210.5810  155.1810 O   0  0  0  0  0  0  0  0  0  0  0  0
  160.1280  211.5710  154.6660 C   0  0  1  0  0  3  0  0  0  0  0  0
  159.9940  212.7580  155.6220 C   0  0  0  0  0  1  0  0  0  0  0  0
  160.4790  211.9980  153.3740 O   0  0  0  0  0  0  0  0  0  0  0  0
  159.4200  212.8150  152.9690 C   0  0  0  0  0  2  0  0  0  0  0  0
  159.4850  212.9930  151.4590 C   0  0  0  0  0  1  0  0  0  0  0  0
  161.4750  210.1680  149.4110 C   0  0  0  0  0  2  0  0  0  0  0  0
  162.5020  211.1450  148.8490 C   0  0  0  0  0  2  0  0  0  0  0  0
  161.7730  212.3600  148.2990 C   0  0  0  0  0  2  0  0  0  0  0  0
  162.6560  213.1420  147.3820 C   0  0  0  0  0  3  0  0  0  0  0  0
  162.3080  213.3470  145.9990 S   0  0  0  0  0  0  0  0  0  0  0  0
  1 28  1  0  0  0  0
  2  6  1  0  0  0  0
  3  5  2  0  0  0  0
  4  2  2  0  0  0  0
  4  3  1  0  0  0  0
  5  1  1  0  0  0  0
  6  1  2  0  0  0  0
  7  4  1  0  0  0  0
  8  7  1  0  0  0  0
  9 16  1  1  0  0  0
  9 13  1  0  0  0  0
 10 15  1  6  0  0  0
 10 12  1  0  0  0  0
 11 10  1  0  0  0  0
 11  9  1  0  0  0  0
 12 13  1  0  0  0  0
 12  8  1  1  0  0  0
 14 10  1  0  0  0  0
 16 24  1  6  0  0  0
 17 20  1  6  0  0  0
 18 21  1  0  0  0  0
 19 17  1  0  0  0  0
 19 16  1  1  0  0  0
 21 20  1  0  0  0  0
 22 18  1  6  0  0  0
 22 19  1  0  0  0  0
 22 17  1  0  0  0  0
 23 21  2  0  0  0  0
 24 26  1  0  0  0  0
 26 25  2  0  0  0  0
 26 27  1  0  0  0  0
 28 30  1  0  0  0  0
 29 31  1  6  0  0  0
 29 37  1  0  0  0  0
 30 29  1  0  0  0  0
 31 30  1  0  0  0  0
 33 34  1  0  0  0  0
 34 38  1  0  0  0  0
 35 36  1  0  0  0  0
 36 32  2  0  0  0  0
 36 34  1  0  0  0  0
 37 35  1  0  0  0  0
 37 33  1  1  0  0  0
 40 38  1  6  0  0  0
 40 42  1  0  0  0  0
 40 41  1  0  0  0  0
 42 39  1  1  0  0  0
 42 41  1  0  0  0  0
 43 42  1  0  0  0  0
 44 43  1  0  0  0  0
 44 45  1  1  0  0  0
 46 44  1  0  0  0  0
 47 46  1  0  0  0  0
 48 47  1  0  0  0  0
 49 35  1  0  0  0  0
 50 49  1  0  0  0  0
 51 50  1  0  0  0  0
 52 51  1  0  0  0  0
 53 52  2  0  0  0  0
M  END
>  <MODEL>
2

>  <REMARK>
 VINA RESULT:      -3.1      1.942      3.664
  Name = 
  20 active torsions:
  status: ('A' for Active; 'I' for Inactive)
    1  A    between atoms: C_1  and  C_14
    2  A    between atoms: C_1  and  C_15
    3  A    between atoms: C_2  and  O_18
    4  A    between atoms: C_2  and  O_21
    5  A    between atoms: C_3  and  C_20
    6  A    between atoms: C_4  and  C_14
    7  A    between atoms: C_4  and  N_29
    8  A    between atoms: C_6  and  C_43
    9  A    between atoms: C_9  and  O_18
   10  A    between atoms: C_12  and  C_43
   11  A    between atoms: C_19  and  C_50
   12  A    between atoms: C_20  and  N_40
   13  A    between atoms: O_21  and  C_52
   14  A    between atoms: N_23  and  C_51
   15  A    between atoms: C_25  and  C_39
   16  A    between atoms: O_28  and  C_36
   17  A    between atoms: O_28  and  C_43
   18  A    between atoms: C_33  and  C_48
   19  A    between atoms: C_42  and  C_51
   20  A    between atoms: C_48  and  C_50
                            x       y       z     vdW  Elec       q    Type
                         _______ _______ _______ _____ _____    ______ ____

>  <TORSDO>
F 20

$$$$
=
 OpenBabel11072411473D

 53 59  0  0  1  0  0  0  0  0999 V2000
  160.5200  211.4520  151.3090 C   0  0  0  0  0  0  0  0  0  0  0  0
  161.3730  212.2850  149.2320 N   0  0  0  0  0  0  0  0  0  0  0  0
  159.7470  213.5730  150.4170 C   0  0  0  0  0  3  0  0  0  0  0  0
  160.5980  213.4020  149.3230 C   0  0  0  0  0  0  0  0  0  0  0  0
  159.7110  212.5880  151.4110 C   0  0  0  0  0  3  0  0  0  0  0  0
  161.3540  211.3240  150.1940 C   0  0  0  0  0  3  0  0  0  0  0  0
  160.6820  214.4430  148.2600 C   0  0  0  0  0  2  0  0  0  0  0  0
  160.9030  213.8210  146.8800 C   0  0  0  0  0  2  0  0  0  0  0  0
  159.6080  212.0610  144.4070 C   0  0  2  0  0  3  0  0  0  0  0  0
  158.6010  212.8660  146.2780 C   0  0  1  0  0  0  0  0  0  0  0  0
  158.3510  212.3120  145.0020 O   0  0  0  0  0  0  0  0  0  0  0  0
  160.0580  212.5620  146.6760 C   0  0  1  0  0  3  0  0  0  0  0  0
  160.5790  211.7480  145.5240 C   0  0  0  0  0  2  0  0  0  0  0  0
  158.3560  214.2430  146.2180 O   0  0  0  0  0  1  0  0  0  0  0  0
  157.7450  212.3000  147.2030 F   0  0  0  0  0  0  0  0  0  0  0  0
  160.1410  213.2620  143.5890 C   0  0  2  0  0  3  0  0  0  0  0  0
  159.4580  211.6440  141.8220 C   0  0  2  0  0  3  0  0  0  0  0  0
  158.9110  213.3370  139.6670 S   0  0  0  0  0  0  0  0  0  0  0  0
  160.1730  212.9670  142.0790 C   0  0  1  0  0  3  0  0  0  0  0  0
  159.9330  211.0190  140.5980 N   0  0  0  0  0  2  0  0  0  0  0  0
  159.5890  211.7180  139.4160 C   0  0  0  0  0  0  0  0  0  0  0  0
  158.7840  212.9690  141.4560 C   0  0  2  0  0  3  0  0  0  0  0  0
  160.0350  211.3290  138.2290 C   0  0  0  0  0  2  0  0  0  0  0  0
  161.4490  213.5950  144.0670 O   0  0  0  0  0  0  0  0  0  0  0  0
  163.7180  213.4870  143.6270 O   0  0  0  0  0  0  0  0  0  0  0  0
  162.5530  213.7340  143.2200 C   0  0  0  0  0  0  0  0  0  0  0  0
  162.3660  214.1980  141.8870 N   0  0  0  0  0  1  0  0  0  0  0  0
  160.5830  210.4150  152.3830 C   0  0  0  0  0  2  0  0  0  0  0  0
  162.2260  208.7490  152.5860 C   0  0  2  0  0  3  0  0  0  0  0  0
  161.0060  209.1240  151.8490 N   0  0  0  0  0  0  0  0  0  0  0  0
  162.3300  209.3060  151.2330 C   0  0  0  0  0  2  0  0  0  0  0  0
  160.9030  204.2440  153.7150 O   0  0  0  0  0  0  0  0  0  0  0  0
  162.1300  206.5380  150.9000 S   0  0  0  0  0  0  0  0  0  0  0  0
  161.6260  205.0050  151.6190 N   0  0  0  0  0  0  0  0  0  0  0  0
  161.3450  206.5350  153.4460 N   0  0  0  0  0  0  0  0  0  0  0  0
  161.2530  205.1980  152.9690 C   0  0  0  0  0  0  0  0  0  0  0  0
  162.3000  207.2270  152.5830 C   0  0  2  0  0  3  0  0  0  0  0  0
  162.1140  203.7290  151.1280 C   0  0  0  0  0  2  0  0  0  0  0  0
  160.2380  202.2640  148.2260 O   0  0  0  0  0  1  0  0  0  0  0  0
  160.9810  202.9690  150.4550 C   0  0  1  0  0  3  0  0  0  0  0  0
  160.0600  203.8960  149.9170 O   0  0  0  0  0  0  0  0  0  0  0  0
  160.8960  203.2360  149.0000 C   0  0  2  0  0  0  0  0  0  0  0  0
  161.8840  204.0500  148.3980 O   0  0  0  0  0  0  0  0  0  0  0  0
  161.4070  204.6660  147.2130 C   0  0  1  0  0  3  0  0  0  0  0  0
  160.8910  206.0800  147.4810 C   0  0  0  0  0  1  0  0  0  0  0  0
  162.3480  204.6590  146.1700 O   0  0  0  0  0  0  0  0  0  0  0  0
  161.9130  205.6540  145.2920 C   0  0  0  0  0  2  0  0  0  0  0  0
  161.2230  204.9970  144.1060 C   0  0  0  0  0  1  0  0  0  0  0  0
  160.1400  207.2080  153.9560 C   0  0  0  0  0  2  0  0  0  0  0  0
  160.1640  207.3530  155.4730 C   0  0  0  0  0  2  0  0  0  0  0  0
  160.3820  208.8170  155.8220 C   0  0  0  0  0  2  0  0  0  0  0  0
  161.7390  209.0310  156.4090 C   0  0  0  0  0  3  0  0  0  0  0  0
  162.0290  210.1790  157.2290 S   0  0  0  0  0  0  0  0  0  0  0  0
  1  5  1  0  0  0  0
  1 28  1  0  0  0  0
  2  4  2  0  0  0  0
  2  6  1  0  0  0  0
  3  5  2  0  0  0  0
  4  3  1  0  0  0  0
  6  1  2  0  0  0  0
  7  4  1  0  0  0  0
  8  7  1  0  0  0  0
  9 16  1  1  0  0  0
  9 11  1  0  0  0  0
  9 13  1  0  0  0  0
 10 14  1  6  0  0  0
 10 12  1  0  0  0  0
 10 15  1  0  0  0  0
 11 10  1  0  0  0  0
 12  8  1  6  0  0  0
 13 12  1  0  0  0  0
 16 24  1  1  0  0  0
 17 20  1  6  0  0  0
 17 19  1  0  0  0  0
 19 16  1  1  0  0  0
 21 18  1  0  0  0  0
 21 20  1  0  0  0  0
 22 18  1  6  0  0  0
 22 17  1  0  0  0  0
 22 19  1  0  0  0  0
 23 21  2  0  0  0  0
 26 25  2  0  0  0  0
 26 24  1  0  0  0  0
 27 26  1  0  0  0  0
 29 31  1  6  0  0  0
 30 28  1  0  0  0  0
 30 29  1  0  0  0  0
 31 30  1  0  0  0  0
 33 34  1  0  0  0  0
 34 36  1  0  0  0  0
 35 49  1  0  0  0  0
 36 35  1  0  0  0  0
 36 32  2  0  0  0  0
 37 33  1  6  0  0  0
 37 29  1  0  0  0  0
 37 35  1  0  0  0  0
 38 34  1  0  0  0  0
 40 38  1  1  0  0  0
 41 40  1  0  0  0  0
 42 39  1  6  0  0  0
 42 41  1  0  0  0  0
 42 40  1  0  0  0  0
 43 42  1  0  0  0  0
 44 45  1  1  0  0  0
 44 43  1  0  0  0  0
 46 44  1  0  0  0  0
 47 46  1  0  0  0  0
 48 47  1  0  0  0  0
 49 50  1  0  0  0  0
 50 51  1  0  0  0  0
 51 52  1  0  0  0  0
 52 53  2  0  0  0  0
M  END
>  <MODEL>
3

>  <REMARK>
 VINA RESULT:      -2.9      3.686      7.460
  Name = 
  20 active torsions:
  status: ('A' for Active; 'I' for Inactive)
    1  A    between atoms: C_1  and  C_14
    2  A    between atoms: C_1  and  C_15
    3  A    between atoms: C_2  and  O_18
    4  A    between atoms: C_2  and  O_21
    5  A    between atoms: C_3  and  C_20
    6  A    between atoms: C_4  and  C_14
    7  A    between atoms: C_4  and  N_29
    8  A    between atoms: C_6  and  C_43
    9  A    between atoms: C_9  and  O_18
   10  A    between atoms: C_12  and  C_43
   11  A    between atoms: C_19  and  C_50
   12  A    between atoms: C_20  and  N_40
   13  A    between atoms: O_21  and  C_52
   14  A    between atoms: N_23  and  C_51
   15  A    between atoms: C_25  and  C_39
   16  A    between atoms: O_28  and  C_36
   17  A    between atoms: O_28  and  C_43
   18  A    between atoms: C_33  and  C_48
   19  A    between atoms: C_42  and  C_51
   20  A    between atoms: C_48  and  C_50
                            x       y       z     vdW  Elec       q    Type
                         _______ _______ _______ _____ _____    ______ ____

>  <TORSDO>
F 20

$$$$
=
 OpenBabel11072411473D

 53 59  0  0  1  0  0  0  0  0999 V2000
  162.0320  206.5680  140.8920 C   0  0  0  0  0  0  0  0  0  0  0  0
  162.3220  207.0740  138.5690 N   0  0  0  0  0  0  0  0  0  0  0  0
  161.3190  208.7070  139.9940 C   0  0  0  0  0  3  0  0  0  0  0  0
  161.7690  208.3080  138.7340 C   0  0  0  0  0  0  0  0  0  0  0  0
  161.4530  207.8270  141.0740 C   0  0  0  0  0  3  0  0  0  0  0  0
  162.4660  206.2110  139.6110 C   0  0  0  0  0  3  0  0  0  0  0  0
  161.6680  209.2290  137.5670 C   0  0  0  0  0  2  0  0  0  0  0  0
  161.4410  210.6750  138.0090 C   0  0  0  0  0  2  0  0  0  0  0  0
  162.5780  212.9180  140.1490 C   0  0  2  0  0  3  0  0  0  0  0  0
  162.7980  212.8480  137.8880 C   0  0  1  0  0  0  0  0  0  0  0  0
  162.9400  213.6840  139.0180 O   0  0  0  0  0  0  0  0  0  0  0  0
  162.7550  211.3820  138.3570 C   0  0  1  0  0  3  0  0  0  0  0  0
  162.9320  211.4790  139.8470 C   0  0  0  0  0  2  0  0  0  0  0  0
  161.6270  213.2120  137.2130 O   0  0  0  0  0  1  0  0  0  0  0  0
  163.8750  213.0280  137.0430 F   0  0  0  0  0  0  0  0  0  0  0  0
  161.0700  213.0110  140.4860 C   0  0  2  0  0  3  0  0  0  0  0  0
  160.6600  211.8850  142.6700 C   0  0  2  0  0  3  0  0  0  0  0  0
  161.9900  213.5750  144.4530 S   0  0  0  0  0  0  0  0  0  0  0  0
  160.8240  213.2390  141.9880 C   0  0  1  0  0  3  0  0  0  0  0  0
  159.8730  212.0000  143.8860 N   0  0  0  0  0  0  0  0  0  0  0  0
  160.5090  212.7220  144.9250 C   0  0  0  0  0  0  0  0  0  0  0  0
  161.9500  212.6870  142.8510 C   0  0  2  0  0  3  0  0  0  0  0  0
  159.8810  212.9990  146.0590 C   0  0  0  0  0  1  0  0  0  0  0  0
  160.4280  211.8100  140.0440 O   0  0  0  0  0  0  0  0  0  0  0  0
  158.5130  212.8390  139.2480 O   0  0  0  0  0  0  0  0  0  0  0  0
  159.1070  211.7810  139.5840 C   0  0  0  0  0  0  0  0  0  0  0  0
  158.4060  210.5430  139.5290 N   0  0  0  0  0  1  0  0  0  0  0  0
  162.2760  205.6270  142.0270 C   0  0  0  0  0  2  0  0  0  0  0  0
  161.6370  204.9150  144.1720 C   0  0  2  0  0  3  0  0  0  0  0  0
  161.5410  206.0360  143.2210 N   0  0  0  0  0  0  0  0  0  0  0  0
  160.4110  205.1090  143.3910 C   0  0  0  0  0  2  0  0  0  0  0  0
  160.5010  205.0060  148.8640 O   0  0  0  0  0  0  0  0  0  0  0  0
  163.1500  205.9550  146.2620 S   0  0  0  0  0  0  0  0  0  0  0  0
  162.4480  205.8640  147.8810 N   0  0  0  0  0  0  0  0  0  0  0  0
  160.8290  204.6820  146.5620 N   0  0  0  0  0  0  0  0  0  0  0  0
  161.2210  205.1610  147.8420 C   0  0  0  0  0  0  0  0  0  0  0  0
  161.5200  205.5060  145.5710 C   0  0  2  0  0  3  0  0  0  0  0  0
  162.7390  206.8540  148.9020 C   0  0  0  0  0  2  0  0  0  0  0  0
  162.1330  210.5440  149.2220 O   0  0  0  0  0  1  0  0  0  0  0  0
  162.2760  208.2260  148.4340 C   0  0  1  0  0  3  0  0  0  0  0  0
  160.9990  208.4920  148.9790 O   0  0  0  0  0  0  0  0  0  0  0  0
  162.0840  209.1780  149.5530 C   0  0  2  0  0  0  0  0  0  0  0  0
  162.4250  208.7680  150.8630 O   0  0  0  0  0  0  0  0  0  0  0  0
  161.3900  209.0540  151.7880 C   0  0  1  0  0  3  0  0  0  0  0  0
  161.0500  207.8360  152.6480 C   0  0  0  0  0  1  0  0  0  0  0  0
  161.6580  210.1780  152.5860 O   0  0  0  0  0  0  0  0  0  0  0  0
  161.2290  209.8180  153.8660 C   0  0  0  0  0  2  0  0  0  0  0  0
  161.9140  210.7140  154.8870 C   0  0  0  0  0  1  0  0  0  0  0  0
  160.6280  203.2390  146.3570 C   0  0  0  0  0  2  0  0  0  0  0  0
  161.6690  202.4060  147.0970 C   0  0  0  0  0  2  0  0  0  0  0  0
  161.0720  201.0430  147.4130 C   0  0  0  0  0  2  0  0  0  0  0  0
  161.1470  200.7540  148.8760 C   0  0  0  0  0  3  0  0  0  0  0  0
  160.5830  201.6550  149.8490 S   0  0  0  0  0  0  0  0  0  0  0  0
  1  5  1  0  0  0  0
  1 28  1  0  0  0  0
  2  4  2  0  0  0  0
  2  6  1  0  0  0  0
  3  5  2  0  0  0  0
  4  3  1  0  0  0  0
  6  1  2  0  0  0  0
  7  8  1  0  0  0  0
  7  4  1  0  0  0  0
  9 16  1  6  0  0  0
 10 15  1  6  0  0  0
 10 12  1  0  0  0  0
 10 11  1  0  0  0  0
 11  9  1  0  0  0  0
 12  8  1  1  0  0  0
 12 13  1  0  0  0  0
 13  9  1  0  0  0  0
 14 10  1  0  0  0  0
 16 24  1  1  0  0  0
 17 22  1  0  0  0  0
 17 20  1  1  0  0  0
 18 21  1  0  0  0  0
 19 16  1  6  0  0  0
 19 17  1  0  0  0  0
 19 22  1  0  0  0  0
 20 21  2  0  0  0  0
 21 23  1  0  0  0  0
 22 18  1  1  0  0  0
 25 26  2  0  0  0  0
 26 24  1  0  0  0  0
 27 26  1  0  0  0  0
 28 30  1  0  0  0  0
 29 31  1  6  0  0  0
 29 37  1  0  0  0  0
 30 31  1  0  0  0  0
 30 29  1  0  0  0  0
 33 34  1  0  0  0  0
 34 38  1  0  0  0  0
 35 36  1  0  0  0  0
 36 34  1  0  0  0  0
 36 32  2  0  0  0  0
 37 33  1  1  0  0  0
 37 35  1  0  0  0  0
 40 38  1  1  0  0  0
 40 41  1  0  0  0  0
 40 42  1  0  0  0  0
 41 42  1  0  0  0  0
 42 39  1  6  0  0  0
 42 43  1  0  0  0  0
 43 44  1  0  0  0  0
 44 46  1  0  0  0  0
 44 45  1  1  0  0  0
 46 47  1  0  0  0  0
 47 48  1  0  0  0  0
 49 35  1  0  0  0  0
 49 50  1  0  0  0  0
 50 51  1  0  0  0  0
 51 52  1  0  0  0  0
 52 53  2  0  0  0  0
M  END
>  <MODEL>
4

>  <REMARK>
 VINA RESULT:      -2.5      2.583      4.593
  Name = 
  20 active torsions:
  status: ('A' for Active; 'I' for Inactive)
    1  A    between atoms: C_1  and  C_14
    2  A    between atoms: C_1  and  C_15
    3  A    between atoms: C_2  and  O_18
    4  A    between atoms: C_2  and  O_21
    5  A    between atoms: C_3  and  C_20
    6  A    between atoms: C_4  and  C_14
    7  A    between atoms: C_4  and  N_29
    8  A    between atoms: C_6  and  C_43
    9  A    between atoms: C_9  and  O_18
   10  A    between atoms: C_12  and  C_43
   11  A    between atoms: C_19  and  C_50
   12  A    between atoms: C_20  and  N_40
   13  A    between atoms: O_21  and  C_52
   14  A    between atoms: N_23  and  C_51
   15  A    between atoms: C_25  and  C_39
   16  A    between atoms: O_28  and  C_36
   17  A    between atoms: O_28  and  C_43
   18  A    between atoms: C_33  and  C_48
   19  A    between atoms: C_42  and  C_51
   20  A    between atoms: C_48  and  C_50
                            x       y       z     vdW  Elec       q    Type
                         _______ _______ _______ _____ _____    ______ ____

>  <TORSDO>
F 20

$$$$
=
 OpenBabel11072411473D

 53 59  0  0  1  0  0  0  0  0999 V2000
  162.0170  206.4080  152.4630 C   0  0  0  0  0  0  0  0  0  0  0  0
  160.8070  205.9190  154.4710 N   0  0  0  0  0  0  0  0  0  0  0  0
  160.7610  208.1440  153.6030 C   0  0  0  0  0  3  0  0  0  0  0  0
  160.3730  207.2080  154.5640 C   0  0  0  0  0  0  0  0  0  0  0  0
  161.5890  207.7370  152.5510 C   0  0  0  0  0  3  0  0  0  0  0  0
  161.6050  205.5070  153.4500 C   0  0  0  0  0  3  0  0  0  0  0  0
  159.4700  207.6000  155.6820 C   0  0  0  0  0  2  0  0  0  0  0  0
  159.0690  209.0730  155.5920 C   0  0  0  0  0  2  0  0  0  0  0  0
  159.4060  212.2420  156.4510 C   0  0  2  0  0  3  0  0  0  0  0  0
  160.8030  210.9280  155.2320 C   0  0  1  0  0  0  0  0  0  0  0  0
  160.5230  212.2670  155.5860 O   0  0  0  0  0  0  0  0  0  0  0  0
  160.1080  209.9920  156.2390 C   0  0  1  0  0  3  0  0  0  0  0  0
  159.4560  210.9360  157.2110 C   0  0  0  0  0  2  0  0  0  0  0  0
  160.3490  210.7120  153.9250 O   0  0  0  0  0  1  0  0  0  0  0  0
  162.1670  210.7150  155.2720 F   0  0  0  0  0  0  0  0  0  0  0  0
  158.0560  212.3430  155.6990 C   0  0  2  0  0  3  0  0  0  0  0  0
  158.1620  212.1380  153.2180 C   0  0  2  0  0  3  0  0  0  0  0  0
  156.8350  214.4530  152.3890 S   0  0  0  0  0  0  0  0  0  0  0  0
  158.1840  213.1260  154.3800 C   0  0  1  0  0  3  0  0  0  0  0  0
  158.8420  212.6810  152.0540 N   0  0  0  0  0  2  0  0  0  0  0  0
  158.1830  213.7800  151.4540 C   0  0  0  0  0  0  0  0  0  0  0  0
  156.9390  213.0100  153.5120 C   0  0  2  0  0  3  0  0  0  0  0  0
  158.7290  214.4470  150.4460 C   0  0  0  0  0  2  0  0  0  0  0  0
  157.0970  212.9600  156.5630 O   0  0  0  0  0  0  0  0  0  0  0  0
  154.8560  213.5170  156.7290 O   0  0  0  0  0  0  0  0  0  0  0  0
  155.7360  212.6370  156.5390 C   0  0  0  0  0  0  0  0  0  0  0  0
  155.3350  211.2860  156.3340 N   0  0  0  0  0  1  0  0  0  0  0  0
  162.8290  205.9030  151.3150 C   0  0  0  0  0  2  0  0  0  0  0  0
  161.3490  206.2340  149.5220 C   0  0  2  0  0  3  0  0  0  0  0  0
  161.9950  205.1970  150.3460 N   0  0  0  0  0  0  0  0  0  0  0  0
  160.5960  205.5790  150.5970 C   0  0  0  0  0  2  0  0  0  0  0  0
  160.3940  206.1600  144.7890 O   0  0  0  0  0  0  0  0  0  0  0  0
  162.4270  204.5330  147.6020 S   0  0  0  0  0  0  0  0  0  0  0  0
  161.8550  204.7350  145.9420 N   0  0  0  0  0  0  0  0  0  0  0  0
  160.7530  206.5390  147.0780 N   0  0  0  0  0  0  0  0  0  0  0  0
  160.9760  205.8400  145.8600 C   0  0  0  0  0  0  0  0  0  0  0  0
  161.0610  205.6080  148.1630 C   0  0  2  0  0  3  0  0  0  0  0  0
  161.7860  203.6230  145.0120 C   0  0  0  0  0  2  0  0  0  0  0  0
  158.8050  201.8940  146.4980 O   0  0  0  0  0  1  0  0  0  0  0  0
  160.3810  203.0410  145.0090 C   0  0  1  0  0  3  0  0  0  0  0  0
  160.4620  201.6400  144.8410 O   0  0  0  0  0  0  0  0  0  0  0  0
  160.1460  202.1010  146.1310 C   0  0  2  0  0  0  0  0  0  0  0  0
  161.1660  201.9240  147.0950 O   0  0  0  0  0  0  0  0  0  0  0  0
  161.0790  200.6560  147.7240 C   0  0  1  0  0  3  0  0  0  0  0  0
  161.4360  199.5230  146.7610 C   0  0  0  0  0  1  0  0  0  0  0  0
  161.8330  200.5740  148.9060 O   0  0  0  0  0  0  0  0  0  0  0  0
  160.9120  200.7960  149.9330 C   0  0  0  0  0  2  0  0  0  0  0  0
  160.7660  202.2950  150.1480 C   0  0  0  0  0  1  0  0  0  0  0  0
  161.0960  207.9670  147.1690 C   0  0  0  0  0  2  0  0  0  0  0  0
  162.2090  208.2240  148.1780 C   0  0  0  0  0  2  0  0  0  0  0  0
  161.7890  209.3670  149.0900 C   0  0  0  0  0  2  0  0  0  0  0  0
  162.1560  210.6870  148.4950 C   0  0  0  0  0  3  0  0  0  0  0  0
  161.7720  211.9250  149.1240 S   0  0  0  0  0  0  0  0  0  0  0  0
  1  5  2  0  0  0  0
  1  6  1  0  0  0  0
  2  4  1  0  0  0  0
  3  4  2  0  0  0  0
  4  7  1  0  0  0  0
  5  3  1  0  0  0  0
  6  2  2  0  0  0  0
  8  7  1  0  0  0  0
  9 16  1  6  0  0  0
  9 13  1  0  0  0  0
 10 14  1  6  0  0  0
 10 15  1  0  0  0  0
 10 11  1  0  0  0  0
 10 12  1  0  0  0  0
 11  9  1  0  0  0  0
 12  8  1  6  0  0  0
 12 13  1  0  0  0  0
 16 24  1  1  0  0  0
 17 20  1  6  0  0  0
 17 22  1  0  0  0  0
 17 19  1  0  0  0  0
 19 16  1  1  0  0  0
 21 20  1  0  0  0  0
 21 18  1  0  0  0  0
 22 18  1  6  0  0  0
 22 19  1  0  0  0  0
 23 21  2  0  0  0  0
 26 24  1  0  0  0  0
 26 25  2  0  0  0  0
 27 26  1  0  0  0  0
 28  1  1  0  0  0  0
 29 30  1  0  0  0  0
 29 31  1  1  0  0  0
 30 31  1  0  0  0  0
 30 28  1  0  0  0  0
 32 36  2  0  0  0  0
 34 33  1  0  0  0  0
 35 49  1  0  0  0  0
 35 37  1  0  0  0  0
 36 34  1  0  0  0  0
 36 35  1  0  0  0  0
 37 33  1  6  0  0  0
 37 29  1  0  0  0  0
 38 34  1  0  0  0  0
 40 38  1  1  0  0  0
 40 42  1  0  0  0  0
 41 40  1  0  0  0  0
 41 42  1  0  0  0  0
 42 39  1  1  0  0  0
 42 43  1  0  0  0  0
 43 44  1  0  0  0  0
 44 45  1  6  0  0  0
 44 46  1  0  0  0  0
 46 47  1  0  0  0  0
 47 48  1  0  0  0  0
 49 50  1  0  0  0  0
 50 51  1  0  0  0  0
 52 51  1  0  0  0  0
 52 53  2  0  0  0  0
M  END
>  <MODEL>
5

>  <REMARK>
 VINA RESULT:      -1.8      5.761     11.912
  Name = 
  20 active torsions:
  status: ('A' for Active; 'I' for Inactive)
    1  A    between atoms: C_1  and  C_14
    2  A    between atoms: C_1  and  C_15
    3  A    between atoms: C_2  and  O_18
    4  A    between atoms: C_2  and  O_21
    5  A    between atoms: C_3  and  C_20
    6  A    between atoms: C_4  and  C_14
    7  A    between atoms: C_4  and  N_29
    8  A    between atoms: C_6  and  C_43
    9  A    between atoms: C_9  and  O_18
   10  A    between atoms: C_12  and  C_43
   11  A    between atoms: C_19  and  C_50
   12  A    between atoms: C_20  and  N_40
   13  A    between atoms: O_21  and  C_52
   14  A    between atoms: N_23  and  C_51
   15  A    between atoms: C_25  and  C_39
   16  A    between atoms: O_28  and  C_36
   17  A    between atoms: O_28  and  C_43
   18  A    between atoms: C_33  and  C_48
   19  A    between atoms: C_42  and  C_51
   20  A    between atoms: C_48  and  C_50
                            x       y       z     vdW  Elec       q    Type
                         _______ _______ _______ _____ _____    ______ ____

>  <TORSDO>
F 20

$$$$
=
 OpenBabel11072411473D

 53 59  0  0  1  0  0  0  0  0999 V2000
  161.7560  205.8370  142.8650 C   0  0  0  0  0  0  0  0  0  0  0  0
  162.6920  205.8300  145.0690 N   0  0  0  0  0  0  0  0  0  0  0  0
  160.5980  204.7430  144.6960 C   0  0  0  0  0  3  0  0  0  0  0  0
  161.6370  205.1130  145.5510 C   0  0  0  0  0  0  0  0  0  0  0  0
  160.6620  205.1110  143.3470 C   0  0  0  0  0  3  0  0  0  0  0  0
  162.7720  206.1870  143.7590 C   0  0  0  0  0  3  0  0  0  0  0  0
  161.6150  204.7150  146.9870 C   0  0  0  0  0  2  0  0  0  0  0  0
  161.2000  205.8790  147.8880 C   0  0  0  0  0  2  0  0  0  0  0  0
  162.6710  206.9280  150.6500 C   0  0  2  0  0  3  0  0  0  0  0  0
  161.9940  208.1230  148.8400 C   0  0  1  0  0  0  0  0  0  0  0  0
  162.4190  208.2370  150.1830 O   0  0  0  0  0  0  0  0  0  0  0  0
  162.3970  206.7350  148.3070 C   0  0  1  0  0  3  0  0  0  0  0  0
  163.1260  206.1080  149.4630 C   0  0  0  0  0  2  0  0  0  0  0  0
  160.6080  208.3130  148.7970 O   0  0  0  0  0  1  0  0  0  0  0  0
  162.6030  209.1020  148.0790 F   0  0  0  0  0  0  0  0  0  0  0  0
  161.4260  206.2600  151.2830 C   0  0  2  0  0  3  0  0  0  0  0  0
  161.4920  206.6890  153.7360 C   0  0  2  0  0  3  0  0  0  0  0  0
  161.0270  209.4420  153.8560 S   0  0  0  0  0  0  0  0  0  0  0  0
  160.8330  207.1050  152.4250 C   0  0  1  0  0  3  0  0  0  0  0  0
  160.6300  206.9730  154.8710 N   0  0  0  0  0  0  0  0  0  0  0  0
  160.4330  208.3520  155.1220 C   0  0  0  0  0  0  0  0  0  0  0  0
  161.8670  208.0160  153.0710 C   0  0  2  0  0  3  0  0  0  0  0  0
  159.5930  208.7700  156.0600 C   0  0  0  0  0  1  0  0  0  0  0  0
  161.7940  204.9590  151.7530 O   0  0  0  0  0  0  0  0  0  0  0  0
  160.8330  202.9520  152.3880 O   0  0  0  0  0  0  0  0  0  0  0  0
  161.0310  203.8160  151.4950 C   0  0  0  0  0  0  0  0  0  0  0  0
  160.4990  203.6020  150.1910 N   0  0  0  0  0  1  0  0  0  0  0  0
  161.9140  206.1800  141.4190 C   0  0  0  0  0  2  0  0  0  0  0  0
  161.6290  207.7630  139.7080 C   0  0  2  0  0  3  0  0  0  0  0  0
  161.5960  207.5830  141.1700 N   0  0  0  0  0  0  0  0  0  0  0  0
  162.7670  208.1990  140.5240 C   0  0  0  0  0  2  0  0  0  0  0  0
  160.3870  212.1700  138.1730 O   0  0  0  0  0  0  0  0  0  0  0  0
  159.4550  208.4520  138.1150 S   0  0  0  0  0  0  0  0  0  0  0  0
  159.2490  210.1670  137.7400 N   0  0  0  0  0  0  0  0  0  0  0  0
  161.3240  210.1600  138.9460 N   0  0  0  0  0  0  0  0  0  0  0  0
  160.3290  210.9140  138.2650 C   0  0  0  0  0  0  0  0  0  0  0  0
  160.6890  208.9160  139.3780 C   0  0  2  0  0  3  0  0  0  0  0  0
  157.9390  210.7530  137.5200 C   0  0  0  0  0  2  0  0  0  0  0  0
  155.9360  212.9810  139.7800 O   0  0  0  0  0  1  0  0  0  0  0  0
  157.7220  211.9070  138.4870 C   0  0  1  0  0  3  0  0  0  0  0  0
  157.1840  213.0060  137.7800 O   0  0  0  0  0  0  0  0  0  0  0  0
  156.2970  212.2940  138.6070 C   0  0  2  0  0  0  0  0  0  0  0  0
  155.3230  211.5300  137.9230 O   0  0  0  0  0  0  0  0  0  0  0  0
  154.3570  210.9940  138.8110 C   0  0  1  0  0  3  0  0  0  0  0  0
  153.2050  211.9720  139.0470 C   0  0  0  0  0  1  0  0  0  0  0  0
  153.8790  209.7350  138.4120 O   0  0  0  0  0  0  0  0  0  0  0  0
  154.4770  208.8310  139.2940 C   0  0  0  0  0  2  0  0  0  0  0  0
  154.9300  207.6070  138.5140 C   0  0  0  0  0  1  0  0  0  0  0  0
  162.7130  210.1880  138.4620 C   0  0  0  0  0  2  0  0  0  0  0  0
  163.4350  211.4660  138.8720 C   0  0  0  0  0  2  0  0  0  0  0  0
  163.0450  211.8150  140.3000 C   0  0  0  0  0  2  0  0  0  0  0  0
  162.6950  213.2620  140.4200 C   0  0  0  0  0  3  0  0  0  0  0  0
  163.7040  214.2870  140.3310 S   0  0  0  0  0  0  0  0  0  0  0  0
  1  5  2  0  0  0  0
  1  6  1  0  0  0  0
  2  4  1  0  0  0  0
  3  4  2  0  0  0  0
  4  7  1  0  0  0  0
  5  3  1  0  0  0  0
  6  2  2  0  0  0  0
  7  8  1  0  0  0  0
  9 16  1  6  0  0  0
 10 15  1  6  0  0  0
 10 11  1  0  0  0  0
 11  9  1  0  0  0  0
 12  8  1  1  0  0  0
 12 10  1  0  0  0  0
 12 13  1  0  0  0  0
 13  9  1  0  0  0  0
 14 10  1  0  0  0  0
 16 24  1  1  0  0  0
 17 20  1  1  0  0  0
 18 21  1  0  0  0  0
 19 16  1  6  0  0  0
 19 22  1  0  0  0  0
 19 17  1  0  0  0  0
 20 21  2  0  0  0  0
 21 23  1  0  0  0  0
 22 17  1  0  0  0  0
 22 18  1  1  0  0  0
 26 24  1  0  0  0  0
 26 25  2  0  0  0  0
 27 26  1  0  0  0  0
 28  1  1  0  0  0  0
 29 31  1  1  0  0  0
 29 30  1  0  0  0  0
 30 28  1  0  0  0  0
 31 30  1  0  0  0  0
 32 36  2  0  0  0  0
 34 33  1  0  0  0  0
 34 36  1  0  0  0  0
 35 37  1  0  0  0  0
 36 35  1  0  0  0  0
 37 33  1  6  0  0  0
 37 29  1  0  0  0  0
 38 34  1  0  0  0  0
 40 38  1  6  0  0  0
 40 42  1  0  0  0  0
 41 40  1  0  0  0  0
 41 42  1  0  0  0  0
 42 39  1  1  0  0  0
 43 42  1  0  0  0  0
 43 44  1  0  0  0  0
 44 45  1  6  0  0  0
 46 44  1  0  0  0  0
 46 47  1  0  0  0  0
 48 47  1  0  0  0  0
 49 50  1  0  0  0  0
 49 35  1  0  0  0  0
 50 51  1  0  0  0  0
 51 52  1  0  0  0  0
 53 52  2  0  0  0  0
M  END
>  <MODEL>
6

>  <REMARK>
 VINA RESULT:      -1.1      3.290     12.934
  Name = 
  20 active torsions:
  status: ('A' for Active; 'I' for Inactive)
    1  A    between atoms: C_1  and  C_14
    2  A    between atoms: C_1  and  C_15
    3  A    between atoms: C_2  and  O_18
    4  A    between atoms: C_2  and  O_21
    5  A    between atoms: C_3  and  C_20
    6  A    between atoms: C_4  and  C_14
    7  A    between atoms: C_4  and  N_29
    8  A    between atoms: C_6  and  C_43
    9  A    between atoms: C_9  and  O_18
   10  A    between atoms: C_12  and  C_43
   11  A    between atoms: C_19  and  C_50
   12  A    between atoms: C_20  and  N_40
   13  A    between atoms: O_21  and  C_52
   14  A    between atoms: N_23  and  C_51
   15  A    between atoms: C_25  and  C_39
   16  A    between atoms: O_28  and  C_36
   17  A    between atoms: O_28  and  C_43
   18  A    between atoms: C_33  and  C_48
   19  A    between atoms: C_42  and  C_51
   20  A    between atoms: C_48  and  C_50
                            x       y       z     vdW  Elec       q    Type
                         _______ _______ _______ _____ _____    ______ ____

>  <TORSDO>
F 20

$$$$
=
 OpenBabel11072411473D

 53 59  0  0  1  0  0  0  0  0999 V2000
  162.1370  205.4690  144.7050 C   0  0  0  0  0  0  0  0  0  0  0  0
  163.0450  206.5340  142.7620 N   0  0  0  0  0  0  0  0  0  0  0  0
  160.9200  205.4550  142.6050 C   0  0  0  0  0  3  0  0  0  0  0  0
  161.9560  206.1860  142.0200 C   0  0  0  0  0  0  0  0  0  0  0  0
  161.0180  205.0960  143.9540 C   0  0  0  0  0  3  0  0  0  0  0  0
  163.1500  206.1990  144.0760 C   0  0  0  0  0  3  0  0  0  0  0  0
  161.8730  206.6090  140.5940 C   0  0  0  0  0  2  0  0  0  0  0  0
  161.9400  208.1300  140.4530 C   0  0  0  0  0  2  0  0  0  0  0  0
  162.1000  210.8380  138.5720 C   0  0  2  0  0  3  0  0  0  0  0  0
  160.3010  209.5450  139.0780 C   0  0  1  0  0  0  0  0  0  0  0  0
  160.6880  210.7920  138.5390 O   0  0  0  0  0  0  0  0  0  0  0  0
  161.5150  208.5960  139.0580 C   0  0  1  0  0  3  0  0  0  0  0  0
  162.5980  209.4180  138.4150 C   0  0  0  0  0  2  0  0  0  0  0  0
  159.8270  209.7530  140.3790 O   0  0  0  0  0  1  0  0  0  0  0  0
  159.2860  209.0060  138.3130 F   0  0  0  0  0  0  0  0  0  0  0  0
  162.6570  211.4310  139.8890 C   0  0  2  0  0  3  0  0  0  0  0  0
  162.1220  212.4600  142.0940 C   0  0  2  0  0  3  0  0  0  0  0  0
  159.4480  213.1970  141.7560 S   0  0  0  0  0  0  0  0  0  0  0  0
  161.5560  211.6320  140.9450 C   0  0  1  0  0  3  0  0  0  0  0  0
  161.4020  212.2050  143.3300 N   0  0  0  0  0  0  0  0  0  0  0  0
  160.0640  212.6670  143.3310 C   0  0  0  0  0  0  0  0  0  0  0  0
  161.1520  213.0920  141.0930 C   0  0  2  0  0  3  0  0  0  0  0  0
  159.2490  212.4200  144.3480 C   0  0  0  0  0  1  0  0  0  0  0  0
  163.3070  212.6710  139.5920 O   0  0  0  0  0  0  0  0  0  0  0  0
  165.3190  211.7720  138.8830 O   0  0  0  0  0  0  0  0  0  0  0  0
  164.5200  212.7440  138.9000 C   0  0  0  0  0  0  0  0  0  0  0  0
  164.8790  213.9500  138.2330 N   0  0  0  0  0  1  0  0  0  0  0  0
  162.2500  205.1860  146.1680 C   0  0  0  0  0  2  0  0  0  0  0  0
  160.7030  205.6810  147.8650 C   0  0  2  0  0  3  0  0  0  0  0  0
  161.7020  206.2820  146.9630 N   0  0  0  0  0  0  0  0  0  0  0  0
  160.2670  206.3850  146.6550 C   0  0  0  0  0  2  0  0  0  0  0  0
  160.9750  206.7790  152.5590 O   0  0  0  0  0  0  0  0  0  0  0  0
  161.7930  207.9710  149.0090 S   0  0  0  0  0  0  0  0  0  0  0  0
  161.7200  208.0980  150.7700 N   0  0  0  0  0  0  0  0  0  0  0  0
  160.8280  205.9030  150.3850 N   0  0  0  0  0  0  0  0  0  0  0  0
  161.1770  206.9140  151.3230 C   0  0  0  0  0  0  0  0  0  0  0  0
  160.6250  206.5690  149.1000 C   0  0  2  0  0  3  0  0  0  0  0  0
  161.6240  209.3790  151.4450 C   0  0  0  0  0  2  0  0  0  0  0  0
  160.2200  209.5400  154.9210 O   0  0  0  0  0  1  0  0  0  0  0  0
  161.6330  209.1700  152.9510 C   0  0  1  0  0  3  0  0  0  0  0  0
  161.9660  210.3890  153.5840 O   0  0  0  0  0  0  0  0  0  0  0  0
  160.6190  209.9920  153.6510 C   0  0  2  0  0  0  0  0  0  0  0  0
  159.7260  210.7740  152.8810 O   0  0  0  0  0  0  0  0  0  0  0  0
  158.9580  211.6470  153.6930 C   0  0  1  0  0  3  0  0  0  0  0  0
  159.0880  213.1010  153.2370 C   0  0  0  0  0  1  0  0  0  0  0  0
  157.6100  211.2650  153.7910 O   0  0  0  0  0  0  0  0  0  0  0  0
  157.1070  212.0050  154.8630 C   0  0  0  0  0  2  0  0  0  0  0  0
  157.7910  211.5460  156.1430 C   0  0  0  0  0  1  0  0  0  0  0  0
  161.4670  204.5800  150.4740 C   0  0  0  0  0  2  0  0  0  0  0  0
  160.5930  203.5730  151.2130 C   0  0  0  0  0  2  0  0  0  0  0  0
  160.8300  202.1920  150.6210 C   0  0  0  0  0  2  0  0  0  0  0  0
  160.5460  202.1840  149.1540 C   0  0  0  0  0  3  0  0  0  0  0  0
  161.1460  201.2110  148.2790 S   0  0  0  0  0  0  0  0  0  0  0  0
  1 28  1  0  0  0  0
  2  6  2  0  0  0  0
  3  5  1  0  0  0  0
  4  3  2  0  0  0  0
  4  2  1  0  0  0  0
  5  1  2  0  0  0  0
  6  1  1  0  0  0  0
  7  4  1  0  0  0  0
  8  7  1  0  0  0  0
  9 16  1  1  0  0  0
 10 15  1  6  0  0  0
 10 14  1  0  0  0  0
 11  9  1  0  0  0  0
 11 10  1  0  0  0  0
 12 10  1  0  0  0  0
 12  8  1  1  0  0  0
 13  9  1  0  0  0  0
 13 12  1  0  0  0  0
 16 24  1  6  0  0  0
 17 20  1  1  0  0  0
 18 21  1  0  0  0  0
 19 16  1  6  0  0  0
 19 22  1  0  0  0  0
 19 17  1  0  0  0  0
 20 21  2  0  0  0  0
 21 23  1  0  0  0  0
 22 18  1  1  0  0  0
 22 17  1  0  0  0  0
 25 26  2  0  0  0  0
 26 24  1  0  0  0  0
 27 26  1  0  0  0  0
 28 30  1  0  0  0  0
 29 31  1  6  0  0  0
 29 37  1  0  0  0  0
 30 29  1  0  0  0  0
 31 30  1  0  0  0  0
 33 34  1  0  0  0  0
 34 36  1  0  0  0  0
 34 38  1  0  0  0  0
 35 49  1  0  0  0  0
 35 36  1  0  0  0  0
 36 32  2  0  0  0  0
 37 33  1  6  0  0  0
 37 35  1  0  0  0  0
 40 38  1  6  0  0  0
 40 41  1  0  0  0  0
 40 42  1  0  0  0  0
 41 42  1  0  0  0  0
 42 39  1  1  0  0  0
 43 42  1  0  0  0  0
 43 44  1  0  0  0  0
 44 45  1  6  0  0  0
 44 46  1  0  0  0  0
 46 47  1  0  0  0  0
 47 48  1  0  0  0  0
 49 50  1  0  0  0  0
 51 50  1  0  0  0  0
 52 51  1  0  0  0  0
 53 52  2  0  0  0  0
M  END
>  <MODEL>
7

>  <REMARK>
 VINA RESULT:      -0.9      1.989      2.833
  Name = 
  20 active torsions:
  status: ('A' for Active; 'I' for Inactive)
    1  A    between atoms: C_1  and  C_14
    2  A    between atoms: C_1  and  C_15
    3  A    between atoms: C_2  and  O_18
    4  A    between atoms: C_2  and  O_21
    5  A    between atoms: C_3  and  C_20
    6  A    between atoms: C_4  and  C_14
    7  A    between atoms: C_4  and  N_29
    8  A    between atoms: C_6  and  C_43
    9  A    between atoms: C_9  and  O_18
   10  A    between atoms: C_12  and  C_43
   11  A    between atoms: C_19  and  C_50
   12  A    between atoms: C_20  and  N_40
   13  A    between atoms: O_21  and  C_52
   14  A    between atoms: N_23  and  C_51
   15  A    between atoms: C_25  and  C_39
   16  A    between atoms: O_28  and  C_36
   17  A    between atoms: O_28  and  C_43
   18  A    between atoms: C_33  and  C_48
   19  A    between atoms: C_42  and  C_51
   20  A    between atoms: C_48  and  C_50
                            x       y       z     vdW  Elec       q    Type
                         _______ _______ _______ _____ _____    ______ ____

>  <TORSDO>
F 20

$$$$
