=
 OpenBabel11072411433D

 49 53  0  0  1  0  0  0  0  0999 V2000
  160.9300  212.2700  148.2080 C   0  0  2  0  0  3  0  0  0  0  0  0
  160.5930  212.8410  146.8770 N   0  0  0  0  0  0  0  0  0  0  0  0
  160.8180  213.7220  148.0410 C   0  0  1  0  0  3  0  0  0  0  0  0
  162.7210  210.5970  148.7550 C   0  0  0  0  0  3  0  0  0  0  0  0
  162.3750  211.8350  148.3590 C   0  0  0  0  0  3  0  0  0  0  0  0
  161.7000  209.5680  149.1530 C   0  0  0  0  0  2  0  0  0  0  0  0
  161.9130  208.3200  148.3220 C   0  0  0  0  0  2  0  0  0  0  0  0
  160.8920  207.2440  148.6820 C   0  0  0  0  0  2  0  0  0  0  0  0
  162.8050  205.9620  147.7480 C   0  0  0  0  0  1  0  0  0  0  0  0
  161.3870  205.8240  148.2820 C   0  0  1  0  0  0  0  0  0  0  0  0
  161.5480  204.8990  149.5180 C   0  0  2  0  0  3  0  0  0  0  0  0
  160.5000  203.8680  149.6830 C   0  0  2  0  0  3  0  0  0  0  0  0
  160.4840  205.0510  150.4370 O   0  0  0  0  0  0  0  0  0  0  0  0
  161.0790  202.7380  150.5080 C   0  0  0  0  0  2  0  0  0  0  0  0
  161.4880  201.0300  148.3270 N   0  0  0  0  0  1  0  0  0  0  0  0
  159.1500  201.4270  149.3090 O   0  0  0  0  0  0  0  0  0  0  0  0
  160.5630  201.1680  149.8040 S   0  0  2  0  0  0  0  0  0  0  0  0
  160.6260  205.2110  147.2400 O   0  0  0  0  0  0  0  0  0  0  0  0
  161.1460  205.5240  145.9670 C   0  0  0  0  0  3  0  0  0  0  0  0
  161.2490  204.3520  145.2170 O   0  0  0  0  0  1  0  0  0  0  0  0
  160.2690  206.4000  145.3220 O   0  0  0  0  0  1  0  0  0  0  0  0
  161.7010  212.9330  146.0980 O   0  0  0  0  0  0  0  0  0  0  0  0
  161.2590  213.5410  144.9200 C   0  0  0  0  0  2  0  0  0  0  0  0
  161.8090  212.5820  142.6240 C   0  0  0  0  0  0  0  0  0  0  0  0
  161.0850  212.5460  143.8620 N   0  0  0  0  0  2  0  0  0  0  0  0
  162.8020  213.3560  142.4840 O   0  0  0  0  0  0  0  0  0  0  0  0
  161.4200  211.6850  141.5300 C   0  0  0  0  0  0  0  0  0  0  0  0
  160.2000  211.3630  141.3730 O   0  0  0  0  0  0  0  0  0  0  0  0
  162.4510  211.1740  140.5600 C   0  0  0  0  0  1  0  0  0  0  0  0
  159.4760  214.1620  148.5940 C   0  0  0  0  0  2  0  0  0  0  0  0
  159.4880  214.1380  150.1170 C   0  0  0  0  0  2  0  0  0  0  0  0
  158.2600  213.4470  150.6310 C   0  0  0  0  0  3  0  0  0  0  0  0
  158.1560  212.9190  151.8580 C   0  0  0  0  0  3  0  0  0  0  0  0
  159.2270  212.9350  152.9240 C   0  0  1  0  0  3  0  0  0  0  0  0
  159.2730  213.7570  155.1530 O   0  0  0  0  0  0  0  0  0  0  0  0
  158.6970  213.0780  154.3280 C   0  0  0  0  0  0  0  0  0  0  0  0
  157.3850  212.0550  156.1470 C   0  0  0  0  0  1  0  0  0  0  0  0
  157.3920  212.4350  154.6880 C   0  0  0  0  0  2  0  0  0  0  0  0
  160.2460  211.8030  152.7450 C   0  0  0  0  0  2  0  0  0  0  0  0
  161.3290  209.7540  153.8200 C   0  0  1  0  0  0  0  0  0  0  0  0
  160.4700  209.4680  156.6750 C   0  0  0  0  0  2  0  0  0  0  0  0
  161.1060  210.7980  156.2090 C   0  0  2  0  0  3  0  0  0  0  0  0
  161.6080  210.9690  154.7340 C   0  0  2  0  0  0  0  0  0  0  0  0
  159.5390  207.2900  156.1060 N   0  0  0  0  0  1  0  0  0  0  0  0
  159.9030  208.5870  155.5630 C   0  0  2  0  0  3  0  0  0  0  0  0
  160.2840  210.8370  153.9400 C   0  0  1  0  0  3  0  0  0  0  0  0
  162.4960  210.4220  155.8570 C   0  0  0  0  0  2  0  0  0  0  0  0
  162.1980  209.7010  152.5670 C   0  0  0  0  0  1  0  0  0  0  0  0
  160.9320  208.4100  154.4480 C   0  0  0  0  0  2  0  0  0  0  0  0
  1  5  1  6  0  0  0
  2  3  1  0  0  0  0
  2  1  1  0  0  0  0
  3  1  1  0  0  0  0
  3 30  1  1  0  0  0
  4  6  1  0  0  0  0
  5  4  2  0  0  0  0
  7  8  1  0  0  0  0
  7  6  1  0  0  0  0
 10  9  1  6  0  0  0
 10  8  1  0  0  0  0
 11 10  1  6  0  0  0
 11 12  1  0  0  0  0
 11 13  1  0  0  0  0
 12 13  1  0  0  0  0
 12 14  1  1  0  0  0
 16 17  2  0  0  0  0
 17 15  1  6  0  0  0
 17 14  1  0  0  0  0
 18 10  1  0  0  0  0
 19 18  1  0  0  0  0
 20 19  1  0  0  0  0
 21 19  1  0  0  0  0
 22  2  1  0  0  0  0
 23 22  1  0  0  0  0
 24 25  1  0  0  0  0
 25 23  1  0  0  0  0
 26 24  2  0  0  0  0
 27 24  1  0  0  0  0
 28 27  2  0  0  0  0
 29 27  1  0  0  0  0
 30 31  1  0  0  0  0
 31 32  1  0  0  0  0
 32 33  2  0  0  0  0
 34 33  1  6  0  0  0
 34 36  1  0  0  0  0
 36 38  1  0  0  0  0
 36 35  2  0  0  0  0
 38 37  1  0  0  0  0
 39 34  1  0  0  0  0
 40 48  1  6  0  0  0
 40 46  1  0  0  0  0
 40 49  1  0  0  0  0
 40 43  1  0  0  0  0
 42 47  1  1  0  0  0
 42 41  1  0  0  0  0
 43 47  1  6  0  0  0
 43 42  1  0  0  0  0
 45 44  1  1  0  0  0
 45 41  1  0  0  0  0
 46 39  1  6  0  0  0
 46 43  1  0  0  0  0
 49 45  1  0  0  0  0
M  END
>  <MODEL>
1

>  <REMARK>
 VINA RESULT:      -5.8      0.000      0.000
  Name = 
  22 active torsions:
  status: ('A' for Active; 'I' for Inactive)
    1  A    between atoms: C_1  and  C_15
    2  A    between atoms: C_1  and  C_26
    3  A    between atoms: C_2  and  C_20
    4  A    between atoms: C_2  and  C_38
    5  A    between atoms: C_2  and  C_39
    6  A    between atoms: C_3  and  O_19
    7  A    between atoms: C_3  and  N_46
    8  A    between atoms: C_4  and  C_45
    9  A    between atoms: C_6  and  C_28
   10  A    between atoms: C_6  and  C_34
   11  A    between atoms: C_7  and  C_35
   12  A    between atoms: C_7  and  S_40
   13  A    between atoms: C_9  and  C_25
   14  A    between atoms: C_11  and  C_42
   15  A    between atoms: C_13  and  C_28
   16  A    between atoms: C_15  and  C_31
   17  A    between atoms: N_16  and  O_19
   18  A    between atoms: C_22  and  O_36
   19  A    between atoms: C_26  and  C_45
   20  A    between atoms: C_29  and  C_39
   21  A    between atoms: C_32  and  C_38
   22  A    between atoms: O_36  and  C_45
                            x       y       z     vdW  Elec       q    Type
                         _______ _______ _______ _____ _____    ______ ____

>  <TORSDO>
F 22

$$$$
=
 OpenBabel11072411433D

 49 53  0  0  1  0  0  0  0  0999 V2000
  161.1670  209.6010  152.0400 C   0  0  2  0  0  3  0  0  0  0  0  0
  160.4340  210.1600  153.2070 N   0  0  0  0  0  0  0  0  0  0  0  0
  161.2570  208.9410  153.3450 C   0  0  1  0  0  3  0  0  0  0  0  0
  162.6480  210.9240  150.5020 C   0  0  0  0  0  3  0  0  0  0  0  0
  162.4500  210.3310  151.6940 C   0  0  0  0  0  3  0  0  0  0  0  0
  161.6410  210.8420  149.3900 C   0  0  0  0  0  2  0  0  0  0  0  0
  161.8820  211.9860  148.4260 C   0  0  0  0  0  2  0  0  0  0  0  0
  160.7780  212.0560  147.3750 C   0  0  0  0  0  2  0  0  0  0  0  0
  161.0290  214.4260  148.0750 C   0  0  0  0  0  1  0  0  0  0  0  0
  160.4250  213.5260  147.0070 C   0  0  1  0  0  0  0  0  0  0  0  0
  161.1300  213.9800  145.7010 C   0  0  2  0  0  3  0  0  0  0  0  0
  160.5870  213.4050  144.4510 C   0  0  2  0  0  3  0  0  0  0  0  0
  161.7590  212.9030  145.0350 O   0  0  0  0  0  0  0  0  0  0  0  0
  160.9370  214.3410  143.3130 C   0  0  0  0  0  2  0  0  0  0  0  0
  161.3000  214.4530  140.5390 N   0  0  0  0  0  1  0  0  0  0  0  0
  158.9710  214.1910  141.5840 O   0  0  0  0  0  0  0  0  0  0  0  0
  160.3700  213.6260  141.7660 S   0  0  2  0  0  0  0  0  0  0  0  0
  159.0250  213.8060  146.9940 O   0  0  0  0  0  0  0  0  0  0  0  0
  158.2620  212.6340  147.1790 C   0  0  0  0  0  3  0  0  0  0  0  0
  157.3550  212.8410  148.2180 O   0  0  0  0  0  1  0  0  0  0  0  0
  157.5540  212.3640  146.0060 O   0  0  0  0  0  1  0  0  0  0  0  0
  161.1380  211.1720  153.7780 O   0  0  0  0  0  0  0  0  0  0  0  0
  160.1710  212.1060  154.1610 C   0  0  0  0  0  2  0  0  0  0  0  0
  157.7350  212.0810  154.9070 C   0  0  0  0  0  0  0  0  0  0  0  0
  159.0020  211.4330  154.7260 N   0  0  0  0  0  2  0  0  0  0  0  0
  157.5090  213.2080  154.3740 O   0  0  0  0  0  0  0  0  0  0  0  0
  156.6820  211.4130  155.6810 C   0  0  0  0  0  0  0  0  0  0  0  0
  156.5450  211.6640  156.9200 O   0  0  0  0  0  0  0  0  0  0  0  0
  155.7300  210.4610  155.0090 C   0  0  0  0  0  1  0  0  0  0  0  0
  160.3470  207.7280  153.3280 C   0  0  0  0  0  2  0  0  0  0  0  0
  160.6870  206.8180  152.1550 C   0  0  0  0  0  2  0  0  0  0  0  0
  162.0220  206.1700  152.3750 C   0  0  0  0  0  3  0  0  0  0  0  0
  162.4480  205.0880  151.7100 C   0  0  0  0  0  3  0  0  0  0  0  0
  161.6850  204.3500  150.6350 C   0  0  1  0  0  3  0  0  0  0  0  0
  160.7110  202.9990  152.3300 O   0  0  0  0  0  0  0  0  0  0  0  0
  160.8900  203.1730  151.1420 C   0  0  0  0  0  0  0  0  0  0  0  0
  161.1550  201.0870  149.8560 C   0  0  0  0  0  1  0  0  0  0  0  0
  160.2420  202.2470  150.1580 C   0  0  0  0  0  2  0  0  0  0  0  0
  160.8970  205.2990  149.7220 C   0  0  0  0  0  2  0  0  0  0  0  0
  161.4160  206.0900  147.3500 C   0  0  1  0  0  0  0  0  0  0  0  0
  161.7020  203.7620  145.4870 C   0  0  0  0  0  2  0  0  0  0  0  0
  162.5710  203.8170  146.7640 C   0  0  2  0  0  3  0  0  0  0  0  0
  162.4810  205.0400  147.7400 C   0  0  2  0  0  0  0  0  0  0  0  0
  159.8500  204.6640  144.1850 N   0  0  0  0  0  1  0  0  0  0  0  0
  160.4500  204.6390  145.5070 C   0  0  2  0  0  3  0  0  0  0  0  0
  161.0170  204.9340  148.2340 C   0  0  1  0  0  3  0  0  0  0  0  0
  163.4440  204.9960  146.5490 C   0  0  0  0  0  2  0  0  0  0  0  0
  161.6310  207.4630  147.9800 C   0  0  0  0  0  1  0  0  0  0  0  0
  160.8020  206.0600  145.9420 C   0  0  0  0  0  2  0  0  0  0  0  0
  1  5  1  1  0  0  0
  1  2  1  0  0  0  0
  1  3  1  0  0  0  0
  2  3  1  0  0  0  0
  2 22  1  0  0  0  0
  3 30  1  6  0  0  0
  4  5  2  0  0  0  0
  6  4  1  0  0  0  0
  7  6  1  0  0  0  0
  8  7  1  0  0  0  0
 10  8  1  0  0  0  0
 10  9  1  1  0  0  0
 11 10  1  1  0  0  0
 12 14  1  6  0  0  0
 12 13  1  0  0  0  0
 12 11  1  0  0  0  0
 13 11  1  0  0  0  0
 16 17  2  0  0  0  0
 17 15  1  6  0  0  0
 17 14  1  0  0  0  0
 18 10  1  0  0  0  0
 18 19  1  0  0  0  0
 19 20  1  0  0  0  0
 21 19  1  0  0  0  0
 22 23  1  0  0  0  0
 23 25  1  0  0  0  0
 24 27  1  0  0  0  0
 25 24  1  0  0  0  0
 26 24  2  0  0  0  0
 27 28  2  0  0  0  0
 29 27  1  0  0  0  0
 31 32  1  0  0  0  0
 31 30  1  0  0  0  0
 33 32  2  0  0  0  0
 34 39  1  1  0  0  0
 34 36  1  0  0  0  0
 34 33  1  0  0  0  0
 36 35  2  0  0  0  0
 37 38  1  0  0  0  0
 38 36  1  0  0  0  0
 40 43  1  0  0  0  0
 40 48  1  1  0  0  0
 40 46  1  0  0  0  0
 41 45  1  0  0  0  0
 42 41  1  6  0  0  0
 42 43  1  0  0  0  0
 43 47  1  1  0  0  0
 43 46  1  0  0  0  0
 45 44  1  6  0  0  0
 45 49  1  0  0  0  0
 46 39  1  1  0  0  0
 47 42  1  0  0  0  0
 49 40  1  0  0  0  0
M  END
>  <MODEL>
2

>  <REMARK>
 VINA RESULT:      -5.0      3.592     10.165
  Name = 
  22 active torsions:
  status: ('A' for Active; 'I' for Inactive)
    1  A    between atoms: C_1  and  C_15
    2  A    between atoms: C_1  and  C_26
    3  A    between atoms: C_2  and  C_20
    4  A    between atoms: C_2  and  C_38
    5  A    between atoms: C_2  and  C_39
    6  A    between atoms: C_3  and  O_19
    7  A    between atoms: C_3  and  N_46
    8  A    between atoms: C_4  and  C_45
    9  A    between atoms: C_6  and  C_28
   10  A    between atoms: C_6  and  C_34
   11  A    between atoms: C_7  and  C_35
   12  A    between atoms: C_7  and  S_40
   13  A    between atoms: C_9  and  C_25
   14  A    between atoms: C_11  and  C_42
   15  A    between atoms: C_13  and  C_28
   16  A    between atoms: C_15  and  C_31
   17  A    between atoms: N_16  and  O_19
   18  A    between atoms: C_22  and  O_36
   19  A    between atoms: C_26  and  C_45
   20  A    between atoms: C_29  and  C_39
   21  A    between atoms: C_32  and  C_38
   22  A    between atoms: O_36  and  C_45
                            x       y       z     vdW  Elec       q    Type
                         _______ _______ _______ _____ _____    ______ ____

>  <TORSDO>
F 22

$$$$
=
 OpenBabel11072411433D

 49 53  0  0  1  0  0  0  0  0999 V2000
  162.2430  208.2170  150.2380 C   0  0  2  0  0  3  0  0  0  0  0  0
  162.0600  206.7450  150.3480 N   0  0  0  0  0  0  0  0  0  0  0  0
  160.9140  207.6620  150.5070 C   0  0  1  0  0  3  0  0  0  0  0  0
  162.2970  210.0420  148.5130 C   0  0  0  0  0  3  0  0  0  0  0  0
  162.3550  208.7320  148.8160 C   0  0  0  0  0  3  0  0  0  0  0  0
  162.0400  211.0940  149.5550 C   0  0  0  0  0  2  0  0  0  0  0  0
  161.6960  212.3960  148.8620 C   0  0  0  0  0  2  0  0  0  0  0  0
  161.0450  212.1390  147.5070 C   0  0  0  0  0  2  0  0  0  0  0  0
  159.9540  214.2280  148.2910 C   0  0  0  0  0  1  0  0  0  0  0  0
  159.9040  213.1550  147.2130 C   0  0  1  0  0  0  0  0  0  0  0  0
  160.1550  213.9420  145.8990 C   0  0  2  0  0  3  0  0  0  0  0  0
  160.7410  213.1580  144.7900 C   0  0  2  0  0  3  0  0  0  0  0  0
  161.5300  214.0100  145.5770 O   0  0  0  0  0  0  0  0  0  0  0  0
  160.3800  213.8440  143.4890 C   0  0  0  0  0  2  0  0  0  0  0  0
  160.4080  211.4190  142.0890 N   0  0  0  0  0  1  0  0  0  0  0  0
  162.5740  212.6780  142.6480 O   0  0  0  0  0  0  0  0  0  0  0  0
  161.1790  212.9870  142.1280 S   0  0  2  0  0  0  0  0  0  0  0  0
  158.5920  212.5940  147.2680 O   0  0  0  0  0  0  0  0  0  0  0  0
  157.6530  213.5210  147.7670 C   0  0  0  0  0  3  0  0  0  0  0  0
  156.6950  213.7720  146.7840 O   0  0  0  0  0  1  0  0  0  0  0  0
  157.0230  212.9710  148.8860 O   0  0  0  0  0  1  0  0  0  0  0  0
  161.9400  206.1810  149.1190 O   0  0  0  0  0  0  0  0  0  0  0  0
  160.6660  205.6080  149.1120 C   0  0  0  0  0  2  0  0  0  0  0  0
  161.0970  203.1900  148.4370 C   0  0  0  0  0  0  0  0  0  0  0  0
  160.7410  204.1790  149.4130 N   0  0  0  0  0  2  0  0  0  0  0  0
  161.5840  203.5360  147.3200 O   0  0  0  0  0  0  0  0  0  0  0  0
  160.9350  201.7670  148.7550 C   0  0  0  0  0  0  0  0  0  0  0  0
  160.9100  200.9040  147.8210 O   0  0  0  0  0  0  0  0  0  0  0  0
  160.8410  201.3110  150.1860 C   0  0  0  0  0  1  0  0  0  0  0  0
  160.6200  207.8310  151.9860 C   0  0  0  0  0  2  0  0  0  0  0  0
  161.7350  208.6130  152.6690 C   0  0  0  0  0  2  0  0  0  0  0  0
  161.6300  210.0690  152.3250 C   0  0  0  0  0  3  0  0  0  0  0  0
  161.1510  211.0030  153.1570 C   0  0  0  0  0  3  0  0  0  0  0  0
  160.6560  210.7660  154.5650 C   0  0  1  0  0  3  0  0  0  0  0  0
  161.3920  208.8570  155.7740 O   0  0  0  0  0  0  0  0  0  0  0  0
  161.6200  210.0010  155.4360 C   0  0  0  0  0  0  0  0  0  0  0  0
  163.2890  210.2420  157.2330 C   0  0  0  0  0  1  0  0  0  0  0  0
  162.9200  210.6360  155.8260 C   0  0  0  0  0  2  0  0  0  0  0  0
  160.0960  212.0410  155.2100 C   0  0  0  0  0  2  0  0  0  0  0  0
  158.0270  213.0880  156.2810 C   0  0  1  0  0  0  0  0  0  0  0  0
  155.5230  211.9990  155.0510 C   0  0  0  0  0  2  0  0  0  0  0  0
  156.5970  212.6340  154.1380 C   0  0  2  0  0  3  0  0  0  0  0  0
  157.9000  213.2530  154.7490 C   0  0  2  0  0  0  0  0  0  0  0  0
  154.8770  211.1830  157.2540 N   0  0  0  0  0  1  0  0  0  0  0  0
  156.0120  211.5540  156.4280 C   0  0  2  0  0  3  0  0  0  0  0  0
  158.5690  212.0060  155.3790 C   0  0  1  0  0  3  0  0  0  0  0  0
  156.6120  214.0590  154.5460 C   0  0  0  0  0  2  0  0  0  0  0  0
  159.0030  214.0610  156.9370 C   0  0  0  0  0  1  0  0  0  0  0  0
  156.7960  212.6780  157.1030 C   0  0  0  0  0  2  0  0  0  0  0  0
  1  5  1  6  0  0  0
  1  2  1  0  0  0  0
  1  3  1  0  0  0  0
  2  3  1  0  0  0  0
  3 30  1  1  0  0  0
  4  5  2  0  0  0  0
  4  6  1  0  0  0  0
  7  6  1  0  0  0  0
  8  7  1  0  0  0  0
 10 18  1  0  0  0  0
 10  8  1  0  0  0  0
 10  9  1  1  0  0  0
 11 10  1  1  0  0  0
 12 14  1  6  0  0  0
 12 13  1  0  0  0  0
 12 11  1  0  0  0  0
 13 11  1  0  0  0  0
 17 15  1  1  0  0  0
 17 16  2  0  0  0  0
 17 14  1  0  0  0  0
 18 19  1  0  0  0  0
 19 21  1  0  0  0  0
 20 19  1  0  0  0  0
 22  2  1  0  0  0  0
 23 22  1  0  0  0  0
 23 25  1  0  0  0  0
 24 27  1  0  0  0  0
 24 25  1  0  0  0  0
 26 24  2  0  0  0  0
 27 29  1  0  0  0  0
 28 27  2  0  0  0  0
 30 31  1  0  0  0  0
 32 31  1  0  0  0  0
 32 33  2  0  0  0  0
 34 33  1  6  0  0  0
 34 39  1  0  0  0  0
 34 36  1  0  0  0  0
 36 35  2  0  0  0  0
 36 38  1  0  0  0  0
 38 37  1  0  0  0  0
 40 48  1  1  0  0  0
 40 49  1  0  0  0  0
 41 45  1  0  0  0  0
 42 47  1  1  0  0  0
 42 43  1  0  0  0  0
 42 41  1  0  0  0  0
 43 47  1  6  0  0  0
 43 46  1  0  0  0  0
 43 40  1  0  0  0  0
 45 49  1  0  0  0  0
 45 44  1  1  0  0  0
 46 39  1  6  0  0  0
 46 40  1  0  0  0  0
M  END
>  <MODEL>
3

>  <REMARK>
 VINA RESULT:      -4.9      3.120      8.085
  Name = 
  22 active torsions:
  status: ('A' for Active; 'I' for Inactive)
    1  A    between atoms: C_1  and  C_15
    2  A    between atoms: C_1  and  C_26
    3  A    between atoms: C_2  and  C_20
    4  A    between atoms: C_2  and  C_38
    5  A    between atoms: C_2  and  C_39
    6  A    between atoms: C_3  and  O_19
    7  A    between atoms: C_3  and  N_46
    8  A    between atoms: C_4  and  C_45
    9  A    between atoms: C_6  and  C_28
   10  A    between atoms: C_6  and  C_34
   11  A    between atoms: C_7  and  C_35
   12  A    between atoms: C_7  and  S_40
   13  A    between atoms: C_9  and  C_25
   14  A    between atoms: C_11  and  C_42
   15  A    between atoms: C_13  and  C_28
   16  A    between atoms: C_15  and  C_31
   17  A    between atoms: N_16  and  O_19
   18  A    between atoms: C_22  and  O_36
   19  A    between atoms: C_26  and  C_45
   20  A    between atoms: C_29  and  C_39
   21  A    between atoms: C_32  and  C_38
   22  A    between atoms: O_36  and  C_45
                            x       y       z     vdW  Elec       q    Type
                         _______ _______ _______ _____ _____    ______ ____

>  <TORSDO>
F 22

$$$$
=
 OpenBabel11072411433D

 49 53  0  0  1  0  0  0  0  0999 V2000
  162.1370  207.2190  148.5590 C   0  0  2  0  0  3  0  0  0  0  0  0
  162.0260  205.9420  147.8050 N   0  0  0  0  0  0  0  0  0  0  0  0
  160.8930  206.8880  147.8580 C   0  0  1  0  0  3  0  0  0  0  0  0
  162.7710  209.6130  148.1430 C   0  0  0  0  0  3  0  0  0  0  0  0
  162.9080  208.3090  147.8410 C   0  0  0  0  0  3  0  0  0  0  0  0
  161.7820  210.0980  149.1660 C   0  0  0  0  0  2  0  0  0  0  0  0
  161.6640  211.6040  149.0570 C   0  0  0  0  0  2  0  0  0  0  0  0
  160.9390  212.0040  147.7760 C   0  0  0  0  0  2  0  0  0  0  0  0
  161.5060  214.1790  148.8350 C   0  0  0  0  0  1  0  0  0  0  0  0
  160.9320  213.5470  147.5740 C   0  0  1  0  0  0  0  0  0  0  0  0
  161.9190  213.9890  146.4600 C   0  0  2  0  0  3  0  0  0  0  0  0
  161.9390  213.1340  145.2520 C   0  0  2  0  0  3  0  0  0  0  0  0
  162.9320  213.0270  146.2370 O   0  0  0  0  0  0  0  0  0  0  0  0
  162.4470  213.9700  144.0960 C   0  0  0  0  0  2  0  0  0  0  0  0
  160.1780  212.6060  143.1830 N   0  0  0  0  0  1  0  0  0  0  0  0
  162.4250  212.4630  141.9490 O   0  0  0  0  0  0  0  0  0  0  0  0
  161.5510  213.5200  142.6050 S   0  0  2  0  0  0  0  0  0  0  0  0
  159.6310  214.1090  147.4020 O   0  0  0  0  0  0  0  0  0  0  0  0
  158.6200  213.1950  147.7660 C   0  0  0  0  0  3  0  0  0  0  0  0
  157.9570  213.6770  148.8950 O   0  0  0  0  0  1  0  0  0  0  0  0
  157.7070  213.0860  146.7150 O   0  0  0  0  0  1  0  0  0  0  0  0
  162.5770  206.0630  146.5690 O   0  0  0  0  0  0  0  0  0  0  0  0
  162.3580  204.8250  145.9590 C   0  0  0  0  0  2  0  0  0  0  0  0
  161.2730  202.6560  146.7370 C   0  0  0  0  0  0  0  0  0  0  0  0
  162.1210  203.7900  146.9640 N   0  0  0  0  0  2  0  0  0  0  0  0
  160.8660  202.3820  145.5700 O   0  0  0  0  0  0  0  0  0  0  0  0
  160.9100  201.7850  147.8620 C   0  0  0  0  0  0  0  0  0  0  0  0
  160.0620  202.1770  148.7240 O   0  0  0  0  0  0  0  0  0  0  0  0
  161.5030  200.4070  147.9810 C   0  0  0  0  0  1  0  0  0  0  0  0
  159.8880  206.3940  148.8820 C   0  0  0  0  0  2  0  0  0  0  0  0
  160.5610  206.1690  150.2300 C   0  0  0  0  0  2  0  0  0  0  0  0
  160.7290  207.4750  150.9480 C   0  0  0  0  0  3  0  0  0  0  0  0
  160.8580  207.5880  152.2770 C   0  0  0  0  0  3  0  0  0  0  0  0
  160.8720  206.4470  153.2670 C   0  0  1  0  0  3  0  0  0  0  0  0
  162.7870  205.2420  152.5400 O   0  0  0  0  0  0  0  0  0  0  0  0
  161.5960  205.2180  152.7800 C   0  0  0  0  0  0  0  0  0  0  0  0
  161.5860  202.9790  151.7480 C   0  0  0  0  0  1  0  0  0  0  0  0
  160.8510  203.9230  152.6660 C   0  0  0  0  0  2  0  0  0  0  0  0
  161.2730  206.9000  154.6760 C   0  0  0  0  0  2  0  0  0  0  0  0
  160.3800  208.6520  156.3070 C   0  0  1  0  0  0  0  0  0  0  0  0
  160.9890  211.4200  155.3370 C   0  0  0  0  0  2  0  0  0  0  0  0
  162.1450  210.4080  155.5030 C   0  0  2  0  0  3  0  0  0  0  0  0
  161.8710  208.9650  156.0490 C   0  0  2  0  0  0  0  0  0  0  0  0
  158.5930  211.8600  155.2960 N   0  0  0  0  0  1  0  0  0  0  0  0
  159.5930  210.8090  155.2270 C   0  0  2  0  0  3  0  0  0  0  0  0
  160.9610  208.3820  154.9400 C   0  0  1  0  0  3  0  0  0  0  0  0
  162.1880  210.1540  156.9630 C   0  0  0  0  0  2  0  0  0  0  0  0
  160.1400  207.4800  157.2530 C   0  0  0  0  0  1  0  0  0  0  0  0
  159.3620  209.8020  156.3530 C   0  0  0  0  0  2  0  0  0  0  0  0
  1  5  1  6  0  0  0
  2  3  1  0  0  0  0
  2  1  1  0  0  0  0
  3  1  1  0  0  0  0
  3 30  1  1  0  0  0
  4  6  1  0  0  0  0
  5  4  2  0  0  0  0
  7  6  1  0  0  0  0
  8  7  1  0  0  0  0
 10  8  1  0  0  0  0
 10  9  1  1  0  0  0
 11 10  1  1  0  0  0
 12 14  1  6  0  0  0
 12 13  1  0  0  0  0
 12 11  1  0  0  0  0
 13 11  1  0  0  0  0
 17 16  2  6  0  0  0
 17 15  1  0  0  0  0
 17 14  1  0  0  0  0
 18 10  1  0  0  0  0
 18 19  1  0  0  0  0
 19 20  1  0  0  0  0
 21 19  1  0  0  0  0
 22  2  1  0  0  0  0
 23 22  1  0  0  0  0
 23 25  1  0  0  0  0
 24 25  1  0  0  0  0
 24 27  1  0  0  0  0
 26 24  2  0  0  0  0
 27 29  1  0  0  0  0
 27 28  2  0  0  0  0
 30 31  1  0  0  0  0
 31 32  1  0  0  0  0
 32 33  2  0  0  0  0
 34 33  1  6  0  0  0
 34 39  1  0  0  0  0
 35 36  2  0  0  0  0
 36 34  1  0  0  0  0
 37 38  1  0  0  0  0
 38 36  1  0  0  0  0
 40 49  1  0  0  0  0
 40 48  1  1  0  0  0
 42 41  1  1  0  0  0
 42 43  1  0  0  0  0
 42 47  1  0  0  0  0
 43 40  1  0  0  0  0
 43 47  1  1  0  0  0
 45 44  1  1  0  0  0
 45 41  1  0  0  0  0
 45 49  1  0  0  0  0
 46 39  1  1  0  0  0
 46 43  1  0  0  0  0
 46 40  1  0  0  0  0
M  END
>  <MODEL>
4

>  <REMARK>
 VINA RESULT:      -4.8      3.129      8.189
  Name = 
  22 active torsions:
  status: ('A' for Active; 'I' for Inactive)
    1  A    between atoms: C_1  and  C_15
    2  A    between atoms: C_1  and  C_26
    3  A    between atoms: C_2  and  C_20
    4  A    between atoms: C_2  and  C_38
    5  A    between atoms: C_2  and  C_39
    6  A    between atoms: C_3  and  O_19
    7  A    between atoms: C_3  and  N_46
    8  A    between atoms: C_4  and  C_45
    9  A    between atoms: C_6  and  C_28
   10  A    between atoms: C_6  and  C_34
   11  A    between atoms: C_7  and  C_35
   12  A    between atoms: C_7  and  S_40
   13  A    between atoms: C_9  and  C_25
   14  A    between atoms: C_11  and  C_42
   15  A    between atoms: C_13  and  C_28
   16  A    between atoms: C_15  and  C_31
   17  A    between atoms: N_16  and  O_19
   18  A    between atoms: C_22  and  O_36
   19  A    between atoms: C_26  and  C_45
   20  A    between atoms: C_29  and  C_39
   21  A    between atoms: C_32  and  C_38
   22  A    between atoms: O_36  and  C_45
                            x       y       z     vdW  Elec       q    Type
                         _______ _______ _______ _____ _____    ______ ____

>  <TORSDO>
F 22

$$$$
=
 OpenBabel11072411433D

 49 53  0  0  1  0  0  0  0  0999 V2000
  161.2670  208.3750  150.7050 C   0  0  2  0  0  3  0  0  0  0  0  0
  160.9330  207.3450  151.7240 N   0  0  0  0  0  0  0  0  0  0  0  0
  161.7440  207.0000  150.5390 C   0  0  1  0  0  3  0  0  0  0  0  0
  162.4300  210.6010  150.7170 C   0  0  0  0  0  3  0  0  0  0  0  0
  162.3910  209.3120  151.1020 C   0  0  0  0  0  3  0  0  0  0  0  0
  161.3990  211.1940  149.7990 C   0  0  0  0  0  2  0  0  0  0  0  0
  162.1060  211.9490  148.6920 C   0  0  0  0  0  2  0  0  0  0  0  0
  161.2130  212.0790  147.4620 C   0  0  0  0  0  2  0  0  0  0  0  0
  161.4990  214.4230  148.2330 C   0  0  0  0  0  1  0  0  0  0  0  0
  160.9230  213.5670  147.1140 C   0  0  1  0  0  0  0  0  0  0  0  0
  161.7070  214.0300  145.8560 C   0  0  2  0  0  3  0  0  0  0  0  0
  161.5950  213.1450  144.6760 C   0  0  2  0  0  3  0  0  0  0  0  0
  162.7280  213.1170  145.5030 O   0  0  0  0  0  0  0  0  0  0  0  0
  161.8780  213.9740  143.4400 C   0  0  0  0  0  2  0  0  0  0  0  0
  160.4130  211.7250  142.6430 N   0  0  0  0  0  1  0  0  0  0  0  0
  162.1780  212.7940  141.1170 O   0  0  0  0  0  0  0  0  0  0  0  0
  161.0460  213.2340  142.0300 S   0  0  2  0  0  0  0  0  0  0  0  0
  159.5340  213.8910  147.0380 O   0  0  0  0  0  0  0  0  0  0  0  0
  158.7350  212.7300  146.9880 C   0  0  0  0  0  3  0  0  0  0  0  0
  157.6730  212.8710  147.8810 O   0  0  0  0  0  1  0  0  0  0  0  0
  158.2250  212.5860  145.6960 O   0  0  0  0  0  1  0  0  0  0  0  0
  161.7890  207.4130  152.7760 O   0  0  0  0  0  0  0  0  0  0  0  0
  160.9660  207.4360  153.9050 C   0  0  0  0  0  2  0  0  0  0  0  0
  160.1130  209.1260  155.6100 C   0  0  0  0  0  0  0  0  0  0  0  0
  160.8000  208.8040  154.3930 N   0  0  0  0  0  2  0  0  0  0  0  0
  159.8120  208.2150  156.4370 O   0  0  0  0  0  0  0  0  0  0  0  0
  159.7960  210.5250  155.9160 C   0  0  0  0  0  0  0  0  0  0  0  0
  159.1970  210.8210  156.9980 O   0  0  0  0  0  0  0  0  0  0  0  0
  160.2140  211.6250  154.9770 C   0  0  0  0  0  1  0  0  0  0  0  0
  160.8570  206.3090  149.5190 C   0  0  0  0  0  2  0  0  0  0  0  0
  161.2360  206.7300  148.1050 C   0  0  0  0  0  2  0  0  0  0  0  0
  162.4910  206.0290  147.6770 C   0  0  0  0  0  3  0  0  0  0  0  0
  162.5100  204.8450  147.0500 C   0  0  0  0  0  3  0  0  0  0  0  0
  161.2990  204.0290  146.6570 C   0  0  1  0  0  3  0  0  0  0  0  0
  160.5270  203.0600  144.6300 O   0  0  0  0  0  0  0  0  0  0  0  0
  161.0100  204.0300  145.1780 C   0  0  0  0  0  0  0  0  0  0  0  0
  160.3230  206.3750  144.8520 C   0  0  0  0  0  1  0  0  0  0  0  0
  161.2480  205.2790  144.3850 C   0  0  0  0  0  2  0  0  0  0  0  0
  161.3000  202.6370  147.3010 C   0  0  0  0  0  2  0  0  0  0  0  0
  160.0890  202.1960  149.5060 C   0  0  1  0  0  0  0  0  0  0  0  0
  161.9820  202.3890  151.8190 C   0  0  0  0  0  2  0  0  0  0  0  0
  162.3090  201.4240  150.6560 C   0  0  2  0  0  3  0  0  0  0  0  0
  161.3210  201.2640  149.4500 C   0  0  2  0  0  0  0  0  0  0  0  0
  160.6030  204.1890  152.7100 N   0  0  0  0  0  1  0  0  0  0  0  0
  160.9830  203.4980  151.4910 C   0  0  2  0  0  3  0  0  0  0  0  0
  161.3500  202.6860  148.8360 C   0  0  1  0  0  3  0  0  0  0  0  0
  161.2280  200.4120  150.7200 C   0  0  0  0  0  2  0  0  0  0  0  0
  158.9200  201.7400  148.6380 C   0  0  0  0  0  1  0  0  0  0  0  0
  159.7420  202.9150  150.8190 C   0  0  0  0  0  2  0  0  0  0  0  0
  1  5  1  1  0  0  0
  1  2  1  0  0  0  0
  2 22  1  0  0  0  0
  3 30  1  6  0  0  0
  3  1  1  0  0  0  0
  3  2  1  0  0  0  0
  4  5  2  0  0  0  0
  6  4  1  0  0  0  0
  7  6  1  0  0  0  0
  8  7  1  0  0  0  0
 10  8  1  0  0  0  0
 10  9  1  1  0  0  0
 11 10  1  1  0  0  0
 12 14  1  6  0  0  0
 12 13  1  0  0  0  0
 12 11  1  0  0  0  0
 13 11  1  0  0  0  0
 17 16  2  6  0  0  0
 17 15  1  0  0  0  0
 17 14  1  0  0  0  0
 18 10  1  0  0  0  0
 19 18  1  0  0  0  0
 19 20  1  0  0  0  0
 21 19  1  0  0  0  0
 22 23  1  0  0  0  0
 23 25  1  0  0  0  0
 24 27  1  0  0  0  0
 24 26  2  0  0  0  0
 25 24  1  0  0  0  0
 27 28  2  0  0  0  0
 29 27  1  0  0  0  0
 31 30  1  0  0  0  0
 32 31  1  0  0  0  0
 33 32  2  0  0  0  0
 34 33  1  6  0  0  0
 34 39  1  0  0  0  0
 35 36  2  0  0  0  0
 36 34  1  0  0  0  0
 38 37  1  0  0  0  0
 38 36  1  0  0  0  0
 40 48  1  6  0  0  0
 40 49  1  0  0  0  0
 42 47  1  1  0  0  0
 42 41  1  0  0  0  0
 43 40  1  0  0  0  0
 43 42  1  0  0  0  0
 43 47  1  6  0  0  0
 45 41  1  0  0  0  0
 45 44  1  1  0  0  0
 46 39  1  6  0  0  0
 46 43  1  0  0  0  0
 46 40  1  0  0  0  0
 49 45  1  0  0  0  0
M  END
>  <MODEL>
5

>  <REMARK>
 VINA RESULT:      -4.7      3.196     10.244
  Name = 
  22 active torsions:
  status: ('A' for Active; 'I' for Inactive)
    1  A    between atoms: C_1  and  C_15
    2  A    between atoms: C_1  and  C_26
    3  A    between atoms: C_2  and  C_20
    4  A    between atoms: C_2  and  C_38
    5  A    between atoms: C_2  and  C_39
    6  A    between atoms: C_3  and  O_19
    7  A    between atoms: C_3  and  N_46
    8  A    between atoms: C_4  and  C_45
    9  A    between atoms: C_6  and  C_28
   10  A    between atoms: C_6  and  C_34
   11  A    between atoms: C_7  and  C_35
   12  A    between atoms: C_7  and  S_40
   13  A    between atoms: C_9  and  C_25
   14  A    between atoms: C_11  and  C_42
   15  A    between atoms: C_13  and  C_28
   16  A    between atoms: C_15  and  C_31
   17  A    between atoms: N_16  and  O_19
   18  A    between atoms: C_22  and  O_36
   19  A    between atoms: C_26  and  C_45
   20  A    between atoms: C_29  and  C_39
   21  A    between atoms: C_32  and  C_38
   22  A    between atoms: O_36  and  C_45
                            x       y       z     vdW  Elec       q    Type
                         _______ _______ _______ _____ _____    ______ ____

>  <TORSDO>
F 22

$$$$
=
 OpenBabel11072411433D

 49 53  0  0  1  0  0  0  0  0999 V2000
  160.8350  212.4890  148.8750 C   0  0  2  0  0  3  0  0  0  0  0  0
  160.3080  213.6290  148.0770 N   0  0  0  0  0  0  0  0  0  0  0  0
  161.2820  213.8550  149.1640 C   0  0  1  0  0  3  0  0  0  0  0  0
  162.3140  210.4750  148.6220 C   0  0  0  0  0  3  0  0  0  0  0  0
  161.9160  211.6830  148.1820 C   0  0  0  0  0  3  0  0  0  0  0  0
  161.7700  209.8640  149.8830 C   0  0  0  0  0  2  0  0  0  0  0  0
  162.0180  208.3700  149.8490 C   0  0  0  0  0  2  0  0  0  0  0  0
  160.8890  207.6440  149.1240 C   0  0  0  0  0  2  0  0  0  0  0  0
  162.9340  206.4860  148.3180 C   0  0  0  0  0  1  0  0  0  0  0  0
  161.4340  206.6140  148.0930 C   0  0  1  0  0  0  0  0  0  0  0  0
  160.8970  205.1840  148.3670 C   0  0  2  0  0  3  0  0  0  0  0  0
  161.6360  204.4120  149.3900 C   0  0  2  0  0  3  0  0  0  0  0  0
  161.8400  204.1880  148.0200 O   0  0  0  0  0  0  0  0  0  0  0  0
  160.7000  203.3610  149.9510 C   0  0  0  0  0  2  0  0  0  0  0  0
  161.8290  204.7390  152.1120 N   0  0  0  0  0  1  0  0  0  0  0  0
  161.7250  202.1750  152.0540 O   0  0  0  0  0  0  0  0  0  0  0  0
  160.8230  203.3580  151.7430 S   0  0  2  0  0  0  0  0  0  0  0  0
  161.2660  207.0060  146.7300 O   0  0  0  0  0  0  0  0  0  0  0  0
  160.9380  205.9040  145.9120 C   0  0  0  0  0  3  0  0  0  0  0  0
  159.7060  206.1440  145.3010 O   0  0  0  0  0  1  0  0  0  0  0  0
  161.9150  205.7650  144.9250 O   0  0  0  0  0  1  0  0  0  0  0  0
  160.9890  213.7550  146.9090 O   0  0  0  0  0  0  0  0  0  0  0  0
  160.0420  214.2170  145.9920 C   0  0  0  0  0  2  0  0  0  0  0  0
  160.4790  212.5940  144.0780 C   0  0  0  0  0  0  0  0  0  0  0  0
  160.4630  213.9200  144.6240 N   0  0  0  0  0  2  0  0  0  0  0  0
  159.9110  211.6420  144.6900 O   0  0  0  0  0  0  0  0  0  0  0  0
  161.1210  212.3510  142.7810 C   0  0  0  0  0  0  0  0  0  0  0  0
  160.6430  211.4820  141.9860 O   0  0  0  0  0  0  0  0  0  0  0  0
  162.3230  213.1550  142.3620 C   0  0  0  0  0  1  0  0  0  0  0  0
  160.5430  214.3460  150.3940 C   0  0  0  0  0  2  0  0  0  0  0  0
  159.4140  213.3920  150.7590 C   0  0  0  0  0  2  0  0  0  0  0  0
  158.1390  214.1550  150.9630 C   0  0  0  0  0  3  0  0  0  0  0  0
  157.4700  214.2010  152.1230 C   0  0  0  0  0  3  0  0  0  0  0  0
  157.8780  213.5180  153.4090 C   0  0  1  0  0  3  0  0  0  0  0  0
  155.7310  213.4900  154.4250 O   0  0  0  0  0  0  0  0  0  0  0  0
  156.9150  213.7280  154.5490 C   0  0  0  0  0  0  0  0  0  0  0  0
  156.3000  214.4060  156.8380 C   0  0  0  0  0  1  0  0  0  0  0  0
  157.4410  214.1620  155.8840 C   0  0  0  0  0  2  0  0  0  0  0  0
  158.2890  212.0570  153.1890 C   0  0  0  0  0  2  0  0  0  0  0  0
  159.1940  210.7260  155.1720 C   0  0  1  0  0  0  0  0  0  0  0  0
  162.1860  210.5990  155.0960 C   0  0  0  0  0  2  0  0  0  0  0  0
  161.3790  210.1220  153.8660 C   0  0  2  0  0  3  0  0  0  0  0  0
  159.8120  210.1330  153.8860 C   0  0  2  0  0  0  0  0  0  0  0  0
  162.2210  211.7150  157.2610 N   0  0  0  0  0  1  0  0  0  0  0  0
  161.4350  211.5220  156.0550 C   0  0  2  0  0  3  0  0  0  0  0  0
  159.5150  211.6470  154.0210 C   0  0  1  0  0  3  0  0  0  0  0  0
  160.6420  208.9360  154.3630 C   0  0  0  0  0  2  0  0  0  0  0  0
  157.7430  210.3220  155.4140 C   0  0  0  0  0  1  0  0  0  0  0  0
  160.0770  210.9250  156.4150 C   0  0  0  0  0  2  0  0  0  0  0  0
  1  5  1  6  0  0  0
  1  3  1  0  0  0  0
  2  1  1  0  0  0  0
  2  3  1  0  0  0  0
  3 30  1  1  0  0  0
  4  6  1  0  0  0  0
  5  4  2  0  0  0  0
  7  6  1  0  0  0  0
  8  7  1  0  0  0  0
 10  9  1  1  0  0  0
 10  8  1  0  0  0  0
 11 10  1  6  0  0  0
 11 12  1  0  0  0  0
 12 14  1  1  0  0  0
 13 11  1  0  0  0  0
 13 12  1  0  0  0  0
 14 17  1  0  0  0  0
 17 16  2  6  0  0  0
 17 15  1  0  0  0  0
 18 10  1  0  0  0  0
 19 18  1  0  0  0  0
 20 19  1  0  0  0  0
 21 19  1  0  0  0  0
 22  2  1  0  0  0  0
 23 22  1  0  0  0  0
 24 25  1  0  0  0  0
 24 26  2  0  0  0  0
 25 23  1  0  0  0  0
 27 24  1  0  0  0  0
 28 27  2  0  0  0  0
 29 27  1  0  0  0  0
 30 31  1  0  0  0  0
 31 32  1  0  0  0  0
 32 33  2  0  0  0  0
 34 33  1  6  0  0  0
 34 36  1  0  0  0  0
 35 36  2  0  0  0  0
 36 38  1  0  0  0  0
 38 37  1  0  0  0  0
 39 34  1  0  0  0  0
 40 48  1  1  0  0  0
 40 49  1  0  0  0  0
 41 45  1  0  0  0  0
 42 43  1  0  0  0  0
 42 47  1  1  0  0  0
 42 41  1  0  0  0  0
 43 46  1  0  0  0  0
 43 47  1  6  0  0  0
 43 40  1  0  0  0  0
 45 49  1  0  0  0  0
 45 44  1  1  0  0  0
 46 39  1  6  0  0  0
 46 40  1  0  0  0  0
M  END
>  <MODEL>
6

>  <REMARK>
 VINA RESULT:      -4.5      1.874      2.389
  Name = 
  22 active torsions:
  status: ('A' for Active; 'I' for Inactive)
    1  A    between atoms: C_1  and  C_15
    2  A    between atoms: C_1  and  C_26
    3  A    between atoms: C_2  and  C_20
    4  A    between atoms: C_2  and  C_38
    5  A    between atoms: C_2  and  C_39
    6  A    between atoms: C_3  and  O_19
    7  A    between atoms: C_3  and  N_46
    8  A    between atoms: C_4  and  C_45
    9  A    between atoms: C_6  and  C_28
   10  A    between atoms: C_6  and  C_34
   11  A    between atoms: C_7  and  C_35
   12  A    between atoms: C_7  and  S_40
   13  A    between atoms: C_9  and  C_25
   14  A    between atoms: C_11  and  C_42
   15  A    between atoms: C_13  and  C_28
   16  A    between atoms: C_15  and  C_31
   17  A    between atoms: N_16  and  O_19
   18  A    between atoms: C_22  and  O_36
   19  A    between atoms: C_26  and  C_45
   20  A    between atoms: C_29  and  C_39
   21  A    between atoms: C_32  and  C_38
   22  A    between atoms: O_36  and  C_45
                            x       y       z     vdW  Elec       q    Type
                         _______ _______ _______ _____ _____    ______ ____

>  <TORSDO>
F 22

$$$$
=
 OpenBabel11072411433D

 49 53  0  0  1  0  0  0  0  0999 V2000
  161.9520  208.3550  150.2570 C   0  0  2  0  0  3  0  0  0  0  0  0
  162.3570  209.4790  149.3710 N   0  0  0  0  0  0  0  0  0  0  0  0
  161.5820  208.3400  148.8390 C   0  0  1  0  0  3  0  0  0  0  0  0
  160.8660  209.3180  152.3070 C   0  0  0  0  0  3  0  0  0  0  0  0
  160.7580  208.6510  151.1430 C   0  0  0  0  0  3  0  0  0  0  0  0
  162.1930  209.7560  152.8580 C   0  0  0  0  0  2  0  0  0  0  0  0
  161.9540  210.6890  154.0270 C   0  0  0  0  0  2  0  0  0  0  0  0
  160.5330  210.5430  154.5610 C   0  0  0  0  0  2  0  0  0  0  0  0
  161.8870  210.9940  156.5950 C   0  0  0  0  0  1  0  0  0  0  0  0
  160.4870  210.6400  156.1140 C   0  0  1  0  0  0  0  0  0  0  0  0
  159.6200  211.8350  156.5930 C   0  0  2  0  0  3  0  0  0  0  0  0
  158.9380  212.5950  155.5230 C   0  0  2  0  0  3  0  0  0  0  0  0
  160.1150  213.0720  156.1190 O   0  0  0  0  0  0  0  0  0  0  0  0
  157.7350  213.2850  156.1320 C   0  0  0  0  0  2  0  0  0  0  0  0
  156.5850  211.0690  154.8630 N   0  0  0  0  0  1  0  0  0  0  0  0
  156.2830  213.4490  153.9530 O   0  0  0  0  0  0  0  0  0  0  0  0
  156.2480  212.7290  155.2910 S   0  0  2  0  0  0  0  0  0  0  0  0
  160.1370  209.4190  156.7660 O   0  0  0  0  0  0  0  0  0  0  0  0
  160.3790  208.3020  155.9390 C   0  0  0  0  0  3  0  0  0  0  0  0
  161.5860  207.7120  156.3140 O   0  0  0  0  0  1  0  0  0  0  0  0
  159.3470  207.3770  156.1120 O   0  0  0  0  0  1  0  0  0  0  0  0
  161.4920  210.5190  149.4870 O   0  0  0  0  0  0  0  0  0  0  0  0
  162.0370  211.5270  148.6870 C   0  0  0  0  0  2  0  0  0  0  0  0
  160.0810  212.6430  147.4960 C   0  0  0  0  0  0  0  0  0  0  0  0
  161.2060  211.7530  147.5060 N   0  0  0  0  0  2  0  0  0  0  0  0
  159.8920  213.4490  148.4550 O   0  0  0  0  0  0  0  0  0  0  0  0
  159.1690  212.6470  146.3470 C   0  0  0  0  0  0  0  0  0  0  0  0
  159.6340  212.6610  145.1640 O   0  0  0  0  0  0  0  0  0  0  0  0
  157.6790  212.5890  146.5550 C   0  0  0  0  0  1  0  0  0  0  0  0
  162.5240  207.3990  148.1120 C   0  0  0  0  0  2  0  0  0  0  0  0
  161.7460  206.2830  147.4280 C   0  0  0  0  0  2  0  0  0  0  0  0
  162.6660  205.4620  146.5730 C   0  0  0  0  0  3  0  0  0  0  0  0
  162.4220  204.1940  146.2150 C   0  0  0  0  0  3  0  0  0  0  0  0
  161.1990  203.3870  146.5850 C   0  0  1  0  0  3  0  0  0  0  0  0
  160.4780  203.4190  144.3210 O   0  0  0  0  0  0  0  0  0  0  0  0
  160.4220  202.8680  145.4020 C   0  0  0  0  0  0  0  0  0  0  0  0
  160.0770  200.5940  144.5150 C   0  0  0  0  0  1  0  0  0  0  0  0
  159.6300  201.6040  145.5420 C   0  0  0  0  0  2  0  0  0  0  0  0
  161.4990  202.3310  147.6570 C   0  0  0  0  0  2  0  0  0  0  0  0
  160.2000  202.5920  149.8400 C   0  0  1  0  0  0  0  0  0  0  0  0
  161.9620  203.6710  152.0080 C   0  0  0  0  0  2  0  0  0  0  0  0
  162.3900  202.3900  151.2560 C   0  0  2  0  0  3  0  0  0  0  0  0
  161.4730  201.7720  150.1450 C   0  0  2  0  0  0  0  0  0  0  0  0
  160.4590  205.5800  152.1870 N   0  0  0  0  0  1  0  0  0  0  0  0
  160.9320  204.5410  151.2900 C   0  0  2  0  0  3  0  0  0  0  0  0
  161.4690  202.9010  149.0840 C   0  0  1  0  0  3  0  0  0  0  0  0
  161.3550  201.3970  151.6270 C   0  0  0  0  0  2  0  0  0  0  0  0
  159.0970  201.8010  149.1420 C   0  0  0  0  0  1  0  0  0  0  0  0
  159.7540  203.6910  150.8170 C   0  0  0  0  0  2  0  0  0  0  0  0
  1  5  1  1  0  0  0
  2 22  1  0  0  0  0
  2  1  1  0  0  0  0
  3 30  1  6  0  0  0
  3  2  1  0  0  0  0
  3  1  1  0  0  0  0
  4  6  1  0  0  0  0
  5  4  2  0  0  0  0
  6  7  1  0  0  0  0
  7  8  1  0  0  0  0
  8 10  1  0  0  0  0
 10  9  1  1  0  0  0
 10 18  1  0  0  0  0
 11 10  1  6  0  0  0
 12 13  1  0  0  0  0
 12 14  1  1  0  0  0
 12 11  1  0  0  0  0
 13 11  1  0  0  0  0
 15 17  1  0  0  0  0
 17 16  2  6  0  0  0
 17 14  1  0  0  0  0
 19 21  1  0  0  0  0
 19 20  1  0  0  0  0
 19 18  1  0  0  0  0
 23 22  1  0  0  0  0
 24 25  1  0  0  0  0
 24 26  2  0  0  0  0
 25 23  1  0  0  0  0
 27 29  1  0  0  0  0
 27 24  1  0  0  0  0
 28 27  2  0  0  0  0
 31 30  1  0  0  0  0
 32 31  1  0  0  0  0
 33 32  2  0  0  0  0
 34 33  1  6  0  0  0
 34 39  1  0  0  0  0
 35 36  2  0  0  0  0
 36 38  1  0  0  0  0
 36 34  1  0  0  0  0
 37 38  1  0  0  0  0
 40 48  1  6  0  0  0
 40 43  1  0  0  0  0
 40 49  1  0  0  0  0
 42 47  1  1  0  0  0
 42 41  1  0  0  0  0
 43 42  1  0  0  0  0
 43 47  1  6  0  0  0
 45 41  1  0  0  0  0
 45 44  1  1  0  0  0
 46 39  1  6  0  0  0
 46 40  1  0  0  0  0
 46 43  1  0  0  0  0
 49 45  1  0  0  0  0
M  END
>  <MODEL>
7

>  <REMARK>
 VINA RESULT:      -3.9      3.424      9.341
  Name = 
  22 active torsions:
  status: ('A' for Active; 'I' for Inactive)
    1  A    between atoms: C_1  and  C_15
    2  A    between atoms: C_1  and  C_26
    3  A    between atoms: C_2  and  C_20
    4  A    between atoms: C_2  and  C_38
    5  A    between atoms: C_2  and  C_39
    6  A    between atoms: C_3  and  O_19
    7  A    between atoms: C_3  and  N_46
    8  A    between atoms: C_4  and  C_45
    9  A    between atoms: C_6  and  C_28
   10  A    between atoms: C_6  and  C_34
   11  A    between atoms: C_7  and  C_35
   12  A    between atoms: C_7  and  S_40
   13  A    between atoms: C_9  and  C_25
   14  A    between atoms: C_11  and  C_42
   15  A    between atoms: C_13  and  C_28
   16  A    between atoms: C_15  and  C_31
   17  A    between atoms: N_16  and  O_19
   18  A    between atoms: C_22  and  O_36
   19  A    between atoms: C_26  and  C_45
   20  A    between atoms: C_29  and  C_39
   21  A    between atoms: C_32  and  C_38
   22  A    between atoms: O_36  and  C_45
                            x       y       z     vdW  Elec       q    Type
                         _______ _______ _______ _____ _____    ______ ____

>  <TORSDO>
F 22

$$$$
=
 OpenBabel11072411433D

 49 53  0  0  1  0  0  0  0  0999 V2000
  161.6630  209.6120  150.3680 C   0  0  2  0  0  3  0  0  0  0  0  0
  161.0450  209.1960  151.6550 N   0  0  0  0  0  0  0  0  0  0  0  0
  162.4090  208.7580  151.2960 C   0  0  1  0  0  3  0  0  0  0  0  0
  162.1050  211.8320  149.2820 C   0  0  0  0  0  3  0  0  0  0  0  0
  162.2020  211.0280  150.3560 C   0  0  0  0  0  3  0  0  0  0  0  0
  161.5200  211.3610  147.9790 C   0  0  0  0  0  2  0  0  0  0  0  0
  161.1680  212.5690  147.1350 C   0  0  0  0  0  2  0  0  0  0  0  0
  160.3850  212.1570  145.8920 C   0  0  0  0  0  2  0  0  0  0  0  0
  161.9130  213.8320  144.8760 C   0  0  0  0  0  1  0  0  0  0  0  0
  160.5360  213.1980  144.7450 C   0  0  1  0  0  0  0  0  0  0  0  0
  160.5760  212.5170  143.3500 C   0  0  2  0  0  3  0  0  0  0  0  0
  161.0870  213.3590  142.2460 C   0  0  2  0  0  3  0  0  0  0  0  0
  159.7120  213.1490  142.4270 O   0  0  0  0  0  0  0  0  0  0  0  0
  161.6110  212.4420  141.1610 C   0  0  0  0  0  2  0  0  0  0  0  0
  161.2430  213.5400  138.6110 N   0  0  0  0  0  1  0  0  0  0  0  0
  163.4790  212.4990  139.3210 O   0  0  0  0  0  0  0  0  0  0  0  0
  162.4220  213.4270  139.8960 S   0  0  2  0  0  0  0  0  0  0  0  0
  159.5950  214.2700  144.8000 O   0  0  0  0  0  0  0  0  0  0  0  0
  158.3540  213.8430  145.3160 C   0  0  0  0  0  3  0  0  0  0  0  0
  158.1430  214.4500  146.5540 O   0  0  0  0  0  1  0  0  0  0  0  0
  157.3390  214.2340  144.4390 O   0  0  0  0  0  1  0  0  0  0  0  0
  161.1830  210.1700  152.5910 O   0  0  0  0  0  0  0  0  0  0  0  0
  160.2410  209.8550  153.5750 C   0  0  0  0  0  2  0  0  0  0  0  0
  158.4670  211.1560  154.8600 C   0  0  0  0  0  0  0  0  0  0  0  0
  159.2250  210.9030  153.6690 N   0  0  0  0  0  2  0  0  0  0  0  0
  158.8050  210.6280  155.9600 O   0  0  0  0  0  0  0  0  0  0  0  0
  157.3190  212.0680  154.8090 C   0  0  0  0  0  0  0  0  0  0  0  0
  157.4260  213.1970  154.2340 O   0  0  0  0  0  0  0  0  0  0  0  0
  155.9940  211.6590  155.3940 C   0  0  0  0  0  1  0  0  0  0  0  0
  162.3480  207.3310  150.7830 C   0  0  0  0  0  2  0  0  0  0  0  0
  161.4130  206.4910  151.6420 C   0  0  0  0  0  2  0  0  0  0  0  0
  160.2140  206.0730  150.8430 C   0  0  0  0  0  3  0  0  0  0  0  0
  160.1550  204.9520  150.1120 C   0  0  0  0  0  3  0  0  0  0  0  0
  161.2540  203.9240  149.9750 C   0  0  1  0  0  3  0  0  0  0  0  0
  160.5440  201.8530  150.8990 O   0  0  0  0  0  0  0  0  0  0  0  0
  160.7600  202.5020  149.8950 C   0  0  0  0  0  0  0  0  0  0  0  0
  161.4210  200.7900  148.2490 C   0  0  0  0  0  1  0  0  0  0  0  0
  160.4540  201.9050  148.5550 C   0  0  0  0  0  2  0  0  0  0  0  0
  162.2740  204.3000  148.8930 C   0  0  0  0  0  2  0  0  0  0  0  0
  161.6980  205.8410  146.9390 C   0  0  1  0  0  0  0  0  0  0  0  0
  160.8390  204.2550  144.5480 C   0  0  0  0  0  2  0  0  0  0  0  0
  162.2060  203.9520  145.2020 C   0  0  2  0  0  3  0  0  0  0  0  0
  162.7080  204.7900  146.4280 C   0  0  2  0  0  0  0  0  0  0  0  0
  158.6960  205.4100  144.6360 N   0  0  0  0  0  1  0  0  0  0  0  0
  159.8390  205.0000  145.4320 C   0  0  2  0  0  3  0  0  0  0  0  0
  161.6440  204.4400  147.4980 C   0  0  1  0  0  3  0  0  0  0  0  0
  162.9910  205.1890  144.9750 C   0  0  0  0  0  2  0  0  0  0  0  0
  162.3210  206.9500  147.7820 C   0  0  0  0  0  1  0  0  0  0  0  0
  160.4960  206.2260  146.0630 C   0  0  0  0  0  2  0  0  0  0  0  0
  1  5  1  1  0  0  0
  1  3  1  0  0  0  0
  1  2  1  0  0  0  0
  2 22  1  0  0  0  0
  3 30  1  6  0  0  0
  3  2  1  0  0  0  0
  4  5  2  0  0  0  0
  6  4  1  0  0  0  0
  7  6  1  0  0  0  0
  8  7  1  0  0  0  0
 10 18  1  0  0  0  0
 10  9  1  1  0  0  0
 10  8  1  0  0  0  0
 11 10  1  1  0  0  0
 12 14  1  6  0  0  0
 12 13  1  0  0  0  0
 12 11  1  0  0  0  0
 13 11  1  0  0  0  0
 16 17  2  0  0  0  0
 17 15  1  6  0  0  0
 17 14  1  0  0  0  0
 18 19  1  0  0  0  0
 19 20  1  0  0  0  0
 21 19  1  0  0  0  0
 22 23  1  0  0  0  0
 23 25  1  0  0  0  0
 24 26  2  0  0  0  0
 25 24  1  0  0  0  0
 27 24  1  0  0  0  0
 27 29  1  0  0  0  0
 28 27  2  0  0  0  0
 30 31  1  0  0  0  0
 32 31  1  0  0  0  0
 33 32  2  0  0  0  0
 34 39  1  6  0  0  0
 34 33  1  0  0  0  0
 36 34  1  0  0  0  0
 36 35  2  0  0  0  0
 37 38  1  0  0  0  0
 38 36  1  0  0  0  0
 40 46  1  0  0  0  0
 40 48  1  1  0  0  0
 41 45  1  0  0  0  0
 42 41  1  6  0  0  0
 42 43  1  0  0  0  0
 43 47  1  1  0  0  0
 43 40  1  0  0  0  0
 43 46  1  0  0  0  0
 45 44  1  6  0  0  0
 45 49  1  0  0  0  0
 46 39  1  1  0  0  0
 47 42  1  0  0  0  0
 49 40  1  0  0  0  0
M  END
>  <MODEL>
8

>  <REMARK>
 VINA RESULT:      -3.7      3.706     10.463
  Name = 
  22 active torsions:
  status: ('A' for Active; 'I' for Inactive)
    1  A    between atoms: C_1  and  C_15
    2  A    between atoms: C_1  and  C_26
    3  A    between atoms: C_2  and  C_20
    4  A    between atoms: C_2  and  C_38
    5  A    between atoms: C_2  and  C_39
    6  A    between atoms: C_3  and  O_19
    7  A    between atoms: C_3  and  N_46
    8  A    between atoms: C_4  and  C_45
    9  A    between atoms: C_6  and  C_28
   10  A    between atoms: C_6  and  C_34
   11  A    between atoms: C_7  and  C_35
   12  A    between atoms: C_7  and  S_40
   13  A    between atoms: C_9  and  C_25
   14  A    between atoms: C_11  and  C_42
   15  A    between atoms: C_13  and  C_28
   16  A    between atoms: C_15  and  C_31
   17  A    between atoms: N_16  and  O_19
   18  A    between atoms: C_22  and  O_36
   19  A    between atoms: C_26  and  C_45
   20  A    between atoms: C_29  and  C_39
   21  A    between atoms: C_32  and  C_38
   22  A    between atoms: O_36  and  C_45
                            x       y       z     vdW  Elec       q    Type
                         _______ _______ _______ _____ _____    ______ ____

>  <TORSDO>
F 22

$$$$
=
 OpenBabel11072411433D

 49 53  0  0  1  0  0  0  0  0999 V2000
  161.1390  206.0500  152.5460 C   0  0  2  0  0  3  0  0  0  0  0  0
  160.7680  207.4130  152.0820 N   0  0  0  0  0  0  0  0  0  0  0  0
  161.5990  207.2270  153.2890 C   0  0  1  0  0  3  0  0  0  0  0  0
  162.0650  204.7210  150.6260 C   0  0  0  0  0  3  0  0  0  0  0  0
  162.2690  205.4050  151.7670 C   0  0  0  0  0  3  0  0  0  0  0  0
  160.6880  204.4760  150.0750 C   0  0  0  0  0  2  0  0  0  0  0  0
  160.8050  204.1160  148.6080 C   0  0  0  0  0  2  0  0  0  0  0  0
  162.2070  204.4100  148.0830 C   0  0  0  0  0  2  0  0  0  0  0  0
  163.4250  204.4580  145.9180 C   0  0  0  0  0  1  0  0  0  0  0  0
  162.1740  204.9570  146.6270 C   0  0  1  0  0  0  0  0  0  0  0  0
  161.0130  204.3390  145.8030 C   0  0  2  0  0  3  0  0  0  0  0  0
  161.2400  202.9590  145.3200 C   0  0  2  0  0  3  0  0  0  0  0  0
  161.3960  204.0640  144.4700 O   0  0  0  0  0  0  0  0  0  0  0  0
  159.8880  202.3160  145.0870 C   0  0  0  0  0  2  0  0  0  0  0  0
  160.8700  201.0810  147.4010 N   0  0  0  0  0  1  0  0  0  0  0  0
  160.4880  199.7660  145.2300 O   0  0  0  0  0  0  0  0  0  0  0  0
  159.7730  200.8140  146.0670 S   0  0  2  0  0  0  0  0  0  0  0  0
  162.2060  206.3820  146.5370 O   0  0  0  0  0  0  0  0  0  0  0  0
  162.0610  206.9840  147.8040 C   0  0  0  0  0  3  0  0  0  0  0  0
  163.0730  207.9290  147.9760 O   0  0  0  0  0  1  0  0  0  0  0  0
  160.8240  207.6280  147.8620 O   0  0  0  0  0  1  0  0  0  0  0  0
  161.6020  207.8300  151.0950 O   0  0  0  0  0  0  0  0  0  0  0  0
  162.0520  209.0850  151.5140 C   0  0  0  0  0  2  0  0  0  0  0  0
  161.6810  211.2320  150.1950 C   0  0  0  0  0  0  0  0  0  0  0  0
  162.3040  209.9520  150.3640 N   0  0  0  0  0  2  0  0  0  0  0  0
  161.0520  211.7710  151.1530 O   0  0  0  0  0  0  0  0  0  0  0  0
  161.8120  211.9390  148.9150 C   0  0  0  0  0  0  0  0  0  0  0  0
  161.1400  212.9970  148.7000 O   0  0  0  0  0  0  0  0  0  0  0  0
  162.7720  211.4470  147.8660 C   0  0  0  0  0  1  0  0  0  0  0  0
  160.7240  207.3840  154.5180 C   0  0  0  0  0  2  0  0  0  0  0  0
  160.3160  208.8390  154.7040 C   0  0  0  0  0  2  0  0  0  0  0  0
  159.9840  209.1020  156.1430 C   0  0  0  0  0  3  0  0  0  0  0  0
  159.0240  209.9440  156.5490 C   0  0  0  0  0  3  0  0  0  0  0  0
  158.1140  210.7500  155.6510 C   0  0  1  0  0  3  0  0  0  0  0  0
  157.2960  212.3510  157.2050 O   0  0  0  0  0  0  0  0  0  0  0  0
  157.0280  211.4960  156.3850 C   0  0  0  0  0  0  0  0  0  0  0  0
  155.5070  210.3810  154.7980 C   0  0  0  0  0  1  0  0  0  0  0  0
  155.5940  211.2340  156.0380 C   0  0  0  0  0  2  0  0  0  0  0  0
  158.8940  211.6010  154.6410 C   0  0  0  0  0  2  0  0  0  0  0  0
  157.8880  213.8270  153.8960 C   0  0  1  0  0  0  0  0  0  0  0  0
  156.5770  213.5610  151.2160 C   0  0  0  0  0  2  0  0  0  0  0  0
  158.0570  213.1450  151.3750 C   0  0  2  0  0  3  0  0  0  0  0  0
  158.7890  213.3110  152.7510 C   0  0  2  0  0  0  0  0  0  0  0  0
  154.4770  214.2360  152.2510 N   0  0  0  0  0  1  0  0  0  0  0  0
  155.7710  213.6300  152.5120 C   0  0  2  0  0  3  0  0  0  0  0  0
  157.9820  212.3410  153.6500 C   0  0  1  0  0  3  0  0  0  0  0  0
  158.7520  214.4170  151.6910 C   0  0  0  0  0  2  0  0  0  0  0  0
  158.6520  214.4320  155.0700 C   0  0  0  0  0  1  0  0  0  0  0  0
  156.5210  214.4450  153.5630 C   0  0  0  0  0  2  0  0  0  0  0  0
  1  5  1  6  0  0  0
  1  3  1  0  0  0  0
  2  1  1  0  0  0  0
  2  3  1  0  0  0  0
  3 30  1  1  0  0  0
  4  5  2  0  0  0  0
  6  4  1  0  0  0  0
  7  6  1  0  0  0  0
  8  7  1  0  0  0  0
 10  9  1  6  0  0  0
 10  8  1  0  0  0  0
 11 10  1  1  0  0  0
 12 14  1  6  0  0  0
 12 11  1  0  0  0  0
 13 12  1  0  0  0  0
 13 11  1  0  0  0  0
 14 17  1  0  0  0  0
 17 16  2  6  0  0  0
 17 15  1  0  0  0  0
 18 10  1  0  0  0  0
 18 19  1  0  0  0  0
 19 21  1  0  0  0  0
 19 20  1  0  0  0  0
 22 23  1  0  0  0  0
 22  2  1  0  0  0  0
 24 25  1  0  0  0  0
 24 26  2  0  0  0  0
 25 23  1  0  0  0  0
 27 24  1  0  0  0  0
 28 27  2  0  0  0  0
 29 27  1  0  0  0  0
 30 31  1  0  0  0  0
 31 32  1  0  0  0  0
 32 33  2  0  0  0  0
 34 39  1  1  0  0  0
 34 36  1  0  0  0  0
 34 33  1  0  0  0  0
 36 35  2  0  0  0  0
 37 38  1  0  0  0  0
 38 36  1  0  0  0  0
 40 48  1  1  0  0  0
 41 45  1  0  0  0  0
 42 41  1  1  0  0  0
 42 47  1  0  0  0  0
 42 43  1  0  0  0  0
 43 47  1  1  0  0  0
 43 46  1  0  0  0  0
 43 40  1  0  0  0  0
 45 44  1  6  0  0  0
 45 49  1  0  0  0  0
 46 40  1  0  0  0  0
 46 39  1  1  0  0  0
 49 40  1  0  0  0  0
M  END
>  <MODEL>
9

>  <REMARK>
 VINA RESULT:      -3.6      3.130      5.899
  Name = 
  22 active torsions:
  status: ('A' for Active; 'I' for Inactive)
    1  A    between atoms: C_1  and  C_15
    2  A    between atoms: C_1  and  C_26
    3  A    between atoms: C_2  and  C_20
    4  A    between atoms: C_2  and  C_38
    5  A    between atoms: C_2  and  C_39
    6  A    between atoms: C_3  and  O_19
    7  A    between atoms: C_3  and  N_46
    8  A    between atoms: C_4  and  C_45
    9  A    between atoms: C_6  and  C_28
   10  A    between atoms: C_6  and  C_34
   11  A    between atoms: C_7  and  C_35
   12  A    between atoms: C_7  and  S_40
   13  A    between atoms: C_9  and  C_25
   14  A    between atoms: C_11  and  C_42
   15  A    between atoms: C_13  and  C_28
   16  A    between atoms: C_15  and  C_31
   17  A    between atoms: N_16  and  O_19
   18  A    between atoms: C_22  and  O_36
   19  A    between atoms: C_26  and  C_45
   20  A    between atoms: C_29  and  C_39
   21  A    between atoms: C_32  and  C_38
   22  A    between atoms: O_36  and  C_45
                            x       y       z     vdW  Elec       q    Type
                         _______ _______ _______ _____ _____    ______ ____

>  <TORSDO>
F 22

$$$$
