=
 OpenBabel11072410463D

 38 41  0  0  1  0  0  0  0  0999 V2000
  162.1470  206.8510  149.9640 C   0  0  2  0  0  3  0  0  0  0  0  0
  161.8860  207.2610  152.0220 C   0  0  1  0  0  3  0  0  0  0  0  0
  160.5990  206.6530  150.8910 S   0  0  0  0  0  0  0  0  0  0  0  0
  162.9720  207.3430  151.0560 N   0  0  0  0  0  2  0  0  0  0  0  0
  161.5410  208.6630  152.5330 C   0  0  1  0  0  3  0  0  0  0  0  0
  160.2860  209.8350  153.9770 N   0  0  0  0  0  0  0  0  0  0  0  0
  160.4440  209.2180  151.8410 O   0  0  0  0  0  0  0  0  0  0  0  0
  160.0970  210.0510  156.2890 O   0  0  0  0  0  0  0  0  0  0  0  0
  159.8890  210.1570  152.6740 N   0  0  0  0  0  2  0  0  0  0  0  0
  159.8450  210.5430  155.1540 C   0  0  0  0  0  0  0  0  0  0  0  0
  161.2270  208.7560  154.0080 C   0  0  1  0  0  3  0  0  0  0  0  0
  160.5320  207.5050  154.5490 C   0  0  0  0  0  1  0  0  0  0  0  0
  159.1010  211.8280  155.0910 C   0  0  0  0  0  0  0  0  0  0  0  0
  160.0060  213.9700  156.1270 O   0  0  0  0  0  0  0  0  0  0  0  0
  159.5700  212.9280  155.6220 C   0  0  0  0  0  0  0  0  0  0  0  0
  157.7660  211.8900  154.4000 C   0  0  0  0  0  2  0  0  0  0  0  0
  155.6640  210.6830  155.0170 C   0  0  0  0  0  1  0  0  0  0  0  0
  156.5400  211.8800  155.3430 C   0  0  0  0  0  0  0  0  0  0  0  0
  156.9540  211.7460  156.8100 C   0  0  0  0  0  1  0  0  0  0  0  0
  155.7480  213.0370  155.1400 O   0  0  0  0  0  0  0  0  0  0  0  0
  155.9770  213.5620  153.8550 C   0  0  0  0  0  2  0  0  0  0  0  0
  154.6620  213.9980  153.2450 C   0  0  0  0  0  1  0  0  0  0  0  0
  161.9790  207.8900  148.9550 N   0  0  0  0  0  2  0  0  0  0  0  0
  162.3940  207.3520  147.7270 N   0  0  0  0  0  2  0  0  0  0  0  0
  161.3090  206.5150  147.2380 C   0  0  0  0  0  2  0  0  0  0  0  0
  161.8480  205.4640  146.2620 C   0  0  1  0  0  3  0  0  0  0  0  0
  161.2350  202.7090  146.2230 S   0  0  0  0  0  0  0  0  0  0  0  0
  161.5880  203.9850  148.3160 C   0  0  0  0  0  2  0  0  0  0  0  0
  160.7290  202.7830  147.9700 C   0  0  2  0  0  3  0  0  0  0  0  0
  162.1680  204.1090  146.9240 C   0  0  2  0  0  3  0  0  0  0  0  0
  161.2350  201.5480  148.6960 C   0  0  0  0  0  2  0  0  0  0  0  0
  160.7240  201.5210  150.1230 C   0  0  0  0  0  2  0  0  0  0  0  0
  160.7320  202.9270  150.6860 C   0  0  0  0  0  3  0  0  0  0  0  0
  161.8330  203.0420  151.7140 C   0  0  0  0  0  2  0  0  0  0  0  0
  160.3990  202.8670  152.1620 C   0  0  0  0  0  2  0  0  0  0  0  0
  161.5680  205.5970  143.7710 C   0  0  0  0  0  1  0  0  0  0  0  0
  160.8830  205.2740  145.0870 C   0  0  2  0  0  3  0  0  0  0  0  0
  159.7250  206.1390  145.2310 N   0  0  0  0  0  1  0  0  0  0  0  0
  1 23  1  6  0  0  0
  1  3  1  0  0  0  0
  1  4  1  0  0  0  0
  2  3  1  6  0  0  0
  2  5  1  0  0  0  0
  4  2  1  0  0  0  0
  5  7  1  6  0  0  0
  5 11  1  0  0  0  0
  6 11  1  0  0  0  0
  6 10  1  0  0  0  0
  7  9  1  0  0  0  0
  9  6  1  0  0  0  0
 10  8  2  0  0  0  0
 11 12  1  6  0  0  0
 13 10  1  0  0  0  0
 13 15  2  0  0  0  0
 15 14  2  0  0  0  0
 16 13  1  0  0  0  0
 16 18  1  0  0  0  0
 17 18  1  0  0  0  0
 18 19  1  0  0  0  0
 20 18  1  0  0  0  0
 21 20  1  0  0  0  0
 22 21  1  0  0  0  0
 24 23  1  0  0  0  0
 25 24  1  0  0  0  0
 26 25  1  1  0  0  0
 27 30  1  0  0  0  0
 27 29  1  0  0  0  0
 29 28  1  0  0  0  0
 29 31  1  1  0  0  0
 30 26  1  6  0  0  0
 30 28  1  0  0  0  0
 31 32  1  0  0  0  0
 32 33  1  0  0  0  0
 33 34  1  0  0  0  0
 33 35  1  0  0  0  0
 34 35  1  0  0  0  0
 37 36  1  6  0  0  0
 37 38  1  0  0  0  0
 37 26  1  0  0  0  0
M  END
>  <MODEL>
1

>  <REMARK>
 VINA RESULT:      -6.6      0.000      0.000
  Name = 
  15 active torsions:
  status: ('A' for Active; 'I' for Inactive)
    1  A    between atoms: O_1  and  C_12
    2  A    between atoms: O_1  and  C_17
    3  A    between atoms: C_2  and  C_11
    4  A    between atoms: N_3  and  C_23
    5  A    between atoms: N_3  and  N_36
    6  A    between atoms: C_4  and  C_18
    7  A    between atoms: C_7  and  C_24
    8  A    between atoms: C_7  and  C_31
    9  A    between atoms: C_11  and  C_35
   10  A    between atoms: C_12  and  C_31
   11  A    between atoms: C_14  and  C_23
   12  A    between atoms: C_14  and  C_25
   13  A    between atoms: C_14  and  C_28
   14  A    between atoms: C_16  and  N_36
   15  A    between atoms: C_27  and  C_35
                            x       y       z     vdW  Elec       q    Type
                         _______ _______ _______ _____ _____    ______ ____

>  <TORSDO>
F 15

$$$$
=
 OpenBabel11072410463D

 38 41  0  0  1  0  0  0  0  0999 V2000
  160.7060  210.7160  152.8050 C   0  0  2  0  0  3  0  0  0  0  0  0
  161.3180  208.7840  152.2030 C   0  0  1  0  0  3  0  0  0  0  0  0
  162.3720  210.2640  152.2460 S   0  0  0  0  0  0  0  0  0  0  0  0
  160.0860  209.4070  152.6650 N   0  0  0  0  0  2  0  0  0  0  0  0
  161.1390  208.2870  150.7650 C   0  0  1  0  0  3  0  0  0  0  0  0
  161.5010  206.5840  149.3500 N   0  0  0  0  0  0  0  0  0  0  0  0
  162.2600  208.5880  149.9620 O   0  0  0  0  0  0  0  0  0  0  0  0
  160.7950  204.3750  149.1230 O   0  0  0  0  0  0  0  0  0  0  0  0
  162.2570  207.6840  148.9300 N   0  0  0  0  0  2  0  0  0  0  0  0
  161.3230  205.3810  148.5730 C   0  0  0  0  0  0  0  0  0  0  0  0
  160.8740  206.8070  150.6180 C   0  0  1  0  0  3  0  0  0  0  0  0
  161.5860  205.9670  151.6800 C   0  0  0  0  0  1  0  0  0  0  0  0
  161.7370  205.2720  147.1500 C   0  0  0  0  0  0  0  0  0  0  0  0
  164.1080  204.6380  146.4740 O   0  0  0  0  0  0  0  0  0  0  0  0
  162.9560  204.9430  146.8060 C   0  0  0  0  0  0  0  0  0  0  0  0
  160.7410  205.5420  146.0550 C   0  0  0  0  0  2  0  0  0  0  0  0
  159.4440  204.2680  144.3370 C   0  0  0  0  0  1  0  0  0  0  0  0
  160.8410  204.6000  144.8320 C   0  0  0  0  0  0  0  0  0  0  0  0
  161.5850  205.2580  143.6680 C   0  0  0  0  0  1  0  0  0  0  0  0
  161.4500  203.3740  145.1990 O   0  0  0  0  0  0  0  0  0  0  0  0
  160.4790  202.3610  145.2980 C   0  0  0  0  0  2  0  0  0  0  0  0
  160.8500  201.4130  146.4190 C   0  0  0  0  0  1  0  0  0  0  0  0
  160.1140  211.6550  151.8600 N   0  0  0  0  0  2  0  0  0  0  0  0
  158.7500  211.7580  152.1720 N   0  0  0  0  0  2  0  0  0  0  0  0
  158.5730  212.9960  152.9160 C   0  0  0  0  0  2  0  0  0  0  0  0
  157.4430  212.8430  153.9400 C   0  0  1  0  0  3  0  0  0  0  0  0
  159.6550  212.8850  155.6930 S   0  0  0  0  0  0  0  0  0  0  0  0
  158.1540  210.9290  155.4580 C   0  0  0  0  0  2  0  0  0  0  0  0
  159.6280  211.0680  155.7920 C   0  0  2  0  0  3  0  0  0  0  0  0
  157.9280  212.4210  155.3410 C   0  0  2  0  0  3  0  0  0  0  0  0
  159.8840  210.6360  157.2270 C   0  0  0  0  0  2  0  0  0  0  0  0
  160.6750  209.3420  157.2610 C   0  0  0  0  0  2  0  0  0  0  0  0
  160.1060  208.3800  156.2380 C   0  0  0  0  0  3  0  0  0  0  0  0
  160.0350  206.9980  156.8460 C   0  0  0  0  0  2  0  0  0  0  0  0
  161.1610  207.3470  155.8990 C   0  0  0  0  0  2  0  0  0  0  0  0
  156.2170  214.4210  155.4590 C   0  0  0  0  0  1  0  0  0  0  0  0
  156.6130  214.1290  154.0230 C   0  0  2  0  0  3  0  0  0  0  0  0
  155.4050  214.0100  153.2250 N   0  0  0  0  0  1  0  0  0  0  0  0
  1 23  1  6  0  0  0
  2  3  1  6  0  0  0
  2  4  1  0  0  0  0
  3  1  1  0  0  0  0
  4  1  1  0  0  0  0
  5  7  1  6  0  0  0
  5  2  1  0  0  0  0
  6 11  1  0  0  0  0
  9  6  1  0  0  0  0
  9  7  1  0  0  0  0
 10  8  2  0  0  0  0
 10  6  1  0  0  0  0
 11  5  1  0  0  0  0
 11 12  1  1  0  0  0
 13 10  1  0  0  0  0
 14 15  2  0  0  0  0
 15 13  2  0  0  0  0
 16 13  1  0  0  0  0
 17 18  1  0  0  0  0
 18 20  1  0  0  0  0
 18 16  1  0  0  0  0
 19 18  1  0  0  0  0
 20 21  1  0  0  0  0
 21 22  1  0  0  0  0
 23 24  1  0  0  0  0
 24 25  1  0  0  0  0
 26 25  1  6  0  0  0
 26 37  1  0  0  0  0
 27 29  1  0  0  0  0
 28 29  1  0  0  0  0
 29 31  1  1  0  0  0
 30 26  1  6  0  0  0
 30 28  1  0  0  0  0
 30 27  1  0  0  0  0
 31 32  1  0  0  0  0
 33 34  1  0  0  0  0
 33 32  1  0  0  0  0
 35 33  1  0  0  0  0
 35 34  1  0  0  0  0
 37 36  1  1  0  0  0
 38 37  1  0  0  0  0
M  END
>  <MODEL>
2

>  <REMARK>
 VINA RESULT:      -6.1      3.447     10.303
  Name = 
  15 active torsions:
  status: ('A' for Active; 'I' for Inactive)
    1  A    between atoms: O_1  and  C_12
    2  A    between atoms: O_1  and  C_17
    3  A    between atoms: C_2  and  C_11
    4  A    between atoms: N_3  and  C_23
    5  A    between atoms: N_3  and  N_36
    6  A    between atoms: C_4  and  C_18
    7  A    between atoms: C_7  and  C_24
    8  A    between atoms: C_7  and  C_31
    9  A    between atoms: C_11  and  C_35
   10  A    between atoms: C_12  and  C_31
   11  A    between atoms: C_14  and  C_23
   12  A    between atoms: C_14  and  C_25
   13  A    between atoms: C_14  and  C_28
   14  A    between atoms: C_16  and  N_36
   15  A    between atoms: C_27  and  C_35
                            x       y       z     vdW  Elec       q    Type
                         _______ _______ _______ _____ _____    ______ ____

>  <TORSDO>
F 15

$$$$
=
 OpenBabel11072410463D

 38 41  0  0  1  0  0  0  0  0999 V2000
  160.7580  213.6000  144.7330 C   0  0  2  0  0  3  0  0  0  0  0  0
  161.1170  213.7930  146.8080 C   0  0  1  0  0  3  0  0  0  0  0  0
  162.3920  213.6340  145.5220 S   0  0  0  0  0  0  0  0  0  0  0  0
  159.9520  213.7230  145.9380 N   0  0  0  0  0  2  0  0  0  0  0  0
  161.1370  212.5810  147.7440 C   0  0  1  0  0  3  0  0  0  0  0  0
  161.3040  211.9100  149.8780 N   0  0  0  0  0  0  0  0  0  0  0  0
  162.4500  212.1200  147.9780 O   0  0  0  0  0  0  0  0  0  0  0  0
  160.0600  212.1240  151.8370 O   0  0  0  0  0  0  0  0  0  0  0  0
  162.4230  211.4490  149.1740 N   0  0  0  0  0  2  0  0  0  0  0  0
  160.9680  211.5000  151.2200 C   0  0  0  0  0  0  0  0  0  0  0  0
  160.4960  212.7940  149.0950 C   0  0  1  0  0  3  0  0  0  0  0  0
  160.6690  214.2210  149.6170 C   0  0  0  0  0  1  0  0  0  0  0  0
  161.6490  210.3750  151.9140 C   0  0  0  0  0  0  0  0  0  0  0  0
  161.6180  210.1290  154.4480 O   0  0  0  0  0  0  0  0  0  0  0  0
  161.6290  210.2500  153.2160 C   0  0  0  0  0  0  0  0  0  0  0  0
  162.3880  209.3370  151.1150 C   0  0  0  0  0  2  0  0  0  0  0  0
  160.4600  207.9600  151.9160 C   0  0  0  0  0  1  0  0  0  0  0  0
  161.6830  207.9640  151.0150 C   0  0  0  0  0  0  0  0  0  0  0  0
  161.1930  207.6800  149.5930 C   0  0  0  0  0  1  0  0  0  0  0  0
  162.5370  206.9320  151.4760 O   0  0  0  0  0  0  0  0  0  0  0  0
  161.8660  206.1340  152.4210 C   0  0  0  0  0  2  0  0  0  0  0  0
  161.6880  204.7360  151.8690 C   0  0  0  0  0  1  0  0  0  0  0  0
  160.5430  212.2970  144.1170 N   0  0  0  0  0  2  0  0  0  0  0  0
  161.1140  212.3400  142.8360 N   0  0  0  0  0  2  0  0  0  0  0  0
  160.1140  211.8410  141.9040 C   0  0  0  0  0  2  0  0  0  0  0  0
  160.7930  211.1520  140.7150 C   0  0  1  0  0  3  0  0  0  0  0  0
  158.3710  212.0650  139.5890 S   0  0  0  0  0  0  0  0  0  0  0  0
  159.3740  209.8690  139.0370 C   0  0  0  0  0  2  0  0  0  0  0  0
  157.9420  210.3640  139.1000 C   0  0  2  0  0  3  0  0  0  0  0  0
  159.9700  211.2080  139.4130 C   0  0  2  0  0  3  0  0  0  0  0  0
  157.3280  210.3770  137.7100 C   0  0  0  0  0  2  0  0  0  0  0  0
  155.9680  209.7060  137.7210 C   0  0  0  0  0  2  0  0  0  0  0  0
  155.4840  209.5780  139.1510 C   0  0  0  0  0  3  0  0  0  0  0  0
  154.4800  208.4520  139.2350 C   0  0  0  0  0  2  0  0  0  0  0  0
  154.0020  209.8860  139.1960 C   0  0  0  0  0  2  0  0  0  0  0  0
  162.1500  212.9030  139.5350 C   0  0  0  0  0  1  0  0  0  0  0  0
  162.1960  211.7240  140.4900 C   0  0  2  0  0  3  0  0  0  0  0  0
  163.0770  210.7110  139.9320 N   0  0  0  0  0  1  0  0  0  0  0  0
  1 23  1  1  0  0  0
  1  3  1  0  0  0  0
  1  4  1  0  0  0  0
  2  3  1  6  0  0  0
  2  5  1  0  0  0  0
  4  2  1  0  0  0  0
  5  7  1  1  0  0  0
  5 11  1  0  0  0  0
  6 10  1  0  0  0  0
  7  9  1  0  0  0  0
  9  6  1  0  0  0  0
 10  8  2  0  0  0  0
 10 13  1  0  0  0  0
 11 12  1  1  0  0  0
 11  6  1  0  0  0  0
 13 15  2  0  0  0  0
 15 14  2  0  0  0  0
 16 13  1  0  0  0  0
 18 16  1  0  0  0  0
 18 20  1  0  0  0  0
 18 17  1  0  0  0  0
 19 18  1  0  0  0  0
 20 21  1  0  0  0  0
 22 21  1  0  0  0  0
 24 23  1  0  0  0  0
 25 24  1  0  0  0  0
 26 25  1  1  0  0  0
 28 29  1  0  0  0  0
 28 30  1  0  0  0  0
 29 31  1  6  0  0  0
 29 27  1  0  0  0  0
 30 27  1  0  0  0  0
 30 26  1  1  0  0  0
 31 32  1  0  0  0  0
 32 33  1  0  0  0  0
 33 35  1  0  0  0  0
 33 34  1  0  0  0  0
 35 34  1  0  0  0  0
 37 36  1  6  0  0  0
 37 26  1  0  0  0  0
 38 37  1  0  0  0  0
M  END
>  <MODEL>
3

>  <REMARK>
 VINA RESULT:      -5.2      6.300      9.269
  Name = 
  15 active torsions:
  status: ('A' for Active; 'I' for Inactive)
    1  A    between atoms: O_1  and  C_12
    2  A    between atoms: O_1  and  C_17
    3  A    between atoms: C_2  and  C_11
    4  A    between atoms: N_3  and  C_23
    5  A    between atoms: N_3  and  N_36
    6  A    between atoms: C_4  and  C_18
    7  A    between atoms: C_7  and  C_24
    8  A    between atoms: C_7  and  C_31
    9  A    between atoms: C_11  and  C_35
   10  A    between atoms: C_12  and  C_31
   11  A    between atoms: C_14  and  C_23
   12  A    between atoms: C_14  and  C_25
   13  A    between atoms: C_14  and  C_28
   14  A    between atoms: C_16  and  N_36
   15  A    between atoms: C_27  and  C_35
                            x       y       z     vdW  Elec       q    Type
                         _______ _______ _______ _____ _____    ______ ____

>  <TORSDO>
F 15

$$$$
=
 OpenBabel11072410463D

 38 41  0  0  1  0  0  0  0  0999 V2000
  161.4800  212.7440  148.7330 C   0  0  2  0  0  3  0  0  0  0  0  0
  162.3130  210.9600  149.5040 C   0  0  1  0  0  3  0  0  0  0  0  0
  162.9800  211.9290  148.1190 S   0  0  0  0  0  0  0  0  0  0  0  0
  161.1530  211.7940  149.7850 N   0  0  0  0  0  2  0  0  0  0  0  0
  161.8550  209.5780  149.0290 C   0  0  1  0  0  3  0  0  0  0  0  0
  161.8590  207.3820  149.4880 N   0  0  0  0  0  0  0  0  0  0  0  0
  162.8340  208.9460  148.2330 O   0  0  0  0  0  0  0  0  0  0  0  0
  160.9920  205.9810  151.1350 O   0  0  0  0  0  0  0  0  0  0  0  0
  162.5950  207.5970  148.3170 N   0  0  0  0  0  2  0  0  0  0  0  0
  161.4750  206.0790  149.9730 C   0  0  0  0  0  0  0  0  0  0  0  0
  161.4800  208.6080  150.1240 C   0  0  1  0  0  3  0  0  0  0  0  0
  162.3140  208.7900  151.3920 C   0  0  0  0  0  1  0  0  0  0  0  0
  161.6250  204.8410  149.1650 C   0  0  0  0  0  0  0  0  0  0  0  0
  160.2550  202.7460  149.6270 O   0  0  0  0  0  0  0  0  0  0  0  0
  160.9170  203.7670  149.4030 C   0  0  0  0  0  0  0  0  0  0  0  0
  162.6160  204.7990  148.0330 C   0  0  0  0  0  2  0  0  0  0  0  0
  160.7690  205.3730  146.4470 C   0  0  0  0  0  1  0  0  0  0  0  0
  162.0060  204.5130  146.6410 C   0  0  0  0  0  0  0  0  0  0  0  0
  162.9770  204.8640  145.5120 C   0  0  0  0  0  1  0  0  0  0  0  0
  161.5850  203.1630  146.5500 O   0  0  0  0  0  0  0  0  0  0  0  0
  161.1840  202.8670  145.2340 C   0  0  0  0  0  2  0  0  0  0  0  0
  159.9150  202.0420  145.2650 C   0  0  0  0  0  1  0  0  0  0  0  0
  160.4540  212.7180  147.6980 N   0  0  0  0  0  2  0  0  0  0  0  0
  161.1100  212.7360  146.4580 N   0  0  0  0  0  2  0  0  0  0  0  0
  160.8280  214.0230  145.8420 C   0  0  0  0  0  2  0  0  0  0  0  0
  160.5800  213.8500  144.3400 C   0  0  1  0  0  3  0  0  0  0  0  0
  162.6650  213.2000  142.5530 S   0  0  0  0  0  0  0  0  0  0  0  0
  160.5510  211.9170  142.6850 C   0  0  0  0  0  2  0  0  0  0  0  0
  161.5150  212.2080  141.5500 C   0  0  2  0  0  3  0  0  0  0  0  0
  161.3600  212.6780  143.7130 C   0  0  2  0  0  3  0  0  0  0  0  0
  162.2050  210.9280  141.1060 C   0  0  0  0  0  2  0  0  0  0  0  0
  161.9920  210.6940  139.6220 C   0  0  0  0  0  2  0  0  0  0  0  0
  162.3570  211.9510  138.8600 C   0  0  0  0  0  3  0  0  0  0  0  0
  161.1980  212.3480  137.9770 C   0  0  0  0  0  2  0  0  0  0  0  0
  162.3890  211.6340  137.3790 C   0  0  0  0  0  2  0  0  0  0  0  0
  158.7460  214.2470  142.6710 C   0  0  0  0  0  1  0  0  0  0  0  0
  159.0810  213.7120  144.0530 C   0  0  2  0  0  3  0  0  0  0  0  0
  158.3020  214.4470  145.0350 N   0  0  0  0  0  1  0  0  0  0  0  0
  1 23  1  6  0  0  0
  1  4  1  0  0  0  0
  2  3  1  6  0  0  0
  2  4  1  0  0  0  0
  3  1  1  0  0  0  0
  5  7  1  1  0  0  0
  5  2  1  0  0  0  0
  5 11  1  0  0  0  0
  6 10  1  0  0  0  0
  6 11  1  0  0  0  0
  7  9  1  0  0  0  0
  9  6  1  0  0  0  0
 10  8  2  0  0  0  0
 11 12  1  1  0  0  0
 13 15  2  0  0  0  0
 13 10  1  0  0  0  0
 15 14  2  0  0  0  0
 16 13  1  0  0  0  0
 17 18  1  0  0  0  0
 18 16  1  0  0  0  0
 19 18  1  0  0  0  0
 20 18  1  0  0  0  0
 21 22  1  0  0  0  0
 21 20  1  0  0  0  0
 24 23  1  0  0  0  0
 25 24  1  0  0  0  0
 26 25  1  1  0  0  0
 27 30  1  0  0  0  0
 28 30  1  0  0  0  0
 29 31  1  1  0  0  0
 29 27  1  0  0  0  0
 29 28  1  0  0  0  0
 30 26  1  6  0  0  0
 32 31  1  0  0  0  0
 33 32  1  0  0  0  0
 34 33  1  0  0  0  0
 35 34  1  0  0  0  0
 35 33  1  0  0  0  0
 37 36  1  6  0  0  0
 37 26  1  0  0  0  0
 37 38  1  0  0  0  0
M  END
>  <MODEL>
4

>  <REMARK>
 VINA RESULT:      -5.1      5.716     10.251
  Name = 
  15 active torsions:
  status: ('A' for Active; 'I' for Inactive)
    1  A    between atoms: O_1  and  C_12
    2  A    between atoms: O_1  and  C_17
    3  A    between atoms: C_2  and  C_11
    4  A    between atoms: N_3  and  C_23
    5  A    between atoms: N_3  and  N_36
    6  A    between atoms: C_4  and  C_18
    7  A    between atoms: C_7  and  C_24
    8  A    between atoms: C_7  and  C_31
    9  A    between atoms: C_11  and  C_35
   10  A    between atoms: C_12  and  C_31
   11  A    between atoms: C_14  and  C_23
   12  A    between atoms: C_14  and  C_25
   13  A    between atoms: C_14  and  C_28
   14  A    between atoms: C_16  and  N_36
   15  A    between atoms: C_27  and  C_35
                            x       y       z     vdW  Elec       q    Type
                         _______ _______ _______ _____ _____    ______ ____

>  <TORSDO>
F 15

$$$$
=
 OpenBabel11072410463D

 38 41  0  0  1  0  0  0  0  0999 V2000
  161.5660  206.0280  150.1890 C   0  0  2  0  0  3  0  0  0  0  0  0
  162.0100  207.0840  151.9660 C   0  0  1  0  0  3  0  0  0  0  0  0
  161.3950  205.3770  151.8740 S   0  0  0  0  0  0  0  0  0  0  0  0
  162.0390  207.3590  150.5360 N   0  0  0  0  0  2  0  0  0  0  0  0
  160.9840  207.9950  152.6460 C   0  0  1  0  0  3  0  0  0  0  0  0
  160.5670  210.0800  153.3610 N   0  0  0  0  0  0  0  0  0  0  0  0
  161.1750  208.0480  154.0440 O   0  0  0  0  0  0  0  0  0  0  0  0
  160.2950  212.1890  152.4080 O   0  0  0  0  0  0  0  0  0  0  0  0
  160.6230  209.2290  154.4710 N   0  0  0  0  0  2  0  0  0  0  0  0
  160.1170  211.4500  153.4160 C   0  0  0  0  0  0  0  0  0  0  0  0
  160.9540  209.4220  152.1500 C   0  0  1  0  0  3  0  0  0  0  0  0
  162.3300  209.9330  151.7230 C   0  0  0  0  0  1  0  0  0  0  0  0
  159.4530  212.0340  154.6110 C   0  0  0  0  0  0  0  0  0  0  0  0
  159.7230  211.0320  156.9350 O   0  0  0  0  0  0  0  0  0  0  0  0
  159.5960  211.5180  155.8050 C   0  0  0  0  0  0  0  0  0  0  0  0
  158.5880  213.2570  154.4670 C   0  0  0  0  0  2  0  0  0  0  0  0
  156.5040  213.4070  155.8420 C   0  0  0  0  0  1  0  0  0  0  0  0
  157.0650  212.9870  154.4940 C   0  0  0  0  0  0  0  0  0  0  0  0
  156.3260  213.7970  153.4280 C   0  0  0  0  0  1  0  0  0  0  0  0
  156.8040  211.6010  154.3550 O   0  0  0  0  0  0  0  0  0  0  0  0
  156.0780  211.1300  155.4650 C   0  0  0  0  0  2  0  0  0  0  0  0
  155.1710  209.9970  155.0330 C   0  0  0  0  0  1  0  0  0  0  0  0
  160.2510  206.1110  149.5640 N   0  0  0  0  0  2  0  0  0  0  0  0
  160.4220  205.8550  148.1950 N   0  0  0  0  0  2  0  0  0  0  0  0
  161.4400  204.8230  148.0750 C   0  0  0  0  0  2  0  0  0  0  0  0
  160.9870  203.7420  147.0880 C   0  0  1  0  0  3  0  0  0  0  0  0
  162.7670  205.2830  145.5300 S   0  0  0  0  0  0  0  0  0  0  0  0
  160.6780  204.3060  144.6250 C   0  0  0  0  0  2  0  0  0  0  0  0
  161.4630  205.5610  144.2900 C   0  0  2  0  0  3  0  0  0  0  0  0
  161.6460  203.8550  145.6990 C   0  0  2  0  0  3  0  0  0  0  0  0
  162.0580  205.4520  142.8960 C   0  0  0  0  0  2  0  0  0  0  0  0
  161.5750  206.5910  142.0200 C   0  0  0  0  0  2  0  0  0  0  0  0
  162.4290  206.6590  140.7700 C   0  0  0  0  0  3  0  0  0  0  0  0
  162.5630  208.1020  140.3410 C   0  0  0  0  0  2  0  0  0  0  0  0
  161.5860  207.1920  139.6300 C   0  0  0  0  0  2  0  0  0  0  0  0
  160.8320  201.2710  146.6710 C   0  0  0  0  0  1  0  0  0  0  0  0
  161.2100  202.3450  147.6760 C   0  0  2  0  0  3  0  0  0  0  0  0
  160.4090  202.1610  148.8740 N   0  0  0  0  0  1  0  0  0  0  0  0
  1 23  1  1  0  0  0
  1  4  1  0  0  0  0
  1  3  1  0  0  0  0
  2  4  1  6  0  0  0
  2  5  1  0  0  0  0
  3  2  1  0  0  0  0
  5  7  1  1  0  0  0
  6 10  1  0  0  0  0
  6  9  1  0  0  0  0
  7  9  1  0  0  0  0
  8 10  2  0  0  0  0
 10 13  1  0  0  0  0
 11 12  1  1  0  0  0
 11  5  1  0  0  0  0
 11  6  1  0  0  0  0
 13 15  2  0  0  0  0
 15 14  2  0  0  0  0
 16 18  1  0  0  0  0
 16 13  1  0  0  0  0
 18 17  1  0  0  0  0
 19 18  1  0  0  0  0
 20 18  1  0  0  0  0
 20 21  1  0  0  0  0
 22 21  1  0  0  0  0
 24 23  1  0  0  0  0
 25 24  1  0  0  0  0
 26 37  1  0  0  0  0
 26 25  1  1  0  0  0
 27 30  1  0  0  0  0
 28 30  1  0  0  0  0
 29 31  1  6  0  0  0
 29 28  1  0  0  0  0
 29 27  1  0  0  0  0
 30 26  1  1  0  0  0
 32 31  1  0  0  0  0
 33 32  1  0  0  0  0
 34 33  1  0  0  0  0
 35 34  1  0  0  0  0
 35 33  1  0  0  0  0
 37 36  1  6  0  0  0
 37 38  1  0  0  0  0
M  END
>  <MODEL>
5

>  <REMARK>
 VINA RESULT:      -5.1      2.071      4.775
  Name = 
  15 active torsions:
  status: ('A' for Active; 'I' for Inactive)
    1  A    between atoms: O_1  and  C_12
    2  A    between atoms: O_1  and  C_17
    3  A    between atoms: C_2  and  C_11
    4  A    between atoms: N_3  and  C_23
    5  A    between atoms: N_3  and  N_36
    6  A    between atoms: C_4  and  C_18
    7  A    between atoms: C_7  and  C_24
    8  A    between atoms: C_7  and  C_31
    9  A    between atoms: C_11  and  C_35
   10  A    between atoms: C_12  and  C_31
   11  A    between atoms: C_14  and  C_23
   12  A    between atoms: C_14  and  C_25
   13  A    between atoms: C_14  and  C_28
   14  A    between atoms: C_16  and  N_36
   15  A    between atoms: C_27  and  C_35
                            x       y       z     vdW  Elec       q    Type
                         _______ _______ _______ _____ _____    ______ ____

>  <TORSDO>
F 15

$$$$
=
 OpenBabel11072410463D

 38 41  0  0  1  0  0  0  0  0999 V2000
  161.3070  207.7490  155.4060 C   0  0  2  0  0  3  0  0  0  0  0  0
  160.6290  209.7520  155.3870 C   0  0  1  0  0  3  0  0  0  0  0  0
  159.6100  208.2850  155.0490 S   0  0  0  0  0  0  0  0  0  0  0  0
  161.8910  209.0650  155.6170 N   0  0  0  0  0  2  0  0  0  0  0  0
  160.7400  210.6340  154.1400 C   0  0  1  0  0  3  0  0  0  0  0  0
  159.6990  212.1670  152.8750 N   0  0  0  0  0  0  0  0  0  0  0  0
  160.2050  210.0000  152.9990 O   0  0  0  0  0  0  0  0  0  0  0  0
  158.9550  214.3620  153.1190 O   0  0  0  0  0  0  0  0  0  0  0  0
  159.8560  210.9970  152.1230 N   0  0  0  0  0  2  0  0  0  0  0  0
  159.2590  213.4270  152.3270 C   0  0  0  0  0  0  0  0  0  0  0  0
  160.0790  211.9890  154.2430 C   0  0  1  0  0  3  0  0  0  0  0  0
  158.8210  211.9730  155.1120 C   0  0  0  0  0  1  0  0  0  0  0  0
  159.1410  213.6730  150.8650 C   0  0  0  0  0  0  0  0  0  0  0  0
  157.0740  213.0000  149.5400 O   0  0  0  0  0  0  0  0  0  0  0  0
  158.0760  213.3280  150.1880 C   0  0  0  0  0  0  0  0  0  0  0  0
  160.2670  214.3390  150.1230 C   0  0  0  0  0  2  0  0  0  0  0  0
  161.9800  214.3020  148.3000 C   0  0  0  0  0  1  0  0  0  0  0  0
  160.8300  213.5330  148.9290 C   0  0  0  0  0  0  0  0  0  0  0  0
  161.3860  212.1780  149.3710 C   0  0  0  0  0  1  0  0  0  0  0  0
  159.8430  213.3760  147.9250 O   0  0  0  0  0  0  0  0  0  0  0  0
  160.3730  213.7130  146.6660 C   0  0  0  0  0  2  0  0  0  0  0  0
  160.1450  212.5700  145.6990 C   0  0  0  0  0  1  0  0  0  0  0  0
  161.8810  207.1300  154.2180 N   0  0  0  0  0  2  0  0  0  0  0  0
  160.8260  206.5530  153.4950 N   0  0  0  0  0  2  0  0  0  0  0  0
  161.2290  205.1970  153.1560 C   0  0  0  0  0  2  0  0  0  0  0  0
  160.7290  204.8280  151.7560 C   0  0  1  0  0  3  0  0  0  0  0  0
  161.2820  207.2240  150.3690 S   0  0  0  0  0  0  0  0  0  0  0  0
  161.0840  205.0270  149.2440 C   0  0  0  0  0  2  0  0  0  0  0  0
  160.7840  206.4470  148.8000 C   0  0  2  0  0  3  0  0  0  0  0  0
  161.5680  205.4410  150.6170 C   0  0  2  0  0  3  0  0  0  0  0  0
  161.7450  206.8670  147.7000 C   0  0  0  0  0  2  0  0  0  0  0  0
  161.3760  206.2040  146.3870 C   0  0  0  0  0  2  0  0  0  0  0  0
  162.0410  204.8450  146.3090 C   0  0  0  0  0  3  0  0  0  0  0  0
  162.4790  204.5900  144.8860 C   0  0  0  0  0  2  0  0  0  0  0  0
  161.2150  203.9470  145.4110 C   0  0  0  0  0  2  0  0  0  0  0  0
  161.9570  202.6490  151.9650 C   0  0  0  0  0  1  0  0  0  0  0  0
  160.6380  203.3070  151.5980 C   0  0  2  0  0  3  0  0  0  0  0  0
  160.3100  202.9540  150.2270 N   0  0  0  0  0  1  0  0  0  0  0  0
  1 23  1  6  0  0  0
  1  4  1  0  0  0  0
  2  3  1  6  0  0  0
  2  4  1  0  0  0  0
  3  1  1  0  0  0  0
  5  7  1  6  0  0  0
  5 11  1  0  0  0  0
  5  2  1  0  0  0  0
  6 11  1  0  0  0  0
  9  6  1  0  0  0  0
  9  7  1  0  0  0  0
 10  6  1  0  0  0  0
 10  8  2  0  0  0  0
 11 12  1  1  0  0  0
 13 10  1  0  0  0  0
 14 15  2  0  0  0  0
 15 13  2  0  0  0  0
 16 13  1  0  0  0  0
 17 18  1  0  0  0  0
 18 19  1  0  0  0  0
 18 16  1  0  0  0  0
 20 18  1  0  0  0  0
 21 20  1  0  0  0  0
 22 21  1  0  0  0  0
 24 23  1  0  0  0  0
 25 24  1  0  0  0  0
 26 25  1  1  0  0  0
 27 30  1  0  0  0  0
 28 30  1  0  0  0  0
 29 31  1  6  0  0  0
 29 28  1  0  0  0  0
 29 27  1  0  0  0  0
 30 26  1  1  0  0  0
 32 31  1  0  0  0  0
 33 32  1  0  0  0  0
 34 35  1  0  0  0  0
 34 33  1  0  0  0  0
 35 33  1  0  0  0  0
 37 26  1  0  0  0  0
 37 36  1  6  0  0  0
 38 37  1  0  0  0  0
M  END
>  <MODEL>
6

>  <REMARK>
 VINA RESULT:      -5.0      3.505      5.947
  Name = 
  15 active torsions:
  status: ('A' for Active; 'I' for Inactive)
    1  A    between atoms: O_1  and  C_12
    2  A    between atoms: O_1  and  C_17
    3  A    between atoms: C_2  and  C_11
    4  A    between atoms: N_3  and  C_23
    5  A    between atoms: N_3  and  N_36
    6  A    between atoms: C_4  and  C_18
    7  A    between atoms: C_7  and  C_24
    8  A    between atoms: C_7  and  C_31
    9  A    between atoms: C_11  and  C_35
   10  A    between atoms: C_12  and  C_31
   11  A    between atoms: C_14  and  C_23
   12  A    between atoms: C_14  and  C_25
   13  A    between atoms: C_14  and  C_28
   14  A    between atoms: C_16  and  N_36
   15  A    between atoms: C_27  and  C_35
                            x       y       z     vdW  Elec       q    Type
                         _______ _______ _______ _____ _____    ______ ____

>  <TORSDO>
F 15

$$$$
=
 OpenBabel11072410463D

 38 41  0  0  1  0  0  0  0  0999 V2000
  161.5930  205.3430  151.7060 C   0  0  2  0  0  3  0  0  0  0  0  0
  161.9550  207.1350  152.7700 C   0  0  1  0  0  3  0  0  0  0  0  0
  161.7330  205.4900  153.5100 S   0  0  0  0  0  0  0  0  0  0  0  0
  161.7870  206.7470  151.3770 N   0  0  0  0  0  2  0  0  0  0  0  0
  160.8200  208.0750  153.1860 C   0  0  1  0  0  3  0  0  0  0  0  0
  160.2540  210.2100  153.5790 N   0  0  0  0  0  0  0  0  0  0  0  0
  160.8070  208.2970  154.5800 O   0  0  0  0  0  0  0  0  0  0  0  0
  160.0710  212.1810  152.3500 O   0  0  0  0  0  0  0  0  0  0  0  0
  160.1710  209.4960  154.7800 N   0  0  0  0  0  2  0  0  0  0  0  0
  159.7670  211.5570  153.4040 C   0  0  0  0  0  0  0  0  0  0  0  0
  160.8270  209.4320  152.5220 C   0  0  1  0  0  3  0  0  0  0  0  0
  162.2370  209.9470  152.2330 C   0  0  0  0  0  1  0  0  0  0  0  0
  158.9250  212.2480  154.4160 C   0  0  0  0  0  0  0  0  0  0  0  0
  159.9330  213.5150  156.3810 O   0  0  0  0  0  0  0  0  0  0  0  0
  159.4460  212.9000  155.4230 C   0  0  0  0  0  0  0  0  0  0  0  0
  157.4260  212.2100  154.2970 C   0  0  0  0  0  2  0  0  0  0  0  0
  155.3380  213.3390  153.5080 C   0  0  0  0  0  1  0  0  0  0  0  0
  156.7590  213.5720  153.9910 C   0  0  0  0  0  0  0  0  0  0  0  0
  156.6700  214.4520  155.2390 C   0  0  0  0  0  1  0  0  0  0  0  0
  157.4450  214.2370  152.9450 O   0  0  0  0  0  0  0  0  0  0  0  0
  156.6740  214.2130  151.7680 C   0  0  0  0  0  2  0  0  0  0  0  0
  157.5580  213.8580  150.5910 C   0  0  0  0  0  1  0  0  0  0  0  0
  160.2410  204.9280  151.3560 N   0  0  0  0  0  2  0  0  0  0  0  0
  160.0780  205.1500  149.9800 N   0  0  0  0  0  2  0  0  0  0  0  0
  161.2460  204.5920  149.3150 C   0  0  0  0  0  2  0  0  0  0  0  0
  161.1720  204.8500  147.8060 C   0  0  1  0  0  3  0  0  0  0  0  0
  163.0830  206.8100  148.4950 S   0  0  0  0  0  0  0  0  0  0  0  0
  160.8390  207.3650  147.6060 C   0  0  0  0  0  2  0  0  0  0  0  0
  161.7790  208.0780  148.5600 C   0  0  2  0  0  3  0  0  0  0  0  0
  161.7790  206.2010  147.3770 C   0  0  2  0  0  3  0  0  0  0  0  0
  162.2910  209.3640  147.9310 C   0  0  0  0  0  2  0  0  0  0  0  0
  161.8740  210.5650  148.7570 C   0  0  0  0  0  2  0  0  0  0  0  0
  161.7000  211.7630  147.8470 C   0  0  0  0  0  3  0  0  0  0  0  0
  162.9590  212.5980  147.8820 C   0  0  0  0  0  2  0  0  0  0  0  0
  161.7490  213.0250  148.6840 C   0  0  0  0  0  2  0  0  0  0  0  0
  161.6890  203.9200  145.5330 C   0  0  0  0  0  1  0  0  0  0  0  0
  161.8190  203.6990  147.0300 C   0  0  2  0  0  3  0  0  0  0  0  0
  161.1880  202.4350  147.3680 N   0  0  0  0  0  1  0  0  0  0  0  0
  1 23  1  1  0  0  0
  1  3  1  0  0  0  0
  2  4  1  6  0  0  0
  2  5  1  0  0  0  0
  2  3  1  0  0  0  0
  4  1  1  0  0  0  0
  5  7  1  1  0  0  0
  6  9  1  0  0  0  0
  7  9  1  0  0  0  0
  8 10  2  0  0  0  0
 10  6  1  0  0  0  0
 10 13  1  0  0  0  0
 11 12  1  1  0  0  0
 11  5  1  0  0  0  0
 11  6  1  0  0  0  0
 13 15  2  0  0  0  0
 15 14  2  0  0  0  0
 16 13  1  0  0  0  0
 17 18  1  0  0  0  0
 18 16  1  0  0  0  0
 18 19  1  0  0  0  0
 20 18  1  0  0  0  0
 21 20  1  0  0  0  0
 22 21  1  0  0  0  0
 24 23  1  0  0  0  0
 25 24  1  0  0  0  0
 26 25  1  1  0  0  0
 27 29  1  0  0  0  0
 28 29  1  0  0  0  0
 29 31  1  6  0  0  0
 30 28  1  0  0  0  0
 30 26  1  1  0  0  0
 30 27  1  0  0  0  0
 31 32  1  0  0  0  0
 33 34  1  0  0  0  0
 33 35  1  0  0  0  0
 33 32  1  0  0  0  0
 34 35  1  0  0  0  0
 37 36  1  6  0  0  0
 37 38  1  0  0  0  0
 37 26  1  0  0  0  0
M  END
>  <MODEL>
7

>  <REMARK>
 VINA RESULT:      -4.9      2.650      4.406
  Name = 
  15 active torsions:
  status: ('A' for Active; 'I' for Inactive)
    1  A    between atoms: O_1  and  C_12
    2  A    between atoms: O_1  and  C_17
    3  A    between atoms: C_2  and  C_11
    4  A    between atoms: N_3  and  C_23
    5  A    between atoms: N_3  and  N_36
    6  A    between atoms: C_4  and  C_18
    7  A    between atoms: C_7  and  C_24
    8  A    between atoms: C_7  and  C_31
    9  A    between atoms: C_11  and  C_35
   10  A    between atoms: C_12  and  C_31
   11  A    between atoms: C_14  and  C_23
   12  A    between atoms: C_14  and  C_25
   13  A    between atoms: C_14  and  C_28
   14  A    between atoms: C_16  and  N_36
   15  A    between atoms: C_27  and  C_35
                            x       y       z     vdW  Elec       q    Type
                         _______ _______ _______ _____ _____    ______ ____

>  <TORSDO>
F 15

$$$$
=
 OpenBabel11072410463D

 38 41  0  0  1  0  0  0  0  0999 V2000
  160.9930  211.2970  152.0990 C   0  0  2  0  0  3  0  0  0  0  0  0
  161.2090  209.2190  152.4290 C   0  0  1  0  0  3  0  0  0  0  0  0
  162.5360  210.3570  151.9310 S   0  0  0  0  0  0  0  0  0  0  0  0
  160.1250  210.1900  152.4740 N   0  0  0  0  0  2  0  0  0  0  0  0
  160.9360  208.1900  151.3270 C   0  0  1  0  0  3  0  0  0  0  0  0
  161.2730  206.0730  150.6670 N   0  0  0  0  0  0  0  0  0  0  0  0
  161.9660  208.1690  150.3620 O   0  0  0  0  0  0  0  0  0  0  0  0
  160.6780  203.9420  151.3980 O   0  0  0  0  0  0  0  0  0  0  0  0
  161.9270  206.9300  149.7740 N   0  0  0  0  0  2  0  0  0  0  0  0
  161.0980  204.6580  150.4470 C   0  0  0  0  0  0  0  0  0  0  0  0
  160.7460  206.7690  151.8010 C   0  0  1  0  0  3  0  0  0  0  0  0
  161.5920  206.4320  153.0300 C   0  0  0  0  0  1  0  0  0  0  0  0
  161.3950  204.0010  149.1470 C   0  0  0  0  0  0  0  0  0  0  0  0
  161.3500  205.2750  146.9430 O   0  0  0  0  0  0  0  0  0  0  0  0
  161.3730  204.6590  148.0160 C   0  0  0  0  0  0  0  0  0  0  0  0
  161.7330  202.5350  149.1060 C   0  0  0  0  0  2  0  0  0  0  0  0
  161.5230  200.4000  147.8200 C   0  0  0  0  0  1  0  0  0  0  0  0
  160.7980  201.6720  148.2270 C   0  0  0  0  0  0  0  0  0  0  0  0
  159.5390  201.2480  148.9850 C   0  0  0  0  0  1  0  0  0  0  0  0
  160.4680  202.3570  147.0320 O   0  0  0  0  0  0  0  0  0  0  0  0
  160.8070  201.5730  145.9130 C   0  0  0  0  0  2  0  0  0  0  0  0
  159.7100  201.6700  144.8750 C   0  0  0  0  0  1  0  0  0  0  0  0
  160.6000  211.8230  150.7980 N   0  0  0  0  0  2  0  0  0  0  0  0
  159.7790  212.9380  151.0280 N   0  0  0  0  0  2  0  0  0  0  0  0
  160.2520  214.0040  150.1580 C   0  0  0  0  0  2  0  0  0  0  0  0
  159.1350  214.4500  149.2090 C   0  0  1  0  0  3  0  0  0  0  0  0
  159.3100  212.7490  146.9640 S   0  0  0  0  0  0  0  0  0  0  0  0
  161.0240  214.4530  147.5040 C   0  0  0  0  0  2  0  0  0  0  0  0
  161.0900  213.1010  146.8190 C   0  0  2  0  0  3  0  0  0  0  0  0
  159.5270  214.3930  147.7200 C   0  0  2  0  0  3  0  0  0  0  0  0
  161.4550  213.2720  145.3530 C   0  0  0  0  0  2  0  0  0  0  0  0
  160.4120  212.6220  144.4650 C   0  0  0  0  0  2  0  0  0  0  0  0
  161.0640  212.1710  143.1740 C   0  0  0  0  0  3  0  0  0  0  0  0
  160.7490  213.1700  142.0850 C   0  0  0  0  0  2  0  0  0  0  0  0
  159.9820  211.8690  142.1580 C   0  0  0  0  0  2  0  0  0  0  0  0
  156.7460  214.0870  148.5270 C   0  0  0  0  0  1  0  0  0  0  0  0
  157.8580  213.6400  149.4600 C   0  0  2  0  0  3  0  0  0  0  0  0
  157.4080  213.8080  150.8310 N   0  0  0  0  0  1  0  0  0  0  0  0
  1 23  1  6  0  0  0
  1  4  1  0  0  0  0
  2  3  1  6  0  0  0
  2  4  1  0  0  0  0
  3  1  1  0  0  0  0
  5  7  1  6  0  0  0
  5 11  1  0  0  0  0
  5  2  1  0  0  0  0
  6 11  1  0  0  0  0
  9  7  1  0  0  0  0
  9  6  1  0  0  0  0
 10  6  1  0  0  0  0
 10  8  2  0  0  0  0
 11 12  1  1  0  0  0
 13 10  1  0  0  0  0
 14 15  2  0  0  0  0
 15 13  2  0  0  0  0
 16 13  1  0  0  0  0
 17 18  1  0  0  0  0
 18 19  1  0  0  0  0
 18 16  1  0  0  0  0
 20 18  1  0  0  0  0
 21 20  1  0  0  0  0
 22 21  1  0  0  0  0
 23 24  1  0  0  0  0
 25 24  1  0  0  0  0
 26 37  1  0  0  0  0
 26 25  1  1  0  0  0
 27 30  1  0  0  0  0
 28 30  1  0  0  0  0
 29 31  1  6  0  0  0
 29 27  1  0  0  0  0
 29 28  1  0  0  0  0
 30 26  1  1  0  0  0
 32 31  1  0  0  0  0
 33 32  1  0  0  0  0
 34 35  1  0  0  0  0
 34 33  1  0  0  0  0
 35 33  1  0  0  0  0
 37 36  1  6  0  0  0
 37 38  1  0  0  0  0
M  END
>  <MODEL>
8

>  <REMARK>
 VINA RESULT:      -4.5      4.628     10.012
  Name = 
  15 active torsions:
  status: ('A' for Active; 'I' for Inactive)
    1  A    between atoms: O_1  and  C_12
    2  A    between atoms: O_1  and  C_17
    3  A    between atoms: C_2  and  C_11
    4  A    between atoms: N_3  and  C_23
    5  A    between atoms: N_3  and  N_36
    6  A    between atoms: C_4  and  C_18
    7  A    between atoms: C_7  and  C_24
    8  A    between atoms: C_7  and  C_31
    9  A    between atoms: C_11  and  C_35
   10  A    between atoms: C_12  and  C_31
   11  A    between atoms: C_14  and  C_23
   12  A    between atoms: C_14  and  C_25
   13  A    between atoms: C_14  and  C_28
   14  A    between atoms: C_16  and  N_36
   15  A    between atoms: C_27  and  C_35
                            x       y       z     vdW  Elec       q    Type
                         _______ _______ _______ _____ _____    ______ ____

>  <TORSDO>
F 15

$$$$
=
 OpenBabel11072410463D

 38 41  0  0  1  0  0  0  0  0999 V2000
  161.3270  207.4330  156.1690 C   0  0  2  0  0  3  0  0  0  0  0  0
  160.2060  209.1670  156.6250 C   0  0  1  0  0  3  0  0  0  0  0  0
  159.5300  207.6040  155.9900 S   0  0  0  0  0  0  0  0  0  0  0  0
  161.6080  208.7750  156.6580 N   0  0  0  0  0  2  0  0  0  0  0  0
  160.0080  210.2960  155.6090 C   0  0  1  0  0  3  0  0  0  0  0  0
  158.6770  211.9880  154.9780 N   0  0  0  0  0  0  0  0  0  0  0  0
  159.2290  209.8810  154.5080 O   0  0  0  0  0  0  0  0  0  0  0  0
  157.9810  214.0310  155.8570 O   0  0  0  0  0  0  0  0  0  0  0  0
  158.6700  211.0140  153.9740 N   0  0  0  0  0  2  0  0  0  0  0  0
  158.1030  213.3040  154.8330 C   0  0  0  0  0  0  0  0  0  0  0  0
  159.3710  211.5530  156.1520 C   0  0  1  0  0  3  0  0  0  0  0  0
  158.3530  211.2740  157.2580 C   0  0  0  0  0  1  0  0  0  0  0  0
  157.6410  213.8420  153.5260 C   0  0  0  0  0  0  0  0  0  0  0  0
  155.1960  213.7750  152.8200 O   0  0  0  0  0  0  0  0  0  0  0  0
  156.3840  213.8080  153.1670 C   0  0  0  0  0  0  0  0  0  0  0  0
  158.6330  214.4500  152.5720 C   0  0  0  0  0  2  0  0  0  0  0  0
  158.4000  212.2600  151.3860 C   0  0  0  0  0  1  0  0  0  0  0  0
  158.7610  213.7260  151.2120 C   0  0  0  0  0  0  0  0  0  0  0  0
  157.8000  214.3020  150.1700 C   0  0  0  0  0  1  0  0  0  0  0  0
  160.0990  213.7670  150.7500 O   0  0  0  0  0  0  0  0  0  0  0  0
  160.1260  213.9260  149.3520 C   0  0  0  0  0  2  0  0  0  0  0  0
  160.9550  212.8210  148.7320 C   0  0  0  0  0  1  0  0  0  0  0  0
  161.9310  207.2420  154.8560 N   0  0  0  0  0  2  0  0  0  0  0  0
  160.8880  207.0160  153.9450 N   0  0  0  0  0  2  0  0  0  0  0  0
  161.4270  207.2390  152.6120 C   0  0  0  0  0  2  0  0  0  0  0  0
  161.0410  206.0830  151.6830 C   0  0  1  0  0  3  0  0  0  0  0  0
  162.0020  207.7820  149.6450 S   0  0  0  0  0  0  0  0  0  0  0  0
  160.9110  205.6060  149.1870 C   0  0  0  0  0  2  0  0  0  0  0  0
  160.9760  206.9120  148.4170 C   0  0  2  0  0  3  0  0  0  0  0  0
  161.7720  206.1080  150.3270 C   0  0  2  0  0  3  0  0  0  0  0  0
  161.7700  206.7270  147.1340 C   0  0  0  0  0  2  0  0  0  0  0  0
  160.8610  206.2810  146.0050 C   0  0  0  0  0  2  0  0  0  0  0  0
  161.3320  204.9400  145.4830 C   0  0  0  0  0  3  0  0  0  0  0  0
  161.6830  205.0740  144.0200 C   0  0  0  0  0  2  0  0  0  0  0  0
  160.3620  204.4590  144.4230 C   0  0  0  0  0  2  0  0  0  0  0  0
  162.4010  203.9740  151.7480 C   0  0  0  0  0  1  0  0  0  0  0  0
  161.2510  204.7360  152.3830 C   0  0  2  0  0  3  0  0  0  0  0  0
  160.0500  203.9220  152.2930 N   0  0  0  0  0  1  0  0  0  0  0  0
  1 23  1  6  0  0  0
  1  4  1  0  0  0  0
  2  3  1  6  0  0  0
  2  4  1  0  0  0  0
  3  1  1  0  0  0  0
  5  7  1  6  0  0  0
  5 11  1  0  0  0  0
  5  2  1  0  0  0  0
  6 11  1  0  0  0  0
  9  7  1  0  0  0  0
  9  6  1  0  0  0  0
 10  6  1  0  0  0  0
 10  8  2  0  0  0  0
 11 12  1  1  0  0  0
 13 10  1  0  0  0  0
 14 15  2  0  0  0  0
 15 13  2  0  0  0  0
 16 13  1  0  0  0  0
 18 17  1  0  0  0  0
 18 16  1  0  0  0  0
 19 18  1  0  0  0  0
 20 18  1  0  0  0  0
 21 20  1  0  0  0  0
 22 21  1  0  0  0  0
 24 23  1  0  0  0  0
 25 24  1  0  0  0  0
 26 37  1  0  0  0  0
 26 25  1  1  0  0  0
 27 30  1  0  0  0  0
 28 30  1  0  0  0  0
 29 31  1  6  0  0  0
 29 28  1  0  0  0  0
 29 27  1  0  0  0  0
 30 26  1  1  0  0  0
 32 31  1  0  0  0  0
 33 32  1  0  0  0  0
 34 35  1  0  0  0  0
 34 33  1  0  0  0  0
 35 33  1  0  0  0  0
 37 36  1  6  0  0  0
 38 37  1  0  0  0  0
M  END
>  <MODEL>
9

>  <REMARK>
 VINA RESULT:      -4.4      2.832      5.526
  Name = 
  15 active torsions:
  status: ('A' for Active; 'I' for Inactive)
    1  A    between atoms: O_1  and  C_12
    2  A    between atoms: O_1  and  C_17
    3  A    between atoms: C_2  and  C_11
    4  A    between atoms: N_3  and  C_23
    5  A    between atoms: N_3  and  N_36
    6  A    between atoms: C_4  and  C_18
    7  A    between atoms: C_7  and  C_24
    8  A    between atoms: C_7  and  C_31
    9  A    between atoms: C_11  and  C_35
   10  A    between atoms: C_12  and  C_31
   11  A    between atoms: C_14  and  C_23
   12  A    between atoms: C_14  and  C_25
   13  A    between atoms: C_14  and  C_28
   14  A    between atoms: C_16  and  N_36
   15  A    between atoms: C_27  and  C_35
                            x       y       z     vdW  Elec       q    Type
                         _______ _______ _______ _____ _____    ______ ____

>  <TORSDO>
F 15

$$$$
