=
 OpenBabel11072415253D

 25 27  0  0  1  0  0  0  0  0999 V2000
  160.4590  206.5870  148.2410 C   0  0  0  0  0  2  0  0  0  0  0  0
  161.8170  209.6610  151.1450 C   0  0  0  0  0  2  0  0  0  0  0  0
  161.8110  206.6060  148.9410 C   0  0  2  0  0  3  0  0  0  0  0  0
  162.2420  210.1290  149.7870 N   0  0  0  0  0  2  0  0  0  0  0  0
  161.8120  209.2570  148.6560 C   0  0  0  0  0  2  0  0  0  0  0  0
  161.7860  207.5640  150.1070 C   0  0  1  0  0  3  0  0  0  0  0  0
  162.4660  207.8740  148.7920 C   0  0  1  0  0  3  0  0  0  0  0  0
  161.5750  208.1660  151.2420 C   0  0  2  0  0  3  0  0  0  0  0  0
  161.0090  207.5210  152.3390 O   0  0  0  0  0  0  0  0  0  0  0  0
  160.9130  208.1440  153.6120 C   0  0  0  0  0  2  0  0  0  0  0  0
  160.7790  207.0980  154.7050 C   0  0  0  0  0  2  0  0  0  0  0  0
  161.2020  209.0230  155.6940 C   0  0  0  0  0  1  0  0  0  0  0  0
  161.0630  207.6600  155.9510 O   0  0  0  0  0  0  0  0  0  0  0  0
  160.6140  206.1700  146.7870 C   0  0  0  0  0  2  0  0  0  0  0  0
  161.7240  205.2420  146.6440 N   0  0  0  0  0  2  0  0  0  0  0  0
  161.3630  204.3210  145.5790 C   0  0  0  0  0  2  0  0  0  0  0  0
  161.5240  202.8860  146.0470 C   0  0  0  0  0  2  0  0  0  0  0  0
  160.9470  201.5150  148.0890 C   0  0  0  0  0  0  0  0  0  0  0  0
  161.1230  200.4400  147.4590 O   0  0  0  0  0  0  0  0  0  0  0  0
  161.1020  202.7740  147.4350 N   0  0  0  0  0  2  0  0  0  0  0  0
  160.5610  201.4740  149.5270 C   0  0  0  0  0  2  0  0  0  0  0  0
  160.6010  202.8730  150.1140 C   0  0  0  0  0  2  0  0  0  0  0  0
  161.3970  202.8650  151.4010 C   0  0  1  0  0  3  0  0  0  0  0  0
  161.8060  204.2240  151.7380 C   0  0  0  0  0  2  0  0  0  0  0  0
  160.6580  203.6180  152.4250 N   0  0  0  0  0  2  0  0  0  0  0  0
  2  8  1  0  0  0  0
  3  1  1  6  0  0  0
  3  6  1  0  0  0  0
  4  2  1  0  0  0  0
  5  7  1  0  0  0  0
  5  4  1  0  0  0  0
  6  8  1  0  0  0  0
  7  3  1  0  0  0  0
  7  6  1  0  0  0  0
  8  9  1  0  0  0  0
  9 10  1  0  0  0  0
 10 11  1  0  0  0  0
 11 13  1  0  0  0  0
 12 13  1  0  0  0  0
 14  1  1  0  0  0  0
 15 14  1  0  0  0  0
 16 17  1  0  0  0  0
 16 15  1  0  0  0  0
 17 20  1  0  0  0  0
 18 21  1  0  0  0  0
 19 18  2  0  0  0  0
 20 18  1  0  0  0  0
 21 22  1  0  0  0  0
 22 23  1  0  0  0  0
 23 24  1  0  0  0  0
 23 25  1  0  0  0  0
 24 25  1  0  0  0  0
M  END
>  <MODEL>
1

>  <REMARK>
 VINA RESULT:      -6.2      0.000      0.000
  Name = 
  13 active torsions:
  status: ('A' for Active; 'I' for Inactive)
    1  A    between atoms: C_2  and  C_3
    2  A    between atoms: C_2  and  C_5
    3  A    between atoms: C_4  and  C_16
    4  A    between atoms: C_5  and  C_11
    5  A    between atoms: C_10  and  C_22
    6  A    between atoms: C_10  and  N_25
    7  A    between atoms: C_14  and  C_18
    8  A    between atoms: C_14  and  O_24
    9  A    between atoms: C_16  and  C_19
   10  A    between atoms: C_18  and  O_21
   11  A    between atoms: C_19  and  N_23
   12  A    between atoms: C_20  and  O_24
   13  A    between atoms: C_22  and  N_23
                            x       y       z     vdW  Elec       q    Type
                         _______ _______ _______ _____ _____    ______ ____

>  <TORSDO>
F 13

$$$$
=
 OpenBabel11072415253D

 25 27  0  0  1  0  0  0  0  0999 V2000
  160.7200  204.5200  151.9820 C   0  0  0  0  0  2  0  0  0  0  0  0
  160.8000  208.8500  152.9640 C   0  0  0  0  0  2  0  0  0  0  0  0
  161.8740  205.2530  152.6500 C   0  0  2  0  0  3  0  0  0  0  0  0
  161.3700  208.7070  151.5870 N   0  0  0  0  0  2  0  0  0  0  0  0
  161.3650  207.3180  151.0420 C   0  0  0  0  0  2  0  0  0  0  0  0
  161.4190  206.6020  153.1540 C   0  0  1  0  0  3  0  0  0  0  0  0
  162.2600  206.4190  151.9100 C   0  0  1  0  0  3  0  0  0  0  0  0
  160.8680  207.5870  153.8020 C   0  0  2  0  0  3  0  0  0  0  0  0
  160.2510  207.4180  155.0400 O   0  0  0  0  0  0  0  0  0  0  0  0
  160.4780  208.3090  156.1230 C   0  0  0  0  0  2  0  0  0  0  0  0
  161.9260  208.2350  156.5740 C   0  0  0  0  0  2  0  0  0  0  0  0
  161.3780  210.3710  156.5760 C   0  0  0  0  0  1  0  0  0  0  0  0
  162.3580  209.4850  157.0210 O   0  0  0  0  0  0  0  0  0  0  0  0
  161.1530  203.1310  151.5370 C   0  0  0  0  0  2  0  0  0  0  0  0
  160.9670  202.9790  150.1030 N   0  0  0  0  0  2  0  0  0  0  0  0
  160.8810  201.5520  149.8440 C   0  0  0  0  0  2  0  0  0  0  0  0
  160.5800  201.3010  148.3770 C   0  0  0  0  0  2  0  0  0  0  0  0
  160.9760  202.4420  146.1580 C   0  0  0  0  0  0  0  0  0  0  0  0
  160.5860  201.4250  145.5270 O   0  0  0  0  0  0  0  0  0  0  0  0
  161.0270  202.4360  147.5850 N   0  0  0  0  0  2  0  0  0  0  0  0
  161.4020  203.6570  145.4110 C   0  0  0  0  0  2  0  0  0  0  0  0
  162.3630  204.4740  146.2550 C   0  0  0  0  0  2  0  0  0  0  0  0
  161.9270  205.9240  146.2680 C   0  0  1  0  0  3  0  0  0  0  0  0
  160.8860  206.1190  147.2720 C   0  0  0  0  0  2  0  0  0  0  0  0
  162.2690  206.5140  147.5700 N   0  0  0  0  0  2  0  0  0  0  0  0
  2  8  1  0  0  0  0
  3  1  1  6  0  0  0
  3  6  1  0  0  0  0
  4  2  1  0  0  0  0
  5  4  1  0  0  0  0
  5  7  1  0  0  0  0
  6  8  1  0  0  0  0
  7  3  1  0  0  0  0
  7  6  1  0  0  0  0
  8  9  1  0  0  0  0
  9 10  1  0  0  0  0
 10 11  1  0  0  0  0
 11 13  1  0  0  0  0
 12 13  1  0  0  0  0
 14  1  1  0  0  0  0
 15 14  1  0  0  0  0
 16 15  1  0  0  0  0
 17 16  1  0  0  0  0
 18 20  1  0  0  0  0
 19 18  2  0  0  0  0
 20 17  1  0  0  0  0
 21 18  1  0  0  0  0
 21 22  1  0  0  0  0
 22 23  1  0  0  0  0
 23 24  1  0  0  0  0
 23 25  1  0  0  0  0
 24 25  1  0  0  0  0
M  END
>  <MODEL>
2

>  <REMARK>
 VINA RESULT:      -6.1      1.617      3.719
  Name = 
  13 active torsions:
  status: ('A' for Active; 'I' for Inactive)
    1  A    between atoms: C_2  and  C_3
    2  A    between atoms: C_2  and  C_5
    3  A    between atoms: C_4  and  C_16
    4  A    between atoms: C_5  and  C_11
    5  A    between atoms: C_10  and  C_22
    6  A    between atoms: C_10  and  N_25
    7  A    between atoms: C_14  and  C_18
    8  A    between atoms: C_14  and  O_24
    9  A    between atoms: C_16  and  C_19
   10  A    between atoms: C_18  and  O_21
   11  A    between atoms: C_19  and  N_23
   12  A    between atoms: C_20  and  O_24
   13  A    between atoms: C_22  and  N_23
                            x       y       z     vdW  Elec       q    Type
                         _______ _______ _______ _____ _____    ______ ____

>  <TORSDO>
F 13

$$$$
=
 OpenBabel11072415253D

 25 27  0  0  1  0  0  0  0  0999 V2000
  162.3700  207.4120  149.4480 C   0  0  0  0  0  2  0  0  0  0  0  0
  161.3230  207.2450  153.7600 C   0  0  0  0  0  2  0  0  0  0  0  0
  160.9630  207.2610  150.0100 C   0  0  2  0  0  3  0  0  0  0  0  0
  161.5570  205.8350  153.3160 N   0  0  0  0  0  2  0  0  0  0  0  0
  161.9920  205.6830  151.8970 C   0  0  0  0  0  2  0  0  0  0  0  0
  160.9450  207.6070  151.4800 C   0  0  1  0  0  3  0  0  0  0  0  0
  160.8850  206.1880  150.9600 C   0  0  1  0  0  3  0  0  0  0  0  0
  160.9750  208.2030  152.6360 C   0  0  2  0  0  3  0  0  0  0  0  0
  160.8860  209.5880  152.7690 O   0  0  0  0  0  0  0  0  0  0  0  0
  160.1150  210.1990  153.7940 C   0  0  0  0  0  2  0  0  0  0  0  0
  160.9890  211.1030  154.6460 C   0  0  0  0  0  2  0  0  0  0  0  0
  162.6620  210.6430  156.0070 C   0  0  0  0  0  1  0  0  0  0  0  0
  162.3030  210.6320  154.6600 O   0  0  0  0  0  0  0  0  0  0  0  0
  162.4020  207.0230  147.9770 C   0  0  0  0  0  2  0  0  0  0  0  0
  161.2310  206.2320  147.6380 N   0  0  0  0  0  2  0  0  0  0  0  0
  161.1890  206.1520  146.1870 C   0  0  0  0  0  2  0  0  0  0  0  0
  162.1450  205.0840  145.6900 C   0  0  0  0  0  2  0  0  0  0  0  0
  160.9720  202.8480  145.7630 C   0  0  0  0  0  0  0  0  0  0  0  0
  160.3800  203.0850  144.6770 O   0  0  0  0  0  0  0  0  0  0  0  0
  161.8450  203.8170  146.3410 N   0  0  0  0  0  2  0  0  0  0  0  0
  160.7490  201.5500  146.4580 C   0  0  0  0  0  2  0  0  0  0  0  0
  161.3280  201.6060  147.8590 C   0  0  0  0  0  2  0  0  0  0  0  0
  160.2110  201.7420  148.8710 C   0  0  1  0  0  3  0  0  0  0  0  0
  160.6950  201.3720  150.1960 C   0  0  0  0  0  2  0  0  0  0  0  0
  160.5650  202.7910  149.8380 N   0  0  0  0  0  2  0  0  0  0  0  0
  3  1  1  1  0  0  0
  3  7  1  0  0  0  0
  3  6  1  0  0  0  0
  4  2  1  0  0  0  0
  5  4  1  0  0  0  0
  6  8  1  0  0  0  0
  7  6  1  0  0  0  0
  7  5  1  0  0  0  0
  8  9  1  0  0  0  0
  8  2  1  0  0  0  0
  9 10  1  0  0  0  0
 10 11  1  0  0  0  0
 11 13  1  0  0  0  0
 13 12  1  0  0  0  0
 14  1  1  0  0  0  0
 15 14  1  0  0  0  0
 16 15  1  0  0  0  0
 17 16  1  0  0  0  0
 17 20  1  0  0  0  0
 18 20  1  0  0  0  0
 18 21  1  0  0  0  0
 19 18  2  0  0  0  0
 21 22  1  0  0  0  0
 22 23  1  0  0  0  0
 23 25  1  0  0  0  0
 23 24  1  0  0  0  0
 25 24  1  0  0  0  0
M  END
>  <MODEL>
3

>  <REMARK>
 VINA RESULT:      -6.1      1.994      2.965
  Name = 
  13 active torsions:
  status: ('A' for Active; 'I' for Inactive)
    1  A    between atoms: C_2  and  C_3
    2  A    between atoms: C_2  and  C_5
    3  A    between atoms: C_4  and  C_16
    4  A    between atoms: C_5  and  C_11
    5  A    between atoms: C_10  and  C_22
    6  A    between atoms: C_10  and  N_25
    7  A    between atoms: C_14  and  C_18
    8  A    between atoms: C_14  and  O_24
    9  A    between atoms: C_16  and  C_19
   10  A    between atoms: C_18  and  O_21
   11  A    between atoms: C_19  and  N_23
   12  A    between atoms: C_20  and  O_24
   13  A    between atoms: C_22  and  N_23
                            x       y       z     vdW  Elec       q    Type
                         _______ _______ _______ _____ _____    ______ ____

>  <TORSDO>
F 13

$$$$
=
 OpenBabel11072415253D

 25 27  0  0  1  0  0  0  0  0999 V2000
  160.9580  206.1250  151.6110 C   0  0  0  0  0  2  0  0  0  0  0  0
  161.9340  210.2030  150.1490 C   0  0  0  0  0  2  0  0  0  0  0  0
  162.3500  206.7400  151.5730 C   0  0  2  0  0  3  0  0  0  0  0  0
  162.0460  209.2820  148.9740 N   0  0  0  0  0  2  0  0  0  0  0  0
  161.6840  207.8620  149.2470 C   0  0  0  0  0  2  0  0  0  0  0  0
  162.2580  208.2330  151.3700 C   0  0  1  0  0  3  0  0  0  0  0  0
  162.6590  207.2690  150.2760 C   0  0  1  0  0  3  0  0  0  0  0  0
  162.0680  209.5150  151.4950 C   0  0  2  0  0  3  0  0  0  0  0  0
  161.8260  210.1210  152.7260 O   0  0  0  0  0  0  0  0  0  0  0  0
  160.5170  210.2300  153.2680 C   0  0  0  0  0  2  0  0  0  0  0  0
  160.5220  209.8710  154.7430 C   0  0  0  0  0  2  0  0  0  0  0  0
  160.6560  207.6770  154.9250 C   0  0  0  0  0  1  0  0  0  0  0  0
  161.4280  208.8370  154.9860 O   0  0  0  0  0  0  0  0  0  0  0  0
  161.0200  204.6910  152.1160 C   0  0  0  0  0  2  0  0  0  0  0  0
  161.4670  203.8010  151.0570 N   0  0  0  0  0  2  0  0  0  0  0  0
  161.1900  202.4470  151.5060 C   0  0  0  0  0  2  0  0  0  0  0  0
  160.6940  201.5990  150.3490 C   0  0  0  0  0  2  0  0  0  0  0  0
  161.0430  201.7690  147.8520 C   0  0  0  0  0  0  0  0  0  0  0  0
  161.3030  200.5400  147.7710 O   0  0  0  0  0  0  0  0  0  0  0  0
  160.7590  202.3690  149.1160 N   0  0  0  0  0  2  0  0  0  0  0  0
  161.0430  202.6080  146.6220 C   0  0  0  0  0  2  0  0  0  0  0  0
  161.8140  203.8910  146.8700 C   0  0  0  0  0  2  0  0  0  0  0  0
  162.3790  204.4090  145.5650 C   0  0  1  0  0  3  0  0  0  0  0  0
  161.3320  205.0850  144.8060 C   0  0  0  0  0  2  0  0  0  0  0  0
  162.3100  205.8780  145.5640 N   0  0  0  0  0  2  0  0  0  0  0  0
  1 14  1  0  0  0  0
  2  8  1  0  0  0  0
  3  1  1  6  0  0  0
  4  5  1  0  0  0  0
  4  2  1  0  0  0  0
  5  7  1  0  0  0  0
  6  8  1  0  0  0  0
  6  3  1  0  0  0  0
  7  6  1  0  0  0  0
  7  3  1  0  0  0  0
  8  9  1  0  0  0  0
  9 10  1  0  0  0  0
 10 11  1  0  0  0  0
 11 13  1  0  0  0  0
 12 13  1  0  0  0  0
 15 16  1  0  0  0  0
 15 14  1  0  0  0  0
 17 16  1  0  0  0  0
 18 20  1  0  0  0  0
 19 18  2  0  0  0  0
 20 17  1  0  0  0  0
 21 22  1  0  0  0  0
 21 18  1  0  0  0  0
 23 22  1  0  0  0  0
 24 25  1  0  0  0  0
 24 23  1  0  0  0  0
 25 23  1  0  0  0  0
M  END
>  <MODEL>
4

>  <REMARK>
 VINA RESULT:      -6.0      1.344      3.665
  Name = 
  13 active torsions:
  status: ('A' for Active; 'I' for Inactive)
    1  A    between atoms: C_2  and  C_3
    2  A    between atoms: C_2  and  C_5
    3  A    between atoms: C_4  and  C_16
    4  A    between atoms: C_5  and  C_11
    5  A    between atoms: C_10  and  C_22
    6  A    between atoms: C_10  and  N_25
    7  A    between atoms: C_14  and  C_18
    8  A    between atoms: C_14  and  O_24
    9  A    between atoms: C_16  and  C_19
   10  A    between atoms: C_18  and  O_21
   11  A    between atoms: C_19  and  N_23
   12  A    between atoms: C_20  and  O_24
   13  A    between atoms: C_22  and  N_23
                            x       y       z     vdW  Elec       q    Type
                         _______ _______ _______ _____ _____    ______ ____

>  <TORSDO>
F 13

$$$$
=
 OpenBabel11072415253D

 25 27  0  0  1  0  0  0  0  0999 V2000
  161.6880  204.5920  151.4220 C   0  0  0  0  0  2  0  0  0  0  0  0
  162.0440  205.7690  147.1540 C   0  0  0  0  0  2  0  0  0  0  0  0
  160.5310  204.7100  150.4380 C   0  0  2  0  0  3  0  0  0  0  0  0
  161.8240  207.0280  147.9350 N   0  0  0  0  0  2  0  0  0  0  0  0
  161.7490  206.8500  149.4140 C   0  0  0  0  0  2  0  0  0  0  0  0
  161.0510  204.7680  149.0210 C   0  0  1  0  0  3  0  0  0  0  0  0
  160.5340  205.9780  149.7670 C   0  0  1  0  0  3  0  0  0  0  0  0
  161.5680  204.5100  147.8550 C   0  0  2  0  0  3  0  0  0  0  0  0
  161.8180  203.2120  147.4160 O   0  0  0  0  0  0  0  0  0  0  0  0
  160.8190  202.2020  147.4430 C   0  0  0  0  0  2  0  0  0  0  0  0
  161.3490  200.9510  148.1230 C   0  0  0  0  0  2  0  0  0  0  0  0
  159.8720  201.3070  149.7220 C   0  0  0  0  0  1  0  0  0  0  0  0
  161.2290  201.0660  149.5090 O   0  0  0  0  0  0  0  0  0  0  0  0
  161.2390  204.9780  152.8230 C   0  0  0  0  0  2  0  0  0  0  0  0
  161.9390  206.1730  153.2660 N   0  0  0  0  0  2  0  0  0  0  0  0
  160.9200  207.1640  153.5700 C   0  0  0  0  0  2  0  0  0  0  0  0
  160.6440  207.1930  155.0620 C   0  0  0  0  0  2  0  0  0  0  0  0
  160.9050  209.5430  155.9540 C   0  0  0  0  0  0  0  0  0  0  0  0
  162.1330  209.3630  156.1640 O   0  0  0  0  0  0  0  0  0  0  0  0
  160.0950  208.4900  155.4330 N   0  0  0  0  0  2  0  0  0  0  0  0
  160.2870  210.8620  156.2640 C   0  0  0  0  0  2  0  0  0  0  0  0
  159.5100  211.3660  155.0620 C   0  0  0  0  0  2  0  0  0  0  0  0
  160.4580  211.6190  153.9090 C   0  0  1  0  0  3  0  0  0  0  0  0
  159.9450  210.9880  152.6980 C   0  0  0  0  0  2  0  0  0  0  0  0
  159.7720  212.4330  152.8960 N   0  0  0  0  0  2  0  0  0  0  0  0
  1 14  1  0  0  0  0
  2  8  1  0  0  0  0
  2  4  1  0  0  0  0
  3  1  1  1  0  0  0
  4  5  1  0  0  0  0
  5  7  1  0  0  0  0
  6  7  1  0  0  0  0
  6  3  1  0  0  0  0
  7  3  1  0  0  0  0
  8  6  1  0  0  0  0
  9 10  1  0  0  0  0
  9  8  1  0  0  0  0
 10 11  1  0  0  0  0
 11 13  1  0  0  0  0
 13 12  1  0  0  0  0
 14 15  1  0  0  0  0
 15 16  1  0  0  0  0
 16 17  1  0  0  0  0
 17 20  1  0  0  0  0
 18 19  2  0  0  0  0
 18 21  1  0  0  0  0
 20 18  1  0  0  0  0
 22 21  1  0  0  0  0
 23 22  1  0  0  0  0
 24 25  1  0  0  0  0
 24 23  1  0  0  0  0
 25 23  1  0  0  0  0
M  END
>  <MODEL>
5

>  <REMARK>
 VINA RESULT:      -5.8      2.363      7.942
  Name = 
  13 active torsions:
  status: ('A' for Active; 'I' for Inactive)
    1  A    between atoms: C_2  and  C_3
    2  A    between atoms: C_2  and  C_5
    3  A    between atoms: C_4  and  C_16
    4  A    between atoms: C_5  and  C_11
    5  A    between atoms: C_10  and  C_22
    6  A    between atoms: C_10  and  N_25
    7  A    between atoms: C_14  and  C_18
    8  A    between atoms: C_14  and  O_24
    9  A    between atoms: C_16  and  C_19
   10  A    between atoms: C_18  and  O_21
   11  A    between atoms: C_19  and  N_23
   12  A    between atoms: C_20  and  O_24
   13  A    between atoms: C_22  and  N_23
                            x       y       z     vdW  Elec       q    Type
                         _______ _______ _______ _____ _____    ______ ____

>  <TORSDO>
F 13

$$$$
=
 OpenBabel11072415253D

 25 27  0  0  1  0  0  0  0  0999 V2000
  161.9140  206.0600  153.4630 C   0  0  0  0  0  2  0  0  0  0  0  0
  161.3270  210.2270  154.8830 C   0  0  0  0  0  2  0  0  0  0  0  0
  160.5690  206.7510  153.6450 C   0  0  2  0  0  3  0  0  0  0  0  0
  161.3120  209.3490  156.0960 N   0  0  0  0  0  2  0  0  0  0  0  0
  161.5670  207.9040  155.8330 C   0  0  0  0  0  2  0  0  0  0  0  0
  160.7590  208.2420  153.7820 C   0  0  1  0  0  3  0  0  0  0  0  0
  160.4460  207.3340  154.9500 C   0  0  1  0  0  3  0  0  0  0  0  0
  160.9960  209.5080  153.5890 C   0  0  2  0  0  3  0  0  0  0  0  0
  161.1170  210.0620  152.3160 O   0  0  0  0  0  0  0  0  0  0  0  0
  162.3350  210.0170  151.5870 C   0  0  0  0  0  2  0  0  0  0  0  0
  162.2960  208.8970  150.5600 C   0  0  0  0  0  2  0  0  0  0  0  0
  161.6850  208.2650  148.5380 C   0  0  0  0  0  1  0  0  0  0  0  0
  161.9290  209.4000  149.3110 O   0  0  0  0  0  0  0  0  0  0  0  0
  162.1920  205.8090  151.9890 C   0  0  0  0  0  2  0  0  0  0  0  0
  161.0750  205.1080  151.3780 N   0  0  0  0  0  2  0  0  0  0  0  0
  161.0830  203.7590  151.9210 C   0  0  0  0  0  2  0  0  0  0  0  0
  160.8880  202.7430  150.8110 C   0  0  0  0  0  2  0  0  0  0  0  0
  161.1610  202.6490  148.3010 C   0  0  0  0  0  0  0  0  0  0  0  0
  161.1300  201.3910  148.3100 O   0  0  0  0  0  0  0  0  0  0  0  0
  161.0760  203.3870  149.5190 N   0  0  0  0  0  2  0  0  0  0  0  0
  161.3030  203.3760  147.0080 C   0  0  0  0  0  2  0  0  0  0  0  0
  161.6820  204.8220  147.2660 C   0  0  0  0  0  2  0  0  0  0  0  0
  161.9510  205.5220  145.9510 C   0  0  1  0  0  3  0  0  0  0  0  0
  161.2260  204.8540  144.8770 C   0  0  0  0  0  2  0  0  0  0  0  0
  160.6950  206.0990  145.4500 N   0  0  0  0  0  2  0  0  0  0  0  0
  2  4  1  0  0  0  0
  3  1  1  1  0  0  0
  3  6  1  0  0  0  0
  3  7  1  0  0  0  0
  5  4  1  0  0  0  0
  6  7  1  0  0  0  0
  7  5  1  0  0  0  0
  8  6  1  0  0  0  0
  8  2  1  0  0  0  0
  9  8  1  0  0  0  0
 10  9  1  0  0  0  0
 11 10  1  0  0  0  0
 12 13  1  0  0  0  0
 13 11  1  0  0  0  0
 14  1  1  0  0  0  0
 15 16  1  0  0  0  0
 15 14  1  0  0  0  0
 17 16  1  0  0  0  0
 18 19  2  0  0  0  0
 18 20  1  0  0  0  0
 20 17  1  0  0  0  0
 21 22  1  0  0  0  0
 21 18  1  0  0  0  0
 23 22  1  0  0  0  0
 24 25  1  0  0  0  0
 24 23  1  0  0  0  0
 25 23  1  0  0  0  0
M  END
>  <MODEL>
6

>  <REMARK>
 VINA RESULT:      -5.8      2.004      5.113
  Name = 
  13 active torsions:
  status: ('A' for Active; 'I' for Inactive)
    1  A    between atoms: C_2  and  C_3
    2  A    between atoms: C_2  and  C_5
    3  A    between atoms: C_4  and  C_16
    4  A    between atoms: C_5  and  C_11
    5  A    between atoms: C_10  and  C_22
    6  A    between atoms: C_10  and  N_25
    7  A    between atoms: C_14  and  C_18
    8  A    between atoms: C_14  and  O_24
    9  A    between atoms: C_16  and  C_19
   10  A    between atoms: C_18  and  O_21
   11  A    between atoms: C_19  and  N_23
   12  A    between atoms: C_20  and  O_24
   13  A    between atoms: C_22  and  N_23
                            x       y       z     vdW  Elec       q    Type
                         _______ _______ _______ _____ _____    ______ ____

>  <TORSDO>
F 13

$$$$
=
 OpenBabel11072415253D

 25 27  0  0  1  0  0  0  0  0999 V2000
  160.4830  206.5170  148.3350 C   0  0  0  0  0  2  0  0  0  0  0  0
  161.7680  209.2820  151.5640 C   0  0  0  0  0  2  0  0  0  0  0  0
  161.7700  206.3990  149.1400 C   0  0  2  0  0  3  0  0  0  0  0  0
  162.3330  209.8170  150.2840 N   0  0  0  0  0  2  0  0  0  0  0  0
  161.9510  209.0580  149.0590 C   0  0  0  0  0  2  0  0  0  0  0  0
  161.7030  207.2710  150.3700 C   0  0  1  0  0  3  0  0  0  0  0  0
  162.5080  207.6290  149.1420 C   0  0  1  0  0  3  0  0  0  0  0  0
  161.4320  207.8030  151.5270 C   0  0  2  0  0  3  0  0  0  0  0  0
  160.7380  207.1190  152.5230 O   0  0  0  0  0  0  0  0  0  0  0  0
  161.4030  206.5100  153.6210 C   0  0  0  0  0  2  0  0  0  0  0  0
  161.2120  207.3360  154.8810 C   0  0  0  0  0  2  0  0  0  0  0  0
  160.0760  208.9190  155.9150 C   0  0  0  0  0  1  0  0  0  0  0  0
  160.2710  208.3440  154.6600 O   0  0  0  0  0  0  0  0  0  0  0  0
  160.7910  206.8160  146.8750 C   0  0  0  0  0  2  0  0  0  0  0  0
  161.5650  205.7340  146.2910 N   0  0  0  0  0  2  0  0  0  0  0  0
  161.1370  205.6180  144.9060 C   0  0  0  0  0  2  0  0  0  0  0  0
  161.0520  204.1580  144.5020 C   0  0  0  0  0  2  0  0  0  0  0  0
  160.5840  202.0390  145.7960 C   0  0  0  0  0  0  0  0  0  0  0  0
  159.8140  201.6170  144.8930 O   0  0  0  0  0  0  0  0  0  0  0  0
  161.2110  203.3150  145.6780 N   0  0  0  0  0  2  0  0  0  0  0  0
  160.8310  201.2050  147.0050 C   0  0  0  0  0  2  0  0  0  0  0  0
  161.3310  202.0770  148.1410 C   0  0  0  0  0  2  0  0  0  0  0  0
  160.4240  201.9230  149.3420 C   0  0  1  0  0  3  0  0  0  0  0  0
  161.2090  201.9990  150.5690 C   0  0  0  0  0  2  0  0  0  0  0  0
  160.4440  203.1700  150.1200 N   0  0  0  0  0  2  0  0  0  0  0  0
  3  1  1  6  0  0  0
  3  7  1  0  0  0  0
  3  6  1  0  0  0  0
  4  2  1  0  0  0  0
  5  7  1  0  0  0  0
  5  4  1  0  0  0  0
  6  8  1  0  0  0  0
  7  6  1  0  0  0  0
  8  2  1  0  0  0  0
  8  9  1  0  0  0  0
  9 10  1  0  0  0  0
 10 11  1  0  0  0  0
 13 11  1  0  0  0  0
 13 12  1  0  0  0  0
 14  1  1  0  0  0  0
 15 14  1  0  0  0  0
 16 15  1  0  0  0  0
 17 16  1  0  0  0  0
 17 20  1  0  0  0  0
 18 21  1  0  0  0  0
 19 18  2  0  0  0  0
 20 18  1  0  0  0  0
 21 22  1  0  0  0  0
 22 23  1  0  0  0  0
 23 25  1  0  0  0  0
 23 24  1  0  0  0  0
 25 24  1  0  0  0  0
M  END
>  <MODEL>
7

>  <REMARK>
 VINA RESULT:      -5.8      1.284      1.612
  Name = 
  13 active torsions:
  status: ('A' for Active; 'I' for Inactive)
    1  A    between atoms: C_2  and  C_3
    2  A    between atoms: C_2  and  C_5
    3  A    between atoms: C_4  and  C_16
    4  A    between atoms: C_5  and  C_11
    5  A    between atoms: C_10  and  C_22
    6  A    between atoms: C_10  and  N_25
    7  A    between atoms: C_14  and  C_18
    8  A    between atoms: C_14  and  O_24
    9  A    between atoms: C_16  and  C_19
   10  A    between atoms: C_18  and  O_21
   11  A    between atoms: C_19  and  N_23
   12  A    between atoms: C_20  and  O_24
   13  A    between atoms: C_22  and  N_23
                            x       y       z     vdW  Elec       q    Type
                         _______ _______ _______ _____ _____    ______ ____

>  <TORSDO>
F 13

$$$$
=
 OpenBabel11072415253D

 25 27  0  0  1  0  0  0  0  0999 V2000
  160.7700  202.6990  148.1590 C   0  0  0  0  0  2  0  0  0  0  0  0
  160.6590  206.1650  145.3840 C   0  0  0  0  0  2  0  0  0  0  0  0
  161.9840  203.4690  147.6570 C   0  0  2  0  0  3  0  0  0  0  0  0
  160.7870  204.9360  144.5380 N   0  0  0  0  0  2  0  0  0  0  0  0
  160.7710  203.6480  145.2890 C   0  0  0  0  0  2  0  0  0  0  0  0
  161.5570  204.7810  147.0420 C   0  0  1  0  0  3  0  0  0  0  0  0
  161.9860  203.5810  146.2270 C   0  0  1  0  0  3  0  0  0  0  0  0
  161.1260  205.9880  146.8170 C   0  0  2  0  0  3  0  0  0  0  0  0
  160.9460  206.9220  147.8350 O   0  0  0  0  0  0  0  0  0  0  0  0
  162.0250  207.6820  148.3600 C   0  0  0  0  0  2  0  0  0  0  0  0
  161.5500  208.5500  149.5120 C   0  0  0  0  0  2  0  0  0  0  0  0
  162.1230  209.7600  151.2650 C   0  0  0  0  0  1  0  0  0  0  0  0
  162.5820  208.7400  150.4330 O   0  0  0  0  0  0  0  0  0  0  0  0
  160.4500  203.0820  149.5960 C   0  0  0  0  0  2  0  0  0  0  0  0
  160.6630  201.9470  150.4790 N   0  0  0  0  0  2  0  0  0  0  0  0
  161.3820  202.4510  151.6380 C   0  0  0  0  0  2  0  0  0  0  0  0
  161.5830  203.9510  151.5210 C   0  0  0  0  0  2  0  0  0  0  0  0
  161.4080  205.9240  153.0900 C   0  0  0  0  0  0  0  0  0  0  0  0
  162.3160  206.5390  152.4720 O   0  0  0  0  0  0  0  0  0  0  0  0
  161.0140  204.6130  152.6860 N   0  0  0  0  0  2  0  0  0  0  0  0
  160.7470  206.5620  154.2630 C   0  0  0  0  0  2  0  0  0  0  0  0
  161.4210  207.8840  154.5800 C   0  0  0  0  0  2  0  0  0  0  0  0
  160.3990  208.8640  155.1140 C   0  0  1  0  0  3  0  0  0  0  0  0
  160.2110  208.6520  156.5450 C   0  0  0  0  0  2  0  0  0  0  0  0
  161.0540  209.7610  156.0780 N   0  0  0  0  0  2  0  0  0  0  0  0
  1 14  1  0  0  0  0
  2  8  1  0  0  0  0
  3  1  1  6  0  0  0
  4  5  1  0  0  0  0
  4  2  1  0  0  0  0
  5  7  1  0  0  0  0
  6  3  1  0  0  0  0
  7  6  1  0  0  0  0
  7  3  1  0  0  0  0
  8  6  1  0  0  0  0
  8  9  1  0  0  0  0
  9 10  1  0  0  0  0
 10 11  1  0  0  0  0
 11 13  1  0  0  0  0
 13 12  1  0  0  0  0
 14 15  1  0  0  0  0
 15 16  1  0  0  0  0
 17 16  1  0  0  0  0
 17 20  1  0  0  0  0
 18 21  1  0  0  0  0
 19 18  2  0  0  0  0
 20 18  1  0  0  0  0
 21 22  1  0  0  0  0
 22 23  1  0  0  0  0
 23 25  1  0  0  0  0
 23 24  1  0  0  0  0
 25 24  1  0  0  0  0
M  END
>  <MODEL>
8

>  <REMARK>
 VINA RESULT:      -5.7      2.339      5.904
  Name = 
  13 active torsions:
  status: ('A' for Active; 'I' for Inactive)
    1  A    between atoms: C_2  and  C_3
    2  A    between atoms: C_2  and  C_5
    3  A    between atoms: C_4  and  C_16
    4  A    between atoms: C_5  and  C_11
    5  A    between atoms: C_10  and  C_22
    6  A    between atoms: C_10  and  N_25
    7  A    between atoms: C_14  and  C_18
    8  A    between atoms: C_14  and  O_24
    9  A    between atoms: C_16  and  C_19
   10  A    between atoms: C_18  and  O_21
   11  A    between atoms: C_19  and  N_23
   12  A    between atoms: C_20  and  O_24
   13  A    between atoms: C_22  and  N_23
                            x       y       z     vdW  Elec       q    Type
                         _______ _______ _______ _____ _____    ______ ____

>  <TORSDO>
F 13

$$$$
=
 OpenBabel11072415253D

 25 27  0  0  1  0  0  0  0  0999 V2000
  160.9200  206.2590  152.6560 C   0  0  0  0  0  2  0  0  0  0  0  0
  160.6210  203.0910  149.5580 C   0  0  0  0  0  2  0  0  0  0  0  0
  162.0880  205.6790  151.8700 C   0  0  2  0  0  3  0  0  0  0  0  0
  160.8440  202.3990  150.8670 N   0  0  0  0  0  2  0  0  0  0  0  0
  160.9020  203.2980  152.0560 C   0  0  0  0  0  2  0  0  0  0  0  0
  161.5840  204.9090  150.6730 C   0  0  1  0  0  3  0  0  0  0  0  0
  162.1040  204.2460  151.9280 C   0  0  1  0  0  3  0  0  0  0  0  0
  161.0770  204.5380  149.5330 C   0  0  2  0  0  3  0  0  0  0  0  0
  160.8190  205.4360  148.4990 O   0  0  0  0  0  0  0  0  0  0  0  0
  161.1210  205.1320  147.1440 C   0  0  0  0  0  2  0  0  0  0  0  0
  162.0120  206.2080  146.5470 C   0  0  0  0  0  2  0  0  0  0  0  0
  161.4020  205.3820  144.5950 C   0  0  0  0  0  1  0  0  0  0  0  0
  162.5230  205.7850  145.3180 O   0  0  0  0  0  0  0  0  0  0  0  0
  161.3540  206.6240  154.0680 C   0  0  0  0  0  2  0  0  0  0  0  0
  160.2110  207.0640  154.8490 N   0  0  0  0  0  2  0  0  0  0  0  0
  160.7280  207.4910  156.1390 C   0  0  0  0  0  2  0  0  0  0  0  0
  160.3520  208.9380  156.4030 C   0  0  0  0  0  2  0  0  0  0  0  0
  161.0820  210.5040  154.5600 C   0  0  0  0  0  0  0  0  0  0  0  0
  162.1580  210.7640  155.1610 O   0  0  0  0  0  0  0  0  0  0  0  0
  160.1210  209.6220  155.1400 N   0  0  0  0  0  2  0  0  0  0  0  0
  160.8030  211.1310  153.2390 C   0  0  0  0  0  2  0  0  0  0  0  0
  160.7480  210.0660  152.1610 C   0  0  0  0  0  2  0  0  0  0  0  0
  162.1180  209.8910  151.5420 C   0  0  1  0  0  3  0  0  0  0  0  0
  162.0370  208.9740  150.4110 C   0  0  0  0  0  2  0  0  0  0  0  0
  162.0950  210.4230  150.1710 N   0  0  0  0  0  2  0  0  0  0  0  0
  1 14  1  0  0  0  0
  2  4  1  0  0  0  0
  3  7  1  0  0  0  0
  3  1  1  1  0  0  0
  4  5  1  0  0  0  0
  6  3  1  0  0  0  0
  6  7  1  0  0  0  0
  7  5  1  0  0  0  0
  8  2  1  0  0  0  0
  8  6  1  0  0  0  0
  9  8  1  0  0  0  0
 10  9  1  0  0  0  0
 11 10  1  0  0  0  0
 12 13  1  0  0  0  0
 13 11  1  0  0  0  0
 14 15  1  0  0  0  0
 15 16  1  0  0  0  0
 16 17  1  0  0  0  0
 18 20  1  0  0  0  0
 18 19  2  0  0  0  0
 20 17  1  0  0  0  0
 21 18  1  0  0  0  0
 22 21  1  0  0  0  0
 23 22  1  0  0  0  0
 24 23  1  0  0  0  0
 25 24  1  0  0  0  0
 25 23  1  0  0  0  0
M  END
>  <MODEL>
9

>  <REMARK>
 VINA RESULT:      -5.6      2.522      8.270
  Name = 
  13 active torsions:
  status: ('A' for Active; 'I' for Inactive)
    1  A    between atoms: C_2  and  C_3
    2  A    between atoms: C_2  and  C_5
    3  A    between atoms: C_4  and  C_16
    4  A    between atoms: C_5  and  C_11
    5  A    between atoms: C_10  and  C_22
    6  A    between atoms: C_10  and  N_25
    7  A    between atoms: C_14  and  C_18
    8  A    between atoms: C_14  and  O_24
    9  A    between atoms: C_16  and  C_19
   10  A    between atoms: C_18  and  O_21
   11  A    between atoms: C_19  and  N_23
   12  A    between atoms: C_20  and  O_24
   13  A    between atoms: C_22  and  N_23
                            x       y       z     vdW  Elec       q    Type
                         _______ _______ _______ _____ _____    ______ ____

>  <TORSDO>
F 13

$$$$
