=
 OpenBabel11072412473D

 55 62  0  0  1  0  0  0  0  0999 V2000
  161.1810  207.9020  151.9850 C   0  0  0  0  0  0  0  0  0  0  0  0
  160.6990  207.9590  154.7110 N   0  0  0  0  0  0  0  0  0  0  0  0
  160.8730  209.1200  152.6220 C   0  0  0  0  0  0  0  0  0  0  0  0
  160.9700  206.7700  154.1090 C   0  0  0  0  0  3  0  0  0  0  0  0
  160.6500  209.1190  154.0060 C   0  0  0  0  0  3  0  0  0  0  0  0
  161.2240  206.7230  152.7370 C   0  0  0  0  0  3  0  0  0  0  0  0
  161.5130  207.8800  150.5960 N   0  0  0  0  0  2  0  0  0  0  0  0
  162.7750  207.4420  150.1640 N   0  0  0  0  0  2  0  0  0  0  0  0
  162.5840  206.5760  149.0050 C   0  0  0  0  0  2  0  0  0  0  0  0
  163.8470  204.3950  146.4590 C   0  0  0  0  0  2  0  0  0  0  0  0
  161.2040  201.3040  145.1950 O   0  0  0  0  0  0  0  0  0  0  0  0
  161.0310  202.3990  145.7890 C   0  0  0  0  0  0  0  0  0  0  0  0
  160.1920  204.4720  146.2070 C   0  0  2  0  0  3  0  0  0  0  0  0
  161.1160  206.1270  148.8630 C   0  0  1  0  0  3  0  0  0  0  0  0
  159.2760  206.2550  144.9430 F   0  0  0  0  0  0  0  0  0  0  0  0
  160.3240  206.9250  147.8120 C   0  0  0  0  0  2  0  0  0  0  0  0
  160.4610  205.8110  145.5010 C   0  0  0  0  0  0  0  0  0  0  0  0
  162.6690  203.9160  146.8520 C   0  0  0  0  0  0  0  0  0  0  0  0
  161.2160  204.0990  147.2910 C   0  0  1  0  0  0  0  0  0  0  0  0
  160.9540  204.5960  148.7270 C   0  0  1  0  0  3  0  0  0  0  0  0
  161.0010  206.8980  146.4390 C   0  0  0  0  0  2  0  0  0  0  0  0
  161.3810  205.6290  144.4830 F   0  0  0  0  0  0  0  0  0  0  0  0
  160.2070  203.3890  145.3020 O   0  0  0  0  0  0  0  0  0  0  0  0
  161.6790  202.7550  147.0730 C   0  0  1  0  0  3  0  0  0  0  0  0
  161.6870  203.7930  149.8270 C   0  0  1  0  0  3  0  0  0  0  0  0
  161.5070  204.3830  151.2180 C   0  0  0  0  0  2  0  0  0  0  0  0
  160.9830  202.5110  150.2970 C   0  0  1  0  0  3  0  0  0  0  0  0
  160.8640  203.0920  151.6950 C   0  0  0  0  0  2  0  0  0  0  0  0
  159.5600  200.9650  149.0530 O   0  0  0  0  0  1  0  0  0  0  0  0
  159.6000  202.2120  149.6930 C   0  0  0  0  0  2  0  0  0  0  0  0
  160.8310  210.4050  151.8360 C   0  0  1  0  0  3  0  0  0  0  0  0
  161.3660  211.4070  153.9940 O   0  0  0  0  0  1  0  0  0  0  0  0
  160.8820  211.6760  152.7070 C   0  0  2  0  0  3  0  0  0  0  0  0
  157.4110  212.6150  153.7200 C   0  0  0  0  0  3  0  0  0  0  0  0
  158.6330  212.0190  153.6930 N   0  0  0  0  0  0  0  0  0  0  0  0
  157.0860  213.5960  152.7790 C   0  0  0  0  0  3  0  0  0  0  0  0
  159.2500  213.3190  151.8300 N   0  0  0  0  0  0  0  0  0  0  0  0
  158.0390  213.9380  151.8260 C   0  0  0  0  0  3  0  0  0  0  0  0
  159.5520  212.3710  152.7590 C   0  0  0  0  0  0  0  0  0  0  0  0
  161.8740  210.3920  150.7170 C   0  0  0  0  0  2  0  0  0  0  0  0
  163.1400  211.7640  148.9640 C   0  0  0  0  0  2  0  0  0  0  0  0
  160.5620  211.8110  149.0650 C   0  0  0  0  0  2  0  0  0  0  0  0
  161.7680  212.5360  146.9540 C   0  0  2  0  0  3  0  0  0  0  0  0
  160.7320  211.5790  147.5660 C   0  0  0  0  0  2  0  0  0  0  0  0
  162.9400  212.8430  147.9020 C   0  0  0  0  0  2  0  0  0  0  0  0
  161.8810  211.6420  149.8340 C   0  0  1  0  0  3  0  0  0  0  0  0
  159.7500  214.1170  144.5370 C   0  0  2  0  0  3  0  0  0  0  0  0
  161.1170  213.8420  146.4850 C   0  0  2  0  0  3  0  0  0  0  0  0
  161.2360  214.2120  144.2680 C   0  0  0  0  0  2  0  0  0  0  0  0
  158.7390  214.4400  146.7650 C   0  0  0  0  0  1  0  0  0  0  0  0
  159.7140  213.6140  145.9570 C   0  0  1  0  0  3  0  0  0  0  0  0
  161.8910  214.4530  145.4810 O   0  0  0  0  0  0  0  0  0  0  0  0
  158.8150  213.8500  142.3630 C   0  0  0  0  0  1  0  0  0  0  0  0
  159.1120  213.1650  143.6140 N   0  0  0  0  0  0  0  0  0  0  0  0
  160.0910  212.1430  143.2670 C   0  0  0  0  0  1  0  0  0  0  0  0
  1  3  2  0  0  0  0
  1  6  1  0  0  0  0
  3  5  1  0  0  0  0
  4  2  1  0  0  0  0
  5  2  2  0  0  0  0
  6  4  2  0  0  0  0
  7  1  1  0  0  0  0
  8  7  1  0  0  0  0
  9  8  1  0  0  0  0
 10 18  2  0  0  0  0
 11 12  2  0  0  0  0
 13 23  1  6  0  0  0
 13 19  1  0  0  0  0
 14  9  1  6  0  0  0
 15 17  1  0  0  0  0
 16 14  1  0  0  0  0
 17 13  1  0  0  0  0
 17 21  1  0  0  0  0
 18 24  1  0  0  0  0
 19 18  1  6  0  0  0
 19 20  1  0  0  0  0
 20 14  1  0  0  0  0
 20 25  1  1  0  0  0
 21 16  1  0  0  0  0
 22 17  1  0  0  0  0
 23 12  1  0  0  0  0
 24 12  1  6  0  0  0
 24 19  1  0  0  0  0
 25 27  1  0  0  0  0
 25 26  1  1  0  0  0
 26 28  1  0  0  0  0
 27 30  1  6  0  0  0
 27 28  1  0  0  0  0
 29 30  1  0  0  0  0
 31 40  1  6  0  0  0
 31  3  1  0  0  0  0
 31 33  1  0  0  0  0
 33 39  1  0  0  0  0
 33 32  1  1  0  0  0
 35 34  1  0  0  0  0
 36 34  2  0  0  0  0
 37 39  1  0  0  0  0
 38 37  2  0  0  0  0
 38 36  1  0  0  0  0
 39 35  2  0  0  0  0
 41 46  1  0  0  0  0
 42 46  1  0  0  0  0
 43 44  1  1  0  0  0
 43 45  1  0  0  0  0
 44 42  1  0  0  0  0
 45 41  1  0  0  0  0
 46 40  1  6  0  0  0
 47 54  1  6  0  0  0
 47 51  1  0  0  0  0
 48 52  1  6  0  0  0
 48 43  1  0  0  0  0
 49 47  1  0  0  0  0
 49 52  1  0  0  0  0
 51 48  1  0  0  0  0
 51 50  1  1  0  0  0
 53 54  1  0  0  0  0
 55 54  1  0  0  0  0
M  END
>  <MODEL>
1

>  <REMARK>
 VINA RESULT:      -5.0      0.000      0.000
  Name = 
  13 active torsions:
  status: ('A' for Active; 'I' for Inactive)
    1  A    between atoms: C_3  and  N_27
    2  A    between atoms: C_4  and  N_17
    3  A    between atoms: C_9  and  C_53
    4  A    between atoms: C_13  and  C_32
    5  A    between atoms: N_17  and  N_45
    6  A    between atoms: C_21  and  C_33
    7  A    between atoms: C_23  and  C_35
    8  A    between atoms: C_32  and  N_45
    9  A    between atoms: C_37  and  C_38
   10  A    between atoms: C_37  and  C_53
   11  A    between atoms: C_41  and  C_55
   12  A    between atoms: C_49  and  C_53
   13  A    between atoms: C_49  and  C_54
                            x       y       z     vdW  Elec       q    Type
                         _______ _______ _______ _____ _____    ______ ____

>  <TORSDO>
F 13

$$$$
=
 OpenBabel11072412473D

 55 62  0  0  1  0  0  0  0  0999 V2000
  161.8010  209.5560  150.2210 C   0  0  0  0  0  0  0  0  0  0  0  0
  161.5500  212.2230  149.5160 N   0  0  0  0  0  0  0  0  0  0  0  0
  161.2410  210.4760  151.1280 C   0  0  0  0  0  0  0  0  0  0  0  0
  162.1170  211.3530  148.6370 C   0  0  0  0  0  3  0  0  0  0  0  0
  161.1120  211.8170  150.7360 C   0  0  0  0  0  3  0  0  0  0  0  0
  162.2440  210.0030  148.9720 C   0  0  0  0  0  3  0  0  0  0  0  0
  161.8550  208.1670  150.5470 N   0  0  0  0  0  2  0  0  0  0  0  0
  162.9790  207.3920  150.2160 N   0  0  0  0  0  2  0  0  0  0  0  0
  162.6990  206.6960  148.9640 C   0  0  0  0  0  2  0  0  0  0  0  0
  163.8910  204.3360  146.5480 C   0  0  0  0  0  2  0  0  0  0  0  0
  161.1750  201.2250  145.5080 O   0  0  0  0  0  0  0  0  0  0  0  0
  161.0300  202.3580  146.0330 C   0  0  0  0  0  0  0  0  0  0  0  0
  160.2360  204.4700  146.3290 C   0  0  2  0  0  3  0  0  0  0  0  0
  161.2220  206.2690  148.8660 C   0  0  1  0  0  3  0  0  0  0  0  0
  159.3400  206.1880  144.9650 F   0  0  0  0  0  0  0  0  0  0  0  0
  160.4330  207.0150  147.7750 C   0  0  0  0  0  2  0  0  0  0  0  0
  160.5220  205.7560  145.5380 C   0  0  0  0  0  0  0  0  0  0  0  0
  162.7090  203.9060  146.9820 C   0  0  0  0  0  0  0  0  0  0  0  0
  161.2650  204.1450  147.4230 C   0  0  1  0  0  0  0  0  0  0  0  0
  161.0280  204.7350  148.8280 C   0  0  1  0  0  3  0  0  0  0  0  0
  161.0940  206.8890  146.4000 C   0  0  0  0  0  2  0  0  0  0  0  0
  161.4270  205.4920  144.5230 F   0  0  0  0  0  0  0  0  0  0  0  0
  160.2190  203.3320  145.4940 O   0  0  0  0  0  0  0  0  0  0  0  0
  161.7000  202.7810  147.2860 C   0  0  1  0  0  3  0  0  0  0  0  0
  161.7590  203.9890  149.9690 C   0  0  1  0  0  3  0  0  0  0  0  0
  161.4930  204.5890  151.3410 C   0  0  0  0  0  2  0  0  0  0  0  0
  161.1050  202.6790  150.4320 C   0  0  1  0  0  3  0  0  0  0  0  0
  160.9000  203.2720  151.8150 C   0  0  0  0  0  2  0  0  0  0  0  0
  159.7100  200.9400  149.4340 O   0  0  0  0  0  1  0  0  0  0  0  0
  159.7640  202.2980  149.7800 C   0  0  0  0  0  2  0  0  0  0  0  0
  160.7460  210.0180  152.4760 C   0  0  1  0  0  3  0  0  0  0  0  0
  160.3530  207.6360  152.1290 O   0  0  0  0  0  1  0  0  0  0  0  0
  161.1330  208.5670  152.8270 C   0  0  2  0  0  3  0  0  0  0  0  0
  160.0830  207.2730  156.1700 C   0  0  0  0  0  3  0  0  0  0  0  0
  160.1610  207.4710  154.8270 N   0  0  0  0  0  0  0  0  0  0  0  0
  160.9520  207.9470  157.0330 C   0  0  0  0  0  3  0  0  0  0  0  0
  161.9340  208.9900  155.1320 N   0  0  0  0  0  0  0  0  0  0  0  0
  161.8860  208.8170  156.4800 C   0  0  0  0  0  3  0  0  0  0  0  0
  161.0840  208.3180  154.3070 C   0  0  0  0  0  0  0  0  0  0  0  0
  161.1160  211.0270  153.5640 C   0  0  0  0  0  2  0  0  0  0  0  0
  160.3360  212.5220  155.4910 C   0  0  0  0  0  2  0  0  0  0  0  0
  158.8880  212.2370  153.3740 C   0  0  0  0  0  2  0  0  0  0  0  0
  158.5160  214.2180  154.9150 C   0  0  2  0  0  3  0  0  0  0  0  0
  158.8420  213.7580  153.4840 C   0  0  0  0  0  2  0  0  0  0  0  0
  159.1280  213.3090  155.9950 C   0  0  0  0  0  2  0  0  0  0  0  0
  159.9240  211.6150  154.3220 C   0  0  1  0  0  3  0  0  0  0  0  0
  155.4390  212.5380  155.2650 C   0  0  2  0  0  3  0  0  0  0  0  0
  157.0040  214.3470  155.1330 C   0  0  2  0  0  3  0  0  0  0  0  0
  155.7480  212.9870  153.8530 C   0  0  0  0  0  2  0  0  0  0  0  0
  155.8220  213.9390  157.2600 C   0  0  0  0  0  1  0  0  0  0  0  0
  156.4770  213.2780  156.0690 C   0  0  1  0  0  3  0  0  0  0  0  0
  156.3150  214.2650  153.9090 O   0  0  0  0  0  0  0  0  0  0  0  0
  156.9080  210.7990  155.9610 C   0  0  0  0  0  1  0  0  0  0  0  0
  155.5950  211.0810  155.3960 N   0  0  0  0  0  0  0  0  0  0  0  0
  154.6420  210.6100  156.3930 C   0  0  0  0  0  1  0  0  0  0  0  0
  1  7  1  0  0  0  0
  1  3  1  0  0  0  0
  2  5  1  0  0  0  0
  3 31  1  0  0  0  0
  4  6  1  0  0  0  0
  4  2  2  0  0  0  0
  5  3  2  0  0  0  0
  6  1  2  0  0  0  0
  8  7  1  0  0  0  0
  9  8  1  0  0  0  0
 10 18  2  0  0  0  0
 11 12  2  0  0  0  0
 13 23  1  6  0  0  0
 13 19  1  0  0  0  0
 14  9  1  6  0  0  0
 15 17  1  0  0  0  0
 16 14  1  0  0  0  0
 17 13  1  0  0  0  0
 17 21  1  0  0  0  0
 18 24  1  0  0  0  0
 19 18  1  6  0  0  0
 19 20  1  0  0  0  0
 20 14  1  0  0  0  0
 20 25  1  1  0  0  0
 21 16  1  0  0  0  0
 22 17  1  0  0  0  0
 23 12  1  0  0  0  0
 24 12  1  6  0  0  0
 24 19  1  0  0  0  0
 25 27  1  0  0  0  0
 25 26  1  1  0  0  0
 26 28  1  0  0  0  0
 27 30  1  6  0  0  0
 27 28  1  0  0  0  0
 29 30  1  0  0  0  0
 31 33  1  0  0  0  0
 31 40  1  1  0  0  0
 33 32  1  6  0  0  0
 33 39  1  0  0  0  0
 34 36  2  0  0  0  0
 35 34  1  0  0  0  0
 37 38  2  0  0  0  0
 38 36  1  0  0  0  0
 39 35  2  0  0  0  0
 39 37  1  0  0  0  0
 41 45  1  0  0  0  0
 42 44  1  0  0  0  0
 42 46  1  0  0  0  0
 43 44  1  6  0  0  0
 43 48  1  0  0  0  0
 43 45  1  0  0  0  0
 46 40  1  6  0  0  0
 46 41  1  0  0  0  0
 47 54  1  6  0  0  0
 47 51  1  0  0  0  0
 48 52  1  6  0  0  0
 48 51  1  0  0  0  0
 49 52  1  0  0  0  0
 49 47  1  0  0  0  0
 51 50  1  1  0  0  0
 54 53  1  0  0  0  0
 54 55  1  0  0  0  0
M  END
>  <MODEL>
2

>  <REMARK>
 VINA RESULT:      -4.3      2.762      6.006
  Name = 
  13 active torsions:
  status: ('A' for Active; 'I' for Inactive)
    1  A    between atoms: C_3  and  N_27
    2  A    between atoms: C_4  and  N_17
    3  A    between atoms: C_9  and  C_53
    4  A    between atoms: C_13  and  C_32
    5  A    between atoms: N_17  and  N_45
    6  A    between atoms: C_21  and  C_33
    7  A    between atoms: C_23  and  C_35
    8  A    between atoms: C_32  and  N_45
    9  A    between atoms: C_37  and  C_38
   10  A    between atoms: C_37  and  C_53
   11  A    between atoms: C_41  and  C_55
   12  A    between atoms: C_49  and  C_53
   13  A    between atoms: C_49  and  C_54
                            x       y       z     vdW  Elec       q    Type
                         _______ _______ _______ _____ _____    ______ ____

>  <TORSDO>
F 13

$$$$
=
 OpenBabel11072412473D

 55 62  0  0  1  0  0  0  0  0999 V2000
  161.6610  209.0010  150.4430 C   0  0  0  0  0  0  0  0  0  0  0  0
  162.1150  209.2540  153.1640 N   0  0  0  0  0  0  0  0  0  0  0  0
  161.7250  210.2780  151.0320 C   0  0  0  0  0  0  0  0  0  0  0  0
  162.0320  208.0120  152.6160 C   0  0  0  0  0  3  0  0  0  0  0  0
  161.9730  210.3750  152.4090 C   0  0  0  0  0  3  0  0  0  0  0  0
  161.8110  207.8640  151.2460 C   0  0  0  0  0  3  0  0  0  0  0  0
  161.5110  208.8670  149.0300 N   0  0  0  0  0  2  0  0  0  0  0  0
  162.5170  208.2710  148.2510 N   0  0  0  0  0  2  0  0  0  0  0  0
  162.4520  206.8260  148.4510 C   0  0  0  0  0  2  0  0  0  0  0  0
  163.8720  204.2560  146.4000 C   0  0  0  0  0  2  0  0  0  0  0  0
  161.3780  200.8810  145.6760 O   0  0  0  0  0  0  0  0  0  0  0  0
  161.1480  202.0600  146.0460 C   0  0  0  0  0  0  0  0  0  0  0  0
  160.2270  204.1410  146.0410 C   0  0  2  0  0  3  0  0  0  0  0  0
  161.0050  206.3020  148.3580 C   0  0  1  0  0  3  0  0  0  0  0  0
  159.2940  205.6150  144.4380 F   0  0  0  0  0  0  0  0  0  0  0  0
  160.2220  206.8550  147.1540 C   0  0  0  0  0  2  0  0  0  0  0  0
  160.4740  205.3320  145.1010 C   0  0  0  0  0  0  0  0  0  0  0  0
  162.6980  203.8140  146.8450 C   0  0  0  0  0  0  0  0  0  0  0  0
  161.2260  204.0200  147.2030 C   0  0  1  0  0  0  0  0  0  0  0  0
  160.8990  204.7670  148.5110 C   0  0  1  0  0  3  0  0  0  0  0  0
  160.9460  206.5970  145.8300 C   0  0  0  0  0  2  0  0  0  0  0  0
  161.4340  204.9970  144.1610 F   0  0  0  0  0  0  0  0  0  0  0  0
  160.3080  202.9080  145.3590 O   0  0  0  0  0  0  0  0  0  0  0  0
  161.7410  202.6780  147.2560 C   0  0  1  0  0  3  0  0  0  0  0  0
  161.6220  204.2160  149.7620 C   0  0  1  0  0  3  0  0  0  0  0  0
  161.3690  205.0460  151.0120 C   0  0  0  0  0  2  0  0  0  0  0  0
  160.9500  203.0150  150.4440 C   0  0  1  0  0  3  0  0  0  0  0  0
  160.7580  203.8390  151.7040 C   0  0  0  0  0  2  0  0  0  0  0  0
  159.7370  201.4110  149.0560 O   0  0  0  0  0  1  0  0  0  0  0  0
  159.6020  202.5480  149.8670 C   0  0  0  0  0  2  0  0  0  0  0  0
  161.5770  211.5180  150.1880 C   0  0  1  0  0  3  0  0  0  0  0  0
  163.4230  211.4680  148.5950 O   0  0  0  0  0  1  0  0  0  0  0  0
  162.0340  211.3400  148.7260 C   0  0  2  0  0  3  0  0  0  0  0  0
  161.0720  214.4100  146.8270 C   0  0  0  0  0  3  0  0  0  0  0  0
  161.7460  213.5480  147.6340 N   0  0  0  0  0  0  0  0  0  0  0  0
  159.9170  213.9930  146.1600 C   0  0  0  0  0  3  0  0  0  0  0  0
  160.1830  211.8510  147.1610 N   0  0  0  0  0  0  0  0  0  0  0  0
  159.4840  212.6860  146.3460 C   0  0  0  0  0  3  0  0  0  0  0  0
  161.3110  212.2730  147.7980 C   0  0  0  0  0  0  0  0  0  0  0  0
  160.1700  212.1010  150.3190 C   0  0  0  0  0  2  0  0  0  0  0  0
  159.0890  214.0520  151.5780 C   0  0  0  0  0  2  0  0  0  0  0  0
  159.2530  211.7150  152.6590 C   0  0  0  0  0  2  0  0  0  0  0  0
  157.5840  213.4120  153.5390 C   0  0  2  0  0  3  0  0  0  0  0  0
  157.7840  212.0040  152.9530 C   0  0  0  0  0  2  0  0  0  0  0  0
  158.5520  214.4530  152.9500 C   0  0  0  0  0  2  0  0  0  0  0  0
  159.8620  212.7290  151.6800 C   0  0  1  0  0  3  0  0  0  0  0  0
  159.0950  211.9670  156.3760 C   0  0  2  0  0  3  0  0  0  0  0  0
  157.6920  213.4030  155.0680 C   0  0  2  0  0  3  0  0  0  0  0  0
  157.7640  211.3540  155.9970 C   0  0  0  0  0  2  0  0  0  0  0  0
  159.5300  214.3950  156.3830 C   0  0  0  0  0  1  0  0  0  0  0  0
  159.1230  213.2140  155.5320 C   0  0  1  0  0  3  0  0  0  0  0  0
  156.8940  212.3830  155.6190 O   0  0  0  0  0  0  0  0  0  0  0  0
  161.1960  211.1120  157.1000 C   0  0  0  0  0  1  0  0  0  0  0  0
  160.2030  211.0620  156.0340 N   0  0  0  0  0  0  0  0  0  0  0  0
  159.6950  209.6960  156.0490 C   0  0  0  0  0  1  0  0  0  0  0  0
  1  3  2  0  0  0  0
  1  6  1  0  0  0  0
  3  5  1  0  0  0  0
  4  2  1  0  0  0  0
  5  2  2  0  0  0  0
  6  4  2  0  0  0  0
  7  1  1  0  0  0  0
  8  9  1  0  0  0  0
  8  7  1  0  0  0  0
 10 18  2  0  0  0  0
 11 12  2  0  0  0  0
 13 23  1  6  0  0  0
 13 19  1  0  0  0  0
 14  9  1  6  0  0  0
 14 20  1  0  0  0  0
 15 17  1  0  0  0  0
 16 14  1  0  0  0  0
 17 21  1  0  0  0  0
 17 13  1  0  0  0  0
 18 24  1  0  0  0  0
 19 18  1  6  0  0  0
 19 24  1  0  0  0  0
 19 20  1  0  0  0  0
 20 25  1  1  0  0  0
 21 16  1  0  0  0  0
 22 17  1  0  0  0  0
 23 12  1  0  0  0  0
 24 12  1  6  0  0  0
 25 27  1  0  0  0  0
 25 26  1  1  0  0  0
 26 28  1  0  0  0  0
 27 30  1  6  0  0  0
 27 28  1  0  0  0  0
 29 30  1  0  0  0  0
 31 40  1  6  0  0  0
 31  3  1  0  0  0  0
 33 32  1  1  0  0  0
 33 31  1  0  0  0  0
 34 35  1  0  0  0  0
 35 39  2  0  0  0  0
 36 38  1  0  0  0  0
 36 34  2  0  0  0  0
 37 39  1  0  0  0  0
 38 37  2  0  0  0  0
 39 33  1  0  0  0  0
 41 46  1  0  0  0  0
 41 45  1  0  0  0  0
 42 44  1  0  0  0  0
 43 45  1  6  0  0  0
 43 48  1  0  0  0  0
 44 43  1  0  0  0  0
 46 40  1  6  0  0  0
 46 42  1  0  0  0  0
 47 54  1  6  0  0  0
 48 51  1  0  0  0  0
 48 52  1  1  0  0  0
 49 47  1  0  0  0  0
 51 47  1  0  0  0  0
 51 50  1  1  0  0  0
 52 49  1  0  0  0  0
 54 55  1  0  0  0  0
 54 53  1  0  0  0  0
M  END
>  <MODEL>
3

>  <REMARK>
 VINA RESULT:      -3.6      1.864      5.752
  Name = 
  13 active torsions:
  status: ('A' for Active; 'I' for Inactive)
    1  A    between atoms: C_3  and  N_27
    2  A    between atoms: C_4  and  N_17
    3  A    between atoms: C_9  and  C_53
    4  A    between atoms: C_13  and  C_32
    5  A    between atoms: N_17  and  N_45
    6  A    between atoms: C_21  and  C_33
    7  A    between atoms: C_23  and  C_35
    8  A    between atoms: C_32  and  N_45
    9  A    between atoms: C_37  and  C_38
   10  A    between atoms: C_37  and  C_53
   11  A    between atoms: C_41  and  C_55
   12  A    between atoms: C_49  and  C_53
   13  A    between atoms: C_49  and  C_54
                            x       y       z     vdW  Elec       q    Type
                         _______ _______ _______ _____ _____    ______ ____

>  <TORSDO>
F 13

$$$$
=
 OpenBabel11072412473D

 55 62  0  0  1  0  0  0  0  0999 V2000
  161.2620  207.3630  151.9540 C   0  0  0  0  0  0  0  0  0  0  0  0
  162.5350  205.1540  150.8710 N   0  0  0  0  0  0  0  0  0  0  0  0
  161.7910  207.4220  150.6500 C   0  0  0  0  0  0  0  0  0  0  0  0
  162.0530  205.0880  152.1410 C   0  0  0  0  0  3  0  0  0  0  0  0
  162.4150  206.2820  150.1230 C   0  0  0  0  0  3  0  0  0  0  0  0
  161.4020  206.1880  152.7010 C   0  0  0  0  0  3  0  0  0  0  0  0
  160.5320  208.4690  152.4850 N   0  0  0  0  0  2  0  0  0  0  0  0
  160.6340  208.8150  153.8420 N   0  0  0  0  0  2  0  0  0  0  0  0
  159.5710  209.7670  154.1510 C   0  0  0  0  0  2  0  0  0  0  0  0
  156.2120  210.5750  155.0920 C   0  0  0  0  0  2  0  0  0  0  0  0
  155.6820  214.3490  156.9930 O   0  0  0  0  0  0  0  0  0  0  0  0
  156.5880  213.8690  156.2650 C   0  0  0  0  0  0  0  0  0  0  0  0
  158.0360  213.7010  154.5180 C   0  0  2  0  0  3  0  0  0  0  0  0
  160.1190  211.1960  154.3280 C   0  0  1  0  0  3  0  0  0  0  0  0
  158.1300  214.4500  152.2720 F   0  0  0  0  0  0  0  0  0  0  0  0
  159.9930  212.0690  153.0660 C   0  0  0  0  0  2  0  0  0  0  0  0
  157.7720  213.3580  153.0420 C   0  0  0  0  0  0  0  0  0  0  0  0
  157.0050  211.5330  155.5660 C   0  0  0  0  0  0  0  0  0  0  0  0
  158.1960  212.4830  155.4420 C   0  0  1  0  0  0  0  0  0  0  0  0
  159.6100  211.8930  155.6120 C   0  0  1  0  0  3  0  0  0  0  0  0
  158.5530  212.1330  152.5510 C   0  0  0  0  0  2  0  0  0  0  0  0
  156.4230  213.1120  152.8500 F   0  0  0  0  0  0  0  0  0  0  0  0
  156.9790  214.4500  155.0800 O   0  0  0  0  0  0  0  0  0  0  0  0
  157.3430  212.6350  156.5900 C   0  0  1  0  0  3  0  0  0  0  0  0
  159.8030  211.0490  156.8930 C   0  0  1  0  0  3  0  0  0  0  0  0
  159.5390  209.5660  156.6780 C   0  0  0  0  0  2  0  0  0  0  0  0
  161.2580  210.7200  157.2600 C   0  0  1  0  0  3  0  0  0  0  0  0
  160.9620  209.2400  157.0980 C   0  0  0  0  0  2  0  0  0  0  0  0
  163.6350  210.8340  156.7110 O   0  0  0  0  0  1  0  0  0  0  0  0
  162.3490  211.1850  156.2790 C   0  0  0  0  0  2  0  0  0  0  0  0
  161.6430  208.6720  149.8210 C   0  0  1  0  0  3  0  0  0  0  0  0
  162.2140  210.1010  151.7130 O   0  0  0  0  0  1  0  0  0  0  0  0
  162.4490  209.8750  150.3500 C   0  0  2  0  0  3  0  0  0  0  0  0
  160.7380  212.8240  148.8230 C   0  0  0  0  0  3  0  0  0  0  0  0
  160.9860  211.7250  149.5840 N   0  0  0  0  0  0  0  0  0  0  0  0
  161.7290  213.3360  147.9810 C   0  0  0  0  0  3  0  0  0  0  0  0
  163.1730  211.5950  148.7210 N   0  0  0  0  0  0  0  0  0  0  0  0
  162.9610  212.6920  147.9460 C   0  0  0  0  0  3  0  0  0  0  0  0
  162.1970  211.1150  149.5420 C   0  0  0  0  0  0  0  0  0  0  0  0
  161.8930  208.3760  148.3410 C   0  0  0  0  0  2  0  0  0  0  0  0
  160.1430  206.8040  147.3290 C   0  0  0  0  0  2  0  0  0  0  0  0
  162.6630  206.3340  147.0380 C   0  0  0  0  0  2  0  0  0  0  0  0
  160.9770  205.2580  145.4760 C   0  0  2  0  0  3  0  0  0  0  0  0
  162.2240  206.1510  145.5880 C   0  0  0  0  0  2  0  0  0  0  0  0
  159.9920  205.4480  146.6420 C   0  0  0  0  0  2  0  0  0  0  0  0
  161.5570  206.9470  147.9090 C   0  0  1  0  0  3  0  0  0  0  0  0
  161.0780  202.0970  147.0310 C   0  0  2  0  0  3  0  0  0  0  0  0
  161.3580  203.7780  145.3470 C   0  0  2  0  0  3  0  0  0  0  0  0
  162.3550  202.8980  147.1630 C   0  0  0  0  0  2  0  0  0  0  0  0
  159.7820  201.9230  144.9390 C   0  0  0  0  0  1  0  0  0  0  0  0
  160.3220  202.8720  145.9840 C   0  0  1  0  0  3  0  0  0  0  0  0
  162.6090  203.5310  145.9400 O   0  0  0  0  0  0  0  0  0  0  0  0
  160.8800  200.9850  149.1260 C   0  0  0  0  0  1  0  0  0  0  0  0
  160.3470  202.0650  148.3070 N   0  0  0  0  0  0  0  0  0  0  0  0
  160.6560  203.2870  149.0390 C   0  0  0  0  0  1  0  0  0  0  0  0
  1  7  1  0  0  0  0
  1  6  1  0  0  0  0
  2  4  1  0  0  0  0
  3  1  2  0  0  0  0
  4  6  2  0  0  0  0
  5  3  1  0  0  0  0
  5  2  2  0  0  0  0
  7  8  1  0  0  0  0
  8  9  1  0  0  0  0
 10 18  2  0  0  0  0
 12 24  1  0  0  0  0
 12 11  2  0  0  0  0
 13 23  1  1  0  0  0
 13 19  1  0  0  0  0
 14  9  1  6  0  0  0
 14 20  1  0  0  0  0
 15 17  1  0  0  0  0
 16 14  1  0  0  0  0
 17 13  1  0  0  0  0
 19 18  1  6  0  0  0
 19 20  1  0  0  0  0
 19 24  1  0  0  0  0
 20 25  1  1  0  0  0
 21 17  1  0  0  0  0
 21 16  1  0  0  0  0
 22 17  1  0  0  0  0
 23 12  1  0  0  0  0
 24 18  1  6  0  0  0
 25 26  1  6  0  0  0
 25 27  1  0  0  0  0
 26 28  1  0  0  0  0
 27 30  1  6  0  0  0
 28 27  1  0  0  0  0
 30 29  1  0  0  0  0
 31 40  1  6  0  0  0
 31 33  1  0  0  0  0
 31  3  1  0  0  0  0
 33 32  1  1  0  0  0
 34 35  1  0  0  0  0
 36 34  2  0  0  0  0
 37 39  1  0  0  0  0
 38 36  1  0  0  0  0
 38 37  2  0  0  0  0
 39 35  2  0  0  0  0
 39 33  1  0  0  0  0
 41 46  1  0  0  0  0
 42 46  1  0  0  0  0
 43 44  1  1  0  0  0
 43 45  1  0  0  0  0
 44 42  1  0  0  0  0
 45 41  1  0  0  0  0
 46 40  1  6  0  0  0
 47 49  1  0  0  0  0
 47 54  1  1  0  0  0
 48 43  1  0  0  0  0
 48 52  1  1  0  0  0
 48 51  1  0  0  0  0
 51 50  1  6  0  0  0
 51 47  1  0  0  0  0
 52 49  1  0  0  0  0
 54 55  1  0  0  0  0
 54 53  1  0  0  0  0
M  END
>  <MODEL>
4

>  <REMARK>
 VINA RESULT:      -2.9      3.384      9.435
  Name = 
  13 active torsions:
  status: ('A' for Active; 'I' for Inactive)
    1  A    between atoms: C_3  and  N_27
    2  A    between atoms: C_4  and  N_17
    3  A    between atoms: C_9  and  C_53
    4  A    between atoms: C_13  and  C_32
    5  A    between atoms: N_17  and  N_45
    6  A    between atoms: C_21  and  C_33
    7  A    between atoms: C_23  and  C_35
    8  A    between atoms: C_32  and  N_45
    9  A    between atoms: C_37  and  C_38
   10  A    between atoms: C_37  and  C_53
   11  A    between atoms: C_41  and  C_55
   12  A    between atoms: C_49  and  C_53
   13  A    between atoms: C_49  and  C_54
                            x       y       z     vdW  Elec       q    Type
                         _______ _______ _______ _____ _____    ______ ____

>  <TORSDO>
F 13

$$$$
