=
 OpenBabel11072415183D

 58 63  0  0  1  0  0  0  0  0999 V2000
  162.3000  208.6870  155.8550 C   0  0  0  0  0  2  0  0  0  0  0  0
  161.6860  207.1870  150.5440 C   0  0  1  0  0  3  0  0  0  0  0  0
  162.3890  207.7360  154.7060 C   0  0  0  0  0  3  0  0  0  0  0  0
  161.1660  204.2920  151.8920 C   0  0  2  0  0  0  0  0  0  0  0  0
  161.9550  204.8190  150.8270 O   0  0  0  0  0  0  0  0  0  0  0  0
  161.0450  208.2390  149.6750 C   0  0  0  0  0  0  0  0  0  0  0  0
  161.7060  212.8840  150.2310 C   0  0  0  0  0  2  0  0  0  0  0  0
  161.4830  206.8390  147.7510 C   0  0  1  0  0  3  0  0  0  0  0  0
  161.4740  210.3710  150.8450 C   0  0  2  0  0  3  0  0  0  0  0  0
  161.3730  209.8730  155.5350 C   0  0  2  0  0  3  0  0  0  0  0  0
  160.9150  208.0220  148.4060 N   0  0  0  0  0  0  0  0  0  0  0  0
  160.5850  205.3110  152.6950 O   0  0  0  0  0  0  0  0  0  0  0  0
  160.2230  213.2840  150.2590 C   0  0  0  0  0  2  0  0  0  0  0  0
  160.8840  210.9460  152.1540 C   0  0  1  0  0  3  0  0  0  0  0  0
  161.9010  211.4240  149.8010 C   0  0  0  0  0  2  0  0  0  0  0  0
  159.5000  211.5480  151.9490 C   0  0  0  0  0  2  0  0  0  0  0  0
  160.8610  209.9980  153.1800 O   0  0  0  0  0  0  0  0  0  0  0  0
  161.4230  206.8840  154.3310 C   0  0  0  0  0  0  0  0  0  0  0  0
  161.3130  205.5540  148.5840 C   0  0  2  0  0  3  0  0  0  0  0  0
  161.2990  207.4600  151.9910 C   0  0  0  0  0  2  0  0  0  0  0  0
  161.2170  205.7880  150.1160 C   0  0  2  0  0  3  0  0  0  0  0  0
  160.5810  209.4450  150.2180 O   0  0  0  0  0  0  0  0  0  0  0  0
  161.9900  203.5100  152.7120 O   0  0  0  0  0  1  0  0  0  0  0  0
  161.6730  210.5360  154.1820 C   0  0  0  0  0  2  0  0  0  0  0  0
  161.5530  206.3090  152.9500 C   0  0  2  0  0  3  0  0  0  0  0  0
  159.6160  213.0280  151.6250 C   0  0  0  0  0  2  0  0  0  0  0  0
  160.8950  206.6650  146.4140 C   0  0  0  0  0  0  0  0  0  0  0  0
  160.4160  206.5130  145.3140 C   0  0  0  0  0  3  0  0  0  0  0  0
  160.1590  206.7190  155.1320 C   0  0  0  0  0  2  0  0  0  0  0  0
  159.7000  208.0550  155.7020 C   0  0  0  0  0  2  0  0  0  0  0  0
  159.7450  208.0040  157.2120 C   0  0  0  0  0  1  0  0  0  0  0  0
  161.3900  210.8890  156.6830 C   0  0  1  0  0  3  0  0  0  0  0  0
  162.7880  211.4190  157.0140 C   0  0  0  0  0  2  0  0  0  0  0  0
  163.7160  211.0380  156.0360 O   0  0  0  0  0  0  0  0  0  0  0  0
  165.1350  211.8850  156.4090 P   0  0  0  0  0  0  0  0  0  0  0  0
  164.7610  213.3020  157.2600 O   0  0  0  0  0  1  0  0  0  0  0  0
  165.9510  212.2750  154.9800 O   0  0  0  0  0  0  0  0  0  0  0  0
  166.0290  211.0130  157.2600 O   0  0  0  0  0  1  0  0  0  0  0  0
  160.4780  211.9900  156.4030 N   0  0  0  0  0  2  0  0  0  0  0  0
  156.9610  214.2160  156.0590 N   0  0  0  0  0  0  0  0  0  0  0  0
  158.9960  214.3130  157.2500 O   0  0  0  0  0  0  0  0  0  0  0  0
  156.2920  213.7680  154.8250 C   0  0  2  0  0  3  0  0  0  0  0  0
  159.3780  211.8100  155.5510 N   0  0  0  0  0  0  0  0  0  0  0  0
  155.5140  213.8820  155.9390 C   0  0  0  0  0  2  0  0  0  0  0  0
  157.1220  212.4550  154.6630 C   0  0  0  0  0  2  0  0  0  0  0  0
  158.3330  212.5710  155.6200 C   0  0  0  0  0  0  0  0  0  0  0  0
  158.1690  213.7240  156.5020 C   0  0  0  0  0  0  0  0  0  0  0  0
  162.3100  204.5820  148.2240 O   0  0  0  0  0  0  0  0  0  0  0  0
  163.4000  204.0880  146.2240 O   0  0  0  0  0  0  0  0  0  0  0  0
  162.3740  203.9640  146.9590 C   0  0  0  0  0  0  0  0  0  0  0  0
  161.2370  203.1120  146.5050 C   0  0  0  0  0  2  0  0  0  0  0  0
  161.1360  203.1840  144.9900 C   0  0  0  0  0  1  0  0  0  0  0  0
  160.1220  203.4830  151.3790 O   0  0  0  0  0  0  0  0  0  0  0  0
  160.5320  202.1350  151.4270 C   0  0  0  0  0  2  0  0  0  0  0  0
  161.0910  201.6970  150.0910 C   0  0  0  0  0  2  0  0  0  0  0  0
  159.9870  201.8240  149.0660 C   0  0  0  0  0  2  0  0  0  0  0  0
  161.4120  200.1820  148.1270 O   0  0  0  0  0  1  0  0  0  0  0  0
  160.2110  200.8740  147.9200 C   0  0  0  0  0  2  0  0  0  0  0  0
  2 20  1  1  0  0  0
  3  1  1  0  0  0  0
  4 12  1  0  0  0  0
  4 23  1  1  0  0  0
  5  4  1  0  0  0  0
  6 22  1  0  0  0  0
  6  2  1  0  0  0  0
  7 13  1  0  0  0  0
  8 27  1  6  0  0  0
  8 11  1  0  0  0  0
  8 19  1  0  0  0  0
  9 15  1  6  0  0  0
  9 14  1  0  0  0  0
 10  1  1  0  0  0  0
 10 32  1  1  0  0  0
 11  6  2  0  0  0  0
 12 25  1  0  0  0  0
 13 26  1  0  0  0  0
 14 16  1  6  0  0  0
 14 17  1  0  0  0  0
 15  7  1  0  0  0  0
 17 24  1  0  0  0  0
 18  3  2  0  0  0  0
 18 29  1  0  0  0  0
 19 48  1  1  0  0  0
 19 21  1  0  0  0  0
 21  2  1  0  0  0  0
 21  5  1  1  0  0  0
 22  9  1  0  0  0  0
 24 10  1  0  0  0  0
 25 20  1  6  0  0  0
 25 18  1  0  0  0  0
 26 16  1  0  0  0  0
 28 27  3  0  0  0  0
 29 30  1  0  0  0  0
 30 31  1  0  0  0  0
 32 33  1  6  0  0  0
 34 35  1  0  0  0  0
 34 33  1  0  0  0  0
 35 38  1  0  0  0  0
 35 36  1  0  0  0  0
 37 35  2  0  0  0  0
 39 32  1  0  0  0  0
 40 47  1  0  0  0  0
 42 45  1  1  0  0  0
 42 44  1  0  0  0  0
 42 40  1  0  0  0  0
 43 46  2  0  0  0  0
 43 39  1  0  0  0  0
 44 40  1  0  0  0  0
 45 46  1  0  0  0  0
 46 47  1  0  0  0  0
 47 41  2  0  0  0  0
 49 50  2  0  0  0  0
 50 48  1  0  0  0  0
 51 50  1  0  0  0  0
 52 51  1  0  0  0  0
 53 54  1  0  0  0  0
 53  4  1  0  0  0  0
 55 54  1  0  0  0  0
 56 55  1  0  0  0  0
 58 57  1  0  0  0  0
 58 56  1  0  0  0  0
M  END
>  <MODEL>
1

>  <REMARK>
 VINA RESULT:      -0.3      0.000      0.000
  Name = 
  17 active torsions:
  status: ('A' for Active; 'I' for Inactive)
    1  A    between atoms: P_1  and  O_20
    2  A    between atoms: C_8  and  C_28
    3  A    between atoms: O_10  and  C_11
    4  A    between atoms: O_10  and  C_55
    5  A    between atoms: C_15  and  C_50
    6  A    between atoms: C_16  and  C_43
    7  A    between atoms: C_19  and  C_40
    8  A    between atoms: O_20  and  C_49
    9  A    between atoms: C_21  and  C_39
   10  A    between atoms: C_28  and  C_36
   11  A    between atoms: O_29  and  C_38
   12  A    between atoms: O_29  and  C_50
   13  A    between atoms: N_30  and  C_39
   14  A    between atoms: N_30  and  N_41
   15  A    between atoms: C_36  and  C_55
   16  A    between atoms: C_37  and  C_40
   17  A    between atoms: C_39  and  C_49
                            x       y       z     vdW  Elec       q    Type
                         _______ _______ _______ _____ _____    ______ ____

>  <TORSDO>
F 17

$$$$
=
 OpenBabel11072415183D

 58 63  0  0  1  0  0  0  0  0999 V2000
  160.4010  205.7080  149.6790 C   0  0  0  0  0  2  0  0  0  0  0  0
  159.9860  209.9180  153.2760 C   0  0  1  0  0  3  0  0  0  0  0  0
  160.0010  206.3390  150.9730 C   0  0  0  0  0  3  0  0  0  0  0  0
  160.2620  207.5150  155.4260 C   0  0  2  0  0  0  0  0  0  0  0  0
  159.4100  208.6420  155.2260 O   0  0  0  0  0  0  0  0  0  0  0  0
  160.6420  211.1940  152.8130 C   0  0  0  0  0  0  0  0  0  0  0  0
  160.7750  212.6060  148.3050 C   0  0  0  0  0  2  0  0  0  0  0  0
  159.7180  212.3090  154.7510 C   0  0  1  0  0  3  0  0  0  0  0  0
  160.7170  211.0070  150.3520 C   0  0  2  0  0  3  0  0  0  0  0  0
  161.4390  206.5660  148.9310 C   0  0  2  0  0  3  0  0  0  0  0  0
  160.5480  212.2580  153.5420 N   0  0  0  0  0  0  0  0  0  0  0  0
  161.1020  207.2620  154.3070 O   0  0  0  0  0  0  0  0  0  0  0  0
  162.2890  212.8570  148.2310 C   0  0  0  0  0  2  0  0  0  0  0  0
  161.5740  210.1100  149.4280 C   0  0  1  0  0  3  0  0  0  0  0  0
  160.3010  212.3640  149.7460 C   0  0  0  0  0  2  0  0  0  0  0  0
  162.9860  210.6490  149.2470 C   0  0  0  0  0  2  0  0  0  0  0  0
  161.6070  208.7840  149.8680 O   0  0  0  0  0  0  0  0  0  0  0  0
  160.7620  206.3880  152.0770 C   0  0  0  0  0  0  0  0  0  0  0  0
  159.8150  211.0260  155.5990 C   0  0  2  0  0  3  0  0  0  0  0  0
  160.6210  208.7540  152.5280 C   0  0  0  0  0  2  0  0  0  0  0  0
  160.1720  209.7480  154.7920 C   0  0  2  0  0  3  0  0  0  0  0  0
  161.3570  211.2470  151.6090 O   0  0  0  0  0  0  0  0  0  0  0  0
  159.4600  206.3840  155.6320 O   0  0  0  0  0  1  0  0  0  0  0  0
  161.0430  208.0470  148.8230 C   0  0  0  0  0  2  0  0  0  0  0  0
  160.3430  207.3830  153.1210 C   0  0  2  0  0  3  0  0  0  0  0  0
  163.0470  211.5590  148.0310 C   0  0  0  0  0  2  0  0  0  0  0  0
  160.0670  213.4870  155.5600 C   0  0  0  0  0  0  0  0  0  0  0  0
  160.3490  214.4510  156.2330 C   0  0  0  0  0  3  0  0  0  0  0  0
  162.0920  205.6860  152.1540 C   0  0  0  0  0  2  0  0  0  0  0  0
  161.9750  204.3880  152.9410 C   0  0  0  0  0  2  0  0  0  0  0  0
  160.6560  203.7200  152.6250 C   0  0  0  0  0  1  0  0  0  0  0  0
  161.7440  205.9570  147.5580 C   0  0  1  0  0  3  0  0  0  0  0  0
  162.6130  206.8500  146.6680 C   0  0  0  0  0  2  0  0  0  0  0  0
  162.9640  206.1910  145.4840 O   0  0  0  0  0  0  0  0  0  0  0  0
  161.4960  205.8230  144.7230 P   0  0  0  0  0  0  0  0  0  0  0  0
  160.2310  206.6850  145.4490 O   0  0  0  0  0  1  0  0  0  0  0  0
  161.2000  204.1620  144.8430 O   0  0  0  0  0  1  0  0  0  0  0  0
  161.5820  206.2000  143.2610 O   0  0  0  0  0  0  0  0  0  0  0  0
  162.3490  204.6400  147.7090 N   0  0  0  0  0  2  0  0  0  0  0  0
  160.1520  201.1600  148.4190 N   0  0  0  0  0  0  0  0  0  0  0  0
  160.7310  202.5330  146.5890 O   0  0  0  0  0  0  0  0  0  0  0  0
  160.5560  200.6640  149.7460 C   0  0  2  0  0  3  0  0  0  0  0  0
  162.1820  203.9060  148.8930 N   0  0  0  0  0  0  0  0  0  0  0  0
  159.2180  200.7070  149.4890 C   0  0  0  0  0  2  0  0  0  0  0  0
  161.2400  201.9890  150.2090 C   0  0  0  0  0  2  0  0  0  0  0  0
  161.4090  202.8690  148.9470 C   0  0  0  0  0  0  0  0  0  0  0  0
  160.6780  202.2850  147.8240 C   0  0  0  0  0  0  0  0  0  0  0  0
  158.6420  210.8680  156.4140 O   0  0  0  0  0  0  0  0  0  0  0  0
  156.5260  210.2370  155.6660 O   0  0  0  0  0  0  0  0  0  0  0  0
  157.3370  211.1640  155.9670 C   0  0  0  0  0  0  0  0  0  0  0  0
  156.8940  212.5860  155.9010 C   0  0  0  0  0  2  0  0  0  0  0  0
  155.5180  212.6480  155.2590 C   0  0  0  0  0  1  0  0  0  0  0  0
  161.0840  207.7120  156.5620 O   0  0  0  0  0  0  0  0  0  0  0  0
  162.1120  208.6140  156.2240 C   0  0  0  0  0  2  0  0  0  0  0  0
  162.2210  209.7160  157.2550 C   0  0  0  0  0  2  0  0  0  0  0  0
  163.4610  210.5210  156.9400 C   0  0  0  0  0  2  0  0  0  0  0  0
  164.7080  211.4640  155.1620 O   0  0  0  0  0  1  0  0  0  0  0  0
  163.4290  211.0180  155.5190 C   0  0  0  0  0  2  0  0  0  0  0  0
  1  3  1  0  0  0  0
  2 20  1  6  0  0  0
  2 21  1  0  0  0  0
  3 18  2  0  0  0  0
  4 23  1  1  0  0  0
  4 53  1  0  0  0  0
  5  4  1  0  0  0  0
  6  2  1  0  0  0  0
  6 11  2  0  0  0  0
  7 15  1  0  0  0  0
  8 27  1  1  0  0  0
  8 19  1  0  0  0  0
  9 15  1  6  0  0  0
  9 22  1  0  0  0  0
 10 32  1  6  0  0  0
 10  1  1  0  0  0  0
 11  8  1  0  0  0  0
 12  4  1  0  0  0  0
 13  7  1  0  0  0  0
 14 16  1  1  0  0  0
 14 17  1  0  0  0  0
 14  9  1  0  0  0  0
 18 29  1  0  0  0  0
 18 25  1  0  0  0  0
 19 48  1  6  0  0  0
 21  5  1  1  0  0  0
 21 19  1  0  0  0  0
 22  6  1  0  0  0  0
 24 10  1  0  0  0  0
 24 17  1  0  0  0  0
 25 20  1  6  0  0  0
 25 12  1  0  0  0  0
 26 13  1  0  0  0  0
 26 16  1  0  0  0  0
 27 28  3  0  0  0  0
 29 30  1  0  0  0  0
 31 30  1  0  0  0  0
 32 33  1  1  0  0  0
 32 39  1  0  0  0  0
 34 33  1  0  0  0  0
 35 37  1  0  0  0  0
 35 36  1  0  0  0  0
 35 34  1  0  0  0  0
 38 35  2  0  0  0  0
 39 43  1  0  0  0  0
 40 44  1  0  0  0  0
 40 42  1  0  0  0  0
 41 47  2  0  0  0  0
 42 44  1  1  0  0  0
 42 45  1  0  0  0  0
 43 46  2  0  0  0  0
 46 45  1  0  0  0  0
 47 40  1  0  0  0  0
 47 46  1  0  0  0  0
 49 50  2  0  0  0  0
 50 48  1  0  0  0  0
 51 50  1  0  0  0  0
 52 51  1  0  0  0  0
 54 53  1  0  0  0  0
 54 55  1  0  0  0  0
 56 55  1  0  0  0  0
 57 58  1  0  0  0  0
 58 56  1  0  0  0  0
M  END
>  <MODEL>
2

>  <REMARK>
 VINA RESULT:       0.0      2.926      9.769
  Name = 
  17 active torsions:
  status: ('A' for Active; 'I' for Inactive)
    1  A    between atoms: P_1  and  O_20
    2  A    between atoms: C_8  and  C_28
    3  A    between atoms: O_10  and  C_11
    4  A    between atoms: O_10  and  C_55
    5  A    between atoms: C_15  and  C_50
    6  A    between atoms: C_16  and  C_43
    7  A    between atoms: C_19  and  C_40
    8  A    between atoms: O_20  and  C_49
    9  A    between atoms: C_21  and  C_39
   10  A    between atoms: C_28  and  C_36
   11  A    between atoms: O_29  and  C_38
   12  A    between atoms: O_29  and  C_50
   13  A    between atoms: N_30  and  C_39
   14  A    between atoms: N_30  and  N_41
   15  A    between atoms: C_36  and  C_55
   16  A    between atoms: C_37  and  C_40
   17  A    between atoms: C_39  and  C_49
                            x       y       z     vdW  Elec       q    Type
                         _______ _______ _______ _____ _____    ______ ____

>  <TORSDO>
F 17

$$$$
=
 OpenBabel11072415183D

 58 63  0  0  1  0  0  0  0  0999 V2000
  159.8300  211.6450  149.9750 C   0  0  0  0  0  2  0  0  0  0  0  0
  160.9170  206.2650  150.8120 C   0  0  1  0  0  3  0  0  0  0  0  0
  159.9290  210.2120  149.5650 C   0  0  0  0  0  3  0  0  0  0  0  0
  161.7450  206.4090  147.6880 C   0  0  2  0  0  0  0  0  0  0  0  0
  160.9500  205.5640  148.5170 O   0  0  0  0  0  0  0  0  0  0  0  0
  161.4580  205.9490  152.1830 C   0  0  0  0  0  0  0  0  0  0  0  0
  160.1580  208.2190  156.1190 C   0  0  0  0  0  2  0  0  0  0  0  0
  161.3120  203.5960  151.6410 C   0  0  1  0  0  3  0  0  0  0  0  0
  160.6900  207.8130  153.6090 C   0  0  2  0  0  3  0  0  0  0  0  0
  160.6080  211.9140  151.2760 C   0  0  2  0  0  3  0  0  0  0  0  0
  161.6820  204.7180  152.5110 N   0  0  0  0  0  0  0  0  0  0  0  0
  162.1420  207.6040  148.3490 O   0  0  0  0  0  0  0  0  0  0  0  0
  161.5720  208.5510  156.6200 C   0  0  0  0  0  2  0  0  0  0  0  0
  161.1280  209.2960  153.6640 C   0  0  1  0  0  3  0  0  0  0  0  0
  160.1820  207.2300  154.9440 C   0  0  0  0  0  2  0  0  0  0  0  0
  162.4280  209.4860  154.4320 C   0  0  0  0  0  2  0  0  0  0  0  0
  161.2230  209.8620  152.3900 O   0  0  0  0  0  0  0  0  0  0  0  0
  161.0180  209.6330  149.0370 C   0  0  0  0  0  0  0  0  0  0  0  0
  161.6060  203.8690  150.1530 C   0  0  2  0  0  3  0  0  0  0  0  0
  161.1880  207.7330  150.5160 C   0  0  0  0  0  2  0  0  0  0  0  0
  161.5900  205.3710  149.7590 C   0  0  2  0  0  3  0  0  0  0  0  0
  161.7290  206.9670  153.1080 O   0  0  0  0  0  0  0  0  0  0  0  0
  160.9890  206.7680  146.5630 O   0  0  0  0  0  1  0  0  0  0  0  0
  160.2940  210.9080  152.3950 C   0  0  0  0  0  2  0  0  0  0  0  0
  161.0390  208.1310  149.0570 C   0  0  2  0  0  3  0  0  0  0  0  0
  162.1350  209.7610  155.8980 C   0  0  0  0  0  2  0  0  0  0  0  0
  161.9870  202.3660  152.0810 C   0  0  0  0  0  0  0  0  0  0  0  0
  162.5390  201.3550  152.4510 C   0  0  0  0  0  3  0  0  0  0  0  0
  162.2490  210.4270  148.6910 C   0  0  0  0  0  2  0  0  0  0  0  0
  161.8730  211.7570  148.0510 C   0  0  0  0  0  2  0  0  0  0  0  0
  163.1020  212.6280  147.9330 C   0  0  0  0  0  1  0  0  0  0  0  0
  160.3950  213.3610  151.7360 C   0  0  1  0  0  3  0  0  0  0  0  0
  159.4660  214.1650  150.8240 C   0  0  0  0  0  2  0  0  0  0  0  0
  159.5070  213.6830  149.5100 O   0  0  0  0  0  0  0  0  0  0  0  0
  157.8990  213.6940  148.9760 P   0  0  0  0  0  0  0  0  0  0  0  0
  156.9100  214.4530  150.1230 O   0  0  0  0  0  1  0  0  0  0  0  0
  157.3760  212.1040  148.7320 O   0  0  0  0  0  1  0  0  0  0  0  0
  157.8120  214.4440  147.6670 O   0  0  0  0  0  0  0  0  0  0  0  0
  159.9170  213.3920  153.1120 N   0  0  0  0  0  2  0  0  0  0  0  0
  156.8460  212.2130  155.6850 N   0  0  0  0  0  0  0  0  0  0  0  0
  158.9810  211.4520  155.0280 O   0  0  0  0  0  0  0  0  0  0  0  0
  155.9770  213.3870  155.8770 C   0  0  2  0  0  3  0  0  0  0  0  0
  158.7170  214.0410  153.4380 N   0  0  0  0  0  0  0  0  0  0  0  0
  155.3570  212.2030  155.6090 C   0  0  0  0  0  2  0  0  0  0  0  0
  156.5330  214.1960  154.6630 C   0  0  0  0  0  2  0  0  0  0  0  0
  157.8410  213.4970  154.2220 C   0  0  0  0  0  0  0  0  0  0  0  0
  157.9850  212.2170  154.9110 C   0  0  0  0  0  0  0  0  0  0  0  0
  160.7680  203.0570  149.3150 O   0  0  0  0  0  0  0  0  0  0  0  0
  159.8850  200.9280  149.6650 O   0  0  0  0  0  0  0  0  0  0  0  0
  160.8470  201.6500  149.2630 C   0  0  0  0  0  0  0  0  0  0  0  0
  162.0590  201.0090  148.6770 C   0  0  0  0  0  2  0  0  0  0  0  0
  161.6770  200.3180  147.3780 C   0  0  0  0  0  1  0  0  0  0  0  0
  162.9120  205.7290  147.2630 O   0  0  0  0  0  0  0  0  0  0  0  0
  163.0000  205.8180  145.8590 C   0  0  0  0  0  2  0  0  0  0  0  0
  162.0280  204.8640  145.1990 C   0  0  0  0  0  2  0  0  0  0  0  0
  162.0010  203.5940  146.0180 C   0  0  0  0  0  2  0  0  0  0  0  0
  159.9240  202.4650  146.1450 O   0  0  0  0  0  1  0  0  0  0  0  0
  161.0980  202.5700  145.3860 C   0  0  0  0  0  2  0  0  0  0  0  0
  1 10  1  0  0  0  0
  2 20  1  6  0  0  0
  2  6  1  0  0  0  0
  3  1  1  0  0  0  0
  4 23  1  6  0  0  0
  4 12  1  0  0  0  0
  4  5  1  0  0  0  0
  6 11  2  0  0  0  0
  6 22  1  0  0  0  0
  7 13  1  0  0  0  0
  8 27  1  1  0  0  0
  8 11  1  0  0  0  0
  9 14  1  0  0  0  0
  9 15  1  1  0  0  0
 10 32  1  1  0  0  0
 10 24  1  0  0  0  0
 12 25  1  0  0  0  0
 14 16  1  6  0  0  0
 15  7  1  0  0  0  0
 16 26  1  0  0  0  0
 17 24  1  0  0  0  0
 17 14  1  0  0  0  0
 18 25  1  0  0  0  0
 18  3  2  0  0  0  0
 19 48  1  6  0  0  0
 19  8  1  0  0  0  0
 21  5  1  6  0  0  0
 21 19  1  0  0  0  0
 21  2  1  0  0  0  0
 22  9  1  0  0  0  0
 25 20  1  1  0  0  0
 26 13  1  0  0  0  0
 27 28  3  0  0  0  0
 29 18  1  0  0  0  0
 30 29  1  0  0  0  0
 31 30  1  0  0  0  0
 32 33  1  6  0  0  0
 32 39  1  0  0  0  0
 34 33  1  0  0  0  0
 35 34  1  0  0  0  0
 35 36  1  0  0  0  0
 37 35  1  0  0  0  0
 38 35  2  0  0  0  0
 39 43  1  0  0  0  0
 40 42  1  0  0  0  0
 42 45  1  6  0  0  0
 43 46  2  0  0  0  0
 44 40  1  0  0  0  0
 44 42  1  0  0  0  0
 46 45  1  0  0  0  0
 46 47  1  0  0  0  0
 47 41  2  0  0  0  0
 47 40  1  0  0  0  0
 50 48  1  0  0  0  0
 50 49  2  0  0  0  0
 51 50  1  0  0  0  0
 52 51  1  0  0  0  0
 53  4  1  0  0  0  0
 54 53  1  0  0  0  0
 55 54  1  0  0  0  0
 55 56  1  0  0  0  0
 58 56  1  0  0  0  0
 58 57  1  0  0  0  0
M  END
>  <MODEL>
3

>  <REMARK>
 VINA RESULT:       2.6      2.722      5.802
  Name = 
  17 active torsions:
  status: ('A' for Active; 'I' for Inactive)
    1  A    between atoms: P_1  and  O_20
    2  A    between atoms: C_8  and  C_28
    3  A    between atoms: O_10  and  C_11
    4  A    between atoms: O_10  and  C_55
    5  A    between atoms: C_15  and  C_50
    6  A    between atoms: C_16  and  C_43
    7  A    between atoms: C_19  and  C_40
    8  A    between atoms: O_20  and  C_49
    9  A    between atoms: C_21  and  C_39
   10  A    between atoms: C_28  and  C_36
   11  A    between atoms: O_29  and  C_38
   12  A    between atoms: O_29  and  C_50
   13  A    between atoms: N_30  and  C_39
   14  A    between atoms: N_30  and  N_41
   15  A    between atoms: C_36  and  C_55
   16  A    between atoms: C_37  and  C_40
   17  A    between atoms: C_39  and  C_49
                            x       y       z     vdW  Elec       q    Type
                         _______ _______ _______ _____ _____    ______ ____

>  <TORSDO>
F 17

$$$$
