=
 OpenBabel11072414113D

 28 29  0  0  1  0  0  0  0  0999 V2000
  160.8900  206.8180  154.2710 C   0  0  0  0  0  3  0  0  0  0  0  0
  160.6010  208.9640  155.3200 O   0  0  0  0  0  1  0  0  0  0  0  0
  161.3830  208.0650  151.8070 C   0  0  0  0  0  0  0  0  0  0  0  0
  161.0900  210.3340  152.8590 C   0  0  0  0  0  1  0  0  0  0  0  0
  161.1150  208.8420  152.9490 C   0  0  0  0  0  0  0  0  0  0  0  0
  161.4000  206.6670  151.9140 C   0  0  0  0  0  3  0  0  0  0  0  0
  160.8680  208.2120  154.1810 C   0  0  0  0  0  0  0  0  0  0  0  0
  161.1570  206.0410  153.1430 C   0  0  0  0  0  0  0  0  0  0  0  0
  161.6280  208.7010  150.5460 N   0  0  0  0  0  2  0  0  0  0  0  0
  162.3940  208.0890  149.4650 C   0  0  0  0  0  2  0  0  0  0  0  0
  161.4770  207.6850  148.3180 C   0  0  0  0  0  2  0  0  0  0  0  0
  160.3910  205.6580  148.9470 O   0  0  0  0  0  1  0  0  0  0  0  0
  161.4200  206.1720  148.1590 C   0  0  1  0  0  3  0  0  0  0  0  0
  161.7840  204.5700  146.0640 C   0  0  1  0  0  3  0  0  0  0  0  0
  160.4600  206.4690  145.9420 N   0  0  0  0  0  0  0  0  0  0  0  0
  161.2120  205.7850  146.7270 C   0  0  0  0  0  0  0  0  0  0  0  0
  161.1760  204.6680  144.6660 C   0  0  0  0  0  2  0  0  0  0  0  0
  160.4150  205.8630  144.7160 O   0  0  0  0  0  0  0  0  0  0  0  0
  163.2930  204.6800  145.9580 C   0  0  0  0  0  1  0  0  0  0  0  0
  161.1740  204.6510  153.2580 O   0  0  0  0  0  0  0  0  0  0  0  0
  160.4990  203.8530  152.3610 N   0  0  0  0  0  2  0  0  0  0  0  0
  162.4340  202.7570  151.6750 O   0  0  0  0  0  0  0  0  0  0  0  0
  161.1880  202.8960  151.5570 C   0  0  0  0  0  0  0  0  0  0  0  0
  160.4940  202.1060  150.6380 O   0  0  0  0  0  0  0  0  0  0  0  0
  161.0820  200.9750  150.0040 C   0  0  0  0  0  2  0  0  0  0  0  0
  161.0390  201.1190  148.5160 C   0  0  0  0  0  0  0  0  0  0  0  0
  160.2840  202.2420  147.8920 C   0  0  0  0  0  1  0  0  0  0  0  0
  161.6070  200.1970  147.7450 C   0  0  0  0  0  2  0  0  0  0  0  0
  3  6  2  0  0  0  0
  3  5  1  0  0  0  0
  4  5  1  0  0  0  0
  5  7  2  0  0  0  0
  6  8  1  0  0  0  0
  7  1  1  0  0  0  0
  7  2  1  0  0  0  0
  8 20  1  0  0  0  0
  8  1  2  0  0  0  0
  9  3  1  0  0  0  0
 10  9  1  0  0  0  0
 11 10  1  0  0  0  0
 13 11  1  0  0  0  0
 13 12  1  1  0  0  0
 14 19  1  6  0  0  0
 14 16  1  0  0  0  0
 15 16  2  0  0  0  0
 16 13  1  0  0  0  0
 17 18  1  0  0  0  0
 17 14  1  0  0  0  0
 18 15  1  0  0  0  0
 21 20  1  0  0  0  0
 23 22  2  0  0  0  0
 23 21  1  0  0  0  0
 24 23  1  0  0  0  0
 25 24  1  0  0  0  0
 26 25  1  0  0  0  0
 27 26  1  0  0  0  0
 28 26  2  0  0  0  0
M  END
>  <MODEL>
1

>  <REMARK>
 VINA RESULT:      -7.6      0.000      0.000
  Name = 
  10 active torsions:
  status: ('A' for Active; 'I' for Inactive)
    1  A    between atoms: N_2  and  O_17
    2  A    between atoms: C_3  and  C_22
    3  A    between atoms: N_4  and  C_6
    4  A    between atoms: N_4  and  C_10
    5  A    between atoms: C_6  and  C_7
    6  A    between atoms: C_7  and  C_25
    7  A    between atoms: C_12  and  O_24
    8  A    between atoms: C_16  and  C_25
    9  A    between atoms: O_17  and  C_28
   10  A    between atoms: C_22  and  O_24
                            x       y       z     vdW  Elec       q    Type
                         _______ _______ _______ _____ _____    ______ ____

>  <TORSDO>
F 10

$$$$
=
 OpenBabel11072414113D

 28 29  0  0  1  0  0  0  0  0999 V2000
  160.9430  205.2410  149.5670 C   0  0  0  0  0  3  0  0  0  0  0  0
  160.5910  203.8810  151.5200 O   0  0  0  0  0  1  0  0  0  0  0  0
  161.6600  207.4170  151.1850 C   0  0  0  0  0  0  0  0  0  0  0  0
  161.3060  206.0340  153.2590 C   0  0  0  0  0  1  0  0  0  0  0  0
  161.3050  206.1890  151.7730 C   0  0  0  0  0  0  0  0  0  0  0  0
  161.6520  207.5400  149.7880 C   0  0  0  0  0  3  0  0  0  0  0  0
  160.9460  205.1020  150.9570 C   0  0  0  0  0  0  0  0  0  0  0  0
  161.2970  206.4550  148.9770 C   0  0  0  0  0  0  0  0  0  0  0  0
  162.0210  208.5320  152.0110 N   0  0  0  0  0  2  0  0  0  0  0  0
  161.5270  209.8890  151.8000 C   0  0  0  0  0  2  0  0  0  0  0  0
  160.4420  210.2300  152.8140 C   0  0  0  0  0  2  0  0  0  0  0  0
  159.9670  211.9840  154.3580 O   0  0  0  0  0  1  0  0  0  0  0  0
  160.9780  211.1310  153.9180 C   0  0  1  0  0  3  0  0  0  0  0  0
  161.0120  208.9770  155.4820 C   0  0  1  0  0  3  0  0  0  0  0  0
  162.4970  210.7330  155.7780 N   0  0  0  0  0  0  0  0  0  0  0  0
  161.5070  210.3270  155.0660 C   0  0  0  0  0  0  0  0  0  0  0  0
  161.9640  208.6410  156.6300 C   0  0  0  0  0  2  0  0  0  0  0  0
  162.7960  209.7850  156.7190 O   0  0  0  0  0  0  0  0  0  0  0  0
  159.5970  209.0700  156.0220 C   0  0  0  0  0  1  0  0  0  0  0  0
  161.2880  206.5680  147.5870 O   0  0  0  0  0  0  0  0  0  0  0  0
  161.0930  205.4670  146.7830 N   0  0  0  0  0  2  0  0  0  0  0  0
  163.3730  205.1300  146.4630 O   0  0  0  0  0  0  0  0  0  0  0  0
  162.1960  204.7590  146.2160 C   0  0  0  0  0  0  0  0  0  0  0  0
  161.9830  203.6550  145.3880 O   0  0  0  0  0  0  0  0  0  0  0  0
  160.6800  203.1780  145.0680 C   0  0  0  0  0  2  0  0  0  0  0  0
  160.4510  201.8250  145.6620 C   0  0  0  0  0  0  0  0  0  0  0  0
  160.8620  201.5410  147.0660 C   0  0  0  0  0  1  0  0  0  0  0  0
  159.9540  200.8480  144.9100 C   0  0  0  0  0  2  0  0  0  0  0  0
  1  7  1  0  0  0  0
  3  5  1  0  0  0  0
  3  9  1  0  0  0  0
  5  4  1  0  0  0  0
  6  3  2  0  0  0  0
  7  2  1  0  0  0  0
  7  5  2  0  0  0  0
  8  1  2  0  0  0  0
  8  6  1  0  0  0  0
 10  9  1  0  0  0  0
 10 11  1  0  0  0  0
 11 13  1  0  0  0  0
 13 12  1  1  0  0  0
 13 16  1  0  0  0  0
 14 19  1  1  0  0  0
 14 17  1  0  0  0  0
 15 18  1  0  0  0  0
 16 14  1  0  0  0  0
 16 15  2  0  0  0  0
 17 18  1  0  0  0  0
 20  8  1  0  0  0  0
 21 20  1  0  0  0  0
 23 22  2  0  0  0  0
 23 21  1  0  0  0  0
 24 23  1  0  0  0  0
 25 24  1  0  0  0  0
 25 26  1  0  0  0  0
 26 27  1  0  0  0  0
 28 26  2  0  0  0  0
M  END
>  <MODEL>
2

>  <REMARK>
 VINA RESULT:      -7.2      2.207      6.813
  Name = 
  10 active torsions:
  status: ('A' for Active; 'I' for Inactive)
    1  A    between atoms: N_2  and  O_17
    2  A    between atoms: C_3  and  C_22
    3  A    between atoms: N_4  and  C_6
    4  A    between atoms: N_4  and  C_10
    5  A    between atoms: C_6  and  C_7
    6  A    between atoms: C_7  and  C_25
    7  A    between atoms: C_12  and  O_24
    8  A    between atoms: C_16  and  C_25
    9  A    between atoms: O_17  and  C_28
   10  A    between atoms: C_22  and  O_24
                            x       y       z     vdW  Elec       q    Type
                         _______ _______ _______ _____ _____    ______ ____

>  <TORSDO>
F 10

$$$$
=
 OpenBabel11072414113D

 28 29  0  0  1  0  0  0  0  0999 V2000
  161.2010  209.7240  151.8920 C   0  0  0  0  0  3  0  0  0  0  0  0
  160.0610  210.2910  153.9340 O   0  0  0  0  0  1  0  0  0  0  0  0
  161.6410  207.1190  152.8360 C   0  0  0  0  0  0  0  0  0  0  0  0
  160.4550  207.6640  154.9900 C   0  0  0  0  0  1  0  0  0  0  0  0
  160.9540  208.0510  153.6360 C   0  0  0  0  0  0  0  0  0  0  0  0
  162.1000  207.5050  151.5700 C   0  0  0  0  0  3  0  0  0  0  0  0
  160.7370  209.3550  153.1580 C   0  0  0  0  0  0  0  0  0  0  0  0
  161.8800  208.8030  151.0930 C   0  0  0  0  0  0  0  0  0  0  0  0
  161.8720  205.7900  153.3210 N   0  0  0  0  0  2  0  0  0  0  0  0
  161.1300  204.6200  152.8630 C   0  0  0  0  0  2  0  0  0  0  0  0
  161.6200  204.1750  151.4910 C   0  0  0  0  0  2  0  0  0  0  0  0
  160.2260  205.4330  150.0220 O   0  0  0  0  0  1  0  0  0  0  0  0
  160.4830  204.1420  150.4790 C   0  0  1  0  0  3  0  0  0  0  0  0
  160.2960  201.8490  149.1380 C   0  0  1  0  0  3  0  0  0  0  0  0
  161.5460  203.6360  148.3490 N   0  0  0  0  0  0  0  0  0  0  0  0
  160.8090  203.2430  149.3260 C   0  0  0  0  0  0  0  0  0  0  0  0
  160.8930  201.4830  147.7800 C   0  0  0  0  0  2  0  0  0  0  0  0
  161.6370  202.6350  147.4200 O   0  0  0  0  0  0  0  0  0  0  0  0
  160.8670  200.9240  150.1970 C   0  0  0  0  0  1  0  0  0  0  0  0
  162.3330  209.1940  149.8330 O   0  0  0  0  0  0  0  0  0  0  0  0
  161.6320  208.8700  148.6920 N   0  0  0  0  0  2  0  0  0  0  0  0
  162.8170  206.8950  148.3630 O   0  0  0  0  0  0  0  0  0  0  0  0
  161.9200  207.6800  147.9590 C   0  0  0  0  0  0  0  0  0  0  0  0
  161.2140  207.3730  146.7930 O   0  0  0  0  0  0  0  0  0  0  0  0
  160.6370  206.0930  146.5630 C   0  0  0  0  0  2  0  0  0  0  0  0
  161.3020  205.4100  145.4120 C   0  0  0  0  0  0  0  0  0  0  0  0
  160.5080  204.5520  144.4870 C   0  0  0  0  0  1  0  0  0  0  0  0
  162.6200  205.5000  145.2600 C   0  0  0  0  0  2  0  0  0  0  0  0
  1  7  1  0  0  0  0
  3  9  1  0  0  0  0
  3  5  1  0  0  0  0
  5  4  1  0  0  0  0
  6  3  2  0  0  0  0
  7  5  2  0  0  0  0
  7  2  1  0  0  0  0
  8  6  1  0  0  0  0
  8  1  2  0  0  0  0
 10  9  1  0  0  0  0
 11 10  1  0  0  0  0
 13 12  1  6  0  0  0
 13 11  1  0  0  0  0
 14 16  1  0  0  0  0
 14 19  1  1  0  0  0
 15 16  2  0  0  0  0
 16 13  1  0  0  0  0
 17 14  1  0  0  0  0
 18 17  1  0  0  0  0
 18 15  1  0  0  0  0
 20  8  1  0  0  0  0
 21 20  1  0  0  0  0
 23 22  2  0  0  0  0
 23 21  1  0  0  0  0
 24 23  1  0  0  0  0
 25 24  1  0  0  0  0
 26 25  1  0  0  0  0
 27 26  1  0  0  0  0
 28 26  2  0  0  0  0
M  END
>  <MODEL>
3

>  <REMARK>
 VINA RESULT:      -7.0      1.866      4.429
  Name = 
  10 active torsions:
  status: ('A' for Active; 'I' for Inactive)
    1  A    between atoms: N_2  and  O_17
    2  A    between atoms: C_3  and  C_22
    3  A    between atoms: N_4  and  C_6
    4  A    between atoms: N_4  and  C_10
    5  A    between atoms: C_6  and  C_7
    6  A    between atoms: C_7  and  C_25
    7  A    between atoms: C_12  and  O_24
    8  A    between atoms: C_16  and  C_25
    9  A    between atoms: O_17  and  C_28
   10  A    between atoms: C_22  and  O_24
                            x       y       z     vdW  Elec       q    Type
                         _______ _______ _______ _____ _____    ______ ____

>  <TORSDO>
F 10

$$$$
=
 OpenBabel11072414113D

 28 29  0  0  1  0  0  0  0  0999 V2000
  160.5870  209.2710  154.3100 C   0  0  0  0  0  3  0  0  0  0  0  0
  160.5000  207.1760  155.4900 O   0  0  0  0  0  1  0  0  0  0  0  0
  161.5240  207.9620  152.0130 C   0  0  0  0  0  0  0  0  0  0  0  0
  161.4490  205.7450  153.2050 C   0  0  0  0  0  1  0  0  0  0  0  0
  161.2470  207.2260  153.1790 C   0  0  0  0  0  0  0  0  0  0  0  0
  161.3280  209.3500  152.0120 C   0  0  0  0  0  3  0  0  0  0  0  0
  160.7780  207.8870  154.3280 C   0  0  0  0  0  0  0  0  0  0  0  0
  160.8580  210.0070  153.1560 C   0  0  0  0  0  0  0  0  0  0  0  0
  162.0100  207.2960  150.8400 N   0  0  0  0  0  2  0  0  0  0  0  0
  161.5390  207.5860  149.4900 C   0  0  0  0  0  2  0  0  0  0  0  0
  160.5760  206.5060  149.0130 C   0  0  0  0  0  2  0  0  0  0  0  0
  160.8380  204.1450  148.8040 O   0  0  0  0  0  1  0  0  0  0  0  0
  161.3160  205.3650  148.3290 C   0  0  1  0  0  3  0  0  0  0  0  0
  161.7620  204.4750  145.8590 C   0  0  1  0  0  3  0  0  0  0  0  0
  160.4320  206.3280  146.2760 N   0  0  0  0  0  0  0  0  0  0  0  0
  161.1610  205.4330  146.8400 C   0  0  0  0  0  0  0  0  0  0  0  0
  161.2020  204.9980  144.5370 C   0  0  0  0  0  2  0  0  0  0  0  0
  160.4320  206.1250  144.9220 O   0  0  0  0  0  0  0  0  0  0  0  0
  163.2730  204.6050  145.8440 C   0  0  0  0  0  1  0  0  0  0  0  0
  160.6590  211.3870  153.1630 O   0  0  0  0  0  0  0  0  0  0  0  0
  159.8630  211.9970  152.2180 N   0  0  0  0  0  2  0  0  0  0  0  0
  158.3300  212.7490  153.7990 O   0  0  0  0  0  0  0  0  0  0  0  0
  158.6660  212.6810  152.5870 C   0  0  0  0  0  0  0  0  0  0  0  0
  157.8590  213.2790  151.6170 O   0  0  0  0  0  0  0  0  0  0  0  0
  158.2620  213.4030  150.2570 C   0  0  0  0  0  2  0  0  0  0  0  0
  157.0730  213.5570  149.3640 C   0  0  0  0  0  0  0  0  0  0  0  0
  155.7590  213.9780  149.9280 C   0  0  0  0  0  1  0  0  0  0  0  0
  157.1660  213.2380  148.0760 C   0  0  0  0  0  2  0  0  0  0  0  0
  1  7  1  0  0  0  0
  3  5  1  0  0  0  0
  5  4  1  0  0  0  0
  5  7  2  0  0  0  0
  6  3  2  0  0  0  0
  6  8  1  0  0  0  0
  7  2  1  0  0  0  0
  8 20  1  0  0  0  0
  8  1  2  0  0  0  0
  9  3  1  0  0  0  0
 10  9  1  0  0  0  0
 11 10  1  0  0  0  0
 13 12  1  1  0  0  0
 13 11  1  0  0  0  0
 14 19  1  6  0  0  0
 14 16  1  0  0  0  0
 15 16  2  0  0  0  0
 16 13  1  0  0  0  0
 17 18  1  0  0  0  0
 17 14  1  0  0  0  0
 18 15  1  0  0  0  0
 21 23  1  0  0  0  0
 21 20  1  0  0  0  0
 23 22  2  0  0  0  0
 24 23  1  0  0  0  0
 25 24  1  0  0  0  0
 26 27  1  0  0  0  0
 26 25  1  0  0  0  0
 28 26  2  0  0  0  0
M  END
>  <MODEL>
4

>  <REMARK>
 VINA RESULT:      -7.0      3.143      6.605
  Name = 
  10 active torsions:
  status: ('A' for Active; 'I' for Inactive)
    1  A    between atoms: N_2  and  O_17
    2  A    between atoms: C_3  and  C_22
    3  A    between atoms: N_4  and  C_6
    4  A    between atoms: N_4  and  C_10
    5  A    between atoms: C_6  and  C_7
    6  A    between atoms: C_7  and  C_25
    7  A    between atoms: C_12  and  O_24
    8  A    between atoms: C_16  and  C_25
    9  A    between atoms: O_17  and  C_28
   10  A    between atoms: C_22  and  O_24
                            x       y       z     vdW  Elec       q    Type
                         _______ _______ _______ _____ _____    ______ ____

>  <TORSDO>
F 10

$$$$
=
 OpenBabel11072414113D

 28 29  0  0  1  0  0  0  0  0999 V2000
  161.4370  209.7660  151.7970 C   0  0  0  0  0  3  0  0  0  0  0  0
  160.4510  209.5580  153.9810 O   0  0  0  0  0  1  0  0  0  0  0  0
  161.8780  206.9970  151.7090 C   0  0  0  0  0  0  0  0  0  0  0  0
  160.8520  206.7280  153.9930 C   0  0  0  0  0  1  0  0  0  0  0  0
  161.2680  207.5780  152.8370 C   0  0  0  0  0  0  0  0  0  0  0  0
  162.2610  207.8140  150.6360 C   0  0  0  0  0  3  0  0  0  0  0  0
  161.0510  208.9660  152.8750 C   0  0  0  0  0  0  0  0  0  0  0  0
  162.0400  209.1960  150.6740 C   0  0  0  0  0  0  0  0  0  0  0  0
  162.1100  205.5830  151.6660 N   0  0  0  0  0  2  0  0  0  0  0  0
  161.1140  204.6120  151.2250 C   0  0  0  0  0  2  0  0  0  0  0  0
  160.5900  204.9700  149.8400 C   0  0  0  0  0  2  0  0  0  0  0  0
  161.2270  203.0260  148.6140 O   0  0  0  0  0  1  0  0  0  0  0  0
  161.4770  204.3920  148.7460 C   0  0  1  0  0  3  0  0  0  0  0  0
  161.7000  204.5900  146.1000 C   0  0  1  0  0  3  0  0  0  0  0  0
  160.5730  206.1770  147.3600 N   0  0  0  0  0  0  0  0  0  0  0  0
  161.2460  205.0850  147.4380 C   0  0  0  0  0  0  0  0  0  0  0  0
  161.1190  205.6510  145.1670 C   0  0  0  0  0  2  0  0  0  0  0  0
  160.4800  206.5590  146.0490 O   0  0  0  0  0  0  0  0  0  0  0  0
  163.2140  204.6220  146.0060 C   0  0  0  0  0  1  0  0  0  0  0  0
  162.4160  210.0150  149.6100 O   0  0  0  0  0  0  0  0  0  0  0  0
  161.6490  211.0960  149.2370 N   0  0  0  0  0  2  0  0  0  0  0  0
  163.3580  212.0440  147.9730 O   0  0  0  0  0  0  0  0  0  0  0  0
  162.1760  212.1250  148.3990 C   0  0  0  0  0  0  0  0  0  0  0  0
  161.3920  213.2240  148.0440 O   0  0  0  0  0  0  0  0  0  0  0  0
  160.0760  213.0880  147.5180 C   0  0  0  0  0  2  0  0  0  0  0  0
  160.1070  212.9990  146.0260 C   0  0  0  0  0  0  0  0  0  0  0  0
  161.2440  213.5880  145.2620 C   0  0  0  0  0  1  0  0  0  0  0  0
  159.0790  212.4660  145.3730 C   0  0  0  0  0  2  0  0  0  0  0  0
  1  7  1  0  0  0  0
  3  5  1  0  0  0  0
  5  7  2  0  0  0  0
  5  4  1  0  0  0  0
  6  8  1  0  0  0  0
  6  3  2  0  0  0  0
  7  2  1  0  0  0  0
  8  1  2  0  0  0  0
  9  3  1  0  0  0  0
 10  9  1  0  0  0  0
 11 10  1  0  0  0  0
 13 12  1  6  0  0  0
 13 11  1  0  0  0  0
 14 19  1  1  0  0  0
 14 16  1  0  0  0  0
 15 16  2  0  0  0  0
 16 13  1  0  0  0  0
 17 18  1  0  0  0  0
 17 14  1  0  0  0  0
 18 15  1  0  0  0  0
 20  8  1  0  0  0  0
 21 20  1  0  0  0  0
 22 23  2  0  0  0  0
 23 21  1  0  0  0  0
 24 23  1  0  0  0  0
 25 24  1  0  0  0  0
 26 25  1  0  0  0  0
 27 26  1  0  0  0  0
 28 26  2  0  0  0  0
M  END
>  <MODEL>
5

>  <REMARK>
 VINA RESULT:      -7.0      3.516      6.410
  Name = 
  10 active torsions:
  status: ('A' for Active; 'I' for Inactive)
    1  A    between atoms: N_2  and  O_17
    2  A    between atoms: C_3  and  C_22
    3  A    between atoms: N_4  and  C_6
    4  A    between atoms: N_4  and  C_10
    5  A    between atoms: C_6  and  C_7
    6  A    between atoms: C_7  and  C_25
    7  A    between atoms: C_12  and  O_24
    8  A    between atoms: C_16  and  C_25
    9  A    between atoms: O_17  and  C_28
   10  A    between atoms: C_22  and  O_24
                            x       y       z     vdW  Elec       q    Type
                         _______ _______ _______ _____ _____    ______ ____

>  <TORSDO>
F 10

$$$$
=
 OpenBabel11072414113D

 28 29  0  0  1  0  0  0  0  0999 V2000
  161.6740  203.7730  146.8020 C   0  0  0  0  0  3  0  0  0  0  0  0
  160.7440  201.6140  146.2900 O   0  0  0  0  0  1  0  0  0  0  0  0
  160.9150  203.4860  149.4880 C   0  0  0  0  0  0  0  0  0  0  0  0
  159.9290  201.2200  149.0010 C   0  0  0  0  0  1  0  0  0  0  0  0
  160.6330  202.4640  148.5630 C   0  0  0  0  0  0  0  0  0  0  0  0
  161.5760  204.6430  149.0540 C   0  0  0  0  0  3  0  0  0  0  0  0
  161.0150  202.6130  147.2190 C   0  0  0  0  0  0  0  0  0  0  0  0
  161.9590  204.7900  147.7150 C   0  0  0  0  0  0  0  0  0  0  0  0
  160.5220  203.3430  150.8590 N   0  0  0  0  0  2  0  0  0  0  0  0
  161.2670  203.9090  151.9780 C   0  0  0  0  0  2  0  0  0  0  0  0
  160.6810  205.2540  152.3900 C   0  0  0  0  0  2  0  0  0  0  0  0
  162.8720  206.1700  152.1770 O   0  0  0  0  0  1  0  0  0  0  0  0
  161.7430  206.1600  152.9960 C   0  0  1  0  0  3  0  0  0  0  0  0
  161.2110  208.3140  154.4670 C   0  0  1  0  0  3  0  0  0  0  0  0
  160.7870  208.2470  152.1890 N   0  0  0  0  0  0  0  0  0  0  0  0
  161.2280  207.5550  153.1770 C   0  0  0  0  0  0  0  0  0  0  0  0
  160.6600  209.6670  154.0200 C   0  0  0  0  0  2  0  0  0  0  0  0
  160.4290  209.4920  152.6320 O   0  0  0  0  0  0  0  0  0  0  0  0
  160.2390  207.6820  155.4460 C   0  0  0  0  0  1  0  0  0  0  0  0
  162.6180  205.9380  147.2750 O   0  0  0  0  0  0  0  0  0  0  0  0
  161.9880  207.1640  147.2720 N   0  0  0  0  0  2  0  0  0  0  0  0
  162.9290  207.8030  149.3020 O   0  0  0  0  0  0  0  0  0  0  0  0
  162.1690  208.0920  148.3410 C   0  0  0  0  0  0  0  0  0  0  0  0
  161.5110  209.3230  148.3340 O   0  0  0  0  0  0  0  0  0  0  0  0
  161.9840  210.4480  149.0670 C   0  0  0  0  0  2  0  0  0  0  0  0
  161.9640  211.6800  148.2200 C   0  0  0  0  0  0  0  0  0  0  0  0
  160.8320  211.9280  147.2820 C   0  0  0  0  0  1  0  0  0  0  0  0
  162.9980  212.5150  148.2410 C   0  0  0  0  0  2  0  0  0  0  0  0
  1  7  2  0  0  0  0
  1  8  1  0  0  0  0
  2  7  1  0  0  0  0
  3  9  1  0  0  0  0
  5  4  1  0  0  0  0
  5  3  2  0  0  0  0
  6  3  1  0  0  0  0
  7  5  1  0  0  0  0
  8  6  2  0  0  0  0
  9 10  1  0  0  0  0
 10 11  1  0  0  0  0
 11 13  1  0  0  0  0
 13 12  1  6  0  0  0
 13 16  1  0  0  0  0
 14 19  1  1  0  0  0
 15 18  1  0  0  0  0
 15 16  2  0  0  0  0
 16 14  1  0  0  0  0
 17 14  1  0  0  0  0
 18 17  1  0  0  0  0
 20  8  1  0  0  0  0
 21 20  1  0  0  0  0
 21 23  1  0  0  0  0
 23 22  2  0  0  0  0
 24 23  1  0  0  0  0
 24 25  1  0  0  0  0
 26 28  2  0  0  0  0
 26 25  1  0  0  0  0
 27 26  1  0  0  0  0
M  END
>  <MODEL>
6

>  <REMARK>
 VINA RESULT:      -6.9      2.416      7.923
  Name = 
  10 active torsions:
  status: ('A' for Active; 'I' for Inactive)
    1  A    between atoms: N_2  and  O_17
    2  A    between atoms: C_3  and  C_22
    3  A    between atoms: N_4  and  C_6
    4  A    between atoms: N_4  and  C_10
    5  A    between atoms: C_6  and  C_7
    6  A    between atoms: C_7  and  C_25
    7  A    between atoms: C_12  and  O_24
    8  A    between atoms: C_16  and  C_25
    9  A    between atoms: O_17  and  C_28
   10  A    between atoms: C_22  and  O_24
                            x       y       z     vdW  Elec       q    Type
                         _______ _______ _______ _____ _____    ______ ____

>  <TORSDO>
F 10

$$$$
=
 OpenBabel11072414113D

 28 29  0  0  1  0  0  0  0  0999 V2000
  161.1970  205.9020  149.6580 C   0  0  0  0  0  3  0  0  0  0  0  0
  161.2890  206.9840  147.5100 O   0  0  0  0  0  1  0  0  0  0  0  0
  161.8940  208.3070  150.9220 C   0  0  0  0  0  0  0  0  0  0  0  0
  162.0020  209.4840  148.6980 C   0  0  0  0  0  1  0  0  0  0  0  0
  161.7670  208.2590  149.5220 C   0  0  0  0  0  0  0  0  0  0  0  0
  161.6700  207.1460  151.6740 C   0  0  0  0  0  3  0  0  0  0  0  0
  161.4180  207.0510  148.8930 C   0  0  0  0  0  0  0  0  0  0  0  0
  161.3190  205.9440  151.0480 C   0  0  0  0  0  0  0  0  0  0  0  0
  162.2570  209.5340  151.5690 N   0  0  0  0  0  2  0  0  0  0  0  0
  161.2910  210.5380  152.0020 C   0  0  0  0  0  2  0  0  0  0  0  0
  160.2500  209.9190  152.9270 C   0  0  0  0  0  2  0  0  0  0  0  0
  158.7990  210.8420  154.5790 O   0  0  0  0  0  1  0  0  0  0  0  0
  160.1420  210.6910  154.2350 C   0  0  1  0  0  3  0  0  0  0  0  0
  161.0940  208.5170  155.4420 C   0  0  1  0  0  3  0  0  0  0  0  0
  161.4460  210.6460  156.2900 N   0  0  0  0  0  0  0  0  0  0  0  0
  160.8790  209.9950  155.3380 C   0  0  0  0  0  0  0  0  0  0  0  0
  161.9570  208.4200  156.6990 C   0  0  0  0  0  2  0  0  0  0  0  0
  162.0820  209.7670  157.1240 O   0  0  0  0  0  0  0  0  0  0  0  0
  159.7780  207.8030  155.6870 C   0  0  0  0  0  1  0  0  0  0  0  0
  161.0930  204.7850  151.7890 O   0  0  0  0  0  0  0  0  0  0  0  0
  160.4690  203.6910  151.2290 N   0  0  0  0  0  2  0  0  0  0  0  0
  162.2750  202.2820  151.6360 O   0  0  0  0  0  0  0  0  0  0  0  0
  161.1170  202.4220  151.1620 C   0  0  0  0  0  0  0  0  0  0  0  0
  160.4800  201.3270  150.5760 O   0  0  0  0  0  0  0  0  0  0  0  0
  159.8890  201.3880  149.2820 C   0  0  0  0  0  2  0  0  0  0  0  0
  160.9390  201.5160  148.2250 C   0  0  0  0  0  0  0  0  0  0  0  0
  161.2070  202.8370  147.5880 C   0  0  0  0  0  1  0  0  0  0  0  0
  161.5790  200.4340  147.7930 C   0  0  0  0  0  2  0  0  0  0  0  0
  1  8  1  0  0  0  0
  2  7  1  0  0  0  0
  3  9  1  0  0  0  0
  3  6  1  0  0  0  0
  4  5  1  0  0  0  0
  5  3  2  0  0  0  0
  7  5  1  0  0  0  0
  7  1  2  0  0  0  0
  8  6  2  0  0  0  0
  8 20  1  0  0  0  0
  9 10  1  0  0  0  0
 10 11  1  0  0  0  0
 11 13  1  0  0  0  0
 13 12  1  1  0  0  0
 13 16  1  0  0  0  0
 14 19  1  1  0  0  0
 14 17  1  0  0  0  0
 15 18  1  0  0  0  0
 16 14  1  0  0  0  0
 16 15  2  0  0  0  0
 17 18  1  0  0  0  0
 21 20  1  0  0  0  0
 23 21  1  0  0  0  0
 23 22  2  0  0  0  0
 24 23  1  0  0  0  0
 25 24  1  0  0  0  0
 26 25  1  0  0  0  0
 27 26  1  0  0  0  0
 28 26  2  0  0  0  0
M  END
>  <MODEL>
7

>  <REMARK>
 VINA RESULT:      -6.8      2.044      6.257
  Name = 
  10 active torsions:
  status: ('A' for Active; 'I' for Inactive)
    1  A    between atoms: N_2  and  O_17
    2  A    between atoms: C_3  and  C_22
    3  A    between atoms: N_4  and  C_6
    4  A    between atoms: N_4  and  C_10
    5  A    between atoms: C_6  and  C_7
    6  A    between atoms: C_7  and  C_25
    7  A    between atoms: C_12  and  O_24
    8  A    between atoms: C_16  and  C_25
    9  A    between atoms: O_17  and  C_28
   10  A    between atoms: C_22  and  O_24
                            x       y       z     vdW  Elec       q    Type
                         _______ _______ _______ _____ _____    ______ ____

>  <TORSDO>
F 10

$$$$
=
 OpenBabel11072414113D

 28 29  0  0  1  0  0  0  0  0999 V2000
  160.7180  208.8610  154.1310 C   0  0  0  0  0  3  0  0  0  0  0  0
  160.5770  206.5710  154.8540 O   0  0  0  0  0  1  0  0  0  0  0  0
  161.7870  208.0410  151.6700 C   0  0  0  0  0  0  0  0  0  0  0  0
  161.6580  205.6290  152.3810 C   0  0  0  0  0  1  0  0  0  0  0  0
  161.4500  207.0850  152.6460 C   0  0  0  0  0  0  0  0  0  0  0  0
  161.5840  209.4010  151.9410 C   0  0  0  0  0  3  0  0  0  0  0  0
  160.9150  207.5010  153.8770 C   0  0  0  0  0  0  0  0  0  0  0  0
  161.0480  209.8150  153.1670 C   0  0  0  0  0  0  0  0  0  0  0  0
  162.3400  207.6230  150.4150 N   0  0  0  0  0  2  0  0  0  0  0  0
  161.5900  207.6120  149.1640 C   0  0  0  0  0  2  0  0  0  0  0  0
  160.6650  206.4020  149.1020 C   0  0  0  0  0  2  0  0  0  0  0  0
  160.7800  204.0310  148.8810 O   0  0  0  0  0  1  0  0  0  0  0  0
  161.3420  205.2210  148.4210 C   0  0  1  0  0  3  0  0  0  0  0  0
  161.8800  204.3980  145.9470 C   0  0  1  0  0  3  0  0  0  0  0  0
  160.4520  206.1750  146.3660 N   0  0  0  0  0  0  0  0  0  0  0  0
  161.2130  205.3070  146.9310 C   0  0  0  0  0  0  0  0  0  0  0  0
  161.3220  204.9150  144.6220 C   0  0  0  0  0  2  0  0  0  0  0  0
  160.4900  205.9960  145.0100 O   0  0  0  0  0  0  0  0  0  0  0  0
  163.3840  204.6020  145.9660 C   0  0  0  0  0  1  0  0  0  0  0  0
  160.8420  211.1660  153.4430 O   0  0  0  0  0  0  0  0  0  0  0  0
  159.6090  211.6310  153.8450 N   0  0  0  0  0  2  0  0  0  0  0  0
  160.3500  212.1400  155.9910 O   0  0  0  0  0  0  0  0  0  0  0  0
  159.3960  212.1160  155.1700 C   0  0  0  0  0  0  0  0  0  0  0  0
  158.1360  212.5670  155.5700 O   0  0  0  0  0  0  0  0  0  0  0  0
  156.9490  212.2600  154.8470 C   0  0  0  0  0  2  0  0  0  0  0  0
  155.9650  211.5500  155.7210 C   0  0  0  0  0  0  0  0  0  0  0  0
  155.2150  210.3700  155.2040 C   0  0  0  0  0  1  0  0  0  0  0  0
  155.6970  212.0220  156.9350 C   0  0  0  0  0  2  0  0  0  0  0  0
  3  6  2  0  0  0  0
  3  5  1  0  0  0  0
  4  5  1  0  0  0  0
  5  7  2  0  0  0  0
  6  8  1  0  0  0  0
  7  1  1  0  0  0  0
  7  2  1  0  0  0  0
  8 20  1  0  0  0  0
  8  1  2  0  0  0  0
  9  3  1  0  0  0  0
 10  9  1  0  0  0  0
 11 10  1  0  0  0  0
 13 12  1  1  0  0  0
 13 11  1  0  0  0  0
 14 19  1  6  0  0  0
 14 16  1  0  0  0  0
 15 16  2  0  0  0  0
 16 13  1  0  0  0  0
 17 18  1  0  0  0  0
 17 14  1  0  0  0  0
 18 15  1  0  0  0  0
 20 21  1  0  0  0  0
 21 23  1  0  0  0  0
 23 24  1  0  0  0  0
 23 22  2  0  0  0  0
 25 24  1  0  0  0  0
 25 26  1  0  0  0  0
 26 28  2  0  0  0  0
 27 26  1  0  0  0  0
M  END
>  <MODEL>
8

>  <REMARK>
 VINA RESULT:      -6.8      2.924      6.775
  Name = 
  10 active torsions:
  status: ('A' for Active; 'I' for Inactive)
    1  A    between atoms: N_2  and  O_17
    2  A    between atoms: C_3  and  C_22
    3  A    between atoms: N_4  and  C_6
    4  A    between atoms: N_4  and  C_10
    5  A    between atoms: C_6  and  C_7
    6  A    between atoms: C_7  and  C_25
    7  A    between atoms: C_12  and  O_24
    8  A    between atoms: C_16  and  C_25
    9  A    between atoms: O_17  and  C_28
   10  A    between atoms: C_22  and  O_24
                            x       y       z     vdW  Elec       q    Type
                         _______ _______ _______ _____ _____    ______ ____

>  <TORSDO>
F 10

$$$$
=
 OpenBabel11072414113D

 28 29  0  0  1  0  0  0  0  0999 V2000
  161.2000  205.3090  149.9950 C   0  0  0  0  0  3  0  0  0  0  0  0
  161.0230  203.9210  151.9520 O   0  0  0  0  0  1  0  0  0  0  0  0
  161.3870  207.5960  151.6080 C   0  0  0  0  0  0  0  0  0  0  0  0
  161.2060  206.1860  153.6860 C   0  0  0  0  0  1  0  0  0  0  0  0
  161.2520  206.3270  152.1990 C   0  0  0  0  0  0  0  0  0  0  0  0
  161.4260  207.7040  150.2110 C   0  0  0  0  0  3  0  0  0  0  0  0
  161.1580  205.1840  151.3860 C   0  0  0  0  0  0  0  0  0  0  0  0
  161.3360  206.5650  149.4020 C   0  0  0  0  0  0  0  0  0  0  0  0
  161.4750  208.7670  152.4310 N   0  0  0  0  0  2  0  0  0  0  0  0
  160.4960  209.8480  152.4110 C   0  0  0  0  0  2  0  0  0  0  0  0
  160.7920  210.8620  153.5080 C   0  0  0  0  0  2  0  0  0  0  0  0
  159.6080  212.3260  152.0440 O   0  0  0  0  0  1  0  0  0  0  0  0
  159.8950  212.0870  153.3880 C   0  0  1  0  0  3  0  0  0  0  0  0
  157.3330  212.6110  153.8850 C   0  0  1  0  0  3  0  0  0  0  0  0
  158.5340  211.0660  155.1280 N   0  0  0  0  0  0  0  0  0  0  0  0
  158.6250  211.9070  154.1610 C   0  0  0  0  0  0  0  0  0  0  0  0
  156.4090  211.9760  154.9230 C   0  0  0  0  0  2  0  0  0  0  0  0
  157.2570  211.0770  155.6190 O   0  0  0  0  0  0  0  0  0  0  0  0
  157.4610  214.0950  154.1760 C   0  0  0  0  0  1  0  0  0  0  0  0
  161.3770  206.6640  148.0120 O   0  0  0  0  0  0  0  0  0  0  0  0
  161.4120  205.5390  147.2180 N   0  0  0  0  0  2  0  0  0  0  0  0
  160.2400  206.5610  145.4860 O   0  0  0  0  0  0  0  0  0  0  0  0
  160.8050  205.5250  145.9260 C   0  0  0  0  0  0  0  0  0  0  0  0
  160.8320  204.3720  145.1390 O   0  0  0  0  0  0  0  0  0  0  0  0
  161.6530  203.2510  145.4510 C   0  0  0  0  0  2  0  0  0  0  0  0
  160.8340  202.1340  146.0130 C   0  0  0  0  0  0  0  0  0  0  0  0
  159.9490  201.3290  145.1230 C   0  0  0  0  0  1  0  0  0  0  0  0
  160.8300  201.9090  147.3230 C   0  0  0  0  0  2  0  0  0  0  0  0
  1  7  1  0  0  0  0
  3  5  1  0  0  0  0
  3  9  1  0  0  0  0
  5  4  1  0  0  0  0
  6  3  2  0  0  0  0
  7  2  1  0  0  0  0
  7  5  2  0  0  0  0
  8  1  2  0  0  0  0
  8  6  1  0  0  0  0
 10  9  1  0  0  0  0
 10 11  1  0  0  0  0
 13 12  1  6  0  0  0
 13 11  1  0  0  0  0
 13 16  1  0  0  0  0
 14 16  1  0  0  0  0
 14 19  1  1  0  0  0
 14 17  1  0  0  0  0
 15 18  1  0  0  0  0
 16 15  2  0  0  0  0
 17 18  1  0  0  0  0
 20  8  1  0  0  0  0
 21 20  1  0  0  0  0
 22 23  2  0  0  0  0
 23 21  1  0  0  0  0
 24 25  1  0  0  0  0
 24 23  1  0  0  0  0
 25 26  1  0  0  0  0
 26 28  2  0  0  0  0
 27 26  1  0  0  0  0
M  END
>  <MODEL>
9

>  <REMARK>
 VINA RESULT:      -6.7      2.756      7.109
  Name = 
  10 active torsions:
  status: ('A' for Active; 'I' for Inactive)
    1  A    between atoms: N_2  and  O_17
    2  A    between atoms: C_3  and  C_22
    3  A    between atoms: N_4  and  C_6
    4  A    between atoms: N_4  and  C_10
    5  A    between atoms: C_6  and  C_7
    6  A    between atoms: C_7  and  C_25
    7  A    between atoms: C_12  and  O_24
    8  A    between atoms: C_16  and  C_25
    9  A    between atoms: O_17  and  C_28
   10  A    between atoms: C_22  and  O_24
                            x       y       z     vdW  Elec       q    Type
                         _______ _______ _______ _____ _____    ______ ____

>  <TORSDO>
F 10

$$$$
