=
 OpenBabel11072411023D

 30 32  0  0  1  0  0  0  0  0999 V2000
  160.7560  206.5490  149.6180 C   0  0  0  0  0  0  0  0  0  0  0  0
  160.2780  205.3020  149.6530 C   0  0  0  0  0  3  0  0  0  0  0  0
  160.0920  204.6620  150.9980 C   0  0  0  0  0  2  0  0  0  0  0  0
  161.8680  208.5030  150.3920 C   0  0  0  0  0  2  0  0  0  0  0  0
  161.9190  206.3360  151.8370 C   0  0  1  0  0  0  0  0  0  0  0  0
  163.3620  206.1930  151.3570 C   0  0  0  0  0  1  0  0  0  0  0  0
  161.1240  207.2600  150.8680 C   0  0  2  0  0  3  0  0  0  0  0  0
  161.3230  204.8980  151.8920 C   0  0  0  0  0  2  0  0  0  0  0  0
  161.5230  208.6760  148.9100 C   0  0  0  0  0  2  0  0  0  0  0  0
  161.0510  207.3220  148.3850 C   0  0  1  0  0  3  0  0  0  0  0  0
  161.9190  206.9690  153.2450 C   0  0  1  0  0  3  0  0  0  0  0  0
  161.5830  208.4520  153.2290 C   0  0  0  0  0  2  0  0  0  0  0  0
  160.9430  208.7240  154.5720 C   0  0  2  0  0  3  0  0  0  0  0  0
  160.2300  207.4420  154.9500 C   0  0  0  0  0  2  0  0  0  0  0  0
  160.9340  206.3180  154.2120 C   0  0  0  0  0  2  0  0  0  0  0  0
  159.9450  209.8640  154.4770 C   0  0  0  0  0  2  0  0  0  0  0  0
  159.9870  210.4880  153.0940 C   0  0  0  0  0  1  0  0  0  0  0  0
  163.3060  206.5840  148.0110 O   0  0  0  0  0  0  0  0  0  0  0  0
  162.1240  206.6570  147.5760 C   0  0  0  0  0  0  0  0  0  0  0  0
  161.7790  206.0640  146.3250 N   0  0  0  0  0  2  0  0  0  0  0  0
  162.7520  205.3550  145.5120 C   0  0  0  0  0  2  0  0  0  0  0  0
  162.2640  203.9470  145.2220 C   0  0  0  0  0  2  0  0  0  0  0  0
  161.4270  203.4060  146.3740 C   0  0  0  0  0  2  0  0  0  0  0  0
  160.8620  202.0560  146.0600 C   0  0  0  0  0  0  0  0  0  0  0  0
  160.1200  201.9060  145.1030 O   0  0  0  0  0  0  0  0  0  0  0  0
  161.1470  200.9040  146.9680 C   0  0  0  0  0  2  0  0  0  0  0  0
  159.5750  201.7390  148.5470 O   0  0  0  0  0  0  0  0  0  0  0  0
  160.7050  201.2150  148.3640 C   0  0  0  0  0  0  0  0  0  0  0  0
  161.1700  201.3490  150.7850 C   0  0  0  0  0  1  0  0  0  0  0  0
  161.5260  200.9640  149.4660 O   0  0  0  0  0  0  0  0  0  0  0  0
  1  2  2  0  0  0  0
  1  7  1  0  0  0  0
  2  3  1  0  0  0  0
  3  8  1  0  0  0  0
  5  6  1  6  0  0  0
  5  8  1  0  0  0  0
  5 11  1  0  0  0  0
  7  4  1  6  0  0  0
  7  5  1  0  0  0  0
  9  4  1  0  0  0  0
 10 19  1  1  0  0  0
 10  9  1  0  0  0  0
 10  1  1  0  0  0  0
 11 12  1  6  0  0  0
 11 15  1  0  0  0  0
 12 13  1  0  0  0  0
 13 16  1  6  0  0  0
 13 14  1  0  0  0  0
 15 14  1  0  0  0  0
 17 16  1  0  0  0  0
 19 18  2  0  0  0  0
 20 19  1  0  0  0  0
 21 20  1  0  0  0  0
 22 21  1  0  0  0  0
 22 23  1  0  0  0  0
 24 23  1  0  0  0  0
 24 26  1  0  0  0  0
 25 24  2  0  0  0  0
 26 28  1  0  0  0  0
 28 27  2  0  0  0  0
 28 30  1  0  0  0  0
 30 29  1  0  0  0  0
M  END
>  <MODEL>
1

>  <REMARK>
 VINA RESULT:      -6.6      0.000      0.000
  Name = 
  10 active torsions:
  status: ('A' for Active; 'I' for Inactive)
    1  A    between atoms: C_1  and  C_3
    2  A    between atoms: C_1  and  C_24
    3  A    between atoms: C_3  and  C_26
    4  A    between atoms: C_4  and  C_13
    5  A    between atoms: C_4  and  C_24
    6  A    between atoms: C_6  and  C_17
    7  A    between atoms: C_11  and  C_19
    8  A    between atoms: C_13  and  N_30
    9  A    between atoms: C_18  and  C_29
   10  A    between atoms: O_23  and  C_26
                            x       y       z     vdW  Elec       q    Type
                         _______ _______ _______ _____ _____    ______ ____

>  <TORSDO>
F 10

$$$$
=
 OpenBabel11072411023D

 30 32  0  0  1  0  0  0  0  0999 V2000
  162.2180  207.0040  151.3390 C   0  0  0  0  0  0  0  0  0  0  0  0
  162.0340  205.9150  152.0910 C   0  0  0  0  0  3  0  0  0  0  0  0
  162.0350  204.5810  151.4020 C   0  0  0  0  0  2  0  0  0  0  0  0
  162.2840  208.3340  149.3700 C   0  0  0  0  0  2  0  0  0  0  0  0
  161.3520  205.9030  149.2510 C   0  0  1  0  0  0  0  0  0  0  0  0
  159.9770  206.5630  149.1660 C   0  0  0  0  0  1  0  0  0  0  0  0
  162.3820  206.8950  149.8690 C   0  0  2  0  0  3  0  0  0  0  0  0
  161.1800  204.6250  150.1230 C   0  0  0  0  0  2  0  0  0  0  0  0
  162.5030  209.2330  150.5900 C   0  0  0  0  0  2  0  0  0  0  0  0
  162.1990  208.4030  151.8360 C   0  0  1  0  0  3  0  0  0  0  0  0
  161.8150  205.5230  147.8280 C   0  0  1  0  0  3  0  0  0  0  0  0
  161.8300  204.0220  147.5900 C   0  0  0  0  0  2  0  0  0  0  0  0
  161.5900  203.8580  146.1060 C   0  0  2  0  0  3  0  0  0  0  0  0
  160.7090  205.0240  145.7050 C   0  0  0  0  0  2  0  0  0  0  0  0
  160.9540  206.1240  146.7210 C   0  0  0  0  0  2  0  0  0  0  0  0
  160.8820  202.5480  145.8120 C   0  0  0  0  0  2  0  0  0  0  0  0
  160.8970  201.6530  147.0380 C   0  0  0  0  0  1  0  0  0  0  0  0
  160.1680  207.8930  153.0120 O   0  0  0  0  0  0  0  0  0  0  0  0
  160.8560  208.7560  152.4010 C   0  0  0  0  0  0  0  0  0  0  0  0
  160.3870  210.0980  152.2810 N   0  0  0  0  0  2  0  0  0  0  0  0
  159.1220  210.5280  152.8510 C   0  0  0  0  0  2  0  0  0  0  0  0
  158.9270  212.0170  152.6260 C   0  0  0  0  0  2  0  0  0  0  0  0
  159.9470  212.5620  151.6350 C   0  0  0  0  0  2  0  0  0  0  0  0
  159.3260  213.5380  150.6850 C   0  0  0  0  0  0  0  0  0  0  0  0
  158.1130  213.5980  150.5660 O   0  0  0  0  0  0  0  0  0  0  0  0
  160.2000  214.3900  149.8220 C   0  0  0  0  0  2  0  0  0  0  0  0
  159.9730  213.1040  147.8330 O   0  0  0  0  0  0  0  0  0  0  0  0
  160.7600  213.5870  148.6890 C   0  0  0  0  0  0  0  0  0  0  0  0
  162.6430  212.1120  148.0780 C   0  0  0  0  0  1  0  0  0  0  0  0
  162.1300  213.3400  148.5730 O   0  0  0  0  0  0  0  0  0  0  0  0
  1 10  1  0  0  0  0
  1  2  2  0  0  0  0
  3  2  1  0  0  0  0
  4  9  1  0  0  0  0
  5  6  1  6  0  0  0
  5  7  1  0  0  0  0
  5  8  1  0  0  0  0
  7  4  1  6  0  0  0
  7  1  1  0  0  0  0
  8  3  1  0  0  0  0
  9 10  1  0  0  0  0
 10 19  1  6  0  0  0
 11 15  1  6  0  0  0
 11  5  1  0  0  0  0
 12 11  1  0  0  0  0
 13 16  1  1  0  0  0
 13 12  1  0  0  0  0
 14 13  1  0  0  0  0
 14 15  1  0  0  0  0
 16 17  1  0  0  0  0
 19 18  2  0  0  0  0
 20 19  1  0  0  0  0
 20 21  1  0  0  0  0
 22 21  1  0  0  0  0
 23 22  1  0  0  0  0
 24 23  1  0  0  0  0
 25 24  2  0  0  0  0
 26 24  1  0  0  0  0
 27 28  2  0  0  0  0
 28 26  1  0  0  0  0
 29 30  1  0  0  0  0
 30 28  1  0  0  0  0
M  END
>  <MODEL>
2

>  <REMARK>
 VINA RESULT:      -6.6      3.600      8.519
  Name = 
  10 active torsions:
  status: ('A' for Active; 'I' for Inactive)
    1  A    between atoms: C_1  and  C_3
    2  A    between atoms: C_1  and  C_24
    3  A    between atoms: C_3  and  C_26
    4  A    between atoms: C_4  and  C_13
    5  A    between atoms: C_4  and  C_24
    6  A    between atoms: C_6  and  C_17
    7  A    between atoms: C_11  and  C_19
    8  A    between atoms: C_13  and  N_30
    9  A    between atoms: C_18  and  C_29
   10  A    between atoms: O_23  and  C_26
                            x       y       z     vdW  Elec       q    Type
                         _______ _______ _______ _____ _____    ______ ____

>  <TORSDO>
F 10

$$$$
=
 OpenBabel11072411023D

 30 32  0  0  1  0  0  0  0  0999 V2000
  162.2540  207.1620  151.2700 C   0  0  0  0  0  0  0  0  0  0  0  0
  162.0920  206.1000  152.0650 C   0  0  0  0  0  3  0  0  0  0  0  0
  162.1050  204.7400  151.4270 C   0  0  0  0  0  2  0  0  0  0  0  0
  162.2830  208.4160  149.2510 C   0  0  0  0  0  2  0  0  0  0  0  0
  161.3840  205.9710  149.2340 C   0  0  1  0  0  0  0  0  0  0  0  0
  159.9990  206.6080  149.1370 C   0  0  0  0  0  1  0  0  0  0  0  0
  162.4050  206.9990  149.8040 C   0  0  2  0  0  3  0  0  0  0  0  0
  161.2380  204.7240  150.1560 C   0  0  0  0  0  2  0  0  0  0  0  0
  162.5010  209.3650  150.4340 C   0  0  0  0  0  2  0  0  0  0  0  0
  162.2200  208.5780  151.7130 C   0  0  1  0  0  3  0  0  0  0  0  0
  161.8390  205.5430  147.8220 C   0  0  1  0  0  3  0  0  0  0  0  0
  161.8300  204.0350  147.6270 C   0  0  0  0  0  2  0  0  0  0  0  0
  161.5850  203.8330  146.1480 C   0  0  2  0  0  3  0  0  0  0  0  0
  160.7230  205.0000  145.7140 C   0  0  0  0  0  2  0  0  0  0  0  0
  160.9860  206.1250  146.6990 C   0  0  0  0  0  2  0  0  0  0  0  0
  160.8570  202.5260  145.8930 C   0  0  0  0  0  2  0  0  0  0  0  0
  160.9090  201.6420  147.1250 C   0  0  0  0  0  1  0  0  0  0  0  0
  160.1430  208.0510  152.7990 O   0  0  0  0  0  0  0  0  0  0  0  0
  160.8770  208.9350  152.2780 C   0  0  0  0  0  0  0  0  0  0  0  0
  160.4610  210.2990  152.2610 N   0  0  0  0  0  2  0  0  0  0  0  0
  159.1990  210.7280  152.8390 C   0  0  0  0  0  2  0  0  0  0  0  0
  159.4420  211.8030  153.8840 C   0  0  0  0  0  2  0  0  0  0  0  0
  160.3940  211.3120  154.9670 C   0  0  0  0  0  2  0  0  0  0  0  0
  159.6550  210.8320  156.1760 C   0  0  0  0  0  0  0  0  0  0  0  0
  158.4670  211.0780  156.3110 O   0  0  0  0  0  0  0  0  0  0  0  0
  160.3930  210.1150  157.2600 C   0  0  0  0  0  2  0  0  0  0  0  0
  162.6500  209.5110  156.8110 O   0  0  0  0  0  0  0  0  0  0  0  0
  161.4340  209.2120  156.6750 C   0  0  0  0  0  0  0  0  0  0  0  0
  160.0510  207.1890  156.3790 C   0  0  0  0  0  1  0  0  0  0  0  0
  161.0900  208.0620  155.9620 O   0  0  0  0  0  0  0  0  0  0  0  0
  1 10  1  0  0  0  0
  1  2  2  0  0  0  0
  3  2  1  0  0  0  0
  4  9  1  0  0  0  0
  5  6  1  6  0  0  0
  5  7  1  0  0  0  0
  5  8  1  0  0  0  0
  7  4  1  6  0  0  0
  7  1  1  0  0  0  0
  8  3  1  0  0  0  0
  9 10  1  0  0  0  0
 10 19  1  6  0  0  0
 11 15  1  6  0  0  0
 11  5  1  0  0  0  0
 12 11  1  0  0  0  0
 13 16  1  1  0  0  0
 13 12  1  0  0  0  0
 14 13  1  0  0  0  0
 14 15  1  0  0  0  0
 16 17  1  0  0  0  0
 19 18  2  0  0  0  0
 20 19  1  0  0  0  0
 20 21  1  0  0  0  0
 21 22  1  0  0  0  0
 22 23  1  0  0  0  0
 23 24  1  0  0  0  0
 24 25  2  0  0  0  0
 24 26  1  0  0  0  0
 28 27  2  0  0  0  0
 28 26  1  0  0  0  0
 30 29  1  0  0  0  0
 30 28  1  0  0  0  0
M  END
>  <MODEL>
3

>  <REMARK>
 VINA RESULT:      -6.5      3.688      8.463
  Name = 
  10 active torsions:
  status: ('A' for Active; 'I' for Inactive)
    1  A    between atoms: C_1  and  C_3
    2  A    between atoms: C_1  and  C_24
    3  A    between atoms: C_3  and  C_26
    4  A    between atoms: C_4  and  C_13
    5  A    between atoms: C_4  and  C_24
    6  A    between atoms: C_6  and  C_17
    7  A    between atoms: C_11  and  C_19
    8  A    between atoms: C_13  and  N_30
    9  A    between atoms: C_18  and  C_29
   10  A    between atoms: O_23  and  C_26
                            x       y       z     vdW  Elec       q    Type
                         _______ _______ _______ _____ _____    ______ ____

>  <TORSDO>
F 10

$$$$
=
 OpenBabel11072411023D

 30 32  0  0  1  0  0  0  0  0999 V2000
  162.0470  205.4180  151.4590 C   0  0  0  0  0  0  0  0  0  0  0  0
  161.5160  204.2500  151.8300 C   0  0  0  0  0  3  0  0  0  0  0  0
  161.2220  203.2420  150.7560 C   0  0  0  0  0  2  0  0  0  0  0  0
  162.6330  207.2080  150.0090 C   0  0  0  0  0  2  0  0  0  0  0  0
  161.1040  205.2900  149.1320 C   0  0  1  0  0  0  0  0  0  0  0  0
  159.9650  206.3010  149.2620 C   0  0  0  0  0  1  0  0  0  0  0  0
  162.3020  205.7190  150.0300 C   0  0  2  0  0  3  0  0  0  0  0  0
  160.5230  203.9080  149.5580 C   0  0  0  0  0  2  0  0  0  0  0  0
  162.9770  207.5970  151.4500 C   0  0  0  0  0  2  0  0  0  0  0  0
  162.3570  206.5480  152.3710 C   0  0  1  0  0  3  0  0  0  0  0  0
  161.5700  205.2450  147.6610 C   0  0  1  0  0  3  0  0  0  0  0  0
  161.4880  203.8540  147.0540 C   0  0  0  0  0  2  0  0  0  0  0  0
  161.2690  204.0830  145.5760 C   0  0  2  0  0  3  0  0  0  0  0  0
  160.4790  205.3720  145.4760 C   0  0  0  0  0  2  0  0  0  0  0  0
  160.7760  206.1630  146.7370 C   0  0  0  0  0  2  0  0  0  0  0  0
  160.4800  202.9420  144.9600 C   0  0  0  0  0  2  0  0  0  0  0  0
  160.6450  201.6800  145.7870 C   0  0  0  0  0  1  0  0  0  0  0  0
  160.2720  207.7410  152.3560 O   0  0  0  0  0  0  0  0  0  0  0  0
  161.1120  207.0740  153.0210 C   0  0  0  0  0  0  0  0  0  0  0  0
  160.8680  206.7680  154.3930 N   0  0  0  0  0  2  0  0  0  0  0  0
  159.6590  207.1960  155.0750 C   0  0  0  0  0  2  0  0  0  0  0  0
  159.9970  207.7090  156.4640 C   0  0  0  0  0  2  0  0  0  0  0  0
  161.4800  208.0350  156.5850 C   0  0  0  0  0  2  0  0  0  0  0  0
  161.7130  209.5080  156.7110 C   0  0  0  0  0  0  0  0  0  0  0  0
  162.8490  209.9520  156.7580 O   0  0  0  0  0  0  0  0  0  0  0  0
  160.5480  210.4320  156.8570 C   0  0  0  0  0  2  0  0  0  0  0  0
  160.3590  212.4960  155.6900 O   0  0  0  0  0  0  0  0  0  0  0  0
  160.3600  211.2400  155.6110 C   0  0  0  0  0  0  0  0  0  0  0  0
  160.9540  210.9430  153.2330 C   0  0  0  0  0  1  0  0  0  0  0  0
  160.1590  210.6340  154.3680 O   0  0  0  0  0  0  0  0  0  0  0  0
  1  2  2  0  0  0  0
  1 10  1  0  0  0  0
  3  2  1  0  0  0  0
  4  9  1  0  0  0  0
  5  6  1  1  0  0  0
  5  8  1  0  0  0  0
  5  7  1  0  0  0  0
  7  4  1  1  0  0  0
  7  1  1  0  0  0  0
  8  3  1  0  0  0  0
  9 10  1  0  0  0  0
 10 19  1  6  0  0  0
 11 15  1  6  0  0  0
 11  5  1  0  0  0  0
 12 11  1  0  0  0  0
 13 16  1  1  0  0  0
 13 12  1  0  0  0  0
 14 13  1  0  0  0  0
 14 15  1  0  0  0  0
 16 17  1  0  0  0  0
 18 19  2  0  0  0  0
 19 20  1  0  0  0  0
 20 21  1  0  0  0  0
 21 22  1  0  0  0  0
 22 23  1  0  0  0  0
 23 24  1  0  0  0  0
 24 25  2  0  0  0  0
 24 26  1  0  0  0  0
 28 27  2  0  0  0  0
 28 26  1  0  0  0  0
 29 30  1  0  0  0  0
 30 28  1  0  0  0  0
M  END
>  <MODEL>
4

>  <REMARK>
 VINA RESULT:      -6.3      3.693      8.770
  Name = 
  10 active torsions:
  status: ('A' for Active; 'I' for Inactive)
    1  A    between atoms: C_1  and  C_3
    2  A    between atoms: C_1  and  C_24
    3  A    between atoms: C_3  and  C_26
    4  A    between atoms: C_4  and  C_13
    5  A    between atoms: C_4  and  C_24
    6  A    between atoms: C_6  and  C_17
    7  A    between atoms: C_11  and  C_19
    8  A    between atoms: C_13  and  N_30
    9  A    between atoms: C_18  and  C_29
   10  A    between atoms: O_23  and  C_26
                            x       y       z     vdW  Elec       q    Type
                         _______ _______ _______ _____ _____    ______ ____

>  <TORSDO>
F 10

$$$$
=
 OpenBabel11072411023D

 30 32  0  0  1  0  0  0  0  0999 V2000
  162.1910  206.1560  151.4010 C   0  0  0  0  0  0  0  0  0  0  0  0
  161.8690  204.9760  151.9390 C   0  0  0  0  0  3  0  0  0  0  0  0
  161.7070  203.8060  151.0110 C   0  0  0  0  0  2  0  0  0  0  0  0
  162.4310  207.8150  149.7160 C   0  0  0  0  0  2  0  0  0  0  0  0
  161.2050  205.5840  149.1600 C   0  0  1  0  0  0  0  0  0  0  0  0
  159.9230  206.4120  149.2260 C   0  0  0  0  0  1  0  0  0  0  0  0
  162.3470  206.3080  149.9340 C   0  0  2  0  0  3  0  0  0  0  0  0
  160.8710  204.1950  149.7790 C   0  0  0  0  0  2  0  0  0  0  0  0
  162.7540  208.4350  151.0790 C   0  0  0  0  0  2  0  0  0  0  0  0
  162.3430  207.4280  152.1520 C   0  0  1  0  0  3  0  0  0  0  0  0
  161.6250  205.4250  147.6830 C   0  0  1  0  0  3  0  0  0  0  0  0
  161.6910  203.9740  147.2370 C   0  0  0  0  0  2  0  0  0  0  0  0
  161.3970  204.0050  145.7540 C   0  0  2  0  0  3  0  0  0  0  0  0
  160.4540  205.1730  145.5500 C   0  0  0  0  0  2  0  0  0  0  0  0
  160.6950  206.1330  146.7010 C   0  0  0  0  0  2  0  0  0  0  0  0
  160.7310  202.7170  145.3050 C   0  0  0  0  0  2  0  0  0  0  0  0
  160.7910  201.6790  146.4110 C   0  0  0  0  0  1  0  0  0  0  0  0
  160.1440  208.3930  152.1260 O   0  0  0  0  0  0  0  0  0  0  0  0
  161.0510  207.8310  152.7990 C   0  0  0  0  0  0  0  0  0  0  0  0
  160.8430  207.5250  154.1760 N   0  0  0  0  0  2  0  0  0  0  0  0
  159.5980  207.8350  154.8560 C   0  0  0  0  0  2  0  0  0  0  0  0
  159.8660  208.1560  156.3160 C   0  0  0  0  0  2  0  0  0  0  0  0
  159.6640  209.6390  156.6000 C   0  0  0  0  0  2  0  0  0  0  0  0
  160.7880  210.4640  156.0570 C   0  0  0  0  0  0  0  0  0  0  0  0
  161.9460  210.1320  156.2510 O   0  0  0  0  0  0  0  0  0  0  0  0
  160.4900  211.7410  155.3410 C   0  0  0  0  0  2  0  0  0  0  0  0
  160.8210  211.5370  152.9930 O   0  0  0  0  0  0  0  0  0  0  0  0
  160.0070  211.4620  153.9520 C   0  0  0  0  0  0  0  0  0  0  0  0
  157.5950  211.9440  154.1590 C   0  0  0  0  0  1  0  0  0  0  0  0
  158.6720  211.1470  153.6890 O   0  0  0  0  0  0  0  0  0  0  0  0
  1  2  2  0  0  0  0
  1 10  1  0  0  0  0
  3  2  1  0  0  0  0
  4  9  1  0  0  0  0
  5  6  1  1  0  0  0
  5  8  1  0  0  0  0
  5  7  1  0  0  0  0
  7  4  1  1  0  0  0
  7  1  1  0  0  0  0
  8  3  1  0  0  0  0
  9 10  1  0  0  0  0
 10 19  1  6  0  0  0
 11 15  1  6  0  0  0
 11  5  1  0  0  0  0
 12 11  1  0  0  0  0
 13 16  1  1  0  0  0
 13 12  1  0  0  0  0
 14 13  1  0  0  0  0
 14 15  1  0  0  0  0
 16 17  1  0  0  0  0
 18 19  2  0  0  0  0
 19 20  1  0  0  0  0
 20 21  1  0  0  0  0
 21 22  1  0  0  0  0
 22 23  1  0  0  0  0
 24 25  2  0  0  0  0
 24 23  1  0  0  0  0
 26 24  1  0  0  0  0
 27 28  2  0  0  0  0
 28 26  1  0  0  0  0
 30 28  1  0  0  0  0
 30 29  1  0  0  0  0
M  END
>  <MODEL>
5

>  <REMARK>
 VINA RESULT:      -6.2      3.466      8.692
  Name = 
  10 active torsions:
  status: ('A' for Active; 'I' for Inactive)
    1  A    between atoms: C_1  and  C_3
    2  A    between atoms: C_1  and  C_24
    3  A    between atoms: C_3  and  C_26
    4  A    between atoms: C_4  and  C_13
    5  A    between atoms: C_4  and  C_24
    6  A    between atoms: C_6  and  C_17
    7  A    between atoms: C_11  and  C_19
    8  A    between atoms: C_13  and  N_30
    9  A    between atoms: C_18  and  C_29
   10  A    between atoms: O_23  and  C_26
                            x       y       z     vdW  Elec       q    Type
                         _______ _______ _______ _____ _____    ______ ____

>  <TORSDO>
F 10

$$$$
=
 OpenBabel11072411023D

 30 32  0  0  1  0  0  0  0  0999 V2000
  162.1980  206.8050  151.4070 C   0  0  0  0  0  0  0  0  0  0  0  0
  161.9430  205.6910  152.0980 C   0  0  0  0  0  3  0  0  0  0  0  0
  161.9110  204.3920  151.3450 C   0  0  0  0  0  2  0  0  0  0  0  0
  162.3880  208.2240  149.5090 C   0  0  0  0  0  2  0  0  0  0  0  0
  161.3600  205.8450  149.2410 C   0  0  1  0  0  0  0  0  0  0  0  0
  160.0170  206.5670  149.1430 C   0  0  0  0  0  1  0  0  0  0  0  0
  162.4080  206.7610  149.9400 C   0  0  2  0  0  3  0  0  0  0  0  0
  161.1040  204.5350  150.0420 C   0  0  0  0  0  2  0  0  0  0  0  0
  162.6020  209.0540  150.7790 C   0  0  0  0  0  2  0  0  0  0  0  0
  162.2210  208.1790  151.9710 C   0  0  1  0  0  3  0  0  0  0  0  0
  161.8550  205.5130  147.8160 C   0  0  1  0  0  3  0  0  0  0  0  0
  161.8360  204.0240  147.5120 C   0  0  0  0  0  2  0  0  0  0  0  0
  161.6370  203.9320  146.0160 C   0  0  2  0  0  3  0  0  0  0  0  0
  160.8020  205.1390  145.6410 C   0  0  0  0  0  2  0  0  0  0  0  0
  161.0450  206.1860  146.7120 C   0  0  0  0  0  2  0  0  0  0  0  0
  160.9020  202.6560  145.6440 C   0  0  0  0  0  2  0  0  0  0  0  0
  160.8390  201.7170  146.8350 C   0  0  0  0  0  1  0  0  0  0  0  0
  160.1870  207.7370  153.1700 O   0  0  0  0  0  0  0  0  0  0  0  0
  160.8750  208.5630  152.5090 C   0  0  0  0  0  0  0  0  0  0  0  0
  160.4040  209.8930  152.3050 N   0  0  0  0  0  2  0  0  0  0  0  0
  159.1350  210.3540  152.8440 C   0  0  0  0  0  2  0  0  0  0  0  0
  159.0350  211.8650  152.7220 C   0  0  0  0  0  2  0  0  0  0  0  0
  159.7150  212.5590  153.8950 C   0  0  0  0  0  2  0  0  0  0  0  0
  158.8200  212.6250  155.0920 C   0  0  0  0  0  0  0  0  0  0  0  0
  158.9030  211.7840  155.9720 O   0  0  0  0  0  0  0  0  0  0  0  0
  157.7680  213.6830  155.1720 C   0  0  0  0  0  2  0  0  0  0  0  0
  155.4880  213.5840  155.8430 O   0  0  0  0  0  0  0  0  0  0  0  0
  156.4040  213.0690  155.1490 C   0  0  0  0  0  0  0  0  0  0  0  0
  155.6890  210.7110  154.9910 C   0  0  0  0  0  1  0  0  0  0  0  0
  156.1280  211.9240  154.3980 O   0  0  0  0  0  0  0  0  0  0  0  0
  1 10  1  0  0  0  0
  1  2  2  0  0  0  0
  3  2  1  0  0  0  0
  4  9  1  0  0  0  0
  5  6  1  6  0  0  0
  5  7  1  0  0  0  0
  5  8  1  0  0  0  0
  7  4  1  6  0  0  0
  7  1  1  0  0  0  0
  8  3  1  0  0  0  0
  9 10  1  0  0  0  0
 10 19  1  6  0  0  0
 11 15  1  6  0  0  0
 11  5  1  0  0  0  0
 12 11  1  0  0  0  0
 13 16  1  1  0  0  0
 13 12  1  0  0  0  0
 14 13  1  0  0  0  0
 14 15  1  0  0  0  0
 16 17  1  0  0  0  0
 19 18  2  0  0  0  0
 20 19  1  0  0  0  0
 20 21  1  0  0  0  0
 22 21  1  0  0  0  0
 22 23  1  0  0  0  0
 23 24  1  0  0  0  0
 24 26  1  0  0  0  0
 24 25  2  0  0  0  0
 28 26  1  0  0  0  0
 28 27  2  0  0  0  0
 30 29  1  0  0  0  0
 30 28  1  0  0  0  0
M  END
>  <MODEL>
6

>  <REMARK>
 VINA RESULT:      -6.0      4.456      9.147
  Name = 
  10 active torsions:
  status: ('A' for Active; 'I' for Inactive)
    1  A    between atoms: C_1  and  C_3
    2  A    between atoms: C_1  and  C_24
    3  A    between atoms: C_3  and  C_26
    4  A    between atoms: C_4  and  C_13
    5  A    between atoms: C_4  and  C_24
    6  A    between atoms: C_6  and  C_17
    7  A    between atoms: C_11  and  C_19
    8  A    between atoms: C_13  and  N_30
    9  A    between atoms: C_18  and  C_29
   10  A    between atoms: O_23  and  C_26
                            x       y       z     vdW  Elec       q    Type
                         _______ _______ _______ _____ _____    ______ ____

>  <TORSDO>
F 10

$$$$
=
 OpenBabel11072411023D

 30 32  0  0  1  0  0  0  0  0999 V2000
  160.4780  206.1980  147.6990 C   0  0  0  0  0  0  0  0  0  0  0  0
  160.2660  206.9660  146.6270 C   0  0  0  0  0  3  0  0  0  0  0  0
  160.3910  206.3270  145.2740 C   0  0  0  0  0  2  0  0  0  0  0  0
  161.2740  204.3440  148.9570 C   0  0  0  0  0  2  0  0  0  0  0  0
  161.9450  204.5820  146.4500 C   0  0  1  0  0  0  0  0  0  0  0  0
  163.3110  205.0140  146.9810 C   0  0  0  0  0  1  0  0  0  0  0  0
  160.8600  204.7730  147.5520 C   0  0  2  0  0  3  0  0  0  0  0  0
  161.6580  205.4570  145.1940 C   0  0  0  0  0  2  0  0  0  0  0  0
  160.7080  205.3950  149.9170 C   0  0  0  0  0  2  0  0  0  0  0  0
  160.4480  206.6650  149.1090 C   0  0  1  0  0  3  0  0  0  0  0  0
  162.0060  203.0900  146.0610 C   0  0  1  0  0  3  0  0  0  0  0  0
  162.1090  202.1660  147.2630 C   0  0  0  0  0  2  0  0  0  0  0  0
  161.4620  200.8730  146.8210 C   0  0  2  0  0  3  0  0  0  0  0  0
  160.3840  201.2730  145.8350 C   0  0  0  0  0  2  0  0  0  0  0  0
  160.7990  202.6140  145.2580 C   0  0  0  0  0  2  0  0  0  0  0  0
  160.8420  200.1450  148.0000 C   0  0  0  0  0  2  0  0  0  0  0  0
  160.9780  200.9750  149.2640 C   0  0  0  0  0  1  0  0  0  0  0  0
  162.3740  207.9520  148.4770 O   0  0  0  0  0  0  0  0  0  0  0  0
  161.5140  207.6880  149.3620 C   0  0  0  0  0  0  0  0  0  0  0  0
  161.5130  208.3950  150.6000 N   0  0  0  0  0  2  0  0  0  0  0  0
  162.4800  209.4390  150.8940 C   0  0  0  0  0  2  0  0  0  0  0  0
  162.2340  210.0020  152.2830 C   0  0  0  0  0  2  0  0  0  0  0  0
  160.7430  210.1050  152.5790 C   0  0  0  0  0  2  0  0  0  0  0  0
  160.4440  209.8100  154.0150 C   0  0  0  0  0  0  0  0  0  0  0  0
  159.5900  210.4470  154.6110 O   0  0  0  0  0  0  0  0  0  0  0  0
  161.2470  208.7820  154.7430 C   0  0  0  0  0  2  0  0  0  0  0  0
  159.7120  207.3080  155.8060 O   0  0  0  0  0  0  0  0  0  0  0  0
  160.4910  207.4940  154.8350 C   0  0  0  0  0  0  0  0  0  0  0  0
  161.9070  206.1680  153.3070 C   0  0  0  0  0  1  0  0  0  0  0  0
  160.6480  206.4830  153.8840 O   0  0  0  0  0  0  0  0  0  0  0  0
  1 10  1  0  0  0  0
  2  1  2  0  0  0  0
  3  2  1  0  0  0  0
  4  9  1  0  0  0  0
  5  6  1  1  0  0  0
  5  7  1  0  0  0  0
  7  1  1  0  0  0  0
  7  4  1  1  0  0  0
  8  3  1  0  0  0  0
  8  5  1  0  0  0  0
 10 19  1  6  0  0  0
 10  9  1  0  0  0  0
 11 15  1  1  0  0  0
 11  5  1  0  0  0  0
 11 12  1  0  0  0  0
 13 12  1  0  0  0  0
 13 16  1  1  0  0  0
 14 13  1  0  0  0  0
 15 14  1  0  0  0  0
 16 17  1  0  0  0  0
 18 19  2  0  0  0  0
 19 20  1  0  0  0  0
 20 21  1  0  0  0  0
 21 22  1  0  0  0  0
 22 23  1  0  0  0  0
 23 24  1  0  0  0  0
 24 25  2  0  0  0  0
 24 26  1  0  0  0  0
 26 28  1  0  0  0  0
 28 27  2  0  0  0  0
 29 30  1  0  0  0  0
 30 28  1  0  0  0  0
M  END
>  <MODEL>
7

>  <REMARK>
 VINA RESULT:      -5.7      2.918      7.801
  Name = 
  10 active torsions:
  status: ('A' for Active; 'I' for Inactive)
    1  A    between atoms: C_1  and  C_3
    2  A    between atoms: C_1  and  C_24
    3  A    between atoms: C_3  and  C_26
    4  A    between atoms: C_4  and  C_13
    5  A    between atoms: C_4  and  C_24
    6  A    between atoms: C_6  and  C_17
    7  A    between atoms: C_11  and  C_19
    8  A    between atoms: C_13  and  N_30
    9  A    between atoms: C_18  and  C_29
   10  A    between atoms: O_23  and  C_26
                            x       y       z     vdW  Elec       q    Type
                         _______ _______ _______ _____ _____    ______ ____

>  <TORSDO>
F 10

$$$$
=
 OpenBabel11072411023D

 30 32  0  0  1  0  0  0  0  0999 V2000
  160.6950  206.4560  147.6010 C   0  0  0  0  0  0  0  0  0  0  0  0
  160.3780  206.8810  146.3750 C   0  0  0  0  0  3  0  0  0  0  0  0
  160.3420  205.8660  145.2690 C   0  0  0  0  0  2  0  0  0  0  0  0
  161.5930  205.0200  149.2690 C   0  0  0  0  0  2  0  0  0  0  0  0
  161.9870  204.4730  146.7520 C   0  0  1  0  0  0  0  0  0  0  0  0
  163.4100  204.9750  146.9900 C   0  0  0  0  0  1  0  0  0  0  0  0
  161.0340  205.0340  147.8500 C   0  0  2  0  0  3  0  0  0  0  0  0
  161.5780  204.9510  145.3270 C   0  0  0  0  0  2  0  0  0  0  0  0
  161.1530  206.3340  149.9220 C   0  0  0  0  0  2  0  0  0  0  0  0
  160.8270  207.3190  148.8010 C   0  0  1  0  0  3  0  0  0  0  0  0
  161.9800  202.9310  146.8230 C   0  0  1  0  0  3  0  0  0  0  0  0
  161.8970  202.4030  148.2460 C   0  0  0  0  0  2  0  0  0  0  0  0
  161.2060  201.0630  148.1270 C   0  0  2  0  0  3  0  0  0  0  0  0
  160.2630  201.1940  146.9490 C   0  0  0  0  0  2  0  0  0  0  0  0
  160.8280  202.2860  146.0590 C   0  0  0  0  0  2  0  0  0  0  0  0
  160.4220  200.7430  149.3860 C   0  0  0  0  0  2  0  0  0  0  0  0
  160.8220  201.6800  150.5110 C   0  0  0  0  0  1  0  0  0  0  0  0
  163.0810  207.9490  148.2610 O   0  0  0  0  0  0  0  0  0  0  0  0
  161.9320  208.3190  148.6280 C   0  0  0  0  0  0  0  0  0  0  0  0
  161.6510  209.7010  148.8380 N   0  0  0  0  0  2  0  0  0  0  0  0
  162.6560  210.7320  148.6360 C   0  0  0  0  0  2  0  0  0  0  0  0
  161.9990  212.1010  148.6030 C   0  0  0  0  0  2  0  0  0  0  0  0
  161.2000  212.2980  147.3220 C   0  0  0  0  0  2  0  0  0  0  0  0
  161.6830  213.4840  146.5470 C   0  0  0  0  0  0  0  0  0  0  0  0
  162.5640  214.1980  146.9970 O   0  0  0  0  0  0  0  0  0  0  0  0
  161.0290  213.8380  145.2510 C   0  0  0  0  0  2  0  0  0  0  0  0
  162.7000  212.9540  143.8070 O   0  0  0  0  0  0  0  0  0  0  0  0
  161.4920  212.9210  144.1630 C   0  0  0  0  0  0  0  0  0  0  0  0
  160.6000  211.8930  142.1030 C   0  0  0  0  0  1  0  0  0  0  0  0
  160.6140  212.0500  143.5140 O   0  0  0  0  0  0  0  0  0  0  0  0
  1  7  1  0  0  0  0
  1 10  1  0  0  0  0
  2  1  2  0  0  0  0
  3  8  1  0  0  0  0
  3  2  1  0  0  0  0
  4  9  1  0  0  0  0
  5 11  1  0  0  0  0
  5  6  1  1  0  0  0
  5  7  1  0  0  0  0
  7  4  1  1  0  0  0
  8  5  1  0  0  0  0
 10 19  1  6  0  0  0
 10  9  1  0  0  0  0
 11 15  1  6  0  0  0
 11 12  1  0  0  0  0
 13 12  1  0  0  0  0
 13 16  1  1  0  0  0
 14 13  1  0  0  0  0
 15 14  1  0  0  0  0
 16 17  1  0  0  0  0
 18 19  2  0  0  0  0
 19 20  1  0  0  0  0
 21 20  1  0  0  0  0
 22 21  1  0  0  0  0
 23 22  1  0  0  0  0
 24 25  2  0  0  0  0
 24 23  1  0  0  0  0
 26 24  1  0  0  0  0
 27 28  2  0  0  0  0
 28 26  1  0  0  0  0
 29 30  1  0  0  0  0
 30 28  1  0  0  0  0
M  END
>  <MODEL>
8

>  <REMARK>
 VINA RESULT:      -5.7      3.780      8.411
  Name = 
  10 active torsions:
  status: ('A' for Active; 'I' for Inactive)
    1  A    between atoms: C_1  and  C_3
    2  A    between atoms: C_1  and  C_24
    3  A    between atoms: C_3  and  C_26
    4  A    between atoms: C_4  and  C_13
    5  A    between atoms: C_4  and  C_24
    6  A    between atoms: C_6  and  C_17
    7  A    between atoms: C_11  and  C_19
    8  A    between atoms: C_13  and  N_30
    9  A    between atoms: C_18  and  C_29
   10  A    between atoms: O_23  and  C_26
                            x       y       z     vdW  Elec       q    Type
                         _______ _______ _______ _____ _____    ______ ____

>  <TORSDO>
F 10

$$$$
=
 OpenBabel11072411023D

 30 32  0  0  1  0  0  0  0  0999 V2000
  160.6600  206.4390  147.5170 C   0  0  0  0  0  0  0  0  0  0  0  0
  160.3640  206.8880  146.2940 C   0  0  0  0  0  3  0  0  0  0  0  0
  160.3290  205.8910  145.1720 C   0  0  0  0  0  2  0  0  0  0  0  0
  161.5200  204.9640  149.1720 C   0  0  0  0  0  2  0  0  0  0  0  0
  161.9380  204.4540  146.6510 C   0  0  1  0  0  0  0  0  0  0  0  0
  163.3650  204.9340  146.9140 C   0  0  0  0  0  1  0  0  0  0  0  0
  160.9790  205.0080  147.7460 C   0  0  2  0  0  3  0  0  0  0  0  0
  161.5530  204.9590  145.2300 C   0  0  0  0  0  2  0  0  0  0  0  0
  161.0890  206.2730  149.8410 C   0  0  0  0  0  2  0  0  0  0  0  0
  160.7890  207.2810  148.7330 C   0  0  1  0  0  3  0  0  0  0  0  0
  161.9110  202.9110  146.6970 C   0  0  1  0  0  3  0  0  0  0  0  0
  161.8930  202.3590  148.1130 C   0  0  0  0  0  2  0  0  0  0  0  0
  161.1760  201.0310  148.0070 C   0  0  2  0  0  3  0  0  0  0  0  0
  160.1760  201.1970  146.8820 C   0  0  0  0  0  2  0  0  0  0  0  0
  160.7110  202.2960  145.9820 C   0  0  0  0  0  2  0  0  0  0  0  0
  160.4520  200.7010  149.3000 C   0  0  0  0  0  2  0  0  0  0  0  0
  160.9300  201.6070  150.4200 C   0  0  0  0  0  1  0  0  0  0  0  0
  163.0610  207.8880  148.2440 O   0  0  0  0  0  0  0  0  0  0  0  0
  161.9080  208.2690  148.5890 C   0  0  0  0  0  0  0  0  0  0  0  0
  161.6380  209.6530  148.8010 N   0  0  0  0  0  2  0  0  0  0  0  0
  162.6580  210.6730  148.6270 C   0  0  0  0  0  2  0  0  0  0  0  0
  162.0090  212.0140  148.3320 C   0  0  0  0  0  2  0  0  0  0  0  0
  160.8170  211.8560  147.3980 C   0  0  0  0  0  2  0  0  0  0  0  0
  160.3920  213.1680  146.8160 C   0  0  0  0  0  0  0  0  0  0  0  0
  160.9550  214.1990  147.1450 O   0  0  0  0  0  0  0  0  0  0  0  0
  159.2230  213.2220  145.8870 C   0  0  0  0  0  2  0  0  0  0  0  0
  157.0320  212.3280  146.1260 O   0  0  0  0  0  0  0  0  0  0  0  0
  157.9450  213.0260  146.6400 C   0  0  0  0  0  0  0  0  0  0  0  0
  156.9390  213.0070  148.8950 C   0  0  0  0  0  1  0  0  0  0  0  0
  157.7300  213.6190  147.8860 O   0  0  0  0  0  0  0  0  0  0  0  0
  1  7  1  0  0  0  0
  1 10  1  0  0  0  0
  2  1  2  0  0  0  0
  3  8  1  0  0  0  0
  3  2  1  0  0  0  0
  4  9  1  0  0  0  0
  5 11  1  0  0  0  0
  5  6  1  1  0  0  0
  5  7  1  0  0  0  0
  7  4  1  1  0  0  0
  8  5  1  0  0  0  0
 10 19  1  6  0  0  0
 10  9  1  0  0  0  0
 11 15  1  6  0  0  0
 11 12  1  0  0  0  0
 13 12  1  0  0  0  0
 13 16  1  1  0  0  0
 14 13  1  0  0  0  0
 15 14  1  0  0  0  0
 16 17  1  0  0  0  0
 18 19  2  0  0  0  0
 19 20  1  0  0  0  0
 21 20  1  0  0  0  0
 22 21  1  0  0  0  0
 23 22  1  0  0  0  0
 24 25  2  0  0  0  0
 24 23  1  0  0  0  0
 26 28  1  0  0  0  0
 26 24  1  0  0  0  0
 27 28  2  0  0  0  0
 28 30  1  0  0  0  0
 30 29  1  0  0  0  0
M  END
>  <MODEL>
9

>  <REMARK>
 VINA RESULT:      -5.5      3.804      8.272
  Name = 
  10 active torsions:
  status: ('A' for Active; 'I' for Inactive)
    1  A    between atoms: C_1  and  C_3
    2  A    between atoms: C_1  and  C_24
    3  A    between atoms: C_3  and  C_26
    4  A    between atoms: C_4  and  C_13
    5  A    between atoms: C_4  and  C_24
    6  A    between atoms: C_6  and  C_17
    7  A    between atoms: C_11  and  C_19
    8  A    between atoms: C_13  and  N_30
    9  A    between atoms: C_18  and  C_29
   10  A    between atoms: O_23  and  C_26
                            x       y       z     vdW  Elec       q    Type
                         _______ _______ _______ _____ _____    ______ ____

>  <TORSDO>
F 10

$$$$
