=
 OpenBabel11072413443D

 44 50  0  0  1  0  0  0  0  0999 V2000
  158.0950  211.7540  153.2850 C   0  0  0  0  0  2  0  0  0  0  0  0
  159.8090  210.0160  153.5470 C   0  0  0  0  0  3  0  0  0  0  0  0
  158.5200  210.3650  153.6420 C   0  0  0  0  0  3  0  0  0  0  0  0
  161.0780  211.8350  151.0360 N   0  0  0  0  0  0  0  0  0  0  0  0
  158.8430  212.1780  152.0240 C   0  0  2  0  0  3  0  0  0  0  0  0
  161.5790  210.6620  151.7890 C   0  0  1  0  0  3  0  0  0  0  0  0
  161.3670  212.4970  149.8040 C   0  0  0  0  0  0  0  0  0  0  0  0
  160.3620  212.1710  152.2810 C   0  0  1  0  0  3  0  0  0  0  0  0
  160.7880  213.5840  149.5270 O   0  0  0  0  0  0  0  0  0  0  0  0
  160.8760  210.9960  153.0870 C   0  0  1  0  0  3  0  0  0  0  0  0
  162.0030  205.9650  153.5580 N   0  0  0  0  0  0  0  0  0  0  0  0
  162.6450  207.6360  150.3500 O   0  0  0  0  0  0  0  0  0  0  0  0
  160.7700  208.0240  153.3780 C   0  0  0  0  0  3  0  0  0  0  0  0
  161.3420  208.2020  152.1170 C   0  0  0  0  0  0  0  0  0  0  0  0
  162.0950  208.9020  149.9920 C   0  0  2  0  0  3  0  0  0  0  0  0
  162.2050  207.2800  151.6040 C   0  0  0  0  0  0  0  0  0  0  0  0
  162.5520  206.1420  152.3220 C   0  0  0  0  0  3  0  0  0  0  0  0
  161.1280  206.8710  154.0960 C   0  0  0  0  0  3  0  0  0  0  0  0
  161.1520  209.3220  151.1490 C   0  0  2  0  0  3  0  0  0  0  0  0
  161.3650  208.8500  148.6490 C   0  0  0  0  0  2  0  0  0  0  0  0
  161.7290  207.6230  147.8250 C   0  0  0  0  0  2  0  0  0  0  0  0
  160.7250  206.5860  148.0180 N   0  0  0  0  0  2  0  0  0  0  0  0
  161.2410  205.3370  147.4710 C   0  0  0  0  0  0  0  0  0  0  0  0
  161.2320  205.2120  145.9610 C   0  0  0  0  0  2  0  0  0  0  0  0
  162.5310  205.5170  146.6990 C   0  0  0  0  0  2  0  0  0  0  0  0
  160.7760  200.6250  150.5630 F   0  0  0  0  0  0  0  0  0  0  0  0
  160.8620  203.0050  150.4480 C   0  0  0  0  0  3  0  0  0  0  0  0
  160.9810  204.1720  149.6860 C   0  0  0  0  0  3  0  0  0  0  0  0
  161.1650  202.8350  147.6750 C   0  0  0  0  0  3  0  0  0  0  0  0
  161.0420  201.6700  148.4380 C   0  0  0  0  0  3  0  0  0  0  0  0
  161.1460  204.0900  148.2980 C   0  0  0  0  0  0  0  0  0  0  0  0
  160.8960  201.7550  149.8250 C   0  0  0  0  0  0  0  0  0  0  0  0
  158.6550  214.2620  152.7440 C   0  0  0  0  0  1  0  0  0  0  0  0
  158.4310  213.4520  151.6310 O   0  0  0  0  0  0  0  0  0  0  0  0
  162.2870  211.9340  148.9200 O   0  0  0  0  0  0  0  0  0  0  0  0
  161.9930  213.1610  145.4190 C   0  0  0  0  0  0  0  0  0  0  0  0
  163.1750  213.7770  145.0260 O   0  0  0  0  0  1  0  0  0  0  0  0
  160.3770  211.9860  146.7450 C   0  0  0  0  0  3  0  0  0  0  0  0
  162.6230  212.5350  147.7100 C   0  0  0  0  0  3  0  0  0  0  0  0
  160.9230  213.0510  144.6610 C   0  0  0  0  0  0  0  0  0  0  0  0
  159.8030  212.3450  145.3660 C   0  0  0  0  0  3  0  0  0  0  0  0
  161.7550  212.5520  146.7060 C   0  0  0  0  0  0  0  0  0  0  0  0
  160.8620  213.5420  143.3570 O   0  0  0  0  0  0  0  0  0  0  0  0
  160.8470  212.6760  142.2310 C   0  0  0  0  0  1  0  0  0  0  0  0
  1  3  1  0  0  0  0
  2  3  2  0  0  0  0
  5 34  1  1  0  0  0
  5  8  1  0  0  0  0
  5  1  1  0  0  0  0
  6  4  1  6  0  0  0
  6 10  1  0  0  0  0
  7  4  1  0  0  0  0
  8  4  1  6  0  0  0
  8 10  1  0  0  0  0
  9  7  2  0  0  0  0
 10  2  1  6  0  0  0
 11 18  1  0  0  0  0
 12 16  1  0  0  0  0
 13 18  2  0  0  0  0
 14 13  1  0  0  0  0
 15 20  1  6  0  0  0
 15 12  1  0  0  0  0
 15 19  1  0  0  0  0
 16 14  2  0  0  0  0
 16 17  1  0  0  0  0
 17 11  2  0  0  0  0
 19  6  1  0  0  0  0
 19 14  1  1  0  0  0
 21 22  1  0  0  0  0
 21 20  1  0  0  0  0
 23 22  1  0  0  0  0
 23 31  1  0  0  0  0
 24 25  1  0  0  0  0
 24 23  1  0  0  0  0
 25 23  1  0  0  0  0
 28 27  2  0  0  0  0
 29 31  2  0  0  0  0
 29 30  1  0  0  0  0
 30 32  2  0  0  0  0
 31 28  1  0  0  0  0
 32 27  1  0  0  0  0
 32 26  1  0  0  0  0
 34 33  1  0  0  0  0
 35  7  1  0  0  0  0
 36 42  1  0  0  0  0
 37 36  1  0  0  0  0
 39 35  1  0  0  0  0
 40 41  1  0  0  0  0
 40 36  2  0  0  0  0
 41 38  2  0  0  0  0
 42 38  1  0  0  0  0
 42 39  2  0  0  0  0
 43 40  1  0  0  0  0
 44 43  1  0  0  0  0
M  END
>  <MODEL>
1

>  <REMARK>
 VINA RESULT:      -8.1      0.000      0.000
  Name = 
  10 active torsions:
  status: ('A' for Active; 'I' for Inactive)
    1  A    between atoms: C_1  and  N_35
    2  A    between atoms: C_1  and  C_40
    3  A    between atoms: O_8  and  C_27
    4  A    between atoms: C_18  and  C_39
    5  A    between atoms: C_20  and  O_36
    6  A    between atoms: C_22  and  C_41
    7  A    between atoms: C_25  and  O_33
    8  A    between atoms: C_26  and  N_35
    9  A    between atoms: C_26  and  C_39
   10  A    between atoms: C_28  and  O_33
                            x       y       z     vdW  Elec       q    Type
                         _______ _______ _______ _____ _____    ______ ____

>  <TORSDO>
F 10

$$$$
=
 OpenBabel11072413443D

 44 50  0  0  1  0  0  0  0  0999 V2000
  155.9680  213.8860  153.9790 C   0  0  0  0  0  2  0  0  0  0  0  0
  158.0550  213.3550  155.1590 C   0  0  0  0  0  3  0  0  0  0  0  0
  156.7240  213.2330  155.0930 C   0  0  0  0  0  3  0  0  0  0  0  0
  159.1200  213.6000  151.9920 N   0  0  0  0  0  0  0  0  0  0  0  0
  156.7530  213.6910  152.6860 C   0  0  2  0  0  3  0  0  0  0  0  0
  159.8160  213.3670  153.2780 C   0  0  1  0  0  3  0  0  0  0  0  0
  159.3970  213.4410  150.6000 C   0  0  0  0  0  0  0  0  0  0  0  0
  158.1420  214.3490  152.8020 C   0  0  1  0  0  3  0  0  0  0  0  0
  158.5750  213.8710  149.7450 O   0  0  0  0  0  0  0  0  0  0  0  0
  158.8420  214.1510  154.1300 C   0  0  1  0  0  3  0  0  0  0  0  0
  162.2860  211.1010  157.0380 N   0  0  0  0  0  0  0  0  0  0  0  0
  161.8950  210.5340  153.4300 O   0  0  0  0  0  0  0  0  0  0  0  0
  160.3070  212.1760  156.1900 C   0  0  0  0  0  3  0  0  0  0  0  0
  160.6390  211.6870  154.9260 C   0  0  0  0  0  0  0  0  0  0  0  0
  160.8440  211.0990  152.6480 C   0  0  2  0  0  3  0  0  0  0  0  0
  161.7540  210.9230  154.7420 C   0  0  0  0  0  0  0  0  0  0  0  0
  162.6000  210.6200  155.8020 C   0  0  0  0  0  3  0  0  0  0  0  0
  161.1690  211.8630  157.2540 C   0  0  0  0  0  3  0  0  0  0  0  0
  159.9210  211.8660  153.6300 C   0  0  2  0  0  3  0  0  0  0  0  0
  160.0820  210.0350  151.8580 C   0  0  0  0  0  2  0  0  0  0  0  0
  160.6890  208.6460  151.9990 C   0  0  0  0  0  2  0  0  0  0  0  0
  161.0630  208.1370  150.6870 N   0  0  0  0  0  2  0  0  0  0  0  0
  161.4020  206.7250  150.8190 C   0  0  0  0  0  0  0  0  0  0  0  0
  162.3080  206.3580  151.9770 C   0  0  0  0  0  2  0  0  0  0  0  0
  160.8090  206.0870  152.0580 C   0  0  0  0  0  2  0  0  0  0  0  0
  161.3610  203.5100  146.1670 F   0  0  0  0  0  0  0  0  0  0  0  0
  161.3170  203.6810  148.5450 C   0  0  0  0  0  3  0  0  0  0  0  0
  161.3310  204.4740  149.6970 C   0  0  0  0  0  3  0  0  0  0  0  0
  161.4670  206.4630  148.3230 C   0  0  0  0  0  3  0  0  0  0  0  0
  161.4490  205.6690  147.1720 C   0  0  0  0  0  3  0  0  0  0  0  0
  161.4190  205.8670  149.5900 C   0  0  0  0  0  0  0  0  0  0  0  0
  161.3790  204.2780  147.2830 C   0  0  0  0  0  0  0  0  0  0  0  0
  154.7090  214.1740  151.9890 C   0  0  0  0  0  1  0  0  0  0  0  0
  156.0500  214.2440  151.6140 O   0  0  0  0  0  0  0  0  0  0  0  0
  160.5760  212.8120  150.2010 O   0  0  0  0  0  0  0  0  0  0  0  0
  161.9550  213.5580  146.8260 C   0  0  0  0  0  0  0  0  0  0  0  0
  163.0820  214.3650  146.9370 O   0  0  0  0  0  1  0  0  0  0  0  0
  160.0560  212.2190  147.4150 C   0  0  0  0  0  3  0  0  0  0  0  0
  161.4020  213.3340  149.2100 C   0  0  0  0  0  3  0  0  0  0  0  0
  161.4470  213.1410  145.6860 C   0  0  0  0  0  0  0  0  0  0  0  0
  160.2260  212.2950  145.8910 C   0  0  0  0  0  3  0  0  0  0  0  0
  161.1740  213.0560  147.9320 C   0  0  0  0  0  0  0  0  0  0  0  0
  161.9980  213.4630  144.4460 O   0  0  0  0  0  0  0  0  0  0  0  0
  161.3280  214.3150  143.5290 C   0  0  0  0  0  1  0  0  0  0  0  0
  1  3  1  0  0  0  0
  3  2  2  0  0  0  0
  5 34  1  6  0  0  0
  5  8  1  0  0  0  0
  5  1  1  0  0  0  0
  6  4  1  6  0  0  0
  6 19  1  0  0  0  0
  6 10  1  0  0  0  0
  7  4  1  0  0  0  0
  8  4  1  6  0  0  0
  8 10  1  0  0  0  0
  9  7  2  0  0  0  0
 10  2  1  1  0  0  0
 11 18  1  0  0  0  0
 12 16  1  0  0  0  0
 13 18  2  0  0  0  0
 14 13  1  0  0  0  0
 15 20  1  1  0  0  0
 15 12  1  0  0  0  0
 15 19  1  0  0  0  0
 16 14  2  0  0  0  0
 16 17  1  0  0  0  0
 17 11  2  0  0  0  0
 19 14  1  1  0  0  0
 20 21  1  0  0  0  0
 22 23  1  0  0  0  0
 22 21  1  0  0  0  0
 23 24  1  0  0  0  0
 23 25  1  0  0  0  0
 24 25  1  0  0  0  0
 26 32  1  0  0  0  0
 27 28  1  0  0  0  0
 29 31  1  0  0  0  0
 30 32  1  0  0  0  0
 30 29  2  0  0  0  0
 31 28  2  0  0  0  0
 31 23  1  0  0  0  0
 32 27  2  0  0  0  0
 34 33  1  0  0  0  0
 35  7  1  0  0  0  0
 36 37  1  0  0  0  0
 36 42  1  0  0  0  0
 38 42  1  0  0  0  0
 39 35  1  0  0  0  0
 40 41  1  0  0  0  0
 40 36  2  0  0  0  0
 41 38  2  0  0  0  0
 42 39  2  0  0  0  0
 43 40  1  0  0  0  0
 44 43  1  0  0  0  0
M  END
>  <MODEL>
2

>  <REMARK>
 VINA RESULT:      -7.7      2.348      3.637
  Name = 
  10 active torsions:
  status: ('A' for Active; 'I' for Inactive)
    1  A    between atoms: C_1  and  N_35
    2  A    between atoms: C_1  and  C_40
    3  A    between atoms: O_8  and  C_27
    4  A    between atoms: C_18  and  C_39
    5  A    between atoms: C_20  and  O_36
    6  A    between atoms: C_22  and  C_41
    7  A    between atoms: C_25  and  O_33
    8  A    between atoms: C_26  and  N_35
    9  A    between atoms: C_26  and  C_39
   10  A    between atoms: C_28  and  O_33
                            x       y       z     vdW  Elec       q    Type
                         _______ _______ _______ _____ _____    ______ ____

>  <TORSDO>
F 10

$$$$
=
 OpenBabel11072413443D

 44 50  0  0  1  0  0  0  0  0999 V2000
  160.9330  211.8240  156.7700 C   0  0  0  0  0  2  0  0  0  0  0  0
  158.8470  212.2770  155.5550 C   0  0  0  0  0  3  0  0  0  0  0  0
  159.7140  212.6510  156.5030 C   0  0  0  0  0  3  0  0  0  0  0  0
  160.6550  210.6990  153.2170 N   0  0  0  0  0  0  0  0  0  0  0  0
  161.5100  211.3730  155.4320 C   0  0  2  0  0  3  0  0  0  0  0  0
  159.2680  211.2180  153.2440 C   0  0  1  0  0  3  0  0  0  0  0  0
  161.6070  210.2890  152.2350 C   0  0  0  0  0  0  0  0  0  0  0  0
  160.4810  210.5160  154.6700 C   0  0  1  0  0  3  0  0  0  0  0  0
  162.6990  209.7720  152.5990 O   0  0  0  0  0  0  0  0  0  0  0  0
  159.0530  211.0170  154.7280 C   0  0  1  0  0  3  0  0  0  0  0  0
  155.2350  214.1890  152.7120 N   0  0  0  0  0  0  0  0  0  0  0  0
  158.2150  213.4130  150.7070 O   0  0  0  0  0  0  0  0  0  0  0  0
  157.0050  213.2970  154.0770 C   0  0  0  0  0  3  0  0  0  0  0  0
  157.7810  213.1930  152.9220 C   0  0  0  0  0  0  0  0  0  0  0  0
  159.3970  212.8200  151.2410 C   0  0  2  0  0  3  0  0  0  0  0  0
  157.2920  213.5870  151.7120 C   0  0  0  0  0  0  0  0  0  0  0  0
  156.0020  214.0920  151.5880 C   0  0  0  0  0  3  0  0  0  0  0  0
  155.7040  213.8080  153.9410 C   0  0  0  0  0  3  0  0  0  0  0  0
  159.1770  212.6850  152.7700 C   0  0  2  0  0  3  0  0  0  0  0  0
  160.6470  213.6360  150.9110 C   0  0  0  0  0  2  0  0  0  0  0  0
  160.6680  214.1300  149.4720 C   0  0  0  0  0  2  0  0  0  0  0  0
  160.7100  212.9940  148.5620 N   0  0  0  0  0  2  0  0  0  0  0  0
  161.6760  213.2810  147.5080 C   0  0  0  0  0  0  0  0  0  0  0  0
  162.6650  214.3950  147.7910 C   0  0  0  0  0  2  0  0  0  0  0  0
  163.0980  212.9370  147.9000 C   0  0  0  0  0  2  0  0  0  0  0  0
  160.2830  212.0810  142.1610 F   0  0  0  0  0  0  0  0  0  0  0  0
  161.9070  212.8190  143.7430 C   0  0  0  0  0  3  0  0  0  0  0  0
  162.2530  213.1200  145.0640 C   0  0  0  0  0  3  0  0  0  0  0  0
  160.0150  212.5350  145.7800 C   0  0  0  0  0  3  0  0  0  0  0  0
  159.6710  212.2300  144.4590 C   0  0  0  0  0  3  0  0  0  0  0  0
  161.3040  212.9910  146.0860 C   0  0  0  0  0  0  0  0  0  0  0  0
  160.6170  212.3780  143.4400 C   0  0  0  0  0  0  0  0  0  0  0  0
  162.3170  209.6260  156.5250 C   0  0  0  0  0  1  0  0  0  0  0  0
  162.6810  210.6410  155.6400 O   0  0  0  0  0  0  0  0  0  0  0  0
  161.3190  210.4660  150.8820 O   0  0  0  0  0  0  0  0  0  0  0  0
  161.9330  207.2860  149.0490 C   0  0  0  0  0  0  0  0  0  0  0  0
  162.6600  207.5330  147.8910 O   0  0  0  0  0  1  0  0  0  0  0  0
  160.7800  207.6310  151.1230 C   0  0  0  0  0  3  0  0  0  0  0  0
  161.7660  209.5840  149.9020 C   0  0  0  0  0  3  0  0  0  0  0  0
  161.5110  206.0970  149.4240 C   0  0  0  0  0  0  0  0  0  0  0  0
  160.7460  206.1520  150.7120 C   0  0  0  0  0  3  0  0  0  0  0  0
  161.5310  208.2820  150.0130 C   0  0  0  0  0  0  0  0  0  0  0  0
  161.7570  204.9370  148.6900 O   0  0  0  0  0  0  0  0  0  0  0  0
  161.0430  203.7330  148.9310 C   0  0  0  0  0  1  0  0  0  0  0  0
  2  3  2  0  0  0  0
  3  1  1  0  0  0  0
  5 34  1  1  0  0  0
  5  1  1  0  0  0  0
  6  4  1  1  0  0  0
  6 10  1  0  0  0  0
  7  9  2  0  0  0  0
  7  4  1  0  0  0  0
  8  4  1  6  0  0  0
  8 10  1  0  0  0  0
  8  5  1  0  0  0  0
 10  2  1  1  0  0  0
 11 18  1  0  0  0  0
 12 15  1  0  0  0  0
 12 16  1  0  0  0  0
 14 13  1  0  0  0  0
 15 20  1  1  0  0  0
 15 19  1  0  0  0  0
 16 14  2  0  0  0  0
 17 16  1  0  0  0  0
 17 11  2  0  0  0  0
 18 13  2  0  0  0  0
 19 14  1  6  0  0  0
 19  6  1  0  0  0  0
 21 20  1  0  0  0  0
 22 21  1  0  0  0  0
 23 24  1  0  0  0  0
 23 25  1  0  0  0  0
 23 22  1  0  0  0  0
 24 25  1  0  0  0  0
 26 32  1  0  0  0  0
 27 28  1  0  0  0  0
 28 31  2  0  0  0  0
 29 31  1  0  0  0  0
 30 29  2  0  0  0  0
 31 23  1  0  0  0  0
 32 27  2  0  0  0  0
 32 30  1  0  0  0  0
 34 33  1  0  0  0  0
 35  7  1  0  0  0  0
 36 40  2  0  0  0  0
 36 42  1  0  0  0  0
 37 36  1  0  0  0  0
 39 42  2  0  0  0  0
 39 35  1  0  0  0  0
 40 41  1  0  0  0  0
 41 38  2  0  0  0  0
 42 38  1  0  0  0  0
 43 44  1  0  0  0  0
 43 40  1  0  0  0  0
M  END
>  <MODEL>
3

>  <REMARK>
 VINA RESULT:      -7.4      3.357      7.615
  Name = 
  10 active torsions:
  status: ('A' for Active; 'I' for Inactive)
    1  A    between atoms: C_1  and  N_35
    2  A    between atoms: C_1  and  C_40
    3  A    between atoms: O_8  and  C_27
    4  A    between atoms: C_18  and  C_39
    5  A    between atoms: C_20  and  O_36
    6  A    between atoms: C_22  and  C_41
    7  A    between atoms: C_25  and  O_33
    8  A    between atoms: C_26  and  N_35
    9  A    between atoms: C_26  and  C_39
   10  A    between atoms: C_28  and  O_33
                            x       y       z     vdW  Elec       q    Type
                         _______ _______ _______ _____ _____    ______ ____

>  <TORSDO>
F 10

$$$$
=
 OpenBabel11072413443D

 44 50  0  0  1  0  0  0  0  0999 V2000
  160.0930  212.5410  151.4350 C   0  0  0  0  0  2  0  0  0  0  0  0
  160.6750  211.0010  153.2570 C   0  0  0  0  0  3  0  0  0  0  0  0
  159.8100  211.8890  152.7520 C   0  0  0  0  0  3  0  0  0  0  0  0
  162.0960  209.4930  150.6240 N   0  0  0  0  0  0  0  0  0  0  0  0
  160.6460  211.4850  150.4840 C   0  0  2  0  0  3  0  0  0  0  0  0
  162.0760  209.1910  152.0740 C   0  0  1  0  0  3  0  0  0  0  0  0
  162.3990  208.8060  149.4090 C   0  0  0  0  0  0  0  0  0  0  0  0
  161.9570  210.8990  151.0430 C   0  0  1  0  0  3  0  0  0  0  0  0
  162.4170  209.4410  148.3190 O   0  0  0  0  0  0  0  0  0  0  0  0
  161.9590  210.6280  152.5340 C   0  0  1  0  0  3  0  0  0  0  0  0
  160.5440  207.7110  156.6380 N   0  0  0  0  0  0  0  0  0  0  0  0
  161.0770  206.0850  153.3870 O   0  0  0  0  0  0  0  0  0  0  0  0
  160.5030  209.3090  154.8400 C   0  0  0  0  0  3  0  0  0  0  0  0
  160.7390  208.2540  153.9580 C   0  0  0  0  0  0  0  0  0  0  0  0
  161.1600  206.7930  152.1520 C   0  0  2  0  0  3  0  0  0  0  0  0
  160.8590  206.9740  154.4140 C   0  0  0  0  0  0  0  0  0  0  0  0
  160.7660  206.6830  155.7700 C   0  0  0  0  0  3  0  0  0  0  0  0
  160.4110  209.0030  156.2080 C   0  0  0  0  0  3  0  0  0  0  0  0
  160.8900  208.2850  152.4730 C   0  0  2  0  0  3  0  0  0  0  0  0
  160.1830  206.2450  151.1110 C   0  0  0  0  0  2  0  0  0  0  0  0
  160.1880  204.7250  151.0370 C   0  0  0  0  0  2  0  0  0  0  0  0
  161.1710  204.2830  150.0580 N   0  0  0  0  0  2  0  0  0  0  0  0
  161.2170  202.8260  150.0740 C   0  0  0  0  0  0  0  0  0  0  0  0
  161.9290  202.1900  151.2510 C   0  0  0  0  0  2  0  0  0  0  0  0
  160.4050  202.2210  151.2000 C   0  0  0  0  0  2  0  0  0  0  0  0
  160.9530  200.0370  145.1620 F   0  0  0  0  0  0  0  0  0  0  0  0
  161.3030  200.0120  147.5200 C   0  0  0  0  0  3  0  0  0  0  0  0
  161.3730  200.7000  148.7360 C   0  0  0  0  0  3  0  0  0  0  0  0
  160.8840  202.7740  147.5860 C   0  0  0  0  0  3  0  0  0  0  0  0
  160.8110  202.0840  146.3720 C   0  0  0  0  0  3  0  0  0  0  0  0
  161.1760  202.0860  148.7710 C   0  0  0  0  0  0  0  0  0  0  0  0
  161.0260  200.7040  146.3390 C   0  0  0  0  0  0  0  0  0  0  0  0
  160.4960  213.3840  149.3580 C   0  0  0  0  0  1  0  0  0  0  0  0
  160.8730  212.0470  149.2260 O   0  0  0  0  0  0  0  0  0  0  0  0
  162.6710  207.4380  149.4420 O   0  0  0  0  0  0  0  0  0  0  0  0
  162.3560  205.6850  146.1750 C   0  0  0  0  0  0  0  0  0  0  0  0
  163.5870  205.1690  145.7870 O   0  0  0  0  0  1  0  0  0  0  0  0
  160.6600  206.7870  147.4630 C   0  0  0  0  0  3  0  0  0  0  0  0
  163.0200  206.7190  148.3020 C   0  0  0  0  0  3  0  0  0  0  0  0
  161.2490  205.5800  145.4700 C   0  0  0  0  0  0  0  0  0  0  0  0
  160.0870  206.2460  146.1450 C   0  0  0  0  0  3  0  0  0  0  0  0
  162.1000  206.4090  147.3970 C   0  0  0  0  0  0  0  0  0  0  0  0
  161.1900  204.9220  144.2420 O   0  0  0  0  0  0  0  0  0  0  0  0
  161.4330  205.6000  143.0180 C   0  0  0  0  0  1  0  0  0  0  0  0
  1  3  1  0  0  0  0
  3  2  2  0  0  0  0
  5 34  1  6  0  0  0
  5  8  1  0  0  0  0
  5  1  1  0  0  0  0
  6  4  1  6  0  0  0
  6 19  1  0  0  0  0
  6 10  1  0  0  0  0
  7 35  1  0  0  0  0
  7  4  1  0  0  0  0
  8  4  1  6  0  0  0
  8 10  1  0  0  0  0
  9  7  2  0  0  0  0
 10  2  1  6  0  0  0
 12 16  1  0  0  0  0
 13 18  2  0  0  0  0
 14 16  2  0  0  0  0
 14 13  1  0  0  0  0
 15 20  1  6  0  0  0
 15 19  1  0  0  0  0
 15 12  1  0  0  0  0
 16 17  1  0  0  0  0
 17 11  2  0  0  0  0
 18 11  1  0  0  0  0
 19 14  1  1  0  0  0
 21 20  1  0  0  0  0
 22 23  1  0  0  0  0
 22 21  1  0  0  0  0
 23 25  1  0  0  0  0
 23 24  1  0  0  0  0
 25 24  1  0  0  0  0
 26 32  1  0  0  0  0
 27 28  1  0  0  0  0
 28 31  2  0  0  0  0
 29 31  1  0  0  0  0
 30 29  2  0  0  0  0
 31 23  1  0  0  0  0
 32 30  1  0  0  0  0
 32 27  2  0  0  0  0
 34 33  1  0  0  0  0
 36 42  1  0  0  0  0
 37 36  1  0  0  0  0
 39 35  1  0  0  0  0
 40 41  1  0  0  0  0
 40 36  2  0  0  0  0
 41 38  2  0  0  0  0
 42 38  1  0  0  0  0
 42 39  2  0  0  0  0
 43 40  1  0  0  0  0
 44 43  1  0  0  0  0
M  END
>  <MODEL>
4

>  <REMARK>
 VINA RESULT:      -6.4      2.687      4.455
  Name = 
  10 active torsions:
  status: ('A' for Active; 'I' for Inactive)
    1  A    between atoms: C_1  and  N_35
    2  A    between atoms: C_1  and  C_40
    3  A    between atoms: O_8  and  C_27
    4  A    between atoms: C_18  and  C_39
    5  A    between atoms: C_20  and  O_36
    6  A    between atoms: C_22  and  C_41
    7  A    between atoms: C_25  and  O_33
    8  A    between atoms: C_26  and  N_35
    9  A    between atoms: C_26  and  C_39
   10  A    between atoms: C_28  and  O_33
                            x       y       z     vdW  Elec       q    Type
                         _______ _______ _______ _____ _____    ______ ____

>  <TORSDO>
F 10

$$$$
=
 OpenBabel11072413443D

 44 50  0  0  1  0  0  0  0  0999 V2000
  159.8890  209.2420  157.2510 C   0  0  0  0  0  2  0  0  0  0  0  0
  162.0510  209.0890  156.0960 C   0  0  0  0  0  3  0  0  0  0  0  0
  161.1060  208.4830  156.8260 C   0  0  0  0  0  3  0  0  0  0  0  0
  160.4580  211.3750  154.2360 N   0  0  0  0  0  0  0  0  0  0  0  0
  159.4230  210.1010  156.0790 C   0  0  2  0  0  3  0  0  0  0  0  0
  161.8270  210.8140  154.1950 C   0  0  1  0  0  3  0  0  0  0  0  0
  159.5910  212.1030  153.3650 C   0  0  0  0  0  0  0  0  0  0  0  0
  160.5250  211.1030  155.6830 C   0  0  1  0  0  3  0  0  0  0  0  0
  158.4860  212.5320  153.7970 O   0  0  0  0  0  0  0  0  0  0  0  0
  161.9340  210.5470  155.6800 C   0  0  1  0  0  3  0  0  0  0  0  0
  162.2670  210.4350  149.1910 N   0  0  0  0  0  0  0  0  0  0  0  0
  160.2380  208.8060  151.7840 O   0  0  0  0  0  0  0  0  0  0  0  0
  163.2770  210.6550  151.3640 C   0  0  0  0  0  3  0  0  0  0  0  0
  162.1960  209.9440  151.8880 C   0  0  0  0  0  0  0  0  0  0  0  0
  160.5620  208.8260  153.1730 C   0  0  2  0  0  3  0  0  0  0  0  0
  161.1990  209.4900  151.0760 C   0  0  0  0  0  0  0  0  0  0  0  0
  161.2180  209.7330  149.7080 C   0  0  0  0  0  3  0  0  0  0  0  0
  163.2870  210.8950  149.9800 C   0  0  0  0  0  3  0  0  0  0  0  0
  161.9240  209.5560  153.3030 C   0  0  2  0  0  3  0  0  0  0  0  0
  160.6060  207.4200  153.7710 C   0  0  0  0  0  2  0  0  0  0  0  0
  161.5300  206.4810  153.0080 C   0  0  0  0  0  2  0  0  0  0  0  0
  160.7570  205.3870  152.4360 N   0  0  0  0  0  2  0  0  0  0  0  0
  161.0740  205.2910  151.0160 C   0  0  0  0  0  0  0  0  0  0  0  0
  160.7040  206.4870  150.1630 C   0  0  0  0  0  2  0  0  0  0  0  0
  162.1520  206.2620  150.5830 C   0  0  0  0  0  2  0  0  0  0  0  0
  161.1500  200.1920  148.5710 F   0  0  0  0  0  0  0  0  0  0  0  0
  161.0080  201.5200  150.5470 C   0  0  0  0  0  3  0  0  0  0  0  0
  160.9930  202.7790  151.1550 C   0  0  0  0  0  3  0  0  0  0  0  0
  161.2400  203.8250  148.9850 C   0  0  0  0  0  3  0  0  0  0  0  0
  161.2520  202.5650  148.3780 C   0  0  0  0  0  3  0  0  0  0  0  0
  161.1220  203.9370  150.3760 C   0  0  0  0  0  0  0  0  0  0  0  0
  161.1400  201.4120  149.1610 C   0  0  0  0  0  0  0  0  0  0  0  0
  158.6920  211.9090  157.1230 C   0  0  0  0  0  1  0  0  0  0  0  0
  158.2560  210.7850  156.4230 O   0  0  0  0  0  0  0  0  0  0  0  0
  159.9770  212.3310  152.0440 O   0  0  0  0  0  0  0  0  0  0  0  0
  158.5550  213.4640  148.7970 C   0  0  0  0  0  0  0  0  0  0  0  0
  157.2030  213.1460  148.7290 O   0  0  0  0  0  1  0  0  0  0  0  0
  160.7940  213.6910  149.6220 C   0  0  0  0  0  3  0  0  0  0  0  0
  159.0550  212.5600  151.0260 C   0  0  0  0  0  3  0  0  0  0  0  0
  159.2280  214.0610  147.8370 C   0  0  0  0  0  0  0  0  0  0  0  0
  160.6700  214.2600  148.2010 C   0  0  0  0  0  3  0  0  0  0  0  0
  159.4220  213.1920  149.9180 C   0  0  0  0  0  0  0  0  0  0  0  0
  158.6480  214.4530  146.6310 O   0  0  0  0  0  0  0  0  0  0  0  0
  158.7020  213.6320  145.4730 C   0  0  0  0  0  1  0  0  0  0  0  0
  2  3  2  0  0  0  0
  3  1  1  0  0  0  0
  5 34  1  1  0  0  0
  5  1  1  0  0  0  0
  6  4  1  1  0  0  0
  6 10  1  0  0  0  0
  7  9  2  0  0  0  0
  7  4  1  0  0  0  0
  8  4  1  6  0  0  0
  8  5  1  0  0  0  0
 10  8  1  0  0  0  0
 10  2  1  6  0  0  0
 11 17  2  0  0  0  0
 11 18  1  0  0  0  0
 12 15  1  0  0  0  0
 13 14  1  0  0  0  0
 15 19  1  0  0  0  0
 15 20  1  6  0  0  0
 16 12  1  0  0  0  0
 16 14  2  0  0  0  0
 17 16  1  0  0  0  0
 18 13  2  0  0  0  0
 19 14  1  6  0  0  0
 19  6  1  0  0  0  0
 21 20  1  0  0  0  0
 22 21  1  0  0  0  0
 23 22  1  0  0  0  0
 24 25  1  0  0  0  0
 24 23  1  0  0  0  0
 25 23  1  0  0  0  0
 26 32  1  0  0  0  0
 27 28  1  0  0  0  0
 29 31  1  0  0  0  0
 30 29  2  0  0  0  0
 30 32  1  0  0  0  0
 31 23  1  0  0  0  0
 31 28  2  0  0  0  0
 32 27  2  0  0  0  0
 34 33  1  0  0  0  0
 35  7  1  0  0  0  0
 36 42  1  0  0  0  0
 37 36  1  0  0  0  0
 38 42  1  0  0  0  0
 39 35  1  0  0  0  0
 40 41  1  0  0  0  0
 40 36  2  0  0  0  0
 41 38  2  0  0  0  0
 42 39  2  0  0  0  0
 43 40  1  0  0  0  0
 44 43  1  0  0  0  0
M  END
>  <MODEL>
5

>  <REMARK>
 VINA RESULT:      -5.9      2.311      4.012
  Name = 
  10 active torsions:
  status: ('A' for Active; 'I' for Inactive)
    1  A    between atoms: C_1  and  N_35
    2  A    between atoms: C_1  and  C_40
    3  A    between atoms: O_8  and  C_27
    4  A    between atoms: C_18  and  C_39
    5  A    between atoms: C_20  and  O_36
    6  A    between atoms: C_22  and  C_41
    7  A    between atoms: C_25  and  O_33
    8  A    between atoms: C_26  and  N_35
    9  A    between atoms: C_26  and  C_39
   10  A    between atoms: C_28  and  O_33
                            x       y       z     vdW  Elec       q    Type
                         _______ _______ _______ _____ _____    ______ ____

>  <TORSDO>
F 10

$$$$
=
 OpenBabel11072413443D

 44 51  0  0  1  0  0  0  0  0999 V2000
  160.3240  207.6130  154.8150 C   0  0  0  0  0  2  0  0  0  0  0  0
  161.2010  205.7680  153.4520 C   0  0  2  0  0  3  0  0  0  0  0  0
  160.2840  206.1990  154.3270 C   0  0  0  0  0  2  0  0  0  0  0  0
  162.0280  208.4280  151.5910 N   0  0  0  0  0  0  0  0  0  0  0  0
  160.6450  208.5220  153.6330 C   0  0  2  0  0  3  0  0  0  0  0  0
  162.2830  206.9760  151.4500 C   0  0  1  0  0  3  0  0  0  0  0  0
  162.0640  209.5900  150.7600 C   0  0  0  0  0  0  0  0  0  0  0  0
  162.0200  208.1580  153.0400 C   0  0  1  0  0  3  0  0  0  0  0  0
  161.8890  210.7300  151.2710 O   0  0  0  0  0  0  0  0  0  0  0  0
  162.3060  206.6740  152.9320 C   0  0  1  0  0  3  0  0  0  0  0  0
  161.1060  202.0810  151.2760 N   0  0  0  0  0  0  0  0  0  0  0  0
  161.5170  204.7770  148.8140 O   0  0  0  0  0  0  0  0  0  0  0  0
  160.8780  204.2480  152.2990 C   0  0  0  0  0  0  0  0  0  0  0  0
  161.1100  204.8140  151.0450 C   0  0  0  0  0  0  0  0  0  0  0  0
  161.4900  206.1640  149.1460 C   0  0  2  0  0  3  0  0  0  0  0  0
  161.3200  204.0270  149.9510 C   0  0  0  0  0  0  0  0  0  0  0  0
  161.3240  202.6410  150.0520 C   0  0  0  0  0  3  0  0  0  0  0  0
  160.8840  202.8460  152.3900 C   0  0  0  0  0  3  0  0  0  0  0  0
  161.1680  206.2550  150.6600 C   0  0  2  0  0  3  0  0  0  0  0  0
  160.4790  206.9360  148.2980 C   0  0  0  0  0  2  0  0  0  0  0  0
  160.0860  206.1970  147.0270 C   0  0  0  0  0  2  0  0  0  0  0  0
  160.9790  206.5760  145.9410 N   0  0  0  0  0  2  0  0  0  0  0  0
  161.7480  205.4020  145.5440 C   0  0  0  0  0  0  0  0  0  0  0  0
  162.9900  205.6630  144.7160 C   0  0  0  0  0  2  0  0  0  0  0  0
  163.1110  205.3380  146.2010 C   0  0  0  0  0  2  0  0  0  0  0  0
  159.1530  200.4210  144.8850 F   0  0  0  0  0  0  0  0  0  0  0  0
  159.3490  202.7260  144.3070 C   0  0  0  0  0  3  0  0  0  0  0  0
  159.9870  203.9600  144.4710 C   0  0  0  0  0  3  0  0  0  0  0  0
  161.4640  202.9740  146.1170 C   0  0  0  0  0  3  0  0  0  0  0  0
  160.8290  201.7400  145.9490 C   0  0  0  0  0  3  0  0  0  0  0  0
  161.0390  204.0920  145.3870 C   0  0  0  0  0  0  0  0  0  0  0  0
  159.7670  201.6180  145.0480 C   0  0  0  0  0  0  0  0  0  0  0  0
  161.3760  209.8720  155.2260 C   0  0  0  0  0  1  0  0  0  0  0  0
  160.6390  209.8570  154.0420 O   0  0  0  0  0  0  0  0  0  0  0  0
  162.2920  209.4500  149.3920 O   0  0  0  0  0  0  0  0  0  0  0  0
  161.2420  212.1860  147.0980 C   0  0  0  0  0  0  0  0  0  0  0  0
  160.0980  211.8140  146.4020 O   0  0  0  0  0  1  0  0  0  0  0  0
  163.0950  212.1220  148.6190 C   0  0  0  0  0  3  0  0  0  0  0  0
  161.5600  210.1500  148.4370 C   0  0  0  0  0  3  0  0  0  0  0  0
  161.8670  213.3340  146.9460 C   0  0  0  0  0  0  0  0  0  0  0  0
  163.0750  213.4390  147.8280 C   0  0  0  0  0  3  0  0  0  0  0  0
  161.9180  211.3800  148.0870 C   0  0  0  0  0  0  0  0  0  0  0  0
  161.4370  214.3210  146.0590 O   0  0  0  0  0  0  0  0  0  0  0  0
  161.7610  214.2780  144.6770 C   0  0  0  0  0  1  0  0  0  0  0  0
  2  3  1  6  0  0  0
  3  1  1  0  0  0  0
  5 34  1  1  0  0  0
  5  1  1  0  0  0  0
  6  4  1  1  0  0  0
  6 10  1  0  0  0  0
  7  9  2  0  0  0  0
  7  4  1  0  0  0  0
  8  4  1  6  0  0  0
  8  5  1  0  0  0  0
 10  8  1  0  0  0  0
 10  2  1  0  0  0  0
 11 18  1  0  0  0  0
 12 15  1  0  0  0  0
 12 16  1  0  0  0  0
 13 18  2  0  0  0  0
 13  2  1  0  0  0  0
 14 13  1  0  0  0  0
 15 19  1  0  0  0  0
 16 17  1  0  0  0  0
 16 14  2  0  0  0  0
 17 11  2  0  0  0  0
 19 14  1  0  0  0  0
 19  6  1  0  0  0  0
 20 15  1  0  0  0  0
 21 20  1  0  0  0  0
 22 21  1  0  0  0  0
 23 22  1  0  0  0  0
 23 25  1  0  0  0  0
 24 23  1  0  0  0  0
 24 25  1  0  0  0  0
 26 32  1  0  0  0  0
 27 28  2  0  0  0  0
 27 32  1  0  0  0  0
 28 31  1  0  0  0  0
 30 29  1  0  0  0  0
 31 23  1  0  0  0  0
 31 29  2  0  0  0  0
 32 30  2  0  0  0  0
 34 33  1  0  0  0  0
 35  7  1  0  0  0  0
 36 42  1  0  0  0  0
 37 36  1  0  0  0  0
 39 35  1  0  0  0  0
 40 36  2  0  0  0  0
 40 41  1  0  0  0  0
 41 38  2  0  0  0  0
 42 39  2  0  0  0  0
 42 38  1  0  0  0  0
 43 40  1  0  0  0  0
 44 43  1  0  0  0  0
M  END
>  <MODEL>
6

>  <REMARK>
 VINA RESULT:      -5.5      2.461      3.752
  Name = 
  10 active torsions:
  status: ('A' for Active; 'I' for Inactive)
    1  A    between atoms: C_1  and  N_35
    2  A    between atoms: C_1  and  C_40
    3  A    between atoms: O_8  and  C_27
    4  A    between atoms: C_18  and  C_39
    5  A    between atoms: C_20  and  O_36
    6  A    between atoms: C_22  and  C_41
    7  A    between atoms: C_25  and  O_33
    8  A    between atoms: C_26  and  N_35
    9  A    between atoms: C_26  and  C_39
   10  A    between atoms: C_28  and  O_33
                            x       y       z     vdW  Elec       q    Type
                         _______ _______ _______ _____ _____    ______ ____

>  <TORSDO>
F 10

$$$$
