=
 OpenBabel11072414313D

 65 71  0  0  1  0  0  0  0  0999 V2000
  159.3730  210.3120  153.1660 N   0  0  0  0  0  2  0  0  0  0  0  0
  160.5320  206.5370  147.1650 C   0  0  0  0  0  2  0  0  0  0  0  0
  161.1460  211.7390  152.0440 C   0  0  0  0  0  2  0  0  0  0  0  0
  161.8270  211.7460  149.1230 C   0  0  0  0  0  2  0  0  0  0  0  0
  161.2030  212.9120  151.1770 N   0  0  0  0  0  2  0  0  0  0  0  0
  162.1500  208.3490  147.7320 C   0  0  0  0  0  0  0  0  0  0  0  0
  160.9810  204.2030  148.1720 C   0  0  2  0  0  3  0  0  0  0  0  0
  160.2910  208.6420  152.0810 C   0  0  0  0  0  2  0  0  0  0  0  0
  159.0570  212.5950  152.8640 O   0  0  0  0  0  0  0  0  0  0  0  0
  160.2420  209.2800  153.3260 O   0  0  0  0  0  0  0  0  0  0  0  0
  160.7060  207.9110  147.8040 C   0  0  0  0  0  2  0  0  0  0  0  0
  160.6990  203.9140  152.5300 N   0  0  0  0  0  0  0  0  0  0  0  0
  160.3160  205.0420  154.7130 C   0  0  0  0  0  2  0  0  0  0  0  0
  160.7730  205.0660  150.4740 N   0  0  0  0  0  2  0  0  0  0  0  0
  161.4210  207.6120  152.0250 C   0  0  2  0  0  0  0  0  0  0  0  0
  160.6560  203.8580  153.9330 N   0  0  0  0  0  2  0  0  0  0  0  0
  161.2290  210.9450  147.5920 S   0  0  0  0  0  0  0  0  0  0  0  0
  160.7350  212.5710  149.8290 C   0  0  1  0  0  3  0  0  0  0  0  0
  163.2520  207.3180  147.6560 C   0  0  0  0  0  2  0  0  0  0  0  0
  161.4970  205.5560  147.7670 C   0  0  0  0  0  0  0  0  0  0  0  0
  160.7800  206.2800  154.0070 C   0  0  0  0  0  3  0  0  0  0  0  0
  162.4700  209.6430  147.6040 C   0  0  0  0  0  3  0  0  0  0  0  0
  161.7250  207.4190  150.6920 F   0  0  0  0  0  0  0  0  0  0  0  0
  160.7910  205.0480  151.9020 C   0  0  0  0  0  0  0  0  0  0  0  0
  159.8020  211.5920  152.6930 C   0  0  0  0  0  0  0  0  0  0  0  0
  160.9600  206.3130  152.6770 C   0  0  0  0  0  0  0  0  0  0  0  0
  162.7650  205.9340  148.0140 C   0  0  0  0  0  3  0  0  0  0  0  0
  161.1110  203.9000  149.6730 C   0  0  0  0  0  2  0  0  0  0  0  0
  161.4080  201.1270  148.6410 C   0  0  0  0  0  2  0  0  0  0  0  0
  160.9060  199.4920  146.9270 C   0  0  1  0  0  3  0  0  0  0  0  0
  161.3390  203.5550  145.7700 C   0  0  0  0  0  0  0  0  0  0  0  0
  161.5100  203.1000  147.2260 C   0  0  2  0  0  3  0  0  0  0  0  0
  161.1850  199.6330  148.4180 C   0  0  0  0  0  2  0  0  0  0  0  0
  161.2130  200.8740  146.4030 C   0  0  1  0  0  3  0  0  0  0  0  0
  160.4690  201.2850  145.1480 C   0  0  0  0  0  2  0  0  0  0  0  0
  160.8990  202.6940  144.8210 C   0  0  0  0  0  3  0  0  0  0  0  0
  160.8600  201.7940  147.4680 N   0  0  1  0  0  0  0  0  0  0  0  0
  161.2850  197.0570  146.2230 C   0  0  0  0  0  2  0  0  0  0  0  0
  161.8370  198.4620  146.3060 C   0  0  0  0  0  0  0  0  0  0  0  0
  163.2060  198.5510  146.4830 F   0  0  0  0  0  0  0  0  0  0  0  0
  161.3980  197.9160  144.9680 C   0  0  0  0  0  2  0  0  0  0  0  0
  163.3120  204.9150  144.9750 C   0  0  0  0  0  1  0  0  0  0  0  0
  161.8410  204.9220  145.3640 C   0  0  1  0  0  3  0  0  0  0  0  0
  159.6300  206.1280  144.6440 C   0  0  0  0  0  1  0  0  0  0  0  0
  160.9960  205.6120  144.3260 C   0  0  0  0  0  0  0  0  0  0  0  0
  161.4190  205.7100  143.1830 O   0  0  0  0  0  0  0  0  0  0  0  0
  162.4960  209.4100  153.1950 F   0  0  0  0  0  0  0  0  0  0  0  0
  163.0800  207.3040  153.7400 F   0  0  0  0  0  0  0  0  0  0  0  0
  162.6990  208.1340  152.6990 C   0  0  0  0  0  3  0  0  0  0  0  0
  160.4100  213.8940  149.0940 C   0  0  1  0  0  3  0  0  0  0  0  0
  161.5590  214.4490  148.2570 C   0  0  0  0  0  1  0  0  0  0  0  0
  156.8110  213.1950  148.1470 O   0  0  0  0  0  0  0  0  0  0  0  0
  159.2010  213.7670  148.2650 N   0  0  0  0  0  0  0  0  0  0  0  0
  157.8440  213.5250  150.1600 O   0  0  0  0  0  1  0  0  0  0  0  0
  157.9420  213.4800  148.9040 C   0  0  0  0  0  0  0  0  0  0  0  0
  160.5130  213.5670  146.1910 C   0  0  0  0  0  3  0  0  0  0  0  0
  159.2840  213.8060  146.8240 C   0  0  0  0  0  0  0  0  0  0  0  0
  160.6140  213.5850  144.7990 C   0  0  0  0  0  3  0  0  0  0  0  0
  158.2620  214.1230  144.6380 C   0  0  0  0  0  3  0  0  0  0  0  0
  159.4840  213.8530  144.0150 C   0  0  0  0  0  0  0  0  0  0  0  0
  158.1530  214.1080  146.0350 C   0  0  0  0  0  0  0  0  0  0  0  0
  156.8360  214.4510  146.6570 C   0  0  0  0  0  2  0  0  0  0  0  0
  155.8310  214.4210  145.6900 O   0  0  0  0  0  1  0  0  0  0  0  0
  159.5570  213.8530  142.6220 O   0  0  0  0  0  0  0  0  0  0  0  0
  160.6440  213.4000  141.9770 O   0  0  0  0  0  1  0  0  0  0  0  0
  1 10  1  0  0  0  0
  2 20  1  0  0  0  0
  2 11  1  0  0  0  0
  3 25  1  0  0  0  0
  4 18  1  0  0  0  0
  5  3  1  0  0  0  0
  6 11  1  0  0  0  0
  7 28  1  1  0  0  0
  8 10  1  0  0  0  0
 12 16  1  0  0  0  0
 14 24  1  0  0  0  0
 15 23  1  6  0  0  0
 15  8  1  0  0  0  0
 15 26  1  0  0  0  0
 15 49  1  0  0  0  0
 16 13  1  0  0  0  0
 17 22  1  0  0  0  0
 17  4  1  0  0  0  0
 18 50  1  6  0  0  0
 18  5  1  0  0  0  0
 19  6  1  0  0  0  0
 19 27  1  0  0  0  0
 20 27  2  0  0  0  0
 20  7  1  0  0  0  0
 21 13  1  0  0  0  0
 22  6  2  0  0  0  0
 24 12  2  0  0  0  0
 24 26  1  0  0  0  0
 25  9  2  0  0  0  0
 25  1  1  0  0  0  0
 26 21  2  0  0  0  0
 28 14  1  0  0  0  0
 30 39  1  6  0  0  0
 30 33  1  0  0  0  0
 32 31  1  6  0  0  0
 32 37  1  0  0  0  0
 32  7  1  0  0  0  0
 33 29  1  0  0  0  0
 34 35  1  6  0  0  0
 34 30  1  0  0  0  0
 34 37  1  0  0  0  0
 36 35  1  0  0  0  0
 36 31  2  0  0  0  0
 37 29  1  1  0  0  0
 38 39  1  0  0  0  0
 39 40  1  0  0  0  0
 41 38  1  0  0  0  0
 41 39  1  0  0  0  0
 43 42  1  6  0  0  0
 43 31  1  0  0  0  0
 45 44  1  0  0  0  0
 45 43  1  0  0  0  0
 46 45  2  0  0  0  0
 49 47  1  0  0  0  0
 49 48  1  0  0  0  0
 50 51  1  6  0  0  0
 52 55  2  0  0  0  0
 53 55  1  0  0  0  0
 53 50  1  0  0  0  0
 55 54  1  0  0  0  0
 56 57  1  0  0  0  0
 57 53  1  0  0  0  0
 58 56  2  0  0  0  0
 59 61  1  0  0  0  0
 60 59  2  0  0  0  0
 60 58  1  0  0  0  0
 61 62  1  0  0  0  0
 61 57  2  0  0  0  0
 63 62  1  0  0  0  0
 64 60  1  0  0  0  0
 65 64  1  0  0  0  0
M  END
>  <MODEL>
1

>  <REMARK>
 VINA RESULT:      10.1      0.000      0.000
  Name = 
  10 active torsions:
  status: ('A' for Active; 'I' for Inactive)
    1  A    between atoms: C_4  and  C_42
    2  A    between atoms: O_6  and  C_38
    3  A    between atoms: C_11  and  N_18
    4  A    between atoms: C_12  and  C_45
    5  A    between atoms: N_18  and  C_37
    6  A    between atoms: C_20  and  C_39
    7  A    between atoms: C_25  and  C_60
    8  A    between atoms: C_30  and  C_37
    9  A    between atoms: C_31  and  C_50
   10  A    between atoms: C_36  and  C_50
                            x       y       z     vdW  Elec       q    Type
                         _______ _______ _______ _____ _____    ______ ____

>  <TORSDO>
F 10

$$$$
=
 OpenBabel11072414313D

 65 71  0  0  1  0  0  0  0  0999 V2000
  160.3210  205.9750  151.2950 N   0  0  0  0  0  2  0  0  0  0  0  0
  159.8270  212.2160  147.7720 C   0  0  0  0  0  2  0  0  0  0  0  0
  162.1680  207.3010  152.4200 C   0  0  0  0  0  2  0  0  0  0  0  0
  162.4140  210.2900  152.4880 C   0  0  0  0  0  2  0  0  0  0  0  0
  162.3380  208.1240  153.6150 N   0  0  0  0  0  2  0  0  0  0  0  0
  161.8420  211.8370  149.1940 C   0  0  0  0  0  0  0  0  0  0  0  0
  159.9340  211.3760  145.3340 C   0  0  2  0  0  3  0  0  0  0  0  0
  160.7190  207.2470  149.5540 C   0  0  0  0  0  2  0  0  0  0  0  0
  160.4340  206.1420  153.6110 O   0  0  0  0  0  0  0  0  0  0  0  0
  160.9770  205.9870  150.1060 O   0  0  0  0  0  0  0  0  0  0  0  0
  160.3640  211.5610  149.0410 C   0  0  0  0  0  2  0  0  0  0  0  0
  160.2220  207.0390  144.8170 N   0  0  0  0  0  0  0  0  0  0  0  0
  160.3900  204.7840  145.8510 C   0  0  0  0  0  2  0  0  0  0  0  0
  160.2350  209.0390  146.0670 N   0  0  0  0  0  2  0  0  0  0  0  0
  161.5980  207.5130  148.3290 C   0  0  2  0  0  0  0  0  0  0  0  0
  160.3690  205.6490  144.6780 N   0  0  0  0  0  2  0  0  0  0  0  0
  161.4550  211.7400  151.9220 S   0  0  0  0  0  0  0  0  0  0  0  0
  161.6230  209.3960  153.4610 C   0  0  1  0  0  3  0  0  0  0  0  0
  162.6900  212.1180  147.9750 C   0  0  0  0  0  2  0  0  0  0  0  0
  160.6500  211.8050  146.5850 C   0  0  0  0  0  0  0  0  0  0  0  0
  160.9890  205.5060  147.0200 C   0  0  0  0  0  3  0  0  0  0  0  0
  162.3960  211.9650  150.4060 C   0  0  0  0  0  3  0  0  0  0  0  0
  161.6640  208.8830  148.1700 F   0  0  0  0  0  0  0  0  0  0  0  0
  160.4520  207.6320  145.9510 C   0  0  0  0  0  0  0  0  0  0  0  0
  160.9290  206.4610  152.4950 C   0  0  0  0  0  0  0  0  0  0  0  0
  160.9810  206.8470  147.1050 C   0  0  0  0  0  0  0  0  0  0  0  0
  161.9900  211.7410  146.6920 C   0  0  0  0  0  3  0  0  0  0  0  0
  160.2120  209.9240  144.9130 C   0  0  0  0  0  2  0  0  0  0  0  0
  162.1860  211.7690  143.1810 C   0  0  0  0  0  2  0  0  0  0  0  0
  161.6770  212.4230  140.9060 C   0  0  1  0  0  3  0  0  0  0  0  0
  158.7130  213.0270  143.8860 C   0  0  0  0  0  0  0  0  0  0  0  0
  160.0880  212.4300  144.2140 C   0  0  2  0  0  3  0  0  0  0  0  0
  162.7830  211.8420  141.7770 C   0  0  0  0  0  2  0  0  0  0  0  0
  160.6390  212.8330  141.9220 C   0  0  1  0  0  3  0  0  0  0  0  0
  159.2040  212.8460  141.4310 C   0  0  0  0  0  2  0  0  0  0  0  0
  158.3420  213.2500  142.6020 C   0  0  0  0  0  3  0  0  0  0  0  0
  160.7440  211.8790  143.0100 N   0  0  1  0  0  0  0  0  0  0  0  0
  162.1870  213.4920  138.6330 C   0  0  0  0  0  2  0  0  0  0  0  0
  162.1850  213.6340  140.1370 C   0  0  0  0  0  0  0  0  0  0  0  0
  163.1900  214.4300  140.6580 F   0  0  0  0  0  0  0  0  0  0  0  0
  161.1460  214.3660  139.3220 C   0  0  0  0  0  2  0  0  0  0  0  0
  156.7300  214.4520  144.5290 C   0  0  0  0  0  1  0  0  0  0  0  0
  157.8460  213.5380  145.0140 C   0  0  1  0  0  3  0  0  0  0  0  0
  157.4910  212.5520  147.4150 C   0  0  0  0  0  1  0  0  0  0  0  0
  157.3230  212.4650  145.9320 C   0  0  0  0  0  0  0  0  0  0  0  0
  156.7910  211.4750  145.4500 O   0  0  0  0  0  0  0  0  0  0  0  0
  163.6880  206.8810  147.3340 F   0  0  0  0  0  0  0  0  0  0  0  0
  163.7460  207.9170  149.3330 F   0  0  0  0  0  0  0  0  0  0  0  0
  163.0380  207.0240  148.5470 C   0  0  0  0  0  3  0  0  0  0  0  0
  161.4710  210.0240  154.8690 C   0  0  1  0  0  3  0  0  0  0  0  0
  162.3290  211.2650  155.1010 C   0  0  0  0  0  1  0  0  0  0  0  0
  157.9880  209.6230  156.2960 O   0  0  0  0  0  0  0  0  0  0  0  0
  160.0640  210.3210  155.1760 N   0  0  0  0  0  0  0  0  0  0  0  0
  159.9810  208.6110  156.7760 O   0  0  0  0  0  1  0  0  0  0  0  0
  159.3560  209.4730  156.1010 C   0  0  0  0  0  0  0  0  0  0  0  0
  159.0650  211.2200  153.1130 C   0  0  0  0  0  3  0  0  0  0  0  0
  159.3580  211.3690  154.4770 C   0  0  0  0  0  0  0  0  0  0  0  0
  158.3710  212.2130  152.4190 C   0  0  0  0  0  3  0  0  0  0  0  0
  158.2800  213.5510  154.4320 C   0  0  0  0  0  3  0  0  0  0  0  0
  157.9650  213.3800  153.0810 C   0  0  0  0  0  0  0  0  0  0  0  0
  158.9770  212.5590  155.1350 C   0  0  0  0  0  0  0  0  0  0  0  0
  159.3340  212.8070  156.5670 C   0  0  0  0  0  2  0  0  0  0  0  0
  160.0100  214.0220  156.6850 O   0  0  0  0  0  1  0  0  0  0  0  0
  157.2510  214.3750  152.4130 O   0  0  0  0  0  0  0  0  0  0  0  0
  156.4150  214.0810  151.4040 O   0  0  0  0  0  1  0  0  0  0  0  0
  1 25  1  0  0  0  0
  2 11  1  0  0  0  0
  3 25  1  0  0  0  0
  3  5  1  0  0  0  0
  4 18  1  0  0  0  0
  6 22  2  0  0  0  0
  7 28  1  6  0  0  0
  7 20  1  0  0  0  0
  8 10  1  0  0  0  0
 10  1  1  0  0  0  0
 11  6  1  0  0  0  0
 12 24  2  0  0  0  0
 13 21  1  0  0  0  0
 15 23  1  6  0  0  0
 15 49  1  0  0  0  0
 15  8  1  0  0  0  0
 16 12  1  0  0  0  0
 16 13  1  0  0  0  0
 17  4  1  0  0  0  0
 18  5  1  0  0  0  0
 18 50  1  1  0  0  0
 19  6  1  0  0  0  0
 20 27  2  0  0  0  0
 20  2  1  0  0  0  0
 21 26  2  0  0  0  0
 22 17  1  0  0  0  0
 24 14  1  0  0  0  0
 24 26  1  0  0  0  0
 25  9  2  0  0  0  0
 26 15  1  0  0  0  0
 27 19  1  0  0  0  0
 28 14  1  0  0  0  0
 30 39  1  1  0  0  0
 30 33  1  0  0  0  0
 30 34  1  0  0  0  0
 31 43  1  0  0  0  0
 32 31  1  6  0  0  0
 32  7  1  0  0  0  0
 33 29  1  0  0  0  0
 34 35  1  6  0  0  0
 34 37  1  0  0  0  0
 35 36  1  0  0  0  0
 36 31  2  0  0  0  0
 37 29  1  1  0  0  0
 37 32  1  0  0  0  0
 38 41  1  0  0  0  0
 38 39  1  0  0  0  0
 39 40  1  0  0  0  0
 41 39  1  0  0  0  0
 43 42  1  6  0  0  0
 43 45  1  0  0  0  0
 45 44  1  0  0  0  0
 46 45  2  0  0  0  0
 47 49  1  0  0  0  0
 49 48  1  0  0  0  0
 50 51  1  6  0  0  0
 50 53  1  0  0  0  0
 53 55  1  0  0  0  0
 55 52  2  0  0  0  0
 55 54  1  0  0  0  0
 56 57  1  0  0  0  0
 57 61  2  0  0  0  0
 57 53  1  0  0  0  0
 58 60  1  0  0  0  0
 58 56  2  0  0  0  0
 59 61  1  0  0  0  0
 60 59  2  0  0  0  0
 61 62  1  0  0  0  0
 62 63  1  0  0  0  0
 64 60  1  0  0  0  0
 65 64  1  0  0  0  0
M  END
>  <MODEL>
2

>  <REMARK>
 VINA RESULT:      11.6      3.406      8.954
  Name = 
  10 active torsions:
  status: ('A' for Active; 'I' for Inactive)
    1  A    between atoms: C_4  and  C_42
    2  A    between atoms: O_6  and  C_38
    3  A    between atoms: C_11  and  N_18
    4  A    between atoms: C_12  and  C_45
    5  A    between atoms: N_18  and  C_37
    6  A    between atoms: C_20  and  C_39
    7  A    between atoms: C_25  and  C_60
    8  A    between atoms: C_30  and  C_37
    9  A    between atoms: C_31  and  C_50
   10  A    between atoms: C_36  and  C_50
                            x       y       z     vdW  Elec       q    Type
                         _______ _______ _______ _____ _____    ______ ____

>  <TORSDO>
F 10

$$$$
