=
 OpenBabel11072412093D

 50 56  0  0  1  0  0  0  0  0999 V2000
  156.5140  214.4450  154.7710 C   0  0  0  0  0  1  0  0  0  0  0  0
  158.2890  213.0090  156.5360 O   0  0  0  0  0  1  0  0  0  0  0  0
  157.4900  213.4290  154.2780 C   0  0  0  0  0  0  0  0  0  0  0  0
  159.3580  211.5250  153.3040 C   0  0  0  0  0  0  0  0  0  0  0  0
  158.3390  212.7460  155.1690 C   0  0  0  0  0  0  0  0  0  0  0  0
  158.5100  212.2080  152.4270 C   0  0  0  0  0  0  0  0  0  0  0  0
  156.7390  213.7930  151.6290 S   0  0  0  0  0  0  0  0  0  0  0  0
  157.5170  212.8630  150.4450 C   0  0  0  0  0  0  0  0  0  0  0  0
  157.5960  213.1340  152.9130 C   0  0  0  0  0  0  0  0  0  0  0  0
  159.2580  211.7970  154.6840 C   0  0  0  0  0  3  0  0  0  0  0  0
  158.4810  212.0520  151.0360 C   0  0  0  0  0  3  0  0  0  0  0  0
  160.2880  210.6110  152.8020 O   0  0  0  0  0  0  0  0  0  0  0  0
  161.2420  208.8270  154.1230 C   0  0  2  0  0  3  0  0  0  0  0  0
  160.1220  208.8040  154.9360 F   0  0  0  0  0  0  0  0  0  0  0  0
  162.5350  209.0670  151.5720 C   0  0  0  0  0  3  0  0  0  0  0  0
  161.8240  207.9550  151.8210 C   0  0  0  0  0  0  0  0  0  0  0  0
  161.4490  210.2170  153.5260 C   0  0  1  0  0  3  0  0  0  0  0  0
  162.6600  210.1720  152.5910 C   0  0  0  0  0  2  0  0  0  0  0  0
  161.1050  207.8370  153.0550 N   0  0  0  0  0  2  0  0  0  0  0  0
  161.6990  205.5820  151.4180 O   0  0  0  0  0  0  0  0  0  0  0  0
  161.7100  206.8560  150.8100 C   0  0  1  0  0  3  0  0  0  0  0  0
  160.6340  204.5850  149.5020 C   0  0  0  0  0  2  0  0  0  0  0  0
  160.4460  207.0450  149.9660 C   0  0  0  0  0  2  0  0  0  0  0  0
  160.3860  205.9630  148.8850 C   0  0  1  0  0  3  0  0  0  0  0  0
  161.8770  204.6360  150.3920 C   0  0  0  0  0  2  0  0  0  0  0  0
  161.3510  206.2210  147.9030 O   0  0  0  0  0  0  0  0  0  0  0  0
  161.0740  205.3170  146.8750 C   0  0  2  0  0  3  0  0  0  0  0  0
  162.1500  205.4380  145.8120 C   0  0  1  0  0  3  0  0  0  0  0  0
  162.2120  204.2490  145.0860 O   0  0  0  0  0  1  0  0  0  0  0  0
  160.7990  206.0850  145.5970 C   0  0  0  0  0  2  0  0  0  0  0  0
  157.2980  212.9460  148.9660 C   0  0  0  0  0  2  0  0  0  0  0  0
  158.5150  213.5080  148.2430 C   0  0  1  0  0  3  0  0  0  0  0  0
  157.1730  213.0730  146.2170 O   0  0  0  0  0  1  0  0  0  0  0  0
  159.1370  212.4190  147.4390 N   0  0  0  0  0  0  0  0  0  0  0  0
  159.1190  214.4520  146.0810 O   0  0  0  0  0  1  0  0  0  0  0  0
  158.3700  213.5110  146.7940 C   0  0  0  0  0  0  0  0  0  0  0  0
  161.1170  212.6720  146.0200 C   0  0  0  0  0  0  0  0  0  0  0  0
  160.3040  212.3510  144.8860 N   0  0  0  0  0  2  0  0  0  0  0  0
  160.5300  212.6570  147.3500 N   0  0  0  0  0  0  0  0  0  0  0  0
  162.3220  213.0040  145.8440 O   0  0  0  0  0  0  0  0  0  0  0  0
  161.3080  212.5430  148.6070 C   0  0  0  0  0  3  0  0  0  0  0  0
  161.8860  211.1590  148.8510 C   0  0  0  0  0  2  0  0  0  0  0  0
  162.7770  212.2810  148.3430 C   0  0  0  0  0  2  0  0  0  0  0  0
  160.7800  212.4520  143.5140 C   0  0  2  0  0  3  0  0  0  0  0  0
  160.6100  213.8860  143.0270 C   0  0  0  0  0  2  0  0  0  0  0  0
  161.8090  214.3600  142.4950 O   0  0  0  0  0  1  0  0  0  0  0  0
  159.9760  211.4960  142.6410 C   0  0  0  0  0  2  0  0  0  0  0  0
  161.7570  211.0690  141.1180 O   0  0  0  0  0  0  0  0  0  0  0  0
  160.5570  211.4080  141.2720 C   0  0  0  0  0  0  0  0  0  0  0  0
  159.7460  211.6840  140.1360 N   0  0  0  0  0  1  0  0  0  0  0  0
  3  1  1  0  0  0  0
  3  5  1  0  0  0  0
  4 10  1  0  0  0  0
  5  2  1  0  0  0  0
  6  9  1  0  0  0  0
  6  4  2  0  0  0  0
  7  9  1  0  0  0  0
  8 11  2  0  0  0  0
  8  7  1  0  0  0  0
  9  3  2  0  0  0  0
 10  5  2  0  0  0  0
 11  6  1  0  0  0  0
 12  4  1  0  0  0  0
 13 14  1  6  0  0  0
 15 16  2  0  0  0  0
 15 18  1  0  0  0  0
 16 19  1  0  0  0  0
 17 12  1  6  0  0  0
 17 13  1  0  0  0  0
 18 17  1  0  0  0  0
 19 13  1  0  0  0  0
 21 20  1  0  0  0  0
 21 16  1  1  0  0  0
 22 25  1  0  0  0  0
 23 21  1  0  0  0  0
 24 26  1  6  0  0  0
 24 22  1  0  0  0  0
 24 23  1  0  0  0  0
 25 20  1  0  0  0  0
 27 26  1  1  0  0  0
 28 29  1  6  0  0  0
 28 27  1  0  0  0  0
 30 28  1  0  0  0  0
 30 27  1  0  0  0  0
 31  8  1  0  0  0  0
 32 31  1  1  0  0  0
 33 36  1  0  0  0  0
 34 32  1  0  0  0  0
 35 36  1  0  0  0  0
 36 34  1  0  0  0  0
 36 32  1  0  0  0  0
 37 39  1  0  0  0  0
 38 37  1  0  0  0  0
 39 34  1  0  0  0  0
 39 41  1  0  0  0  0
 40 37  2  0  0  0  0
 41 42  1  0  0  0  0
 43 41  1  0  0  0  0
 43 42  1  0  0  0  0
 44 47  1  6  0  0  0
 44 38  1  0  0  0  0
 45 44  1  0  0  0  0
 46 45  1  0  0  0  0
 48 49  2  0  0  0  0
 49 47  1  0  0  0  0
 50 49  1  0  0  0  0
M  END
>  <MODEL>
1

>  <REMARK>
 VINA RESULT:      -5.9      0.000      0.000
  Name = 
  13 active torsions:
  status: ('A' for Active; 'I' for Inactive)
    1  A    between atoms: O_2  and  C_25
    2  A    between atoms: O_2  and  C_41
    3  A    between atoms: C_3  and  C_37
    4  A    between atoms: C_7  and  N_27
    5  A    between atoms: O_9  and  C_15
    6  A    between atoms: O_9  and  C_18
    7  A    between atoms: CA_14  and  N_19
    8  A    between atoms: CA_14  and  C_22
    9  A    between atoms: CA_14  and  CB_48
   10  A    between atoms: C_17  and  C_29
   11  A    between atoms: CG_24  and  CB_48
   12  A    between atoms: N_27  and  N_32
   13  A    between atoms: C_29  and  C_43
                            x       y       z     vdW  Elec       q    Type
                         _______ _______ _______ _____ _____    ______ ____

>  <TORSDO>
F 13

$$$$
=
 OpenBabel11072412093D

 50 56  0  0  1  0  0  0  0  0999 V2000
  160.1690  210.2710  156.8530 C   0  0  0  0  0  1  0  0  0  0  0  0
  157.5190  211.3490  157.2240 O   0  0  0  0  0  1  0  0  0  0  0  0
  159.3550  210.8090  155.7240 C   0  0  0  0  0  0  0  0  0  0  0  0
  157.8180  211.7960  153.5490 C   0  0  0  0  0  0  0  0  0  0  0  0
  158.0660  211.3290  155.9430 C   0  0  0  0  0  0  0  0  0  0  0  0
  159.1000  211.2770  153.3420 C   0  0  0  0  0  0  0  0  0  0  0  0
  161.3220  210.2340  153.8500 S   0  0  0  0  0  0  0  0  0  0  0  0
  161.0210  210.6310  152.2300 C   0  0  0  0  0  0  0  0  0  0  0  0
  159.8460  210.8010  154.4130 C   0  0  0  0  0  0  0  0  0  0  0  0
  157.3100  211.8260  154.8640 C   0  0  0  0  0  3  0  0  0  0  0  0
  159.7480  211.1790  152.1050 C   0  0  0  0  0  3  0  0  0  0  0  0
  157.0680  212.2520  152.4620 O   0  0  0  0  0  0  0  0  0  0  0  0
  157.8890  214.4530  151.8950 C   0  0  2  0  0  3  0  0  0  0  0  0
  158.9120  214.3310  152.8190 F   0  0  0  0  0  0  0  0  0  0  0  0
  156.1540  213.4090  149.8600 C   0  0  0  0  0  3  0  0  0  0  0  0
  157.4500  213.5910  149.5580 C   0  0  0  0  0  0  0  0  0  0  0  0
  156.6830  213.6140  152.3100 C   0  0  1  0  0  3  0  0  0  0  0  0
  155.6070  213.7370  151.2270 C   0  0  0  0  0  2  0  0  0  0  0  0
  158.3580  214.0390  150.5730 N   0  0  0  0  0  2  0  0  0  0  0  0
  156.9690  213.2650  147.2180 O   0  0  0  0  0  0  0  0  0  0  0  0
  157.9880  213.2740  148.1960 C   0  0  1  0  0  3  0  0  0  0  0  0
  158.5550  213.6300  145.4430 C   0  0  0  0  0  2  0  0  0  0  0  0
  159.0740  214.2830  147.8100 C   0  0  0  0  0  2  0  0  0  0  0  0
  159.6700  213.9000  146.4550 C   0  0  1  0  0  3  0  0  0  0  0  0
  157.5180  212.6880  146.0590 C   0  0  0  0  0  2  0  0  0  0  0  0
  160.4660  212.7550  146.5950 O   0  0  0  0  0  0  0  0  0  0  0  0
  161.6860  213.2190  147.0930 C   0  0  2  0  0  3  0  0  0  0  0  0
  162.4580  212.0480  147.6720 C   0  0  1  0  0  3  0  0  0  0  0  0
  163.8180  212.3540  147.6780 O   0  0  0  0  0  1  0  0  0  0  0  0
  161.7270  212.9990  148.5930 C   0  0  0  0  0  2  0  0  0  0  0  0
  161.9230  210.3570  151.0670 C   0  0  0  0  0  2  0  0  0  0  0  0
  162.4550  208.9310  151.0850 C   0  0  1  0  0  3  0  0  0  0  0  0
  161.9110  208.9870  148.6780 O   0  0  0  0  0  1  0  0  0  0  0  0
  161.3310  207.9990  150.7910 N   0  0  0  0  0  0  0  0  0  0  0  0
  163.2940  207.2410  149.5440 O   0  0  0  0  0  1  0  0  0  0  0  0
  162.3850  208.2770  149.7860 C   0  0  0  0  0  0  0  0  0  0  0  0
  161.3390  205.5510  150.6960 C   0  0  0  0  0  0  0  0  0  0  0  0
  160.7870  205.6350  149.3770 N   0  0  0  0  0  2  0  0  0  0  0  0
  161.5740  206.7700  151.4520 N   0  0  0  0  0  0  0  0  0  0  0  0
  161.6530  204.4220  151.1650 O   0  0  0  0  0  0  0  0  0  0  0  0
  161.7220  206.8240  152.9270 C   0  0  0  0  0  3  0  0  0  0  0  0
  160.4080  206.9740  153.6740 C   0  0  0  0  0  2  0  0  0  0  0  0
  161.0970  205.6210  153.6040 C   0  0  0  0  0  2  0  0  0  0  0  0
  160.6260  204.4760  148.5090 C   0  0  2  0  0  3  0  0  0  0  0  0
  160.4980  203.2210  149.3650 C   0  0  0  0  0  2  0  0  0  0  0  0
  161.3830  202.2410  148.9170 O   0  0  0  0  0  1  0  0  0  0  0  0
  161.8410  204.3730  147.5940 C   0  0  0  0  0  2  0  0  0  0  0  0
  160.7460  203.4380  145.6960 O   0  0  0  0  0  0  0  0  0  0  0  0
  161.4310  204.3830  146.1620 C   0  0  0  0  0  0  0  0  0  0  0  0
  161.7970  205.4750  145.3260 N   0  0  0  0  0  1  0  0  0  0  0  0
  3  5  1  0  0  0  0
  3  1  1  0  0  0  0
  4 10  1  0  0  0  0
  5  2  1  0  0  0  0
  6  4  2  0  0  0  0
  6  9  1  0  0  0  0
  7  9  1  0  0  0  0
  8  7  1  0  0  0  0
  9  3  2  0  0  0  0
 10  5  2  0  0  0  0
 11  8  2  0  0  0  0
 11  6  1  0  0  0  0
 12  4  1  0  0  0  0
 13 17  1  0  0  0  0
 13 14  1  1  0  0  0
 15 18  1  0  0  0  0
 16 15  2  0  0  0  0
 16 19  1  0  0  0  0
 17 12  1  6  0  0  0
 18 17  1  0  0  0  0
 19 13  1  0  0  0  0
 20 21  1  0  0  0  0
 21 16  1  1  0  0  0
 22 25  1  0  0  0  0
 22 24  1  0  0  0  0
 23 21  1  0  0  0  0
 24 26  1  1  0  0  0
 24 23  1  0  0  0  0
 25 20  1  0  0  0  0
 27 26  1  6  0  0  0
 27 28  1  0  0  0  0
 27 30  1  0  0  0  0
 28 29  1  1  0  0  0
 28 30  1  0  0  0  0
 31  8  1  0  0  0  0
 32 31  1  6  0  0  0
 33 36  1  0  0  0  0
 34 32  1  0  0  0  0
 34 39  1  0  0  0  0
 35 36  1  0  0  0  0
 36 34  1  0  0  0  0
 36 32  1  0  0  0  0
 37 40  2  0  0  0  0
 37 39  1  0  0  0  0
 38 37  1  0  0  0  0
 39 41  1  0  0  0  0
 41 43  1  0  0  0  0
 41 42  1  0  0  0  0
 43 42  1  0  0  0  0
 44 47  1  6  0  0  0
 44 45  1  0  0  0  0
 44 38  1  0  0  0  0
 46 45  1  0  0  0  0
 48 49  2  0  0  0  0
 49 47  1  0  0  0  0
 50 49  1  0  0  0  0
M  END
>  <MODEL>
2

>  <REMARK>
 VINA RESULT:      -5.8      2.938      7.451
  Name = 
  13 active torsions:
  status: ('A' for Active; 'I' for Inactive)
    1  A    between atoms: O_2  and  C_25
    2  A    between atoms: O_2  and  C_41
    3  A    between atoms: C_3  and  C_37
    4  A    between atoms: C_7  and  N_27
    5  A    between atoms: O_9  and  C_15
    6  A    between atoms: O_9  and  C_18
    7  A    between atoms: CA_14  and  N_19
    8  A    between atoms: CA_14  and  C_22
    9  A    between atoms: CA_14  and  CB_48
   10  A    between atoms: C_17  and  C_29
   11  A    between atoms: CG_24  and  CB_48
   12  A    between atoms: N_27  and  N_32
   13  A    between atoms: C_29  and  C_43
                            x       y       z     vdW  Elec       q    Type
                         _______ _______ _______ _____ _____    ______ ____

>  <TORSDO>
F 13

$$$$
=
 OpenBabel11072412093D

 50 56  0  0  1  0  0  0  0  0999 V2000
  158.7780  211.1800  154.2200 C   0  0  0  0  0  1  0  0  0  0  0  0
  158.4750  213.6830  152.8180 O   0  0  0  0  0  1  0  0  0  0  0  0
  159.4820  211.4730  152.9370 C   0  0  0  0  0  0  0  0  0  0  0  0
  160.8110  211.9880  150.4810 C   0  0  0  0  0  0  0  0  0  0  0  0
  159.3120  212.7070  152.2820 C   0  0  0  0  0  0  0  0  0  0  0  0
  160.9730  210.7650  151.1400 C   0  0  0  0  0  0  0  0  0  0  0  0
  160.7000  208.9780  152.8760 S   0  0  0  0  0  0  0  0  0  0  0  0
  161.7300  208.6250  151.5780 C   0  0  0  0  0  0  0  0  0  0  0  0
  160.3230  210.5240  152.3430 C   0  0  0  0  0  0  0  0  0  0  0  0
  159.9790  212.9620  151.0690 C   0  0  0  0  0  3  0  0  0  0  0  0
  161.7630  209.6990  150.6930 C   0  0  0  0  0  3  0  0  0  0  0  0
  161.4530  212.2110  149.2600 O   0  0  0  0  0  0  0  0  0  0  0  0
  163.2400  213.1520  147.9340 C   0  0  2  0  0  3  0  0  0  0  0  0
  164.1160  212.1820  148.3900 F   0  0  0  0  0  0  0  0  0  0  0  0
  160.6650  214.0380  147.0280 C   0  0  0  0  0  2  0  0  0  0  0  0
  161.3890  213.2530  146.2130 C   0  0  0  0  0  0  0  0  0  0  0  0
  162.1450  213.4200  148.9640 C   0  0  1  0  0  3  0  0  0  0  0  0
  161.1730  214.4520  148.3860 C   0  0  0  0  0  2  0  0  0  0  0  0
  162.6460  212.7330  146.6660 N   0  0  0  0  0  0  0  0  0  0  0  0
  159.5010  213.0920  144.7240 O   0  0  0  0  0  0  0  0  0  0  0  0
  160.8860  212.8530  144.8610 C   0  0  1  0  0  3  0  0  0  0  0  0
  159.6610  213.1300  142.3210 C   0  0  0  0  0  2  0  0  0  0  0  0
  161.6560  213.6010  143.7690 C   0  0  0  0  0  2  0  0  0  0  0  0
  161.1890  213.1220  142.3930 C   0  0  1  0  0  3  0  0  0  0  0  0
  159.0840  212.4310  143.5540 C   0  0  0  0  0  2  0  0  0  0  0  0
  161.6650  211.8260  142.1560 O   0  0  0  0  0  0  0  0  0  0  0  0
  161.5760  211.6540  140.7730 C   0  0  2  0  0  3  0  0  0  0  0  0
  161.4690  210.1710  140.4680 C   0  0  1  0  0  3  0  0  0  0  0  0
  160.8620  210.0010  139.2240 O   0  0  0  0  0  1  0  0  0  0  0  0
  162.7900  210.8860  140.2870 C   0  0  0  0  0  2  0  0  0  0  0  0
  162.4360  207.3270  151.3320 C   0  0  0  0  0  2  0  0  0  0  0  0
  161.4580  206.1810  151.1200 C   0  0  1  0  0  3  0  0  0  0  0  0
  161.9230  205.7040  153.4970 O   0  0  0  0  0  1  0  0  0  0  0  0
  162.1960  204.8930  151.2500 N   0  0  0  0  0  0  0  0  0  0  0  0
  160.0590  204.6670  152.4190 O   0  0  0  0  0  1  0  0  0  0  0  0
  161.2690  205.3610  152.3080 C   0  0  0  0  0  0  0  0  0  0  0  0
  161.4680  204.2300  149.0070 C   0  0  0  0  0  0  0  0  0  0  0  0
  161.8950  205.5110  148.5270 N   0  0  0  0  0  2  0  0  0  0  0  0
  161.5740  203.9250  150.4240 N   0  0  0  0  0  0  0  0  0  0  0  0
  161.0470  203.3700  148.1850 O   0  0  0  0  0  0  0  0  0  0  0  0
  160.8050  202.8590  151.1100 C   0  0  0  0  0  3  0  0  0  0  0  0
  160.4640  201.6750  150.2220 C   0  0  0  0  0  2  0  0  0  0  0  0
  161.5980  201.5730  151.2280 C   0  0  0  0  0  2  0  0  0  0  0  0
  161.9310  205.8560  147.1130 C   0  0  2  0  0  3  0  0  0  0  0  0
  162.0990  207.3640  146.9680 C   0  0  0  0  0  2  0  0  0  0  0  0
  161.3560  208.0280  147.9420 O   0  0  0  0  0  1  0  0  0  0  0  0
  160.6300  205.4020  146.4610 C   0  0  0  0  0  2  0  0  0  0  0  0
  161.2720  205.5360  144.1710 O   0  0  0  0  0  0  0  0  0  0  0  0
  160.8860  204.8080  145.1190 C   0  0  0  0  0  0  0  0  0  0  0  0
  160.7160  203.4100  144.9170 N   0  0  0  0  0  1  0  0  0  0  0  0
  3  1  1  0  0  0  0
  4 10  2  0  0  0  0
  4  6  1  0  0  0  0
  5  2  1  0  0  0  0
  5  3  2  0  0  0  0
  6  9  2  0  0  0  0
  8  7  1  0  0  0  0
  9  7  1  0  0  0  0
  9  3  1  0  0  0  0
 10  5  1  0  0  0  0
 11  6  1  0  0  0  0
 11  8  2  0  0  0  0
 12  4  1  0  0  0  0
 13 14  1  1  0  0  0
 13 17  1  0  0  0  0
 15 18  1  0  0  0  0
 16 19  2  0  0  0  0
 16 15  1  0  0  0  0
 17 12  1  6  0  0  0
 18 17  1  0  0  0  0
 19 13  1  0  0  0  0
 20 21  1  0  0  0  0
 21 16  1  1  0  0  0
 22 24  1  0  0  0  0
 22 25  1  0  0  0  0
 23 21  1  0  0  0  0
 24 26  1  1  0  0  0
 24 23  1  0  0  0  0
 25 20  1  0  0  0  0
 27 26  1  1  0  0  0
 28 29  1  6  0  0  0
 28 27  1  0  0  0  0
 30 28  1  0  0  0  0
 30 27  1  0  0  0  0
 31  8  1  0  0  0  0
 32 34  1  0  0  0  0
 32 31  1  1  0  0  0
 32 36  1  0  0  0  0
 34 36  1  0  0  0  0
 36 35  1  0  0  0  0
 36 33  1  0  0  0  0
 37 39  1  0  0  0  0
 38 37  1  0  0  0  0
 39 41  1  0  0  0  0
 39 34  1  0  0  0  0
 40 37  2  0  0  0  0
 41 43  1  0  0  0  0
 42 41  1  0  0  0  0
 42 43  1  0  0  0  0
 44 47  1  1  0  0  0
 44 38  1  0  0  0  0
 45 44  1  0  0  0  0
 45 46  1  0  0  0  0
 48 49  2  0  0  0  0
 49 47  1  0  0  0  0
 50 49  1  0  0  0  0
M  END
>  <MODEL>
3

>  <REMARK>
 VINA RESULT:      -5.1      2.853      7.957
  Name = 
  13 active torsions:
  status: ('A' for Active; 'I' for Inactive)
    1  A    between atoms: O_2  and  C_25
    2  A    between atoms: O_2  and  C_41
    3  A    between atoms: C_3  and  C_37
    4  A    between atoms: C_7  and  N_27
    5  A    between atoms: O_9  and  C_15
    6  A    between atoms: O_9  and  C_18
    7  A    between atoms: CA_14  and  N_19
    8  A    between atoms: CA_14  and  C_22
    9  A    between atoms: CA_14  and  CB_48
   10  A    between atoms: C_17  and  C_29
   11  A    between atoms: CG_24  and  CB_48
   12  A    between atoms: N_27  and  N_32
   13  A    between atoms: C_29  and  C_43
                            x       y       z     vdW  Elec       q    Type
                         _______ _______ _______ _____ _____    ______ ____

>  <TORSDO>
F 13

$$$$
=
 OpenBabel11072412093D

 50 56  0  0  1  0  0  0  0  0999 V2000
  160.6860  209.8610  154.1660 C   0  0  0  0  0  1  0  0  0  0  0  0
  159.7830  212.5570  153.6790 O   0  0  0  0  0  1  0  0  0  0  0  0
  160.8040  210.5190  152.8320 C   0  0  0  0  0  0  0  0  0  0  0  0
  161.0130  211.7320  150.2730 C   0  0  0  0  0  0  0  0  0  0  0  0
  160.3540  211.8380  152.6320 C   0  0  0  0  0  0  0  0  0  0  0  0
  161.4570  210.4230  150.4830 C   0  0  0  0  0  0  0  0  0  0  0  0
  161.9510  208.2720  151.6720 S   0  0  0  0  0  0  0  0  0  0  0  0
  162.3760  208.3500  150.0330 C   0  0  0  0  0  0  0  0  0  0  0  0
  161.3550  209.8390  151.7390 C   0  0  0  0  0  0  0  0  0  0  0  0
  160.4670  212.4390  151.3640 C   0  0  0  0  0  3  0  0  0  0  0  0
  162.0230  209.5910  149.5100 C   0  0  0  0  0  3  0  0  0  0  0  0
  161.1000  212.3020  149.0000 O   0  0  0  0  0  0  0  0  0  0  0  0
  162.8500  213.5760  147.9260 C   0  0  2  0  0  3  0  0  0  0  0  0
  163.8180  212.7910  148.5270 F   0  0  0  0  0  0  0  0  0  0  0  0
  160.3150  213.9530  146.6340 C   0  0  0  0  0  2  0  0  0  0  0  0
  161.2880  213.3260  145.9520 C   0  0  0  0  0  0  0  0  0  0  0  0
  161.5840  213.6220  148.7790 C   0  0  1  0  0  3  0  0  0  0  0  0
  160.5290  214.4500  148.0410 C   0  0  0  0  0  2  0  0  0  0  0  0
  162.5400  213.0560  146.5940 N   0  0  0  0  0  0  0  0  0  0  0  0
  159.8360  212.1790  144.4070 O   0  0  0  0  0  0  0  0  0  0  0  0
  161.0740  212.8430  144.5510 C   0  0  1  0  0  3  0  0  0  0  0  0
  159.8160  212.5590  142.0290 C   0  0  0  0  0  2  0  0  0  0  0  0
  161.1570  214.0170  143.5700 C   0  0  0  0  0  2  0  0  0  0  0  0
  161.0190  213.4970  142.1380 C   0  0  1  0  0  3  0  0  0  0  0  0
  159.8620  211.5290  143.1600 C   0  0  0  0  0  2  0  0  0  0  0  0
  162.1850  212.8140  141.7680 O   0  0  0  0  0  0  0  0  0  0  0  0
  162.1060  212.6850  140.3790 C   0  0  2  0  0  3  0  0  0  0  0  0
  163.1190  211.6510  139.9230 C   0  0  1  0  0  3  0  0  0  0  0  0
  162.7170  211.1260  138.6960 O   0  0  0  0  0  1  0  0  0  0  0  0
  163.4200  213.1250  139.7630 C   0  0  0  0  0  2  0  0  0  0  0  0
  162.9520  207.2390  149.2110 C   0  0  0  0  0  2  0  0  0  0  0  0
  162.0100  206.8110  148.0950 C   0  0  1  0  0  3  0  0  0  0  0  0
  160.6800  205.8680  149.9480 O   0  0  0  0  0  1  0  0  0  0  0  0
  162.0060  205.3230  148.0180 N   0  0  0  0  0  0  0  0  0  0  0  0
  159.7000  206.1040  147.7820 O   0  0  0  0  0  1  0  0  0  0  0  0
  160.8520  206.0700  148.5740 C   0  0  0  0  0  0  0  0  0  0  0  0
  161.5490  203.5210  146.4230 C   0  0  0  0  0  0  0  0  0  0  0  0
  161.6960  202.5820  147.4940 N   0  0  0  0  0  2  0  0  0  0  0  0
  161.7590  204.9360  146.6780 N   0  0  0  0  0  0  0  0  0  0  0  0
  161.1970  203.1100  145.2830 O   0  0  0  0  0  0  0  0  0  0  0  0
  162.0610  205.9400  145.6290 C   0  0  0  0  0  3  0  0  0  0  0  0
  161.8160  205.4460  144.2130 C   0  0  0  0  0  2  0  0  0  0  0  0
  160.8150  206.3730  144.8830 C   0  0  0  0  0  2  0  0  0  0  0  0
  161.3940  201.1650  147.3530 C   0  0  2  0  0  3  0  0  0  0  0  0
  160.0070  201.0050  146.7410 C   0  0  0  0  0  2  0  0  0  0  0  0
  160.1110  200.7230  145.3790 O   0  0  0  0  0  1  0  0  0  0  0  0
  161.4450  200.5100  148.7290 C   0  0  0  0  0  2  0  0  0  0  0  0
  159.3630  200.6210  149.8810 O   0  0  0  0  0  0  0  0  0  0  0  0
  160.4790  201.1550  149.6620 C   0  0  0  0  0  0  0  0  0  0  0  0
  160.8310  202.3640  150.3250 N   0  0  0  0  0  1  0  0  0  0  0  0
  3  1  1  0  0  0  0
  4  6  2  0  0  0  0
  4 10  1  0  0  0  0
  5  3  1  0  0  0  0
  5  2  1  0  0  0  0
  6  9  1  0  0  0  0
  7  9  1  0  0  0  0
  8  7  1  0  0  0  0
  9  3  2  0  0  0  0
 10  5  2  0  0  0  0
 11  8  2  0  0  0  0
 11  6  1  0  0  0  0
 12  4  1  0  0  0  0
 13 14  1  1  0  0  0
 13 17  1  0  0  0  0
 15 18  1  0  0  0  0
 16 19  2  0  0  0  0
 16 15  1  0  0  0  0
 17 12  1  6  0  0  0
 18 17  1  0  0  0  0
 19 13  1  0  0  0  0
 20 21  1  0  0  0  0
 21 16  1  1  0  0  0
 22 24  1  0  0  0  0
 22 25  1  0  0  0  0
 23 21  1  0  0  0  0
 24 26  1  1  0  0  0
 24 23  1  0  0  0  0
 25 20  1  0  0  0  0
 27 26  1  1  0  0  0
 28 29  1  6  0  0  0
 28 27  1  0  0  0  0
 30 28  1  0  0  0  0
 30 27  1  0  0  0  0
 31  8  1  0  0  0  0
 32 36  1  0  0  0  0
 32 31  1  1  0  0  0
 34 32  1  0  0  0  0
 34 36  1  0  0  0  0
 35 36  1  0  0  0  0
 36 33  1  0  0  0  0
 37 39  1  0  0  0  0
 37 38  1  0  0  0  0
 39 34  1  0  0  0  0
 40 37  2  0  0  0  0
 41 39  1  0  0  0  0
 42 43  1  0  0  0  0
 42 41  1  0  0  0  0
 43 41  1  0  0  0  0
 44 45  1  1  0  0  0
 44 38  1  0  0  0  0
 44 47  1  0  0  0  0
 46 45  1  0  0  0  0
 47 49  1  0  0  0  0
 49 48  2  0  0  0  0
 49 50  1  0  0  0  0
M  END
>  <MODEL>
4

>  <REMARK>
 VINA RESULT:      -4.8      3.319      8.778
  Name = 
  13 active torsions:
  status: ('A' for Active; 'I' for Inactive)
    1  A    between atoms: O_2  and  C_25
    2  A    between atoms: O_2  and  C_41
    3  A    between atoms: C_3  and  C_37
    4  A    between atoms: C_7  and  N_27
    5  A    between atoms: O_9  and  C_15
    6  A    between atoms: O_9  and  C_18
    7  A    between atoms: CA_14  and  N_19
    8  A    between atoms: CA_14  and  C_22
    9  A    between atoms: CA_14  and  CB_48
   10  A    between atoms: C_17  and  C_29
   11  A    between atoms: CG_24  and  CB_48
   12  A    between atoms: N_27  and  N_32
   13  A    between atoms: C_29  and  C_43
                            x       y       z     vdW  Elec       q    Type
                         _______ _______ _______ _____ _____    ______ ____

>  <TORSDO>
F 13

$$$$
=
 OpenBabel11072412093D

 50 56  0  0  1  0  0  0  0  0999 V2000
  159.7180  210.5030  154.1600 C   0  0  0  0  0  1  0  0  0  0  0  0
  159.4330  213.2490  153.3230 O   0  0  0  0  0  1  0  0  0  0  0  0
  160.1680  210.9870  152.8210 C   0  0  0  0  0  0  0  0  0  0  0  0
  161.0040  211.8680  150.2550 C   0  0  0  0  0  0  0  0  0  0  0  0
  160.0140  212.3350  152.4480 C   0  0  0  0  0  0  0  0  0  0  0  0
  161.1520  210.5300  150.6350 C   0  0  0  0  0  0  0  0  0  0  0  0
  161.0350  208.4640  152.0490 S   0  0  0  0  0  0  0  0  0  0  0  0
  161.7200  208.2920  150.5090 C   0  0  0  0  0  0  0  0  0  0  0  0
  160.7450  210.1090  151.8940 C   0  0  0  0  0  0  0  0  0  0  0  0
  160.4380  212.7700  151.1780 C   0  0  0  0  0  3  0  0  0  0  0  0
  161.6960  209.5140  149.8410 C   0  0  0  0  0  3  0  0  0  0  0  0
  161.3980  212.2750  148.9780 O   0  0  0  0  0  0  0  0  0  0  0  0
  163.1240  213.4520  147.7630 C   0  0  2  0  0  3  0  0  0  0  0  0
  164.0920  212.6150  148.2900 F   0  0  0  0  0  0  0  0  0  0  0  0
  160.5190  213.9670  146.6730 C   0  0  0  0  0  2  0  0  0  0  0  0
  161.4000  213.2870  145.9200 C   0  0  0  0  0  0  0  0  0  0  0  0
  161.9340  213.5670  148.7120 C   0  0  1  0  0  3  0  0  0  0  0  0
  160.8700  214.4520  148.0570 C   0  0  0  0  0  2  0  0  0  0  0  0
  162.6820  212.9490  146.4630 N   0  0  0  0  0  0  0  0  0  0  0  0
  159.6590  212.8550  144.3100 O   0  0  0  0  0  0  0  0  0  0  0  0
  161.0510  212.8160  144.5410 C   0  0  1  0  0  3  0  0  0  0  0  0
  159.9740  212.9090  141.9230 C   0  0  0  0  0  2  0  0  0  0  0  0
  161.7800  213.6630  143.4940 C   0  0  0  0  0  2  0  0  0  0  0  0
  161.4790  213.1200  142.0960 C   0  0  1  0  0  3  0  0  0  0  0  0
  159.4200  212.1380  143.1230 C   0  0  0  0  0  2  0  0  0  0  0  0
  162.1500  211.9040  141.9070 O   0  0  0  0  0  0  0  0  0  0  0  0
  161.7990  211.4920  140.6190 C   0  0  2  0  0  3  0  0  0  0  0  0
  162.5430  210.2100  140.2940 C   0  0  1  0  0  3  0  0  0  0  0  0
  161.8480  209.5160  139.3040 O   0  0  0  0  0  1  0  0  0  0  0  0
  163.0290  211.5280  139.7330 C   0  0  0  0  0  2  0  0  0  0  0  0
  162.1960  207.0170  149.8850 C   0  0  0  0  0  2  0  0  0  0  0  0
  161.3730  205.8210  150.3410 C   0  0  1  0  0  3  0  0  0  0  0  0
  162.8820  205.8700  152.2930 O   0  0  0  0  0  1  0  0  0  0  0  0
  162.2460  204.6140  150.3440 N   0  0  0  0  0  0  0  0  0  0  0  0
  160.8780  204.5700  152.3720 O   0  0  0  0  0  1  0  0  0  0  0  0
  161.8230  205.2640  151.6080 C   0  0  0  0  0  0  0  0  0  0  0  0
  161.0550  203.2570  148.6890 C   0  0  0  0  0  0  0  0  0  0  0  0
  161.3910  204.2340  147.6970 N   0  0  0  0  0  2  0  0  0  0  0  0
  161.4510  203.4740  150.0700 N   0  0  0  0  0  0  0  0  0  0  0  0
  160.4580  202.2010  148.3410 O   0  0  0  0  0  0  0  0  0  0  0  0
  160.8260  202.8020  151.2350 C   0  0  0  0  0  3  0  0  0  0  0  0
  160.5410  201.3260  151.0160 C   0  0  0  0  0  2  0  0  0  0  0  0
  161.7400  201.7570  151.8440 C   0  0  0  0  0  2  0  0  0  0  0  0
  161.1340  204.0430  146.2770 C   0  0  2  0  0  3  0  0  0  0  0  0
  161.4120  202.5900  145.9060 C   0  0  0  0  0  2  0  0  0  0  0  0
  160.4150  202.1100  145.0580 O   0  0  0  0  0  1  0  0  0  0  0  0
  162.0410  204.9750  145.4810 C   0  0  0  0  0  2  0  0  0  0  0  0
  160.3470  206.5440  144.8940 O   0  0  0  0  0  0  0  0  0  0  0  0
  161.2560  205.7710  144.4980 C   0  0  0  0  0  0  0  0  0  0  0  0
  161.5500  205.6750  143.1080 N   0  0  0  0  0  1  0  0  0  0  0  0
  3  1  1  0  0  0  0
  4  6  2  0  0  0  0
  4 10  1  0  0  0  0
  5  3  1  0  0  0  0
  5  2  1  0  0  0  0
  6  9  1  0  0  0  0
  8  7  1  0  0  0  0
  9  7  1  0  0  0  0
  9  3  2  0  0  0  0
 10  5  2  0  0  0  0
 11  8  2  0  0  0  0
 11  6  1  0  0  0  0
 12  4  1  0  0  0  0
 13 14  1  1  0  0  0
 13 17  1  0  0  0  0
 15 18  1  0  0  0  0
 16 19  2  0  0  0  0
 16 15  1  0  0  0  0
 17 12  1  6  0  0  0
 18 17  1  0  0  0  0
 19 13  1  0  0  0  0
 20 21  1  0  0  0  0
 21 16  1  1  0  0  0
 22 24  1  0  0  0  0
 22 25  1  0  0  0  0
 23 21  1  0  0  0  0
 24 26  1  1  0  0  0
 24 23  1  0  0  0  0
 25 20  1  0  0  0  0
 27 26  1  1  0  0  0
 28 29  1  6  0  0  0
 28 27  1  0  0  0  0
 30 28  1  0  0  0  0
 30 27  1  0  0  0  0
 31  8  1  0  0  0  0
 32 31  1  6  0  0  0
 32 34  1  0  0  0  0
 32 36  1  0  0  0  0
 34 36  1  0  0  0  0
 36 33  1  0  0  0  0
 36 35  1  0  0  0  0
 37 39  1  0  0  0  0
 38 37  1  0  0  0  0
 39 34  1  0  0  0  0
 39 41  1  0  0  0  0
 40 37  2  0  0  0  0
 41 43  1  0  0  0  0
 42 41  1  0  0  0  0
 42 43  1  0  0  0  0
 44 47  1  6  0  0  0
 44 38  1  0  0  0  0
 45 44  1  0  0  0  0
 46 45  1  0  0  0  0
 49 48  2  0  0  0  0
 49 47  1  0  0  0  0
 50 49  1  0  0  0  0
M  END
>  <MODEL>
5

>  <REMARK>
 VINA RESULT:      -4.6      2.980      8.297
  Name = 
  13 active torsions:
  status: ('A' for Active; 'I' for Inactive)
    1  A    between atoms: O_2  and  C_25
    2  A    between atoms: O_2  and  C_41
    3  A    between atoms: C_3  and  C_37
    4  A    between atoms: C_7  and  N_27
    5  A    between atoms: O_9  and  C_15
    6  A    between atoms: O_9  and  C_18
    7  A    between atoms: CA_14  and  N_19
    8  A    between atoms: CA_14  and  C_22
    9  A    between atoms: CA_14  and  CB_48
   10  A    between atoms: C_17  and  C_29
   11  A    between atoms: CG_24  and  CB_48
   12  A    between atoms: N_27  and  N_32
   13  A    between atoms: C_29  and  C_43
                            x       y       z     vdW  Elec       q    Type
                         _______ _______ _______ _____ _____    ______ ____

>  <TORSDO>
F 13

$$$$
=
 OpenBabel11072412093D

 50 56  0  0  1  0  0  0  0  0999 V2000
  159.7000  209.5470  157.2610 C   0  0  0  0  0  1  0  0  0  0  0  0
  157.8830  211.7850  157.1380 O   0  0  0  0  0  1  0  0  0  0  0  0
  159.4140  210.2820  155.9940 C   0  0  0  0  0  0  0  0  0  0  0  0
  158.8670  211.6390  153.5600 C   0  0  0  0  0  0  0  0  0  0  0  0
  158.5230  211.3710  155.9720 C   0  0  0  0  0  0  0  0  0  0  0  0
  159.7500  210.5560  153.5920 C   0  0  0  0  0  0  0  0  0  0  0  0
  161.0930  208.6460  154.5050 S   0  0  0  0  0  0  0  0  0  0  0  0
  161.2500  208.9620  152.8470 C   0  0  0  0  0  0  0  0  0  0  0  0
  160.0160  209.9010  154.7880 C   0  0  0  0  0  0  0  0  0  0  0  0
  158.2600  212.0470  154.7660 C   0  0  0  0  0  3  0  0  0  0  0  0
  160.4330  210.0310  152.4890 C   0  0  0  0  0  3  0  0  0  0  0  0
  158.5900  212.2760  152.3480 O   0  0  0  0  0  0  0  0  0  0  0  0
  159.2890  214.4480  151.5520 C   0  0  2  0  0  3  0  0  0  0  0  0
  160.5050  214.3160  152.1990 F   0  0  0  0  0  0  0  0  0  0  0  0
  157.0880  213.4160  150.0270 C   0  0  0  0  0  3  0  0  0  0  0  0
  158.2730  213.5620  149.4120 C   0  0  0  0  0  0  0  0  0  0  0  0
  158.2050  213.6440  152.2670 C   0  0  1  0  0  3  0  0  0  0  0  0
  156.8990  213.7760  151.4790 C   0  0  0  0  0  2  0  0  0  0  0  0
  159.4100  214.0040  150.1640 N   0  0  0  0  0  2  0  0  0  0  0  0
  157.2540  212.7430  147.3860 O   0  0  0  0  0  0  0  0  0  0  0  0
  158.4530  213.2130  147.9660 C   0  0  1  0  0  3  0  0  0  0  0  0
  158.0190  213.2860  145.1680 C   0  0  0  0  0  2  0  0  0  0  0  0
  158.9700  214.4280  147.1910 C   0  0  0  0  0  2  0  0  0  0  0  0
  159.2270  214.0350  145.7350 C   0  0  1  0  0  3  0  0  0  0  0  0
  157.5930  212.1840  146.1400 C   0  0  0  0  0  2  0  0  0  0  0  0
  160.3640  213.2200  145.6590 O   0  0  0  0  0  0  0  0  0  0  0  0
  161.2510  213.9110  144.8300 C   0  0  2  0  0  3  0  0  0  0  0  0
  161.8520  212.9370  143.8330 C   0  0  1  0  0  3  0  0  0  0  0  0
  162.2900  213.6410  142.7120 O   0  0  0  0  0  1  0  0  0  0  0  0
  162.6530  213.3720  145.0410 C   0  0  0  0  0  2  0  0  0  0  0  0
  162.0570  208.1700  151.8650 C   0  0  0  0  0  2  0  0  0  0  0  0
  161.2280  207.7480  150.6600 C   0  0  1  0  0  3  0  0  0  0  0  0
  161.7910  205.4660  151.4150 O   0  0  0  0  0  1  0  0  0  0  0  0
  162.1260  207.0880  149.6710 N   0  0  0  0  0  0  0  0  0  0  0  0
  160.0550  205.7920  149.8050 O   0  0  0  0  0  1  0  0  0  0  0  0
  161.1650  206.3040  150.4850 C   0  0  0  0  0  0  0  0  0  0  0  0
  161.5260  206.1700  147.4810 C   0  0  0  0  0  0  0  0  0  0  0  0
  162.0350  204.9020  147.9110 N   0  0  0  0  0  2  0  0  0  0  0  0
  161.6170  207.3170  148.3700 N   0  0  0  0  0  0  0  0  0  0  0  0
  160.9650  206.2620  146.3540 O   0  0  0  0  0  0  0  0  0  0  0  0
  161.5380  208.7290  147.9240 C   0  0  0  0  0  3  0  0  0  0  0  0
  161.8200  209.7390  149.0240 C   0  0  0  0  0  2  0  0  0  0  0  0
  162.8850  209.4200  147.9880 C   0  0  0  0  0  2  0  0  0  0  0  0
  161.8810  203.6810  147.1330 C   0  0  2  0  0  3  0  0  0  0  0  0
  161.9100  204.0230  145.6470 C   0  0  0  0  0  2  0  0  0  0  0  0
  160.7220  203.6230  145.0370 O   0  0  0  0  0  1  0  0  0  0  0  0
  160.5550  203.0260  147.5000 C   0  0  0  0  0  2  0  0  0  0  0  0
  161.8450  201.9050  149.1610 O   0  0  0  0  0  0  0  0  0  0  0  0
  160.7020  202.1660  148.7080 C   0  0  0  0  0  0  0  0  0  0  0  0
  159.5450  201.6580  149.3640 N   0  0  0  0  0  1  0  0  0  0  0  0
  3  1  1  0  0  0  0
  4  6  2  0  0  0  0
  4 10  1  0  0  0  0
  5  3  1  0  0  0  0
  5  2  1  0  0  0  0
  6  9  1  0  0  0  0
  7  9  1  0  0  0  0
  8  7  1  0  0  0  0
  9  3  2  0  0  0  0
 10  5  2  0  0  0  0
 11  8  2  0  0  0  0
 11  6  1  0  0  0  0
 12  4  1  0  0  0  0
 13 14  1  1  0  0  0
 13 17  1  0  0  0  0
 15 18  1  0  0  0  0
 16 15  2  0  0  0  0
 16 19  1  0  0  0  0
 17 12  1  6  0  0  0
 18 17  1  0  0  0  0
 19 13  1  0  0  0  0
 20 21  1  0  0  0  0
 21 16  1  1  0  0  0
 22 24  1  0  0  0  0
 22 25  1  0  0  0  0
 23 21  1  0  0  0  0
 24 26  1  1  0  0  0
 24 23  1  0  0  0  0
 25 20  1  0  0  0  0
 27 30  1  0  0  0  0
 27 26  1  1  0  0  0
 28 29  1  6  0  0  0
 28 27  1  0  0  0  0
 28 30  1  0  0  0  0
 31  8  1  0  0  0  0
 32 31  1  1  0  0  0
 34 36  1  0  0  0  0
 34 32  1  0  0  0  0
 35 36  1  0  0  0  0
 36 32  1  0  0  0  0
 36 33  1  0  0  0  0
 37 38  1  0  0  0  0
 37 39  1  0  0  0  0
 39 34  1  0  0  0  0
 40 37  2  0  0  0  0
 41 43  1  0  0  0  0
 41 39  1  0  0  0  0
 41 42  1  0  0  0  0
 43 42  1  0  0  0  0
 44 45  1  6  0  0  0
 44 47  1  0  0  0  0
 44 38  1  0  0  0  0
 46 45  1  0  0  0  0
 47 49  1  0  0  0  0
 49 48  2  0  0  0  0
 49 50  1  0  0  0  0
M  END
>  <MODEL>
6

>  <REMARK>
 VINA RESULT:      -4.5      2.741      7.535
  Name = 
  13 active torsions:
  status: ('A' for Active; 'I' for Inactive)
    1  A    between atoms: O_2  and  C_25
    2  A    between atoms: O_2  and  C_41
    3  A    between atoms: C_3  and  C_37
    4  A    between atoms: C_7  and  N_27
    5  A    between atoms: O_9  and  C_15
    6  A    between atoms: O_9  and  C_18
    7  A    between atoms: CA_14  and  N_19
    8  A    between atoms: CA_14  and  C_22
    9  A    between atoms: CA_14  and  CB_48
   10  A    between atoms: C_17  and  C_29
   11  A    between atoms: CG_24  and  CB_48
   12  A    between atoms: N_27  and  N_32
   13  A    between atoms: C_29  and  C_43
                            x       y       z     vdW  Elec       q    Type
                         _______ _______ _______ _____ _____    ______ ____

>  <TORSDO>
F 13

$$$$
=
 OpenBabel11072412093D

 50 56  0  0  1  0  0  0  0  0999 V2000
  159.7570  209.6180  156.9870 C   0  0  0  0  0  1  0  0  0  0  0  0
  157.7260  211.6660  156.9700 O   0  0  0  0  0  1  0  0  0  0  0  0
  159.3720  210.3580  155.7500 C   0  0  0  0  0  0  0  0  0  0  0  0
  158.6400  211.7260  153.3710 C   0  0  0  0  0  0  0  0  0  0  0  0
  158.3780  211.3530  155.7800 C   0  0  0  0  0  0  0  0  0  0  0  0
  159.6270  210.7360  153.3520 C   0  0  0  0  0  0  0  0  0  0  0  0
  161.1720  208.9430  154.1780 S   0  0  0  0  0  0  0  0  0  0  0  0
  161.2600  209.3210  152.5290 C   0  0  0  0  0  0  0  0  0  0  0  0
  159.9820  210.0750  154.5210 C   0  0  0  0  0  0  0  0  0  0  0  0
  158.0230  212.0350  154.6010 C   0  0  0  0  0  3  0  0  0  0  0  0
  160.3340  210.3140  152.2200 C   0  0  0  0  0  3  0  0  0  0  0  0
  158.2750  212.3680  152.1850 O   0  0  0  0  0  0  0  0  0  0  0  0
  159.2620  214.4300  151.4020 C   0  0  2  0  0  3  0  0  0  0  0  0
  160.4420  214.1400  152.0640 F   0  0  0  0  0  0  0  0  0  0  0  0
  156.9640  213.6950  149.8480 C   0  0  0  0  0  3  0  0  0  0  0  0
  158.1660  213.6850  149.2480 C   0  0  0  0  0  0  0  0  0  0  0  0
  158.0740  213.7750  152.1020 C   0  0  1  0  0  3  0  0  0  0  0  0
  156.8060  214.0760  151.2980 C   0  0  0  0  0  2  0  0  0  0  0  0
  159.3420  213.9750  150.0150 N   0  0  0  0  0  2  0  0  0  0  0  0
  157.0660  213.1640  147.1670 O   0  0  0  0  0  0  0  0  0  0  0  0
  158.3170  213.3150  147.8040 C   0  0  1  0  0  3  0  0  0  0  0  0
  158.0380  213.5200  144.9930 C   0  0  0  0  0  2  0  0  0  0  0  0
  159.1530  214.3710  147.0740 C   0  0  0  0  0  2  0  0  0  0  0  0
  159.3680  213.9400  145.6220 C   0  0  1  0  0  3  0  0  0  0  0  0
  157.3100  212.5500  145.9250 C   0  0  0  0  0  2  0  0  0  0  0  0
  160.2700  212.8680  145.5760 O   0  0  0  0  0  0  0  0  0  0  0  0
  160.4260  212.5830  144.2180 C   0  0  2  0  0  3  0  0  0  0  0  0
  161.8410  212.9390  143.8000 C   0  0  1  0  0  3  0  0  0  0  0  0
  162.1830  212.2040  142.6660 O   0  0  0  0  0  1  0  0  0  0  0  0
  160.6970  213.8720  143.4660 C   0  0  0  0  0  2  0  0  0  0  0  0
  162.1190  208.6430  151.5060 C   0  0  0  0  0  2  0  0  0  0  0  0
  161.3130  207.7040  150.6210 C   0  0  1  0  0  3  0  0  0  0  0  0
  161.5110  206.1640  152.5400 O   0  0  0  0  0  1  0  0  0  0  0  0
  162.1680  206.5390  150.2570 N   0  0  0  0  0  0  0  0  0  0  0  0
  159.9350  205.7030  150.8040 O   0  0  0  0  0  1  0  0  0  0  0  0
  161.0620  206.4090  151.2370 C   0  0  0  0  0  0  0  0  0  0  0  0
  161.2830  204.6980  148.9060 C   0  0  0  0  0  0  0  0  0  0  0  0
  161.3130  203.8710  150.0750 N   0  0  0  0  0  2  0  0  0  0  0  0
  161.7730  206.0640  148.9830 N   0  0  0  0  0  0  0  0  0  0  0  0
  160.7920  204.2410  147.8370 O   0  0  0  0  0  0  0  0  0  0  0  0
  162.1970  206.8680  147.8120 C   0  0  0  0  0  3  0  0  0  0  0  0
  162.3410  206.0640  146.5300 C   0  0  0  0  0  2  0  0  0  0  0  0
  161.1170  206.9380  146.7510 C   0  0  0  0  0  2  0  0  0  0  0  0
  160.7390  202.5330  150.1160 C   0  0  2  0  0  3  0  0  0  0  0  0
  160.6780  202.0550  151.5620 C   0  0  0  0  0  2  0  0  0  0  0  0
  161.5890  202.7650  152.3430 O   0  0  0  0  0  1  0  0  0  0  0  0
  161.6090  201.5980  149.2840 C   0  0  0  0  0  2  0  0  0  0  0  0
  159.5880  200.9170  148.2220 O   0  0  0  0  0  0  0  0  0  0  0  0
  160.8380  201.0250  148.1450 C   0  0  0  0  0  0  0  0  0  0  0  0
  161.5140  200.6210  146.9600 N   0  0  0  0  0  1  0  0  0  0  0  0
  3  5  1  0  0  0  0
  3  1  1  0  0  0  0
  4 10  1  0  0  0  0
  5  2  1  0  0  0  0
  6  4  2  0  0  0  0
  6  9  1  0  0  0  0
  7  9  1  0  0  0  0
  8  7  1  0  0  0  0
  9  3  2  0  0  0  0
 10  5  2  0  0  0  0
 11  8  2  0  0  0  0
 11  6  1  0  0  0  0
 12  4  1  0  0  0  0
 13 14  1  1  0  0  0
 13 17  1  0  0  0  0
 15 18  1  0  0  0  0
 16 15  2  0  0  0  0
 16 19  1  0  0  0  0
 17 12  1  6  0  0  0
 18 17  1  0  0  0  0
 19 13  1  0  0  0  0
 20 21  1  0  0  0  0
 21 16  1  1  0  0  0
 22 24  1  0  0  0  0
 22 25  1  0  0  0  0
 23 21  1  0  0  0  0
 24 26  1  1  0  0  0
 24 23  1  0  0  0  0
 25 20  1  0  0  0  0
 27 26  1  1  0  0  0
 28 29  1  6  0  0  0
 28 27  1  0  0  0  0
 30 28  1  0  0  0  0
 30 27  1  0  0  0  0
 31  8  1  0  0  0  0
 32 36  1  0  0  0  0
 32 31  1  1  0  0  0
 34 32  1  0  0  0  0
 34 36  1  0  0  0  0
 35 36  1  0  0  0  0
 36 33  1  0  0  0  0
 37 39  1  0  0  0  0
 37 38  1  0  0  0  0
 38 44  1  0  0  0  0
 39 34  1  0  0  0  0
 40 37  2  0  0  0  0
 41 39  1  0  0  0  0
 42 43  1  0  0  0  0
 42 41  1  0  0  0  0
 43 41  1  0  0  0  0
 44 47  1  6  0  0  0
 44 45  1  0  0  0  0
 45 46  1  0  0  0  0
 49 48  2  0  0  0  0
 49 47  1  0  0  0  0
 50 49  1  0  0  0  0
M  END
>  <MODEL>
7

>  <REMARK>
 VINA RESULT:      -4.5      2.848      8.193
  Name = 
  13 active torsions:
  status: ('A' for Active; 'I' for Inactive)
    1  A    between atoms: O_2  and  C_25
    2  A    between atoms: O_2  and  C_41
    3  A    between atoms: C_3  and  C_37
    4  A    between atoms: C_7  and  N_27
    5  A    between atoms: O_9  and  C_15
    6  A    between atoms: O_9  and  C_18
    7  A    between atoms: CA_14  and  N_19
    8  A    between atoms: CA_14  and  C_22
    9  A    between atoms: CA_14  and  CB_48
   10  A    between atoms: C_17  and  C_29
   11  A    between atoms: CG_24  and  CB_48
   12  A    between atoms: N_27  and  N_32
   13  A    between atoms: C_29  and  C_43
                            x       y       z     vdW  Elec       q    Type
                         _______ _______ _______ _____ _____    ______ ____

>  <TORSDO>
F 13

$$$$
=
 OpenBabel11072412093D

 50 56  0  0  1  0  0  0  0  0999 V2000
  161.1250  208.5770  153.3410 C   0  0  0  0  0  1  0  0  0  0  0  0
  160.9460  211.4300  153.7310 O   0  0  0  0  0  1  0  0  0  0  0  0
  161.2500  209.5520  152.2180 C   0  0  0  0  0  0  0  0  0  0  0  0
  161.4590  211.3780  150.0530 C   0  0  0  0  0  0  0  0  0  0  0  0
  161.1590  210.9370  152.4460 C   0  0  0  0  0  0  0  0  0  0  0  0
  161.5470  210.0000  149.8370 C   0  0  0  0  0  0  0  0  0  0  0  0
  161.5770  207.5420  150.3290 S   0  0  0  0  0  0  0  0  0  0  0  0
  161.7950  207.9960  148.7110 C   0  0  0  0  0  0  0  0  0  0  0  0
  161.4490  209.1140  150.9020 C   0  0  0  0  0  0  0  0  0  0  0  0
  161.2720  211.8400  151.3720 C   0  0  0  0  0  3  0  0  0  0  0  0
  161.7340  209.3820  148.5950 C   0  0  0  0  0  3  0  0  0  0  0  0
  161.5380  212.2590  148.9720 O   0  0  0  0  0  0  0  0  0  0  0  0
  162.1260  214.4490  148.1360 C   0  0  2  0  0  3  0  0  0  0  0  0
  163.4640  214.2100  148.3990 F   0  0  0  0  0  0  0  0  0  0  0  0
  159.5190  213.6390  147.2500 C   0  0  0  0  0  2  0  0  0  0  0  0
  160.4890  213.7750  146.3300 C   0  0  0  0  0  0  0  0  0  0  0  0
  161.2380  213.6460  149.0840 C   0  0  1  0  0  3  0  0  0  0  0  0
  159.7740  213.8980  148.7130 C   0  0  0  0  0  2  0  0  0  0  0  0
  161.8190  214.1050  146.7480 N   0  0  0  0  0  0  0  0  0  0  0  0
  159.0450  214.1590  144.4380 O   0  0  0  0  0  0  0  0  0  0  0  0
  160.2290  213.5260  144.8760 C   0  0  1  0  0  3  0  0  0  0  0  0
  159.7770  214.1250  142.1440 C   0  0  0  0  0  2  0  0  0  0  0  0
  161.4190  214.0040  144.0390 C   0  0  0  0  0  2  0  0  0  0  0  0
  161.1750  213.6700  142.5660 C   0  0  1  0  0  3  0  0  0  0  0  0
  158.7470  213.6380  143.1660 C   0  0  0  0  0  2  0  0  0  0  0  0
  161.3020  212.2890  142.3670 O   0  0  0  0  0  0  0  0  0  0  0  0
  161.3840  212.1280  140.9820 C   0  0  2  0  0  3  0  0  0  0  0  0
  161.1560  210.6660  140.6430 C   0  0  1  0  0  3  0  0  0  0  0  0
  160.7100  210.5650  139.3260 O   0  0  0  0  0  1  0  0  0  0  0  0
  162.5610  211.2280  140.6540 C   0  0  0  0  0  2  0  0  0  0  0  0
  161.9330  207.0720  147.5410 C   0  0  0  0  0  2  0  0  0  0  0  0
  162.4210  205.6930  147.9610 C   0  0  1  0  0  3  0  0  0  0  0  0
  162.2330  205.1910  145.5510 O   0  0  0  0  0  1  0  0  0  0  0  0
  161.3280  204.7080  147.7250 N   0  0  0  0  0  0  0  0  0  0  0  0
  163.4310  203.7020  146.9860 O   0  0  0  0  0  1  0  0  0  0  0  0
  162.5230  204.7580  146.8500 C   0  0  0  0  0  0  0  0  0  0  0  0
  161.0600  202.3300  148.2480 C   0  0  0  0  0  0  0  0  0  0  0  0
  160.5020  202.1410  146.9420 N   0  0  0  0  0  2  0  0  0  0  0  0
  161.4410  203.6650  148.6770 N   0  0  0  0  0  0  0  0  0  0  0  0
  161.2520  201.3270  148.9900 O   0  0  0  0  0  0  0  0  0  0  0  0
  161.6150  204.0710  150.0930 C   0  0  0  0  0  3  0  0  0  0  0  0
  160.5700  205.0580  150.5850 C   0  0  0  0  0  2  0  0  0  0  0  0
  160.4740  203.5900  150.9660 C   0  0  0  0  0  2  0  0  0  0  0  0
  160.2010  200.8280  146.3910 C   0  0  2  0  0  3  0  0  0  0  0  0
  161.3900  199.9010  146.6190 C   0  0  0  0  0  2  0  0  0  0  0  0
  161.3620  198.8470  145.7070 O   0  0  0  0  0  1  0  0  0  0  0  0
  159.9190  200.9710  144.9000 C   0  0  0  0  0  2  0  0  0  0  0  0
  160.6850  203.1220  144.2190 O   0  0  0  0  0  0  0  0  0  0  0  0
  159.7060  202.3990  144.5330 C   0  0  0  0  0  0  0  0  0  0  0  0
  158.3890  202.9390  144.5140 N   0  0  0  0  0  1  0  0  0  0  0  0
  3  5  1  0  0  0  0
  3  1  1  0  0  0  0
  4 10  1  0  0  0  0
  5  2  1  0  0  0  0
  6  4  2  0  0  0  0
  6  9  1  0  0  0  0
  7  9  1  0  0  0  0
  8  7  1  0  0  0  0
  9  3  2  0  0  0  0
 10  5  2  0  0  0  0
 11  8  2  0  0  0  0
 11  6  1  0  0  0  0
 12  4  1  0  0  0  0
 13 14  1  1  0  0  0
 13 17  1  0  0  0  0
 15 18  1  0  0  0  0
 16 19  2  0  0  0  0
 16 15  1  0  0  0  0
 17 12  1  6  0  0  0
 18 17  1  0  0  0  0
 19 13  1  0  0  0  0
 20 21  1  0  0  0  0
 21 16  1  1  0  0  0
 22 24  1  0  0  0  0
 22 25  1  0  0  0  0
 23 21  1  0  0  0  0
 24 26  1  1  0  0  0
 24 23  1  0  0  0  0
 25 20  1  0  0  0  0
 27 26  1  1  0  0  0
 28 29  1  6  0  0  0
 28 30  1  0  0  0  0
 28 27  1  0  0  0  0
 30 27  1  0  0  0  0
 31  8  1  0  0  0  0
 32 31  1  6  0  0  0
 33 36  1  0  0  0  0
 34 32  1  0  0  0  0
 34 39  1  0  0  0  0
 36 35  1  0  0  0  0
 36 34  1  0  0  0  0
 36 32  1  0  0  0  0
 37 39  1  0  0  0  0
 37 40  2  0  0  0  0
 38 37  1  0  0  0  0
 39 41  1  0  0  0  0
 41 42  1  0  0  0  0
 41 43  1  0  0  0  0
 42 43  1  0  0  0  0
 44 47  1  6  0  0  0
 44 45  1  0  0  0  0
 44 38  1  0  0  0  0
 46 45  1  0  0  0  0
 48 49  2  0  0  0  0
 49 47  1  0  0  0  0
 50 49  1  0  0  0  0
M  END
>  <MODEL>
8

>  <REMARK>
 VINA RESULT:      -3.8      3.583      8.890
  Name = 
  13 active torsions:
  status: ('A' for Active; 'I' for Inactive)
    1  A    between atoms: O_2  and  C_25
    2  A    between atoms: O_2  and  C_41
    3  A    between atoms: C_3  and  C_37
    4  A    between atoms: C_7  and  N_27
    5  A    between atoms: O_9  and  C_15
    6  A    between atoms: O_9  and  C_18
    7  A    between atoms: CA_14  and  N_19
    8  A    between atoms: CA_14  and  C_22
    9  A    between atoms: CA_14  and  CB_48
   10  A    between atoms: C_17  and  C_29
   11  A    between atoms: CG_24  and  CB_48
   12  A    between atoms: N_27  and  N_32
   13  A    between atoms: C_29  and  C_43
                            x       y       z     vdW  Elec       q    Type
                         _______ _______ _______ _____ _____    ______ ____

>  <TORSDO>
F 13

$$$$
=
 OpenBabel11072412093D

 50 56  0  0  1  0  0  0  0  0999 V2000
  161.1150  208.2480  153.0380 C   0  0  0  0  0  1  0  0  0  0  0  0
  161.0490  211.0760  153.6050 O   0  0  0  0  0  1  0  0  0  0  0  0
  161.3170  209.2840  151.9830 C   0  0  0  0  0  0  0  0  0  0  0  0
  161.6720  211.2320  149.9470 C   0  0  0  0  0  0  0  0  0  0  0  0
  161.2800  210.6560  152.2970 C   0  0  0  0  0  0  0  0  0  0  0  0
  161.7070  209.8670  149.6460 C   0  0  0  0  0  0  0  0  0  0  0  0
  161.6150  207.3850  149.9800 S   0  0  0  0  0  0  0  0  0  0  0  0
  161.9020  207.9290  148.4000 C   0  0  0  0  0  0  0  0  0  0  0  0
  161.5370  208.9220  150.6480 C   0  0  0  0  0  0  0  0  0  0  0  0
  161.4650  211.6180  151.2870 C   0  0  0  0  0  3  0  0  0  0  0  0
  161.9050  209.3200  148.3720 C   0  0  0  0  0  3  0  0  0  0  0  0
  161.8230  212.1740  148.9270 O   0  0  0  0  0  0  0  0  0  0  0  0
  162.2600  214.4500  148.2430 C   0  0  2  0  0  3  0  0  0  0  0  0
  163.5720  214.3480  148.6730 F   0  0  0  0  0  0  0  0  0  0  0  0
  159.8980  213.4020  146.9950 C   0  0  0  0  0  2  0  0  0  0  0  0
  160.9560  213.6830  146.2160 C   0  0  0  0  0  0  0  0  0  0  0  0
  161.3550  213.5140  149.0400 C   0  0  1  0  0  3  0  0  0  0  0  0
  159.9320  213.6210  148.4860 C   0  0  0  0  0  2  0  0  0  0  0  0
  162.1750  214.1370  146.8170 N   0  0  0  0  0  0  0  0  0  0  0  0
  162.2090  213.4480  144.1710 O   0  0  0  0  0  0  0  0  0  0  0  0
  160.9140  213.4730  144.7340 C   0  0  1  0  0  3  0  0  0  0  0  0
  161.4340  212.2420  142.2360 C   0  0  0  0  0  2  0  0  0  0  0  0
  160.1760  212.1720  144.4070 C   0  0  0  0  0  2  0  0  0  0  0  0
  160.0700  212.0110  142.8890 C   0  0  1  0  0  3  0  0  0  0  0  0
  162.0510  213.5340  142.7760 C   0  0  0  0  0  2  0  0  0  0  0  0
  159.1420  212.9300  142.3790 O   0  0  0  0  0  0  0  0  0  0  0  0
  158.9840  212.5800  141.0370 C   0  0  2  0  0  3  0  0  0  0  0  0
  159.0180  213.8410  140.1930 C   0  0  1  0  0  3  0  0  0  0  0  0
  159.3940  213.5110  138.8910 O   0  0  0  0  0  1  0  0  0  0  0  0
  157.6940  213.1820  140.5130 C   0  0  0  0  0  2  0  0  0  0  0  0
  162.0360  207.0750  147.1780 C   0  0  0  0  0  2  0  0  0  0  0  0
  162.5220  205.6720  147.5150 C   0  0  1  0  0  3  0  0  0  0  0  0
  162.5750  205.3950  145.0630 O   0  0  0  0  0  1  0  0  0  0  0  0
  161.4840  204.6930  147.0880 N   0  0  0  0  0  0  0  0  0  0  0  0
  163.6760  203.8020  146.4650 O   0  0  0  0  0  1  0  0  0  0  0  0
  162.7550  204.8480  146.3390 C   0  0  0  0  0  0  0  0  0  0  0  0
  161.2880  202.2650  147.3520 C   0  0  0  0  0  0  0  0  0  0  0  0
  160.9070  202.1800  145.9740 N   0  0  0  0  0  2  0  0  0  0  0  0
  161.5370  203.5680  147.9470 N   0  0  0  0  0  0  0  0  0  0  0  0
  161.4430  201.2050  148.0180 O   0  0  0  0  0  0  0  0  0  0  0  0
  161.5130  203.8410  149.4040 C   0  0  0  0  0  3  0  0  0  0  0  0
  160.1170  204.0370  149.9720 C   0  0  0  0  0  2  0  0  0  0  0  0
  160.8490  202.7210  150.1800 C   0  0  0  0  0  2  0  0  0  0  0  0
  160.7500  200.9150  145.2710 C   0  0  2  0  0  3  0  0  0  0  0  0
  159.3990  200.8960  144.5640 C   0  0  0  0  0  2  0  0  0  0  0  0
  158.9450  202.1980  144.3580 O   0  0  0  0  0  1  0  0  0  0  0  0
  160.8360  199.7760  146.2800 C   0  0  0  0  0  2  0  0  0  0  0  0
  160.7940  197.8140  144.9300 O   0  0  0  0  0  0  0  0  0  0  0  0
  161.4680  198.5720  145.6720 C   0  0  0  0  0  0  0  0  0  0  0  0
  162.8430  198.2930  145.9120 N   0  0  0  0  0  1  0  0  0  0  0  0
  3  5  1  0  0  0  0
  3  1  1  0  0  0  0
  4 10  1  0  0  0  0
  5  2  1  0  0  0  0
  6  4  2  0  0  0  0
  6  9  1  0  0  0  0
  7  9  1  0  0  0  0
  8  7  1  0  0  0  0
  9  3  2  0  0  0  0
 10  5  2  0  0  0  0
 11  8  2  0  0  0  0
 11  6  1  0  0  0  0
 12  4  1  0  0  0  0
 13 14  1  1  0  0  0
 13 17  1  0  0  0  0
 15 18  1  0  0  0  0
 16 19  2  0  0  0  0
 16 15  1  0  0  0  0
 17 12  1  6  0  0  0
 18 17  1  0  0  0  0
 19 13  1  0  0  0  0
 20 21  1  0  0  0  0
 21 16  1  1  0  0  0
 22 25  1  0  0  0  0
 22 24  1  0  0  0  0
 23 21  1  0  0  0  0
 24 26  1  6  0  0  0
 24 23  1  0  0  0  0
 25 20  1  0  0  0  0
 27 26  1  1  0  0  0
 28 29  1  6  0  0  0
 28 30  1  0  0  0  0
 28 27  1  0  0  0  0
 30 27  1  0  0  0  0
 31  8  1  0  0  0  0
 32 31  1  6  0  0  0
 33 36  1  0  0  0  0
 34 32  1  0  0  0  0
 34 39  1  0  0  0  0
 36 35  1  0  0  0  0
 36 34  1  0  0  0  0
 36 32  1  0  0  0  0
 37 39  1  0  0  0  0
 37 40  2  0  0  0  0
 38 37  1  0  0  0  0
 39 41  1  0  0  0  0
 41 42  1  0  0  0  0
 41 43  1  0  0  0  0
 42 43  1  0  0  0  0
 44 45  1  1  0  0  0
 44 38  1  0  0  0  0
 44 47  1  0  0  0  0
 46 45  1  0  0  0  0
 48 49  2  0  0  0  0
 49 50  1  0  0  0  0
 49 47  1  0  0  0  0
M  END
>  <MODEL>
9

>  <REMARK>
 VINA RESULT:      -3.5      4.041      9.269
  Name = 
  13 active torsions:
  status: ('A' for Active; 'I' for Inactive)
    1  A    between atoms: O_2  and  C_25
    2  A    between atoms: O_2  and  C_41
    3  A    between atoms: C_3  and  C_37
    4  A    between atoms: C_7  and  N_27
    5  A    between atoms: O_9  and  C_15
    6  A    between atoms: O_9  and  C_18
    7  A    between atoms: CA_14  and  N_19
    8  A    between atoms: CA_14  and  C_22
    9  A    between atoms: CA_14  and  CB_48
   10  A    between atoms: C_17  and  C_29
   11  A    between atoms: CG_24  and  CB_48
   12  A    between atoms: N_27  and  N_32
   13  A    between atoms: C_29  and  C_43
                            x       y       z     vdW  Elec       q    Type
                         _______ _______ _______ _____ _____    ______ ____

>  <TORSDO>
F 13

$$$$
