=
 OpenBabel10222417353D

 67 72  0  0  1  0  0  0  0  0999 V2000
  190.0450  178.3200  141.4990 O   0  0  0  0  0  0  0  0  0  0  0  0
  194.5070  174.2060  137.9300 C   0  0  0  0  0  0  0  0  0  0  0  0
  192.0970  176.8680  141.2270 C   0  0  0  0  0  3  0  0  0  0  0  0
  191.5870  173.1240  134.7460 C   0  0  0  0  0  2  0  0  0  0  0  0
  190.9320  177.1840  143.4850 C   0  0  1  0  0  0  0  0  0  0  0  0
  194.7130  175.2680  138.6430 N   0  0  0  0  0  0  0  0  0  0  0  0
  192.9440  173.2240  135.3590 C   0  0  0  0  0  2  0  0  0  0  0  0
  187.1760  176.9240  137.7410 C   0  0  0  0  0  0  0  0  0  0  0  0
  190.1390  176.1370  142.7250 C   0  0  0  0  0  2  0  0  0  0  0  0
  189.5230  177.9490  140.2530 C   0  0  2  0  0  3  0  0  0  0  0  0
  192.1070  176.6770  144.0430 O   0  0  0  0  0  1  0  0  0  0  0  0
  187.9110  176.4290  138.8390 C   0  0  0  0  0  0  0  0  0  0  0  0
  188.2070  174.5600  135.0410 N   0  0  0  0  0  2  0  0  0  0  0  0
  193.6790  176.1610  138.9450 N   0  0  0  0  0  2  0  0  0  0  0  0
  187.2860  176.2910  136.4970 C   0  0  0  0  0  3  0  0  0  0  0  0
  188.1180  175.1810  136.3320 C   0  0  0  0  0  0  0  0  0  0  0  0
  192.7210  177.7010  140.4790 N   0  0  0  0  0  0  0  0  0  0  0  0
  193.1930  173.9290  137.4140 N   0  0  0  0  0  2  0  0  0  0  0  0
  189.2970  173.7860  134.6010 N   0  0  0  0  0  0  0  0  0  0  0  0
  188.8100  174.6690  137.4350 C   0  0  0  0  0  3  0  0  0  0  0  0
  193.9330  177.3030  139.8080 C   0  0  0  0  0  2  0  0  0  0  0  0
  188.7060  175.2900  138.6800 C   0  0  0  0  0  3  0  0  0  0  0  0
  190.5880  173.8630  135.2030 C   0  0  0  0  0  3  0  0  0  0  0  0
  189.4500  179.1730  139.3620 C   0  0  0  0  0  1  0  0  0  0  0  0
  192.9050  172.8160  136.6970 O   0  0  0  0  0  0  0  0  0  0  0  0
  190.8500  177.2600  141.9690 C   0  0  1  0  0  0  0  0  0  0  0  0
  187.8620  177.2210  140.4530 S   0  0  0  0  0  0  0  0  0  0  0  0
  195.2520  171.8050  137.8910 C   0  0  0  0  0  2  0  0  0  0  0  0
  195.6590  173.2800  137.6870 C   0  0  1  0  0  3  0  0  0  0  0  0
  198.7190  170.7610  135.4000 C   0  0  0  0  0  1  0  0  0  0  0  0
  197.6950  172.8910  136.1820 C   0  0  0  0  0  2  0  0  0  0  0  0
  196.3000  170.7770  135.8820 C   0  0  0  0  0  3  0  0  0  0  0  0
  195.2060  170.9860  136.6280 C   0  0  0  0  0  3  0  0  0  0  0  0
  196.3540  173.6130  136.3640 C   0  0  0  0  0  2  0  0  0  0  0  0
  197.6340  171.3590  136.2650 C   0  0  1  0  0  3  0  0  0  0  0  0
  188.4370  178.0260  144.1740 O   0  0  0  0  0  0  0  0  0  0  0  0
  189.8880  178.2380  144.5450 P   0  0  2  0  0  0  0  0  0  0  0  0
  190.3140  179.8510  144.2650 O   0  0  0  0  0  1  0  0  0  0  0  0
  190.1540  177.8200  146.2310 N   0  0  0  0  0  2  0  0  0  0  0  0
  187.3960  178.2830  146.0100 O   0  0  0  0  0  0  0  0  0  0  0  0
  188.3040  176.3190  147.4640 O   0  0  0  0  0  1  0  0  0  0  0  0
  188.6230  178.7360  148.4310 O   0  0  0  0  0  1  0  0  0  0  0  0
  188.6060  177.7460  147.0590 P   0  0  0  0  0  0  0  0  0  0  0  0
  186.2660  178.1090  137.8500 C   0  0  0  0  0  2  0  0  0  0  0  0
  184.9230  179.4370  141.0280 N   0  0  0  0  0  2  0  0  0  0  0  0
  186.0860  178.4790  139.2450 N   0  0  0  0  0  2  0  0  0  0  0  0
  184.9340  179.1550  139.7670 C   0  0  0  0  0  0  0  0  0  0  0  0
  183.6470  179.2170  138.9670 C   0  0  2  0  0  3  0  0  0  0  0  0
  183.0590  180.4780  139.1200 O   0  0  0  0  0  1  0  0  0  0  0  0
  182.6130  178.1290  139.3290 C   0  0  2  0  0  3  0  0  0  0  0  0
  182.1220  178.1870  141.4740 O   0  0  0  0  0  1  0  0  0  0  0  0
  182.8560  177.5340  140.5870 O   0  0  0  0  0  0  0  0  0  0  0  0
  182.5060  177.0690  138.2290 C   0  0  0  0  0  2  0  0  0  0  0  0
  179.6300  175.4320  137.1320 O   0  0  0  0  0  0  0  0  0  0  0  0
  181.4450  176.0290  138.5640 C   0  0  2  0  0  3  0  0  0  0  0  0
  181.0150  175.2590  137.3240 C   0  0  1  0  0  3  0  0  0  0  0  0
  180.2000  176.7350  139.0120 C   0  0  0  0  0  2  0  0  0  0  0  0
  179.2810  176.6000  137.8260 C   0  0  0  0  0  2  0  0  0  0  0  0
  181.2990  173.8430  137.5220 N   0  0  0  0  0  2  0  0  0  0  0  0
  182.1630  173.3540  136.4500 C   0  0  0  0  0  0  0  0  0  0  0  0
  181.4920  173.0950  135.1160 C   0  0  0  0  0  2  0  0  0  0  0  0
  182.2970  174.3670  135.3330 C   0  0  0  0  0  2  0  0  0  0  0  0
  184.4440  173.4330  137.3270 O   0  0  0  0  0  1  0  0  0  0  0  0
  183.4450  172.5870  136.8290 C   0  0  2  0  0  3  0  0  0  0  0  0
  183.9220  170.2710  136.0190 C   0  0  0  0  0  1  0  0  0  0  0  0
  183.9720  171.7460  135.6660 C   0  0  2  0  0  3  0  0  0  0  0  0
  185.2830  172.1050  135.3400 O   0  0  0  0  0  1  0  0  0  0  0  0
  1 26  1  0  0  0  0
  2  6  2  0  0  0  0
  4 23  1  0  0  0  0
  4  7  1  0  0  0  0
  5 11  1  1  0  0  0
  5 37  1  0  0  0  0
  6 14  1  0  0  0  0
  7 25  1  0  0  0  0
  8 44  1  0  0  0  0
  8 12  1  0  0  0  0
  9  5  1  0  0  0  0
 10 24  1  6  0  0  0
 10 27  1  0  0  0  0
 10  1  1  0  0  0  0
 12 27  1  0  0  0  0
 13 16  1  0  0  0  0
 14 21  1  0  0  0  0
 15  8  2  0  0  0  0
 16 15  1  0  0  0  0
 16 20  2  0  0  0  0
 17  3  2  0  0  0  0
 18  2  1  0  0  0  0
 19 13  1  0  0  0  0
 19 23  2  0  0  0  0
 20 22  1  0  0  0  0
 21 17  1  0  0  0  0
 22 12  2  0  0  0  0
 25 18  1  0  0  0  0
 26  3  1  6  0  0  0
 26  9  1  0  0  0  0
 26  5  1  0  0  0  0
 29 28  1  0  0  0  0
 29  2  1  6  0  0  0
 31 35  1  0  0  0  0
 31 34  1  0  0  0  0
 32 35  1  0  0  0  0
 32 33  2  0  0  0  0
 33 28  1  0  0  0  0
 34 29  1  0  0  0  0
 35 30  1  6  0  0  0
 37 36  2  6  0  0  0
 37 39  1  0  0  0  0
 38 37  1  0  0  0  0
 39 43  1  0  0  0  0
 40 43  2  0  0  0  0
 43 41  1  0  0  0  0
 43 42  1  0  0  0  0
 44 46  1  0  0  0  0
 46 47  1  0  0  0  0
 47 45  2  0  0  0  0
 48 49  1  1  0  0  0
 48 50  1  0  0  0  0
 48 47  1  0  0  0  0
 50 53  1  6  0  0  0
 50 52  1  0  0  0  0
 52 51  1  0  0  0  0
 54 56  1  0  0  0  0
 54 58  1  0  0  0  0
 55 53  1  6  0  0  0
 55 57  1  0  0  0  0
 56 59  1  1  0  0  0
 56 55  1  0  0  0  0
 58 57  1  0  0  0  0
 60 64  1  0  0  0  0
 60 59  1  0  0  0  0
 61 62  1  0  0  0  0
 61 60  1  0  0  0  0
 62 60  1  0  0  0  0
 64 63  1  6  0  0  0
 66 65  1  1  0  0  0
 66 64  1  0  0  0  0
 67 66  1  0  0  0  0
M  END
>  <MODEL>
1

>  <REMARK>
 VINA RESULT:      -3.1      0.000      0.000
  Name = 
  15 active torsions:
  status: ('A' for Active; 'I' for Inactive)
    1  A    between atoms: C_6  and  C_8
    2  A    between atoms: N_10  and  C_28
    3  A    between atoms: C_11  and  C_55
    4  A    between atoms: N_13  and  P_35
    5  A    between atoms: N_13  and  P_61
    6  A    between atoms: C_14  and  P_61
    7  A    between atoms: C_18  and  C_32
    8  A    between atoms: C_18  and  N_34
    9  A    between atoms: C_19  and  C_28
   10  A    between atoms: C_20  and  N_34
   11  A    between atoms: C_29  and  C_32
   12  A    between atoms: C_33  and  C_43
   13  A    between atoms: C_33  and  C_47
   14  A    between atoms: O_45  and  C_47
   15  A    between atoms: C_47  and  C_55
                            x       y       z     vdW  Elec       q    Type
                         _______ _______ _______ _____ _____    ______ ____

>  <TORSDO>
F 15

$$$$
=
 OpenBabel10222417353D

 67 72  0  0  1  0  0  0  0  0999 V2000
  190.0850  178.2810  141.0190 O   0  0  0  0  0  0  0  0  0  0  0  0
  194.6610  174.1540  137.6120 C   0  0  0  0  0  0  0  0  0  0  0  0
  192.2180  176.9450  140.7740 C   0  0  0  0  0  3  0  0  0  0  0  0
  191.6870  172.5990  134.6830 C   0  0  0  0  0  2  0  0  0  0  0  0
  191.1330  177.3910  143.0510 C   0  0  1  0  0  0  0  0  0  0  0  0
  194.8240  175.2880  138.2170 N   0  0  0  0  0  0  0  0  0  0  0  0
  193.0590  172.8420  135.2170 C   0  0  0  0  0  2  0  0  0  0  0  0
  187.1590  176.3640  137.5450 C   0  0  0  0  0  0  0  0  0  0  0  0
  190.3820  176.2300  142.4260 C   0  0  0  0  0  2  0  0  0  0  0  0
  189.5360  177.7640  139.8370 C   0  0  2  0  0  3  0  0  0  0  0  0
  192.3640  177.0140  143.5930 O   0  0  0  0  0  1  0  0  0  0  0  0
  187.9730  176.0210  138.6440 C   0  0  0  0  0  0  0  0  0  0  0  0
  188.2320  173.8340  135.0160 N   0  0  0  0  0  2  0  0  0  0  0  0
  193.7450  176.1360  138.4890 N   0  0  0  0  0  2  0  0  0  0  0  0
  187.2580  175.6280  136.3570 C   0  0  0  0  0  3  0  0  0  0  0  0
  188.1570  174.5640  136.2500 C   0  0  0  0  0  0  0  0  0  0  0  0
  192.7510  177.7450  139.9260 N   0  0  0  0  0  0  0  0  0  0  0  0
  193.3480  173.7470  137.1870 N   0  0  0  0  0  2  0  0  0  0  0  0
  189.3530  173.0950  134.5930 N   0  0  0  0  0  0  0  0  0  0  0  0
  188.9290  174.2010  137.3590 C   0  0  0  0  0  3  0  0  0  0  0  0
  193.9570  177.3660  139.2340 C   0  0  0  0  0  2  0  0  0  0  0  0
  188.8370  174.9260  138.5480 C   0  0  0  0  0  3  0  0  0  0  0  0
  190.6600  173.3110  135.1220 C   0  0  0  0  0  3  0  0  0  0  0  0
  189.3410  178.8940  138.8450 C   0  0  0  0  0  1  0  0  0  0  0  0
  193.1070  172.5560  136.5860 O   0  0  0  0  0  0  0  0  0  0  0  0
  190.9810  177.3230  141.5390 C   0  0  1  0  0  0  0  0  0  0  0  0
  187.9400  176.9520  140.1820 S   0  0  0  0  0  0  0  0  0  0  0  0
  195.7000  171.9130  138.0810 C   0  0  0  0  0  2  0  0  0  0  0  0
  195.8620  173.2860  137.3950 C   0  0  1  0  0  3  0  0  0  0  0  0
  198.7620  170.4340  135.2970 C   0  0  0  0  0  1  0  0  0  0  0  0
  197.6230  172.6180  135.6590 C   0  0  0  0  0  2  0  0  0  0  0  0
  196.4910  170.4130  136.2610 C   0  0  0  0  0  3  0  0  0  0  0  0
  195.5340  170.7530  137.1350 C   0  0  0  0  0  3  0  0  0  0  0  0
  196.2540  173.2600  135.9140 C   0  0  0  0  0  2  0  0  0  0  0  0
  197.7830  171.1810  136.1730 C   0  0  1  0  0  3  0  0  0  0  0  0
  188.8050  178.7810  143.2880 O   0  0  0  0  0  0  0  0  0  0  0  0
  190.0660  178.4680  144.0630 P   0  0  2  0  0  0  0  0  0  0  0  0
  190.9100  179.9000  144.3750 O   0  0  0  0  0  1  0  0  0  0  0  0
  189.6700  177.6520  145.5680 N   0  0  0  0  0  2  0  0  0  0  0  0
  187.6080  177.4230  147.4570 O   0  0  0  0  0  1  0  0  0  0  0  0
  187.4200  179.1100  145.4780 O   0  0  0  0  0  1  0  0  0  0  0  0
  187.1440  176.5710  144.8820 O   0  0  0  0  0  0  0  0  0  0  0  0
  187.9330  177.7300  145.8280 P   0  0  0  0  0  0  0  0  0  0  0  0
  186.1750  177.4920  137.5920 C   0  0  0  0  0  2  0  0  0  0  0  0
  183.6870  176.6470  134.9920 N   0  0  0  0  0  2  0  0  0  0  0  0
  185.3500  177.4930  136.3940 N   0  0  0  0  0  2  0  0  0  0  0  0
  184.3270  176.5300  136.1080 C   0  0  0  0  0  0  0  0  0  0  0  0
  183.7770  175.6400  137.2060 C   0  0  2  0  0  3  0  0  0  0  0  0
  184.4650  174.4210  137.2120 O   0  0  0  0  0  1  0  0  0  0  0  0
  182.2600  175.3660  137.1100 C   0  0  2  0  0  3  0  0  0  0  0  0
  180.8300  175.1590  135.4500 O   0  0  0  0  0  1  0  0  0  0  0  0
  181.9080  174.6020  135.9760 O   0  0  0  0  0  0  0  0  0  0  0  0
  181.4510  176.6640  137.1740 C   0  0  0  0  0  2  0  0  0  0  0  0
  180.6480  175.2180  140.2430 O   0  0  0  0  0  0  0  0  0  0  0  0
  180.4690  176.6470  138.3380 C   0  0  2  0  0  3  0  0  0  0  0  0
  181.1810  176.3840  139.6580 C   0  0  1  0  0  3  0  0  0  0  0  0
  179.5460  175.4760  138.1750 C   0  0  0  0  0  2  0  0  0  0  0  0
  180.0500  174.4950  139.2020 C   0  0  0  0  0  2  0  0  0  0  0  0
  180.9590  177.5150  140.5500 N   0  0  0  0  0  2  0  0  0  0  0  0
  182.2340  177.9810  141.0890 C   0  0  0  0  0  0  0  0  0  0  0  0
  183.4810  177.3860  140.4670 C   0  0  0  0  0  2  0  0  0  0  0  0
  183.0170  178.7780  140.0670 C   0  0  0  0  0  2  0  0  0  0  0  0
  181.2060  179.3730  142.8160 O   0  0  0  0  0  1  0  0  0  0  0  0
  182.2730  178.5100  142.5370 C   0  0  2  0  0  3  0  0  0  0  0  0
  184.6840  178.1170  143.0620 C   0  0  0  0  0  1  0  0  0  0  0  0
  183.6100  179.1710  142.8680 C   0  0  2  0  0  3  0  0  0  0  0  0
  183.5110  179.9560  144.0200 O   0  0  0  0  0  1  0  0  0  0  0  0
  1 26  1  0  0  0  0
  2  6  2  0  0  0  0
  4 23  1  0  0  0  0
  4  7  1  0  0  0  0
  5 11  1  1  0  0  0
  5 37  1  0  0  0  0
  6 14  1  0  0  0  0
  7 25  1  0  0  0  0
  8 44  1  0  0  0  0
  8 12  1  0  0  0  0
  9  5  1  0  0  0  0
 10 24  1  6  0  0  0
 10 27  1  0  0  0  0
 10  1  1  0  0  0  0
 12 27  1  0  0  0  0
 13 16  1  0  0  0  0
 14 21  1  0  0  0  0
 15  8  2  0  0  0  0
 16 15  1  0  0  0  0
 16 20  2  0  0  0  0
 17  3  2  0  0  0  0
 18  2  1  0  0  0  0
 19 13  1  0  0  0  0
 19 23  2  0  0  0  0
 20 22  1  0  0  0  0
 21 17  1  0  0  0  0
 22 12  2  0  0  0  0
 25 18  1  0  0  0  0
 26  3  1  6  0  0  0
 26  9  1  0  0  0  0
 26  5  1  0  0  0  0
 29  2  1  6  0  0  0
 29 28  1  0  0  0  0
 31 34  1  0  0  0  0
 31 35  1  0  0  0  0
 32 33  2  0  0  0  0
 33 28  1  0  0  0  0
 34 29  1  0  0  0  0
 35 30  1  6  0  0  0
 35 32  1  0  0  0  0
 37 36  2  6  0  0  0
 37 38  1  0  0  0  0
 37 39  1  0  0  0  0
 39 43  1  0  0  0  0
 41 43  1  0  0  0  0
 42 43  2  0  0  0  0
 43 40  1  0  0  0  0
 45 47  2  0  0  0  0
 46 44  1  0  0  0  0
 47 46  1  0  0  0  0
 47 48  1  0  0  0  0
 48 49  1  6  0  0  0
 50 53  1  6  0  0  0
 50 48  1  0  0  0  0
 51 52  1  0  0  0  0
 52 50  1  0  0  0  0
 55 53  1  6  0  0  0
 55 56  1  0  0  0  0
 56 54  1  0  0  0  0
 56 59  1  1  0  0  0
 57 55  1  0  0  0  0
 57 58  1  0  0  0  0
 58 54  1  0  0  0  0
 59 60  1  0  0  0  0
 60 64  1  0  0  0  0
 61 60  1  0  0  0  0
 62 61  1  0  0  0  0
 62 60  1  0  0  0  0
 64 63  1  6  0  0  0
 64 66  1  0  0  0  0
 66 65  1  1  0  0  0
 66 67  1  0  0  0  0
M  END
>  <MODEL>
2

>  <REMARK>
 VINA RESULT:      -1.8      1.757      3.801
  Name = 
  15 active torsions:
  status: ('A' for Active; 'I' for Inactive)
    1  A    between atoms: C_6  and  C_8
    2  A    between atoms: N_10  and  C_28
    3  A    between atoms: C_11  and  C_55
    4  A    between atoms: N_13  and  P_35
    5  A    between atoms: N_13  and  P_61
    6  A    between atoms: C_14  and  P_61
    7  A    between atoms: C_18  and  C_32
    8  A    between atoms: C_18  and  N_34
    9  A    between atoms: C_19  and  C_28
   10  A    between atoms: C_20  and  N_34
   11  A    between atoms: C_29  and  C_32
   12  A    between atoms: C_33  and  C_43
   13  A    between atoms: C_33  and  C_47
   14  A    between atoms: O_45  and  C_47
   15  A    between atoms: C_47  and  C_55
                            x       y       z     vdW  Elec       q    Type
                         _______ _______ _______ _____ _____    ______ ____

>  <TORSDO>
F 15

$$$$
=
 OpenBabel10222417353D

 67 72  0  0  1  0  0  0  0  0999 V2000
  189.7090  178.2080  142.1080 O   0  0  0  0  0  0  0  0  0  0  0  0
  194.6770  175.0380  138.2550 C   0  0  0  0  0  0  0  0  0  0  0  0
  191.8940  176.9850  141.7510 C   0  0  0  0  0  3  0  0  0  0  0  0
  192.0100  174.1910  134.7900 C   0  0  0  0  0  2  0  0  0  0  0  0
  190.6060  176.8730  143.9620 C   0  0  1  0  0  0  0  0  0  0  0  0
  194.7550  175.9980  139.1200 N   0  0  0  0  0  0  0  0  0  0  0  0
  193.3240  174.3130  135.4870 C   0  0  0  0  0  2  0  0  0  0  0  0
  187.1470  177.1380  138.0350 C   0  0  0  0  0  0  0  0  0  0  0  0
  189.9450  175.8850  143.0180 C   0  0  0  0  0  2  0  0  0  0  0  0
  189.2780  177.9790  140.7940 C   0  0  2  0  0  3  0  0  0  0  0  0
  191.7960  176.3900  144.5090 O   0  0  0  0  0  1  0  0  0  0  0  0
  187.8740  176.5520  139.0920 C   0  0  0  0  0  0  0  0  0  0  0  0
  188.5050  175.2840  135.0920 N   0  0  0  0  0  2  0  0  0  0  0  0
  193.6330  176.7490  139.4860 N   0  0  0  0  0  2  0  0  0  0  0  0
  187.3680  176.7030  136.7220 C   0  0  0  0  0  3  0  0  0  0  0  0
  188.3040  175.7020  136.4500 C   0  0  0  0  0  0  0  0  0  0  0  0
  192.4720  177.9660  141.1640 N   0  0  0  0  0  0  0  0  0  0  0  0
  193.4180  174.7310  137.6310 N   0  0  0  0  0  2  0  0  0  0  0  0
  189.6790  174.6750  134.6100 N   0  0  0  0  0  0  0  0  0  0  0  0
  188.9890  175.0950  137.5070 C   0  0  0  0  0  3  0  0  0  0  0  0
  193.7440  177.7720  140.5140 C   0  0  0  0  0  2  0  0  0  0  0  0
  188.7750  175.5180  138.8200 C   0  0  0  0  0  3  0  0  0  0  0  0
  190.9290  174.7710  135.2890 C   0  0  0  0  0  3  0  0  0  0  0  0
  189.1350  179.3090  140.0810 C   0  0  0  0  0  1  0  0  0  0  0  0
  193.2630  173.7130  136.7500 O   0  0  0  0  0  0  0  0  0  0  0  0
  190.5850  177.1610  142.4690 C   0  0  1  0  0  0  0  0  0  0  0  0
  187.6830  177.0950  140.7950 S   0  0  0  0  0  0  0  0  0  0  0  0
  195.8270  172.8150  138.4980 C   0  0  0  0  0  2  0  0  0  0  0  0
  195.9170  174.2550  137.9500 C   0  0  1  0  0  3  0  0  0  0  0  0
  198.9360  171.7690  135.5720 C   0  0  0  0  0  1  0  0  0  0  0  0
  197.6940  173.8480  136.1500 C   0  0  0  0  0  2  0  0  0  0  0  0
  196.6760  171.5420  136.5360 C   0  0  0  0  0  3  0  0  0  0  0  0
  195.7100  171.7470  137.4420 C   0  0  0  0  0  3  0  0  0  0  0  0
  196.2980  174.3940  136.4730 C   0  0  0  0  0  2  0  0  0  0  0  0
  197.9280  172.3770  136.5200 C   0  0  1  0  0  3  0  0  0  0  0  0
  188.0960  177.8320  144.3950 O   0  0  0  0  0  0  0  0  0  0  0  0
  189.4260  177.6730  145.0980 P   0  0  2  0  0  0  0  0  0  0  0  0
  190.0380  179.1950  145.5050 O   0  0  0  0  0  1  0  0  0  0  0  0
  189.2390  176.6840  146.5390 N   0  0  0  0  0  2  0  0  0  0  0  0
  187.7090  176.3360  148.8650 O   0  0  0  0  0  1  0  0  0  0  0  0
  188.2950  178.7250  148.0020 O   0  0  0  0  0  1  0  0  0  0  0  0
  186.4990  177.3950  146.6310 O   0  0  0  0  0  0  0  0  0  0  0  0
  187.9360  177.3360  147.5220 P   0  0  0  0  0  0  0  0  0  0  0  0
  186.1300  178.2150  138.2570 C   0  0  0  0  0  2  0  0  0  0  0  0
  183.9470  178.5880  141.2180 N   0  0  0  0  0  2  0  0  0  0  0  0
  185.4830  178.0390  139.5480 N   0  0  0  0  0  2  0  0  0  0  0  0
  184.4110  178.8530  140.0410 C   0  0  0  0  0  0  0  0  0  0  0  0
  183.6210  179.7410  139.0990 C   0  0  2  0  0  3  0  0  0  0  0  0
  184.0030  181.0760  139.2810 O   0  0  0  0  0  1  0  0  0  0  0  0
  182.0880  179.6290  139.2460 C   0  0  2  0  0  3  0  0  0  0  0  0
  180.3090  179.9530  140.5000 O   0  0  0  0  0  1  0  0  0  0  0  0
  181.6310  179.9610  140.5400 O   0  0  0  0  0  0  0  0  0  0  0  0
  181.5840  178.2460  138.8210 C   0  0  0  0  0  2  0  0  0  0  0  0
  181.7700  179.0020  135.4230 O   0  0  0  0  0  0  0  0  0  0  0  0
  180.8220  178.3150  137.5040 C   0  0  2  0  0  3  0  0  0  0  0  0
  181.7100  177.9260  136.3310 C   0  0  1  0  0  3  0  0  0  0  0  0
  180.4540  179.7430  137.2340 C   0  0  0  0  0  2  0  0  0  0  0  0
  181.4210  180.1480  136.1500 C   0  0  0  0  0  2  0  0  0  0  0  0
  181.1340  176.7650  135.6650 N   0  0  0  0  0  2  0  0  0  0  0  0
  181.9930  175.6000  135.8610 C   0  0  0  0  0  0  0  0  0  0  0  0
  183.1290  175.4320  134.8720 C   0  0  0  0  0  2  0  0  0  0  0  0
  183.3990  176.0020  136.2560 C   0  0  0  0  0  2  0  0  0  0  0  0
  181.1660  173.3050  135.7030 O   0  0  0  0  0  1  0  0  0  0  0  0
  181.4110  174.3680  136.5810 C   0  0  2  0  0  3  0  0  0  0  0  0
  180.4580  174.6910  138.8690 C   0  0  0  0  0  1  0  0  0  0  0  0
  180.1560  174.7140  137.3820 C   0  0  2  0  0  3  0  0  0  0  0  0
  179.1180  173.8220  137.1000 O   0  0  0  0  0  1  0  0  0  0  0  0
  1 26  1  0  0  0  0
  2  6  2  0  0  0  0
  4 23  1  0  0  0  0
  4  7  1  0  0  0  0
  5 11  1  1  0  0  0
  5 37  1  0  0  0  0
  6 14  1  0  0  0  0
  7 25  1  0  0  0  0
  8 44  1  0  0  0  0
  8 12  1  0  0  0  0
  9  5  1  0  0  0  0
 10 24  1  1  0  0  0
 10 27  1  0  0  0  0
 10  1  1  0  0  0  0
 12 27  1  0  0  0  0
 13 16  1  0  0  0  0
 14 21  1  0  0  0  0
 15  8  2  0  0  0  0
 16 15  1  0  0  0  0
 16 20  2  0  0  0  0
 17  3  2  0  0  0  0
 18  2  1  0  0  0  0
 19 13  1  0  0  0  0
 19 23  2  0  0  0  0
 20 22  1  0  0  0  0
 21 17  1  0  0  0  0
 22 12  2  0  0  0  0
 25 18  1  0  0  0  0
 26  3  1  6  0  0  0
 26  9  1  0  0  0  0
 26  5  1  0  0  0  0
 29  2  1  6  0  0  0
 29 28  1  0  0  0  0
 31 34  1  0  0  0  0
 31 35  1  0  0  0  0
 32 33  2  0  0  0  0
 33 28  1  0  0  0  0
 34 29  1  0  0  0  0
 35 30  1  6  0  0  0
 35 32  1  0  0  0  0
 37 36  2  6  0  0  0
 37 38  1  0  0  0  0
 37 39  1  0  0  0  0
 39 43  1  0  0  0  0
 42 43  2  0  0  0  0
 43 41  1  0  0  0  0
 43 40  1  0  0  0  0
 44 46  1  0  0  0  0
 46 47  1  0  0  0  0
 47 45  2  0  0  0  0
 48 50  1  0  0  0  0
 48 49  1  1  0  0  0
 48 47  1  0  0  0  0
 50 53  1  1  0  0  0
 50 52  1  0  0  0  0
 51 52  1  0  0  0  0
 54 58  1  0  0  0  0
 54 56  1  0  0  0  0
 55 53  1  1  0  0  0
 56 59  1  6  0  0  0
 56 55  1  0  0  0  0
 57 55  1  0  0  0  0
 58 57  1  0  0  0  0
 59 60  1  0  0  0  0
 60 62  1  0  0  0  0
 60 64  1  0  0  0  0
 61 60  1  0  0  0  0
 61 62  1  0  0  0  0
 64 63  1  6  0  0  0
 64 66  1  0  0  0  0
 66 65  1  1  0  0  0
 67 66  1  0  0  0  0
M  END
>  <MODEL>
3

>  <REMARK>
 VINA RESULT:      -1.7      1.567      2.155
  Name = 
  15 active torsions:
  status: ('A' for Active; 'I' for Inactive)
    1  A    between atoms: C_6  and  C_8
    2  A    between atoms: N_10  and  C_28
    3  A    between atoms: C_11  and  C_55
    4  A    between atoms: N_13  and  P_35
    5  A    between atoms: N_13  and  P_61
    6  A    between atoms: C_14  and  P_61
    7  A    between atoms: C_18  and  C_32
    8  A    between atoms: C_18  and  N_34
    9  A    between atoms: C_19  and  C_28
   10  A    between atoms: C_20  and  N_34
   11  A    between atoms: C_29  and  C_32
   12  A    between atoms: C_33  and  C_43
   13  A    between atoms: C_33  and  C_47
   14  A    between atoms: O_45  and  C_47
   15  A    between atoms: C_47  and  C_55
                            x       y       z     vdW  Elec       q    Type
                         _______ _______ _______ _____ _____    ______ ____

>  <TORSDO>
F 15

$$$$
=
 OpenBabel10222417353D

 67 72  0  0  1  0  0  0  0  0999 V2000
  190.3630  175.4480  137.5500 O   0  0  0  0  0  0  0  0  0  0  0  0
  188.0350  177.6580  143.8170 C   0  0  0  0  0  0  0  0  0  0  0  0
  190.6210  176.3600  139.8950 C   0  0  0  0  0  3  0  0  0  0  0  0
  183.9010  178.5420  142.4150 C   0  0  0  0  0  2  0  0  0  0  0  0
  192.3420  176.8090  138.0530 C   0  0  1  0  0  0  0  0  0  0  0  0
  188.9230  176.7690  143.5050 N   0  0  0  0  0  0  0  0  0  0  0  0
  184.9610  178.3160  143.4400 C   0  0  0  0  0  2  0  0  0  0  0  0
  185.6700  176.4900  136.4540 C   0  0  0  0  0  0  0  0  0  0  0  0
  191.2040  177.7900  137.8400 C   0  0  0  0  0  2  0  0  0  0  0  0
  188.9710  175.6200  137.5550 C   0  0  2  0  0  3  0  0  0  0  0  0
  193.1980  177.1850  139.0900 O   0  0  0  0  0  1  0  0  0  0  0  0
  186.8710  177.0660  136.9200 C   0  0  0  0  0  0  0  0  0  0  0  0
  183.1910  177.9170  138.8540 N   0  0  0  0  0  2  0  0  0  0  0  0
  188.9690  176.1940  142.2300 N   0  0  0  0  0  2  0  0  0  0  0  0
  184.4660  176.7860  137.1050 C   0  0  0  0  0  3  0  0  0  0  0  0
  184.4440  177.6390  138.2120 C   0  0  0  0  0  0  0  0  0  0  0  0
  190.2750  175.2700  140.4740 N   0  0  0  0  0  0  0  0  0  0  0  0
  187.0520  178.0660  142.8490 N   0  0  0  0  0  2  0  0  0  0  0  0
  183.0550  178.3360  140.1910 N   0  0  0  0  0  0  0  0  0  0  0  0
  185.6310  178.2410  138.6400 C   0  0  0  0  0  3  0  0  0  0  0  0
  190.0250  175.2530  141.8930 C   0  0  0  0  0  2  0  0  0  0  0  0
  186.8370  177.9560  137.9980 C   0  0  0  0  0  3  0  0  0  0  0  0
  184.0790  178.1420  141.1650 C   0  0  0  0  0  3  0  0  0  0  0  0
  188.3040  174.2650  137.4370 C   0  0  0  0  0  1  0  0  0  0  0  0
  186.1230  179.0200  143.1020 O   0  0  0  0  0  0  0  0  0  0  0  0
  190.9240  176.4050  138.4240 C   0  0  1  0  0  0  0  0  0  0  0  0
  188.4610  176.6920  136.1700 S   0  0  0  0  0  0  0  0  0  0  0  0
  186.6640  178.4330  145.7770 C   0  0  0  0  0  2  0  0  0  0  0  0
  188.0800  178.2550  145.1900 C   0  0  1  0  0  3  0  0  0  0  0  0
  188.5810  178.5170  149.7320 C   0  0  0  0  0  1  0  0  0  0  0  0
  189.3860  178.2340  147.3930 C   0  0  0  0  0  2  0  0  0  0  0  0
  187.0250  177.5530  148.0760 C   0  0  0  0  0  3  0  0  0  0  0  0
  186.3400  177.5130  146.9260 C   0  0  0  0  0  3  0  0  0  0  0  0
  189.0900  177.5140  146.0720 C   0  0  0  0  0  2  0  0  0  0  0  0
  188.1650  178.5150  148.2790 C   0  0  1  0  0  3  0  0  0  0  0  0
  194.3510  177.0770  136.2360 O   0  0  0  0  0  1  0  0  0  0  0  0
  193.1080  176.2560  136.4930 P   0  0  2  0  0  0  0  0  0  0  0  0
  191.9950  176.5050  135.2440 O   0  0  0  0  0  0  0  0  0  0  0  0
  193.5170  174.5510  136.6150 N   0  0  0  0  0  2  0  0  0  0  0  0
  196.1400  175.5340  136.4570 O   0  0  0  0  0  0  0  0  0  0  0  0
  195.1820  174.6510  138.7160 O   0  0  0  0  0  1  0  0  0  0  0  0
  195.7590  172.8450  136.9040 O   0  0  0  0  0  1  0  0  0  0  0  0
  195.1580  174.3930  137.2250 P   0  0  0  0  0  0  0  0  0  0  0  0
  185.6240  175.5680  135.2750 C   0  0  0  0  0  2  0  0  0  0  0  0
  185.4770  171.9670  136.1020 N   0  0  0  0  0  2  0  0  0  0  0  0
  185.9600  174.2120  135.6820 N   0  0  0  0  0  2  0  0  0  0  0  0
  185.0390  173.1140  135.6970 C   0  0  0  0  0  0  0  0  0  0  0  0
  183.7250  173.1980  134.9430 C   0  0  2  0  0  3  0  0  0  0  0  0
  183.4060  174.5400  134.7040 O   0  0  0  0  0  1  0  0  0  0  0  0
  182.5350  172.5120  135.6500 C   0  0  2  0  0  3  0  0  0  0  0  0
  182.0580  171.6970  137.6370 O   0  0  0  0  0  1  0  0  0  0  0  0
  182.9380  171.6050  136.6540 O   0  0  0  0  0  0  0  0  0  0  0  0
  181.5980  171.8400  134.6420 C   0  0  0  0  0  2  0  0  0  0  0  0
  179.1310  173.0150  136.8080 O   0  0  0  0  0  0  0  0  0  0  0  0
  180.1800  172.3840  134.7570 C   0  0  2  0  0  3  0  0  0  0  0  0
  180.0790  173.4360  135.8540 C   0  0  1  0  0  3  0  0  0  0  0  0
  179.2750  171.2800  135.2170 C   0  0  0  0  0  2  0  0  0  0  0  0
  179.0180  171.6260  136.6620 C   0  0  0  0  0  2  0  0  0  0  0  0
  179.6420  174.6940  135.2640 N   0  0  0  0  0  2  0  0  0  0  0  0
  180.2820  175.8140  135.9500 C   0  0  0  0  0  0  0  0  0  0  0  0
  179.9980  175.9390  137.4340 C   0  0  0  0  0  2  0  0  0  0  0  0
  181.3120  175.3410  136.9540 C   0  0  0  0  0  2  0  0  0  0  0  0
  181.9780  177.4710  135.3540 O   0  0  0  0  0  1  0  0  0  0  0  0
  180.6560  177.0650  135.1310 C   0  0  2  0  0  3  0  0  0  0  0  0
  180.2020  179.4880  134.7220 C   0  0  0  0  0  1  0  0  0  0  0  0
  179.6830  178.2180  135.3720 C   0  0  2  0  0  3  0  0  0  0  0  0
  179.4910  178.4360  136.7390 O   0  0  0  0  0  1  0  0  0  0  0  0
  1 10  1  0  0  0  0
  1 26  1  0  0  0  0
  3 17  2  0  0  0  0
  4  7  1  0  0  0  0
  5 26  1  0  0  0  0
  5 11  1  1  0  0  0
  6  2  2  0  0  0  0
  8 12  2  0  0  0  0
  8 15  1  0  0  0  0
  9  5  1  0  0  0  0
 10 24  1  6  0  0  0
 12 22  1  0  0  0  0
 13 19  1  0  0  0  0
 14  6  1  0  0  0  0
 15 16  2  0  0  0  0
 16 20  1  0  0  0  0
 16 13  1  0  0  0  0
 17 21  1  0  0  0  0
 18 25  1  0  0  0  0
 18  2  1  0  0  0  0
 19 23  2  0  0  0  0
 21 14  1  0  0  0  0
 22 20  2  0  0  0  0
 23  4  1  0  0  0  0
 25  7  1  0  0  0  0
 26  9  1  6  0  0  0
 26  3  1  0  0  0  0
 27 12  1  0  0  0  0
 27 10  1  0  0  0  0
 28 33  1  0  0  0  0
 29  2  1  6  0  0  0
 29 28  1  0  0  0  0
 29 34  1  0  0  0  0
 31 35  1  0  0  0  0
 32 35  1  0  0  0  0
 33 32  2  0  0  0  0
 34 31  1  0  0  0  0
 35 30  1  1  0  0  0
 36 37  1  0  0  0  0
 37 38  2  6  0  0  0
 37 39  1  0  0  0  0
 37  5  1  0  0  0  0
 39 43  1  0  0  0  0
 40 43  2  0  0  0  0
 42 43  1  0  0  0  0
 43 41  1  0  0  0  0
 44 46  1  0  0  0  0
 44  8  1  0  0  0  0
 46 47  1  0  0  0  0
 47 45  2  0  0  0  0
 48 49  1  1  0  0  0
 48 50  1  0  0  0  0
 48 47  1  0  0  0  0
 50 53  1  6  0  0  0
 50 52  1  0  0  0  0
 52 51  1  0  0  0  0
 55 53  1  1  0  0  0
 55 57  1  0  0  0  0
 55 56  1  0  0  0  0
 56 59  1  6  0  0  0
 56 54  1  0  0  0  0
 57 58  1  0  0  0  0
 58 54  1  0  0  0  0
 59 60  1  0  0  0  0
 60 62  1  0  0  0  0
 60 61  1  0  0  0  0
 62 61  1  0  0  0  0
 64 63  1  1  0  0  0
 64 66  1  0  0  0  0
 64 60  1  0  0  0  0
 66 65  1  1  0  0  0
 66 67  1  0  0  0  0
M  END
>  <MODEL>
4

>  <REMARK>
 VINA RESULT:      -1.1      4.002      8.707
  Name = 
  15 active torsions:
  status: ('A' for Active; 'I' for Inactive)
    1  A    between atoms: C_6  and  C_8
    2  A    between atoms: N_10  and  C_28
    3  A    between atoms: C_11  and  C_55
    4  A    between atoms: N_13  and  P_35
    5  A    between atoms: N_13  and  P_61
    6  A    between atoms: C_14  and  P_61
    7  A    between atoms: C_18  and  C_32
    8  A    between atoms: C_18  and  N_34
    9  A    between atoms: C_19  and  C_28
   10  A    between atoms: C_20  and  N_34
   11  A    between atoms: C_29  and  C_32
   12  A    between atoms: C_33  and  C_43
   13  A    between atoms: C_33  and  C_47
   14  A    between atoms: O_45  and  C_47
   15  A    between atoms: C_47  and  C_55
                            x       y       z     vdW  Elec       q    Type
                         _______ _______ _______ _____ _____    ______ ____

>  <TORSDO>
F 15

$$$$
=
 OpenBabel10222417353D

 67 72  0  0  1  0  0  0  0  0999 V2000
  190.0850  178.2810  141.0190 O   0  0  0  0  0  0  0  0  0  0  0  0
  194.6610  174.1540  137.6120 C   0  0  0  0  0  0  0  0  0  0  0  0
  192.2180  176.9450  140.7740 C   0  0  0  0  0  3  0  0  0  0  0  0
  191.6870  172.5990  134.6830 C   0  0  0  0  0  2  0  0  0  0  0  0
  191.1330  177.3910  143.0510 C   0  0  1  0  0  0  0  0  0  0  0  0
  194.8240  175.2880  138.2170 N   0  0  0  0  0  0  0  0  0  0  0  0
  193.0590  172.8420  135.2170 C   0  0  0  0  0  2  0  0  0  0  0  0
  187.1590  176.3640  137.5450 C   0  0  0  0  0  0  0  0  0  0  0  0
  190.3820  176.2300  142.4260 C   0  0  0  0  0  2  0  0  0  0  0  0
  189.5360  177.7640  139.8370 C   0  0  2  0  0  3  0  0  0  0  0  0
  192.3640  177.0140  143.5930 O   0  0  0  0  0  1  0  0  0  0  0  0
  187.9730  176.0210  138.6440 C   0  0  0  0  0  0  0  0  0  0  0  0
  188.2320  173.8340  135.0160 N   0  0  0  0  0  2  0  0  0  0  0  0
  193.7450  176.1360  138.4890 N   0  0  0  0  0  2  0  0  0  0  0  0
  187.2580  175.6280  136.3570 C   0  0  0  0  0  3  0  0  0  0  0  0
  188.1570  174.5640  136.2500 C   0  0  0  0  0  0  0  0  0  0  0  0
  192.7510  177.7450  139.9260 N   0  0  0  0  0  0  0  0  0  0  0  0
  193.3480  173.7470  137.1870 N   0  0  0  0  0  2  0  0  0  0  0  0
  189.3530  173.0950  134.5930 N   0  0  0  0  0  0  0  0  0  0  0  0
  188.9290  174.2010  137.3590 C   0  0  0  0  0  3  0  0  0  0  0  0
  193.9570  177.3660  139.2340 C   0  0  0  0  0  2  0  0  0  0  0  0
  188.8370  174.9260  138.5480 C   0  0  0  0  0  3  0  0  0  0  0  0
  190.6600  173.3110  135.1220 C   0  0  0  0  0  3  0  0  0  0  0  0
  189.3410  178.8940  138.8450 C   0  0  0  0  0  1  0  0  0  0  0  0
  193.1070  172.5560  136.5860 O   0  0  0  0  0  0  0  0  0  0  0  0
  190.9810  177.3230  141.5390 C   0  0  1  0  0  0  0  0  0  0  0  0
  187.9400  176.9520  140.1820 S   0  0  0  0  0  0  0  0  0  0  0  0
  195.7950  172.0030  138.2500 C   0  0  0  0  0  2  0  0  0  0  0  0
  195.8620  173.2860  137.3950 C   0  0  1  0  0  3  0  0  0  0  0  0
  198.6490  170.2510  135.4030 C   0  0  0  0  0  1  0  0  0  0  0  0
  197.4870  172.4430  135.6020 C   0  0  0  0  0  2  0  0  0  0  0  0
  196.4690  170.3090  136.5570 C   0  0  0  0  0  3  0  0  0  0  0  0
  195.5800  170.7350  137.4650 C   0  0  0  0  0  3  0  0  0  0  0  0
  196.1270  173.0890  135.8990 C   0  0  0  0  0  2  0  0  0  0  0  0
  197.7280  171.0810  136.2670 C   0  0  1  0  0  3  0  0  0  0  0  0
  188.6320  178.0060  143.9300 O   0  0  0  0  0  1  0  0  0  0  0  0
  190.0660  178.4680  144.0630 P   0  0  2  0  0  0  0  0  0  0  0  0
  190.2100  180.0480  143.4780 O   0  0  0  0  0  0  0  0  0  0  0  0
  190.5790  178.3890  145.7420 N   0  0  0  0  0  2  0  0  0  0  0  0
  189.7480  177.4130  148.2380 O   0  0  0  0  0  1  0  0  0  0  0  0
  188.2000  177.2180  146.1490 O   0  0  0  0  0  0  0  0  0  0  0  0
  190.2740  175.6150  146.2220 O   0  0  0  0  0  1  0  0  0  0  0  0
  189.6510  177.1480  146.5720 P   0  0  0  0  0  0  0  0  0  0  0  0
  186.1750  177.4920  137.5920 C   0  0  0  0  0  2  0  0  0  0  0  0
  183.4130  176.3910  135.3960 N   0  0  0  0  0  2  0  0  0  0  0  0
  185.2180  177.3720  136.5040 N   0  0  0  0  0  2  0  0  0  0  0  0
  184.1790  176.3870  136.4370 C   0  0  0  0  0  0  0  0  0  0  0  0
  183.7680  175.6130  137.6750 C   0  0  2  0  0  3  0  0  0  0  0  0
  184.5350  174.4460  137.7750 O   0  0  0  0  0  1  0  0  0  0  0  0
  182.2700  175.2410  137.7320 C   0  0  2  0  0  3  0  0  0  0  0  0
  181.7660  173.7410  136.2040 O   0  0  0  0  0  1  0  0  0  0  0  0
  182.0320  173.8700  137.4930 O   0  0  0  0  0  0  0  0  0  0  0  0
  181.4390  176.1180  136.7920 C   0  0  0  0  0  2  0  0  0  0  0  0
  180.4500  178.1240  139.4660 O   0  0  0  0  0  0  0  0  0  0  0  0
  180.2620  176.7510  137.5210 C   0  0  2  0  0  3  0  0  0  0  0  0
  180.6240  178.1250  138.0680 C   0  0  1  0  0  3  0  0  0  0  0  0
  179.9550  175.9360  138.7420 C   0  0  0  0  0  2  0  0  0  0  0  0
  180.4960  176.7810  139.8660 C   0  0  0  0  0  2  0  0  0  0  0  0
  179.7400  179.1190  137.4740 N   0  0  0  0  0  2  0  0  0  0  0  0
  180.5270  180.1210  136.7580 C   0  0  0  0  0  0  0  0  0  0  0  0
  181.3640  179.6120  135.6010 C   0  0  0  0  0  2  0  0  0  0  0  0
  180.0370  180.3070  135.3370 C   0  0  0  0  0  2  0  0  0  0  0  0
  182.1470  181.2410  138.2060 O   0  0  0  0  0  1  0  0  0  0  0  0
  180.9450  181.4020  137.5050 C   0  0  2  0  0  3  0  0  0  0  0  0
  179.7640  183.4250  138.3750 C   0  0  0  0  0  1  0  0  0  0  0  0
  179.8390  181.9110  138.4290 C   0  0  2  0  0  3  0  0  0  0  0  0
  180.0570  181.5000  139.7480 O   0  0  0  0  0  1  0  0  0  0  0  0
  1 26  1  0  0  0  0
  2  6  2  0  0  0  0
  4 23  1  0  0  0  0
  4  7  1  0  0  0  0
  5 11  1  1  0  0  0
  5 37  1  0  0  0  0
  6 14  1  0  0  0  0
  7 25  1  0  0  0  0
  8 44  1  0  0  0  0
  8 12  1  0  0  0  0
  9  5  1  0  0  0  0
 10 24  1  6  0  0  0
 10 27  1  0  0  0  0
 10  1  1  0  0  0  0
 12 27  1  0  0  0  0
 13 16  1  0  0  0  0
 14 21  1  0  0  0  0
 15  8  2  0  0  0  0
 16 15  1  0  0  0  0
 16 20  2  0  0  0  0
 17  3  2  0  0  0  0
 18  2  1  0  0  0  0
 19 13  1  0  0  0  0
 19 23  2  0  0  0  0
 20 22  1  0  0  0  0
 21 17  1  0  0  0  0
 22 12  2  0  0  0  0
 25 18  1  0  0  0  0
 26  3  1  6  0  0  0
 26  9  1  0  0  0  0
 26  5  1  0  0  0  0
 29  2  1  6  0  0  0
 29 28  1  0  0  0  0
 31 34  1  0  0  0  0
 31 35  1  0  0  0  0
 32 33  2  0  0  0  0
 33 28  1  0  0  0  0
 34 29  1  0  0  0  0
 35 30  1  6  0  0  0
 35 32  1  0  0  0  0
 36 37  1  0  0  0  0
 37 38  2  6  0  0  0
 37 39  1  0  0  0  0
 39 43  1  0  0  0  0
 41 43  2  0  0  0  0
 42 43  1  0  0  0  0
 43 40  1  0  0  0  0
 45 47  2  0  0  0  0
 46 44  1  0  0  0  0
 47 46  1  0  0  0  0
 47 48  1  0  0  0  0
 48 50  1  0  0  0  0
 48 49  1  6  0  0  0
 50 53  1  6  0  0  0
 51 52  1  0  0  0  0
 52 50  1  0  0  0  0
 54 58  1  0  0  0  0
 55 53  1  1  0  0  0
 55 56  1  0  0  0  0
 55 57  1  0  0  0  0
 56 59  1  6  0  0  0
 56 54  1  0  0  0  0
 57 58  1  0  0  0  0
 60 59  1  0  0  0  0
 60 64  1  0  0  0  0
 61 60  1  0  0  0  0
 62 61  1  0  0  0  0
 62 60  1  0  0  0  0
 64 63  1  1  0  0  0
 64 66  1  0  0  0  0
 66 65  1  1  0  0  0
 66 67  1  0  0  0  0
M  END
>  <MODEL>
5

>  <REMARK>
 VINA RESULT:      -1.0      1.949      3.984
  Name = 
  15 active torsions:
  status: ('A' for Active; 'I' for Inactive)
    1  A    between atoms: C_6  and  C_8
    2  A    between atoms: N_10  and  C_28
    3  A    between atoms: C_11  and  C_55
    4  A    between atoms: N_13  and  P_35
    5  A    between atoms: N_13  and  P_61
    6  A    between atoms: C_14  and  P_61
    7  A    between atoms: C_18  and  C_32
    8  A    between atoms: C_18  and  N_34
    9  A    between atoms: C_19  and  C_28
   10  A    between atoms: C_20  and  N_34
   11  A    between atoms: C_29  and  C_32
   12  A    between atoms: C_33  and  C_43
   13  A    between atoms: C_33  and  C_47
   14  A    between atoms: O_45  and  C_47
   15  A    between atoms: C_47  and  C_55
                            x       y       z     vdW  Elec       q    Type
                         _______ _______ _______ _____ _____    ______ ____

>  <TORSDO>
F 15

$$$$
