=
 OpenBabel10222417083D

 25 28  0  0  1  0  0  0  0  0999 V2000
  189.8730  176.7220  142.8280 C   0  0  0  0  0  2  0  0  0  0  0  0
  188.4320  177.5330  141.2140 C   0  0  0  0  0  2  0  0  0  0  0  0
  188.6460  177.4820  142.6530 N   0  0  0  0  0  0  0  0  0  0  0  0
  189.7890  177.4650  140.5310 C   0  0  1  0  0  3  0  0  0  0  0  0
  190.7270  176.9320  141.5990 C   0  0  1  0  0  3  0  0  0  0  0  0
  191.7040  177.8900  141.8710 O   0  0  0  0  0  1  0  0  0  0  0  0
  189.5820  177.3750  138.1640 C   0  0  2  0  0  3  0  0  0  0  0  0
  190.5490  176.9360  137.1840 N   0  0  0  0  0  2  0  0  0  0  0  0
  191.5680  176.2950  137.9810 C   0  0  0  0  0  2  0  0  0  0  0  0
  190.9880  175.9230  139.2620 N   0  0  0  0  0  2  0  0  0  0  0  0
  189.7390  176.5660  139.3710 N   0  0  1  0  0  0  0  0  0  0  0  0
  186.2290  176.4040  137.0620 N   0  0  0  0  0  0  0  0  0  0  0  0
  187.7390  179.5790  136.8770 N   0  0  0  0  0  1  0  0  0  0  0  0
  186.2050  177.6880  136.7310 N   0  0  0  0  0  0  0  0  0  0  0  0
  188.1970  177.2400  137.6120 C   0  0  0  0  0  0  0  0  0  0  0  0
  187.3940  178.2100  137.0630 C   0  0  0  0  0  0  0  0  0  0  0  0
  187.4270  176.0950  137.6060 C   0  0  0  0  0  2  0  0  0  0  0  0
  187.5740  176.6850  143.2300 C   0  0  0  0  0  2  0  0  0  0  0  0
  185.6530  178.8650  146.3970 C   0  0  0  0  0  3  0  0  0  0  0  0
  187.4540  177.4570  145.6020 C   0  0  0  0  0  3  0  0  0  0  0  0
  185.0820  178.8550  145.1220 C   0  0  0  0  0  3  0  0  0  0  0  0
  186.8870  177.4440  144.3220 C   0  0  0  0  0  0  0  0  0  0  0  0
  184.9310  178.1550  142.4980 Cl  0  0  0  0  0  0  0  0  0  0  0  0
  186.8380  178.1650  146.6370 C   0  0  0  0  0  3  0  0  0  0  0  0
  185.6930  178.1480  144.0820 C   0  0  0  0  0  0  0  0  0  0  0  0
  2  3  1  0  0  0  0
  3  1  1  0  0  0  0
  3 18  1  0  0  0  0
  4  2  1  1  0  0  0
  4  5  1  0  0  0  0
  5  6  1  1  0  0  0
  5  1  1  0  0  0  0
  7 15  1  6  0  0  0
  7 11  1  0  0  0  0
  8  9  1  0  0  0  0
  8  7  1  0  0  0  0
  9 10  1  0  0  0  0
 11 10  1  6  0  0  0
 11  4  1  0  0  0  0
 12 17  1  0  0  0  0
 13 16  1  0  0  0  0
 14 12  2  0  0  0  0
 14 16  1  0  0  0  0
 16 15  2  0  0  0  0
 17 15  1  0  0  0  0
 18 22  1  0  0  0  0
 19 24  1  0  0  0  0
 20 24  2  0  0  0  0
 21 19  2  0  0  0  0
 22 20  1  0  0  0  0
 23 25  1  0  0  0  0
 25 22  2  0  0  0  0
 25 21  1  0  0  0  0
M  END
>  <MODEL>
1

>  <REMARK>
 VINA RESULT:      -8.0      0.000      0.000
  Name = 
  4 active torsions:
  status: ('A' for Active; 'I' for Inactive)
    1  A    between atoms: C_2  and  C_18
    2  A    between atoms: N_6  and  C_11
    3  A    between atoms: C_11  and  C_19
    4  A    between atoms: C_12  and  N_15
                            x       y       z     vdW  Elec       q    Type
                         _______ _______ _______ _____ _____    ______ ____

>  <TORSDO>
F 4

$$$$
=
 OpenBabel10222417083D

 25 28  0  0  1  0  0  0  0  0999 V2000
  190.1530  176.6330  142.6650 C   0  0  0  0  0  2  0  0  0  0  0  0
  188.6010  177.4320  141.1500 C   0  0  0  0  0  2  0  0  0  0  0  0
  188.9090  177.3800  142.5720 N   0  0  0  0  0  0  0  0  0  0  0  0
  189.9120  177.3820  140.3810 C   0  0  1  0  0  3  0  0  0  0  0  0
  190.9230  176.8570  141.3830 C   0  0  1  0  0  3  0  0  0  0  0  0
  191.9040  177.8250  141.5950 O   0  0  0  0  0  1  0  0  0  0  0  0
  189.5890  177.2980  138.0260 C   0  0  2  0  0  3  0  0  0  0  0  0
  190.5040  176.8520  136.9990 N   0  0  0  0  0  2  0  0  0  0  0  0
  191.5530  176.1990  137.7460 C   0  0  0  0  0  2  0  0  0  0  0  0
  191.0320  175.8300  139.0530 N   0  0  0  0  0  2  0  0  0  0  0  0
  189.7970  176.4860  139.2230 N   0  0  1  0  0  0  0  0  0  0  0  0
  186.1840  176.3580  137.0660 N   0  0  0  0  0  0  0  0  0  0  0  0
  187.6850  179.5390  136.9010 N   0  0  0  0  0  1  0  0  0  0  0  0
  186.1440  177.6510  136.7770 N   0  0  0  0  0  0  0  0  0  0  0  0
  188.1780  177.1790  137.5410 C   0  0  0  0  0  0  0  0  0  0  0  0
  187.3490  178.1640  137.0630 C   0  0  0  0  0  0  0  0  0  0  0  0
  187.4090  176.0340  137.5400 C   0  0  0  0  0  2  0  0  0  0  0  0
  187.8850  176.5690  143.2140 C   0  0  0  0  0  2  0  0  0  0  0  0
  185.3290  179.0030  145.6660 C   0  0  0  0  0  3  0  0  0  0  0  0
  185.8380  177.9620  143.5420 C   0  0  0  0  0  3  0  0  0  0  0  0
  186.4980  178.4660  146.2100 C   0  0  0  0  0  3  0  0  0  0  0  0
  187.0100  177.4200  144.0810 C   0  0  0  0  0  0  0  0  0  0  0  0
  188.8070  177.0290  146.1500 Cl  0  0  0  0  0  0  0  0  0  0  0  0
  184.9990  178.7530  144.3310 C   0  0  0  0  0  3  0  0  0  0  0  0
  187.3410  177.6740  145.4240 C   0  0  0  0  0  0  0  0  0  0  0  0
  2  3  1  0  0  0  0
  3  1  1  0  0  0  0
  3 18  1  0  0  0  0
  4  2  1  1  0  0  0
  4  5  1  0  0  0  0
  5  6  1  1  0  0  0
  5  1  1  0  0  0  0
  7 15  1  6  0  0  0
  7 11  1  0  0  0  0
  8  9  1  0  0  0  0
  8  7  1  0  0  0  0
  9 10  1  0  0  0  0
 11 10  1  6  0  0  0
 11  4  1  0  0  0  0
 12 17  1  0  0  0  0
 13 16  1  0  0  0  0
 14 16  1  0  0  0  0
 14 12  2  0  0  0  0
 16 15  2  0  0  0  0
 17 15  1  0  0  0  0
 18 22  1  0  0  0  0
 19 21  1  0  0  0  0
 20 22  2  0  0  0  0
 20 24  1  0  0  0  0
 22 25  1  0  0  0  0
 24 19  2  0  0  0  0
 25 23  1  0  0  0  0
 25 21  2  0  0  0  0
M  END
>  <MODEL>
2

>  <REMARK>
 VINA RESULT:      -8.0      1.139      1.489
  Name = 
  4 active torsions:
  status: ('A' for Active; 'I' for Inactive)
    1  A    between atoms: C_2  and  C_18
    2  A    between atoms: N_6  and  C_11
    3  A    between atoms: C_11  and  C_19
    4  A    between atoms: C_12  and  N_15
                            x       y       z     vdW  Elec       q    Type
                         _______ _______ _______ _____ _____    ______ ____

>  <TORSDO>
F 4

$$$$
=
 OpenBabel10222417083D

 25 28  0  0  1  0  0  0  0  0999 V2000
  190.0690  176.6140  142.8390 C   0  0  0  0  0  2  0  0  0  0  0  0
  188.5020  177.4930  141.3850 C   0  0  0  0  0  2  0  0  0  0  0  0
  188.8370  177.3840  142.7980 N   0  0  0  0  0  0  0  0  0  0  0  0
  189.7970  177.4480  140.5880 C   0  0  1  0  0  3  0  0  0  0  0  0
  190.8180  176.8700  141.5500 C   0  0  1  0  0  3  0  0  0  0  0  0
  191.8200  177.8120  141.7770 O   0  0  0  0  0  1  0  0  0  0  0  0
  189.3020  177.4450  138.2620 C   0  0  2  0  0  3  0  0  0  0  0  0
  190.1590  177.0950  137.1520 N   0  0  0  0  0  2  0  0  0  0  0  0
  191.2960  176.4730  137.7890 C   0  0  0  0  0  2  0  0  0  0  0  0
  190.8950  176.0200  139.1120 N   0  0  0  0  0  2  0  0  0  0  0  0
  189.6430  176.5970  139.4020 N   0  0  1  0  0  0  0  0  0  0  0  0
  185.7360  177.6760  137.4710 N   0  0  0  0  0  0  0  0  0  0  0  0
  187.8880  174.9280  137.0060 N   0  0  0  0  0  1  0  0  0  0  0  0
  185.9670  176.4310  137.0790 N   0  0  0  0  0  0  0  0  0  0  0  0
  187.8670  177.2660  137.8760 C   0  0  0  0  0  0  0  0  0  0  0  0
  187.2600  176.1690  137.3160 C   0  0  0  0  0  0  0  0  0  0  0  0
  186.8740  178.2200  137.9580 C   0  0  0  0  0  2  0  0  0  0  0  0
  187.8110  176.5680  143.4310 C   0  0  0  0  0  2  0  0  0  0  0  0
  185.3050  178.9660  145.9690 C   0  0  0  0  0  3  0  0  0  0  0  0
  185.7580  177.9340  143.8280 C   0  0  0  0  0  3  0  0  0  0  0  0
  186.4990  178.4440  146.4730 C   0  0  0  0  0  3  0  0  0  0  0  0
  186.9550  177.4070  144.3270 C   0  0  0  0  0  0  0  0  0  0  0  0
  188.8230  177.0380  146.3360 Cl  0  0  0  0  0  0  0  0  0  0  0  0
  184.9350  178.7130  144.6450 C   0  0  0  0  0  3  0  0  0  0  0  0
  187.3260  177.6640  145.6590 C   0  0  0  0  0  0  0  0  0  0  0  0
  2  3  1  0  0  0  0
  3  1  1  0  0  0  0
  3 18  1  0  0  0  0
  4  2  1  1  0  0  0
  4  5  1  0  0  0  0
  5  6  1  1  0  0  0
  5  1  1  0  0  0  0
  7 15  1  6  0  0  0
  7 11  1  0  0  0  0
  8  9  1  0  0  0  0
  8  7  1  0  0  0  0
  9 10  1  0  0  0  0
 11 10  1  6  0  0  0
 11  4  1  0  0  0  0
 12 17  1  0  0  0  0
 13 16  1  0  0  0  0
 14 16  1  0  0  0  0
 14 12  2  0  0  0  0
 15 17  1  0  0  0  0
 16 15  2  0  0  0  0
 18 22  1  0  0  0  0
 19 21  1  0  0  0  0
 20 22  2  0  0  0  0
 20 24  1  0  0  0  0
 22 25  1  0  0  0  0
 24 19  2  0  0  0  0
 25 23  1  0  0  0  0
 25 21  2  0  0  0  0
M  END
>  <MODEL>
3

>  <REMARK>
 VINA RESULT:      -7.9      1.313      1.903
  Name = 
  4 active torsions:
  status: ('A' for Active; 'I' for Inactive)
    1  A    between atoms: C_2  and  C_18
    2  A    between atoms: N_6  and  C_11
    3  A    between atoms: C_11  and  C_19
    4  A    between atoms: C_12  and  N_15
                            x       y       z     vdW  Elec       q    Type
                         _______ _______ _______ _____ _____    ______ ____

>  <TORSDO>
F 4

$$$$
=
 OpenBabel10222417083D

 25 28  0  0  1  0  0  0  0  0999 V2000
  189.2400  176.0950  142.7890 C   0  0  0  0  0  2  0  0  0  0  0  0
  188.9410  178.2800  142.0990 C   0  0  0  0  0  2  0  0  0  0  0  0
  188.6410  177.3590  143.1860 N   0  0  0  0  0  0  0  0  0  0  0  0
  190.2420  177.8360  141.4490 C   0  0  1  0  0  3  0  0  0  0  0  0
  190.4290  176.4020  141.9080 C   0  0  1  0  0  3  0  0  0  0  0  0
  191.5990  176.3090  142.6610 O   0  0  0  0  0  1  0  0  0  0  0  0
  190.1410  176.5600  139.4450 C   0  0  2  0  0  3  0  0  0  0  0  0
  189.0550  176.4410  138.4980 N   0  0  0  0  0  2  0  0  0  0  0  0
  188.1500  177.4950  138.8910 C   0  0  0  0  0  2  0  0  0  0  0  0
  188.8920  178.4790  139.6630 N   0  0  0  0  0  2  0  0  0  0  0  0
  190.1430  177.9170  139.9860 N   0  0  1  0  0  0  0  0  0  0  0  0
  193.5630  176.3430  138.1640 N   0  0  0  0  0  0  0  0  0  0  0  0
  190.8780  174.1460  137.5630 N   0  0  0  0  0  1  0  0  0  0  0  0
  193.0480  175.2600  137.5990 N   0  0  0  0  0  0  0  0  0  0  0  0
  191.4420  176.2540  138.7710 C   0  0  0  0  0  0  0  0  0  0  0  0
  191.7590  175.1910  137.9610 C   0  0  0  0  0  0  0  0  0  0  0  0
  192.6130  176.9730  138.8920 C   0  0  0  0  0  2  0  0  0  0  0  0
  187.2010  177.1530  143.2040 C   0  0  0  0  0  2  0  0  0  0  0  0
  185.5630  178.6850  146.8700 C   0  0  0  0  0  3  0  0  0  0  0  0
  187.3520  177.5970  145.6570 C   0  0  0  0  0  3  0  0  0  0  0  0
  184.8190  178.7760  145.6920 C   0  0  0  0  0  3  0  0  0  0  0  0
  186.6120  177.6860  144.4720 C   0  0  0  0  0  0  0  0  0  0  0  0
  184.3580  178.4070  143.0370 Cl  0  0  0  0  0  0  0  0  0  0  0  0
  186.8290  178.0940  146.8530 C   0  0  0  0  0  3  0  0  0  0  0  0
  185.3370  178.2800  144.4910 C   0  0  0  0  0  0  0  0  0  0  0  0
  1  3  1  0  0  0  0
  2  3  1  0  0  0  0
  3 18  1  0  0  0  0
  4  5  1  0  0  0  0
  4  2  1  1  0  0  0
  5  6  1  1  0  0  0
  5  1  1  0  0  0  0
  7 15  1  6  0  0  0
  7 11  1  0  0  0  0
  8  9  1  0  0  0  0
  8  7  1  0  0  0  0
  9 10  1  0  0  0  0
 11 10  1  1  0  0  0
 11  4  1  0  0  0  0
 12 17  1  0  0  0  0
 13 16  1  0  0  0  0
 14 16  1  0  0  0  0
 14 12  2  0  0  0  0
 15 17  1  0  0  0  0
 16 15  2  0  0  0  0
 18 22  1  0  0  0  0
 20 24  2  0  0  0  0
 21 19  2  0  0  0  0
 22 25  2  0  0  0  0
 22 20  1  0  0  0  0
 23 25  1  0  0  0  0
 24 19  1  0  0  0  0
 25 21  1  0  0  0  0
M  END
>  <MODEL>
4

>  <REMARK>
 VINA RESULT:      -7.7      1.630      3.246
  Name = 
  4 active torsions:
  status: ('A' for Active; 'I' for Inactive)
    1  A    between atoms: C_2  and  C_18
    2  A    between atoms: N_6  and  C_11
    3  A    between atoms: C_11  and  C_19
    4  A    between atoms: C_12  and  N_15
                            x       y       z     vdW  Elec       q    Type
                         _______ _______ _______ _____ _____    ______ ____

>  <TORSDO>
F 4

$$$$
=
 OpenBabel10222417083D

 25 28  0  0  1  0  0  0  0  0999 V2000
  188.0830  178.6440  141.9350 C   0  0  0  0  0  2  0  0  0  0  0  0
  189.3060  176.8820  141.0750 C   0  0  0  0  0  2  0  0  0  0  0  0
  188.6470  177.3510  142.2860 N   0  0  0  0  0  0  0  0  0  0  0  0
  188.5760  177.4750  139.8800 C   0  0  1  0  0  3  0  0  0  0  0  0
  187.7770  178.6300  140.4550 C   0  0  1  0  0  3  0  0  0  0  0  0
  186.4170  178.3870  140.2650 O   0  0  0  0  0  1  0  0  0  0  0  0
  189.5480  176.9860  137.7650 C   0  0  2  0  0  3  0  0  0  0  0  0
  189.4310  177.7150  136.5220 N   0  0  0  0  0  2  0  0  0  0  0  0
  188.8240  178.9630  136.9200 C   0  0  0  0  0  2  0  0  0  0  0  0
  189.0560  179.1580  138.3420 N   0  0  0  0  0  2  0  0  0  0  0  0
  189.5350  177.9420  138.8700 N   0  0  1  0  0  0  0  0  0  0  0  0
  192.9310  175.6090  138.0040 N   0  0  0  0  0  0  0  0  0  0  0  0
  189.9440  173.9080  137.2360 N   0  0  0  0  0  1  0  0  0  0  0  0
  192.2660  174.5050  137.6930 N   0  0  0  0  0  0  0  0  0  0  0  0
  190.8120  176.1850  137.7710 C   0  0  0  0  0  0  0  0  0  0  0  0
  190.9750  174.8390  137.5510 C   0  0  0  0  0  0  0  0  0  0  0  0
  192.0750  176.6540  138.0650 C   0  0  0  0  0  2  0  0  0  0  0  0
  189.6800  177.5990  143.2810 C   0  0  0  0  0  2  0  0  0  0  0  0
  188.0030  177.2610  147.2230 C   0  0  0  0  0  3  0  0  0  0  0  0
  187.7350  177.6350  144.8480 C   0  0  0  0  0  3  0  0  0  0  0  0
  189.3800  177.1120  147.0450 C   0  0  0  0  0  3  0  0  0  0  0  0
  189.1140  177.4850  144.6620 C   0  0  0  0  0  0  0  0  0  0  0  0
  191.6810  177.0380  145.5960 Cl  0  0  0  0  0  0  0  0  0  0  0  0
  187.1800  177.5240  146.1250 C   0  0  0  0  0  3  0  0  0  0  0  0
  189.9410  177.2220  145.7690 C   0  0  0  0  0  0  0  0  0  0  0  0
  1  3  1  0  0  0  0
  2  3  1  0  0  0  0
  3 18  1  0  0  0  0
  4  5  1  0  0  0  0
  4  2  1  1  0  0  0
  5  6  1  1  0  0  0
  5  1  1  0  0  0  0
  7 15  1  6  0  0  0
  7 11  1  0  0  0  0
  8  9  1  0  0  0  0
  8  7  1  0  0  0  0
  9 10  1  0  0  0  0
 11 10  1  6  0  0  0
 11  4  1  0  0  0  0
 12 17  1  0  0  0  0
 13 16  1  0  0  0  0
 14 12  2  0  0  0  0
 15 17  1  0  0  0  0
 16 14  1  0  0  0  0
 16 15  2  0  0  0  0
 18 22  1  0  0  0  0
 20 24  1  0  0  0  0
 21 19  1  0  0  0  0
 22 20  2  0  0  0  0
 22 25  1  0  0  0  0
 23 25  1  0  0  0  0
 24 19  2  0  0  0  0
 25 21  2  0  0  0  0
M  END
>  <MODEL>
5

>  <REMARK>
 VINA RESULT:      -7.6      2.546      4.000
  Name = 
  4 active torsions:
  status: ('A' for Active; 'I' for Inactive)
    1  A    between atoms: C_2  and  C_18
    2  A    between atoms: N_6  and  C_11
    3  A    between atoms: C_11  and  C_19
    4  A    between atoms: C_12  and  N_15
                            x       y       z     vdW  Elec       q    Type
                         _______ _______ _______ _____ _____    ______ ____

>  <TORSDO>
F 4

$$$$
=
 OpenBabel10222417083D

 25 28  0  0  1  0  0  0  0  0999 V2000
  190.2100  177.0520  141.3190 C   0  0  0  0  0  2  0  0  0  0  0  0
  187.9770  177.5010  141.7090 C   0  0  0  0  0  2  0  0  0  0  0  0
  188.9220  177.1590  140.6550 N   0  0  0  0  0  0  0  0  0  0  0  0
  188.4950  176.9190  143.0150 C   0  0  1  0  0  3  0  0  0  0  0  0
  189.9600  176.6280  142.7490 C   0  0  1  0  0  3  0  0  0  0  0  0
  190.1860  175.2570  142.8720 O   0  0  0  0  0  1  0  0  0  0  0  0
  187.3550  177.3560  145.0550 C   0  0  2  0  0  3  0  0  0  0  0  0
  187.8940  177.4670  146.3920 N   0  0  0  0  0  2  0  0  0  0  0  0
  189.3200  177.5360  146.1730 C   0  0  0  0  0  2  0  0  0  0  0  0
  189.5580  177.9650  144.8040 N   0  0  0  0  0  2  0  0  0  0  0  0
  188.3350  177.8850  144.1090 N   0  0  1  0  0  0  0  0  0  0  0  0
  184.1840  178.9630  144.1790 N   0  0  0  0  0  0  0  0  0  0  0  0
  185.7680  178.8590  147.3220 N   0  0  0  0  0  1  0  0  0  0  0  0
  184.2360  179.2680  145.4680 N   0  0  0  0  0  2  0  0  0  0  0  0
  186.0650  178.1110  144.9610 C   0  0  0  0  0  0  0  0  0  0  0  0
  185.3720  178.7530  145.9580 C   0  0  0  0  0  0  0  0  0  0  0  0
  185.2820  178.2530  143.8340 C   0  0  0  0  0  3  0  0  0  0  0  0
  189.0080  178.2990  139.7540 C   0  0  0  0  0  2  0  0  0  0  0  0
  188.4520  177.0230  135.6880 C   0  0  0  0  0  3  0  0  0  0  0  0
  189.9050  177.5040  137.5630 C   0  0  0  0  0  3  0  0  0  0  0  0
  187.3420  177.3810  136.4560 C   0  0  0  0  0  3  0  0  0  0  0  0
  188.7960  177.8640  138.3380 C   0  0  0  0  0  0  0  0  0  0  0  0
  186.0810  178.2530  138.7030 Cl  0  0  0  0  0  0  0  0  0  0  0  0
  189.7340  177.0850  136.2410 C   0  0  0  0  0  3  0  0  0  0  0  0
  187.5070  177.8010  137.7800 C   0  0  0  0  0  0  0  0  0  0  0  0
  1  5  1  0  0  0  0
  3  1  1  0  0  0  0
  3  2  1  0  0  0  0
  4  2  1  6  0  0  0
  4 11  1  0  0  0  0
  5  6  1  6  0  0  0
  5  4  1  0  0  0  0
  7 15  1  1  0  0  0
  7  8  1  0  0  0  0
  9  8  1  0  0  0  0
 10  9  1  0  0  0  0
 11 10  1  1  0  0  0
 11  7  1  0  0  0  0
 12 14  1  0  0  0  0
 14 16  1  0  0  0  0
 15 16  2  0  0  0  0
 16 13  1  0  0  0  0
 17 12  2  0  0  0  0
 17 15  1  0  0  0  0
 18  3  1  0  0  0  0
 19 24  2  0  0  0  0
 19 21  1  0  0  0  0
 20 22  2  0  0  0  0
 21 25  2  0  0  0  0
 22 18  1  0  0  0  0
 24 20  1  0  0  0  0
 25 22  1  0  0  0  0
 25 23  1  0  0  0  0
M  END
>  <MODEL>
6

>  <REMARK>
 VINA RESULT:      -7.2      2.516      7.125
  Name = 
  4 active torsions:
  status: ('A' for Active; 'I' for Inactive)
    1  A    between atoms: C_2  and  C_18
    2  A    between atoms: N_6  and  C_11
    3  A    between atoms: C_11  and  C_19
    4  A    between atoms: C_12  and  N_15
                            x       y       z     vdW  Elec       q    Type
                         _______ _______ _______ _____ _____    ______ ____

>  <TORSDO>
F 4

$$$$
=
 OpenBabel10222417083D

 25 28  0  0  1  0  0  0  0  0999 V2000
  190.2770  177.1390  141.5010 C   0  0  0  0  0  2  0  0  0  0  0  0
  188.2160  177.6000  142.4390 C   0  0  0  0  0  2  0  0  0  0  0  0
  188.8770  177.3430  141.1670 N   0  0  0  0  0  0  0  0  0  0  0  0
  188.9920  176.8770  143.5290 C   0  0  1  0  0  3  0  0  0  0  0  0
  190.3420  176.5790  142.9040 C   0  0  1  0  0  3  0  0  0  0  0  0
  190.5250  175.1980  142.8430 O   0  0  0  0  0  1  0  0  0  0  0  0
  188.3990  177.1160  145.8200 C   0  0  2  0  0  3  0  0  0  0  0  0
  189.2530  177.0930  146.9860 N   0  0  0  0  0  2  0  0  0  0  0  0
  190.5830  177.1780  146.4300 C   0  0  0  0  0  2  0  0  0  0  0  0
  190.4900  177.7390  145.0910 N   0  0  0  0  0  2  0  0  0  0  0  0
  189.1320  177.7310  144.7150 N   0  0  1  0  0  0  0  0  0  0  0  0
  185.1250  178.7490  145.9380 N   0  0  0  0  0  0  0  0  0  0  0  0
  187.5820  178.6270  148.4580 N   0  0  0  0  0  1  0  0  0  0  0  0
  185.5650  179.0510  147.1520 N   0  0  0  0  0  2  0  0  0  0  0  0
  187.1470  177.8810  146.1180 C   0  0  0  0  0  0  0  0  0  0  0  0
  186.7930  178.5270  147.2770 C   0  0  0  0  0  0  0  0  0  0  0  0
  186.0620  178.0310  145.2790 C   0  0  0  0  0  3  0  0  0  0  0  0
  188.8070  178.5650  140.3800 C   0  0  0  0  0  2  0  0  0  0  0  0
  187.7130  177.6570  136.3240 C   0  0  0  0  0  3  0  0  0  0  0  0
  189.4020  177.9630  138.0300 C   0  0  0  0  0  3  0  0  0  0  0  0
  186.7170  177.9510  137.2580 C   0  0  0  0  0  3  0  0  0  0  0  0
  188.4080  178.2580  138.9710 C   0  0  0  0  0  0  0  0  0  0  0  0
  185.7680  178.6270  139.7160 Cl  0  0  0  0  0  0  0  0  0  0  0  0
  189.0570  177.6640  136.7100 C   0  0  0  0  0  3  0  0  0  0  0  0
  187.0570  178.2520  138.5810 C   0  0  0  0  0  0  0  0  0  0  0  0
  1  5  1  0  0  0  0
  3  1  1  0  0  0  0
  3  2  1  0  0  0  0
  4  2  1  6  0  0  0
  4 11  1  0  0  0  0
  5  6  1  6  0  0  0
  5  4  1  0  0  0  0
  7 15  1  1  0  0  0
  7  8  1  0  0  0  0
  9  8  1  0  0  0  0
 10  9  1  0  0  0  0
 11 10  1  1  0  0  0
 11  7  1  0  0  0  0
 12 14  1  0  0  0  0
 14 16  1  0  0  0  0
 15 16  2  0  0  0  0
 16 13  1  0  0  0  0
 17 12  2  0  0  0  0
 17 15  1  0  0  0  0
 18  3  1  0  0  0  0
 19 24  2  0  0  0  0
 19 21  1  0  0  0  0
 20 22  2  0  0  0  0
 21 25  2  0  0  0  0
 22 18  1  0  0  0  0
 24 20  1  0  0  0  0
 25 22  1  0  0  0  0
 25 23  1  0  0  0  0
M  END
>  <MODEL>
7

>  <REMARK>
 VINA RESULT:      -7.2      2.647      7.277
  Name = 
  4 active torsions:
  status: ('A' for Active; 'I' for Inactive)
    1  A    between atoms: C_2  and  C_18
    2  A    between atoms: N_6  and  C_11
    3  A    between atoms: C_11  and  C_19
    4  A    between atoms: C_12  and  N_15
                            x       y       z     vdW  Elec       q    Type
                         _______ _______ _______ _____ _____    ______ ____

>  <TORSDO>
F 4

$$$$
=
 OpenBabel10222417083D

 25 28  0  0  1  0  0  0  0  0999 V2000
  190.4220  176.9690  141.3290 C   0  0  0  0  0  2  0  0  0  0  0  0
  188.1850  177.5160  141.5250 C   0  0  0  0  0  2  0  0  0  0  0  0
  189.2010  177.1280  140.5560 N   0  0  0  0  0  0  0  0  0  0  0  0
  188.5640  176.9190  142.8710 C   0  0  1  0  0  3  0  0  0  0  0  0
  190.0320  176.5630  142.7330 C   0  0  1  0  0  3  0  0  0  0  0  0
  190.1870  175.1850  142.8760 O   0  0  0  0  0  1  0  0  0  0  0  0
  187.3110  177.3880  144.8370 C   0  0  2  0  0  3  0  0  0  0  0  0
  187.7720  177.5030  146.2020 N   0  0  0  0  0  2  0  0  0  0  0  0
  189.2090  177.5520  146.0680 C   0  0  0  0  0  2  0  0  0  0  0  0
  189.5330  177.9660  144.7120 N   0  0  0  0  0  2  0  0  0  0  0  0
  188.3520  177.8950  143.9470 N   0  0  1  0  0  0  0  0  0  0  0  0
  184.2010  179.0000  143.7730 N   0  0  0  0  0  0  0  0  0  0  0  0
  185.6800  179.0340  146.9680 N   0  0  0  0  0  1  0  0  0  0  0  0
  184.2160  179.3710  145.0460 N   0  0  0  0  0  2  0  0  0  0  0  0
  186.0390  178.1580  144.6610 C   0  0  0  0  0  0  0  0  0  0  0  0
  185.3270  178.8630  145.5990 C   0  0  0  0  0  0  0  0  0  0  0  0
  185.2960  178.2540  143.5020 C   0  0  0  0  0  3  0  0  0  0  0  0
  189.4140  178.2580  139.6650 C   0  0  0  0  0  2  0  0  0  0  0  0
  188.0720  177.3380  135.6870 C   0  0  0  0  0  3  0  0  0  0  0  0
  187.6730  178.2950  137.8740 C   0  0  0  0  0  3  0  0  0  0  0  0
  189.3580  176.9640  136.0840 C   0  0  0  0  0  3  0  0  0  0  0  0
  188.9610  177.9240  138.2780 C   0  0  0  0  0  0  0  0  0  0  0  0
  191.4290  176.7530  137.8340 Cl  0  0  0  0  0  0  0  0  0  0  0  0
  187.2290  178.0030  136.5820 C   0  0  0  0  0  3  0  0  0  0  0  0
  189.8080  177.2540  137.3770 C   0  0  0  0  0  0  0  0  0  0  0  0
  1  5  1  0  0  0  0
  3  1  1  0  0  0  0
  3  2  1  0  0  0  0
  4  2  1  6  0  0  0
  4 11  1  0  0  0  0
  5  4  1  0  0  0  0
  5  6  1  6  0  0  0
  7 15  1  1  0  0  0
  7  8  1  0  0  0  0
  9  8  1  0  0  0  0
 10  9  1  0  0  0  0
 11 10  1  1  0  0  0
 11  7  1  0  0  0  0
 12 14  1  0  0  0  0
 14 16  1  0  0  0  0
 15 16  2  0  0  0  0
 16 13  1  0  0  0  0
 17 12  2  0  0  0  0
 17 15  1  0  0  0  0
 18  3  1  0  0  0  0
 19 21  2  0  0  0  0
 19 24  1  0  0  0  0
 20 22  1  0  0  0  0
 21 25  1  0  0  0  0
 22 18  1  0  0  0  0
 24 20  2  0  0  0  0
 25 23  1  0  0  0  0
 25 22  2  0  0  0  0
M  END
>  <MODEL>
8

>  <REMARK>
 VINA RESULT:      -7.2      2.818      7.186
  Name = 
  4 active torsions:
  status: ('A' for Active; 'I' for Inactive)
    1  A    between atoms: C_2  and  C_18
    2  A    between atoms: N_6  and  C_11
    3  A    between atoms: C_11  and  C_19
    4  A    between atoms: C_12  and  N_15
                            x       y       z     vdW  Elec       q    Type
                         _______ _______ _______ _____ _____    ______ ____

>  <TORSDO>
F 4

$$$$
=
 OpenBabel10222417083D

 25 28  0  0  1  0  0  0  0  0999 V2000
  190.4010  176.8170  141.3590 C   0  0  0  0  0  2  0  0  0  0  0  0
  188.3380  177.5070  142.1410 C   0  0  0  0  0  2  0  0  0  0  0  0
  189.0410  177.1040  140.9310 N   0  0  0  0  0  0  0  0  0  0  0  0
  188.9940  176.8100  143.3230 C   0  0  1  0  0  3  0  0  0  0  0  0
  190.3460  176.3610  142.8000 C   0  0  1  0  0  3  0  0  0  0  0  0
  190.4180  174.9690  142.8480 O   0  0  0  0  0  1  0  0  0  0  0  0
  188.4630  177.1670  145.6130 C   0  0  2  0  0  3  0  0  0  0  0  0
  189.3520  177.2400  146.7510 N   0  0  0  0  0  2  0  0  0  0  0  0
  190.6620  177.3330  146.1480 C   0  0  0  0  0  2  0  0  0  0  0  0
  190.5090  177.8100  144.7820 N   0  0  0  0  0  2  0  0  0  0  0  0
  189.1420  177.7370  144.4520 N   0  0  1  0  0  0  0  0  0  0  0  0
  185.2090  178.8420  145.6740 N   0  0  0  0  0  0  0  0  0  0  0  0
  187.4170  178.2910  148.3620 N   0  0  0  0  0  1  0  0  0  0  0  0
  185.5360  178.9510  146.9540 N   0  0  0  0  0  2  0  0  0  0  0  0
  187.1970  177.9090  145.9060 C   0  0  0  0  0  0  0  0  0  0  0  0
  186.7410  178.3850  147.1110 C   0  0  0  0  0  0  0  0  0  0  0  0
  186.1970  178.2070  145.0040 C   0  0  0  0  0  3  0  0  0  0  0  0
  189.1140  178.2660  140.0570 C   0  0  0  0  0  2  0  0  0  0  0  0
  187.1250  177.4880  136.3280 C   0  0  0  0  0  3  0  0  0  0  0  0
  187.0660  178.2380  138.6270 C   0  0  0  0  0  3  0  0  0  0  0  0
  188.4930  177.2300  136.4460 C   0  0  0  0  0  3  0  0  0  0  0  0
  188.4360  177.9820  138.7530 C   0  0  0  0  0  0  0  0  0  0  0  0
  190.8730  177.1250  137.7590 Cl  0  0  0  0  0  0  0  0  0  0  0  0
  186.4110  177.9900  137.4190 C   0  0  0  0  0  3  0  0  0  0  0  0
  189.1540  177.4750  137.6540 C   0  0  0  0  0  0  0  0  0  0  0  0
  1  5  1  0  0  0  0
  3  1  1  0  0  0  0
  3  2  1  0  0  0  0
  4  2  1  6  0  0  0
  4 11  1  0  0  0  0
  5  6  1  6  0  0  0
  5  4  1  0  0  0  0
  7 15  1  1  0  0  0
  7  8  1  0  0  0  0
  9  8  1  0  0  0  0
 10  9  1  0  0  0  0
 11 10  1  1  0  0  0
 11  7  1  0  0  0  0
 12 14  1  0  0  0  0
 14 16  1  0  0  0  0
 15 16  2  0  0  0  0
 16 13  1  0  0  0  0
 17 12  2  0  0  0  0
 17 15  1  0  0  0  0
 18  3  1  0  0  0  0
 19 21  2  0  0  0  0
 19 24  1  0  0  0  0
 20 22  1  0  0  0  0
 21 25  1  0  0  0  0
 22 18  1  0  0  0  0
 24 20  2  0  0  0  0
 25 23  1  0  0  0  0
 25 22  2  0  0  0  0
M  END
>  <MODEL>
9

>  <REMARK>
 VINA RESULT:      -7.1      2.939      7.357
  Name = 
  4 active torsions:
  status: ('A' for Active; 'I' for Inactive)
    1  A    between atoms: C_2  and  C_18
    2  A    between atoms: N_6  and  C_11
    3  A    between atoms: C_11  and  C_19
    4  A    between atoms: C_12  and  N_15
                            x       y       z     vdW  Elec       q    Type
                         _______ _______ _______ _____ _____    ______ ____

>  <TORSDO>
F 4

$$$$
