=
 OpenBabel10222419353D

 39 46  0  0  1  0  0  0  0  0999 V2000
  187.2420  177.9790  138.9250 C   0  0  1  0  0  3  0  0  0  0  0  0
  188.1420  178.0960  137.7860 C   0  0  2  0  0  3  0  0  0  0  0  0
  188.3890  176.7750  137.2250 C   0  0  2  0  0  0  0  0  0  0  0  0
  188.2200  176.9050  138.6810 N   0  0  2  0  0  0  0  0  0  0  0  0
  189.8020  176.4730  136.8110 C   0  0  0  0  0  0  0  0  0  0  0  0
  193.2450  176.4570  137.9460 N   0  0  0  0  0  0  0  0  0  0  0  0
  194.4850  175.3180  134.7530 C   0  0  0  0  0  1  0  0  0  0  0  0
  192.0910  176.3660  137.2660 C   0  0  0  0  0  0  0  0  0  0  0  0
  190.8370  176.6370  137.6970 N   0  0  0  0  0  0  0  0  0  0  0  0
  194.2410  176.0940  137.1410 N   0  0  0  0  0  0  0  0  0  0  0  0
  192.3410  175.9440  136.0060 C   0  0  0  0  0  0  0  0  0  0  0  0
  190.0750  176.0440  135.4830 C   0  0  0  0  0  3  0  0  0  0  0  0
  193.4140  176.8740  139.3270 C   0  0  0  0  0  1  0  0  0  0  0  0
  193.7040  175.7750  135.9330 C   0  0  0  0  0  0  0  0  0  0  0  0
  191.3590  175.7770  135.0900 N   0  0  0  0  0  0  0  0  0  0  0  0
  187.2190  176.0520  136.5630 C   0  0  0  0  0  2  0  0  0  0  0  0
  186.0400  172.7440  137.6000 O   0  0  0  0  0  0  0  0  0  0  0  0
  184.6780  174.6650  137.2860 C   0  0  0  0  0  1  0  0  0  0  0  0
  185.9940  173.9650  137.2950 C   0  0  0  0  0  0  0  0  0  0  0  0
  187.2000  174.6560  136.9730 N   0  0  0  0  0  2  0  0  0  0  0  0
  187.7010  178.8030  139.9850 O   0  0  0  0  0  0  0  0  0  0  0  0
  183.9670  179.6720  143.9740 C   0  0  0  0  0  1  0  0  0  0  0  0
  184.5640  178.4330  143.3380 C   0  0  1  0  0  3  0  0  0  0  0  0
  186.8740  177.9210  143.4770 C   0  0  0  0  0  0  0  0  0  0  0  0
  189.2820  177.5330  143.1530 C   0  0  0  0  0  3  0  0  0  0  0  0
  186.7800  178.3410  142.1030 C   0  0  0  0  0  0  0  0  0  0  0  0
  187.8590  178.3660  141.3080 C   0  0  0  0  0  0  0  0  0  0  0  0
  185.1320  178.8240  141.6330 S   0  0  0  0  0  0  0  0  0  0  0  0
  185.7360  177.9670  144.1470 C   0  0  0  0  0  3  0  0  0  0  0  0
  190.3270  177.9190  141.0890 O   0  0  0  0  0  1  0  0  0  0  0  0
  188.1360  177.5130  144.0220 N   0  0  0  0  0  0  0  0  0  0  0  0
  189.1800  177.9310  141.8740 C   0  0  0  0  0  0  0  0  0  0  0  0
  189.2050  178.1180  147.7870 C   0  0  1  0  0  3  0  0  0  0  0  0
  189.9450  176.8780  147.3240 C   0  0  0  0  0  2  0  0  0  0  0  0
  187.5610  177.9310  146.2830 O   0  0  0  0  0  0  0  0  0  0  0  0
  188.2600  177.0500  145.4000 C   0  0  2  0  0  3  0  0  0  0  0  0
  189.7710  176.8460  145.7800 C   0  0  0  0  0  2  0  0  0  0  0  0
  187.8810  177.4350  147.5490 C   0  0  2  0  0  3  0  0  0  0  0  0
  188.0570  178.3080  148.5980 O   0  0  0  0  0  0  0  0  0  0  0  0
  1 21  1  1  0  0  0
  2  4  1  0  0  0  0
  2  1  1  0  0  0  0
  3  2  1  0  0  0  0
  3  4  1  0  0  0  0
  4  1  1  0  0  0  0
  5  3  1  0  0  0  0
  5  9  1  0  0  0  0
  6 13  1  0  0  0  0
  7 14  1  0  0  0  0
  8  9  2  0  0  0  0
  8  6  1  0  0  0  0
 10  6  1  0  0  0  0
 11  8  1  0  0  0  0
 12  5  2  0  0  0  0
 14 11  1  0  0  0  0
 14 10  2  0  0  0  0
 15 12  1  0  0  0  0
 15 11  2  0  0  0  0
 16 20  1  0  0  0  0
 16  3  1  0  0  0  0
 18 19  1  0  0  0  0
 19 17  2  0  0  0  0
 20 19  1  0  0  0  0
 21 27  1  0  0  0  0
 23 22  1  0  0  0  0
 23 29  1  0  0  0  0
 24 31  1  0  0  0  0
 24 29  2  0  0  0  0
 25 31  1  0  0  0  0
 26 24  1  0  0  0  0
 27 32  1  0  0  0  0
 27 26  2  0  0  0  0
 28 26  1  0  0  0  0
 28 23  1  0  0  0  0
 30 32  1  0  0  0  0
 31 36  1  0  0  0  0
 32 25  2  0  0  0  0
 33 39  1  0  0  0  0
 34 33  1  0  0  0  0
 35 38  1  0  0  0  0
 36 37  1  0  0  0  0
 36 35  1  0  0  0  0
 37 34  1  0  0  0  0
 38 33  1  0  0  0  0
 38 39  1  0  0  0  0
M  END
>  <MODEL>
1

>  <REMARK>
 VINA RESULT:      -9.2      0.000      0.000
  Name = 
  6 active torsions:
  status: ('A' for Active; 'I' for Inactive)
    1  A    between atoms: C_1  and  C_15
    2  A    between atoms: C_5  and  O_32
    3  A    between atoms: C_15  and  C_22
    4  A    between atoms: C_21  and  O_32
    5  A    between atoms: C_22  and  N_36
    6  A    between atoms: C_23  and  N_38
                            x       y       z     vdW  Elec       q    Type
                         _______ _______ _______ _____ _____    ______ ____

>  <TORSDO>
F 6

$$$$
=
 OpenBabel10222419353D

 39 46  0  0  1  0  0  0  0  0999 V2000
  191.1830  177.2320  141.4720 C   0  0  1  0  0  3  0  0  0  0  0  0
  190.5070  178.0410  142.4760 C   0  0  2  0  0  3  0  0  0  0  0  0
  189.8650  177.1700  143.4510 C   0  0  2  0  0  0  0  0  0  0  0  0
  189.9170  176.7410  142.0440 N   0  0  2  0  0  0  0  0  0  0  0  0
  188.4890  177.5680  143.9040 C   0  0  0  0  0  0  0  0  0  0  0  0
  186.4940  178.4150  146.8100 N   0  0  0  0  0  0  0  0  0  0  0  0
  183.4950  178.8590  144.8520 C   0  0  0  0  0  1  0  0  0  0  0  0
  186.9720  178.1450  145.5860 C   0  0  0  0  0  0  0  0  0  0  0  0
  188.2340  177.8040  145.2320 N   0  0  0  0  0  0  0  0  0  0  0  0
  185.1990  178.7050  146.7060 N   0  0  0  0  0  0  0  0  0  0  0  0
  185.9780  178.2570  144.6770 C   0  0  0  0  0  0  0  0  0  0  0  0
  187.4340  177.6740  142.9560 C   0  0  0  0  0  3  0  0  0  0  0  0
  187.2350  178.4040  148.0600 C   0  0  0  0  0  1  0  0  0  0  0  0
  184.8570  178.6110  145.3930 C   0  0  0  0  0  0  0  0  0  0  0  0
  186.1730  178.0250  143.3580 N   0  0  0  0  0  0  0  0  0  0  0  0
  190.7620  176.3270  144.3520 C   0  0  0  0  0  2  0  0  0  0  0  0
  191.8660  177.0610  147.7650 O   0  0  0  0  0  0  0  0  0  0  0  0
  192.3090  175.0590  146.5660 C   0  0  0  0  0  1  0  0  0  0  0  0
  191.7060  176.4160  146.6950 C   0  0  0  0  0  0  0  0  0  0  0  0
  190.9460  176.9910  145.6330 N   0  0  0  0  0  2  0  0  0  0  0  0
  190.9410  177.7690  140.1810 O   0  0  0  0  0  0  0  0  0  0  0  0
  192.3400  174.5950  135.8710 C   0  0  0  0  0  1  0  0  0  0  0  0
  191.4740  174.3880  137.0970 C   0  0  1  0  0  3  0  0  0  0  0  0
  189.5170  175.6630  137.4990 C   0  0  0  0  0  0  0  0  0  0  0  0
  187.7600  177.2120  138.2530 C   0  0  0  0  0  3  0  0  0  0  0  0
  190.4100  176.2400  138.4700 C   0  0  0  0  0  0  0  0  0  0  0  0
  190.0150  177.2390  139.2710 C   0  0  0  0  0  0  0  0  0  0  0  0
  192.0330  175.5080  138.4450 S   0  0  0  0  0  0  0  0  0  0  0  0
  190.0470  174.7010  136.7640 C   0  0  0  0  0  3  0  0  0  0  0  0
  188.1380  178.7650  139.9690 O   0  0  0  0  0  1  0  0  0  0  0  0
  188.1730  176.1480  137.3770 N   0  0  0  0  0  0  0  0  0  0  0  0
  188.6060  177.7440  139.1500 C   0  0  0  0  0  0  0  0  0  0  0  0
  184.4670  175.4680  136.1580 C   0  0  1  0  0  3  0  0  0  0  0  0
  185.1240  174.1100  136.3130 C   0  0  0  0  0  2  0  0  0  0  0  0
  186.3870  176.5780  135.8790 O   0  0  0  0  0  0  0  0  0  0  0  0
  187.2320  175.5630  136.4280 C   0  0  2  0  0  3  0  0  0  0  0  0
  186.4440  174.3770  137.0910 C   0  0  0  0  0  2  0  0  0  0  0  0
  185.4770  175.8530  135.1060 C   0  0  2  0  0  3  0  0  0  0  0  0
  184.1680  176.2680  135.0260 O   0  0  0  0  0  0  0  0  0  0  0  0
  1 21  1  6  0  0  0
  1  4  1  0  0  0  0
  1  2  1  0  0  0  0
  2  3  1  0  0  0  0
  3  5  1  0  0  0  0
  3 16  1  0  0  0  0
  4  2  1  0  0  0  0
  4  3  1  0  0  0  0
  5  9  1  0  0  0  0
  6 13  1  0  0  0  0
  7 14  1  0  0  0  0
  8  6  1  0  0  0  0
  9  8  2  0  0  0  0
 10  6  1  0  0  0  0
 11 14  1  0  0  0  0
 11  8  1  0  0  0  0
 12 15  1  0  0  0  0
 12  5  2  0  0  0  0
 14 10  2  0  0  0  0
 15 11  2  0  0  0  0
 16 20  1  0  0  0  0
 18 19  1  0  0  0  0
 19 17  2  0  0  0  0
 20 19  1  0  0  0  0
 22 23  1  0  0  0  0
 23 28  1  0  0  0  0
 24 26  1  0  0  0  0
 25 32  2  0  0  0  0
 26 27  2  0  0  0  0
 27 21  1  0  0  0  0
 28 26  1  0  0  0  0
 29 23  1  0  0  0  0
 29 24  2  0  0  0  0
 31 24  1  0  0  0  0
 31 25  1  0  0  0  0
 32 27  1  0  0  0  0
 32 30  1  0  0  0  0
 33 34  1  0  0  0  0
 34 37  1  0  0  0  0
 35 36  1  0  0  0  0
 36 37  1  0  0  0  0
 36 31  1  0  0  0  0
 38 35  1  0  0  0  0
 38 33  1  0  0  0  0
 39 38  1  0  0  0  0
 39 33  1  0  0  0  0
M  END
>  <MODEL>
2

>  <REMARK>
 VINA RESULT:      -9.1      2.703      9.629
  Name = 
  6 active torsions:
  status: ('A' for Active; 'I' for Inactive)
    1  A    between atoms: C_1  and  C_15
    2  A    between atoms: C_5  and  O_32
    3  A    between atoms: C_15  and  C_22
    4  A    between atoms: C_21  and  O_32
    5  A    between atoms: C_22  and  N_36
    6  A    between atoms: C_23  and  N_38
                            x       y       z     vdW  Elec       q    Type
                         _______ _______ _______ _____ _____    ______ ____

>  <TORSDO>
F 6

$$$$
=
 OpenBabel10222419353D

 39 46  0  0  1  0  0  0  0  0999 V2000
  187.7830  178.5610  140.4850 C   0  0  1  0  0  3  0  0  0  0  0  0
  188.9350  178.7170  141.3620 C   0  0  2  0  0  3  0  0  0  0  0  0
  189.5180  177.4100  141.6350 C   0  0  2  0  0  0  0  0  0  0  0  0
  188.0570  177.5170  141.4870 N   0  0  2  0  0  0  0  0  0  0  0  0
  189.9590  177.1520  143.0480 C   0  0  0  0  0  0  0  0  0  0  0  0
  188.9380  177.3700  146.5190 N   0  0  0  0  0  0  0  0  0  0  0  0
  192.0970  176.1010  147.7200 C   0  0  0  0  0  1  0  0  0  0  0  0
  189.5740  177.1830  145.3530 C   0  0  0  0  0  0  0  0  0  0  0  0
  189.1190  177.4190  144.0990 N   0  0  0  0  0  0  0  0  0  0  0  0
  189.7520  177.0080  147.5080 N   0  0  0  0  0  0  0  0  0  0  0  0
  190.8130  176.6980  145.5850 C   0  0  0  0  0  0  0  0  0  0  0  0
  191.2670  176.6560  143.3020 C   0  0  0  0  0  3  0  0  0  0  0  0
  187.5900  177.8780  146.7090 C   0  0  0  0  0  1  0  0  0  0  0  0
  190.9210  176.5900  146.9530 C   0  0  0  0  0  0  0  0  0  0  0  0
  191.6850  176.4280  144.5860 N   0  0  0  0  0  0  0  0  0  0  0  0
  190.1690  176.6650  140.4730 C   0  0  0  0  0  2  0  0  0  0  0  0
  193.5200  177.1850  139.0950 O   0  0  0  0  0  0  0  0  0  0  0  0
  191.7950  175.8950  138.0930 C   0  0  0  0  0  1  0  0  0  0  0  0
  192.3410  176.7530  139.1830 C   0  0  0  0  0  0  0  0  0  0  0  0
  191.5540  177.0850  140.3260 N   0  0  0  0  0  2  0  0  0  0  0  0
  186.7200  179.3840  140.9400 O   0  0  0  0  0  0  0  0  0  0  0  0
  183.7530  178.3830  145.5010 C   0  0  0  0  0  1  0  0  0  0  0  0
  183.6380  179.3780  144.3640 C   0  0  1  0  0  3  0  0  0  0  0  0
  183.2830  178.7070  142.1200 C   0  0  0  0  0  0  0  0  0  0  0  0
  183.3870  178.1260  139.7310 C   0  0  0  0  0  3  0  0  0  0  0  0
  184.6680  179.0990  142.0610 C   0  0  0  0  0  0  0  0  0  0  0  0
  185.3700  179.0040  140.9230 C   0  0  0  0  0  0  0  0  0  0  0  0
  185.2980  179.6680  143.6260 S   0  0  0  0  0  0  0  0  0  0  0  0
  182.7240  178.8340  143.3100 C   0  0  0  0  0  3  0  0  0  0  0  0
  185.3550  178.3900  138.4820 O   0  0  0  0  0  1  0  0  0  0  0  0
  182.6250  178.2100  140.9470 N   0  0  0  0  0  0  0  0  0  0  0  0
  184.6800  178.4910  139.6930 C   0  0  0  0  0  0  0  0  0  0  0  0
  179.2510  177.3640  139.0520 C   0  0  1  0  0  3  0  0  0  0  0  0
  178.9380  178.5090  139.9960 C   0  0  0  0  0  2  0  0  0  0  0  0
  181.0120  176.6320  140.2190 O   0  0  0  0  0  0  0  0  0  0  0  0
  181.2140  177.8360  140.9630 C   0  0  2  0  0  3  0  0  0  0  0  0
  180.3190  179.0340  140.4800 C   0  0  0  0  0  2  0  0  0  0  0  0
  179.6240  176.4840  140.2200 C   0  0  2  0  0  3  0  0  0  0  0  0
  178.9920  175.9700  139.1110 O   0  0  0  0  0  0  0  0  0  0  0  0
  1 21  1  1  0  0  0
  1  2  1  0  0  0  0
  1  4  1  0  0  0  0
  2  4  1  0  0  0  0
  2  3  1  0  0  0  0
  3  5  1  0  0  0  0
  4  3  1  0  0  0  0
  5 12  2  0  0  0  0
  5  9  1  0  0  0  0
  6 13  1  0  0  0  0
  6 10  1  0  0  0  0
  8 11  1  0  0  0  0
  8  6  1  0  0  0  0
  9  8  2  0  0  0  0
 11 14  1  0  0  0  0
 12 15  1  0  0  0  0
 14 10  2  0  0  0  0
 14  7  1  0  0  0  0
 15 11  2  0  0  0  0
 16  3  1  0  0  0  0
 17 19  2  0  0  0  0
 18 19  1  0  0  0  0
 19 20  1  0  0  0  0
 20 16  1  0  0  0  0
 23 22  1  0  0  0  0
 24 29  2  0  0  0  0
 25 31  1  0  0  0  0
 26 24  1  0  0  0  0
 26 28  1  0  0  0  0
 27 21  1  0  0  0  0
 27 26  2  0  0  0  0
 28 23  1  0  0  0  0
 29 23  1  0  0  0  0
 30 32  1  0  0  0  0
 31 36  1  0  0  0  0
 31 24  1  0  0  0  0
 32 25  2  0  0  0  0
 32 27  1  0  0  0  0
 33 39  1  0  0  0  0
 33 34  1  0  0  0  0
 33 38  1  0  0  0  0
 34 37  1  0  0  0  0
 35 38  1  0  0  0  0
 35 36  1  0  0  0  0
 37 36  1  0  0  0  0
 39 38  1  0  0  0  0
M  END
>  <MODEL>
3

>  <REMARK>
 VINA RESULT:      -9.0      3.407      7.897
  Name = 
  6 active torsions:
  status: ('A' for Active; 'I' for Inactive)
    1  A    between atoms: C_1  and  C_15
    2  A    between atoms: C_5  and  O_32
    3  A    between atoms: C_15  and  C_22
    4  A    between atoms: C_21  and  O_32
    5  A    between atoms: C_22  and  N_36
    6  A    between atoms: C_23  and  N_38
                            x       y       z     vdW  Elec       q    Type
                         _______ _______ _______ _____ _____    ______ ____

>  <TORSDO>
F 6

$$$$
=
 OpenBabel10222419353D

 39 46  0  0  1  0  0  0  0  0999 V2000
  187.7170  178.5540  140.4390 C   0  0  1  0  0  3  0  0  0  0  0  0
  188.0650  177.4680  141.3440 C   0  0  2  0  0  3  0  0  0  0  0  0
  187.5850  177.7780  142.6830 C   0  0  2  0  0  0  0  0  0  0  0  0
  188.0690  178.8770  141.8320 N   0  0  2  0  0  0  0  0  0  0  0  0
  188.5100  177.4520  143.8210 C   0  0  0  0  0  0  0  0  0  0  0  0
  188.9520  177.7340  147.4080 N   0  0  0  0  0  0  0  0  0  0  0  0
  192.1660  176.0940  147.3270 C   0  0  0  0  0  1  0  0  0  0  0  0
  189.0580  177.4930  146.0930 C   0  0  0  0  0  0  0  0  0  0  0  0
  188.1800  177.7980  145.1080 N   0  0  0  0  0  0  0  0  0  0  0  0
  190.0410  177.2670  148.0150 N   0  0  0  0  0  0  0  0  0  0  0  0
  190.2280  176.8650  145.8410 C   0  0  0  0  0  0  0  0  0  0  0  0
  189.7500  176.8050  143.5630 C   0  0  0  0  0  3  0  0  0  0  0  0
  187.8500  178.3910  148.0900 C   0  0  0  0  0  1  0  0  0  0  0  0
  190.8460  176.7260  147.0620 C   0  0  0  0  0  0  0  0  0  0  0  0
  190.6060  176.5120  144.5900 N   0  0  0  0  0  0  0  0  0  0  0  0
  186.0760  177.8320  142.9040 C   0  0  0  0  0  2  0  0  0  0  0  0
  184.3150  179.0210  145.8850 O   0  0  0  0  0  0  0  0  0  0  0  0
  183.4230  178.9510  143.6840 C   0  0  0  0  0  1  0  0  0  0  0  0
  184.5160  178.7380  144.6740 C   0  0  0  0  0  0  0  0  0  0  0  0
  185.7860  178.2280  144.2730 N   0  0  0  0  0  2  0  0  0  0  0  0
  188.8190  178.8450  139.5930 O   0  0  0  0  0  0  0  0  0  0  0  0
  186.4130  176.5370  135.1780 C   0  0  0  0  0  1  0  0  0  0  0  0
  187.6440  177.3970  135.3800 C   0  0  1  0  0  3  0  0  0  0  0  0
  189.4940  176.6790  136.6760 C   0  0  0  0  0  0  0  0  0  0  0  0
  191.2430  176.2500  138.3530 C   0  0  0  0  0  3  0  0  0  0  0  0
  188.9120  177.6510  137.5650 C   0  0  0  0  0  0  0  0  0  0  0  0
  189.4470  177.9010  138.7680 C   0  0  0  0  0  0  0  0  0  0  0  0
  187.4460  178.4130  136.9010 S   0  0  0  0  0  0  0  0  0  0  0  0
  188.8500  176.5210  135.5340 C   0  0  0  0  0  3  0  0  0  0  0  0
  191.2930  177.3910  140.4020 O   0  0  0  0  0  1  0  0  0  0  0  0
  190.6730  175.9620  137.0640 N   0  0  0  0  0  0  0  0  0  0  0  0
  190.6860  177.1560  139.1740 C   0  0  0  0  0  0  0  0  0  0  0  0
  193.5830  173.3990  136.2550 C   0  0  1  0  0  3  0  0  0  0  0  0
  193.5690  174.4060  135.1210 C   0  0  0  0  0  2  0  0  0  0  0  0
  191.4490  173.7340  136.8320 O   0  0  0  0  0  0  0  0  0  0  0  0
  191.3080  174.9950  136.1740 C   0  0  2  0  0  3  0  0  0  0  0  0
  192.6590  175.5670  135.6110 C   0  0  0  0  0  2  0  0  0  0  0  0
  192.1770  172.9740  135.9140 C   0  0  2  0  0  3  0  0  0  0  0  0
  193.1090  172.0670  136.3650 O   0  0  0  0  0  0  0  0  0  0  0  0
  1 21  1  6  0  0  0
  1  2  1  0  0  0  0
  1  4  1  0  0  0  0
  2  4  1  0  0  0  0
  2  3  1  0  0  0  0
  3 16  1  0  0  0  0
  3  5  1  0  0  0  0
  4  3  1  0  0  0  0
  5  9  1  0  0  0  0
  6 10  1  0  0  0  0
  6 13  1  0  0  0  0
  8  6  1  0  0  0  0
  9  8  2  0  0  0  0
 11  8  1  0  0  0  0
 11 14  1  0  0  0  0
 12  5  2  0  0  0  0
 12 15  1  0  0  0  0
 14  7  1  0  0  0  0
 14 10  2  0  0  0  0
 15 11  2  0  0  0  0
 16 20  1  0  0  0  0
 18 19  1  0  0  0  0
 19 17  2  0  0  0  0
 20 19  1  0  0  0  0
 22 23  1  0  0  0  0
 23 29  1  0  0  0  0
 23 28  1  0  0  0  0
 24 31  1  0  0  0  0
 24 26  1  0  0  0  0
 25 32  2  0  0  0  0
 26 27  2  0  0  0  0
 27 32  1  0  0  0  0
 27 21  1  0  0  0  0
 28 26  1  0  0  0  0
 29 24  2  0  0  0  0
 31 25  1  0  0  0  0
 32 30  1  0  0  0  0
 33 39  1  0  0  0  0
 34 37  1  0  0  0  0
 34 33  1  0  0  0  0
 36 35  1  0  0  0  0
 36 31  1  0  0  0  0
 37 36  1  0  0  0  0
 38 33  1  0  0  0  0
 38 39  1  0  0  0  0
 38 35  1  0  0  0  0
M  END
>  <MODEL>
4

>  <REMARK>
 VINA RESULT:      -9.0      2.458      8.881
  Name = 
  6 active torsions:
  status: ('A' for Active; 'I' for Inactive)
    1  A    between atoms: C_1  and  C_15
    2  A    between atoms: C_5  and  O_32
    3  A    between atoms: C_15  and  C_22
    4  A    between atoms: C_21  and  O_32
    5  A    between atoms: C_22  and  N_36
    6  A    between atoms: C_23  and  N_38
                            x       y       z     vdW  Elec       q    Type
                         _______ _______ _______ _____ _____    ______ ____

>  <TORSDO>
F 6

$$$$
=
 OpenBabel10222419353D

 39 46  0  0  1  0  0  0  0  0999 V2000
  188.9240  178.3540  139.1440 C   0  0  1  0  0  3  0  0  0  0  0  0
  188.2090  177.1410  138.7760 C   0  0  2  0  0  3  0  0  0  0  0  0
  188.0730  177.0770  137.3280 C   0  0  2  0  0  0  0  0  0  0  0  0
  188.0130  178.3920  137.9870 N   0  0  2  0  0  0  0  0  0  0  0  0
  186.7460  176.6130  136.7970 C   0  0  0  0  0  0  0  0  0  0  0  0
  184.4170  173.8350  136.7570 N   0  0  0  0  0  0  0  0  0  0  0  0
  182.1030  175.5670  134.5950 C   0  0  0  0  0  1  0  0  0  0  0  0
  185.0730  174.9940  136.5920 C   0  0  0  0  0  0  0  0  0  0  0  0
  186.2670  175.3660  137.1110 N   0  0  0  0  0  0  0  0  0  0  0  0
  183.2780  173.8910  136.0700 N   0  0  0  0  0  0  0  0  0  0  0  0
  184.3550  175.8100  135.7890 C   0  0  0  0  0  0  0  0  0  0  0  0
  185.9910  177.4600  135.9390 C   0  0  0  0  0  3  0  0  0  0  0  0
  184.8470  172.6920  137.5440 C   0  0  0  0  0  1  0  0  0  0  0  0
  183.2200  175.1060  135.4610 C   0  0  0  0  0  0  0  0  0  0  0  0
  184.7860  177.0450  135.4390 N   0  0  0  0  0  0  0  0  0  0  0  0
  189.3430  176.8950  136.5010 C   0  0  0  0  0  2  0  0  0  0  0  0
  191.4100  174.0580  137.5400 O   0  0  0  0  0  0  0  0  0  0  0  0
  191.8690  176.3450  137.9900 C   0  0  0  0  0  1  0  0  0  0  0  0
  191.0440  175.2540  137.3960 C   0  0  0  0  0  0  0  0  0  0  0  0
  189.8540  175.5430  136.6640 N   0  0  0  0  0  2  0  0  0  0  0  0
  188.2940  178.9630  140.2610 O   0  0  0  0  0  0  0  0  0  0  0  0
  184.2560  179.4810  144.0070 C   0  0  0  0  0  1  0  0  0  0  0  0
  184.9570  178.3000  143.3670 C   0  0  1  0  0  3  0  0  0  0  0  0
  187.2740  177.8920  143.6480 C   0  0  0  0  0  0  0  0  0  0  0  0
  189.7150  177.6320  143.4800 C   0  0  0  0  0  3  0  0  0  0  0  0
  187.2540  178.3660  142.2880 C   0  0  0  0  0  0  0  0  0  0  0  0
  188.3820  178.4760  141.5730 C   0  0  0  0  0  0  0  0  0  0  0  0
  185.6200  178.7910  141.7230 S   0  0  0  0  0  0  0  0  0  0  0  0
  186.0920  177.8560  144.2370 C   0  0  0  0  0  3  0  0  0  0  0  0
  190.8780  178.1560  141.5120 O   0  0  0  0  0  1  0  0  0  0  0  0
  188.5150  177.5200  144.2640 N   0  0  0  0  0  0  0  0  0  0  0  0
  189.6810  178.0800  142.2140 C   0  0  0  0  0  0  0  0  0  0  0  0
  189.1950  178.0400  148.1310 C   0  0  1  0  0  3  0  0  0  0  0  0
  190.0910  176.9000  147.6860 C   0  0  0  0  0  2  0  0  0  0  0  0
  187.7120  177.7720  146.4800 O   0  0  0  0  0  0  0  0  0  0  0  0
  188.5670  177.0050  145.6280 C   0  0  2  0  0  3  0  0  0  0  0  0
  190.0530  176.9270  146.1320 C   0  0  0  0  0  2  0  0  0  0  0  0
  187.9710  177.2470  147.7480 C   0  0  2  0  0  3  0  0  0  0  0  0
  187.9700  178.0800  148.8430 O   0  0  0  0  0  0  0  0  0  0  0  0
  1 21  1  1  0  0  0
  2  1  1  0  0  0  0
  3  4  1  0  0  0  0
  3  2  1  0  0  0  0
  4  2  1  0  0  0  0
  4  1  1  0  0  0  0
  5  9  1  0  0  0  0
  5  3  1  0  0  0  0
  6 13  1  0  0  0  0
  7 14  1  0  0  0  0
  8  6  1  0  0  0  0
  8  9  2  0  0  0  0
 10  6  1  0  0  0  0
 11  8  1  0  0  0  0
 12  5  2  0  0  0  0
 14 11  1  0  0  0  0
 14 10  2  0  0  0  0
 15 11  2  0  0  0  0
 15 12  1  0  0  0  0
 16 20  1  0  0  0  0
 16  3  1  0  0  0  0
 19 17  2  0  0  0  0
 19 18  1  0  0  0  0
 20 19  1  0  0  0  0
 21 27  1  0  0  0  0
 23 22  1  0  0  0  0
 23 29  1  0  0  0  0
 24 29  2  0  0  0  0
 24 31  1  0  0  0  0
 25 31  1  0  0  0  0
 26 24  1  0  0  0  0
 27 32  1  0  0  0  0
 27 26  2  0  0  0  0
 28 26  1  0  0  0  0
 28 23  1  0  0  0  0
 30 32  1  0  0  0  0
 31 36  1  0  0  0  0
 32 25  2  0  0  0  0
 33 39  1  0  0  0  0
 34 33  1  0  0  0  0
 35 38  1  0  0  0  0
 36 37  1  0  0  0  0
 36 35  1  0  0  0  0
 37 34  1  0  0  0  0
 38 33  1  0  0  0  0
 38 39  1  0  0  0  0
M  END
>  <MODEL>
5

>  <REMARK>
 VINA RESULT:      -9.0      1.796      4.857
  Name = 
  6 active torsions:
  status: ('A' for Active; 'I' for Inactive)
    1  A    between atoms: C_1  and  C_15
    2  A    between atoms: C_5  and  O_32
    3  A    between atoms: C_15  and  C_22
    4  A    between atoms: C_21  and  O_32
    5  A    between atoms: C_22  and  N_36
    6  A    between atoms: C_23  and  N_38
                            x       y       z     vdW  Elec       q    Type
                         _______ _______ _______ _____ _____    ______ ____

>  <TORSDO>
F 6

$$$$
=
 OpenBabel10222419353D

 39 46  0  0  1  0  0  0  0  0999 V2000
  185.7010  177.9500  137.7560 C   0  0  1  0  0  3  0  0  0  0  0  0
  186.9080  178.0520  136.9490 C   0  0  2  0  0  3  0  0  0  0  0  0
  187.4640  176.7230  136.7340 C   0  0  2  0  0  0  0  0  0  0  0  0
  186.8120  177.0190  138.0210 N   0  0  2  0  0  0  0  0  0  0  0  0
  188.9570  176.5950  136.8370 C   0  0  0  0  0  0  0  0  0  0  0  0
  191.7760  176.9190  139.0930 N   0  0  0  0  0  0  0  0  0  0  0  0
  194.1630  176.0370  136.5320 C   0  0  0  0  0  1  0  0  0  0  0  0
  190.9460  176.7260  138.0560 C   0  0  0  0  0  0  0  0  0  0  0  0
  189.5980  176.8410  138.0250 N   0  0  0  0  0  0  0  0  0  0  0  0
  193.0240  176.6980  138.6840 N   0  0  0  0  0  0  0  0  0  0  0  0
  191.6610  176.3780  136.9630 C   0  0  0  0  0  0  0  0  0  0  0  0
  189.7180  176.2440  135.6870 C   0  0  0  0  0  3  0  0  0  0  0  0
  191.4110  177.3040  140.4450 C   0  0  0  0  0  1  0  0  0  0  0  0
  192.9760  176.3630  137.3670 C   0  0  0  0  0  0  0  0  0  0  0  0
  191.0810  176.1350  135.7650 N   0  0  0  0  0  0  0  0  0  0  0  0
  186.6600  175.7440  135.8840 C   0  0  0  0  0  2  0  0  0  0  0  0
  185.5110  172.6990  137.5610 O   0  0  0  0  0  0  0  0  0  0  0  0
  184.1780  174.6080  137.0900 C   0  0  0  0  0  1  0  0  0  0  0  0
  185.4660  173.8580  137.0700 C   0  0  0  0  0  0  0  0  0  0  0  0
  186.6470  174.4320  136.5130 N   0  0  0  0  0  2  0  0  0  0  0  0
  185.6950  178.9700  138.7420 O   0  0  0  0  0  0  0  0  0  0  0  0
  181.1490  179.5480  141.8420 C   0  0  0  0  0  1  0  0  0  0  0  0
  182.0630  178.3840  141.5140 C   0  0  1  0  0  3  0  0  0  0  0  0
  184.3510  178.3530  142.1290 C   0  0  0  0  0  0  0  0  0  0  0  0
  186.8060  178.4080  142.2920 C   0  0  0  0  0  3  0  0  0  0  0  0
  184.4630  178.5840  140.7120 C   0  0  0  0  0  0  0  0  0  0  0  0
  185.6580  178.7280  140.1230 C   0  0  0  0  0  0  0  0  0  0  0  0
  182.8830  178.6790  139.8950 S   0  0  0  0  0  0  0  0  0  0  0  0
  183.1120  178.2530  142.5760 C   0  0  0  0  0  3  0  0  0  0  0  0
  188.1590  178.7490  140.4070 O   0  0  0  0  0  1  0  0  0  0  0  0
  185.5300  178.2650  142.9400 N   0  0  0  0  0  0  0  0  0  0  0  0
  186.8940  178.6280  140.9700 C   0  0  0  0  0  0  0  0  0  0  0  0
  186.6910  178.9890  146.6570 C   0  0  1  0  0  3  0  0  0  0  0  0
  186.9260  177.5110  146.4140 C   0  0  0  0  0  2  0  0  0  0  0  0
  185.1170  179.1940  145.0820 O   0  0  0  0  0  0  0  0  0  0  0  0
  185.4540  177.9980  144.3730 C   0  0  2  0  0  3  0  0  0  0  0  0
  186.7760  177.3160  144.8790 C   0  0  0  0  0  2  0  0  0  0  0  0
  185.2120  178.8080  146.4210 C   0  0  2  0  0  3  0  0  0  0  0  0
  185.6830  179.7010  147.3560 O   0  0  0  0  0  0  0  0  0  0  0  0
  1  4  1  0  0  0  0
  1 21  1  1  0  0  0
  2  1  1  0  0  0  0
  2  4  1  0  0  0  0
  3  5  1  0  0  0  0
  3  2  1  0  0  0  0
  3  4  1  0  0  0  0
  5  9  1  0  0  0  0
  6 13  1  0  0  0  0
  7 14  1  0  0  0  0
  8  6  1  0  0  0  0
  9  8  2  0  0  0  0
 10  6  1  0  0  0  0
 11 14  1  0  0  0  0
 11  8  1  0  0  0  0
 12 15  1  0  0  0  0
 12  5  2  0  0  0  0
 14 10  2  0  0  0  0
 15 11  2  0  0  0  0
 16 20  1  0  0  0  0
 16  3  1  0  0  0  0
 19 18  1  0  0  0  0
 19 17  2  0  0  0  0
 20 19  1  0  0  0  0
 21 27  1  0  0  0  0
 23 22  1  0  0  0  0
 23 29  1  0  0  0  0
 24 29  2  0  0  0  0
 24 31  1  0  0  0  0
 25 31  1  0  0  0  0
 26 24  1  0  0  0  0
 27 26  2  0  0  0  0
 27 32  1  0  0  0  0
 28 26  1  0  0  0  0
 28 23  1  0  0  0  0
 30 32  1  0  0  0  0
 31 36  1  0  0  0  0
 32 25  2  0  0  0  0
 33 39  1  0  0  0  0
 34 33  1  0  0  0  0
 35 38  1  0  0  0  0
 36 37  1  0  0  0  0
 36 35  1  0  0  0  0
 37 34  1  0  0  0  0
 38 33  1  0  0  0  0
 38 39  1  0  0  0  0
M  END
>  <MODEL>
6

>  <REMARK>
 VINA RESULT:      -8.9      1.781      2.274
  Name = 
  6 active torsions:
  status: ('A' for Active; 'I' for Inactive)
    1  A    between atoms: C_1  and  C_15
    2  A    between atoms: C_5  and  O_32
    3  A    between atoms: C_15  and  C_22
    4  A    between atoms: C_21  and  O_32
    5  A    between atoms: C_22  and  N_36
    6  A    between atoms: C_23  and  N_38
                            x       y       z     vdW  Elec       q    Type
                         _______ _______ _______ _____ _____    ______ ____

>  <TORSDO>
F 6

$$$$
=
 OpenBabel10222419353D

 39 46  0  0  1  0  0  0  0  0999 V2000
  184.1380  179.1710  140.0040 C   0  0  1  0  0  3  0  0  0  0  0  0
  184.5460  178.9020  138.6320 C   0  0  2  0  0  3  0  0  0  0  0  0
  184.0580  177.5910  138.2280 C   0  0  2  0  0  0  0  0  0  0  0  0
  184.4810  177.7890  139.6240 N   0  0  2  0  0  0  0  0  0  0  0  0
  185.0050  176.7380  137.4320 C   0  0  0  0  0  0  0  0  0  0  0  0
  188.2850  176.6600  135.8890 N   0  0  0  0  0  0  0  0  0  0  0  0
  187.8100  173.3160  134.6170 C   0  0  0  0  0  1  0  0  0  0  0  0
  187.0490  176.4090  136.3480 C   0  0  0  0  0  0  0  0  0  0  0  0
  186.2420  177.2140  137.0780 N   0  0  0  0  0  0  0  0  0  0  0  0
  188.7140  175.5940  135.2180 N   0  0  0  0  0  0  0  0  0  0  0  0
  186.6700  175.1680  135.9680 C   0  0  0  0  0  0  0  0  0  0  0  0
  184.6080  175.4370  137.0160 C   0  0  0  0  0  3  0  0  0  0  0  0
  189.0550  177.8780  136.0760 C   0  0  0  0  0  1  0  0  0  0  0  0
  187.7280  174.6570  135.2520 C   0  0  0  0  0  0  0  0  0  0  0  0
  185.4570  174.6540  136.2810 N   0  0  0  0  0  0  0  0  0  0  0  0
  182.5500  177.4020  138.0960 C   0  0  0  0  0  2  0  0  0  0  0  0
  180.9810  179.7220  135.7370 O   0  0  0  0  0  0  0  0  0  0  0  0
  180.9190  179.9000  138.1060 C   0  0  0  0  0  1  0  0  0  0  0  0
  181.3220  179.2210  136.8410 C   0  0  0  0  0  0  0  0  0  0  0  0
  182.0780  178.0120  136.8610 N   0  0  0  0  0  2  0  0  0  0  0  0
  185.2180  179.7450  140.7220 O   0  0  0  0  0  0  0  0  0  0  0  0
  184.9680  179.0190  146.2020 C   0  0  0  0  0  1  0  0  0  0  0  0
  184.9380  178.0830  145.0100 C   0  0  1  0  0  3  0  0  0  0  0  0
  186.7630  177.8760  143.5120 C   0  0  0  0  0  0  0  0  0  0  0  0
  188.3740  177.9210  141.6530 C   0  0  0  0  0  3  0  0  0  0  0  0
  185.8380  178.6230  142.6980 C   0  0  0  0  0  0  0  0  0  0  0  0
  186.1570  179.0030  141.4540 C   0  0  0  0  0  0  0  0  0  0  0  0
  184.3070  178.9810  143.5340 S   0  0  0  0  0  0  0  0  0  0  0  0
  186.3230  177.5880  144.7240 C   0  0  0  0  0  3  0  0  0  0  0  0
  187.8780  178.9730  139.6160 O   0  0  0  0  0  1  0  0  0  0  0  0
  188.0510  177.5170  142.9950 N   0  0  0  0  0  0  0  0  0  0  0  0
  187.5030  178.6220  140.9080 C   0  0  0  0  0  0  0  0  0  0  0  0
  191.6810  176.9560  144.4780 C   0  0  1  0  0  3  0  0  0  0  0  0
  191.3480  175.7130  143.6740 C   0  0  0  0  0  2  0  0  0  0  0  0
  189.5490  177.5290  144.8320 O   0  0  0  0  0  0  0  0  0  0  0  0
  188.9990  176.7330  143.7800 C   0  0  2  0  0  3  0  0  0  0  0  0
  190.0840  176.0830  142.8470 C   0  0  0  0  0  2  0  0  0  0  0  0
  190.5130  176.6910  145.3960 C   0  0  2  0  0  3  0  0  0  0  0  0
  191.6890  177.2270  145.8700 O   0  0  0  0  0  0  0  0  0  0  0  0
  1 21  1  1  0  0  0
  2  4  1  0  0  0  0
  2  1  1  0  0  0  0
  3  2  1  0  0  0  0
  3  4  1  0  0  0  0
  4  1  1  0  0  0  0
  5  3  1  0  0  0  0
  6 13  1  0  0  0  0
  6  8  1  0  0  0  0
  7 14  1  0  0  0  0
  8  9  2  0  0  0  0
  9  5  1  0  0  0  0
 10 14  2  0  0  0  0
 10  6  1  0  0  0  0
 11 15  2  0  0  0  0
 11  8  1  0  0  0  0
 12  5  2  0  0  0  0
 14 11  1  0  0  0  0
 15 12  1  0  0  0  0
 16  3  1  0  0  0  0
 17 19  2  0  0  0  0
 19 20  1  0  0  0  0
 19 18  1  0  0  0  0
 20 16  1  0  0  0  0
 21 27  1  0  0  0  0
 23 22  1  0  0  0  0
 24 29  2  0  0  0  0
 25 31  1  0  0  0  0
 26 24  1  0  0  0  0
 26 28  1  0  0  0  0
 27 26  2  0  0  0  0
 28 23  1  0  0  0  0
 29 23  1  0  0  0  0
 30 32  1  0  0  0  0
 31 24  1  0  0  0  0
 31 36  1  0  0  0  0
 32 27  1  0  0  0  0
 32 25  2  0  0  0  0
 33 38  1  0  0  0  0
 33 39  1  0  0  0  0
 34 33  1  0  0  0  0
 35 38  1  0  0  0  0
 36 35  1  0  0  0  0
 37 34  1  0  0  0  0
 37 36  1  0  0  0  0
 38 39  1  0  0  0  0
M  END
>  <MODEL>
7

>  <REMARK>
 VINA RESULT:      -8.9      3.004      4.479
  Name = 
  6 active torsions:
  status: ('A' for Active; 'I' for Inactive)
    1  A    between atoms: C_1  and  C_15
    2  A    between atoms: C_5  and  O_32
    3  A    between atoms: C_15  and  C_22
    4  A    between atoms: C_21  and  O_32
    5  A    between atoms: C_22  and  N_36
    6  A    between atoms: C_23  and  N_38
                            x       y       z     vdW  Elec       q    Type
                         _______ _______ _______ _____ _____    ______ ____

>  <TORSDO>
F 6

$$$$
=
 OpenBabel10222419353D

 39 46  0  0  1  0  0  0  0  0999 V2000
  191.0370  177.3010  141.9730 C   0  0  1  0  0  3  0  0  0  0  0  0
  190.1970  178.1000  142.8540 C   0  0  2  0  0  3  0  0  0  0  0  0
  189.3650  177.2190  143.6620 C   0  0  2  0  0  0  0  0  0  0  0  0
  189.6770  176.8250  142.2790 N   0  0  2  0  0  0  0  0  0  0  0  0
  187.9350  177.6380  143.8570 C   0  0  0  0  0  0  0  0  0  0  0  0
  185.5030  178.6880  146.3320 N   0  0  0  0  0  0  0  0  0  0  0  0
  182.8570  178.9480  143.8900 C   0  0  0  0  0  1  0  0  0  0  0  0
  186.1700  178.3280  145.2250 C   0  0  0  0  0  0  0  0  0  0  0  0
  187.4720  177.9740  145.1040 N   0  0  0  0  0  0  0  0  0  0  0  0
  184.2430  178.9560  145.9990 N   0  0  0  0  0  0  0  0  0  0  0  0
  185.3350  178.3590  144.1630 C   0  0  0  0  0  0  0  0  0  0  0  0
  187.0460  177.6590  142.7480 C   0  0  0  0  0  3  0  0  0  0  0  0
  186.0340  178.7820  147.6810 C   0  0  0  0  0  1  0  0  0  0  0  0
  184.1150  178.7570  144.6600 C   0  0  0  0  0  0  0  0  0  0  0  0
  185.7380  178.0270  142.9140 N   0  0  0  0  0  0  0  0  0  0  0  0
  190.0590  176.3320  144.6930 C   0  0  0  0  0  2  0  0  0  0  0  0
  191.5380  177.4570  147.8470 O   0  0  0  0  0  0  0  0  0  0  0  0
  192.1860  175.5270  146.6230 C   0  0  0  0  0  1  0  0  0  0  0  0
  191.3410  176.7370  146.8330 C   0  0  0  0  0  0  0  0  0  0  0  0
  190.3110  177.0870  145.9100 N   0  0  0  0  0  2  0  0  0  0  0  0
  191.0560  177.8760  140.6760 O   0  0  0  0  0  0  0  0  0  0  0  0
  187.6480  175.2120  137.2270 C   0  0  0  0  0  1  0  0  0  0  0  0
  188.6010  176.3790  137.0760 C   0  0  1  0  0  3  0  0  0  0  0  0
  190.9380  176.1610  137.4040 C   0  0  0  0  0  0  0  0  0  0  0  0
  193.2780  176.1690  138.1660 C   0  0  0  0  0  3  0  0  0  0  0  0
  190.5700  176.8720  138.6020 C   0  0  0  0  0  0  0  0  0  0  0  0
  191.4850  177.2010  139.5240 C   0  0  0  0  0  0  0  0  0  0  0  0
  188.8240  177.2100  138.7020 S   0  0  0  0  0  0  0  0  0  0  0  0
  189.9310  175.8850  136.5950 C   0  0  0  0  0  3  0  0  0  0  0  0
  193.9110  177.1620  140.1950 O   0  0  0  0  0  1  0  0  0  0  0  0
  192.3060  175.7980  137.1740 N   0  0  0  0  0  0  0  0  0  0  0  0
  192.9180  176.8280  139.2810 C   0  0  0  0  0  0  0  0  0  0  0  0
  194.5810  173.1490  135.3040 C   0  0  1  0  0  3  0  0  0  0  0  0
  194.8020  174.4760  134.6030 C   0  0  0  0  0  2  0  0  0  0  0  0
  192.5690  173.6940  136.1130 O   0  0  0  0  0  0  0  0  0  0  0  0
  192.7180  175.1070  135.9560 C   0  0  2  0  0  3  0  0  0  0  0  0
  194.1680  175.5460  135.5360 C   0  0  0  0  0  2  0  0  0  0  0  0
  193.1180  173.1810  134.9360 C   0  0  2  0  0  3  0  0  0  0  0  0
  193.8210  171.9990  134.9690 O   0  0  0  0  0  0  0  0  0  0  0  0
  1 21  1  6  0  0  0
  1  4  1  0  0  0  0
  1  2  1  0  0  0  0
  2  3  1  0  0  0  0
  3  5  1  0  0  0  0
  3 16  1  0  0  0  0
  4  2  1  0  0  0  0
  4  3  1  0  0  0  0
  5  9  1  0  0  0  0
  6 13  1  0  0  0  0
  7 14  1  0  0  0  0
  8  6  1  0  0  0  0
  9  8  2  0  0  0  0
 10  6  1  0  0  0  0
 11 14  1  0  0  0  0
 11  8  1  0  0  0  0
 12 15  1  0  0  0  0
 12  5  2  0  0  0  0
 14 10  2  0  0  0  0
 15 11  2  0  0  0  0
 16 20  1  0  0  0  0
 18 19  1  0  0  0  0
 19 17  2  0  0  0  0
 20 19  1  0  0  0  0
 23 22  1  0  0  0  0
 23 28  1  0  0  0  0
 24 26  1  0  0  0  0
 25 32  2  0  0  0  0
 26 28  1  0  0  0  0
 26 27  2  0  0  0  0
 27 21  1  0  0  0  0
 29 23  1  0  0  0  0
 29 24  2  0  0  0  0
 31 24  1  0  0  0  0
 31 25  1  0  0  0  0
 32 27  1  0  0  0  0
 32 30  1  0  0  0  0
 34 33  1  0  0  0  0
 34 37  1  0  0  0  0
 36 35  1  0  0  0  0
 36 31  1  0  0  0  0
 37 36  1  0  0  0  0
 38 39  1  0  0  0  0
 38 33  1  0  0  0  0
 38 35  1  0  0  0  0
 39 33  1  0  0  0  0
M  END
>  <MODEL>
8

>  <REMARK>
 VINA RESULT:      -8.9      2.692      9.911
  Name = 
  6 active torsions:
  status: ('A' for Active; 'I' for Inactive)
    1  A    between atoms: C_1  and  C_15
    2  A    between atoms: C_5  and  O_32
    3  A    between atoms: C_15  and  C_22
    4  A    between atoms: C_21  and  O_32
    5  A    between atoms: C_22  and  N_36
    6  A    between atoms: C_23  and  N_38
                            x       y       z     vdW  Elec       q    Type
                         _______ _______ _______ _____ _____    ______ ____

>  <TORSDO>
F 6

$$$$
=
 OpenBabel10222419353D

 39 46  0  0  1  0  0  0  0  0999 V2000
  184.4560  178.9730  140.9700 C   0  0  1  0  0  3  0  0  0  0  0  0
  184.9950  178.0270  141.9380 C   0  0  2  0  0  3  0  0  0  0  0  0
  184.4480  178.3160  143.2560 C   0  0  2  0  0  0  0  0  0  0  0  0
  184.7230  179.4370  142.3420 N   0  0  2  0  0  0  0  0  0  0  0  0
  185.4050  178.2380  144.4120 C   0  0  0  0  0  0  0  0  0  0  0  0
  188.7740  177.3010  145.3670 N   0  0  0  0  0  0  0  0  0  0  0  0
  188.2260  178.1500  148.8320 C   0  0  0  0  0  1  0  0  0  0  0  0
  187.4990  177.7150  145.3070 C   0  0  0  0  0  0  0  0  0  0  0  0
  186.6840  177.7790  144.2280 N   0  0  0  0  0  0  0  0  0  0  0  0
  189.1950  177.4040  146.6250 N   0  0  0  0  0  0  0  0  0  0  0  0
  187.0870  178.0890  146.5390 C   0  0  0  0  0  0  0  0  0  0  0  0
  184.9740  178.6150  145.7140 C   0  0  0  0  0  3  0  0  0  0  0  0
  189.5880  176.8160  144.2650 C   0  0  0  0  0  1  0  0  0  0  0  0
  188.1650  177.8880  147.3690 C   0  0  0  0  0  0  0  0  0  0  0  0
  185.8330  178.5380  146.7780 N   0  0  0  0  0  0  0  0  0  0  0  0
  182.9540  178.0920  143.4720 C   0  0  0  0  0  2  0  0  0  0  0  0
  180.3790  180.6570  143.0310 O   0  0  0  0  0  0  0  0  0  0  0  0
  180.2400  178.4090  142.2750 C   0  0  0  0  0  1  0  0  0  0  0  0
  180.9470  179.5360  142.9470 C   0  0  0  0  0  0  0  0  0  0  0  0
  182.2560  179.3690  143.4880 N   0  0  0  0  0  2  0  0  0  0  0  0
  185.4920  179.4210  140.1100 O   0  0  0  0  0  0  0  0  0  0  0  0
  183.9400  175.7140  136.3080 C   0  0  0  0  0  1  0  0  0  0  0  0
  184.8540  176.9220  136.2930 C   0  0  1  0  0  3  0  0  0  0  0  0
  186.8190  177.0430  137.6110 C   0  0  0  0  0  0  0  0  0  0  0  0
  188.5970  177.4770  139.2560 C   0  0  0  0  0  3  0  0  0  0  0  0
  185.9620  177.9480  138.3330 C   0  0  0  0  0  0  0  0  0  0  0  0
  186.3840  178.5680  139.4440 C   0  0  0  0  0  0  0  0  0  0  0  0
  184.3430  178.1010  137.6090 S   0  0  0  0  0  0  0  0  0  0  0  0
  186.2650  176.4880  136.5480 C   0  0  0  0  0  3  0  0  0  0  0  0
  188.2800  178.9460  141.0570 O   0  0  0  0  0  1  0  0  0  0  0  0
  188.1550  176.7950  138.0700 N   0  0  0  0  0  0  0  0  0  0  0  0
  187.7850  178.3140  139.9220 C   0  0  0  0  0  0  0  0  0  0  0  0
  191.8150  175.6720  137.0550 C   0  0  1  0  0  3  0  0  0  0  0  0
  191.0750  175.9470  135.7600 C   0  0  0  0  0  2  0  0  0  0  0  0
  189.9670  175.2770  138.2500 O   0  0  0  0  0  0  0  0  0  0  0  0
  189.0600  175.9100  137.3430 C   0  0  2  0  0  3  0  0  0  0  0  0
  189.7730  176.6860  136.1770 C   0  0  0  0  0  2  0  0  0  0  0  0
  190.8330  174.5820  137.4020 C   0  0  2  0  0  3  0  0  0  0  0  0
  192.1650  174.4740  137.7280 O   0  0  0  0  0  0  0  0  0  0  0  0
  1 21  1  6  0  0  0
  1  2  1  0  0  0  0
  1  4  1  0  0  0  0
  2  4  1  0  0  0  0
  2  3  1  0  0  0  0
  3 16  1  0  0  0  0
  3  5  1  0  0  0  0
  4  3  1  0  0  0  0
  5 12  1  0  0  0  0
  6 10  1  0  0  0  0
  8  6  1  0  0  0  0
  8 11  2  0  0  0  0
  9  5  2  0  0  0  0
  9  8  1  0  0  0  0
 10 14  2  0  0  0  0
 11 15  1  0  0  0  0
 11 14  1  0  0  0  0
 12 15  2  0  0  0  0
 13  6  1  0  0  0  0
 14  7  1  0  0  0  0
 16 20  1  0  0  0  0
 18 19  1  0  0  0  0
 19 17  2  0  0  0  0
 19 20  1  0  0  0  0
 23 22  1  0  0  0  0
 23 29  1  0  0  0  0
 23 28  1  0  0  0  0
 24 31  1  0  0  0  0
 24 26  1  0  0  0  0
 25 32  2  0  0  0  0
 26 27  2  0  0  0  0
 27 32  1  0  0  0  0
 27 21  1  0  0  0  0
 28 26  1  0  0  0  0
 29 24  2  0  0  0  0
 31 25  1  0  0  0  0
 32 30  1  0  0  0  0
 33 38  1  0  0  0  0
 33 39  1  0  0  0  0
 34 37  1  0  0  0  0
 34 33  1  0  0  0  0
 36 31  1  0  0  0  0
 36 35  1  0  0  0  0
 37 36  1  0  0  0  0
 38 39  1  0  0  0  0
 38 35  1  0  0  0  0
M  END
>  <MODEL>
9

>  <REMARK>
 VINA RESULT:      -8.7      2.810      8.744
  Name = 
  6 active torsions:
  status: ('A' for Active; 'I' for Inactive)
    1  A    between atoms: C_1  and  C_15
    2  A    between atoms: C_5  and  O_32
    3  A    between atoms: C_15  and  C_22
    4  A    between atoms: C_21  and  O_32
    5  A    between atoms: C_22  and  N_36
    6  A    between atoms: C_23  and  N_38
                            x       y       z     vdW  Elec       q    Type
                         _______ _______ _______ _____ _____    ______ ____

>  <TORSDO>
F 6

$$$$
