=
 OpenBabel10222417203D

 46 53  0  0  1  0  0  0  0  0999 V2000
  192.6520  177.2790  139.9130 C   0  0  0  0  0  3  0  0  0  0  0  0
  188.4180  177.7660  141.9500 C   0  0  0  0  0  0  0  0  0  0  0  0
  188.6010  178.2320  139.4150 C   0  0  0  0  0  2  0  0  0  0  0  0
  185.5200  177.9810  144.2790 C   0  0  0  0  0  0  0  0  0  0  0  0
  189.9130  175.8370  137.6740 C   0  0  2  0  0  3  0  0  0  0  0  0
  190.3780  179.1760  143.6630 O   0  0  0  0  0  0  0  0  0  0  0  0
  189.8290  177.4840  142.1040 N   0  0  0  0  0  0  0  0  0  0  0  0
  190.7330  178.3840  142.7500 C   0  0  0  0  0  0  0  0  0  0  0  0
  187.6150  175.2640  137.5800 O   0  0  0  0  0  0  0  0  0  0  0  0
  192.1250  178.3300  142.1990 C   0  0  0  0  0  2  0  0  0  0  0  0
  186.3580  179.3580  138.3110 C   0  0  0  0  0  2  0  0  0  0  0  0
  184.2110  178.3430  144.2460 N   0  0  0  0  0  0  0  0  0  0  0  0
  192.0630  176.6600  138.7980 C   0  0  0  0  0  3  0  0  0  0  0  0
  186.4460  178.5950  140.7230 C   0  0  0  0  0  0  0  0  0  0  0  0
  185.6980  178.5050  141.9110 C   0  0  0  0  0  0  0  0  0  0  0  0
  190.1250  176.0670  140.1270 C   0  0  0  0  0  3  0  0  0  0  0  0
  186.7760  178.0380  137.6660 C   0  0  1  0  0  3  0  0  0  0  0  0
  190.6470  176.8040  141.1680 C   0  0  0  0  0  0  0  0  0  0  0  0
  185.7850  179.1220  139.5940 O   0  0  0  0  0  0  0  0  0  0  0  0
  188.4420  176.1660  137.8810 C   0  0  0  0  0  0  0  0  0  0  0  0
  190.7690  176.0980  138.8910 C   0  0  0  0  0  0  0  0  0  0  0  0
  187.6450  177.7130  143.1090 C   0  0  0  0  0  3  0  0  0  0  0  0
  187.9510  177.4600  138.3350 N   0  0  0  0  0  0  0  0  0  0  0  0
  187.8090  178.1720  140.7110 C   0  0  0  0  0  0  0  0  0  0  0  0
  183.6140  178.7830  143.1070 C   0  0  0  0  0  3  0  0  0  0  0  0
  191.9120  177.3540  141.0940 C   0  0  0  0  0  0  0  0  0  0  0  0
  186.1010  177.5140  145.5730 C   0  0  0  0  0  1  0  0  0  0  0  0
  186.2960  178.0540  143.1050 C   0  0  0  0  0  0  0  0  0  0  0  0
  184.3470  178.8730  141.9240 C   0  0  0  0  0  3  0  0  0  0  0  0
  185.1930  177.1520  136.3910 C   0  0  0  0  0  1  0  0  0  0  0  0
  185.6970  177.1470  137.6930 O   0  0  0  0  0  0  0  0  0  0  0  0
  190.4100  176.5270  136.4050 C   0  0  0  0  0  2  0  0  0  0  0  0
  191.5440  175.7700  135.8050 C   0  0  0  0  0  0  0  0  0  0  0  0
  191.3890  174.5610  135.4810 O   0  0  0  0  0  0  0  0  0  0  0  0
  192.8040  176.4170  135.6150 N   0  0  0  0  0  2  0  0  0  0  0  0
  193.9480  175.7540  135.0070 C   0  0  0  0  0  2  0  0  0  0  0  0
  193.9040  173.7430  137.8830 C   0  0  0  0  0  1  0  0  0  0  0  0
  197.7040  174.0530  134.5940 C   0  0  0  0  0  1  0  0  0  0  0  0
  195.2220  176.0850  135.7690 C   0  0  2  0  0  3  0  0  0  0  0  0
  196.3970  176.1850  134.7840 C   0  0  0  0  0  2  0  0  0  0  0  0
  195.1640  174.5810  137.9800 C   0  0  2  0  0  3  0  0  0  0  0  0
  195.6740  174.9220  136.6080 C   0  0  2  0  0  3  0  0  0  0  0  0
  196.3170  173.7090  138.4940 C   0  0  0  0  0  2  0  0  0  0  0  0
  197.5280  175.3410  135.3980 C   0  0  1  0  0  3  0  0  0  0  0  0
  197.0820  175.1060  136.7680 N   0  0  2  0  0  0  0  0  0  0  0  0
  197.4610  173.9050  137.4850 C   0  0  0  0  0  2  0  0  0  0  0  0
  1 26  1  0  0  0  0
  2  7  1  0  0  0  0
  2 22  1  0  0  0  0
  3 24  1  0  0  0  0
  4 27  1  0  0  0  0
  5 32  1  6  0  0  0
  5 20  1  0  0  0  0
  5 21  1  0  0  0  0
  7  8  1  0  0  0  0
  8  6  2  0  0  0  0
  9 20  2  0  0  0  0
 10  8  1  0  0  0  0
 11 19  1  0  0  0  0
 12  4  2  0  0  0  0
 13 21  1  0  0  0  0
 13  1  2  0  0  0  0
 14 15  2  0  0  0  0
 15 29  1  0  0  0  0
 15 28  1  0  0  0  0
 16 18  1  0  0  0  0
 17 31  1  1  0  0  0
 17 11  1  0  0  0  0
 17 23  1  0  0  0  0
 18  7  1  0  0  0  0
 19 14  1  0  0  0  0
 20 23  1  0  0  0  0
 21 16  2  0  0  0  0
 23  3  1  0  0  0  0
 24 14  1  0  0  0  0
 24  2  2  0  0  0  0
 25 12  1  0  0  0  0
 26 18  2  0  0  0  0
 26 10  1  0  0  0  0
 28 22  2  0  0  0  0
 28  4  1  0  0  0  0
 29 25  2  0  0  0  0
 30 31  1  0  0  0  0
 33 32  1  0  0  0  0
 34 33  2  0  0  0  0
 35 33  1  0  0  0  0
 36 35  1  0  0  0  0
 38 44  1  0  0  0  0
 39 36  1  6  0  0  0
 39 42  1  0  0  0  0
 40 44  1  0  0  0  0
 40 39  1  0  0  0  0
 41 37  1  6  0  0  0
 41 43  1  0  0  0  0
 42 45  1  0  0  0  0
 42 41  1  0  0  0  0
 44 45  1  0  0  0  0
 45 46  1  0  0  0  0
 46 43  1  0  0  0  0
M  END
>  <MODEL>
1

>  <REMARK>
 VINA RESULT:      -7.6      0.000      0.000
  Name = 
  5 active torsions:
  status: ('A' for Active; 'I' for Inactive)
    1  A    between atoms: C_5  and  C_29
    2  A    between atoms: C_9  and  C_29
    3  A    between atoms: C_15  and  C_20
    4  A    between atoms: C_20  and  N_34
    5  A    between atoms: C_24  and  O_33
                            x       y       z     vdW  Elec       q    Type
                         _______ _______ _______ _____ _____    ______ ____

>  <TORSDO>
F 5

$$$$
=
 OpenBabel10222417203D

 46 53  0  0  1  0  0  0  0  0999 V2000
  186.1080  177.6400  142.8770 C   0  0  0  0  0  3  0  0  0  0  0  0
  189.9120  177.0090  140.1490 C   0  0  0  0  0  0  0  0  0  0  0  0
  187.5900  176.5600  139.1080 C   0  0  0  0  0  2  0  0  0  0  0  0
  193.3400  176.6910  138.7270 C   0  0  0  0  0  0  0  0  0  0  0  0
  185.4800  179.0030  139.3630 C   0  0  2  0  0  3  0  0  0  0  0  0
  190.4520  175.6540  142.7250 O   0  0  0  0  0  0  0  0  0  0  0  0
  189.3780  177.3350  141.4540 N   0  0  0  0  0  0  0  0  0  0  0  0
  189.4960  176.4620  142.5800 C   0  0  0  0  0  0  0  0  0  0  0  0
  186.5080  179.5020  137.2860 O   0  0  0  0  0  0  0  0  0  0  0  0
  188.3470  176.5620  143.5360 C   0  0  0  0  0  2  0  0  0  0  0  0
  187.6720  175.3670  136.6400 C   0  0  0  0  0  2  0  0  0  0  0  0
  193.9300  176.2870  137.5710 N   0  0  0  0  0  0  0  0  0  0  0  0
  185.4220  178.2440  141.8100 C   0  0  0  0  0  3  0  0  0  0  0  0
  189.7620  176.1220  137.8520 C   0  0  0  0  0  0  0  0  0  0  0  0
  191.1650  176.1830  137.7630 C   0  0  0  0  0  0  0  0  0  0  0  0
  187.5280  178.7690  140.7300 C   0  0  0  0  0  3  0  0  0  0  0  0
  186.9310  176.7020  136.6640 C   0  0  1  0  0  3  0  0  0  0  0  0
  188.1780  178.0450  141.7050 C   0  0  0  0  0  0  0  0  0  0  0  0
  189.0770  175.5790  136.7450 O   0  0  0  0  0  0  0  0  0  0  0  0
  186.3590  178.6260  138.1800 C   0  0  0  0  0  0  0  0  0  0  0  0
  186.1340  178.7640  140.7040 C   0  0  0  0  0  0  0  0  0  0  0  0
  191.3010  177.0310  140.0240 C   0  0  0  0  0  3  0  0  0  0  0  0
  186.9680  177.3150  138.0000 N   0  0  0  0  0  0  0  0  0  0  0  0
  189.1080  176.5890  139.0320 C   0  0  0  0  0  0  0  0  0  0  0  0
  193.2070  175.8330  136.5140 C   0  0  0  0  0  3  0  0  0  0  0  0
  187.4980  177.5360  142.7950 C   0  0  0  0  0  0  0  0  0  0  0  0
  194.2060  177.1700  139.8430 C   0  0  0  0  0  1  0  0  0  0  0  0
  191.9360  176.6480  138.8470 C   0  0  0  0  0  0  0  0  0  0  0  0
  191.8160  175.7720  136.5920 C   0  0  0  0  0  3  0  0  0  0  0  0
  186.6530  177.4460  134.5940 C   0  0  0  0  0  1  0  0  0  0  0  0
  187.4880  177.5580  135.7070 O   0  0  0  0  0  0  0  0  0  0  0  0
  184.1150  178.3350  139.2100 C   0  0  0  0  0  2  0  0  0  0  0  0
  183.0300  179.3550  139.1880 C   0  0  0  0  0  0  0  0  0  0  0  0
  183.3210  180.5780  139.0870 O   0  0  0  0  0  0  0  0  0  0  0  0
  181.6670  178.9390  139.2960 N   0  0  0  0  0  2  0  0  0  0  0  0
  180.5510  179.8730  139.2510 C   0  0  0  0  0  2  0  0  0  0  0  0
  181.1210  182.8740  137.5260 C   0  0  0  0  0  1  0  0  0  0  0  0
  181.8940  178.2540  135.6820 C   0  0  0  0  0  1  0  0  0  0  0  0
  179.8030  179.7460  137.9330 C   0  0  2  0  0  3  0  0  0  0  0  0
  180.0250  178.3420  137.3510 C   0  0  0  0  0  2  0  0  0  0  0  0
  180.2060  182.0520  136.6390 C   0  0  2  0  0  3  0  0  0  0  0  0
  180.4420  180.5850  136.8610 C   0  0  2  0  0  3  0  0  0  0  0  0
  180.6570  182.1870  135.1790 C   0  0  0  0  0  2  0  0  0  0  0  0
  180.4090  178.5580  135.8760 C   0  0  1  0  0  3  0  0  0  0  0  0
  180.0730  179.9570  135.6320 N   0  0  2  0  0  0  0  0  0  0  0  0
  180.8060  180.7470  134.6610 C   0  0  0  0  0  2  0  0  0  0  0  0
  2  7  1  0  0  0  0
  4 28  1  0  0  0  0
  4 27  1  0  0  0  0
  5 32  1  1  0  0  0
  5 21  1  0  0  0  0
  7 18  1  0  0  0  0
  7  8  1  0  0  0  0
  8  6  2  0  0  0  0
  8 10  1  0  0  0  0
  9 20  2  0  0  0  0
 11 17  1  0  0  0  0
 11 19  1  0  0  0  0
 12  4  2  0  0  0  0
 13  1  2  0  0  0  0
 14 24  1  0  0  0  0
 15 14  2  0  0  0  0
 15 28  1  0  0  0  0
 16 18  1  0  0  0  0
 17 31  1  6  0  0  0
 17 23  1  0  0  0  0
 18 26  2  0  0  0  0
 19 14  1  0  0  0  0
 20  5  1  0  0  0  0
 21 16  2  0  0  0  0
 21 13  1  0  0  0  0
 22  2  1  0  0  0  0
 23 20  1  0  0  0  0
 23  3  1  0  0  0  0
 24  3  1  0  0  0  0
 24  2  2  0  0  0  0
 25 29  2  0  0  0  0
 25 12  1  0  0  0  0
 26  1  1  0  0  0  0
 26 10  1  0  0  0  0
 28 22  2  0  0  0  0
 29 15  1  0  0  0  0
 30 31  1  0  0  0  0
 33 32  1  0  0  0  0
 33 35  1  0  0  0  0
 34 33  2  0  0  0  0
 36 35  1  0  0  0  0
 38 44  1  0  0  0  0
 39 36  1  1  0  0  0
 40 39  1  0  0  0  0
 41 42  1  0  0  0  0
 41 37  1  1  0  0  0
 42 39  1  0  0  0  0
 43 41  1  0  0  0  0
 44 40  1  0  0  0  0
 45 44  1  0  0  0  0
 45 42  1  0  0  0  0
 46 43  1  0  0  0  0
 46 45  1  0  0  0  0
M  END
>  <MODEL>
2

>  <REMARK>
 VINA RESULT:      -7.1      3.415      9.991
  Name = 
  5 active torsions:
  status: ('A' for Active; 'I' for Inactive)
    1  A    between atoms: C_5  and  C_29
    2  A    between atoms: C_9  and  C_29
    3  A    between atoms: C_15  and  C_20
    4  A    between atoms: C_20  and  N_34
    5  A    between atoms: C_24  and  O_33
                            x       y       z     vdW  Elec       q    Type
                         _______ _______ _______ _____ _____    ______ ____

>  <TORSDO>
F 5

$$$$
=
 OpenBabel10222417203D

 46 53  0  0  1  0  0  0  0  0999 V2000
  186.1900  177.6660  142.8030 C   0  0  0  0  0  3  0  0  0  0  0  0
  190.0640  176.9690  140.1920 C   0  0  0  0  0  0  0  0  0  0  0  0
  187.7710  176.4910  139.1030 C   0  0  0  0  0  2  0  0  0  0  0  0
  193.5280  176.6180  138.8680 C   0  0  0  0  0  0  0  0  0  0  0  0
  185.6530  178.9370  139.2400 C   0  0  2  0  0  3  0  0  0  0  0  0
  190.5370  175.6810  142.8150 O   0  0  0  0  0  0  0  0  0  0  0  0
  189.4960  177.3280  141.4740 N   0  0  0  0  0  0  0  0  0  0  0  0
  189.5850  176.4840  142.6250 C   0  0  0  0  0  0  0  0  0  0  0  0
  186.7340  179.3840  137.1790 O   0  0  0  0  0  0  0  0  0  0  0  0
  188.4120  176.6070  143.5480 C   0  0  0  0  0  2  0  0  0  0  0  0
  187.9170  175.2360  136.6700 C   0  0  0  0  0  2  0  0  0  0  0  0
  194.1480  176.1860  137.7390 N   0  0  0  0  0  0  0  0  0  0  0  0
  185.5320  178.2410  141.7040 C   0  0  0  0  0  3  0  0  0  0  0  0
  189.9750  176.0230  137.9150 C   0  0  0  0  0  0  0  0  0  0  0  0
  191.3800  176.0840  137.8610 C   0  0  0  0  0  0  0  0  0  0  0  0
  187.6650  178.7410  140.6660 C   0  0  0  0  0  3  0  0  0  0  0  0
  187.1750  176.5700  136.6400 C   0  0  1  0  0  3  0  0  0  0  0  0
  188.2900  178.0430  141.6760 C   0  0  0  0  0  0  0  0  0  0  0  0
  189.3190  175.4520  136.8060 O   0  0  0  0  0  0  0  0  0  0  0  0
  186.5630  178.5310  138.0910 C   0  0  0  0  0  0  0  0  0  0  0  0
  186.2720  178.7340  140.6040 C   0  0  0  0  0  0  0  0  0  0  0  0
  191.4560  176.9900  140.1030 C   0  0  0  0  0  3  0  0  0  0  0  0
  187.1770  177.2170  137.9600 N   0  0  0  0  0  0  0  0  0  0  0  0
  189.2900  176.5200  139.0660 C   0  0  0  0  0  0  0  0  0  0  0  0
  193.4530  175.7040  136.6750 C   0  0  0  0  0  3  0  0  0  0  0  0
  187.5810  177.5610  142.7600 C   0  0  0  0  0  0  0  0  0  0  0  0
  194.3650  177.1280  139.9940 C   0  0  0  0  0  1  0  0  0  0  0  0
  192.1220  176.5770  138.9530 C   0  0  0  0  0  0  0  0  0  0  0  0
  192.0610  175.6440  136.7190 C   0  0  0  0  0  3  0  0  0  0  0  0
  186.8750  177.3700  134.5940 C   0  0  0  0  0  1  0  0  0  0  0  0
  187.7570  177.4020  135.6760 O   0  0  0  0  0  0  0  0  0  0  0  0
  184.2930  178.2640  139.0690 C   0  0  0  0  0  2  0  0  0  0  0  0
  183.2240  179.2820  138.8640 C   0  0  0  0  0  0  0  0  0  0  0  0
  183.4640  180.4980  139.0960 O   0  0  0  0  0  0  0  0  0  0  0  0
  181.9310  178.8680  138.4190 N   0  0  0  0  0  2  0  0  0  0  0  0
  180.8460  179.8050  138.1660 C   0  0  0  0  0  2  0  0  0  0  0  0
  179.9290  176.4180  138.2270 C   0  0  0  0  0  1  0  0  0  0  0  0
  181.3380  179.1350  142.2260 C   0  0  0  0  0  1  0  0  0  0  0  0
  179.7740  179.6800  139.2380 C   0  0  2  0  0  3  0  0  0  0  0  0
  180.1840  180.5030  140.4700 C   0  0  0  0  0  2  0  0  0  0  0  0
  179.0490  177.1060  139.2530 C   0  0  2  0  0  3  0  0  0  0  0  0
  179.7550  178.2990  139.8320 C   0  0  2  0  0  3  0  0  0  0  0  0
  178.9340  176.2200  140.5000 C   0  0  0  0  0  2  0  0  0  0  0  0
  179.9800  179.5720  141.6780 C   0  0  1  0  0  3  0  0  0  0  0  0
  179.1970  178.4660  141.1370 N   0  0  2  0  0  0  0  0  0  0  0  0
  179.3080  177.1280  141.6830 C   0  0  0  0  0  2  0  0  0  0  0  0
  2  7  1  0  0  0  0
  4 28  1  0  0  0  0
  4 27  1  0  0  0  0
  5 32  1  1  0  0  0
  5 21  1  0  0  0  0
  7 18  1  0  0  0  0
  7  8  1  0  0  0  0
  8  6  2  0  0  0  0
  8 10  1  0  0  0  0
  9 20  2  0  0  0  0
 11 19  1  0  0  0  0
 12  4  2  0  0  0  0
 13  1  2  0  0  0  0
 14 24  1  0  0  0  0
 15 14  2  0  0  0  0
 15 28  1  0  0  0  0
 16 18  1  0  0  0  0
 17 31  1  6  0  0  0
 17 11  1  0  0  0  0
 17 23  1  0  0  0  0
 18 26  2  0  0  0  0
 19 14  1  0  0  0  0
 20  5  1  0  0  0  0
 21 16  2  0  0  0  0
 21 13  1  0  0  0  0
 22  2  1  0  0  0  0
 23 20  1  0  0  0  0
 23  3  1  0  0  0  0
 24  3  1  0  0  0  0
 24  2  2  0  0  0  0
 25 29  2  0  0  0  0
 25 12  1  0  0  0  0
 26  1  1  0  0  0  0
 26 10  1  0  0  0  0
 28 22  2  0  0  0  0
 29 15  1  0  0  0  0
 30 31  1  0  0  0  0
 33 32  1  0  0  0  0
 33 34  2  0  0  0  0
 35 33  1  0  0  0  0
 36 35  1  0  0  0  0
 39 36  1  6  0  0  0
 39 42  1  0  0  0  0
 39 40  1  0  0  0  0
 40 44  1  0  0  0  0
 41 37  1  6  0  0  0
 41 42  1  0  0  0  0
 41 43  1  0  0  0  0
 42 45  1  0  0  0  0
 43 46  1  0  0  0  0
 44 38  1  0  0  0  0
 45 44  1  0  0  0  0
 45 46  1  0  0  0  0
M  END
>  <MODEL>
3

>  <REMARK>
 VINA RESULT:      -6.7      3.047     10.159
  Name = 
  5 active torsions:
  status: ('A' for Active; 'I' for Inactive)
    1  A    between atoms: C_5  and  C_29
    2  A    between atoms: C_9  and  C_29
    3  A    between atoms: C_15  and  C_20
    4  A    between atoms: C_20  and  N_34
    5  A    between atoms: C_24  and  O_33
                            x       y       z     vdW  Elec       q    Type
                         _______ _______ _______ _____ _____    ______ ____

>  <TORSDO>
F 5

$$$$
=
 OpenBabel10222417203D

 46 53  0  0  1  0  0  0  0  0999 V2000
  183.1810  178.7590  142.5560 C   0  0  0  0  0  3  0  0  0  0  0  0
  186.9640  178.1870  145.3260 C   0  0  0  0  0  0  0  0  0  0  0  0
  187.0200  177.1280  142.9700 C   0  0  0  0  0  2  0  0  0  0  0  0
  189.4560  178.1450  148.0930 C   0  0  0  0  0  0  0  0  0  0  0  0
  186.3980  179.1710  140.5360 C   0  0  2  0  0  3  0  0  0  0  0  0
  184.5790  177.5570  146.9640 O   0  0  0  0  0  0  0  0  0  0  0  0
  185.6190  178.7030  145.1750 N   0  0  0  0  0  0  0  0  0  0  0  0
  184.4920  178.1370  145.8490 C   0  0  0  0  0  0  0  0  0  0  0  0
  188.7550  179.3590  140.6980 O   0  0  0  0  0  0  0  0  0  0  0  0
  183.2150  178.2530  145.0760 C   0  0  0  0  0  2  0  0  0  0  0  0
  189.1410  175.4440  142.5410 C   0  0  0  0  0  2  0  0  0  0  0  0
  190.6710  177.5990  148.3630 N   0  0  0  0  0  0  0  0  0  0  0  0
  184.0090  178.9820  141.4430 C   0  0  0  0  0  3  0  0  0  0  0  0
  188.8900  176.7950  144.6670 C   0  0  0  0  0  0  0  0  0  0  0  0
  189.4850  177.0720  145.9110 C   0  0  0  0  0  0  0  0  0  0  0  0
  185.8390  179.6020  142.9060 C   0  0  0  0  0  3  0  0  0  0  0  0
  189.0550  176.6040  141.5520 C   0  0  1  0  0  3  0  0  0  0  0  0
  185.0650  179.2360  143.9860 C   0  0  0  0  0  0  0  0  0  0  0  0
  189.5810  175.9100  143.8140 O   0  0  0  0  0  0  0  0  0  0  0  0
  187.7460  178.6930  141.0550 C   0  0  0  0  0  0  0  0  0  0  0  0
  185.3620  179.3540  141.6200 C   0  0  0  0  0  0  0  0  0  0  0  0
  187.5810  178.4170  146.5550 C   0  0  0  0  0  3  0  0  0  0  0  0
  187.9310  177.4990  141.8670 N   0  0  0  0  0  0  0  0  0  0  0  0
  187.6400  177.3970  144.3320 C   0  0  0  0  0  0  0  0  0  0  0  0
  191.3160  176.8030  147.4690 C   0  0  0  0  0  3  0  0  0  0  0  0
  183.7400  178.8770  143.8290 C   0  0  0  0  0  0  0  0  0  0  0  0
  188.8120  179.0040  149.1310 C   0  0  0  0  0  1  0  0  0  0  0  0
  188.8350  177.8930  146.8540 C   0  0  0  0  0  0  0  0  0  0  0  0
  190.7350  176.5260  146.2330 C   0  0  0  0  0  3  0  0  0  0  0  0
  190.9440  176.8580  140.4190 C   0  0  0  0  0  1  0  0  0  0  0  0
  190.2670  177.3050  141.5550 O   0  0  0  0  0  0  0  0  0  0  0  0
  185.9470  178.2640  139.3930 C   0  0  0  0  0  2  0  0  0  0  0  0
  187.0300  178.1160  138.3800 C   0  0  0  0  0  0  0  0  0  0  0  0
  187.3350  179.0920  137.6420 O   0  0  0  0  0  0  0  0  0  0  0  0
  187.7040  176.8640  138.2440 N   0  0  0  0  0  2  0  0  0  0  0  0
  188.7920  176.6510  137.3000 C   0  0  0  0  0  2  0  0  0  0  0  0
  191.2820  174.2720  136.6280 C   0  0  0  0  0  1  0  0  0  0  0  0
  186.3830  173.2800  137.2370 C   0  0  0  0  0  1  0  0  0  0  0  0
  188.3040  175.8640  136.0940 C   0  0  2  0  0  3  0  0  0  0  0  0
  186.8090  175.5500  136.2580 C   0  0  0  0  0  2  0  0  0  0  0  0
  190.2230  174.0790  135.5600 C   0  0  2  0  0  3  0  0  0  0  0  0
  188.8710  174.4710  136.0860 C   0  0  2  0  0  3  0  0  0  0  0  0
  190.0040  172.5790  135.3250 C   0  0  0  0  0  2  0  0  0  0  0  0
  186.6620  174.0500  135.9460 C   0  0  1  0  0  3  0  0  0  0  0  0
  187.9370  173.6960  135.3310 N   0  0  2  0  0  0  0  0  0  0  0  0
  188.4870  172.3610  135.4560 C   0  0  0  0  0  2  0  0  0  0  0  0
  1 26  1  0  0  0  0
  2 22  1  0  0  0  0
  3 24  1  0  0  0  0
  4 12  2  0  0  0  0
  4 27  1  0  0  0  0
  5 32  1  6  0  0  0
  5 20  1  0  0  0  0
  5 21  1  0  0  0  0
  7  2  1  0  0  0  0
  7  8  1  0  0  0  0
  8  6  2  0  0  0  0
  9 20  2  0  0  0  0
 10  8  1  0  0  0  0
 11 19  1  0  0  0  0
 13 21  1  0  0  0  0
 13  1  2  0  0  0  0
 14 15  2  0  0  0  0
 15 29  1  0  0  0  0
 15 28  1  0  0  0  0
 16 18  1  0  0  0  0
 17 31  1  1  0  0  0
 17 23  1  0  0  0  0
 17 11  1  0  0  0  0
 18  7  1  0  0  0  0
 19 14  1  0  0  0  0
 20 23  1  0  0  0  0
 21 16  2  0  0  0  0
 22 28  2  0  0  0  0
 23  3  1  0  0  0  0
 24 14  1  0  0  0  0
 24  2  2  0  0  0  0
 25 12  1  0  0  0  0
 26 18  2  0  0  0  0
 26 10  1  0  0  0  0
 28  4  1  0  0  0  0
 29 25  2  0  0  0  0
 30 31  1  0  0  0  0
 33 32  1  0  0  0  0
 34 33  2  0  0  0  0
 35 33  1  0  0  0  0
 36 35  1  0  0  0  0
 39 40  1  0  0  0  0
 39 36  1  1  0  0  0
 41 42  1  0  0  0  0
 41 37  1  1  0  0  0
 42 39  1  0  0  0  0
 43 46  1  0  0  0  0
 43 41  1  0  0  0  0
 44 40  1  0  0  0  0
 44 38  1  0  0  0  0
 45 46  1  0  0  0  0
 45 44  1  0  0  0  0
 45 42  1  0  0  0  0
M  END
>  <MODEL>
4

>  <REMARK>
 VINA RESULT:      -6.4      3.384      6.837
  Name = 
  5 active torsions:
  status: ('A' for Active; 'I' for Inactive)
    1  A    between atoms: C_5  and  C_29
    2  A    between atoms: C_9  and  C_29
    3  A    between atoms: C_15  and  C_20
    4  A    between atoms: C_20  and  N_34
    5  A    between atoms: C_24  and  O_33
                            x       y       z     vdW  Elec       q    Type
                         _______ _______ _______ _____ _____    ______ ____

>  <TORSDO>
F 5

$$$$
=
 OpenBabel10222417203D

 46 53  0  0  1  0  0  0  0  0999 V2000
  183.0210  178.8370  143.4060 C   0  0  0  0  0  3  0  0  0  0  0  0
  187.1280  178.1840  145.6480 C   0  0  0  0  0  0  0  0  0  0  0  0
  186.8880  177.2250  143.2610 C   0  0  0  0  0  2  0  0  0  0  0  0
  189.9520  178.0490  148.0720 C   0  0  0  0  0  0  0  0  0  0  0  0
  185.9540  179.3620  141.0140 C   0  0  2  0  0  3  0  0  0  0  0  0
  184.9740  177.4650  147.5470 O   0  0  0  0  0  0  0  0  0  0  0  0
  185.7730  178.6930  145.6910 N   0  0  0  0  0  0  0  0  0  0  0  0
  184.7430  178.0900  146.4770 C   0  0  0  0  0  0  0  0  0  0  0  0
  188.3120  179.5640  140.8840 O   0  0  0  0  0  0  0  0  0  0  0  0
  183.3770  178.2260  145.8780 C   0  0  0  0  0  2  0  0  0  0  0  0
  188.9430  175.5790  142.4950 C   0  0  0  0  0  2  0  0  0  0  0  0
  191.1930  177.5030  148.1610 N   0  0  0  0  0  0  0  0  0  0  0  0
  183.7000  179.1140  142.2080 C   0  0  0  0  0  3  0  0  0  0  0  0
  188.9600  176.8380  144.6910 C   0  0  0  0  0  0  0  0  0  0  0  0
  189.7080  177.0680  145.8600 C   0  0  0  0  0  0  0  0  0  0  0  0
  185.7000  179.6880  143.4520 C   0  0  0  0  0  3  0  0  0  0  0  0
  188.7280  176.7790  141.5750 C   0  0  1  0  0  3  0  0  0  0  0  0
  185.0700  179.2710  144.6050 C   0  0  0  0  0  0  0  0  0  0  0  0
  189.5400  175.9950  143.7200 O   0  0  0  0  0  0  0  0  0  0  0  0
  187.3590  178.8750  141.3370 C   0  0  0  0  0  0  0  0  0  0  0  0
  185.0630  179.4910  142.2280 C   0  0  0  0  0  0  0  0  0  0  0  0
  187.8960  178.3680  146.7970 C   0  0  0  0  0  3  0  0  0  0  0  0
  187.6500  177.6490  142.0670 N   0  0  0  0  0  0  0  0  0  0  0  0
  187.6750  177.4420  144.5430 C   0  0  0  0  0  0  0  0  0  0  0  0
  191.7220  176.7510  147.1600 C   0  0  0  0  0  3  0  0  0  0  0  0
  183.7370  178.9060  144.6030 C   0  0  0  0  0  0  0  0  0  0  0  0
  189.4420  178.8580  149.2180 C   0  0  0  0  0  1  0  0  0  0  0  0
  189.1790  177.8430  146.9120 C   0  0  0  0  0  0  0  0  0  0  0  0
  190.9890  176.5200  145.9970 C   0  0  0  0  0  3  0  0  0  0  0  0
  190.6170  176.8600  140.4160 C   0  0  0  0  0  1  0  0  0  0  0  0
  189.9280  177.4900  141.4540 O   0  0  0  0  0  0  0  0  0  0  0  0
  185.3650  178.4990  139.9000 C   0  0  0  0  0  2  0  0  0  0  0  0
  184.3090  179.2450  139.1590 C   0  0  0  0  0  0  0  0  0  0  0  0
  184.4650  180.4720  138.9120 O   0  0  0  0  0  0  0  0  0  0  0  0
  183.1210  178.5670  138.7470 N   0  0  0  0  0  2  0  0  0  0  0  0
  182.0600  179.2190  137.9940 C   0  0  0  0  0  2  0  0  0  0  0  0
  183.5460  177.0540  135.6660 C   0  0  0  0  0  1  0  0  0  0  0  0
  181.1180  175.6320  139.8410 C   0  0  0  0  0  1  0  0  0  0  0  0
  180.9840  178.2140  137.6100 C   0  0  2  0  0  3  0  0  0  0  0  0
  180.2290  177.7660  138.8710 C   0  0  0  0  0  2  0  0  0  0  0  0
  182.1090  176.5920  135.8050 C   0  0  2  0  0  3  0  0  0  0  0  0
  181.5880  176.9060  137.1790 C   0  0  2  0  0  3  0  0  0  0  0  0
  182.0680  175.0590  135.8380 C   0  0  0  0  0  2  0  0  0  0  0  0
  180.1740  176.2290  138.7980 C   0  0  1  0  0  3  0  0  0  0  0  0
  180.5730  175.9320  137.4260 N   0  0  2  0  0  0  0  0  0  0  0  0
  181.2570  174.6980  137.0940 C   0  0  0  0  0  2  0  0  0  0  0  0
  1 26  1  0  0  0  0
  2  7  1  0  0  0  0
  2 22  1  0  0  0  0
  3 24  1  0  0  0  0
  4 12  2  0  0  0  0
  4 27  1  0  0  0  0
  5 32  1  6  0  0  0
  5 20  1  0  0  0  0
  5 21  1  0  0  0  0
  7  8  1  0  0  0  0
  8  6  2  0  0  0  0
  9 20  2  0  0  0  0
 10  8  1  0  0  0  0
 11 19  1  0  0  0  0
 13 21  1  0  0  0  0
 13  1  2  0  0  0  0
 14 15  2  0  0  0  0
 15 29  1  0  0  0  0
 15 28  1  0  0  0  0
 16 18  1  0  0  0  0
 17 31  1  1  0  0  0
 17 23  1  0  0  0  0
 17 11  1  0  0  0  0
 18  7  1  0  0  0  0
 19 14  1  0  0  0  0
 20 23  1  0  0  0  0
 21 16  2  0  0  0  0
 22 28  2  0  0  0  0
 23  3  1  0  0  0  0
 24 14  1  0  0  0  0
 24  2  2  0  0  0  0
 25 12  1  0  0  0  0
 26 18  2  0  0  0  0
 26 10  1  0  0  0  0
 28  4  1  0  0  0  0
 29 25  2  0  0  0  0
 30 31  1  0  0  0  0
 33 32  1  0  0  0  0
 34 33  2  0  0  0  0
 35 33  1  0  0  0  0
 36 35  1  0  0  0  0
 39 36  1  1  0  0  0
 39 40  1  0  0  0  0
 41 37  1  1  0  0  0
 41 43  1  0  0  0  0
 41 42  1  0  0  0  0
 42 45  1  0  0  0  0
 42 39  1  0  0  0  0
 43 46  1  0  0  0  0
 44 40  1  0  0  0  0
 44 38  1  0  0  0  0
 45 44  1  0  0  0  0
 46 45  1  0  0  0  0
M  END
>  <MODEL>
5

>  <REMARK>
 VINA RESULT:      -6.3      4.588      9.547
  Name = 
  5 active torsions:
  status: ('A' for Active; 'I' for Inactive)
    1  A    between atoms: C_5  and  C_29
    2  A    between atoms: C_9  and  C_29
    3  A    between atoms: C_15  and  C_20
    4  A    between atoms: C_20  and  N_34
    5  A    between atoms: C_24  and  O_33
                            x       y       z     vdW  Elec       q    Type
                         _______ _______ _______ _____ _____    ______ ____

>  <TORSDO>
F 5

$$$$
=
 OpenBabel10222417203D

 46 53  0  0  1  0  0  0  0  0999 V2000
  185.6480  172.1760  135.9800 C   0  0  0  0  0  3  0  0  0  0  0  0
  183.4840  176.2750  136.8940 C   0  0  0  0  0  0  0  0  0  0  0  0
  185.9130  175.9790  137.7250 C   0  0  0  0  0  2  0  0  0  0  0  0
  181.0990  179.1130  137.2530 C   0  0  0  0  0  0  0  0  0  0  0  0
  188.0420  175.1060  135.4470 C   0  0  2  0  0  3  0  0  0  0  0  0
  181.6000  174.1110  137.6260 O   0  0  0  0  0  0  0  0  0  0  0  0
  183.4030  174.9410  136.3380 N   0  0  0  0  0  0  0  0  0  0  0  0
  182.6360  173.8960  136.9410 C   0  0  0  0  0  0  0  0  0  0  0  0
  188.1870  177.4690  135.3260 O   0  0  0  0  0  0  0  0  0  0  0  0
  183.2130  172.5300  136.7250 C   0  0  0  0  0  2  0  0  0  0  0  0
  186.7800  177.9640  139.4060 C   0  0  0  0  0  2  0  0  0  0  0  0
  181.0500  180.3330  137.8490 N   0  0  0  0  0  0  0  0  0  0  0  0
  186.8380  172.8550  135.6700 C   0  0  0  0  0  3  0  0  0  0  0  0
  184.5250  178.0470  138.2580 C   0  0  0  0  0  0  0  0  0  0  0  0
  183.3540  178.8130  138.1140 C   0  0  0  0  0  0  0  0  0  0  0  0
  185.5890  174.8850  135.2320 C   0  0  0  0  0  3  0  0  0  0  0  0
  187.6370  177.7860  138.1550 C   0  0  1  0  0  3  0  0  0  0  0  0
  184.4510  174.2500  135.6820 C   0  0  0  0  0  0  0  0  0  0  0  0
  185.5420  178.5860  139.0730 O   0  0  0  0  0  0  0  0  0  0  0  0
  187.7590  176.4940  136.0010 C   0  0  0  0  0  0  0  0  0  0  0  0
  186.8150  174.2310  135.3450 C   0  0  0  0  0  0  0  0  0  0  0  0
  182.3350  177.0590  136.7960 C   0  0  0  0  0  3  0  0  0  0  0  0
  187.0920  176.7460  137.2710 N   0  0  0  0  0  0  0  0  0  0  0  0
  184.6290  176.7840  137.6000 C   0  0  0  0  0  0  0  0  0  0  0  0
  182.0920  180.8250  138.5690 C   0  0  0  0  0  3  0  0  0  0  0  0
  184.4570  172.9050  135.9960 C   0  0  0  0  0  0  0  0  0  0  0  0
  179.9090  178.6430  136.4830 C   0  0  0  0  0  1  0  0  0  0  0  0
  182.2600  178.3220  137.3730 C   0  0  0  0  0  0  0  0  0  0  0  0
  183.2570  180.0740  138.7150 C   0  0  0  0  0  3  0  0  0  0  0  0
  189.0610  179.4140  137.6620 C   0  0  0  0  0  1  0  0  0  0  0  0
  187.7360  179.0110  137.4840 O   0  0  0  0  0  0  0  0  0  0  0  0
  189.1910  174.4750  136.2310 C   0  0  0  0  0  2  0  0  0  0  0  0
  190.4980  175.0510  135.8050 C   0  0  0  0  0  0  0  0  0  0  0  0
  190.6860  175.3480  134.5940 O   0  0  0  0  0  0  0  0  0  0  0  0
  191.5320  175.2480  136.7710 N   0  0  0  0  0  2  0  0  0  0  0  0
  192.8220  175.8330  136.4380 C   0  0  0  0  0  2  0  0  0  0  0  0
  195.5800  177.4470  134.9870 C   0  0  0  0  0  1  0  0  0  0  0  0
  195.7630  174.3470  138.9510 C   0  0  0  0  0  1  0  0  0  0  0  0
  193.8440  174.7430  136.1530 C   0  0  2  0  0  3  0  0  0  0  0  0
  193.9160  173.7830  137.3510 C   0  0  0  0  0  2  0  0  0  0  0  0
  195.9260  175.9710  135.0100 C   0  0  2  0  0  3  0  0  0  0  0  0
  195.2440  175.2910  136.1620 C   0  0  2  0  0  3  0  0  0  0  0  0
  197.3950  175.8000  135.4180 C   0  0  0  0  0  2  0  0  0  0  0  0
  195.4160  173.6120  137.6570 C   0  0  1  0  0  3  0  0  0  0  0  0
  196.0760  174.1740  136.4830 N   0  0  2  0  0  0  0  0  0  0  0  0
  197.3830  174.7930  136.5800 C   0  0  0  0  0  2  0  0  0  0  0  0
  1 26  1  0  0  0  0
  2 24  1  0  0  0  0
  4 28  2  0  0  0  0
  4 12  1  0  0  0  0
  5 20  1  0  0  0  0
  5 32  1  1  0  0  0
  7  2  1  0  0  0  0
  7  8  1  0  0  0  0
  8  6  2  0  0  0  0
  9 20  2  0  0  0  0
 10  8  1  0  0  0  0
 12 25  2  0  0  0  0
 13  1  2  0  0  0  0
 14 19  1  0  0  0  0
 15 14  1  0  0  0  0
 15 29  2  0  0  0  0
 16 21  2  0  0  0  0
 16 18  1  0  0  0  0
 17 31  1  6  0  0  0
 17 11  1  0  0  0  0
 18 26  2  0  0  0  0
 18  7  1  0  0  0  0
 19 11  1  0  0  0  0
 20 23  1  0  0  0  0
 21  5  1  0  0  0  0
 21 13  1  0  0  0  0
 22  2  2  0  0  0  0
 22 28  1  0  0  0  0
 23  3  1  0  0  0  0
 23 17  1  0  0  0  0
 24  3  1  0  0  0  0
 24 14  2  0  0  0  0
 25 29  1  0  0  0  0
 26 10  1  0  0  0  0
 27  4  1  0  0  0  0
 28 15  1  0  0  0  0
 31 30  1  0  0  0  0
 33 32  1  0  0  0  0
 33 35  1  0  0  0  0
 34 33  2  0  0  0  0
 36 35  1  0  0  0  0
 39 42  1  0  0  0  0
 39 36  1  1  0  0  0
 39 40  1  0  0  0  0
 40 44  1  0  0  0  0
 41 37  1  1  0  0  0
 41 43  1  0  0  0  0
 41 42  1  0  0  0  0
 42 45  1  0  0  0  0
 43 46  1  0  0  0  0
 44 38  1  0  0  0  0
 45 46  1  0  0  0  0
 45 44  1  0  0  0  0
M  END
>  <MODEL>
6

>  <REMARK>
 VINA RESULT:      -6.2      3.243      5.885
  Name = 
  5 active torsions:
  status: ('A' for Active; 'I' for Inactive)
    1  A    between atoms: C_5  and  C_29
    2  A    between atoms: C_9  and  C_29
    3  A    between atoms: C_15  and  C_20
    4  A    between atoms: C_20  and  N_34
    5  A    between atoms: C_24  and  O_33
                            x       y       z     vdW  Elec       q    Type
                         _______ _______ _______ _____ _____    ______ ____

>  <TORSDO>
F 5

$$$$
=
 OpenBabel10222417203D

 46 53  0  0  1  0  0  0  0  0999 V2000
  186.1540  177.6650  143.2200 C   0  0  0  0  0  3  0  0  0  0  0  0
  189.7420  177.0850  140.2010 C   0  0  0  0  0  0  0  0  0  0  0  0
  187.3530  176.5940  139.3480 C   0  0  0  0  0  2  0  0  0  0  0  0
  193.0510  176.8180  138.5140 C   0  0  0  0  0  0  0  0  0  0  0  0
  185.2290  179.0030  139.7630 C   0  0  2  0  0  3  0  0  0  0  0  0
  190.5050  175.7500  142.7310 O   0  0  0  0  0  0  0  0  0  0  0  0
  189.3070  177.4080  141.5440 N   0  0  0  0  0  0  0  0  0  0  0  0
  189.5280  176.5410  142.6590 C   0  0  0  0  0  0  0  0  0  0  0  0
  186.0810  179.5100  137.6100 O   0  0  0  0  0  0  0  0  0  0  0  0
  188.4560  176.6260  143.7030 C   0  0  0  0  0  2  0  0  0  0  0  0
  187.2600  175.3930  136.8850 C   0  0  0  0  0  2  0  0  0  0  0  0
  193.5550  176.4190  137.3170 N   0  0  0  0  0  0  0  0  0  0  0  0
  185.3770  178.2530  142.2080 C   0  0  0  0  0  3  0  0  0  0  0  0
  189.4260  176.1860  137.9260 C   0  0  0  0  0  0  0  0  0  0  0  0
  190.8160  176.2700  137.7260 C   0  0  0  0  0  0  0  0  0  0  0  0
  187.3810  178.8080  140.9640 C   0  0  0  0  0  3  0  0  0  0  0  0
  186.5010  176.7150  136.9640 C   0  0  1  0  0  3  0  0  0  0  0  0
  188.1190  178.0990  141.8870 C   0  0  0  0  0  0  0  0  0  0  0  0
  188.6650  175.6280  136.8780 O   0  0  0  0  0  0  0  0  0  0  0  0
  186.0180  178.6350  138.5150 C   0  0  0  0  0  0  0  0  0  0  0  0
  185.9900  178.7800  141.0480 C   0  0  0  0  0  0  0  0  0  0  0  0
  191.1160  177.1300  139.9670 C   0  0  0  0  0  3  0  0  0  0  0  0
  186.6320  177.3340  138.2910 N   0  0  0  0  0  0  0  0  0  0  0  0
  188.8600  176.6470  139.1530 C   0  0  0  0  0  0  0  0  0  0  0  0
  192.7590  175.9490  136.3210 C   0  0  0  0  0  3  0  0  0  0  0  0
  187.5350  177.5830  143.0290 C   0  0  0  0  0  0  0  0  0  0  0  0
  193.9950  177.3170  139.5580 C   0  0  0  0  0  1  0  0  0  0  0  0
  191.6620  176.7520  138.7450 C   0  0  0  0  0  0  0  0  0  0  0  0
  191.3800  175.8660  136.5090 C   0  0  0  0  0  3  0  0  0  0  0  0
  186.1490  177.3220  134.8600 C   0  0  0  0  0  1  0  0  0  0  0  0
  186.9660  177.5760  135.9630 O   0  0  0  0  0  0  0  0  0  0  0  0
  183.8670  178.3110  139.7200 C   0  0  0  0  0  2  0  0  0  0  0  0
  183.1510  178.6390  138.4550 C   0  0  0  0  0  0  0  0  0  0  0  0
  182.6970  179.8020  138.2750 O   0  0  0  0  0  0  0  0  0  0  0  0
  182.9710  177.6270  137.4620 N   0  0  0  0  0  2  0  0  0  0  0  0
  182.3100  177.8780  136.1900 C   0  0  0  0  0  2  0  0  0  0  0  0
  183.5770  174.6510  135.6440 C   0  0  0  0  0  1  0  0  0  0  0  0
  180.1790  175.9000  139.1420 C   0  0  0  0  0  1  0  0  0  0  0  0
  181.0980  176.9730  136.0320 C   0  0  2  0  0  3  0  0  0  0  0  0
  180.0460  177.3370  137.0910 C   0  0  0  0  0  2  0  0  0  0  0  0
  182.0680  174.5230  135.5750 C   0  0  2  0  0  3  0  0  0  0  0  0
  181.4140  175.5610  136.4420 C   0  0  2  0  0  3  0  0  0  0  0  0
  181.6330  173.2430  136.3010 C   0  0  0  0  0  2  0  0  0  0  0  0
  179.6150  176.0020  137.7250 C   0  0  1  0  0  3  0  0  0  0  0  0
  180.1570  174.9950  136.8180 N   0  0  2  0  0  0  0  0  0  0  0  0
  180.5510  173.6860  137.2990 C   0  0  0  0  0  2  0  0  0  0  0  0
  2  7  1  0  0  0  0
  4 28  1  0  0  0  0
  4 27  1  0  0  0  0
  5 32  1  1  0  0  0
  5 21  1  0  0  0  0
  7 18  1  0  0  0  0
  7  8  1  0  0  0  0
  8  6  2  0  0  0  0
  8 10  1  0  0  0  0
  9 20  2  0  0  0  0
 11 17  1  0  0  0  0
 12  4  2  0  0  0  0
 13  1  2  0  0  0  0
 14 24  1  0  0  0  0
 15 14  2  0  0  0  0
 15 28  1  0  0  0  0
 16 21  2  0  0  0  0
 16 18  1  0  0  0  0
 17 31  1  6  0  0  0
 17 23  1  0  0  0  0
 18 26  2  0  0  0  0
 19 11  1  0  0  0  0
 19 14  1  0  0  0  0
 20  5  1  0  0  0  0
 21 13  1  0  0  0  0
 22  2  1  0  0  0  0
 23 20  1  0  0  0  0
 23  3  1  0  0  0  0
 24  3  1  0  0  0  0
 24  2  2  0  0  0  0
 25 29  2  0  0  0  0
 25 12  1  0  0  0  0
 26  1  1  0  0  0  0
 26 10  1  0  0  0  0
 28 22  2  0  0  0  0
 29 15  1  0  0  0  0
 30 31  1  0  0  0  0
 33 32  1  0  0  0  0
 34 33  2  0  0  0  0
 35 33  1  0  0  0  0
 36 35  1  0  0  0  0
 39 36  1  1  0  0  0
 39 42  1  0  0  0  0
 39 40  1  0  0  0  0
 40 44  1  0  0  0  0
 41 37  1  1  0  0  0
 41 43  1  0  0  0  0
 41 42  1  0  0  0  0
 42 45  1  0  0  0  0
 43 46  1  0  0  0  0
 44 38  1  0  0  0  0
 45 46  1  0  0  0  0
 45 44  1  0  0  0  0
M  END
>  <MODEL>
7

>  <REMARK>
 VINA RESULT:      -6.0      2.996      9.310
  Name = 
  5 active torsions:
  status: ('A' for Active; 'I' for Inactive)
    1  A    between atoms: C_5  and  C_29
    2  A    between atoms: C_9  and  C_29
    3  A    between atoms: C_15  and  C_20
    4  A    between atoms: C_20  and  N_34
    5  A    between atoms: C_24  and  O_33
                            x       y       z     vdW  Elec       q    Type
                         _______ _______ _______ _____ _____    ______ ____

>  <TORSDO>
F 5

$$$$
=
 OpenBabel10222417203D

 46 53  0  0  1  0  0  0  0  0999 V2000
  187.4850  178.6790  141.3410 C   0  0  0  0  0  3  0  0  0  0  0  0
  190.2220  176.5860  138.1090 C   0  0  0  0  0  0  0  0  0  0  0  0
  187.7720  175.7900  138.3170 C   0  0  0  0  0  2  0  0  0  0  0  0
  192.9960  175.4350  135.9070 C   0  0  0  0  0  0  0  0  0  0  0  0
  185.5480  178.1330  138.0930 C   0  0  2  0  0  3  0  0  0  0  0  0
  191.7650  176.6750  140.6350 O   0  0  0  0  0  0  0  0  0  0  0  0
  190.1100  177.5460  139.1870 N   0  0  0  0  0  0  0  0  0  0  0  0
  190.7120  177.3470  140.4680 C   0  0  0  0  0  0  0  0  0  0  0  0
  185.7520  177.4780  135.8240 O   0  0  0  0  0  0  0  0  0  0  0  0
  189.9420  177.9670  141.5940 C   0  0  0  0  0  2  0  0  0  0  0  0
  187.1990  173.5230  136.8870 C   0  0  0  0  0  2  0  0  0  0  0  0
  193.2210  174.4800  134.9660 N   0  0  0  0  0  0  0  0  0  0  0  0
  186.4080  178.7010  140.4390 C   0  0  0  0  0  3  0  0  0  0  0  0
  189.4460  174.6790  136.7510 C   0  0  0  0  0  0  0  0  0  0  0  0
  190.7170  174.6200  136.1520 C   0  0  0  0  0  0  0  0  0  0  0  0
  187.9440  178.5150  138.5730 C   0  0  0  0  0  3  0  0  0  0  0  0
  186.3290  174.7250  136.5250 C   0  0  1  0  0  3  0  0  0  0  0  0
  188.9740  178.3440  139.4720 C   0  0  0  0  0  0  0  0  0  0  0  0
  188.5160  173.6900  136.3700 O   0  0  0  0  0  0  0  0  0  0  0  0
  186.0300  177.1740  137.0150 C   0  0  0  0  0  0  0  0  0  0  0  0
  186.6350  178.5650  139.0500 C   0  0  0  0  0  0  0  0  0  0  0  0
  191.4740  176.4760  137.5050 C   0  0  0  0  0  3  0  0  0  0  0  0
  186.7200  175.9210  137.2870 N   0  0  0  0  0  0  0  0  0  0  0  0
  189.1610  175.7040  137.7030 C   0  0  0  0  0  0  0  0  0  0  0  0
  192.2590  173.5940  134.5950 C   0  0  0  0  0  3  0  0  0  0  0  0
  188.7690  178.4800  140.8320 C   0  0  0  0  0  0  0  0  0  0  0  0
  194.1070  176.3660  136.2620 C   0  0  0  0  0  1  0  0  0  0  0  0
  191.7310  175.5260  136.5220 C   0  0  0  0  0  0  0  0  0  0  0  0
  190.9950  173.6480  135.1820 C   0  0  0  0  0  3  0  0  0  0  0  0
  185.3400  174.2610  134.5960 C   0  0  0  0  0  1  0  0  0  0  0  0
  186.4140  174.9610  135.1480 O   0  0  0  0  0  0  0  0  0  0  0  0
  184.3160  177.5450  138.7770 C   0  0  0  0  0  2  0  0  0  0  0  0
  183.2200  178.5520  138.8430 C   0  0  0  0  0  0  0  0  0  0  0  0
  183.4780  179.7730  138.6610 O   0  0  0  0  0  0  0  0  0  0  0  0
  181.8860  178.1260  139.1260 N   0  0  0  0  0  2  0  0  0  0  0  0
  180.7570  179.0450  139.1760 C   0  0  0  0  0  2  0  0  0  0  0  0
  181.0590  182.1950  137.6590 C   0  0  0  0  0  1  0  0  0  0  0  0
  182.0060  177.7790  135.4330 C   0  0  0  0  0  1  0  0  0  0  0  0
  179.9510  178.9690  137.8890 C   0  0  2  0  0  3  0  0  0  0  0  0
  180.2240  177.6270  137.1920 C   0  0  0  0  0  2  0  0  0  0  0  0
  180.1500  181.3840  136.7570 C   0  0  2  0  0  3  0  0  0  0  0  0
  180.4830  179.9220  136.8540 C   0  0  2  0  0  3  0  0  0  0  0  0
  180.5150  181.6530  135.2910 C   0  0  0  0  0  2  0  0  0  0  0  0
  180.5170  177.9750  135.7210 C   0  0  1  0  0  3  0  0  0  0  0  0
  180.0880  179.3640  135.6000 N   0  0  2  0  0  0  0  0  0  0  0  0
  180.7210  180.2670  134.6590 C   0  0  0  0  0  2  0  0  0  0  0  0
  2  7  1  0  0  0  0
  4 27  1  0  0  0  0
  4 28  1  0  0  0  0
  5 32  1  1  0  0  0
  5 21  1  0  0  0  0
  7 18  1  0  0  0  0
  7  8  1  0  0  0  0
  8  6  2  0  0  0  0
  8 10  1  0  0  0  0
  9 20  2  0  0  0  0
 12  4  2  0  0  0  0
 13  1  2  0  0  0  0
 14 24  2  0  0  0  0
 15 28  2  0  0  0  0
 15 14  1  0  0  0  0
 16 21  2  0  0  0  0
 16 18  1  0  0  0  0
 17 31  1  6  0  0  0
 17 11  1  0  0  0  0
 17 23  1  0  0  0  0
 18 26  2  0  0  0  0
 19 14  1  0  0  0  0
 19 11  1  0  0  0  0
 20 23  1  0  0  0  0
 20  5  1  0  0  0  0
 21 13  1  0  0  0  0
 22  2  2  0  0  0  0
 23  3  1  0  0  0  0
 24  2  1  0  0  0  0
 24  3  1  0  0  0  0
 25 12  1  0  0  0  0
 25 29  2  0  0  0  0
 26  1  1  0  0  0  0
 26 10  1  0  0  0  0
 28 22  1  0  0  0  0
 29 15  1  0  0  0  0
 30 31  1  0  0  0  0
 32 33  1  0  0  0  0
 33 35  1  0  0  0  0
 34 33  2  0  0  0  0
 35 36  1  0  0  0  0
 38 44  1  0  0  0  0
 39 36  1  1  0  0  0
 40 39  1  0  0  0  0
 41 42  1  0  0  0  0
 41 37  1  1  0  0  0
 42 39  1  0  0  0  0
 43 41  1  0  0  0  0
 44 40  1  0  0  0  0
 45 44  1  0  0  0  0
 45 42  1  0  0  0  0
 46 43  1  0  0  0  0
 46 45  1  0  0  0  0
M  END
>  <MODEL>
8

>  <REMARK>
 VINA RESULT:      -5.9      3.424     10.150
  Name = 
  5 active torsions:
  status: ('A' for Active; 'I' for Inactive)
    1  A    between atoms: C_5  and  C_29
    2  A    between atoms: C_9  and  C_29
    3  A    between atoms: C_15  and  C_20
    4  A    between atoms: C_20  and  N_34
    5  A    between atoms: C_24  and  O_33
                            x       y       z     vdW  Elec       q    Type
                         _______ _______ _______ _____ _____    ______ ____

>  <TORSDO>
F 5

$$$$
=
 OpenBabel10222417203D

 46 53  0  0  1  0  0  0  0  0999 V2000
  186.9260  178.6960  140.8820 C   0  0  0  0  0  3  0  0  0  0  0  0
  189.9800  176.3930  138.1090 C   0  0  0  0  0  0  0  0  0  0  0  0
  187.5560  175.5080  138.2340 C   0  0  0  0  0  2  0  0  0  0  0  0
  192.9560  175.1400  136.2520 C   0  0  0  0  0  0  0  0  0  0  0  0
  185.2630  177.7010  137.5890 C   0  0  2  0  0  3  0  0  0  0  0  0
  191.3250  176.8350  140.7100 O   0  0  0  0  0  0  0  0  0  0  0  0
  189.7490  177.4600  139.0600 N   0  0  0  0  0  0  0  0  0  0  0  0
  190.2610  177.4330  140.3940 C   0  0  0  0  0  0  0  0  0  0  0  0
  185.6620  176.8100  135.4300 O   0  0  0  0  0  0  0  0  0  0  0  0
  189.3840  178.1360  141.3850 C   0  0  0  0  0  2  0  0  0  0  0  0
  187.1830  173.0710  137.0350 C   0  0  0  0  0  2  0  0  0  0  0  0
  193.2890  174.0990  135.4450 N   0  0  0  0  0  0  0  0  0  0  0  0
  185.9210  178.5670  139.9090 C   0  0  0  0  0  3  0  0  0  0  0  0
  189.3860  174.3120  136.9260 C   0  0  0  0  0  0  0  0  0  0  0  0
  190.7000  174.2480  136.4290 C   0  0  0  0  0  0  0  0  0  0  0  0
  187.5990  178.2490  138.1890 C   0  0  0  0  0  3  0  0  0  0  0  0
  186.2960  174.1820  136.4790 C   0  0  1  0  0  3  0  0  0  0  0  0
  188.5640  178.2290  139.1720 C   0  0  0  0  0  0  0  0  0  0  0  0
  188.5270  173.2430  136.5960 O   0  0  0  0  0  0  0  0  0  0  0  0
  185.8620  176.6530  136.6640 C   0  0  0  0  0  0  0  0  0  0  0  0
  186.2560  178.2880  138.5640 C   0  0  0  0  0  0  0  0  0  0  0  0
  191.2770  176.2770  137.6110 C   0  0  0  0  0  3  0  0  0  0  0  0
  186.5800  175.4720  137.1240 N   0  0  0  0  0  0  0  0  0  0  0  0
  188.9890  175.4210  137.7330 C   0  0  0  0  0  0  0  0  0  0  0  0
  192.3940  173.1320  135.1110 C   0  0  0  0  0  3  0  0  0  0  0  0
  188.2520  178.5050  140.4900 C   0  0  0  0  0  0  0  0  0  0  0  0
  193.9990  176.1570  136.5760 C   0  0  0  0  0  1  0  0  0  0  0  0
  191.6460  175.2380  136.7630 C   0  0  0  0  0  0  0  0  0  0  0  0
  191.0880  173.1900  135.5970 C   0  0  0  0  0  3  0  0  0  0  0  0
  186.0060  173.0510  134.5940 C   0  0  0  0  0  1  0  0  0  0  0  0
  186.4740  174.2670  135.0930 O   0  0  0  0  0  0  0  0  0  0  0  0
  184.0070  177.1330  138.2480 C   0  0  0  0  0  2  0  0  0  0  0  0
  182.8170  177.3380  137.3750 C   0  0  0  0  0  0  0  0  0  0  0  0
  182.2630  178.4700  137.3260 O   0  0  0  0  0  0  0  0  0  0  0  0
  182.3040  176.2450  136.6110 N   0  0  0  0  0  2  0  0  0  0  0  0
  181.1660  176.3740  135.7140 C   0  0  0  0  0  2  0  0  0  0  0  0
  182.2740  173.0870  135.1860 C   0  0  0  0  0  1  0  0  0  0  0  0
  180.4150  174.8830  139.5070 C   0  0  0  0  0  1  0  0  0  0  0  0
  180.0270  175.4700  136.1640 C   0  0  2  0  0  3  0  0  0  0  0  0
  179.4440  176.0010  137.4830 C   0  0  0  0  0  2  0  0  0  0  0  0
  180.8610  172.9680  135.7220 C   0  0  2  0  0  3  0  0  0  0  0  0
  180.5400  174.1310  136.6170 C   0  0  2  0  0  3  0  0  0  0  0  0
  180.7950  171.8160  136.7320 C   0  0  0  0  0  2  0  0  0  0  0  0
  179.3490  174.7800  138.4160 C   0  0  1  0  0  3  0  0  0  0  0  0
  179.5500  173.6440  137.5230 N   0  0  2  0  0  0  0  0  0  0  0  0
  180.1560  172.4150  137.9960 C   0  0  0  0  0  2  0  0  0  0  0  0
  2  7  1  0  0  0  0
  4 27  1  0  0  0  0
  4 28  1  0  0  0  0
  5 32  1  1  0  0  0
  5 21  1  0  0  0  0
  7 18  1  0  0  0  0
  7  8  1  0  0  0  0
  8  6  2  0  0  0  0
  8 10  1  0  0  0  0
  9 20  2  0  0  0  0
 12  4  2  0  0  0  0
 13  1  2  0  0  0  0
 14 24  2  0  0  0  0
 15 28  2  0  0  0  0
 15 14  1  0  0  0  0
 16 21  2  0  0  0  0
 16 18  1  0  0  0  0
 17 31  1  6  0  0  0
 17 11  1  0  0  0  0
 17 23  1  0  0  0  0
 18 26  2  0  0  0  0
 19 14  1  0  0  0  0
 19 11  1  0  0  0  0
 20 23  1  0  0  0  0
 20  5  1  0  0  0  0
 21 13  1  0  0  0  0
 22  2  2  0  0  0  0
 23  3  1  0  0  0  0
 24  2  1  0  0  0  0
 24  3  1  0  0  0  0
 25 12  1  0  0  0  0
 25 29  2  0  0  0  0
 26  1  1  0  0  0  0
 26 10  1  0  0  0  0
 28 22  1  0  0  0  0
 29 15  1  0  0  0  0
 30 31  1  0  0  0  0
 33 32  1  0  0  0  0
 34 33  2  0  0  0  0
 35 33  1  0  0  0  0
 36 35  1  0  0  0  0
 39 36  1  1  0  0  0
 39 42  1  0  0  0  0
 39 40  1  0  0  0  0
 40 44  1  0  0  0  0
 41 37  1  1  0  0  0
 41 42  1  0  0  0  0
 41 43  1  0  0  0  0
 42 45  1  0  0  0  0
 43 46  1  0  0  0  0
 44 38  1  0  0  0  0
 45 46  1  0  0  0  0
 45 44  1  0  0  0  0
M  END
>  <MODEL>
9

>  <REMARK>
 VINA RESULT:      -5.7      3.725      9.938
  Name = 
  5 active torsions:
  status: ('A' for Active; 'I' for Inactive)
    1  A    between atoms: C_5  and  C_29
    2  A    between atoms: C_9  and  C_29
    3  A    between atoms: C_15  and  C_20
    4  A    between atoms: C_20  and  N_34
    5  A    between atoms: C_24  and  O_33
                            x       y       z     vdW  Elec       q    Type
                         _______ _______ _______ _____ _____    ______ ____

>  <TORSDO>
F 5

$$$$
