=
 OpenBabel10222416113D

 26 28  0  0  1  0  0  0  0  0999 V2000
  186.8370  177.7870  144.2310 C   0  0  0  0  0  3  0  0  0  0  0  0
  185.8930  178.3680  146.8490 C   0  0  0  0  0  3  0  0  0  0  0  0
  187.1710  177.8600  146.6300 C   0  0  0  0  0  0  0  0  0  0  0  0
  191.5790  176.5890  146.1430 C   0  0  0  0  0  3  0  0  0  0  0  0
  187.6360  177.5740  145.3540 C   0  0  0  0  0  0  0  0  0  0  0  0
  189.9530  177.0220  144.2930 C   0  0  2  0  0  3  0  0  0  0  0  0
  185.0710  178.5780  145.7280 C   0  0  0  0  0  3  0  0  0  0  0  0
  191.3060  176.6080  144.8270 C   0  0  0  0  0  3  0  0  0  0  0  0
  188.2500  177.5840  147.5700 C   0  0  0  0  0  0  0  0  0  0  0  0
  188.9750  177.0770  145.3780 N   0  0  0  0  0  0  0  0  0  0  0  0
  188.2400  177.7510  148.8170 O   0  0  0  0  0  0  0  0  0  0  0  0
  189.3590  177.1280  146.7470 C   0  0  0  0  0  0  0  0  0  0  0  0
  185.5400  178.2910  144.4290 C   0  0  0  0  0  3  0  0  0  0  0  0
  190.5800  176.9220  147.1240 N   0  0  0  0  0  0  0  0  0  0  0  0
  189.5160  176.0740  143.2820 N   0  0  0  0  0  2  0  0  0  0  0  0
  190.0570  176.5300  142.0130 C   0  0  0  0  0  2  0  0  0  0  0  0
  188.9960  177.2950  141.2420 C   0  0  0  0  0  2  0  0  0  0  0  0
  189.5290  177.6980  139.8790 C   0  0  0  0  0  2  0  0  0  0  0  0
  188.5320  178.5920  139.1590 C   0  0  1  0  0  3  0  0  0  0  0  0
  189.4320  178.1040  137.1960 C   0  0  0  0  0  1  0  0  0  0  0  0
  189.1360  179.1740  138.0430 O   0  0  0  0  0  0  0  0  0  0  0  0
  187.3340  177.7650  138.7110 C   0  0  0  0  0  2  0  0  0  0  0  0
  185.3330  179.0380  139.5990 C   0  0  0  0  0  0  0  0  0  0  0  0
  186.1660  178.6150  138.5180 N   0  0  0  0  0  2  0  0  0  0  0  0
  184.1940  179.8480  139.3340 N   0  0  0  0  0  1  0  0  0  0  0  0
  185.5980  178.7020  140.7840 O   0  0  0  0  0  0  0  0  0  0  0  0
  1 13  2  0  0  0  0
  1  5  1  0  0  0  0
  3  2  1  0  0  0  0
  3  9  1  0  0  0  0
  4 14  1  0  0  0  0
  5 10  1  0  0  0  0
  5  3  2  0  0  0  0
  6 15  1  6  0  0  0
  6  8  1  0  0  0  0
  6 10  1  0  0  0  0
  7  2  2  0  0  0  0
  8  4  2  0  0  0  0
  9 11  2  0  0  0  0
 10 12  1  0  0  0  0
 12 14  2  0  0  0  0
 12  9  1  0  0  0  0
 13  7  1  0  0  0  0
 16 15  1  0  0  0  0
 17 16  1  0  0  0  0
 18 17  1  0  0  0  0
 19 22  1  6  0  0  0
 19 18  1  0  0  0  0
 20 21  1  0  0  0  0
 21 19  1  0  0  0  0
 23 26  2  0  0  0  0
 24 22  1  0  0  0  0
 24 23  1  0  0  0  0
 25 23  1  0  0  0  0
M  END
>  <MODEL>
1

>  <REMARK>
 VINA RESULT:      -8.4      0.000      0.000
  Name = 
  8 active torsions:
  status: ('A' for Active; 'I' for Inactive)
    1  A    between atoms: C_2  and  C_12
    2  A    between atoms: C_2  and  O_20
    3  A    between atoms: C_2  and  C_26
    4  A    between atoms: N_7  and  C_11
    5  A    between atoms: N_7  and  C_15
    6  A    between atoms: N_9  and  C_12
    7  A    between atoms: C_15  and  C_16
    8  A    between atoms: C_16  and  C_26
                            x       y       z     vdW  Elec       q    Type
                         _______ _______ _______ _____ _____    ______ ____

>  <TORSDO>
F 8

$$$$
=
 OpenBabel10222416113D

 26 28  0  0  1  0  0  0  0  0999 V2000
  186.9140  177.8280  144.4290 C   0  0  0  0  0  3  0  0  0  0  0  0
  185.8060  178.4680  146.9670 C   0  0  0  0  0  3  0  0  0  0  0  0
  187.0960  177.9590  146.8420 C   0  0  0  0  0  0  0  0  0  0  0  0
  191.5270  176.6890  146.6650 C   0  0  0  0  0  3  0  0  0  0  0  0
  187.6410  177.6440  145.6050 C   0  0  0  0  0  0  0  0  0  0  0  0
  190.0210  177.0740  144.7060 C   0  0  2  0  0  3  0  0  0  0  0  0
  185.0570  178.6490  145.7920 C   0  0  0  0  0  3  0  0  0  0  0  0
  191.3390  176.6760  145.3350 C   0  0  0  0  0  3  0  0  0  0  0  0
  188.1130  177.7090  147.8550 C   0  0  0  0  0  0  0  0  0  0  0  0
  188.9770  177.1510  145.7260 N   0  0  0  0  0  0  0  0  0  0  0  0
  188.0240  177.9050  149.0950 O   0  0  0  0  0  0  0  0  0  0  0  0
  189.2730  177.2360  147.1150 C   0  0  0  0  0  0  0  0  0  0  0  0
  185.6070  178.3320  144.5320 C   0  0  0  0  0  3  0  0  0  0  0  0
  190.4680  177.0430  147.5740 N   0  0  0  0  0  0  0  0  0  0  0  0
  189.6510  176.1000  143.6930 N   0  0  0  0  0  2  0  0  0  0  0  0
  190.7010  176.1160  142.6880 C   0  0  0  0  0  2  0  0  0  0  0  0
  190.6990  177.4470  141.9580 C   0  0  0  0  0  2  0  0  0  0  0  0
  191.5090  177.3420  140.6780 C   0  0  0  0  0  2  0  0  0  0  0  0
  190.5890  177.2620  139.4700 C   0  0  1  0  0  3  0  0  0  0  0  0
  191.0090  175.9250  137.7550 C   0  0  0  0  0  1  0  0  0  0  0  0
  190.4780  175.9350  139.0450 O   0  0  0  0  0  0  0  0  0  0  0  0
  189.2090  177.7890  139.8410 C   0  0  0  0  0  2  0  0  0  0  0  0
  187.8590  178.2430  137.7470 C   0  0  0  0  0  0  0  0  0  0  0  0
  188.7070  178.6850  138.8090 N   0  0  0  0  0  2  0  0  0  0  0  0
  187.4250  179.1700  136.7600 N   0  0  0  0  0  1  0  0  0  0  0  0
  187.4910  177.0400  137.6790 O   0  0  0  0  0  0  0  0  0  0  0  0
  1 13  2  0  0  0  0
  1  5  1  0  0  0  0
  3  2  1  0  0  0  0
  3  9  1  0  0  0  0
  4 14  1  0  0  0  0
  5 10  1  0  0  0  0
  5  3  2  0  0  0  0
  6 15  1  6  0  0  0
  6  8  1  0  0  0  0
  6 10  1  0  0  0  0
  7  2  2  0  0  0  0
  8  4  2  0  0  0  0
  9 11  2  0  0  0  0
 10 12  1  0  0  0  0
 12 14  2  0  0  0  0
 12  9  1  0  0  0  0
 13  7  1  0  0  0  0
 16 15  1  0  0  0  0
 17 16  1  0  0  0  0
 18 17  1  0  0  0  0
 19 22  1  1  0  0  0
 19 18  1  0  0  0  0
 20 21  1  0  0  0  0
 21 19  1  0  0  0  0
 23 24  1  0  0  0  0
 24 22  1  0  0  0  0
 25 23  1  0  0  0  0
 26 23  2  0  0  0  0
M  END
>  <MODEL>
2

>  <REMARK>
 VINA RESULT:      -8.4      1.611      1.894
  Name = 
  8 active torsions:
  status: ('A' for Active; 'I' for Inactive)
    1  A    between atoms: C_2  and  C_12
    2  A    between atoms: C_2  and  O_20
    3  A    between atoms: C_2  and  C_26
    4  A    between atoms: N_7  and  C_11
    5  A    between atoms: N_7  and  C_15
    6  A    between atoms: N_9  and  C_12
    7  A    between atoms: C_15  and  C_16
    8  A    between atoms: C_16  and  C_26
                            x       y       z     vdW  Elec       q    Type
                         _______ _______ _______ _____ _____    ______ ____

>  <TORSDO>
F 8

$$$$
=
 OpenBabel10222416113D

 26 28  0  0  1  0  0  0  0  0999 V2000
  186.8910  177.8680  144.2110 C   0  0  0  0  0  3  0  0  0  0  0  0
  185.7310  178.3480  146.7620 C   0  0  0  0  0  3  0  0  0  0  0  0
  187.0320  177.8690  146.6300 C   0  0  0  0  0  0  0  0  0  0  0  0
  191.4880  176.6890  146.4570 C   0  0  0  0  0  3  0  0  0  0  0  0
  187.6020  177.6330  145.3870 C   0  0  0  0  0  0  0  0  0  0  0  0
  190.0060  177.1550  144.4980 C   0  0  2  0  0  3  0  0  0  0  0  0
  184.9970  178.5810  145.5860 C   0  0  0  0  0  3  0  0  0  0  0  0
  191.3210  176.7460  145.1250 C   0  0  0  0  0  3  0  0  0  0  0  0
  188.0380  177.5810  147.6450 C   0  0  0  0  0  0  0  0  0  0  0  0
  188.9450  177.1570  145.5030 N   0  0  0  0  0  0  0  0  0  0  0  0
  187.9260  177.7070  148.8920 O   0  0  0  0  0  0  0  0  0  0  0  0
  189.2170  177.1710  146.8980 C   0  0  0  0  0  0  0  0  0  0  0  0
  185.5720  178.3430  144.3200 C   0  0  0  0  0  3  0  0  0  0  0  0
  190.4090  176.9730  147.3660 N   0  0  0  0  0  0  0  0  0  0  0  0
  189.6700  176.2320  143.4270 N   0  0  0  0  0  2  0  0  0  0  0  0
  190.6920  176.3810  142.4040 C   0  0  0  0  0  2  0  0  0  0  0  0
  190.3620  177.5610  141.5100 C   0  0  0  0  0  2  0  0  0  0  0  0
  189.0090  177.3570  140.8520 C   0  0  0  0  0  2  0  0  0  0  0  0
  189.1100  177.5600  139.3480 C   0  0  1  0  0  3  0  0  0  0  0  0
  188.9930  178.9720  137.6460 C   0  0  0  0  0  1  0  0  0  0  0  0
  188.9000  178.9060  139.0370 O   0  0  0  0  0  0  0  0  0  0  0  0
  190.4930  177.1410  138.8670 C   0  0  0  0  0  2  0  0  0  0  0  0
  190.2460  175.0750  137.4230 C   0  0  0  0  0  0  0  0  0  0  0  0
  190.5540  175.6990  138.6710 N   0  0  0  0  0  2  0  0  0  0  0  0
  190.3040  173.6590  137.3110 N   0  0  0  0  0  1  0  0  0  0  0  0
  189.9250  175.7680  136.4210 O   0  0  0  0  0  0  0  0  0  0  0  0
  1 13  2  0  0  0  0
  1  5  1  0  0  0  0
  3  2  1  0  0  0  0
  3  9  1  0  0  0  0
  4 14  1  0  0  0  0
  5 10  1  0  0  0  0
  5  3  2  0  0  0  0
  6 15  1  6  0  0  0
  6  8  1  0  0  0  0
  6 10  1  0  0  0  0
  7  2  2  0  0  0  0
  8  4  2  0  0  0  0
  9 11  2  0  0  0  0
 10 12  1  0  0  0  0
 12 14  2  0  0  0  0
 12  9  1  0  0  0  0
 13  7  1  0  0  0  0
 16 15  1  0  0  0  0
 17 16  1  0  0  0  0
 18 17  1  0  0  0  0
 19 22  1  1  0  0  0
 19 18  1  0  0  0  0
 20 21  1  0  0  0  0
 21 19  1  0  0  0  0
 23 24  1  0  0  0  0
 24 22  1  0  0  0  0
 25 23  1  0  0  0  0
 26 23  2  0  0  0  0
M  END
>  <MODEL>
3

>  <REMARK>
 VINA RESULT:      -8.3      2.199      2.891
  Name = 
  8 active torsions:
  status: ('A' for Active; 'I' for Inactive)
    1  A    between atoms: C_2  and  C_12
    2  A    between atoms: C_2  and  O_20
    3  A    between atoms: C_2  and  C_26
    4  A    between atoms: N_7  and  C_11
    5  A    between atoms: N_7  and  C_15
    6  A    between atoms: N_9  and  C_12
    7  A    between atoms: C_15  and  C_16
    8  A    between atoms: C_16  and  C_26
                            x       y       z     vdW  Elec       q    Type
                         _______ _______ _______ _____ _____    ______ ____

>  <TORSDO>
F 8

$$$$
=
 OpenBabel10222416113D

 26 28  0  0  1  0  0  0  0  0999 V2000
  186.4700  177.9600  144.2040 C   0  0  0  0  0  3  0  0  0  0  0  0
  185.6840  178.4470  146.8920 C   0  0  0  0  0  3  0  0  0  0  0  0
  186.9490  177.9570  146.5800 C   0  0  0  0  0  0  0  0  0  0  0  0
  191.3250  176.7350  145.7850 C   0  0  0  0  0  3  0  0  0  0  0  0
  187.3370  177.7160  145.2690 C   0  0  0  0  0  0  0  0  0  0  0  0
  189.5880  177.2170  144.0520 C   0  0  2  0  0  3  0  0  0  0  0  0
  184.7940  178.6890  145.8300 C   0  0  0  0  0  3  0  0  0  0  0  0
  190.9740  176.7950  144.4890 C   0  0  0  0  0  3  0  0  0  0  0  0
  188.0840  177.6580  147.4430 C   0  0  0  0  0  0  0  0  0  0  0  0
  188.6780  177.2280  145.1960 N   0  0  0  0  0  0  0  0  0  0  0  0
  188.1490  177.7830  148.6940 O   0  0  0  0  0  0  0  0  0  0  0  0
  189.1430  177.2370  146.5390 C   0  0  0  0  0  0  0  0  0  0  0  0
  185.1850  178.4480  144.4970 C   0  0  0  0  0  3  0  0  0  0  0  0
  190.3870  177.0280  146.8350 N   0  0  0  0  0  0  0  0  0  0  0  0
  189.0970  176.2990  143.0390 N   0  0  0  0  0  2  0  0  0  0  0  0
  189.5090  176.8320  141.7500 C   0  0  0  0  0  2  0  0  0  0  0  0
  188.4890  177.8410  141.2560 C   0  0  0  0  0  2  0  0  0  0  0  0
  188.8740  178.3410  139.8760 C   0  0  0  0  0  2  0  0  0  0  0  0
  188.0330  177.6600  138.8070 C   0  0  1  0  0  3  0  0  0  0  0  0
  186.1820  178.1810  137.7100 C   0  0  0  0  0  1  0  0  0  0  0  0
  187.4840  178.6190  137.9530 O   0  0  0  0  0  0  0  0  0  0  0  0
  188.9040  176.7060  138.0010 C   0  0  0  0  0  2  0  0  0  0  0  0
  191.3580  176.1340  138.2570 C   0  0  0  0  0  0  0  0  0  0  0  0
  190.3060  177.0880  138.0930 N   0  0  0  0  0  2  0  0  0  0  0  0
  192.7040  176.5810  138.3630 N   0  0  0  0  0  1  0  0  0  0  0  0
  191.1040  174.9010  138.3060 O   0  0  0  0  0  0  0  0  0  0  0  0
  1 13  2  0  0  0  0
  1  5  1  0  0  0  0
  3  2  1  0  0  0  0
  3  9  1  0  0  0  0
  4 14  1  0  0  0  0
  5  3  2  0  0  0  0
  6 15  1  6  0  0  0
  6  8  1  0  0  0  0
  6 10  1  0  0  0  0
  7  2  2  0  0  0  0
  8  4  2  0  0  0  0
  9 11  2  0  0  0  0
 10  5  1  0  0  0  0
 10 12  1  0  0  0  0
 12 14  2  0  0  0  0
 12  9  1  0  0  0  0
 13  7  1  0  0  0  0
 16 15  1  0  0  0  0
 17 16  1  0  0  0  0
 18 17  1  0  0  0  0
 19 22  1  6  0  0  0
 19 18  1  0  0  0  0
 20 21  1  0  0  0  0
 21 19  1  0  0  0  0
 22 24  1  0  0  0  0
 23 26  2  0  0  0  0
 23 25  1  0  0  0  0
 24 23  1  0  0  0  0
M  END
>  <MODEL>
4

>  <REMARK>
 VINA RESULT:      -8.2      1.938      2.937
  Name = 
  8 active torsions:
  status: ('A' for Active; 'I' for Inactive)
    1  A    between atoms: C_2  and  C_12
    2  A    between atoms: C_2  and  O_20
    3  A    between atoms: C_2  and  C_26
    4  A    between atoms: N_7  and  C_11
    5  A    between atoms: N_7  and  C_15
    6  A    between atoms: N_9  and  C_12
    7  A    between atoms: C_15  and  C_16
    8  A    between atoms: C_16  and  C_26
                            x       y       z     vdW  Elec       q    Type
                         _______ _______ _______ _____ _____    ______ ____

>  <TORSDO>
F 8

$$$$
=
 OpenBabel10222416113D

 26 28  0  0  1  0  0  0  0  0999 V2000
  188.4310  176.9150  143.5290 C   0  0  0  0  0  3  0  0  0  0  0  0
  191.1780  176.2110  143.7260 C   0  0  0  0  0  3  0  0  0  0  0  0
  190.4830  176.7460  144.8070 C   0  0  0  0  0  0  0  0  0  0  0  0
  188.3080  178.1020  148.6420 C   0  0  0  0  0  3  0  0  0  0  0  0
  189.1420  177.0920  144.7150 C   0  0  0  0  0  0  0  0  0  0  0  0
  187.2580  177.7220  146.4040 C   0  0  2  0  0  3  0  0  0  0  0  0
  190.4780  176.0350  142.5190 C   0  0  0  0  0  3  0  0  0  0  0  0
  187.2160  178.1340  147.8600 C   0  0  0  0  0  3  0  0  0  0  0  0
  190.9160  176.9980  146.1750 C   0  0  0  0  0  0  0  0  0  0  0  0
  188.6430  177.6080  145.9510 N   0  0  0  0  0  0  0  0  0  0  0  0
  192.0520  176.7800  146.6710 O   0  0  0  0  0  0  0  0  0  0  0  0
  189.7350  177.5050  146.8560 C   0  0  0  0  0  0  0  0  0  0  0  0
  189.1150  176.3840  142.4220 C   0  0  0  0  0  3  0  0  0  0  0  0
  189.5940  177.7130  148.1270 N   0  0  0  0  0  0  0  0  0  0  0  0
  186.5540  178.7060  145.5990 N   0  0  0  0  0  2  0  0  0  0  0  0
  185.1380  178.5550  145.8910 C   0  0  0  0  0  2  0  0  0  0  0  0
  184.3200  178.8170  144.6400 C   0  0  0  0  0  2  0  0  0  0  0  0
  185.1120  178.4220  143.4060 C   0  0  0  0  0  2  0  0  0  0  0  0
  184.1830  178.2180  142.2190 C   0  0  1  0  0  3  0  0  0  0  0  0
  182.1910  178.6290  141.3450 C   0  0  0  0  0  1  0  0  0  0  0  0
  182.8910  178.6320  142.5520 O   0  0  0  0  0  0  0  0  0  0  0  0
  184.6830  179.0310  141.0330 C   0  0  0  0  0  2  0  0  0  0  0  0
  186.8480  178.6300  139.7810 C   0  0  0  0  0  0  0  0  0  0  0  0
  186.1380  179.0000  140.9650 N   0  0  0  0  0  2  0  0  0  0  0  0
  188.2700  178.5990  139.7940 N   0  0  0  0  0  1  0  0  0  0  0  0
  186.2270  178.3330  138.7260 O   0  0  0  0  0  0  0  0  0  0  0  0
  1  5  1  0  0  0  0
  2  3  1  0  0  0  0
  3  9  1  0  0  0  0
  5  3  2  0  0  0  0
  5 10  1  0  0  0  0
  6 15  1  6  0  0  0
  6  8  1  0  0  0  0
  7  2  2  0  0  0  0
  8  4  2  0  0  0  0
  9 11  2  0  0  0  0
  9 12  1  0  0  0  0
 10  6  1  0  0  0  0
 10 12  1  0  0  0  0
 12 14  2  0  0  0  0
 13  7  1  0  0  0  0
 13  1  2  0  0  0  0
 14  4  1  0  0  0  0
 15 16  1  0  0  0  0
 17 16  1  0  0  0  0
 18 17  1  0  0  0  0
 19 22  1  6  0  0  0
 19 21  1  0  0  0  0
 19 18  1  0  0  0  0
 20 21  1  0  0  0  0
 23 25  1  0  0  0  0
 23 24  1  0  0  0  0
 24 22  1  0  0  0  0
 26 23  2  0  0  0  0
M  END
>  <MODEL>
5

>  <REMARK>
 VINA RESULT:      -8.0      2.012      4.642
  Name = 
  8 active torsions:
  status: ('A' for Active; 'I' for Inactive)
    1  A    between atoms: C_2  and  C_12
    2  A    between atoms: C_2  and  O_20
    3  A    between atoms: C_2  and  C_26
    4  A    between atoms: N_7  and  C_11
    5  A    between atoms: N_7  and  C_15
    6  A    between atoms: N_9  and  C_12
    7  A    between atoms: C_15  and  C_16
    8  A    between atoms: C_16  and  C_26
                            x       y       z     vdW  Elec       q    Type
                         _______ _______ _______ _____ _____    ______ ____

>  <TORSDO>
F 8

$$$$
=
 OpenBabel10222416113D

 26 28  0  0  1  0  0  0  0  0999 V2000
  186.3280  177.9530  142.7430 C   0  0  0  0  0  3  0  0  0  0  0  0
  184.1480  178.8690  144.3190 C   0  0  0  0  0  3  0  0  0  0  0  0
  185.3260  178.4090  144.9010 C   0  0  0  0  0  0  0  0  0  0  0  0
  189.2610  177.3320  147.0540 C   0  0  0  0  0  3  0  0  0  0  0  0
  186.3920  177.9590  144.1360 C   0  0  0  0  0  0  0  0  0  0  0  0
  188.8970  177.3870  144.5810 C   0  0  2  0  0  3  0  0  0  0  0  0
  184.0630  178.8600  142.9160 C   0  0  0  0  0  3  0  0  0  0  0  0
  189.7380  177.1360  145.8130 C   0  0  0  0  0  3  0  0  0  0  0  0
  185.7220  178.3410  146.3020 C   0  0  0  0  0  0  0  0  0  0  0  0
  187.4920  177.5490  144.9510 N   0  0  0  0  0  0  0  0  0  0  0  0
  185.0500  178.6940  147.3060 O   0  0  0  0  0  0  0  0  0  0  0  0
  187.0830  177.8290  146.2840 C   0  0  0  0  0  0  0  0  0  0  0  0
  185.1460  178.4060  142.1340 C   0  0  0  0  0  3  0  0  0  0  0  0
  187.9040  177.7530  147.2830 N   0  0  0  0  0  0  0  0  0  0  0  0
  189.0400  176.2720  143.6590 N   0  0  0  0  0  2  0  0  0  0  0  0
  190.3500  176.3980  143.0430 C   0  0  0  0  0  2  0  0  0  0  0  0
  190.3520  177.5520  142.0580 C   0  0  0  0  0  2  0  0  0  0  0  0
  189.4870  177.2140  140.8560 C   0  0  0  0  0  2  0  0  0  0  0  0
  190.3150  177.2350  139.5810 C   0  0  1  0  0  3  0  0  0  0  0  0
  191.5930  176.0580  138.2080 C   0  0  0  0  0  1  0  0  0  0  0  0
  190.6000  175.9280  139.1800 O   0  0  0  0  0  0  0  0  0  0  0  0
  189.5380  177.9420  138.4780 C   0  0  0  0  0  2  0  0  0  0  0  0
  187.1380  178.1840  137.7050 C   0  0  0  0  0  0  0  0  0  0  0  0
  188.1390  177.5350  138.4930 N   0  0  0  0  0  2  0  0  0  0  0  0
  185.7870  177.7480  137.7870 N   0  0  0  0  0  1  0  0  0  0  0  0
  187.4420  179.1360  136.9380 O   0  0  0  0  0  0  0  0  0  0  0  0
  1  5  1  0  0  0  0
  2  3  1  0  0  0  0
  3  9  1  0  0  0  0
  4 14  1  0  0  0  0
  5  3  2  0  0  0  0
  5 10  1  0  0  0  0
  6 15  1  6  0  0  0
  6 10  1  0  0  0  0
  6  8  1  0  0  0  0
  7  2  2  0  0  0  0
  8  4  2  0  0  0  0
  9 11  2  0  0  0  0
 10 12  1  0  0  0  0
 12  9  1  0  0  0  0
 12 14  2  0  0  0  0
 13  1  2  0  0  0  0
 13  7  1  0  0  0  0
 16 15  1  0  0  0  0
 17 16  1  0  0  0  0
 18 17  1  0  0  0  0
 19 22  1  6  0  0  0
 19 18  1  0  0  0  0
 20 21  1  0  0  0  0
 21 19  1  0  0  0  0
 22 24  1  0  0  0  0
 23 25  1  0  0  0  0
 23 24  1  0  0  0  0
 26 23  2  0  0  0  0
M  END
>  <MODEL>
6

>  <REMARK>
 VINA RESULT:      -8.0      1.807      2.529
  Name = 
  8 active torsions:
  status: ('A' for Active; 'I' for Inactive)
    1  A    between atoms: C_2  and  C_12
    2  A    between atoms: C_2  and  O_20
    3  A    between atoms: C_2  and  C_26
    4  A    between atoms: N_7  and  C_11
    5  A    between atoms: N_7  and  C_15
    6  A    between atoms: N_9  and  C_12
    7  A    between atoms: C_15  and  C_16
    8  A    between atoms: C_16  and  C_26
                            x       y       z     vdW  Elec       q    Type
                         _______ _______ _______ _____ _____    ______ ____

>  <TORSDO>
F 8

$$$$
=
 OpenBabel10222416113D

 26 28  0  0  1  0  0  0  0  0999 V2000
  188.4320  176.9240  143.5020 C   0  0  0  0  0  3  0  0  0  0  0  0
  191.1760  176.2560  143.8300 C   0  0  0  0  0  3  0  0  0  0  0  0
  190.4300  176.8080  144.8680 C   0  0  0  0  0  0  0  0  0  0  0  0
  188.0820  178.2300  148.5750 C   0  0  0  0  0  3  0  0  0  0  0  0
  189.0910  177.1370  144.7120 C   0  0  0  0  0  0  0  0  0  0  0  0
  187.1320  177.7860  146.3050 C   0  0  2  0  0  3  0  0  0  0  0  0
  190.5290  176.0430  142.6000 C   0  0  0  0  0  3  0  0  0  0  0  0
  187.0230  178.2320  147.7470 C   0  0  0  0  0  3  0  0  0  0  0  0
  190.8030  177.0980  146.2470 C   0  0  0  0  0  0  0  0  0  0  0  0
  188.5350  177.6770  145.9130 N   0  0  0  0  0  0  0  0  0  0  0  0
  191.9190  176.9040  146.7950 O   0  0  0  0  0  0  0  0  0  0  0  0
  189.5890  177.6070  146.8660 C   0  0  0  0  0  0  0  0  0  0  0  0
  189.1680  176.3740  142.4370 C   0  0  0  0  0  3  0  0  0  0  0  0
  189.3930  177.8440  148.1240 N   0  0  0  0  0  0  0  0  0  0  0  0
  186.4520  178.7420  145.4480 N   0  0  0  0  0  2  0  0  0  0  0  0
  185.0870  178.8500  145.9350 C   0  0  0  0  0  2  0  0  0  0  0  0
  184.1370  179.0650  144.7710 C   0  0  0  0  0  2  0  0  0  0  0  0
  184.5870  178.2500  143.5710 C   0  0  0  0  0  2  0  0  0  0  0  0
  184.4880  179.0740  142.2980 C   0  0  1  0  0  3  0  0  0  0  0  0
  186.3560  178.9190  141.1190 C   0  0  0  0  0  1  0  0  0  0  0  0
  185.7020  179.7200  142.0560 O   0  0  0  0  0  0  0  0  0  0  0  0
  184.1580  178.1640  141.1230 C   0  0  0  0  0  2  0  0  0  0  0  0
  182.6400  179.4370  139.5450 C   0  0  0  0  0  0  0  0  0  0  0  0
  182.8420  178.4760  140.5840 N   0  0  0  0  0  2  0  0  0  0  0  0
  181.3230  179.7080  139.0840 N   0  0  0  0  0  1  0  0  0  0  0  0
  183.6180  180.0440  139.0340 O   0  0  0  0  0  0  0  0  0  0  0  0
  1  5  1  0  0  0  0
  2  3  1  0  0  0  0
  3  9  1  0  0  0  0
  5  3  2  0  0  0  0
  5 10  1  0  0  0  0
  6 15  1  6  0  0  0
  6  8  1  0  0  0  0
  7  2  2  0  0  0  0
  8  4  2  0  0  0  0
  9 11  2  0  0  0  0
  9 12  1  0  0  0  0
 10  6  1  0  0  0  0
 10 12  1  0  0  0  0
 12 14  2  0  0  0  0
 13  7  1  0  0  0  0
 13  1  2  0  0  0  0
 14  4  1  0  0  0  0
 15 16  1  0  0  0  0
 17 16  1  0  0  0  0
 18 17  1  0  0  0  0
 19 22  1  6  0  0  0
 19 18  1  0  0  0  0
 20 21  1  0  0  0  0
 21 19  1  0  0  0  0
 23 24  1  0  0  0  0
 24 22  1  0  0  0  0
 25 23  1  0  0  0  0
 26 23  2  0  0  0  0
M  END
>  <MODEL>
7

>  <REMARK>
 VINA RESULT:      -7.9      2.436      4.403
  Name = 
  8 active torsions:
  status: ('A' for Active; 'I' for Inactive)
    1  A    between atoms: C_2  and  C_12
    2  A    between atoms: C_2  and  O_20
    3  A    between atoms: C_2  and  C_26
    4  A    between atoms: N_7  and  C_11
    5  A    between atoms: N_7  and  C_15
    6  A    between atoms: N_9  and  C_12
    7  A    between atoms: C_15  and  C_16
    8  A    between atoms: C_16  and  C_26
                            x       y       z     vdW  Elec       q    Type
                         _______ _______ _______ _____ _____    ______ ____

>  <TORSDO>
F 8

$$$$
=
 OpenBabel10222416113D

 26 28  0  0  1  0  0  0  0  0999 V2000
  189.1460  176.6610  143.3080 C   0  0  0  0  0  3  0  0  0  0  0  0
  191.2170  176.4830  145.2460 C   0  0  0  0  0  3  0  0  0  0  0  0
  189.9720  177.0240  145.5570 C   0  0  0  0  0  0  0  0  0  0  0  0
  185.8160  178.4650  146.9450 C   0  0  0  0  0  3  0  0  0  0  0  0
  188.9590  177.1140  144.6130 C   0  0  0  0  0  0  0  0  0  0  0  0
  186.4010  177.6170  144.6660 C   0  0  2  0  0  3  0  0  0  0  0  0
  191.4260  176.0310  143.9320 C   0  0  0  0  0  3  0  0  0  0  0  0
  185.4430  178.2020  145.6810 C   0  0  0  0  0  3  0  0  0  0  0  0
  189.4510  177.5250  146.8220 C   0  0  0  0  0  0  0  0  0  0  0  0
  187.7730  177.6910  145.1650 N   0  0  0  0  0  0  0  0  0  0  0  0
  190.0460  177.5760  147.9290 O   0  0  0  0  0  0  0  0  0  0  0  0
  188.0740  177.9010  146.5390 C   0  0  0  0  0  0  0  0  0  0  0  0
  190.3980  176.1190  142.9700 C   0  0  0  0  0  3  0  0  0  0  0  0
  187.1650  178.2450  147.3950 N   0  0  0  0  0  0  0  0  0  0  0  0
  186.2900  178.3480  143.4150 N   0  0  0  0  0  2  0  0  0  0  0  0
  184.8960  178.7370  143.2750 C   0  0  0  0  0  2  0  0  0  0  0  0
  184.3580  178.2640  141.9370 C   0  0  0  0  0  2  0  0  0  0  0  0
  185.1800  178.8550  140.8050 C   0  0  0  0  0  2  0  0  0  0  0  0
  184.3750  178.8750  139.5150 C   0  0  1  0  0  3  0  0  0  0  0  0
  182.8410  180.2630  138.7280 C   0  0  0  0  0  1  0  0  0  0  0  0
  184.1850  180.1930  139.0950 O   0  0  0  0  0  0  0  0  0  0  0  0
  185.1220  178.1040  138.4350 C   0  0  0  0  0  2  0  0  0  0  0  0
  187.5540  178.2510  137.7420 C   0  0  0  0  0  0  0  0  0  0  0  0
  186.2800  178.8570  137.9740 N   0  0  0  0  0  2  0  0  0  0  0  0
  188.6480  179.0530  137.3150 N   0  0  0  0  0  1  0  0  0  0  0  0
  187.7160  177.0140  137.9120 O   0  0  0  0  0  0  0  0  0  0  0  0
  1  5  1  0  0  0  0
  2  3  1  0  0  0  0
  3  9  1  0  0  0  0
  4 14  1  0  0  0  0
  5 10  1  0  0  0  0
  5  3  2  0  0  0  0
  6 15  1  6  0  0  0
  6 10  1  0  0  0  0
  6  8  1  0  0  0  0
  7  2  2  0  0  0  0
  8  4  2  0  0  0  0
  9 11  2  0  0  0  0
 10 12  1  0  0  0  0
 12  9  1  0  0  0  0
 12 14  2  0  0  0  0
 13  1  2  0  0  0  0
 13  7  1  0  0  0  0
 16 15  1  0  0  0  0
 17 16  1  0  0  0  0
 18 17  1  0  0  0  0
 19 22  1  6  0  0  0
 19 18  1  0  0  0  0
 20 21  1  0  0  0  0
 21 19  1  0  0  0  0
 23 26  2  0  0  0  0
 23 24  1  0  0  0  0
 24 22  1  0  0  0  0
 25 23  1  0  0  0  0
M  END
>  <MODEL>
8

>  <REMARK>
 VINA RESULT:      -7.8      1.769      4.334
  Name = 
  8 active torsions:
  status: ('A' for Active; 'I' for Inactive)
    1  A    between atoms: C_2  and  C_12
    2  A    between atoms: C_2  and  O_20
    3  A    between atoms: C_2  and  C_26
    4  A    between atoms: N_7  and  C_11
    5  A    between atoms: N_7  and  C_15
    6  A    between atoms: N_9  and  C_12
    7  A    between atoms: C_15  and  C_16
    8  A    between atoms: C_16  and  C_26
                            x       y       z     vdW  Elec       q    Type
                         _______ _______ _______ _____ _____    ______ ____

>  <TORSDO>
F 8

$$$$
=
 OpenBabel10222416113D

 26 28  0  0  1  0  0  0  0  0999 V2000
  188.0640  177.5980  144.2180 C   0  0  0  0  0  3  0  0  0  0  0  0
  187.8460  177.6710  147.0520 C   0  0  0  0  0  3  0  0  0  0  0  0
  186.7920  178.0600  146.2290 C   0  0  0  0  0  0  0  0  0  0  0  0
  183.0260  178.9970  143.7360 C   0  0  0  0  0  3  0  0  0  0  0  0
  186.8950  178.0270  144.8450 C   0  0  0  0  0  0  0  0  0  0  0  0
  185.2310  178.2220  142.8470 C   0  0  2  0  0  3  0  0  0  0  0  0
  189.0360  177.2450  146.4360 C   0  0  0  0  0  3  0  0  0  0  0  0
  183.8020  178.6900  142.6820 C   0  0  0  0  0  3  0  0  0  0  0  0
  185.4440  178.4970  146.5660 C   0  0  0  0  0  0  0  0  0  0  0  0
  185.6870  178.4590  144.2150 N   0  0  0  0  0  0  0  0  0  0  0  0
  184.9440  178.6210  147.7150 O   0  0  0  0  0  0  0  0  0  0  0  0
  184.7850  178.7060  145.2860 C   0  0  0  0  0  0  0  0  0  0  0  0
  189.1440  177.2080  145.0300 C   0  0  0  0  0  3  0  0  0  0  0  0
  183.5270  178.9400  145.0830 N   0  0  0  0  0  0  0  0  0  0  0  0
  186.0870  178.9330  141.9110 N   0  0  0  0  0  2  0  0  0  0  0  0
  185.3810  178.9730  140.6410 C   0  0  0  0  0  2  0  0  0  0  0  0
  186.2210  178.3160  139.5610 C   0  0  0  0  0  2  0  0  0  0  0  0
  187.6730  178.2460  139.9970 C   0  0  0  0  0  2  0  0  0  0  0  0
  188.5640  177.8560  138.8280 C   0  0  1  0  0  3  0  0  0  0  0  0
  188.7620  179.0250  136.9580 C   0  0  0  0  0  1  0  0  0  0  0  0
  189.1690  178.9950  138.2930 O   0  0  0  0  0  0  0  0  0  0  0  0
  189.6400  176.8900  139.3050 C   0  0  0  0  0  2  0  0  0  0  0  0
  190.7830  177.0490  141.5590 C   0  0  0  0  0  0  0  0  0  0  0  0
  190.5420  177.5460  140.2410 N   0  0  0  0  0  2  0  0  0  0  0  0
  191.6590  177.7560  142.4280 N   0  0  0  0  0  1  0  0  0  0  0  0
  190.2280  175.9900  141.9570 O   0  0  0  0  0  0  0  0  0  0  0  0
  1  5  2  0  0  0  0
  1 13  1  0  0  0  0
  3  9  1  0  0  0  0
  3  2  2  0  0  0  0
  4 14  1  0  0  0  0
  5  3  1  0  0  0  0
  6 15  1  6  0  0  0
  6 10  1  0  0  0  0
  7  2  1  0  0  0  0
  8  6  1  0  0  0  0
  8  4  2  0  0  0  0
  9 11  2  0  0  0  0
 10  5  1  0  0  0  0
 10 12  1  0  0  0  0
 12  9  1  0  0  0  0
 13  7  2  0  0  0  0
 14 12  2  0  0  0  0
 16 15  1  0  0  0  0
 17 18  1  0  0  0  0
 17 16  1  0  0  0  0
 19 22  1  1  0  0  0
 19 18  1  0  0  0  0
 20 21  1  0  0  0  0
 21 19  1  0  0  0  0
 22 24  1  0  0  0  0
 23 26  2  0  0  0  0
 23 25  1  0  0  0  0
 24 23  1  0  0  0  0
M  END
>  <MODEL>
9

>  <REMARK>
 VINA RESULT:      -7.7      2.381      4.689
  Name = 
  8 active torsions:
  status: ('A' for Active; 'I' for Inactive)
    1  A    between atoms: C_2  and  C_12
    2  A    between atoms: C_2  and  O_20
    3  A    between atoms: C_2  and  C_26
    4  A    between atoms: N_7  and  C_11
    5  A    between atoms: N_7  and  C_15
    6  A    between atoms: N_9  and  C_12
    7  A    between atoms: C_15  and  C_16
    8  A    between atoms: C_16  and  C_26
                            x       y       z     vdW  Elec       q    Type
                         _______ _______ _______ _____ _____    ______ ____

>  <TORSDO>
F 8

$$$$
