=
 OpenBabel10222418063D

 35 39  0  0  1  0  0  0  0  0999 V2000
  188.8240  177.5680  144.9190 C   0  0  0  0  0  0  0  0  0  0  0  0
  186.9480  178.2040  141.7850 N   0  0  0  0  0  0  0  0  0  0  0  0
  187.3460  178.2590  140.5000 C   0  0  0  0  0  3  0  0  0  0  0  0
  190.2840  177.3370  144.7180 C   0  0  0  0  0  1  0  0  0  0  0  0
  185.5110  178.2550  143.7120 C   0  0  0  0  0  0  0  0  0  0  0  0
  188.7140  178.0320  140.4820 C   0  0  0  0  0  0  0  0  0  0  0  0
  185.6880  178.3650  142.3050 C   0  0  2  0  0  3  0  0  0  0  0  0
  184.6440  178.6180  141.5100 C   0  0  0  0  0  3  0  0  0  0  0  0
  181.6670  178.9120  143.9280 C   0  0  0  0  0  2  0  0  0  0  0  0
  184.1570  178.4350  144.3510 C   0  0  0  0  0  3  0  0  0  0  0  0
  188.0360  177.9430  142.5420 C   0  0  0  0  0  0  0  0  0  0  0  0
  179.8760  178.2410  140.5590 C   0  0  0  0  0  1  0  0  0  0  0  0
  187.8980  177.8260  143.9230 C   0  0  0  0  0  0  0  0  0  0  0  0
  179.4740  178.1630  143.3570 O   0  0  0  0  0  0  0  0  0  0  0  0
  183.0450  178.6950  143.3680 C   0  0  0  0  0  0  0  0  0  0  0  0
  182.1750  179.0970  141.0760 C   0  0  0  0  0  2  0  0  0  0  0  0
  186.7940  177.8220  145.8560 C   0  0  0  0  0  0  0  0  0  0  0  0
  183.2820  178.7840  142.0420 C   0  0  0  0  0  0  0  0  0  0  0  0
  188.1360  177.5640  146.1360 C   0  0  0  0  0  0  0  0  0  0  0  0
  180.6110  178.5120  142.9440 C   0  0  0  0  0  0  0  0  0  0  0  0
  185.7670  177.9040  146.7900 O   0  0  0  0  0  1  0  0  0  0  0  0
  189.1770  177.8210  141.7750 C   0  0  0  0  0  3  0  0  0  0  0  0
  186.6520  177.9830  144.4910 C   0  0  0  0  0  0  0  0  0  0  0  0
  180.8990  178.5610  141.5400 N   0  0  0  0  0  0  0  0  0  0  0  0
  189.3820  176.2810  147.7040 O   0  0  0  0  0  0  0  0  0  0  0  0
  188.7240  177.3290  147.4740 C   0  0  0  0  0  0  0  0  0  0  0  0
  188.5550  178.3170  148.5760 C   0  0  0  0  0  1  0  0  0  0  0  0
  189.5530  177.9690  139.2540 C   0  0  0  0  0  2  0  0  0  0  0  0
  191.0880  177.0470  139.5820 S   0  0  0  0  0  0  0  0  0  0  0  0
  190.7340  175.7780  138.3230 C   0  0  0  0  0  2  0  0  0  0  0  0
  192.0060  175.3360  137.6170 C   0  0  0  0  0  2  0  0  0  0  0  0
  193.1610  176.2800  137.9230 C   0  0  0  0  0  2  0  0  0  0  0  0
  194.4230  174.3130  137.8740 C   0  0  0  0  0  1  0  0  0  0  0  0
  194.3960  175.7260  136.0250 C   0  0  0  0  0  1  0  0  0  0  0  0
  194.4220  175.7100  137.4760 N   0  0  0  0  0  0  0  0  0  0  0  0
  1 19  1  0  0  0  0
  2  7  1  0  0  0  0
  2 11  1  0  0  0  0
  3  2  1  0  0  0  0
  4  1  1  0  0  0  0
  5 10  1  0  0  0  0
  5 23  2  0  0  0  0
  6  3  2  0  0  0  0
  6 22  1  0  0  0  0
  7  8  1  6  0  0  0
  7  5  1  0  0  0  0
  8 18  2  0  0  0  0
 11 13  1  0  0  0  0
 12 24  1  0  0  0  0
 13 23  1  0  0  0  0
 13  1  2  0  0  0  0
 15  9  1  0  0  0  0
 15 10  2  0  0  0  0
 16 24  1  0  0  0  0
 16 18  1  0  0  0  0
 17 19  2  0  0  0  0
 17 21  1  0  0  0  0
 18 15  1  0  0  0  0
 19 26  1  0  0  0  0
 20 14  2  0  0  0  0
 20  9  1  0  0  0  0
 22 11  2  0  0  0  0
 23 17  1  0  0  0  0
 24 20  1  0  0  0  0
 26 25  2  0  0  0  0
 26 27  1  0  0  0  0
 28 29  1  0  0  0  0
 28  6  1  0  0  0  0
 30 29  1  0  0  0  0
 31 32  1  0  0  0  0
 31 30  1  0  0  0  0
 34 35  1  0  0  0  0
 35 33  1  0  0  0  0
 35 32  1  0  0  0  0
M  END
>  <MODEL>
1

>  <REMARK>
 VINA RESULT:      -9.9      0.000      0.000
  Name = 
  7 active torsions:
  status: ('A' for Active; 'I' for Inactive)
    1  A    between atoms: C_3  and  S_9
    2  A    between atoms: C_3  and  C_13
    3  A    between atoms: C_8  and  C_24
    4  A    between atoms: S_9  and  C_24
    5  A    between atoms: C_11  and  C_30
    6  A    between atoms: C_13  and  C_29
    7  A    between atoms: N_27  and  C_29
                            x       y       z     vdW  Elec       q    Type
                         _______ _______ _______ _____ _____    ______ ____

>  <TORSDO>
F 7

$$$$
=
 OpenBabel10222418063D

 35 39  0  0  1  0  0  0  0  0999 V2000
  189.0450  177.5820  144.8050 C   0  0  0  0  0  0  0  0  0  0  0  0
  187.0440  178.2040  141.7480 N   0  0  0  0  0  0  0  0  0  0  0  0
  187.3900  178.2660  140.4490 C   0  0  0  0  0  3  0  0  0  0  0  0
  190.4990  177.3650  144.5470 C   0  0  0  0  0  1  0  0  0  0  0  0
  185.6820  178.2380  143.7280 C   0  0  0  0  0  0  0  0  0  0  0  0
  188.7590  178.0520  140.3770 C   0  0  0  0  0  0  0  0  0  0  0  0
  185.8030  178.3520  142.3160 C   0  0  2  0  0  3  0  0  0  0  0  0
  184.7260  178.5960  141.5630 C   0  0  0  0  0  3  0  0  0  0  0  0
  181.8430  178.8570  144.0950 C   0  0  0  0  0  2  0  0  0  0  0  0
  184.3520  178.4040  144.4200 C   0  0  0  0  0  3  0  0  0  0  0  0
  188.1620  177.9530  142.4620 C   0  0  0  0  0  0  0  0  0  0  0  0
  179.9290  178.1750  140.7960 C   0  0  0  0  0  1  0  0  0  0  0  0
  188.0790  177.8320  143.8460 C   0  0  0  0  0  0  0  0  0  0  0  0
  179.6370  178.0880  143.6080 O   0  0  0  0  0  0  0  0  0  0  0  0
  183.2000  178.6540  143.4810 C   0  0  0  0  0  0  0  0  0  0  0  0
  182.2380  179.0520  141.2250 C   0  0  0  0  0  2  0  0  0  0  0  0
  187.0510  177.8140  145.8200 C   0  0  0  0  0  0  0  0  0  0  0  0
  183.3850  178.7480  142.1470 C   0  0  0  0  0  0  0  0  0  0  0  0
  188.4050  177.5690  146.0480 C   0  0  0  0  0  0  0  0  0  0  0  0
  180.7530  178.4490  143.1520 C   0  0  0  0  0  0  0  0  0  0  0  0
  186.0600  177.8850  146.7930 O   0  0  0  0  0  1  0  0  0  0  0  0
  189.2730  177.8430  141.6500 C   0  0  0  0  0  3  0  0  0  0  0  0
  186.8550  177.9750  144.4620 C   0  0  0  0  0  0  0  0  0  0  0  0
  180.9860  178.5030  141.7380 N   0  0  0  0  0  0  0  0  0  0  0  0
  189.7350  176.3020  147.5590 O   0  0  0  0  0  0  0  0  0  0  0  0
  189.0470  177.3370  147.3620 C   0  0  0  0  0  0  0  0  0  0  0  0
  188.8980  178.3140  148.4760 C   0  0  0  0  0  1  0  0  0  0  0  0
  189.5500  177.9990  139.1170 C   0  0  0  0  0  2  0  0  0  0  0  0
  190.9450  176.8430  139.2930 S   0  0  0  0  0  0  0  0  0  0  0  0
  190.3410  175.7290  137.9840 C   0  0  0  0  0  2  0  0  0  0  0  0
  189.6500  176.5090  136.8750 C   0  0  0  0  0  2  0  0  0  0  0  0
  188.4490  175.7450  136.3320 C   0  0  0  0  0  2  0  0  0  0  0  0
  186.4730  176.7820  137.0300 C   0  0  0  0  0  1  0  0  0  0  0  0
  186.6530  174.4620  137.0780 C   0  0  0  0  0  1  0  0  0  0  0  0
  187.3860  175.6900  137.3220 N   0  0  0  0  0  0  0  0  0  0  0  0
  1 19  1  0  0  0  0
  2  7  1  0  0  0  0
  2 11  1  0  0  0  0
  3  2  1  0  0  0  0
  4  1  1  0  0  0  0
  5 10  1  0  0  0  0
  5 23  2  0  0  0  0
  6  3  2  0  0  0  0
  6 22  1  0  0  0  0
  7  8  1  6  0  0  0
  7  5  1  0  0  0  0
  8 18  2  0  0  0  0
 11 13  1  0  0  0  0
 12 24  1  0  0  0  0
 13 23  1  0  0  0  0
 13  1  2  0  0  0  0
 15  9  1  0  0  0  0
 15 10  2  0  0  0  0
 16 24  1  0  0  0  0
 16 18  1  0  0  0  0
 17 19  2  0  0  0  0
 17 21  1  0  0  0  0
 18 15  1  0  0  0  0
 19 26  1  0  0  0  0
 20 14  2  0  0  0  0
 20  9  1  0  0  0  0
 22 11  2  0  0  0  0
 23 17  1  0  0  0  0
 24 20  1  0  0  0  0
 26 25  2  0  0  0  0
 26 27  1  0  0  0  0
 28 29  1  0  0  0  0
 28  6  1  0  0  0  0
 30 29  1  0  0  0  0
 31 30  1  0  0  0  0
 32 31  1  0  0  0  0
 32 35  1  0  0  0  0
 33 35  1  0  0  0  0
 34 35  1  0  0  0  0
M  END
>  <MODEL>
2

>  <REMARK>
 VINA RESULT:      -9.9      1.705      2.487
  Name = 
  7 active torsions:
  status: ('A' for Active; 'I' for Inactive)
    1  A    between atoms: C_3  and  S_9
    2  A    between atoms: C_3  and  C_13
    3  A    between atoms: C_8  and  C_24
    4  A    between atoms: S_9  and  C_24
    5  A    between atoms: C_11  and  C_30
    6  A    between atoms: C_13  and  C_29
    7  A    between atoms: N_27  and  C_29
                            x       y       z     vdW  Elec       q    Type
                         _______ _______ _______ _____ _____    ______ ____

>  <TORSDO>
F 7

$$$$
=
 OpenBabel10222418063D

 35 39  0  0  1  0  0  0  0  0999 V2000
  183.4410  178.6470  143.7010 C   0  0  0  0  0  0  0  0  0  0  0  0
  187.0740  177.9480  143.9360 N   0  0  0  0  0  0  0  0  0  0  0  0
  187.8660  177.6750  144.9900 C   0  0  0  0  0  3  0  0  0  0  0  0
  182.7310  178.6260  145.0140 C   0  0  0  0  0  1  0  0  0  0  0  0
  186.3850  178.3350  141.6660 C   0  0  0  0  0  0  0  0  0  0  0  0
  187.0670  177.6980  146.1230 C   0  0  0  0  0  0  0  0  0  0  0  0
  187.4070  178.0370  142.6080 C   0  0  0  0  0  0  0  0  0  0  0  0
  188.6660  177.8450  142.2010 C   0  0  0  0  0  3  0  0  0  0  0  0
  188.5100  178.3400  138.3890 C   0  0  0  0  0  2  0  0  0  0  0  0
  186.6830  178.4620  140.1930 C   0  0  0  0  0  3  0  0  0  0  0  0
  185.8190  178.1280  144.4000 C   0  0  0  0  0  0  0  0  0  0  0  0
  191.8180  176.3620  138.7880 C   0  0  0  0  0  1  0  0  0  0  0  0
  184.7920  178.4190  143.5060 C   0  0  2  0  0  3  0  0  0  0  0  0
  189.8590  177.0780  136.8780 O   0  0  0  0  0  0  0  0  0  0  0  0
  188.1240  178.2070  139.8370 C   0  0  0  0  0  0  0  0  0  0  0  0
  190.4910  177.7250  140.4210 C   0  0  0  0  0  2  0  0  0  0  0  0
  183.9000  178.8150  141.5060 C   0  0  0  0  0  0  0  0  0  0  0  0
  189.0460  177.9250  140.7820 C   0  0  0  0  0  0  0  0  0  0  0  0
  182.8750  178.8960  142.4480 C   0  0  0  0  0  0  0  0  0  0  0  0
  189.6890  177.4780  138.0590 C   0  0  0  0  0  0  0  0  0  0  0  0
  183.7630  178.9990  140.1340 O   0  0  0  0  0  1  0  0  0  0  0  0
  185.7530  177.9790  145.7710 C   0  0  0  0  0  3  0  0  0  0  0  0
  185.0790  178.5210  142.1620 C   0  0  0  0  0  0  0  0  0  0  0  0
  190.6300  177.1430  139.0890 N   0  0  0  0  0  0  0  0  0  0  0  0
  180.8880  180.1750  142.7220 O   0  0  0  0  0  0  0  0  0  0  0  0
  181.4510  179.1910  142.1730 C   0  0  0  0  0  0  0  0  0  0  0  0
  180.6510  178.3420  141.2470 C   0  0  0  0  0  1  0  0  0  0  0  0
  187.5370  177.4090  147.5060 C   0  0  0  0  0  2  0  0  0  0  0  0
  189.2250  178.0460  147.7480 S   0  0  0  0  0  0  0  0  0  0  0  0
  190.0080  176.4350  147.4160 C   0  0  0  0  0  2  0  0  0  0  0  0
  191.5150  176.5760  147.2740 C   0  0  0  0  0  2  0  0  0  0  0  0
  191.9850  176.1020  145.9050 C   0  0  0  0  0  2  0  0  0  0  0  0
  191.6390  177.9990  144.5850 C   0  0  0  0  0  1  0  0  0  0  0  0
  191.4070  175.8770  143.6590 C   0  0  0  0  0  1  0  0  0  0  0  0
  191.1490  176.6590  144.8540 N   0  0  0  0  0  0  0  0  0  0  0  0
  1  4  1  0  0  0  0
  2 11  1  0  0  0  0
  2  3  1  0  0  0  0
  3  6  2  0  0  0  0
  5 23  1  0  0  0  0
  5  7  1  0  0  0  0
  6 28  1  0  0  0  0
  7  2  1  0  0  0  0
  8  7  2  0  0  0  0
  9 15  1  0  0  0  0
 10  5  2  0  0  0  0
 11 22  2  0  0  0  0
 12 24  1  0  0  0  0
 13 23  1  1  0  0  0
 13  1  1  0  0  0  0
 13 11  1  0  0  0  0
 14 20  2  0  0  0  0
 15 10  1  0  0  0  0
 15 18  2  0  0  0  0
 16 18  1  0  0  0  0
 17 23  2  0  0  0  0
 17 19  1  0  0  0  0
 18  8  1  0  0  0  0
 19  1  2  0  0  0  0
 20  9  1  0  0  0  0
 20 24  1  0  0  0  0
 21 17  1  0  0  0  0
 22  6  1  0  0  0  0
 24 16  1  0  0  0  0
 26 19  1  0  0  0  0
 26 25  2  0  0  0  0
 27 26  1  0  0  0  0
 28 29  1  0  0  0  0
 30 29  1  0  0  0  0
 31 30  1  0  0  0  0
 32 31  1  0  0  0  0
 33 35  1  0  0  0  0
 34 35  1  0  0  0  0
 35 32  1  0  0  0  0
M  END
>  <MODEL>
3

>  <REMARK>
 VINA RESULT:      -9.5      3.140      7.575
  Name = 
  7 active torsions:
  status: ('A' for Active; 'I' for Inactive)
    1  A    between atoms: C_3  and  S_9
    2  A    between atoms: C_3  and  C_13
    3  A    between atoms: C_8  and  C_24
    4  A    between atoms: S_9  and  C_24
    5  A    between atoms: C_11  and  C_30
    6  A    between atoms: C_13  and  C_29
    7  A    between atoms: N_27  and  C_29
                            x       y       z     vdW  Elec       q    Type
                         _______ _______ _______ _____ _____    ______ ____

>  <TORSDO>
F 7

$$$$
=
 OpenBabel10222418063D

 35 39  0  0  0  0  0  0  0  0999 V2000
  189.3460  177.3050  146.7390 C   0  0  0  0  0  0  0  0  0  0  0  0
  187.2230  177.8360  143.7470 N   0  0  0  0  0  0  0  0  0  0  0  0
  185.9500  178.2530  143.6160 C   0  0  0  0  0  3  0  0  0  0  0  0
  188.6630  177.6050  148.0310 C   0  0  0  0  0  1  0  0  0  0  0  0
  189.4260  177.0780  143.1540 C   0  0  0  0  0  0  0  0  0  0  0  0
  185.4580  178.4820  144.8930 C   0  0  0  0  0  0  0  0  0  0  0  0
  188.1200  177.4870  142.7690 C   0  0  0  0  0  0  0  0  0  0  0  0
  187.7800  177.5320  141.4760 C   0  0  0  0  0  3  0  0  0  0  0  0
  190.9420  176.3580  139.6280 C   0  0  0  0  0  2  0  0  0  0  0  0
  190.4570  176.6670  142.1330 C   0  0  0  0  0  2  0  0  0  0  0  0
  187.5150  177.8120  145.0650 C   0  0  0  0  0  0  0  0  0  0  0  0
  189.0210  178.1910  136.8070 C   0  0  0  0  0  1  0  0  0  0  0  0
  188.7850  177.4190  145.4780 C   0  0  0  0  0  0  0  0  0  0  0  0
  191.5920  177.2450  137.5100 O   0  0  0  0  0  0  0  0  0  0  0  0
  189.9810  176.7740  140.7070 C   0  0  0  0  0  0  0  0  0  0  0  0
  188.2470  177.2240  138.9860 C   0  0  0  0  0  2  0  0  0  0  0  0
  190.8780  176.7130  145.2010 C   0  0  0  0  0  0  0  0  0  0  0  0
  188.7270  177.1740  140.4090 C   0  0  0  0  0  0  0  0  0  0  0  0
  190.6610  176.8620  146.5710 C   0  0  0  0  0  0  0  0  0  0  0  0
  190.6650  177.0790  138.3450 C   0  0  0  0  0  0  0  0  0  0  0  0
  192.0600  176.2890  144.6040 O   0  0  0  0  0  1  0  0  0  0  0  0
  186.4420  178.2140  145.8350 C   0  0  0  0  0  3  0  0  0  0  0  0
  189.7190  177.0580  144.5320 C   0  0  0  0  0  0  0  0  0  0  0  0
  189.3370  177.5450  138.0700 N   0  0  0  0  0  0  0  0  0  0  0  0
  191.9610  177.5140  148.4530 O   0  0  0  0  0  0  0  0  0  0  0  0
  191.6420  176.5990  147.6480 C   0  0  0  0  0  0  0  0  0  0  0  0
  192.2720  175.2600  147.8100 C   0  0  0  0  0  1  0  0  0  0  0  0
  184.0950  178.9930  145.2040 C   0  0  0  0  0  2  0  0  0  0  0  0
  183.2010  179.3910  143.6690 S   0  0  0  0  0  0  0  0  0  0  0  0
  181.6420  178.6440  144.2420 C   0  0  0  0  0  2  0  0  0  0  0  0
  180.5700  178.7160  143.1660 C   0  0  0  0  0  2  0  0  0  0  0  0
  181.1870  178.9310  141.7900 C   0  0  0  0  0  2  0  0  0  0  0  0
  179.0320  178.4040  141.0530 C   0  0  0  0  0  1  0  0  0  0  0  0
  179.7200  180.6250  141.1500 C   0  0  0  0  0  1  0  0  0  0  0  0
  180.1630  179.2830  140.8190 N   0  0  0  0  0  0  0  0  0  0  0  0
  1  4  1  0  0  0  0
  2 11  1  0  0  0  0
  3  2  1  0  0  0  0
  3  6  2  0  0  0  0
  5 23  2  0  0  0  0
  6 28  1  0  0  0  0
  6 22  1  0  0  0  0
  7  5  1  0  0  0  0
  7  2  1  0  0  0  0
  8  7  2  0  0  0  0
  9 15  1  0  0  0  0
 10  5  1  0  0  0  0
 11 13  1  0  0  0  0
 11 22  2  0  0  0  0
 12 24  1  0  0  0  0
 13  1  2  0  0  0  0
 14 20  2  0  0  0  0
 15 10  1  0  0  0  0
 16 18  1  0  0  0  0
 17 19  2  0  0  0  0
 18 15  2  0  0  0  0
 18  8  1  0  0  0  0
 19  1  1  0  0  0  0
 19 26  1  0  0  0  0
 20  9  1  0  0  0  0
 21 17  1  0  0  0  0
 23 17  1  0  0  0  0
 23 13  1  0  0  0  0
 24 20  1  0  0  0  0
 24 16  1  0  0  0  0
 26 27  1  0  0  0  0
 26 25  2  0  0  0  0
 29 30  1  0  0  0  0
 29 28  1  0  0  0  0
 31 30  1  0  0  0  0
 32 31  1  0  0  0  0
 35 33  1  0  0  0  0
 35 34  1  0  0  0  0
 35 32  1  0  0  0  0
M  END
>  <MODEL>
4

>  <REMARK>
 VINA RESULT:      -9.0      3.463      8.304
  Name = 
  7 active torsions:
  status: ('A' for Active; 'I' for Inactive)
    1  A    between atoms: C_3  and  S_9
    2  A    between atoms: C_3  and  C_13
    3  A    between atoms: C_8  and  C_24
    4  A    between atoms: S_9  and  C_24
    5  A    between atoms: C_11  and  C_30
    6  A    between atoms: C_13  and  C_29
    7  A    between atoms: N_27  and  C_29
                            x       y       z     vdW  Elec       q    Type
                         _______ _______ _______ _____ _____    ______ ____

>  <TORSDO>
F 7

$$$$
=
 OpenBabel10222418063D

 35 39  0  0  1  0  0  0  0  0999 V2000
  182.5090  179.1190  141.4050 C   0  0  0  0  0  0  0  0  0  0  0  0
  186.0640  178.2190  140.8630 N   0  0  0  0  0  0  0  0  0  0  0  0
  186.8010  178.1190  139.7400 C   0  0  0  0  0  3  0  0  0  0  0  0
  181.7600  179.4200  140.1500 C   0  0  0  0  0  1  0  0  0  0  0  0
  185.4810  178.1880  143.1950 C   0  0  0  0  0  0  0  0  0  0  0  0
  185.9680  178.4200  138.6730 C   0  0  0  0  0  0  0  0  0  0  0  0
  186.4460  178.0150  142.1650 C   0  0  2  0  0  3  0  0  0  0  0  0
  187.7010  177.6640  142.4660 C   0  0  0  0  0  3  0  0  0  0  0  0
  187.6920  177.3310  146.2980 C   0  0  0  0  0  2  0  0  0  0  0  0
  185.8290  177.9660  144.6460 C   0  0  0  0  0  3  0  0  0  0  0  0
  184.8130  178.5790  140.5040 C   0  0  0  0  0  0  0  0  0  0  0  0
  191.4740  177.7250  145.5550 C   0  0  0  0  0  1  0  0  0  0  0  0
  183.8430  178.7590  141.4870 C   0  0  0  0  0  0  0  0  0  0  0  0
  189.5730  177.9260  147.6400 O   0  0  0  0  0  0  0  0  0  0  0  0
  187.2700  177.5950  144.8800 C   0  0  0  0  0  0  0  0  0  0  0  0
  189.5590  177.0270  144.0960 C   0  0  0  0  0  2  0  0  0  0  0  0
  183.0490  178.8010  143.5650 C   0  0  0  0  0  0  0  0  0  0  0  0
  188.1370  177.4500  143.8550 C   0  0  0  0  0  0  0  0  0  0  0  0
  182.0040  179.1480  142.7070 C   0  0  0  0  0  0  0  0  0  0  0  0
  189.1480  177.6190  146.4960 C   0  0  0  0  0  0  0  0  0  0  0  0
  182.9700  178.7110  144.9510 O   0  0  0  0  0  1  0  0  0  0  0  0
  184.6940  178.7240  139.1360 C   0  0  0  0  0  3  0  0  0  0  0  0
  184.1800  178.5630  142.8080 C   0  0  0  0  0  0  0  0  0  0  0  0
  190.0460  177.5140  145.3830 N   0  0  0  0  0  0  0  0  0  0  0  0
  180.1600  180.6380  142.8960 O   0  0  0  0  0  0  0  0  0  0  0  0
  180.6180  179.4840  143.1030 C   0  0  0  0  0  0  0  0  0  0  0  0
  179.7340  178.4760  143.7520 C   0  0  0  0  0  1  0  0  0  0  0  0
  186.3910  178.4670  137.2460 C   0  0  0  0  0  2  0  0  0  0  0  0
  187.2670  176.9360  136.7950 S   0  0  0  0  0  0  0  0  0  0  0  0
  188.8170  177.8030  136.3900 C   0  0  0  0  0  2  0  0  0  0  0  0
  190.0110  177.1300  137.0480 C   0  0  0  0  0  2  0  0  0  0  0  0
  189.5820  176.3120  138.2590 C   0  0  0  0  0  2  0  0  0  0  0  0
  191.9020  176.5370  138.4350 C   0  0  0  0  0  1  0  0  0  0  0  0
  190.5660  176.7160  140.3330 C   0  0  0  0  0  1  0  0  0  0  0  0
  190.7290  175.9840  139.0900 N   0  0  0  0  0  0  0  0  0  0  0  0
  1 13  2  0  0  0  0
  1 19  1  0  0  0  0
  2  7  1  0  0  0  0
  3  2  1  0  0  0  0
  4  1  1  0  0  0  0
  5 10  1  0  0  0  0
  6 22  1  0  0  0  0
  6  3  2  0  0  0  0
  7  8  1  1  0  0  0
  7  5  1  0  0  0  0
  8 18  2  0  0  0  0
  9 20  1  0  0  0  0
 10 15  2  0  0  0  0
 11  2  1  0  0  0  0
 11 13  1  0  0  0  0
 13 23  1  0  0  0  0
 15  9  1  0  0  0  0
 16 24  1  0  0  0  0
 17 21  1  0  0  0  0
 18 16  1  0  0  0  0
 18 15  1  0  0  0  0
 19 26  1  0  0  0  0
 19 17  2  0  0  0  0
 20 14  2  0  0  0  0
 22 11  2  0  0  0  0
 23  5  2  0  0  0  0
 23 17  1  0  0  0  0
 24 12  1  0  0  0  0
 24 20  1  0  0  0  0
 25 26  2  0  0  0  0
 26 27  1  0  0  0  0
 28  6  1  0  0  0  0
 29 28  1  0  0  0  0
 30 29  1  0  0  0  0
 30 31  1  0  0  0  0
 31 32  1  0  0  0  0
 32 35  1  0  0  0  0
 33 35  1  0  0  0  0
 35 34  1  0  0  0  0
M  END
>  <MODEL>
5

>  <REMARK>
 VINA RESULT:      -8.9      2.099      6.363
  Name = 
  7 active torsions:
  status: ('A' for Active; 'I' for Inactive)
    1  A    between atoms: C_3  and  S_9
    2  A    between atoms: C_3  and  C_13
    3  A    between atoms: C_8  and  C_24
    4  A    between atoms: S_9  and  C_24
    5  A    between atoms: C_11  and  C_30
    6  A    between atoms: C_13  and  C_29
    7  A    between atoms: N_27  and  C_29
                            x       y       z     vdW  Elec       q    Type
                         _______ _______ _______ _____ _____    ______ ____

>  <TORSDO>
F 7

$$$$
=
 OpenBabel10222418063D

 35 39  0  0  1  0  0  0  0  0999 V2000
  186.6100  178.5170  139.5010 C   0  0  0  0  0  0  0  0  0  0  0  0
  189.5500  177.3520  141.4370 N   0  0  0  0  0  0  0  0  0  0  0  0
  190.7810  176.9710  141.0500 C   0  0  0  0  0  3  0  0  0  0  0  0
  186.8330  178.5660  138.0270 C   0  0  0  0  0  1  0  0  0  0  0  0
  187.6870  177.8680  142.8670 C   0  0  0  0  0  0  0  0  0  0  0  0
  190.8270  177.0660  139.6670 C   0  0  0  0  0  0  0  0  0  0  0  0
  189.0290  177.4260  142.7040 C   0  0  0  0  0  0  0  0  0  0  0  0
  189.7640  177.0920  143.7700 C   0  0  0  0  0  3  0  0  0  0  0  0
  187.3940  177.6210  146.7540 C   0  0  0  0  0  2  0  0  0  0  0  0
  187.0470  177.9590  144.2290 C   0  0  0  0  0  3  0  0  0  0  0  0
  188.8530  177.6820  140.3280 C   0  0  0  0  0  0  0  0  0  0  0  0
  190.8580  177.6610  148.4880 C   0  0  0  0  0  1  0  0  0  0  0  0
  187.5380  178.1210  140.4500 C   0  0  2  0  0  3  0  0  0  0  0  0
  188.1580  178.4100  148.8720 O   0  0  0  0  0  0  0  0  0  0  0  0
  187.9650  177.5820  145.3630 C   0  0  0  0  0  0  0  0  0  0  0  0
  190.1210  176.7460  146.2740 C   0  0  0  0  0  2  0  0  0  0  0  0
  185.6760  178.6630  141.5430 C   0  0  0  0  0  0  0  0  0  0  0  0
  189.2310  177.1720  145.1390 C   0  0  0  0  0  0  0  0  0  0  0  0
  185.4380  178.8590  140.1820 C   0  0  0  0  0  0  0  0  0  0  0  0
  188.4610  177.8770  147.7720 C   0  0  0  0  0  0  0  0  0  0  0  0
  184.7650  178.8870  142.5700 O   0  0  0  0  0  1  0  0  0  0  0  0
  189.6090  177.5240  139.1830 C   0  0  0  0  0  3  0  0  0  0  0  0
  186.9710  178.2090  141.7030 C   0  0  0  0  0  0  0  0  0  0  0  0
  189.8120  177.4840  147.4950 N   0  0  0  0  0  0  0  0  0  0  0  0
  184.1090  180.5000  139.0890 O   0  0  0  0  0  0  0  0  0  0  0  0
  184.1780  179.3390  139.5710 C   0  0  0  0  0  0  0  0  0  0  0  0
  182.9700  178.4710  139.5100 C   0  0  0  0  0  1  0  0  0  0  0  0
  192.0230  176.7730  138.8300 C   0  0  0  0  0  2  0  0  0  0  0  0
  191.5380  175.8680  137.3270 S   0  0  0  0  0  0  0  0  0  0  0  0
  193.2560  175.6560  136.7590 C   0  0  0  0  0  2  0  0  0  0  0  0
  194.1600  175.2090  137.8970 C   0  0  0  0  0  2  0  0  0  0  0  0
  194.3330  173.6960  137.9010 C   0  0  0  0  0  2  0  0  0  0  0  0
  196.5480  172.9500  137.8790 C   0  0  0  0  0  1  0  0  0  0  0  0
  195.8570  174.5030  139.4690 C   0  0  0  0  0  1  0  0  0  0  0  0
  195.4450  173.3090  138.7530 N   0  0  0  0  0  0  0  0  0  0  0  0
  1 19  2  0  0  0  0
  2  7  1  0  0  0  0
  3  2  1  0  0  0  0
  4  1  1  0  0  0  0
  5 10  1  0  0  0  0
  6  3  2  0  0  0  0
  7  5  2  0  0  0  0
  7  8  1  0  0  0  0
  8 18  2  0  0  0  0
  9 20  1  0  0  0  0
 10 15  2  0  0  0  0
 11 13  1  0  0  0  0
 11  2  1  0  0  0  0
 13  1  1  6  0  0  0
 13 23  1  0  0  0  0
 15  9  1  0  0  0  0
 16 24  1  0  0  0  0
 17 23  2  0  0  0  0
 17 21  1  0  0  0  0
 18 15  1  0  0  0  0
 18 16  1  0  0  0  0
 19 17  1  0  0  0  0
 20 14  2  0  0  0  0
 22  6  1  0  0  0  0
 22 11  2  0  0  0  0
 23  5  1  0  0  0  0
 24 20  1  0  0  0  0
 24 12  1  0  0  0  0
 25 26  2  0  0  0  0
 26 19  1  0  0  0  0
 27 26  1  0  0  0  0
 28  6  1  0  0  0  0
 29 28  1  0  0  0  0
 30 29  1  0  0  0  0
 30 31  1  0  0  0  0
 31 32  1  0  0  0  0
 32 35  1  0  0  0  0
 33 35  1  0  0  0  0
 35 34  1  0  0  0  0
M  END
>  <MODEL>
6

>  <REMARK>
 VINA RESULT:      -8.6      2.645      6.305
  Name = 
  7 active torsions:
  status: ('A' for Active; 'I' for Inactive)
    1  A    between atoms: C_3  and  S_9
    2  A    between atoms: C_3  and  C_13
    3  A    between atoms: C_8  and  C_24
    4  A    between atoms: S_9  and  C_24
    5  A    between atoms: C_11  and  C_30
    6  A    between atoms: C_13  and  C_29
    7  A    between atoms: N_27  and  C_29
                            x       y       z     vdW  Elec       q    Type
                         _______ _______ _______ _____ _____    ______ ____

>  <TORSDO>
F 7

$$$$
=
 OpenBabel10222418063D

 35 39  0  0  1  0  0  0  0  0999 V2000
  181.9640  178.8970  142.3350 C   0  0  0  0  0  0  0  0  0  0  0  0
  185.6170  178.5370  142.8490 N   0  0  0  0  0  0  0  0  0  0  0  0
  186.3610  178.4750  143.9690 C   0  0  0  0  0  3  0  0  0  0  0  0
  181.1790  178.9970  143.5990 C   0  0  0  0  0  1  0  0  0  0  0  0
  185.0420  178.5540  140.5150 C   0  0  0  0  0  0  0  0  0  0  0  0
  185.4950  178.5860  145.0460 C   0  0  0  0  0  0  0  0  0  0  0  0
  186.0240  178.4710  141.5400 C   0  0  0  0  0  0  0  0  0  0  0  0
  187.3170  178.3290  141.2280 C   0  0  0  0  0  3  0  0  0  0  0  0
  187.3590  178.2870  137.3820 C   0  0  0  0  0  2  0  0  0  0  0  0
  185.4200  178.5030  139.0560 C   0  0  0  0  0  3  0  0  0  0  0  0
  184.3260  178.6750  143.2190 C   0  0  0  0  0  0  0  0  0  0  0  0
  190.7730  176.6590  138.2210 C   0  0  0  0  0  1  0  0  0  0  0  0
  183.3380  178.7560  142.2420 C   0  0  2  0  0  3  0  0  0  0  0  0
  188.8880  176.9470  136.1320 O   0  0  0  0  0  0  0  0  0  0  0  0
  186.8960  178.3210  138.8120 C   0  0  0  0  0  0  0  0  0  0  0  0
  189.2520  178.1190  139.5770 C   0  0  0  0  0  2  0  0  0  0  0  0
  182.5430  178.8030  140.1630 C   0  0  0  0  0  0  0  0  0  0  0  0
  187.7760  178.2460  139.8330 C   0  0  0  0  0  0  0  0  0  0  0  0
  181.4590  178.9270  141.0320 C   0  0  0  0  0  0  0  0  0  0  0  0
  188.6170  177.4880  137.2360 C   0  0  0  0  0  0  0  0  0  0  0  0
  182.4780  178.7860  138.7740 O   0  0  0  0  0  1  0  0  0  0  0  0
  184.1880  178.7080  144.5920 C   0  0  0  0  0  3  0  0  0  0  0  0
  183.6990  178.6980  140.9130 C   0  0  0  0  0  0  0  0  0  0  0  0
  189.5140  177.3730  138.3500 N   0  0  0  0  0  0  0  0  0  0  0  0
  179.5050  180.2030  140.5750 O   0  0  0  0  0  0  0  0  0  0  0  0
  180.0370  179.0640  140.6460 C   0  0  0  0  0  0  0  0  0  0  0  0
  179.2020  177.8710  140.3330 C   0  0  0  0  0  1  0  0  0  0  0  0
  185.8990  178.5270  146.4780 C   0  0  0  0  0  2  0  0  0  0  0  0
  187.2520  177.3310  146.7050 S   0  0  0  0  0  0  0  0  0  0  0  0
  188.0680  178.3210  147.9980 C   0  0  0  0  0  2  0  0  0  0  0  0
  189.5050  177.8690  148.2110 C   0  0  0  0  0  2  0  0  0  0  0  0
  189.9550  176.9290  147.1000 C   0  0  0  0  0  2  0  0  0  0  0  0
  192.0570  176.0120  147.5540 C   0  0  0  0  0  1  0  0  0  0  0  0
  191.5760  176.8300  145.4290 C   0  0  0  0  0  1  0  0  0  0  0  0
  191.3780  177.0820  146.8440 N   0  0  0  0  0  0  0  0  0  0  0  0
  1  4  1  0  0  0  0
  2 11  1  0  0  0  0
  2  3  1  0  0  0  0
  3  6  2  0  0  0  0
  5 23  1  0  0  0  0
  5  7  1  0  0  0  0
  6 28  1  0  0  0  0
  7  2  1  0  0  0  0
  8  7  2  0  0  0  0
  9 15  1  0  0  0  0
 10  5  2  0  0  0  0
 11 22  2  0  0  0  0
 12 24  1  0  0  0  0
 13 23  1  6  0  0  0
 13  1  1  0  0  0  0
 13 11  1  0  0  0  0
 14 20  2  0  0  0  0
 15 10  1  0  0  0  0
 15 18  2  0  0  0  0
 16 18  1  0  0  0  0
 17 23  2  0  0  0  0
 17 19  1  0  0  0  0
 18  8  1  0  0  0  0
 19  1  2  0  0  0  0
 20  9  1  0  0  0  0
 20 24  1  0  0  0  0
 21 17  1  0  0  0  0
 22  6  1  0  0  0  0
 24 16  1  0  0  0  0
 25 26  2  0  0  0  0
 26 19  1  0  0  0  0
 27 26  1  0  0  0  0
 28 29  1  0  0  0  0
 29 30  1  0  0  0  0
 30 31  1  0  0  0  0
 32 31  1  0  0  0  0
 34 35  1  0  0  0  0
 35 32  1  0  0  0  0
 35 33  1  0  0  0  0
M  END
>  <MODEL>
7

>  <REMARK>
 VINA RESULT:      -8.6      3.484      8.241
  Name = 
  7 active torsions:
  status: ('A' for Active; 'I' for Inactive)
    1  A    between atoms: C_3  and  S_9
    2  A    between atoms: C_3  and  C_13
    3  A    between atoms: C_8  and  C_24
    4  A    between atoms: S_9  and  C_24
    5  A    between atoms: C_11  and  C_30
    6  A    between atoms: C_13  and  C_29
    7  A    between atoms: N_27  and  C_29
                            x       y       z     vdW  Elec       q    Type
                         _______ _______ _______ _____ _____    ______ ____

>  <TORSDO>
F 7

$$$$
=
 OpenBabel10222418063D

 35 39  0  0  1  0  0  0  0  0999 V2000
  186.4630  178.5460  139.4000 C   0  0  0  0  0  0  0  0  0  0  0  0
  189.3840  177.3650  141.3520 N   0  0  0  0  0  0  0  0  0  0  0  0
  190.6170  176.9780  140.9730 C   0  0  0  0  0  3  0  0  0  0  0  0
  186.6960  178.5970  137.9270 C   0  0  0  0  0  1  0  0  0  0  0  0
  187.5150  177.8870  142.7710 C   0  0  0  0  0  0  0  0  0  0  0  0
  190.6720  177.0750  139.5900 C   0  0  0  0  0  0  0  0  0  0  0  0
  188.8560  177.4380  142.6160 C   0  0  0  0  0  0  0  0  0  0  0  0
  189.5820  177.0990  143.6860 C   0  0  0  0  0  3  0  0  0  0  0  0
  187.1960  177.6340  146.6550 C   0  0  0  0  0  2  0  0  0  0  0  0
  186.8670  177.9780  144.1300 C   0  0  0  0  0  3  0  0  0  0  0  0
  188.6970  177.6990  140.2390 C   0  0  0  0  0  0  0  0  0  0  0  0
  190.6490  177.6550  148.4120 C   0  0  0  0  0  1  0  0  0  0  0  0
  187.3830  178.1450  140.3540 C   0  0  2  0  0  3  0  0  0  0  0  0
  187.9500  178.4160  148.7800 O   0  0  0  0  0  0  0  0  0  0  0  0
  187.7750  177.5950  145.2680 C   0  0  0  0  0  0  0  0  0  0  0  0
  189.9210  176.7470  146.1910 C   0  0  0  0  0  2  0  0  0  0  0  0
  185.5160  178.6930  141.4350 C   0  0  0  0  0  0  0  0  0  0  0  0
  189.0410  177.1790  145.0520 C   0  0  0  0  0  0  0  0  0  0  0  0
  185.2880  178.8930  140.0740 C   0  0  0  0  0  0  0  0  0  0  0  0
  188.2570  177.8830  147.6820 C   0  0  0  0  0  0  0  0  0  0  0  0
  184.6000  178.9200  142.4570 O   0  0  0  0  0  1  0  0  0  0  0  0
  189.4590  177.5400  139.0990 C   0  0  0  0  0  3  0  0  0  0  0  0
  186.8080  178.2330  141.6030 C   0  0  0  0  0  0  0  0  0  0  0  0
  189.6090  177.4850  147.4120 N   0  0  0  0  0  0  0  0  0  0  0  0
  183.9900  180.5210  138.9240 O   0  0  0  0  0  0  0  0  0  0  0  0
  184.0350  179.3800  139.4560 C   0  0  0  0  0  0  0  0  0  0  0  0
  182.8030  178.5440  139.4450 C   0  0  0  0  0  1  0  0  0  0  0  0
  191.8710  176.7790  138.7600 C   0  0  0  0  0  2  0  0  0  0  0  0
  191.3750  176.3070  137.0740 S   0  0  0  0  0  0  0  0  0  0  0  0
  191.3550  174.5250  137.4510 C   0  0  0  0  0  2  0  0  0  0  0  0
  190.1750  173.8360  136.7840 C   0  0  0  0  0  2  0  0  0  0  0  0
  188.9530  174.7440  136.7540 C   0  0  0  0  0  2  0  0  0  0  0  0
  187.9460  172.6420  136.9360 C   0  0  0  0  0  1  0  0  0  0  0  0
  186.6670  174.5720  137.1770 C   0  0  0  0  0  1  0  0  0  0  0  0
  187.7580  173.9860  136.4190 N   0  0  0  0  0  0  0  0  0  0  0  0
  1 19  2  0  0  0  0
  2  7  1  0  0  0  0
  3  2  1  0  0  0  0
  4  1  1  0  0  0  0
  5 10  1  0  0  0  0
  6  3  2  0  0  0  0
  7  5  2  0  0  0  0
  7  8  1  0  0  0  0
  8 18  2  0  0  0  0
  9 20  1  0  0  0  0
 10 15  2  0  0  0  0
 11 13  1  0  0  0  0
 11  2  1  0  0  0  0
 13  1  1  6  0  0  0
 13 23  1  0  0  0  0
 15  9  1  0  0  0  0
 16 24  1  0  0  0  0
 17 23  2  0  0  0  0
 17 21  1  0  0  0  0
 18 15  1  0  0  0  0
 18 16  1  0  0  0  0
 19 17  1  0  0  0  0
 20 14  2  0  0  0  0
 22  6  1  0  0  0  0
 22 11  2  0  0  0  0
 23  5  1  0  0  0  0
 24 20  1  0  0  0  0
 24 12  1  0  0  0  0
 25 26  2  0  0  0  0
 26 19  1  0  0  0  0
 27 26  1  0  0  0  0
 28  6  1  0  0  0  0
 29 30  1  0  0  0  0
 29 28  1  0  0  0  0
 31 30  1  0  0  0  0
 32 31  1  0  0  0  0
 35 32  1  0  0  0  0
 35 33  1  0  0  0  0
 35 34  1  0  0  0  0
M  END
>  <MODEL>
8

>  <REMARK>
 VINA RESULT:      -8.4      2.876      6.567
  Name = 
  7 active torsions:
  status: ('A' for Active; 'I' for Inactive)
    1  A    between atoms: C_3  and  S_9
    2  A    between atoms: C_3  and  C_13
    3  A    between atoms: C_8  and  C_24
    4  A    between atoms: S_9  and  C_24
    5  A    between atoms: C_11  and  C_30
    6  A    between atoms: C_13  and  C_29
    7  A    between atoms: N_27  and  C_29
                            x       y       z     vdW  Elec       q    Type
                         _______ _______ _______ _____ _____    ______ ____

>  <TORSDO>
F 7

$$$$
=
 OpenBabel10222418063D

 35 39  0  0  1  0  0  0  0  0999 V2000
  182.5670  179.1240  141.3890 C   0  0  0  0  0  0  0  0  0  0  0  0
  186.1220  178.2050  140.8750 N   0  0  0  0  0  0  0  0  0  0  0  0
  186.8660  178.1010  139.7590 C   0  0  0  0  0  3  0  0  0  0  0  0
  181.8290  179.4290  140.1290 C   0  0  0  0  0  1  0  0  0  0  0  0
  185.5210  178.1770  143.2030 C   0  0  0  0  0  0  0  0  0  0  0  0
  186.0430  178.4060  138.6850 C   0  0  0  0  0  0  0  0  0  0  0  0
  186.4930  177.9990  142.1800 C   0  0  2  0  0  3  0  0  0  0  0  0
  187.7430  177.6410  142.4920 C   0  0  0  0  0  3  0  0  0  0  0  0
  187.7030  177.3090  146.3230 C   0  0  0  0  0  2  0  0  0  0  0  0
  185.8560  177.9540  144.6560 C   0  0  0  0  0  3  0  0  0  0  0  0
  184.8750  178.5710  140.5070 C   0  0  0  0  0  0  0  0  0  0  0  0
  191.4920  177.6830  145.6090 C   0  0  0  0  0  1  0  0  0  0  0  0
  183.8990  178.7560  141.4820 C   0  0  0  0  0  0  0  0  0  0  0  0
  189.5770  177.8940  147.6800 O   0  0  0  0  0  0  0  0  0  0  0  0
  187.2930  177.5750  144.9010 C   0  0  0  0  0  0  0  0  0  0  0  0
  189.5850  176.9940  144.1350 C   0  0  0  0  0  2  0  0  0  0  0  0
  183.0880  178.8040  143.5540 C   0  0  0  0  0  0  0  0  0  0  0  0
  188.1670  177.4260  143.8830 C   0  0  0  0  0  0  0  0  0  0  0  0
  182.0530  179.1550  142.6880 C   0  0  0  0  0  0  0  0  0  0  0  0
  189.1580  177.5900  146.5320 C   0  0  0  0  0  0  0  0  0  0  0  0
  182.9990  178.7140  144.9390 O   0  0  0  0  0  1  0  0  0  0  0  0
  184.7680  178.7170  139.1380 C   0  0  0  0  0  3  0  0  0  0  0  0
  184.2240  178.5590  142.8060 C   0  0  0  0  0  0  0  0  0  0  0  0
  190.0650  177.4790  145.4260 N   0  0  0  0  0  0  0  0  0  0  0  0
  180.2090  180.6500  142.8460 O   0  0  0  0  0  0  0  0  0  0  0  0
  180.6650  179.4990  143.0740 C   0  0  0  0  0  0  0  0  0  0  0  0
  179.7780  178.5020  143.7350 C   0  0  0  0  0  1  0  0  0  0  0  0
  186.4780  178.4500  137.2620 C   0  0  0  0  0  2  0  0  0  0  0  0
  187.7460  177.1830  136.9460 S   0  0  0  0  0  0  0  0  0  0  0  0
  186.8570  176.4780  135.5210 C   0  0  0  0  0  2  0  0  0  0  0  0
  186.0730  175.2380  135.9220 C   0  0  0  0  0  2  0  0  0  0  0  0
  186.6470  174.6100  137.1850 C   0  0  0  0  0  2  0  0  0  0  0  0
  185.0600  172.9800  137.7260 C   0  0  0  0  0  1  0  0  0  0  0  0
  186.3720  172.7430  135.8180 C   0  0  0  0  0  1  0  0  0  0  0  0
  186.4010  173.1770  137.2030 N   0  0  0  0  0  0  0  0  0  0  0  0
  1 13  2  0  0  0  0
  1 19  1  0  0  0  0
  2  7  1  0  0  0  0
  3  2  1  0  0  0  0
  4  1  1  0  0  0  0
  5 10  1  0  0  0  0
  6 22  1  0  0  0  0
  6  3  2  0  0  0  0
  7  8  1  1  0  0  0
  7  5  1  0  0  0  0
  8 18  2  0  0  0  0
  9 20  1  0  0  0  0
 10 15  2  0  0  0  0
 11  2  1  0  0  0  0
 11 13  1  0  0  0  0
 13 23  1  0  0  0  0
 15  9  1  0  0  0  0
 16 24  1  0  0  0  0
 17 21  1  0  0  0  0
 18 16  1  0  0  0  0
 18 15  1  0  0  0  0
 19 26  1  0  0  0  0
 19 17  2  0  0  0  0
 20 14  2  0  0  0  0
 22 11  2  0  0  0  0
 23  5  2  0  0  0  0
 23 17  1  0  0  0  0
 24 12  1  0  0  0  0
 24 20  1  0  0  0  0
 25 26  2  0  0  0  0
 26 27  1  0  0  0  0
 28  6  1  0  0  0  0
 29 28  1  0  0  0  0
 30 31  1  0  0  0  0
 30 29  1  0  0  0  0
 31 32  1  0  0  0  0
 32 35  1  0  0  0  0
 34 35  1  0  0  0  0
 35 33  1  0  0  0  0
M  END
>  <MODEL>
9

>  <REMARK>
 VINA RESULT:      -8.3      3.345      6.883
  Name = 
  7 active torsions:
  status: ('A' for Active; 'I' for Inactive)
    1  A    between atoms: C_3  and  S_9
    2  A    between atoms: C_3  and  C_13
    3  A    between atoms: C_8  and  C_24
    4  A    between atoms: S_9  and  C_24
    5  A    between atoms: C_11  and  C_30
    6  A    between atoms: C_13  and  C_29
    7  A    between atoms: N_27  and  C_29
                            x       y       z     vdW  Elec       q    Type
                         _______ _______ _______ _____ _____    ______ ____

>  <TORSDO>
F 7

$$$$
