=
 OpenBabel10222415413D

 40 47  0  0  1  0  0  0  0  0999 V2000
  187.0970  177.9900  147.9300 C   0  0  0  0  0  2  0  0  0  0  0  0
  186.9030  178.1680  146.6340 C   0  0  2  0  0  3  0  0  0  0  0  0
  190.1160  177.2430  143.8100 C   0  0  2  0  0  3  0  0  0  0  0  0
  192.1670  175.9650  146.5950 N   0  0  0  0  0  0  0  0  0  0  0  0
  191.9160  176.0640  145.2740 C   0  0  0  0  0  3  0  0  0  0  0  0
  190.7230  176.7500  145.1090 C   0  0  0  0  0  0  0  0  0  0  0  0
  185.7590  177.7020  145.7880 C   0  0  2  0  0  3  0  0  0  0  0  0
  188.6640  177.0610  143.7600 N   0  0  0  0  0  0  0  0  0  0  0  0
  188.5850  177.9400  148.1640 C   0  0  0  0  0  2  0  0  0  0  0  0
  189.1130  177.8100  146.7630 C   0  0  2  0  0  3  0  0  0  0  0  0
  188.1240  178.0630  145.9310 C   0  0  1  0  0  3  0  0  0  0  0  0
  187.8130  177.4920  144.6420 C   0  0  0  0  0  0  0  0  0  0  0  0
  186.4040  177.2940  144.5290 N   0  0  0  0  0  2  0  0  0  0  0  0
  191.2060  176.5760  147.2730 N   0  0  0  0  0  2  0  0  0  0  0  0
  190.3240  177.0720  146.3900 C   0  0  0  0  0  0  0  0  0  0  0  0
  190.2030  177.0100  141.2880 C   0  0  1  0  0  0  0  0  0  0  0  0
  191.4340  177.4710  141.7970 O   0  0  0  0  0  0  0  0  0  0  0  0
  190.7310  176.5380  142.5980 C   0  0  1  0  0  3  0  0  0  0  0  0
  188.3370  178.9250  141.1100 C   0  0  0  0  0  3  0  0  0  0  0  0
  189.1740  178.0580  141.1840 C   0  0  0  0  0  0  0  0  0  0  0  0
  190.3250  176.0480  140.1920 N   0  0  0  0  0  2  0  0  0  0  0  0
  190.4330  176.7330  138.9030 C   0  0  0  0  0  2  0  0  0  0  0  0
  191.7220  176.4060  136.9160 O   0  0  0  0  0  0  0  0  0  0  0  0
  191.1490  175.8780  137.9070 C   0  0  0  0  0  0  0  0  0  0  0  0
  191.1910  174.4980  138.0790 O   0  0  0  0  0  1  0  0  0  0  0  0
  184.7850  178.8400  145.5330 C   0  0  0  0  0  2  0  0  0  0  0  0
  184.7020  179.1130  144.0400 C   0  0  0  0  0  2  0  0  0  0  0  0
  183.4010  178.5790  143.4700 C   0  0  1  0  0  3  0  0  0  0  0  0
  182.3260  179.3210  143.9570 O   0  0  0  0  0  1  0  0  0  0  0  0
  183.4510  178.6850  141.9580 C   0  0  0  0  0  2  0  0  0  0  0  0
  183.6870  178.3550  138.7200 C   0  0  2  0  0  3  0  0  0  0  0  0
  181.9290  177.6200  140.1500 C   0  0  2  0  0  3  0  0  0  0  0  0
  183.2290  177.1680  139.5330 C   0  0  0  0  0  2  0  0  0  0  0  0
  185.1970  178.4270  138.7280 C   0  0  0  0  0  1  0  0  0  0  0  0
  181.9590  179.1180  139.9420 C   0  0  1  0  0  0  0  0  0  0  0  0
  182.0470  178.5710  141.3620 C   0  0  2  0  0  3  0  0  0  0  0  0
  183.1560  179.5160  139.3020 O   0  0  0  0  0  0  0  0  0  0  0  0
  180.6220  179.6550  139.4380 C   0  0  0  0  0  3  0  0  0  0  0  0
  180.6500  181.1690  139.2970 C   0  0  0  0  0  2  0  0  0  0  0  0
  179.9850  180.5350  140.4990 C   0  0  0  0  0  2  0  0  0  0  0  0
  1  9  1  0  0  0  0
  2  1  1  1  0  0  0
  3  8  1  1  0  0  0
  3  6  1  0  0  0  0
  4 14  1  0  0  0  0
  5  4  2  0  0  0  0
  6  5  1  0  0  0  0
  6 15  2  0  0  0  0
  7 26  1  6  0  0  0
  7  2  1  0  0  0  0
  8 12  2  0  0  0  0
 10  9  1  1  0  0  0
 11 12  1  6  0  0  0
 11  2  1  0  0  0  0
 11 10  1  0  0  0  0
 13 12  1  0  0  0  0
 13  7  1  0  0  0  0
 15 10  1  0  0  0  0
 15 14  1  0  0  0  0
 16 20  1  6  0  0  0
 16 17  1  0  0  0  0
 16 18  1  0  0  0  0
 18 17  1  6  0  0  0
 18  3  1  0  0  0  0
 19 20  3  0  0  0  0
 21 16  1  0  0  0  0
 22 21  1  0  0  0  0
 23 24  2  0  0  0  0
 24 25  1  0  0  0  0
 24 22  1  0  0  0  0
 27 26  1  0  0  0  0
 28 29  1  1  0  0  0
 28 27  1  0  0  0  0
 30 28  1  0  0  0  0
 31 34  1  1  0  0  0
 31 37  1  0  0  0  0
 31 33  1  0  0  0  0
 32 33  1  6  0  0  0
 32 36  1  0  0  0  0
 35 38  1  6  0  0  0
 35 32  1  0  0  0  0
 35 36  1  0  0  0  0
 36 30  1  6  0  0  0
 37 35  1  0  0  0  0
 38 40  1  0  0  0  0
 39 38  1  0  0  0  0
 39 40  1  0  0  0  0
M  END
>  <MODEL>
1

>  <REMARK>
 VINA RESULT:      -9.2      0.000      0.000
  Name = 
  11 active torsions:
  status: ('A' for Active; 'I' for Inactive)
    1  A    between atoms: C_2  and  C_20
    2  A    between atoms: C_5  and  C_27
    3  A    between atoms: C_11  and  N_36
    4  A    between atoms: C_11  and  C_40
    5  A    between atoms: C_16  and  C_39
    6  A    between atoms: C_17  and  C_22
    7  A    between atoms: C_17  and  N_36
    8  A    between atoms: C_21  and  C_25
    9  A    between atoms: C_21  and  C_29
   10  A    between atoms: C_25  and  C_31
   11  A    between atoms: C_31  and  C_39
                            x       y       z     vdW  Elec       q    Type
                         _______ _______ _______ _____ _____    ______ ____

>  <TORSDO>
F 11

$$$$
=
 OpenBabel10222415413D

 40 47  0  0  1  0  0  0  0  0999 V2000
  187.0050  178.0810  147.8160 C   0  0  0  0  0  2  0  0  0  0  0  0
  186.8240  178.2050  146.5120 C   0  0  2  0  0  3  0  0  0  0  0  0
  190.0910  177.2390  143.7650 C   0  0  2  0  0  3  0  0  0  0  0  0
  192.1320  176.1140  146.6210 N   0  0  0  0  0  0  0  0  0  0  0  0
  191.8950  176.1560  145.2940 C   0  0  0  0  0  3  0  0  0  0  0  0
  190.6910  176.8090  145.0890 C   0  0  0  0  0  0  0  0  0  0  0  0
  185.7000  177.6820  145.6710 C   0  0  2  0  0  3  0  0  0  0  0  0
  188.6430  177.0250  143.7040 N   0  0  0  0  0  0  0  0  0  0  0  0
  188.4910  178.0720  148.0690 C   0  0  0  0  0  2  0  0  0  0  0  0
  189.0390  177.8990  146.6810 C   0  0  2  0  0  3  0  0  0  0  0  0
  188.0550  178.0980  145.8280 C   0  0  1  0  0  3  0  0  0  0  0  0
  187.7730  177.4720  144.5590 C   0  0  0  0  0  0  0  0  0  0  0  0
  186.3690  177.2390  144.4370 N   0  0  0  0  0  2  0  0  0  0  0  0
  191.1500  176.7300  147.2630 N   0  0  0  0  0  2  0  0  0  0  0  0
  190.2700  177.1730  146.3510 C   0  0  0  0  0  0  0  0  0  0  0  0
  190.2410  176.9380  141.2530 C   0  0  1  0  0  0  0  0  0  0  0  0
  191.4600  177.4110  141.7800 O   0  0  0  0  0  0  0  0  0  0  0  0
  190.7350  176.5010  142.5880 C   0  0  1  0  0  3  0  0  0  0  0  0
  188.3720  178.8340  140.9500 C   0  0  0  0  0  3  0  0  0  0  0  0
  189.2170  177.9830  141.0940 C   0  0  0  0  0  0  0  0  0  0  0  0
  190.3890  175.9450  140.1870 N   0  0  0  0  0  2  0  0  0  0  0  0
  190.6660  176.5930  138.9030 C   0  0  0  0  0  2  0  0  0  0  0  0
  192.8450  176.6160  137.9210 O   0  0  0  0  0  1  0  0  0  0  0  0
  191.8240  175.9400  138.2180 C   0  0  0  0  0  0  0  0  0  0  0  0
  191.7780  174.5830  137.9180 O   0  0  0  0  0  0  0  0  0  0  0  0
  184.7060  178.7880  145.3610 C   0  0  0  0  0  2  0  0  0  0  0  0
  183.7990  178.3520  144.2220 C   0  0  0  0  0  2  0  0  0  0  0  0
  184.0340  179.2120  142.9930 C   0  0  1  0  0  3  0  0  0  0  0  0
  185.2320  179.9120  143.1220 O   0  0  0  0  0  1  0  0  0  0  0  0
  184.0980  178.3120  141.7740 C   0  0  0  0  0  2  0  0  0  0  0  0
  182.3510  177.5970  139.1110 C   0  0  2  0  0  3  0  0  0  0  0  0
  183.6350  179.5570  139.5470 C   0  0  2  0  0  3  0  0  0  0  0  0
  182.2450  178.9880  139.6900 C   0  0  0  0  0  2  0  0  0  0  0  0
  181.4240  176.6630  139.8540 C   0  0  0  0  0  1  0  0  0  0  0  0
  184.4730  178.3320  139.2570 C   0  0  1  0  0  0  0  0  0  0  0  0
  184.6780  179.0660  140.5760 C   0  0  2  0  0  3  0  0  0  0  0  0
  183.6770  177.1620  139.2570 O   0  0  0  0  0  0  0  0  0  0  0  0
  185.4610  178.5680  138.1170 C   0  0  0  0  0  3  0  0  0  0  0  0
  185.3620  177.4770  137.0620 C   0  0  0  0  0  2  0  0  0  0  0  0
  186.4840  177.4460  138.0780 C   0  0  0  0  0  2  0  0  0  0  0  0
  1  9  1  0  0  0  0
  2  1  1  1  0  0  0
  3  8  1  1  0  0  0
  3  6  1  0  0  0  0
  4 14  1  0  0  0  0
  5  4  2  0  0  0  0
  6  5  1  0  0  0  0
  6 15  2  0  0  0  0
  7 26  1  6  0  0  0
  7  2  1  0  0  0  0
  8 12  2  0  0  0  0
 10  9  1  1  0  0  0
 11 12  1  6  0  0  0
 11  2  1  0  0  0  0
 11 10  1  0  0  0  0
 13 12  1  0  0  0  0
 13  7  1  0  0  0  0
 15 10  1  0  0  0  0
 15 14  1  0  0  0  0
 16 20  1  6  0  0  0
 16 17  1  0  0  0  0
 16 18  1  0  0  0  0
 18 17  1  6  0  0  0
 18  3  1  0  0  0  0
 19 20  3  0  0  0  0
 21 16  1  0  0  0  0
 22 21  1  0  0  0  0
 23 24  1  0  0  0  0
 24 22  1  0  0  0  0
 25 24  2  0  0  0  0
 27 26  1  0  0  0  0
 28 29  1  1  0  0  0
 28 27  1  0  0  0  0
 30 28  1  0  0  0  0
 31 37  1  0  0  0  0
 31 33  1  0  0  0  0
 31 34  1  1  0  0  0
 32 33  1  1  0  0  0
 32 36  1  0  0  0  0
 35 38  1  6  0  0  0
 35 32  1  0  0  0  0
 35 36  1  0  0  0  0
 36 30  1  1  0  0  0
 37 35  1  0  0  0  0
 39 40  1  0  0  0  0
 39 38  1  0  0  0  0
 40 38  1  0  0  0  0
M  END
>  <MODEL>
2

>  <REMARK>
 VINA RESULT:      -9.1      1.089      2.205
  Name = 
  11 active torsions:
  status: ('A' for Active; 'I' for Inactive)
    1  A    between atoms: C_2  and  C_20
    2  A    between atoms: C_5  and  C_27
    3  A    between atoms: C_11  and  N_36
    4  A    between atoms: C_11  and  C_40
    5  A    between atoms: C_16  and  C_39
    6  A    between atoms: C_17  and  C_22
    7  A    between atoms: C_17  and  N_36
    8  A    between atoms: C_21  and  C_25
    9  A    between atoms: C_21  and  C_29
   10  A    between atoms: C_25  and  C_31
   11  A    between atoms: C_31  and  C_39
                            x       y       z     vdW  Elec       q    Type
                         _______ _______ _______ _____ _____    ______ ____

>  <TORSDO>
F 11

$$$$
=
 OpenBabel10222415413D

 40 47  0  0  1  0  0  0  0  0999 V2000
  188.9360  177.3430  143.6940 C   0  0  0  0  0  2  0  0  0  0  0  0
  188.2740  177.3960  142.5510 C   0  0  2  0  0  3  0  0  0  0  0  0
  184.0110  178.3850  142.5530 C   0  0  2  0  0  3  0  0  0  0  0  0
  184.1690  178.9620  146.1920 N   0  0  0  0  0  0  0  0  0  0  0  0
  183.5370  179.1040  145.0080 C   0  0  0  0  0  3  0  0  0  0  0  0
  184.3570  178.5930  144.0150 C   0  0  0  0  0  0  0  0  0  0  0  0
  188.6420  178.1180  141.2910 C   0  0  2  0  0  3  0  0  0  0  0  0
  185.1140  178.7370  141.6560 N   0  0  0  0  0  0  0  0  0  0  0  0
  187.9230  177.1840  144.7980 C   0  0  0  0  0  2  0  0  0  0  0  0
  186.6360  177.4740  144.0790 C   0  0  2  0  0  3  0  0  0  0  0  0
  186.8840  177.4720  142.7860 C   0  0  1  0  0  3  0  0  0  0  0  0
  186.3250  178.2710  141.7220 C   0  0  0  0  0  0  0  0  0  0  0  0
  187.3560  178.6450  140.8060 N   0  0  0  0  0  2  0  0  0  0  0  0
  185.3360  178.3650  145.9980 N   0  0  0  0  0  2  0  0  0  0  0  0
  185.4660  178.1190  144.6840 C   0  0  0  0  0  0  0  0  0  0  0  0
  182.0240  178.6210  140.9980 C   0  0  1  0  0  0  0  0  0  0  0  0
  181.6050  178.4310  142.3310 O   0  0  0  0  0  0  0  0  0  0  0  0
  182.7810  179.1990  142.1440 C   0  0  1  0  0  3  0  0  0  0  0  0
  182.7900  176.3710  139.7610 C   0  0  0  0  0  3  0  0  0  0  0  0
  182.4400  177.3810  140.3230 C   0  0  0  0  0  0  0  0  0  0  0  0
  181.2200  179.5840  140.2440 N   0  0  0  0  0  2  0  0  0  0  0  0
  181.6960  179.6960  138.8640 C   0  0  0  0  0  2  0  0  0  0  0  0
  182.2900  181.9790  138.4730 O   0  0  0  0  0  0  0  0  0  0  0  0
  182.6840  180.8100  138.7330 C   0  0  0  0  0  0  0  0  0  0  0  0
  184.0410  180.5580  138.9080 O   0  0  0  0  0  1  0  0  0  0  0  0
  189.2300  177.1540  140.2750 C   0  0  0  0  0  2  0  0  0  0  0  0
  190.6770  177.5260  139.9980 C   0  0  0  0  0  2  0  0  0  0  0  0
  191.1240  176.9750  138.6570 C   0  0  1  0  0  3  0  0  0  0  0  0
  191.2380  175.5870  138.7250 O   0  0  0  0  0  1  0  0  0  0  0  0
  190.0950  177.3510  137.6080 C   0  0  0  0  0  2  0  0  0  0  0  0
  187.0350  177.0610  136.5110 C   0  0  2  0  0  3  0  0  0  0  0  0
  189.0650  176.6160  135.3450 C   0  0  2  0  0  3  0  0  0  0  0  0
  188.0620  177.7110  135.6150 C   0  0  0  0  0  2  0  0  0  0  0  0
  186.4890  178.0800  137.4840 C   0  0  0  0  0  1  0  0  0  0  0  0
  188.7260  175.5820  136.3950 C   0  0  1  0  0  0  0  0  0  0  0  0
  190.0610  176.3110  136.4870 C   0  0  2  0  0  3  0  0  0  0  0  0
  187.6620  176.0230  137.2160 O   0  0  0  0  0  0  0  0  0  0  0  0
  188.6940  174.1680  135.8190 C   0  0  0  0  0  3  0  0  0  0  0  0
  188.9450  173.1240  136.8970 C   0  0  0  0  0  2  0  0  0  0  0  0
  190.0620  173.5220  135.9560 C   0  0  0  0  0  2  0  0  0  0  0  0
  1  9  1  0  0  0  0
  2 11  1  0  0  0  0
  2  1  1  1  0  0  0
  3  8  1  6  0  0  0
  3  6  1  0  0  0  0
  5  4  2  0  0  0  0
  6 15  2  0  0  0  0
  6  5  1  0  0  0  0
  7 26  1  6  0  0  0
  7  2  1  0  0  0  0
  8 12  2  0  0  0  0
 10 15  1  0  0  0  0
 10  9  1  1  0  0  0
 11 12  1  1  0  0  0
 11 10  1  0  0  0  0
 13  7  1  0  0  0  0
 13 12  1  0  0  0  0
 14  4  1  0  0  0  0
 15 14  1  0  0  0  0
 16 20  1  6  0  0  0
 16 18  1  0  0  0  0
 16 17  1  0  0  0  0
 18 17  1  1  0  0  0
 18  3  1  0  0  0  0
 19 20  3  0  0  0  0
 21 16  1  0  0  0  0
 22 21  1  0  0  0  0
 23 24  2  0  0  0  0
 24 22  1  0  0  0  0
 24 25  1  0  0  0  0
 27 26  1  0  0  0  0
 28 29  1  1  0  0  0
 28 27  1  0  0  0  0
 30 28  1  0  0  0  0
 31 37  1  0  0  0  0
 31 34  1  1  0  0  0
 32 33  1  1  0  0  0
 32 35  1  0  0  0  0
 32 36  1  0  0  0  0
 33 31  1  0  0  0  0
 35 38  1  6  0  0  0
 35 36  1  0  0  0  0
 35 37  1  0  0  0  0
 36 30  1  1  0  0  0
 38 40  1  0  0  0  0
 38 39  1  0  0  0  0
 40 39  1  0  0  0  0
M  END
>  <MODEL>
3

>  <REMARK>
 VINA RESULT:      -9.0      2.518      7.750
  Name = 
  11 active torsions:
  status: ('A' for Active; 'I' for Inactive)
    1  A    between atoms: C_2  and  C_20
    2  A    between atoms: C_5  and  C_27
    3  A    between atoms: C_11  and  N_36
    4  A    between atoms: C_11  and  C_40
    5  A    between atoms: C_16  and  C_39
    6  A    between atoms: C_17  and  C_22
    7  A    between atoms: C_17  and  N_36
    8  A    between atoms: C_21  and  C_25
    9  A    between atoms: C_21  and  C_29
   10  A    between atoms: C_25  and  C_31
   11  A    between atoms: C_31  and  C_39
                            x       y       z     vdW  Elec       q    Type
                         _______ _______ _______ _____ _____    ______ ____

>  <TORSDO>
F 11

$$$$
=
 OpenBabel10222415413D

 40 47  0  0  1  0  0  0  0  0999 V2000
  184.8050  179.2400  144.3510 C   0  0  0  0  0  2  0  0  0  0  0  0
  184.8560  178.8460  143.0890 C   0  0  2  0  0  3  0  0  0  0  0  0
  181.1470  178.2980  140.8320 C   0  0  2  0  0  3  0  0  0  0  0  0
  179.2310  179.5710  143.7130 N   0  0  0  0  0  0  0  0  0  0  0  0
  179.3100  179.2620  142.4020 C   0  0  0  0  0  3  0  0  0  0  0  0
  180.6140  178.8850  142.1240 C   0  0  0  0  0  0  0  0  0  0  0  0
  185.6860  179.3980  141.9720 C   0  0  2  0  0  3  0  0  0  0  0  0
  182.4630  178.8290  140.4700 N   0  0  0  0  0  0  0  0  0  0  0  0
  183.4140  178.9560  144.8580 C   0  0  0  0  0  2  0  0  0  0  0  0
  182.6790  178.6470  143.5860 C   0  0  2  0  0  3  0  0  0  0  0  0
  183.5700  178.4840  142.6300 C   0  0  1  0  0  3  0  0  0  0  0  0
  183.5180  178.8270  141.2290 C   0  0  0  0  0  0  0  0  0  0  0  0
  184.7800  179.3510  140.8120 N   0  0  0  0  0  2  0  0  0  0  0  0
  180.4130  179.3850  144.2810 N   0  0  0  0  0  2  0  0  0  0  0  0
  181.2660  178.9540  143.3380 C   0  0  0  0  0  0  0  0  0  0  0  0
  180.0010  177.3710  138.7700 C   0  0  1  0  0  0  0  0  0  0  0  0
  179.0620  177.6990  139.7680 O   0  0  0  0  0  0  0  0  0  0  0  0
  180.1910  178.5480  139.6630 C   0  0  1  0  0  3  0  0  0  0  0  0
  181.2390  175.0330  139.1940 C   0  0  0  0  0  3  0  0  0  0  0  0
  180.6880  176.0890  138.9990 C   0  0  0  0  0  0  0  0  0  0  0  0
  179.5740  177.6950  137.4080 N   0  0  0  0  0  2  0  0  0  0  0  0
  180.5020  177.1380  136.4220 C   0  0  0  0  0  2  0  0  0  0  0  0
  181.3620  179.2860  135.8180 O   0  0  0  0  0  0  0  0  0  0  0  0
  181.6170  178.0950  136.1430 C   0  0  0  0  0  0  0  0  0  0  0  0
  182.9370  177.6730  136.2520 O   0  0  0  0  0  1  0  0  0  0  0  0
  186.9010  178.5190  141.7240 C   0  0  0  0  0  2  0  0  0  0  0  0
  187.0250  177.4960  142.8400 C   0  0  0  0  0  2  0  0  0  0  0  0
  188.2990  176.6860  142.6830 C   0  0  1  0  0  3  0  0  0  0  0  0
  189.2030  177.3710  141.8730 O   0  0  0  0  0  1  0  0  0  0  0  0
  188.9080  176.4650  144.0550 C   0  0  0  0  0  2  0  0  0  0  0  0
  191.4150  176.7280  146.1270 C   0  0  2  0  0  3  0  0  0  0  0  0
  189.9890  178.4560  145.3160 C   0  0  2  0  0  3  0  0  0  0  0  0
  191.2870  177.7470  145.0190 C   0  0  0  0  0  2  0  0  0  0  0  0
  192.1010  175.4880  145.6030 C   0  0  0  0  0  1  0  0  0  0  0  0
  189.3270  177.5410  146.3230 C   0  0  1  0  0  0  0  0  0  0  0  0
  188.6980  177.6930  144.9430 C   0  0  2  0  0  3  0  0  0  0  0  0
  190.1260  176.4010  146.5740 O   0  0  0  0  0  0  0  0  0  0  0  0
  188.7300  178.3140  147.4960 C   0  0  0  0  0  3  0  0  0  0  0  0
  188.0090  177.3870  148.4620 C   0  0  0  0  0  2  0  0  0  0  0  0
  187.2150  178.2080  147.4690 C   0  0  0  0  0  2  0  0  0  0  0  0
  1  9  1  0  0  0  0
  2  1  1  1  0  0  0
  3  8  1  6  0  0  0
  3  6  1  0  0  0  0
  4 14  1  0  0  0  0
  5  4  2  0  0  0  0
  6  5  1  0  0  0  0
  6 15  2  0  0  0  0
  7 26  1  6  0  0  0
  7  2  1  0  0  0  0
  8 12  2  0  0  0  0
 10  9  1  1  0  0  0
 11 12  1  6  0  0  0
 11  2  1  0  0  0  0
 11 10  1  0  0  0  0
 13 12  1  0  0  0  0
 13  7  1  0  0  0  0
 15 10  1  0  0  0  0
 15 14  1  0  0  0  0
 16 20  1  1  0  0  0
 16 18  1  0  0  0  0
 16 17  1  0  0  0  0
 18 17  1  1  0  0  0
 18  3  1  0  0  0  0
 20 19  3  0  0  0  0
 21 16  1  0  0  0  0
 22 21  1  0  0  0  0
 23 24  2  0  0  0  0
 24 25  1  0  0  0  0
 24 22  1  0  0  0  0
 26 27  1  0  0  0  0
 28 29  1  6  0  0  0
 28 27  1  0  0  0  0
 28 30  1  0  0  0  0
 31 34  1  6  0  0  0
 31 37  1  0  0  0  0
 32 33  1  6  0  0  0
 32 35  1  0  0  0  0
 33 31  1  0  0  0  0
 35 37  1  0  0  0  0
 35 38  1  1  0  0  0
 36 30  1  6  0  0  0
 36 32  1  0  0  0  0
 36 35  1  0  0  0  0
 38 39  1  0  0  0  0
 40 38  1  0  0  0  0
 40 39  1  0  0  0  0
M  END
>  <MODEL>
4

>  <REMARK>
 VINA RESULT:      -8.7      3.589      9.178
  Name = 
  11 active torsions:
  status: ('A' for Active; 'I' for Inactive)
    1  A    between atoms: C_2  and  C_20
    2  A    between atoms: C_5  and  C_27
    3  A    between atoms: C_11  and  N_36
    4  A    between atoms: C_11  and  C_40
    5  A    between atoms: C_16  and  C_39
    6  A    between atoms: C_17  and  C_22
    7  A    between atoms: C_17  and  N_36
    8  A    between atoms: C_21  and  C_25
    9  A    between atoms: C_21  and  C_29
   10  A    between atoms: C_25  and  C_31
   11  A    between atoms: C_31  and  C_39
                            x       y       z     vdW  Elec       q    Type
                         _______ _______ _______ _____ _____    ______ ____

>  <TORSDO>
F 11

$$$$
=
 OpenBabel10222415413D

 40 47  0  0  1  0  0  0  0  0999 V2000
  182.8940  179.1550  143.9720 C   0  0  0  0  0  2  0  0  0  0  0  0
  183.8380  178.6140  143.2210 C   0  0  2  0  0  3  0  0  0  0  0  0
  183.1560  178.0690  138.9320 C   0  0  2  0  0  3  0  0  0  0  0  0
  179.9170  179.8010  139.2480 N   0  0  0  0  0  0  0  0  0  0  0  0
  180.9280  179.3360  138.4860 C   0  0  0  0  0  3  0  0  0  0  0  0
  181.9110  178.8380  139.3270 C   0  0  0  0  0  0  0  0  0  0  0  0
  185.2900  178.9720  143.1440 C   0  0  2  0  0  3  0  0  0  0  0  0
  184.3330  178.4600  139.7110 N   0  0  0  0  0  0  0  0  0  0  0  0
  181.5920  179.0310  143.2230 C   0  0  0  0  0  2  0  0  0  0  0  0
  182.0610  178.6270  141.8540 C   0  0  2  0  0  3  0  0  0  0  0  0
  183.3310  178.2920  141.9420 C   0  0  1  0  0  3  0  0  0  0  0  0
  184.4170  178.4730  141.0080 C   0  0  0  0  0  0  0  0  0  0  0  0
  185.6000  178.8540  141.7100 N   0  0  0  0  0  2  0  0  0  0  0  0
  180.2010  179.5990  140.5270 N   0  0  0  0  0  2  0  0  0  0  0  0
  181.4020  179.0020  140.5990 C   0  0  0  0  0  0  0  0  0  0  0  0
  183.8020  176.9770  136.7380 C   0  0  1  0  0  0  0  0  0  0  0  0
  182.5250  177.5680  136.6540 O   0  0  0  0  0  0  0  0  0  0  0  0
  183.4820  178.2480  137.4470 C   0  0  1  0  0  3  0  0  0  0  0  0
  183.8070  174.5980  137.9690 C   0  0  0  0  0  3  0  0  0  0  0  0
  183.8090  175.6730  137.4200 C   0  0  0  0  0  0  0  0  0  0  0  0
  184.6210  177.1340  135.5350 N   0  0  0  0  0  2  0  0  0  0  0  0
  185.9560  176.5670  135.7320 C   0  0  0  0  0  2  0  0  0  0  0  0
  187.1810  178.5960  136.0410 O   0  0  0  0  0  0  0  0  0  0  0  0
  186.8140  177.4950  136.5310 C   0  0  0  0  0  0  0  0  0  0  0  0
  187.1990  177.1460  137.8210 O   0  0  0  0  0  1  0  0  0  0  0  0
  186.1260  177.9870  143.9440 C   0  0  0  0  0  2  0  0  0  0  0  0
  185.8560  178.1770  145.4270 C   0  0  0  0  0  2  0  0  0  0  0  0
  187.1590  178.2530  146.2020 C   0  0  1  0  0  3  0  0  0  0  0  0
  186.9640  177.8050  147.5080 O   0  0  0  0  0  1  0  0  0  0  0  0
  188.1880  177.3780  145.5120 C   0  0  0  0  0  2  0  0  0  0  0  0
  190.3080  177.1440  143.0420 C   0  0  2  0  0  3  0  0  0  0  0  0
  190.5020  178.4440  145.0290 C   0  0  2  0  0  3  0  0  0  0  0  0
  190.0070  178.5130  143.6050 C   0  0  0  0  0  2  0  0  0  0  0  0
  189.2430  176.7600  142.0400 C   0  0  0  0  0  1  0  0  0  0  0  0
  190.6850  176.9600  145.2520 C   0  0  1  0  0  0  0  0  0  0  0  0
  189.5950  177.6890  146.0270 C   0  0  2  0  0  3  0  0  0  0  0  0
  190.3130  176.2250  144.1010 O   0  0  0  0  0  0  0  0  0  0  0  0
  192.0040  176.6420  145.9520 C   0  0  0  0  0  3  0  0  0  0  0  0
  191.9840  175.2520  146.5690 C   0  0  0  0  0  2  0  0  0  0  0  0
  191.7700  176.4690  147.4430 C   0  0  0  0  0  2  0  0  0  0  0  0
  2  1  1  6  0  0  0
  3  6  1  1  0  0  0
  3  8  1  0  0  0  0
  4 14  1  0  0  0  0
  5  4  2  0  0  0  0
  5  6  1  0  0  0  0
  6 15  2  0  0  0  0
  7  2  1  0  0  0  0
  7 26  1  1  0  0  0
  8 12  2  0  0  0  0
  9  1  1  0  0  0  0
 10 11  1  0  0  0  0
 10  9  1  1  0  0  0
 11 12  1  6  0  0  0
 11  2  1  0  0  0  0
 12 13  1  0  0  0  0
 13  7  1  0  0  0  0
 14 15  1  0  0  0  0
 15 10  1  0  0  0  0
 16 20  1  1  0  0  0
 16 18  1  0  0  0  0
 17 16  1  0  0  0  0
 18 17  1  6  0  0  0
 18  3  1  0  0  0  0
 20 19  3  0  0  0  0
 21 22  1  0  0  0  0
 21 16  1  0  0  0  0
 22 24  1  0  0  0  0
 23 24  2  0  0  0  0
 24 25  1  0  0  0  0
 26 27  1  0  0  0  0
 27 28  1  0  0  0  0
 28 29  1  1  0  0  0
 30 28  1  0  0  0  0
 31 34  1  6  0  0  0
 31 33  1  0  0  0  0
 31 37  1  0  0  0  0
 32 33  1  6  0  0  0
 32 35  1  0  0  0  0
 32 36  1  0  0  0  0
 35 38  1  1  0  0  0
 35 36  1  0  0  0  0
 36 30  1  6  0  0  0
 37 35  1  0  0  0  0
 38 39  1  0  0  0  0
 38 40  1  0  0  0  0
 39 40  1  0  0  0  0
M  END
>  <MODEL>
5

>  <REMARK>
 VINA RESULT:      -8.6      3.202      8.579
  Name = 
  11 active torsions:
  status: ('A' for Active; 'I' for Inactive)
    1  A    between atoms: C_2  and  C_20
    2  A    between atoms: C_5  and  C_27
    3  A    between atoms: C_11  and  N_36
    4  A    between atoms: C_11  and  C_40
    5  A    between atoms: C_16  and  C_39
    6  A    between atoms: C_17  and  C_22
    7  A    between atoms: C_17  and  N_36
    8  A    between atoms: C_21  and  C_25
    9  A    between atoms: C_21  and  C_29
   10  A    between atoms: C_25  and  C_31
   11  A    between atoms: C_31  and  C_39
                            x       y       z     vdW  Elec       q    Type
                         _______ _______ _______ _____ _____    ______ ____

>  <TORSDO>
F 11

$$$$
=
 OpenBabel10222415413D

 40 47  0  0  1  0  0  0  0  0999 V2000
  188.9540  176.9950  136.0270 C   0  0  0  0  0  2  0  0  0  0  0  0
  188.3470  177.1960  137.1850 C   0  0  2  0  0  3  0  0  0  0  0  0
  190.6780  177.1910  140.8880 C   0  0  2  0  0  3  0  0  0  0  0  0
  193.7720  176.8260  138.9160 N   0  0  0  0  0  0  0  0  0  0  0  0
  193.1480  177.1270  140.0740 C   0  0  0  0  0  2  0  0  0  0  0  0
  191.7810  177.0840  139.8530 C   0  0  0  0  0  0  0  0  0  0  0  0
  187.3860  178.2810  137.5600 C   0  0  2  0  0  3  0  0  0  0  0  0
  189.5450  177.9950  140.4270 N   0  0  0  0  0  0  0  0  0  0  0  0
  190.2790  176.3380  136.3170 C   0  0  0  0  0  2  0  0  0  0  0  0
  190.3910  176.5150  137.8050 C   0  0  2  0  0  3  0  0  0  0  0  0
  189.2170  176.9010  138.2580 C   0  0  1  0  0  3  0  0  0  0  0  0
  188.8750  177.8060  139.3300 C   0  0  0  0  0  0  0  0  0  0  0  0
  187.7690  178.6200  138.9410 N   0  0  0  0  0  2  0  0  0  0  0  0
  192.8670  176.5710  137.9820 N   0  0  0  0  0  0  0  0  0  0  0  0
  191.6500  176.7080  138.5320 C   0  0  0  0  0  0  0  0  0  0  0  0
  190.3410  177.4870  143.3830 C   0  0  1  0  0  0  0  0  0  0  0  0
  191.5180  176.7600  143.1130 O   0  0  0  0  0  0  0  0  0  0  0  0
  191.1920  177.7920  142.1990 C   0  0  1  0  0  3  0  0  0  0  0  0
  188.1050  176.0200  143.2170 C   0  0  0  0  0  3  0  0  0  0  0  0
  189.1110  176.6840  143.2840 C   0  0  0  0  0  0  0  0  0  0  0  0
  190.4590  178.4400  144.4870 N   0  0  0  0  0  2  0  0  0  0  0  0
  189.6300  178.0320  145.6220 C   0  0  0  0  0  2  0  0  0  0  0  0
  189.7790  176.4110  147.3730 O   0  0  0  0  0  1  0  0  0  0  0  0
  190.3920  177.1300  146.5390 C   0  0  0  0  0  0  0  0  0  0  0  0
  191.7800  177.0770  146.4650 O   0  0  0  0  0  0  0  0  0  0  0  0
  185.9570  177.7660  137.5240 C   0  0  0  0  0  2  0  0  0  0  0  0
  185.2070  178.2600  138.7500 C   0  0  0  0  0  2  0  0  0  0  0  0
  183.9140  178.9440  138.3460 C   0  0  1  0  0  3  0  0  0  0  0  0
  183.1170  178.0640  137.6150 O   0  0  0  0  0  1  0  0  0  0  0  0
  183.1790  179.3760  139.6000 C   0  0  0  0  0  2  0  0  0  0  0  0
  180.6330  178.9200  141.5910 C   0  0  2  0  0  3  0  0  0  0  0  0
  182.5670  177.5510  141.3370 C   0  0  2  0  0  3  0  0  0  0  0  0
  181.1630  177.7360  140.8170 C   0  0  0  0  0  2  0  0  0  0  0  0
  179.6890  179.7180  140.7210 C   0  0  0  0  0  1  0  0  0  0  0  0
  182.8310  178.8500  142.0660 C   0  0  1  0  0  0  0  0  0  0  0  0
  183.6250  178.5420  140.8030 C   0  0  2  0  0  3  0  0  0  0  0  0
  181.7220  179.7220  141.9650 O   0  0  0  0  0  0  0  0  0  0  0  0
  183.4870  178.6230  143.4260 C   0  0  0  0  0  3  0  0  0  0  0  0
  184.5520  179.6710  143.7100 C   0  0  0  0  0  2  0  0  0  0  0  0
  184.9580  178.2910  143.2420 C   0  0  0  0  0  2  0  0  0  0  0  0
  1  9  1  0  0  0  0
  2  1  1  6  0  0  0
  2  7  1  0  0  0  0
  2 11  1  0  0  0  0
  3  6  1  6  0  0  0
  3 18  1  0  0  0  0
  4  5  1  0  0  0  0
  6  5  1  0  0  0  0
  7 26  1  1  0  0  0
  7 13  1  0  0  0  0
  8  3  1  0  0  0  0
 10  9  1  6  0  0  0
 10 11  1  0  0  0  0
 10 15  1  0  0  0  0
 11 12  1  1  0  0  0
 12  8  2  0  0  0  0
 13 12  1  0  0  0  0
 14 15  1  0  0  0  0
 14  4  2  0  0  0  0
 15  6  2  0  0  0  0
 16 20  1  6  0  0  0
 16 21  1  0  0  0  0
 17 16  1  0  0  0  0
 18 17  1  1  0  0  0
 18 16  1  0  0  0  0
 19 20  3  0  0  0  0
 21 22  1  0  0  0  0
 22 24  1  0  0  0  0
 24 23  1  0  0  0  0
 25 24  2  0  0  0  0
 26 27  1  0  0  0  0
 28 29  1  1  0  0  0
 28 27  1  0  0  0  0
 28 30  1  0  0  0  0
 31 34  1  6  0  0  0
 31 37  1  0  0  0  0
 32 33  1  6  0  0  0
 32 35  1  0  0  0  0
 33 31  1  0  0  0  0
 35 38  1  1  0  0  0
 36 30  1  6  0  0  0
 36 32  1  0  0  0  0
 36 35  1  0  0  0  0
 37 35  1  0  0  0  0
 38 39  1  0  0  0  0
 40 38  1  0  0  0  0
 40 39  1  0  0  0  0
M  END
>  <MODEL>
6

>  <REMARK>
 VINA RESULT:      -8.4      2.333      6.472
  Name = 
  11 active torsions:
  status: ('A' for Active; 'I' for Inactive)
    1  A    between atoms: C_2  and  C_20
    2  A    between atoms: C_5  and  C_27
    3  A    between atoms: C_11  and  N_36
    4  A    between atoms: C_11  and  C_40
    5  A    between atoms: C_16  and  C_39
    6  A    between atoms: C_17  and  C_22
    7  A    between atoms: C_17  and  N_36
    8  A    between atoms: C_21  and  C_25
    9  A    between atoms: C_21  and  C_29
   10  A    between atoms: C_25  and  C_31
   11  A    between atoms: C_31  and  C_39
                            x       y       z     vdW  Elec       q    Type
                         _______ _______ _______ _____ _____    ______ ____

>  <TORSDO>
F 11

$$$$
=
 OpenBabel10222415413D

 40 47  0  0  1  0  0  0  0  0999 V2000
  182.0950  179.2680  143.9410 C   0  0  0  0  0  2  0  0  0  0  0  0
  183.2440  178.7490  143.5410 C   0  0  2  0  0  3  0  0  0  0  0  0
  183.9680  178.1130  139.2710 C   0  0  2  0  0  3  0  0  0  0  0  0
  180.7450  179.7330  138.5060 N   0  0  0  0  0  0  0  0  0  0  0  0
  181.9590  179.2920  138.1130 C   0  0  0  0  0  3  0  0  0  0  0  0
  182.6400  178.8430  139.2330 C   0  0  0  0  0  0  0  0  0  0  0  0
  184.6350  179.1580  143.9160 C   0  0  2  0  0  3  0  0  0  0  0  0
  184.8260  178.5590  140.3710 N   0  0  0  0  0  0  0  0  0  0  0  0
  181.1010  179.0850  142.8240 C   0  0  0  0  0  2  0  0  0  0  0  0
  181.9900  178.6780  141.6840 C   0  0  2  0  0  3  0  0  0  0  0  0
  183.1770  178.3900  142.1760 C   0  0  1  0  0  3  0  0  0  0  0  0
  184.4960  178.5940  141.6270 C   0  0  0  0  0  0  0  0  0  0  0  0
  185.3850  179.0280  142.6560 N   0  0  0  0  0  2  0  0  0  0  0  0
  180.6170  179.5620  139.8130 N   0  0  0  0  0  2  0  0  0  0  0  0
  181.7500  179.0090  140.2750 C   0  0  0  0  0  0  0  0  0  0  0  0
  184.8550  177.0300  137.1590 C   0  0  1  0  0  0  0  0  0  0  0  0
  183.8920  178.0140  136.8580 O   0  0  0  0  0  0  0  0  0  0  0  0
  184.7400  178.2800  137.9600 C   0  0  1  0  0  3  0  0  0  0  0  0
  183.8000  174.7090  137.9840 C   0  0  0  0  0  3  0  0  0  0  0  0
  184.2790  175.7510  137.6060 C   0  0  0  0  0  0  0  0  0  0  0  0
  185.9900  176.9940  136.2360 N   0  0  0  0  0  2  0  0  0  0  0  0
  187.0830  176.1860  136.7800 C   0  0  0  0  0  2  0  0  0  0  0  0
  189.4550  176.2850  136.4980 O   0  0  0  0  0  0  0  0  0  0  0  0
  188.3830  176.9190  136.6870 C   0  0  0  0  0  0  0  0  0  0  0  0
  188.4070  178.3050  136.8000 O   0  0  0  0  0  1  0  0  0  0  0  0
  185.2040  178.2160  144.9640 C   0  0  0  0  0  2  0  0  0  0  0  0
  186.4940  177.6010  144.4480 C   0  0  0  0  0  2  0  0  0  0  0  0
  187.6400  177.8840  145.4020 C   0  0  1  0  0  3  0  0  0  0  0  0
  187.2660  177.5600  146.7060 O   0  0  0  0  0  1  0  0  0  0  0  0
  188.8350  177.0460  144.9910 C   0  0  0  0  0  2  0  0  0  0  0  0
  191.3430  177.8920  143.0820 C   0  0  2  0  0  3  0  0  0  0  0  0
  189.9170  175.9940  142.8820 C   0  0  2  0  0  3  0  0  0  0  0  0
  191.2150  176.4470  143.5040 C   0  0  0  0  0  2  0  0  0  0  0  0
  192.0290  178.6830  144.1730 C   0  0  0  0  0  1  0  0  0  0  0  0
  189.2550  177.2980  142.4940 C   0  0  1  0  0  0  0  0  0  0  0  0
  188.6260  176.4550  143.5960 C   0  0  2  0  0  3  0  0  0  0  0  0
  190.0550  178.4030  142.8680 O   0  0  0  0  0  0  0  0  0  0  0  0
  188.6590  177.2430  141.0890 C   0  0  0  0  0  3  0  0  0  0  0  0
  189.6960  177.5890  140.0320 C   0  0  0  0  0  2  0  0  0  0  0  0
  188.6820  178.6260  140.4630 C   0  0  0  0  0  2  0  0  0  0  0  0
  2  7  1  0  0  0  0
  2  1  1  6  0  0  0
  3  6  1  6  0  0  0
  3  8  1  0  0  0  0
  4 14  1  0  0  0  0
  5  4  2  0  0  0  0
  5  6  1  0  0  0  0
  6 15  2  0  0  0  0
  7 26  1  1  0  0  0
  8 12  2  0  0  0  0
  9  1  1  0  0  0  0
 10 11  1  0  0  0  0
 10  9  1  1  0  0  0
 11 12  1  6  0  0  0
 11  2  1  0  0  0  0
 12 13  1  0  0  0  0
 13  7  1  0  0  0  0
 14 15  1  0  0  0  0
 15 10  1  0  0  0  0
 16 20  1  1  0  0  0
 16 18  1  0  0  0  0
 17 16  1  0  0  0  0
 18 17  1  6  0  0  0
 18  3  1  0  0  0  0
 20 19  3  0  0  0  0
 21 22  1  0  0  0  0
 21 16  1  0  0  0  0
 23 24  2  0  0  0  0
 24 22  1  0  0  0  0
 24 25  1  0  0  0  0
 27 26  1  0  0  0  0
 27 28  1  0  0  0  0
 28 29  1  1  0  0  0
 30 28  1  0  0  0  0
 31 33  1  0  0  0  0
 31 34  1  1  0  0  0
 32 33  1  1  0  0  0
 32 36  1  0  0  0  0
 35 38  1  6  0  0  0
 35 37  1  0  0  0  0
 35 32  1  0  0  0  0
 35 36  1  0  0  0  0
 36 30  1  1  0  0  0
 37 31  1  0  0  0  0
 39 40  1  0  0  0  0
 39 38  1  0  0  0  0
 40 38  1  0  0  0  0
M  END
>  <MODEL>
7

>  <REMARK>
 VINA RESULT:      -8.3      2.938      7.688
  Name = 
  11 active torsions:
  status: ('A' for Active; 'I' for Inactive)
    1  A    between atoms: C_2  and  C_20
    2  A    between atoms: C_5  and  C_27
    3  A    between atoms: C_11  and  N_36
    4  A    between atoms: C_11  and  C_40
    5  A    between atoms: C_16  and  C_39
    6  A    between atoms: C_17  and  C_22
    7  A    between atoms: C_17  and  N_36
    8  A    between atoms: C_21  and  C_25
    9  A    between atoms: C_21  and  C_29
   10  A    between atoms: C_25  and  C_31
   11  A    between atoms: C_31  and  C_39
                            x       y       z     vdW  Elec       q    Type
                         _______ _______ _______ _____ _____    ______ ____

>  <TORSDO>
F 11

$$$$
=
 OpenBabel10222415413D

 40 47  0  0  1  0  0  0  0  0999 V2000
  185.4790  178.4800  147.1050 C   0  0  0  0  0  2  0  0  0  0  0  0
  185.6370  178.5790  145.7960 C   0  0  2  0  0  3  0  0  0  0  0  0
  189.4810  177.5280  143.9870 C   0  0  2  0  0  3  0  0  0  0  0  0
  190.7140  176.4430  147.2880 N   0  0  0  0  0  0  0  0  0  0  0  0
  190.8230  176.4600  145.9430 C   0  0  0  0  0  3  0  0  0  0  0  0
  189.7190  177.1200  145.4270 C   0  0  0  0  0  0  0  0  0  0  0  0
  184.7570  178.0500  144.7060 C   0  0  2  0  0  3  0  0  0  0  0  0
  188.0940  177.3260  143.5640 N   0  0  0  0  0  0  0  0  0  0  0  0
  186.8520  178.4630  147.7280 C   0  0  0  0  0  2  0  0  0  0  0  0
  187.7320  178.2570  146.5280 C   0  0  2  0  0  3  0  0  0  0  0  0
  187.0010  178.4480  145.4490 C   0  0  1  0  0  3  0  0  0  0  0  0
  187.0410  177.7980  144.1610 C   0  0  0  0  0  0  0  0  0  0  0  0
  185.7110  177.5760  143.6900 N   0  0  0  0  0  2  0  0  0  0  0  0
  189.6100  177.0800  147.6480 N   0  0  0  0  0  2  0  0  0  0  0  0
  188.9960  177.5130  146.5350 C   0  0  0  0  0  0  0  0  0  0  0  0
  190.1890  177.1030  141.5910 C   0  0  1  0  0  0  0  0  0  0  0  0
  191.2450  177.6610  142.3390 O   0  0  0  0  0  0  0  0  0  0  0  0
  190.3930  176.7610  143.0260 C   0  0  1  0  0  3  0  0  0  0  0  0
  188.3560  178.8860  140.7900 C   0  0  0  0  0  3  0  0  0  0  0  0
  189.1880  178.0880  141.1490 C   0  0  0  0  0  0  0  0  0  0  0  0
  190.6010  176.0640  140.6460 N   0  0  0  0  0  2  0  0  0  0  0  0
  190.9380  176.6430  139.3440 C   0  0  0  0  0  2  0  0  0  0  0  0
  190.4620  174.7890  137.9120 O   0  0  0  0  0  1  0  0  0  0  0  0
  190.1740  175.9680  138.2500 C   0  0  0  0  0  0  0  0  0  0  0  0
  189.1370  176.6400  137.6110 O   0  0  0  0  0  0  0  0  0  0  0  0
  183.8900  179.1590  144.1340 C   0  0  0  0  0  2  0  0  0  0  0  0
  182.4330  178.7280  144.1560 C   0  0  0  0  0  2  0  0  0  0  0  0
  181.8750  178.6570  142.7460 C   0  0  1  0  0  3  0  0  0  0  0  0
  180.8230  179.5600  142.6030 O   0  0  0  0  0  1  0  0  0  0  0  0
  182.9800  179.0020  141.7670 C   0  0  0  0  0  2  0  0  0  0  0  0
  182.5050  179.4150  138.5650 C   0  0  2  0  0  3  0  0  0  0  0  0
  184.1030  178.0180  139.6470 C   0  0  2  0  0  3  0  0  0  0  0  0
  183.9220  179.4070  139.0870 C   0  0  0  0  0  2  0  0  0  0  0  0
  181.9060  180.7930  138.7350 C   0  0  0  0  0  1  0  0  0  0  0  0
  182.6840  177.5010  139.7330 C   0  0  1  0  0  0  0  0  0  0  0  0
  183.4540  177.7510  141.0240 C   0  0  2  0  0  3  0  0  0  0  0  0
  181.7600  178.4820  139.3020 O   0  0  0  0  0  0  0  0  0  0  0  0
  182.5600  176.0720  139.2110 C   0  0  0  0  0  3  0  0  0  0  0  0
  181.7850  176.0240  137.9030 C   0  0  0  0  0  2  0  0  0  0  0  0
  181.1020  175.6490  139.2010 C   0  0  0  0  0  2  0  0  0  0  0  0
  1  9  1  0  0  0  0
  2  1  1  1  0  0  0
  3  8  1  6  0  0  0
  3  6  1  0  0  0  0
  4 14  1  0  0  0  0
  5  4  2  0  0  0  0
  6  5  1  0  0  0  0
  6 15  2  0  0  0  0
  7 26  1  6  0  0  0
  7  2  1  0  0  0  0
  8 12  2  0  0  0  0
 10 15  1  0  0  0  0
 10  9  1  1  0  0  0
 11 12  1  6  0  0  0
 11  2  1  0  0  0  0
 11 10  1  0  0  0  0
 13 12  1  0  0  0  0
 13  7  1  0  0  0  0
 15 14  1  0  0  0  0
 16 20  1  6  0  0  0
 16 17  1  0  0  0  0
 16 18  1  0  0  0  0
 18 17  1  1  0  0  0
 18  3  1  0  0  0  0
 19 20  3  0  0  0  0
 21 16  1  0  0  0  0
 22 21  1  0  0  0  0
 23 24  1  0  0  0  0
 24 22  1  0  0  0  0
 25 24  2  0  0  0  0
 26 27  1  0  0  0  0
 28 29  1  1  0  0  0
 28 27  1  0  0  0  0
 30 28  1  0  0  0  0
 31 34  1  1  0  0  0
 31 33  1  0  0  0  0
 31 37  1  0  0  0  0
 32 33  1  1  0  0  0
 32 35  1  0  0  0  0
 32 36  1  0  0  0  0
 35 38  1  6  0  0  0
 35 36  1  0  0  0  0
 36 30  1  1  0  0  0
 37 35  1  0  0  0  0
 39 40  1  0  0  0  0
 39 38  1  0  0  0  0
 40 38  1  0  0  0  0
M  END
>  <MODEL>
8

>  <REMARK>
 VINA RESULT:      -8.0      1.222      2.085
  Name = 
  11 active torsions:
  status: ('A' for Active; 'I' for Inactive)
    1  A    between atoms: C_2  and  C_20
    2  A    between atoms: C_5  and  C_27
    3  A    between atoms: C_11  and  N_36
    4  A    between atoms: C_11  and  C_40
    5  A    between atoms: C_16  and  C_39
    6  A    between atoms: C_17  and  C_22
    7  A    between atoms: C_17  and  N_36
    8  A    between atoms: C_21  and  C_25
    9  A    between atoms: C_21  and  C_29
   10  A    between atoms: C_25  and  C_31
   11  A    between atoms: C_31  and  C_39
                            x       y       z     vdW  Elec       q    Type
                         _______ _______ _______ _____ _____    ______ ____

>  <TORSDO>
F 11

$$$$
=
 OpenBabel10222415413D

 40 47  0  0  1  0  0  0  0  0999 V2000
  189.0740  177.3410  143.9440 C   0  0  0  0  0  2  0  0  0  0  0  0
  188.4700  177.4140  142.7700 C   0  0  2  0  0  3  0  0  0  0  0  0
  184.2230  178.4520  142.5730 C   0  0  2  0  0  3  0  0  0  0  0  0
  184.2060  178.9880  146.2210 N   0  0  0  0  0  0  0  0  0  0  0  0
  183.6350  179.1500  145.0090 C   0  0  0  0  0  3  0  0  0  0  0  0
  184.4980  178.6410  144.0520 C   0  0  0  0  0  0  0  0  0  0  0  0
  188.9080  178.1450  141.5380 C   0  0  2  0  0  3  0  0  0  0  0  0
  185.3730  178.8010  141.7350 N   0  0  0  0  0  0  0  0  0  0  0  0
  188.0050  177.1820  144.9950 C   0  0  0  0  0  2  0  0  0  0  0  0
  186.7590  177.4950  144.2160 C   0  0  2  0  0  3  0  0  0  0  0  0
  187.0700  177.5030  142.9370 C   0  0  1  0  0  3  0  0  0  0  0  0
  186.5740  178.3210  141.8550 C   0  0  0  0  0  0  0  0  0  0  0  0
  187.6530  178.6920  140.9960 N   0  0  0  0  0  2  0  0  0  0  0  0
  185.3750  178.3800  146.0780 N   0  0  0  0  0  2  0  0  0  0  0  0
  185.5670  178.1460  144.7700 C   0  0  0  0  0  0  0  0  0  0  0  0
  182.2760  178.6920  140.9690 C   0  0  1  0  0  0  0  0  0  0  0  0
  181.8250  178.5530  142.2970 O   0  0  0  0  0  0  0  0  0  0  0  0
  183.0240  179.2850  142.1120 C   0  0  1  0  0  3  0  0  0  0  0  0
  183.0060  176.3740  139.8380 C   0  0  0  0  0  3  0  0  0  0  0  0
  182.6730  177.4210  140.3410 C   0  0  0  0  0  0  0  0  0  0  0  0
  181.5140  179.6510  140.1680 N   0  0  0  0  0  2  0  0  0  0  0  0
  182.1820  179.9180  138.8940 C   0  0  0  0  0  2  0  0  0  0  0  0
  180.5310  180.9190  137.4840 O   0  0  0  0  0  0  0  0  0  0  0  0
  181.5550  181.0840  138.1990 C   0  0  0  0  0  0  0  0  0  0  0  0
  182.0970  182.3560  138.3510 O   0  0  0  0  0  1  0  0  0  0  0  0
  189.5350  177.1850  140.5410 C   0  0  0  0  0  2  0  0  0  0  0  0
  189.0130  177.4890  139.1460 C   0  0  0  0  0  2  0  0  0  0  0  0
  190.1490  177.4910  138.1400 C   0  0  1  0  0  3  0  0  0  0  0  0
  191.3470  177.1600  138.7720 O   0  0  0  0  0  1  0  0  0  0  0  0
  189.8440  176.4730  137.0580 C   0  0  0  0  0  2  0  0  0  0  0  0
  189.5550  173.3150  136.2880 C   0  0  2  0  0  3  0  0  0  0  0  0
  190.9350  174.9610  135.2560 C   0  0  2  0  0  3  0  0  0  0  0  0
  189.5670  174.3310  135.1700 C   0  0  0  0  0  2  0  0  0  0  0  0
  188.1610  173.2050  136.8620 C   0  0  0  0  0  1  0  0  0  0  0  0
  191.4220  174.5250  136.6200 C   0  0  1  0  0  0  0  0  0  0  0  0
  191.1330  176.0020  136.3820 C   0  0  2  0  0  3  0  0  0  0  0  0
  190.4430  173.7480  137.2830 O   0  0  0  0  0  0  0  0  0  0  0  0
  192.8690  174.0400  136.5860 C   0  0  0  0  0  3  0  0  0  0  0  0
  193.6410  174.5090  137.8100 C   0  0  0  0  0  2  0  0  0  0  0  0
  193.8110  175.2270  136.4880 C   0  0  0  0  0  2  0  0  0  0  0  0
  1  9  1  0  0  0  0
  2 11  1  0  0  0  0
  2  1  1  1  0  0  0
  3  8  1  6  0  0  0
  3  6  1  0  0  0  0
  5  4  2  0  0  0  0
  6 15  2  0  0  0  0
  6  5  1  0  0  0  0
  7 26  1  6  0  0  0
  7  2  1  0  0  0  0
  8 12  2  0  0  0  0
 10 15  1  0  0  0  0
 10  9  1  1  0  0  0
 11 12  1  1  0  0  0
 11 10  1  0  0  0  0
 13  7  1  0  0  0  0
 13 12  1  0  0  0  0
 14  4  1  0  0  0  0
 15 14  1  0  0  0  0
 16 20  1  6  0  0  0
 16 18  1  0  0  0  0
 16 17  1  0  0  0  0
 18 17  1  1  0  0  0
 18  3  1  0  0  0  0
 19 20  3  0  0  0  0
 21 16  1  0  0  0  0
 22 21  1  0  0  0  0
 23 24  2  0  0  0  0
 24 25  1  0  0  0  0
 24 22  1  0  0  0  0
 27 26  1  0  0  0  0
 28 29  1  1  0  0  0
 28 27  1  0  0  0  0
 30 28  1  0  0  0  0
 31 34  1  1  0  0  0
 31 37  1  0  0  0  0
 32 33  1  1  0  0  0
 32 36  1  0  0  0  0
 32 35  1  0  0  0  0
 33 31  1  0  0  0  0
 35 38  1  1  0  0  0
 35 37  1  0  0  0  0
 36 35  1  0  0  0  0
 36 30  1  1  0  0  0
 38 39  1  0  0  0  0
 40 38  1  0  0  0  0
 40 39  1  0  0  0  0
M  END
>  <MODEL>
9

>  <REMARK>
 VINA RESULT:      -8.0      2.520      8.559
  Name = 
  11 active torsions:
  status: ('A' for Active; 'I' for Inactive)
    1  A    between atoms: C_2  and  C_20
    2  A    between atoms: C_5  and  C_27
    3  A    between atoms: C_11  and  N_36
    4  A    between atoms: C_11  and  C_40
    5  A    between atoms: C_16  and  C_39
    6  A    between atoms: C_17  and  C_22
    7  A    between atoms: C_17  and  N_36
    8  A    between atoms: C_21  and  C_25
    9  A    between atoms: C_21  and  C_29
   10  A    between atoms: C_25  and  C_31
   11  A    between atoms: C_31  and  C_39
                            x       y       z     vdW  Elec       q    Type
                         _______ _______ _______ _____ _____    ______ ____

>  <TORSDO>
F 11

$$$$
