=
 OpenBabel10222420233D

 47 51  0  0  1  0  0  0  0  0999 V2000
  188.4640  177.8320  140.7950 C   0  0  2  0  0  3  0  0  0  0  0  0
  189.0380  177.7430  143.1630 C   0  0  0  0  0  0  0  0  0  0  0  0
  189.3020  177.0220  144.2200 C   0  0  0  0  0  3  0  0  0  0  0  0
  188.7770  178.4680  142.1090 C   0  0  0  0  0  3  0  0  0  0  0  0
  186.8900  177.9620  146.9540 C   0  0  0  0  0  3  0  0  0  0  0  0
  189.0910  177.7560  147.9330 C   0  0  0  0  0  3  0  0  0  0  0  0
  187.7270  178.0240  148.0700 C   0  0  0  0  0  3  0  0  0  0  0  0
  187.4160  177.6310  145.7000 C   0  0  0  0  0  3  0  0  0  0  0  0
  188.7820  177.3590  145.5570 C   0  0  0  0  0  0  0  0  0  0  0  0
  189.6190  177.4240  146.6810 C   0  0  0  0  0  3  0  0  0  0  0  0
  189.5430  178.0730  139.8410 N   0  0  0  0  0  0  0  0  0  0  0  0
  190.6970  177.5310  140.3890 O   0  0  0  0  0  0  0  0  0  0  0  0
  190.0680  176.7870  139.4430 C   0  0  2  0  0  3  0  0  0  0  0  0
  190.7680  176.9090  138.1740 N   0  0  0  0  0  2  0  0  0  0  0  0
  191.1230  175.5730  137.7060 C   0  0  2  0  0  3  0  0  0  0  0  0
  193.3590  176.5970  137.8810 N   0  0  0  0  0  1  0  0  0  0  0  0
  192.6100  175.4670  137.3540 C   0  0  1  0  0  3  0  0  0  0  0  0
  193.1420  174.2770  137.8440 O   0  0  0  0  0  1  0  0  0  0  0  0
  190.2600  175.2120  136.5110 C   0  0  0  0  0  2  0  0  0  0  0  0
  188.9050  174.9010  136.9470 N   0  0  0  0  0  2  0  0  0  0  0  0
  187.7750  175.6590  136.5030 C   0  0  0  0  0  0  0  0  0  0  0  0
  187.9340  176.6260  135.7030 O   0  0  0  0  0  0  0  0  0  0  0  0
  186.4680  175.3060  136.9710 N   0  0  0  0  0  0  0  0  0  0  0  0
  185.0930  173.0540  137.6690 C   0  0  0  0  0  2  0  0  0  0  0  0
  186.1190  174.0850  137.2200 C   0  0  0  0  0  0  0  0  0  0  0  0
  186.3890  172.5890  137.2970 C   0  0  0  0  0  2  0  0  0  0  0  0
  187.1480  178.3440  140.2720 C   0  0  0  0  0  0  0  0  0  0  0  0
  186.9700  178.3420  138.9540 C   0  0  0  0  0  2  0  0  0  0  0  0
  186.0610  178.7940  141.1790 C   0  0  0  0  0  0  0  0  0  0  0  0
  186.0640  179.9810  141.6110 O   0  0  0  0  0  0  0  0  0  0  0  0
  182.0750  179.2510  144.1030 N   0  0  0  0  0  0  0  0  0  0  0  0
  181.9530  178.9480  142.7700 C   0  0  0  0  0  0  0  0  0  0  0  0
  184.4420  178.6290  144.1800 C   0  0  0  0  0  3  0  0  0  0  0  0
  183.2600  179.1070  144.7990 C   0  0  0  0  0  3  0  0  0  0  0  0
  183.0870  178.4870  142.1420 C   0  0  0  0  0  0  0  0  0  0  0  0
  184.3040  178.3300  142.8400 C   0  0  0  0  0  0  0  0  0  0  0  0
  183.7250  178.0110  140.8820 C   0  0  0  0  0  2  0  0  0  0  0  0
  184.9740  177.8330  141.6040 C   0  0  1  0  0  3  0  0  0  0  0  0
  180.4020  177.9040  141.3240 O   0  0  0  0  0  1  0  0  0  0  0  0
  180.6480  179.0650  142.0580 C   0  0  2  0  0  3  0  0  0  0  0  0
  180.6870  180.2160  141.1590 N   0  0  0  0  0  2  0  0  0  0  0  0
  180.3300  179.8380  139.7870 C   0  0  2  0  0  3  0  0  0  0  0  0
  181.4520  180.1140  138.8250 C   0  0  0  0  0  3  0  0  0  0  0  0
  182.0790  178.4510  137.0060 O   0  0  0  0  0  0  0  0  0  0  0  0
  181.7780  179.2640  137.8890 C   0  0  0  0  0  0  0  0  0  0  0  0
  179.0120  180.4780  139.3540 C   0  0  0  0  0  2  0  0  0  0  0  0
  179.2930  182.2200  138.9080 S   0  0  0  0  0  1  0  0  0  0  0  0
  1  4  1  1  0  0  0
  2  3  2  0  0  0  0
  3  9  1  0  0  0  0
  4  2  2  0  0  0  0
  5  7  1  0  0  0  0
  6  7  2  0  0  0  0
  8  5  2  0  0  0  0
  9  8  1  0  0  0  0
  9 10  2  0  0  0  0
 10  6  1  0  0  0  0
 11 12  1  0  0  0  0
 11  1  1  0  0  0  0
 13 14  1  6  0  0  0
 13 11  1  0  0  0  0
 13 12  1  0  0  0  0
 15 19  1  6  0  0  0
 15 14  1  0  0  0  0
 17 15  1  0  0  0  0
 17 18  1  1  0  0  0
 17 16  1  0  0  0  0
 19 20  1  0  0  0  0
 21 20  1  0  0  0  0
 21 23  1  0  0  0  0
 22 21  2  0  0  0  0
 23 25  2  0  0  0  0
 25 26  1  0  0  0  0
 25 24  1  0  0  0  0
 26 24  1  0  0  0  0
 27  1  1  0  0  0  0
 27 29  1  0  0  0  0
 28 27  2  0  0  0  0
 29 30  2  0  0  0  0
 31 34  1  0  0  0  0
 32 31  2  0  0  0  0
 33 34  2  0  0  0  0
 35 32  1  0  0  0  0
 35 36  2  0  0  0  0
 36 33  1  0  0  0  0
 37 38  1  0  0  0  0
 37 35  1  0  0  0  0
 38 29  1  6  0  0  0
 38 36  1  0  0  0  0
 40 39  1  6  0  0  0
 40 32  1  0  0  0  0
 41 40  1  0  0  0  0
 42 43  1  6  0  0  0
 42 41  1  0  0  0  0
 44 45  2  0  0  0  0
 45 43  2  0  0  0  0
 46 42  1  0  0  0  0
 47 46  1  0  0  0  0
M  END
>  <MODEL>
1

>  <REMARK>
 VINA RESULT:      -7.9      0.000      0.000
  Name = 
  17 active torsions:
  status: ('A' for Active; 'I' for Inactive)
    1  A    between atoms: C_1  and  C_17
    2  A    between atoms: C_1  and  C_23
    3  A    between atoms: C_1  and  N_25
    4  A    between atoms: C_5  and  C_46
    5  A    between atoms: C_7  and  C_19
    6  A    between atoms: N_8  and  C_37
    7  A    between atoms: C_9  and  C_34
    8  A    between atoms: N_11  and  C_34
    9  A    between atoms: N_11  and  C_46
   10  A    between atoms: N_12  and  C_18
   11  A    between atoms: C_13  and  C_35
   12  A    between atoms: C_18  and  C_19
   13  A    between atoms: C_19  and  N_38
   14  A    between atoms: C_23  and  C_28
   15  A    between atoms: C_28  and  C_40
   16  A    between atoms: C_29  and  C_46
   17  A    between atoms: N_38  and  C_47
                            x       y       z     vdW  Elec       q    Type
                         _______ _______ _______ _____ _____    ______ ____

>  <TORSDO>
F 17

$$$$
=
 OpenBabel10222420233D

 47 51  0  0  1  0  0  0  0  0999 V2000
  188.0150  176.2030  136.7380 C   0  0  2  0  0  3  0  0  0  0  0  0
  190.1420  175.0130  136.6870 C   0  0  0  0  0  0  0  0  0  0  0  0
  191.1360  174.4760  137.3440 C   0  0  0  0  0  3  0  0  0  0  0  0
  189.1500  175.5450  136.0250 C   0  0  0  0  0  3  0  0  0  0  0  0
  194.3420  176.0570  136.1630 C   0  0  0  0  0  3  0  0  0  0  0  0
  194.7150  173.6790  136.3840 C   0  0  0  0  0  3  0  0  0  0  0  0
  195.1900  174.9520  136.0620 C   0  0  0  0  0  3  0  0  0  0  0  0
  193.0180  175.8900  136.5850 C   0  0  0  0  0  3  0  0  0  0  0  0
  192.5370  174.6160  136.9100 C   0  0  0  0  0  0  0  0  0  0  0  0
  193.3930  173.5090  136.8070 C   0  0  0  0  0  3  0  0  0  0  0  0
  186.7800  176.0630  135.9690 N   0  0  0  0  0  0  0  0  0  0  0  0
  186.3520  174.7540  136.1260 O   0  0  0  0  0  0  0  0  0  0  0  0
  185.7330  175.6890  136.8920 C   0  0  2  0  0  3  0  0  0  0  0  0
  184.4330  176.0110  136.3220 N   0  0  0  0  0  2  0  0  0  0  0  0
  183.5690  176.5100  137.3870 C   0  0  2  0  0  3  0  0  0  0  0  0
  182.4870  177.7030  135.5200 N   0  0  0  0  0  1  0  0  0  0  0  0
  182.2750  177.1170  136.8340 C   0  0  1  0  0  3  0  0  0  0  0  0
  181.2750  176.1510  136.7670 O   0  0  0  0  0  1  0  0  0  0  0  0
  184.3300  177.5290  138.2160 C   0  0  0  0  0  2  0  0  0  0  0  0
  183.7000  177.6830  139.5210 N   0  0  0  0  0  2  0  0  0  0  0  0
  183.9560  178.8180  140.3550 C   0  0  0  0  0  0  0  0  0  0  0  0
  184.7420  179.7290  139.9640 O   0  0  0  0  0  0  0  0  0  0  0  0
  183.3100  178.9090  141.6300 N   0  0  0  0  0  0  0  0  0  0  0  0
  183.9640  178.6730  144.2690 C   0  0  0  0  0  2  0  0  0  0  0  0
  183.9360  178.7350  142.7480 C   0  0  0  0  0  0  0  0  0  0  0  0
  185.1850  178.4410  143.5680 C   0  0  0  0  0  2  0  0  0  0  0  0
  188.3350  177.6510  136.9980 C   0  0  0  0  0  0  0  0  0  0  0  0
  188.2120  178.4980  135.9800 C   0  0  0  0  0  2  0  0  0  0  0  0
  188.7310  178.1410  138.3430 C   0  0  0  0  0  0  0  0  0  0  0  0
  189.0050  179.3640  138.5030 O   0  0  0  0  0  0  0  0  0  0  0  0
  191.9390  177.6850  142.1040 N   0  0  0  0  0  0  0  0  0  0  0  0
  190.6130  177.9630  142.3250 C   0  0  0  0  0  0  0  0  0  0  0  0
  191.5460  176.8970  139.8190 C   0  0  0  0  0  3  0  0  0  0  0  0
  192.4090  177.1740  140.9090 C   0  0  0  0  0  3  0  0  0  0  0  0
  189.7540  177.7090  141.2810 C   0  0  0  0  0  0  0  0  0  0  0  0
  190.2170  177.1830  140.0560 C   0  0  0  0  0  0  0  0  0  0  0  0
  188.3560  177.7380  140.7630 C   0  0  0  0  0  2  0  0  0  0  0  0
  188.8310  177.1810  139.5070 C   0  0  1  0  0  3  0  0  0  0  0  0
  190.8280  179.6170  143.9990 O   0  0  0  0  0  1  0  0  0  0  0  0
  190.1290  178.4640  143.6430 C   0  0  2  0  0  3  0  0  0  0  0  0
  190.3320  177.4320  144.6580 N   0  0  0  0  0  2  0  0  0  0  0  0
  189.5390  177.7010  145.8620 C   0  0  2  0  0  3  0  0  0  0  0  0
  190.0250  176.9010  147.0380 C   0  0  0  0  0  3  0  0  0  0  0  0
  192.4510  176.1600  147.2260 O   0  0  0  0  0  0  0  0  0  0  0  0
  191.2700  176.5180  147.1400 C   0  0  0  0  0  0  0  0  0  0  0  0
  188.0450  177.5170  145.6020 C   0  0  0  0  0  2  0  0  0  0  0  0
  187.1040  177.9460  147.1010 S   0  0  0  0  0  1  0  0  0  0  0  0
  1  4  1  6  0  0  0
  1 27  1  0  0  0  0
  2  3  2  0  0  0  0
  4  2  2  0  0  0  0
  5  8  1  0  0  0  0
  6 10  2  0  0  0  0
  7  5  2  0  0  0  0
  7  6  1  0  0  0  0
  8  9  2  0  0  0  0
  9  3  1  0  0  0  0
 10  9  1  0  0  0  0
 11 12  1  0  0  0  0
 11  1  1  0  0  0  0
 11 13  1  0  0  0  0
 12 13  1  0  0  0  0
 13 14  1  6  0  0  0
 14 15  1  0  0  0  0
 15 19  1  6  0  0  0
 17 16  1  6  0  0  0
 17 15  1  0  0  0  0
 18 17  1  0  0  0  0
 19 20  1  0  0  0  0
 20 21  1  0  0  0  0
 21 23  1  0  0  0  0
 22 21  2  0  0  0  0
 23 25  2  0  0  0  0
 25 26  1  0  0  0  0
 25 24  1  0  0  0  0
 26 24  1  0  0  0  0
 27 29  1  0  0  0  0
 28 27  2  0  0  0  0
 29 30  2  0  0  0  0
 31 32  1  0  0  0  0
 32 40  1  0  0  0  0
 33 36  2  0  0  0  0
 33 34  1  0  0  0  0
 34 31  2  0  0  0  0
 35 32  2  0  0  0  0
 36 35  1  0  0  0  0
 37 35  1  0  0  0  0
 38 29  1  6  0  0  0
 38 36  1  0  0  0  0
 38 37  1  0  0  0  0
 40 39  1  1  0  0  0
 40 41  1  0  0  0  0
 41 42  1  0  0  0  0
 42 46  1  6  0  0  0
 42 43  1  0  0  0  0
 43 45  2  0  0  0  0
 45 44  2  0  0  0  0
 46 47  1  0  0  0  0
M  END
>  <MODEL>
2

>  <REMARK>
 VINA RESULT:      -7.5      3.101      9.107
  Name = 
  17 active torsions:
  status: ('A' for Active; 'I' for Inactive)
    1  A    between atoms: C_1  and  C_17
    2  A    between atoms: C_1  and  C_23
    3  A    between atoms: C_1  and  N_25
    4  A    between atoms: C_5  and  C_46
    5  A    between atoms: C_7  and  C_19
    6  A    between atoms: N_8  and  C_37
    7  A    between atoms: C_9  and  C_34
    8  A    between atoms: N_11  and  C_34
    9  A    between atoms: N_11  and  C_46
   10  A    between atoms: N_12  and  C_18
   11  A    between atoms: C_13  and  C_35
   12  A    between atoms: C_18  and  C_19
   13  A    between atoms: C_19  and  N_38
   14  A    between atoms: C_23  and  C_28
   15  A    between atoms: C_28  and  C_40
   16  A    between atoms: C_29  and  C_46
   17  A    between atoms: N_38  and  C_47
                            x       y       z     vdW  Elec       q    Type
                         _______ _______ _______ _____ _____    ______ ____

>  <TORSDO>
F 17

$$$$
=
 OpenBabel10222420233D

 47 51  0  0  1  0  0  0  0  0999 V2000
  189.0240  177.4000  139.3130 C   0  0  2  0  0  3  0  0  0  0  0  0
  188.9820  177.8410  141.7100 C   0  0  0  0  0  0  0  0  0  0  0  0
  189.3420  177.4890  142.9160 C   0  0  0  0  0  3  0  0  0  0  0  0
  188.6210  178.2000  140.5080 C   0  0  0  0  0  3  0  0  0  0  0  0
  188.1280  177.6390  146.4760 C   0  0  0  0  0  3  0  0  0  0  0  0
  186.1970  177.6890  145.0220 C   0  0  0  0  0  3  0  0  0  0  0  0
  186.7420  177.6970  146.3080 C   0  0  0  0  0  3  0  0  0  0  0  0
  188.9680  177.5730  145.3590 C   0  0  0  0  0  3  0  0  0  0  0  0
  188.4270  177.5660  144.0680 C   0  0  0  0  0  0  0  0  0  0  0  0
  187.0350  177.6240  143.9040 C   0  0  0  0  0  3  0  0  0  0  0  0
  190.4790  177.3130  139.2240 N   0  0  0  0  0  0  0  0  0  0  0  0
  190.8330  176.0290  139.6090 O   0  0  0  0  0  0  0  0  0  0  0  0
  190.7960  176.2730  138.2740 C   0  0  2  0  0  3  0  0  0  0  0  0
  192.1490  176.4570  137.7700 N   0  0  0  0  0  2  0  0  0  0  0  0
  192.2910  175.6990  136.5300 C   0  0  2  0  0  3  0  0  0  0  0  0
  190.6150  174.5300  135.1510 N   0  0  0  0  0  1  0  0  0  0  0  0
  191.2800  174.5510  136.4440 C   0  0  1  0  0  3  0  0  0  0  0  0
  191.9100  173.3300  136.6730 O   0  0  0  0  0  1  0  0  0  0  0  0
  193.7110  175.1750  136.4210 C   0  0  0  0  0  2  0  0  0  0  0  0
  194.4520  175.4790  137.6380 N   0  0  0  0  0  2  0  0  0  0  0  0
  195.0870  174.4560  138.4120 C   0  0  0  0  0  0  0  0  0  0  0  0
  195.0220  173.2480  138.0440 O   0  0  0  0  0  0  0  0  0  0  0  0
  195.7970  174.8190  139.6030 N   0  0  0  0  0  0  0  0  0  0  0  0
  198.3780  175.2230  140.3930 C   0  0  0  0  0  2  0  0  0  0  0  0
  197.0850  174.9300  139.6440 C   0  0  0  0  0  0  0  0  0  0  0  0
  198.4690  174.8760  139.0130 C   0  0  0  0  0  2  0  0  0  0  0  0
  188.4350  178.0020  138.0640 C   0  0  0  0  0  0  0  0  0  0  0  0
  188.9960  179.1150  137.5980 C   0  0  0  0  0  2  0  0  0  0  0  0
  187.3040  177.3680  137.3420 C   0  0  0  0  0  0  0  0  0  0  0  0
  187.4720  176.2450  136.7880 O   0  0  0  0  0  0  0  0  0  0  0  0
  182.6080  175.7570  137.3340 N   0  0  0  0  0  0  0  0  0  0  0  0
  183.0790  176.5830  138.3230 C   0  0  0  0  0  0  0  0  0  0  0  0
  184.4510  176.2860  135.8100 C   0  0  0  0  0  3  0  0  0  0  0  0
  183.2500  175.5980  136.1210 C   0  0  0  0  0  3  0  0  0  0  0  0
  184.2460  177.2590  138.0510 C   0  0  0  0  0  0  0  0  0  0  0  0
  184.9120  177.1110  136.8160 C   0  0  0  0  0  0  0  0  0  0  0  0
  185.2910  178.2100  138.5240 C   0  0  0  0  0  2  0  0  0  0  0  0
  185.9690  178.0710  137.2450 C   0  0  1  0  0  3  0  0  0  0  0  0
  181.5130  175.6730  139.8420 O   0  0  0  0  0  1  0  0  0  0  0  0
  182.3350  176.7740  139.6010 C   0  0  2  0  0  3  0  0  0  0  0  0
  181.5220  177.9850  139.5120 N   0  0  0  0  0  2  0  0  0  0  0  0
  181.8780  178.9480  140.5600 C   0  0  2  0  0  3  0  0  0  0  0  0
  182.9930  178.4370  141.4280 C   0  0  0  0  0  3  0  0  0  0  0  0
  183.1400  179.0460  143.8930 O   0  0  0  0  0  0  0  0  0  0  0  0
  183.0740  178.7460  142.6940 C   0  0  0  0  0  0  0  0  0  0  0  0
  180.6530  179.3790  141.3650 C   0  0  0  0  0  2  0  0  0  0  0  0
  179.1670  178.5600  140.7080 S   0  0  0  0  0  1  0  0  0  0  0  0
  1  4  1  1  0  0  0
  2  3  2  0  0  0  0
  3  9  1  0  0  0  0
  4  2  2  0  0  0  0
  6  7  2  0  0  0  0
  7  5  1  0  0  0  0
  8  5  2  0  0  0  0
  9  8  1  0  0  0  0
 10  9  2  0  0  0  0
 10  6  1  0  0  0  0
 11  1  1  0  0  0  0
 11 12  1  0  0  0  0
 13 14  1  1  0  0  0
 13 11  1  0  0  0  0
 13 12  1  0  0  0  0
 15 19  1  1  0  0  0
 15 14  1  0  0  0  0
 17 16  1  6  0  0  0
 17 15  1  0  0  0  0
 17 18  1  0  0  0  0
 19 20  1  0  0  0  0
 20 21  1  0  0  0  0
 21 23  1  0  0  0  0
 22 21  2  0  0  0  0
 23 25  2  0  0  0  0
 25 24  1  0  0  0  0
 26 25  1  0  0  0  0
 26 24  1  0  0  0  0
 27  1  1  0  0  0  0
 28 27  2  0  0  0  0
 29 27  1  0  0  0  0
 30 29  2  0  0  0  0
 31 32  1  0  0  0  0
 32 40  1  0  0  0  0
 33 34  1  0  0  0  0
 33 36  2  0  0  0  0
 34 31  2  0  0  0  0
 35 32  2  0  0  0  0
 35 37  1  0  0  0  0
 36 38  1  0  0  0  0
 36 35  1  0  0  0  0
 38 29  1  1  0  0  0
 38 37  1  0  0  0  0
 40 39  1  6  0  0  0
 41 40  1  0  0  0  0
 41 42  1  0  0  0  0
 42 46  1  1  0  0  0
 42 43  1  0  0  0  0
 43 45  2  0  0  0  0
 45 44  2  0  0  0  0
 47 46  1  0  0  0  0
M  END
>  <MODEL>
3

>  <REMARK>
 VINA RESULT:      -7.4      2.568      5.405
  Name = 
  17 active torsions:
  status: ('A' for Active; 'I' for Inactive)
    1  A    between atoms: C_1  and  C_17
    2  A    between atoms: C_1  and  C_23
    3  A    between atoms: C_1  and  N_25
    4  A    between atoms: C_5  and  C_46
    5  A    between atoms: C_7  and  C_19
    6  A    between atoms: N_8  and  C_37
    7  A    between atoms: C_9  and  C_34
    8  A    between atoms: N_11  and  C_34
    9  A    between atoms: N_11  and  C_46
   10  A    between atoms: N_12  and  C_18
   11  A    between atoms: C_13  and  C_35
   12  A    between atoms: C_18  and  C_19
   13  A    between atoms: C_19  and  N_38
   14  A    between atoms: C_23  and  C_28
   15  A    between atoms: C_28  and  C_40
   16  A    between atoms: C_29  and  C_46
   17  A    between atoms: N_38  and  C_47
                            x       y       z     vdW  Elec       q    Type
                         _______ _______ _______ _____ _____    ______ ____

>  <TORSDO>
F 17

$$$$
=
 OpenBabel10222420233D

 47 51  0  0  1  0  0  0  0  0999 V2000
  188.8750  177.5220  139.6800 C   0  0  2  0  0  3  0  0  0  0  0  0
  187.9640  177.7640  141.9280 C   0  0  0  0  0  0  0  0  0  0  0  0
  187.4460  177.2030  142.9890 C   0  0  0  0  0  3  0  0  0  0  0  0
  188.4820  178.3310  140.8730 C   0  0  0  0  0  3  0  0  0  0  0  0
  184.0980  178.7730  143.6930 C   0  0  0  0  0  3  0  0  0  0  0  0
  185.2840  178.5660  145.7890 C   0  0  0  0  0  3  0  0  0  0  0  0
  184.1490  178.9580  145.0760 C   0  0  0  0  0  3  0  0  0  0  0  0
  185.1820  178.1960  143.0210 C   0  0  0  0  0  3  0  0  0  0  0  0
  186.3210  177.8000  143.7300 C   0  0  0  0  0  0  0  0  0  0  0  0
  186.3680  177.9890  145.1200 C   0  0  0  0  0  3  0  0  0  0  0  0
  190.3290  177.4720  139.5540 N   0  0  0  0  0  0  0  0  0  0  0  0
  190.7660  176.4050  140.3250 O   0  0  0  0  0  0  0  0  0  0  0  0
  190.6730  176.1890  138.9870 C   0  0  2  0  0  3  0  0  0  0  0  0
  191.9960  176.2510  138.3850 N   0  0  0  0  0  2  0  0  0  0  0  0
  191.8620  176.0580  136.9450 C   0  0  2  0  0  3  0  0  0  0  0  0
  189.9560  176.5530  135.4600 N   0  0  0  0  0  1  0  0  0  0  0  0
  190.4240  175.7070  136.5480 C   0  0  1  0  0  3  0  0  0  0  0  0
  190.3340  174.3680  136.1790 O   0  0  0  0  0  1  0  0  0  0  0  0
  192.8230  174.9750  136.4910 C   0  0  0  0  0  2  0  0  0  0  0  0
  194.1990  175.4220  136.6640 N   0  0  0  0  0  2  0  0  0  0  0  0
  195.1700  174.6300  137.3560 C   0  0  0  0  0  0  0  0  0  0  0  0
  194.8480  173.5030  137.8310 O   0  0  0  0  0  0  0  0  0  0  0  0
  196.5060  175.1280  137.4980 N   0  0  0  0  0  0  0  0  0  0  0  0
  199.0540  174.1490  137.5240 C   0  0  0  0  0  2  0  0  0  0  0  0
  197.5480  174.3610  137.4610 C   0  0  0  0  0  0  0  0  0  0  0  0
  198.2260  173.0050  137.3280 C   0  0  0  0  0  2  0  0  0  0  0  0
  188.2380  178.0880  138.4390 C   0  0  0  0  0  0  0  0  0  0  0  0
  188.9130  179.0210  137.7750 C   0  0  0  0  0  2  0  0  0  0  0  0
  186.9290  177.6010  137.9330 C   0  0  0  0  0  0  0  0  0  0  0  0
  186.8520  176.4530  137.4120 O   0  0  0  0  0  0  0  0  0  0  0  0
  182.0600  176.6440  138.0840 N   0  0  0  0  0  0  0  0  0  0  0  0
  182.6980  177.2710  139.1240 C   0  0  0  0  0  0  0  0  0  0  0  0
  183.8700  177.1060  136.5010 C   0  0  0  0  0  3  0  0  0  0  0  0
  182.6040  176.5510  136.8170 C   0  0  0  0  0  3  0  0  0  0  0  0
  183.9310  177.8140  138.8470 C   0  0  0  0  0  0  0  0  0  0  0  0
  184.4990  177.7320  137.5580 C   0  0  0  0  0  0  0  0  0  0  0  0
  185.1250  178.5520  139.3480 C   0  0  0  0  0  2  0  0  0  0  0  0
  185.7030  178.4830  138.0160 C   0  0  1  0  0  3  0  0  0  0  0  0
  180.7840  176.8420  140.4430 O   0  0  0  0  0  1  0  0  0  0  0  0
  182.0620  177.4000  140.4670 C   0  0  2  0  0  3  0  0  0  0  0  0
  181.9750  178.8140  140.8280 N   0  0  0  0  0  2  0  0  0  0  0  0
  180.5820  179.2380  141.0040 C   0  0  2  0  0  3  0  0  0  0  0  0
  180.1360  180.1520  139.8970 C   0  0  0  0  0  3  0  0  0  0  0  0
  181.8130  181.3110  138.3770 O   0  0  0  0  0  0  0  0  0  0  0  0
  180.9920  180.7500  139.1130 C   0  0  0  0  0  0  0  0  0  0  0  0
  180.3480  179.8340  142.3910 C   0  0  0  0  0  2  0  0  0  0  0  0
  180.1570  178.4960  143.6100 S   0  0  0  0  0  1  0  0  0  0  0  0
  1  4  1  1  0  0  0
  2  3  2  0  0  0  0
  3  9  1  0  0  0  0
  4  2  2  0  0  0  0
  5  7  1  0  0  0  0
  7  6  2  0  0  0  0
  8  5  2  0  0  0  0
  8  9  1  0  0  0  0
  9 10  2  0  0  0  0
 10  6  1  0  0  0  0
 11  1  1  0  0  0  0
 11 12  1  0  0  0  0
 13 14  1  6  0  0  0
 13 11  1  0  0  0  0
 13 12  1  0  0  0  0
 15 19  1  1  0  0  0
 15 14  1  0  0  0  0
 17 16  1  6  0  0  0
 17 15  1  0  0  0  0
 18 17  1  0  0  0  0
 19 20  1  0  0  0  0
 20 21  1  0  0  0  0
 21 23  1  0  0  0  0
 21 22  2  0  0  0  0
 25 23  2  0  0  0  0
 25 24  1  0  0  0  0
 26 25  1  0  0  0  0
 26 24  1  0  0  0  0
 27  1  1  0  0  0  0
 28 27  2  0  0  0  0
 29 27  1  0  0  0  0
 30 29  2  0  0  0  0
 31 32  1  0  0  0  0
 32 40  1  0  0  0  0
 33 34  1  0  0  0  0
 33 36  2  0  0  0  0
 34 31  2  0  0  0  0
 35 32  2  0  0  0  0
 35 37  1  0  0  0  0
 36 38  1  0  0  0  0
 36 35  1  0  0  0  0
 38 29  1  1  0  0  0
 38 37  1  0  0  0  0
 40 39  1  6  0  0  0
 40 41  1  0  0  0  0
 41 42  1  0  0  0  0
 42 43  1  6  0  0  0
 42 46  1  0  0  0  0
 44 45  2  0  0  0  0
 45 43  2  0  0  0  0
 46 47  1  0  0  0  0
M  END
>  <MODEL>
4

>  <REMARK>
 VINA RESULT:      -7.4      2.579      5.166
  Name = 
  17 active torsions:
  status: ('A' for Active; 'I' for Inactive)
    1  A    between atoms: C_1  and  C_17
    2  A    between atoms: C_1  and  C_23
    3  A    between atoms: C_1  and  N_25
    4  A    between atoms: C_5  and  C_46
    5  A    between atoms: C_7  and  C_19
    6  A    between atoms: N_8  and  C_37
    7  A    between atoms: C_9  and  C_34
    8  A    between atoms: N_11  and  C_34
    9  A    between atoms: N_11  and  C_46
   10  A    between atoms: N_12  and  C_18
   11  A    between atoms: C_13  and  C_35
   12  A    between atoms: C_18  and  C_19
   13  A    between atoms: C_19  and  N_38
   14  A    between atoms: C_23  and  C_28
   15  A    between atoms: C_28  and  C_40
   16  A    between atoms: C_29  and  C_46
   17  A    between atoms: N_38  and  C_47
                            x       y       z     vdW  Elec       q    Type
                         _______ _______ _______ _____ _____    ______ ____

>  <TORSDO>
F 17

$$$$
=
 OpenBabel10222420233D

 47 51  0  0  1  0  0  0  0  0999 V2000
  187.3800  178.2990  141.1230 C   0  0  2  0  0  3  0  0  0  0  0  0
  188.1190  177.5580  143.3250 C   0  0  0  0  0  0  0  0  0  0  0  0
  187.9460  176.7710  144.3530 C   0  0  0  0  0  3  0  0  0  0  0  0
  188.2990  178.3450  142.2990 C   0  0  0  0  0  3  0  0  0  0  0  0
  187.1510  178.2830  147.7080 C   0  0  0  0  0  3  0  0  0  0  0  0
  189.4610  177.5720  147.7350 C   0  0  0  0  0  3  0  0  0  0  0  0
  188.3690  178.1580  148.3790 C   0  0  0  0  0  3  0  0  0  0  0  0
  187.0240  177.8250  146.3920 C   0  0  0  0  0  3  0  0  0  0  0  0
  188.1140  177.2360  145.7410 C   0  0  0  0  0  0  0  0  0  0  0  0
  189.3370  177.1120  146.4200 C   0  0  0  0  0  3  0  0  0  0  0  0
  188.0220  178.8860  139.9500 N   0  0  0  0  0  0  0  0  0  0  0  0
  189.0690  178.0470  139.5990 O   0  0  0  0  0  0  0  0  0  0  0  0
  187.9260  177.9260  138.8750 C   0  0  2  0  0  3  0  0  0  0  0  0
  188.0810  178.5980  137.5940 N   0  0  0  0  0  2  0  0  0  0  0  0
  187.0210  178.1450  136.6990 C   0  0  2  0  0  3  0  0  0  0  0  0
  184.7350  177.2410  136.9010 N   0  0  0  0  0  1  0  0  0  0  0  0
  186.1060  177.1180  137.3730 C   0  0  1  0  0  3  0  0  0  0  0  0
  186.5710  175.8260  137.1420 O   0  0  0  0  0  1  0  0  0  0  0  0
  187.6380  177.5700  135.4380 C   0  0  0  0  0  2  0  0  0  0  0  0
  189.0880  177.5200  135.5690 N   0  0  0  0  0  2  0  0  0  0  0  0
  189.8050  176.2810  135.5690 C   0  0  0  0  0  0  0  0  0  0  0  0
  189.1830  175.1870  135.4450 O   0  0  0  0  0  0  0  0  0  0  0  0
  191.2310  176.2980  135.7050 N   0  0  0  0  0  0  0  0  0  0  0  0
  193.0880  176.2770  137.7050 C   0  0  0  0  0  2  0  0  0  0  0  0
  191.8260  176.2790  136.8540 C   0  0  0  0  0  0  0  0  0  0  0  0
  191.8300  176.2410  138.3750 C   0  0  0  0  0  2  0  0  0  0  0  0
  186.0880  179.0000  141.4480 C   0  0  0  0  0  0  0  0  0  0  0  0
  186.0510  179.7330  142.5570 C   0  0  0  0  0  2  0  0  0  0  0  0
  184.9050  178.9280  140.5530 C   0  0  0  0  0  0  0  0  0  0  0  0
  184.8040  179.7380  139.5900 O   0  0  0  0  0  0  0  0  0  0  0  0
  180.2060  179.2970  142.1130 N   0  0  0  0  0  0  0  0  0  0  0  0
  180.5100  178.8020  140.8700 C   0  0  0  0  0  0  0  0  0  0  0  0
  182.4830  178.9820  142.9580 C   0  0  0  0  0  3  0  0  0  0  0  0
  181.1370  179.3940  143.1290 C   0  0  0  0  0  3  0  0  0  0  0  0
  181.8110  178.3990  140.6730 C   0  0  0  0  0  0  0  0  0  0  0  0
  182.7720  178.4870  141.7030 C   0  0  0  0  0  0  0  0  0  0  0  0
  182.8290  177.8350  139.7430 C   0  0  0  0  0  2  0  0  0  0  0  0
  183.8160  177.9100  140.8080 C   0  0  1  0  0  3  0  0  0  0  0  0
  179.8830  177.7220  138.8630 O   0  0  0  0  0  1  0  0  0  0  0  0
  179.4710  178.6610  139.8090 C   0  0  2  0  0  3  0  0  0  0  0  0
  179.2610  179.9540  139.1610 N   0  0  0  0  0  2  0  0  0  0  0  0
  180.1730  180.1400  138.0270 C   0  0  2  0  0  3  0  0  0  0  0  0
  181.2630  181.1250  138.3450 C   0  0  0  0  0  3  0  0  0  0  0  0
  181.1490  183.5350  137.5430 O   0  0  0  0  0  0  0  0  0  0  0  0
  181.2100  182.3640  137.9360 C   0  0  0  0  0  0  0  0  0  0  0  0
  179.4140  180.4940  136.7490 C   0  0  0  0  0  2  0  0  0  0  0  0
  178.9310  178.9690  135.8800 S   0  0  0  0  0  1  0  0  0  0  0  0
  1 27  1  0  0  0  0
  1  4  1  1  0  0  0
  2  3  2  0  0  0  0
  3  9  1  0  0  0  0
  4  2  2  0  0  0  0
  5  7  1  0  0  0  0
  6  7  2  0  0  0  0
  8  5  2  0  0  0  0
  9  8  1  0  0  0  0
  9 10  2  0  0  0  0
 10  6  1  0  0  0  0
 11  1  1  0  0  0  0
 12 11  1  0  0  0  0
 13 14  1  6  0  0  0
 13 12  1  0  0  0  0
 13 11  1  0  0  0  0
 15 19  1  6  0  0  0
 15 17  1  0  0  0  0
 15 14  1  0  0  0  0
 17 16  1  6  0  0  0
 18 17  1  0  0  0  0
 19 20  1  0  0  0  0
 21 20  1  0  0  0  0
 21 23  1  0  0  0  0
 22 21  2  0  0  0  0
 23 25  2  0  0  0  0
 24 26  1  0  0  0  0
 25 24  1  0  0  0  0
 25 26  1  0  0  0  0
 27 28  2  0  0  0  0
 29 27  1  0  0  0  0
 30 29  2  0  0  0  0
 31 34  1  0  0  0  0
 32 31  2  0  0  0  0
 33 34  2  0  0  0  0
 35 32  1  0  0  0  0
 35 36  2  0  0  0  0
 36 33  1  0  0  0  0
 37 35  1  0  0  0  0
 37 38  1  0  0  0  0
 38 29  1  6  0  0  0
 38 36  1  0  0  0  0
 40 39  1  6  0  0  0
 40 32  1  0  0  0  0
 41 40  1  0  0  0  0
 42 46  1  6  0  0  0
 42 43  1  0  0  0  0
 42 41  1  0  0  0  0
 44 45  2  0  0  0  0
 45 43  2  0  0  0  0
 47 46  1  0  0  0  0
M  END
>  <MODEL>
5

>  <REMARK>
 VINA RESULT:      -7.4      2.124      3.530
  Name = 
  17 active torsions:
  status: ('A' for Active; 'I' for Inactive)
    1  A    between atoms: C_1  and  C_17
    2  A    between atoms: C_1  and  C_23
    3  A    between atoms: C_1  and  N_25
    4  A    between atoms: C_5  and  C_46
    5  A    between atoms: C_7  and  C_19
    6  A    between atoms: N_8  and  C_37
    7  A    between atoms: C_9  and  C_34
    8  A    between atoms: N_11  and  C_34
    9  A    between atoms: N_11  and  C_46
   10  A    between atoms: N_12  and  C_18
   11  A    between atoms: C_13  and  C_35
   12  A    between atoms: C_18  and  C_19
   13  A    between atoms: C_19  and  N_38
   14  A    between atoms: C_23  and  C_28
   15  A    between atoms: C_28  and  C_40
   16  A    between atoms: C_29  and  C_46
   17  A    between atoms: N_38  and  C_47
                            x       y       z     vdW  Elec       q    Type
                         _______ _______ _______ _____ _____    ______ ____

>  <TORSDO>
F 17

$$$$
=
 OpenBabel10222420233D

 47 51  0  0  1  0  0  0  0  0999 V2000
  188.0530  177.8450  140.2800 C   0  0  2  0  0  3  0  0  0  0  0  0
  188.5510  177.6000  142.6530 C   0  0  0  0  0  0  0  0  0  0  0  0
  188.6660  176.8180  143.6940 C   0  0  0  0  0  3  0  0  0  0  0  0
  188.4400  178.3860  141.6170 C   0  0  0  0  0  3  0  0  0  0  0  0
  186.3350  177.9040  146.4440 C   0  0  0  0  0  3  0  0  0  0  0  0
  188.5440  177.6460  147.3920 C   0  0  0  0  0  3  0  0  0  0  0  0
  187.1930  177.9640  147.5450 C   0  0  0  0  0  3  0  0  0  0  0  0
  186.8280  177.5260  145.1900 C   0  0  0  0  0  3  0  0  0  0  0  0
  188.1810  177.2050  145.0310 C   0  0  0  0  0  0  0  0  0  0  0  0
  189.0390  177.2670  146.1400 C   0  0  0  0  0  3  0  0  0  0  0  0
  189.0130  178.2660  139.2620 N   0  0  0  0  0  0  0  0  0  0  0  0
  190.2690  177.8810  139.7070 O   0  0  0  0  0  0  0  0  0  0  0  0
  189.6830  177.0810  138.7800 C   0  0  2  0  0  3  0  0  0  0  0  0
  190.2620  177.3370  137.4700 N   0  0  0  0  0  2  0  0  0  0  0  0
  191.1070  176.2050  137.1040 C   0  0  2  0  0  3  0  0  0  0  0  0
  189.5630  174.7120  135.8940 N   0  0  0  0  0  1  0  0  0  0  0  0
  190.3300  174.8850  137.1180 C   0  0  1  0  0  3  0  0  0  0  0  0
  191.1990  173.8100  137.2880 O   0  0  0  0  0  1  0  0  0  0  0  0
  192.2950  176.1390  138.0460 C   0  0  0  0  0  2  0  0  0  0  0  0
  193.5380  176.2560  137.2940 N   0  0  0  0  0  2  0  0  0  0  0  0
  194.5560  175.2520  137.3560 C   0  0  0  0  0  0  0  0  0  0  0  0
  194.3900  174.2220  138.0710 O   0  0  0  0  0  0  0  0  0  0  0  0
  195.7580  175.4280  136.5960 N   0  0  0  0  0  0  0  0  0  0  0  0
  197.3880  173.9420  134.9890 C   0  0  0  0  0  2  0  0  0  0  0  0
  196.2980  174.4750  135.9080 C   0  0  0  0  0  0  0  0  0  0  0  0
  196.3550  173.0450  135.3890 C   0  0  0  0  0  2  0  0  0  0  0  0
  186.6560  178.2840  139.9280 C   0  0  0  0  0  0  0  0  0  0  0  0
  186.3110  178.2570  138.6440 C   0  0  0  0  0  2  0  0  0  0  0  0
  185.6730  178.6900  140.9650 C   0  0  0  0  0  0  0  0  0  0  0  0
  185.8160  179.7960  141.5570 O   0  0  0  0  0  0  0  0  0  0  0  0
  181.3360  179.4290  143.2640 N   0  0  0  0  0  0  0  0  0  0  0  0
  181.3910  178.9990  141.9620 C   0  0  0  0  0  0  0  0  0  0  0  0
  183.6620  178.8160  143.7200 C   0  0  0  0  0  3  0  0  0  0  0  0
  182.4140  179.3520  144.1260 C   0  0  0  0  0  3  0  0  0  0  0  0
  182.5920  178.4790  141.5410 C   0  0  0  0  0  0  0  0  0  0  0  0
  183.7020  178.3890  142.4090 C   0  0  0  0  0  0  0  0  0  0  0  0
  183.3880  177.8830  140.4300 C   0  0  0  0  0  2  0  0  0  0  0  0
  184.5260  177.7750  141.3290 C   0  0  1  0  0  3  0  0  0  0  0  0
  180.3130  178.0880  140.0670 O   0  0  0  0  0  1  0  0  0  0  0  0
  180.1950  179.0470  141.0720 C   0  0  2  0  0  3  0  0  0  0  0  0
  180.0890  180.3770  140.4740 N   0  0  0  0  0  2  0  0  0  0  0  0
  180.2680  180.3260  139.0190 C   0  0  2  0  0  3  0  0  0  0  0  0
  181.3260  181.2880  138.5560 C   0  0  0  0  0  3  0  0  0  0  0  0
  183.8000  180.7950  138.8760 O   0  0  0  0  0  0  0  0  0  0  0  0
  182.5980  181.0410  138.7180 C   0  0  0  0  0  0  0  0  0  0  0  0
  178.9420  180.5100  138.2840 C   0  0  0  0  0  2  0  0  0  0  0  0
  179.1330  181.7620  136.9770 S   0  0  0  0  0  1  0  0  0  0  0  0
  1  4  1  1  0  0  0
  2  3  2  0  0  0  0
  3  9  1  0  0  0  0
  4  2  2  0  0  0  0
  5  7  1  0  0  0  0
  6  7  2  0  0  0  0
  8  5  2  0  0  0  0
  9  8  1  0  0  0  0
  9 10  2  0  0  0  0
 10  6  1  0  0  0  0
 11 12  1  0  0  0  0
 11  1  1  0  0  0  0
 13 14  1  6  0  0  0
 13 11  1  0  0  0  0
 13 12  1  0  0  0  0
 15 17  1  0  0  0  0
 15 14  1  0  0  0  0
 15 19  1  1  0  0  0
 17 16  1  6  0  0  0
 17 18  1  0  0  0  0
 20 21  1  0  0  0  0
 20 19  1  0  0  0  0
 21 22  2  0  0  0  0
 23 21  1  0  0  0  0
 24 26  1  0  0  0  0
 24 25  1  0  0  0  0
 25 23  2  0  0  0  0
 26 25  1  0  0  0  0
 27  1  1  0  0  0  0
 27 29  1  0  0  0  0
 28 27  2  0  0  0  0
 29 30  2  0  0  0  0
 31 34  1  0  0  0  0
 32 31  2  0  0  0  0
 33 34  2  0  0  0  0
 35 32  1  0  0  0  0
 35 36  2  0  0  0  0
 36 33  1  0  0  0  0
 37 38  1  0  0  0  0
 37 35  1  0  0  0  0
 38 29  1  6  0  0  0
 38 36  1  0  0  0  0
 40 39  1  6  0  0  0
 40 32  1  0  0  0  0
 41 40  1  0  0  0  0
 42 46  1  6  0  0  0
 42 41  1  0  0  0  0
 43 45  2  0  0  0  0
 43 42  1  0  0  0  0
 45 44  2  0  0  0  0
 47 46  1  0  0  0  0
M  END
>  <MODEL>
6

>  <REMARK>
 VINA RESULT:      -7.3      1.827      3.751
  Name = 
  17 active torsions:
  status: ('A' for Active; 'I' for Inactive)
    1  A    between atoms: C_1  and  C_17
    2  A    between atoms: C_1  and  C_23
    3  A    between atoms: C_1  and  N_25
    4  A    between atoms: C_5  and  C_46
    5  A    between atoms: C_7  and  C_19
    6  A    between atoms: N_8  and  C_37
    7  A    between atoms: C_9  and  C_34
    8  A    between atoms: N_11  and  C_34
    9  A    between atoms: N_11  and  C_46
   10  A    between atoms: N_12  and  C_18
   11  A    between atoms: C_13  and  C_35
   12  A    between atoms: C_18  and  C_19
   13  A    between atoms: C_19  and  N_38
   14  A    between atoms: C_23  and  C_28
   15  A    between atoms: C_28  and  C_40
   16  A    between atoms: C_29  and  C_46
   17  A    between atoms: N_38  and  C_47
                            x       y       z     vdW  Elec       q    Type
                         _______ _______ _______ _____ _____    ______ ____

>  <TORSDO>
F 17

$$$$
=
 OpenBabel10222420233D

 47 51  0  0  1  0  0  0  0  0999 V2000
  186.9820  178.2660  140.7020 C   0  0  2  0  0  3  0  0  0  0  0  0
  187.9900  177.5120  142.7900 C   0  0  0  0  0  0  0  0  0  0  0  0
  187.9810  176.6790  143.7960 C   0  0  0  0  0  3  0  0  0  0  0  0
  188.0060  178.3460  141.7860 C   0  0  0  0  0  3  0  0  0  0  0  0
  187.3920  177.9360  147.2960 C   0  0  0  0  0  3  0  0  0  0  0  0
  189.7630  177.5460  147.0270 C   0  0  0  0  0  3  0  0  0  0  0  0
  188.6870  177.9520  147.8200 C   0  0  0  0  0  3  0  0  0  0  0  0
  187.1730  177.5160  145.9790 C   0  0  0  0  0  3  0  0  0  0  0  0
  188.2480  177.1080  145.1800 C   0  0  0  0  0  0  0  0  0  0  0  0
  189.5470  177.1250  145.7110 C   0  0  0  0  0  3  0  0  0  0  0  0
  187.4910  178.8700  139.4730 N   0  0  0  0  0  0  0  0  0  0  0  0
  188.8050  178.4520  139.3310 O   0  0  0  0  0  0  0  0  0  0  0  0
  187.8770  177.7960  138.5880 C   0  0  2  0  0  3  0  0  0  0  0  0
  187.9160  178.2760  137.2150 N   0  0  0  0  0  2  0  0  0  0  0  0
  188.4650  177.2210  136.3680 C   0  0  2  0  0  3  0  0  0  0  0  0
  187.0830  175.9900  134.7390 N   0  0  0  0  0  1  0  0  0  0  0  0
  187.8270  177.2180  134.9750 C   0  0  1  0  0  3  0  0  0  0  0  0
  186.9870  178.3170  134.8220 O   0  0  0  0  0  1  0  0  0  0  0  0
  188.2760  175.8790  137.0500 C   0  0  0  0  0  2  0  0  0  0  0  0
  189.4160  175.0140  136.7780 N   0  0  0  0  0  2  0  0  0  0  0  0
  190.5370  174.9380  137.6650 C   0  0  0  0  0  0  0  0  0  0  0  0
  190.5550  175.6280  138.7250 O   0  0  0  0  0  0  0  0  0  0  0  0
  191.6290  174.0710  137.3390 N   0  0  0  0  0  0  0  0  0  0  0  0
  194.3560  174.0970  137.4520 C   0  0  0  0  0  2  0  0  0  0  0  0
  192.8660  174.4010  137.5250 C   0  0  0  0  0  0  0  0  0  0  0  0
  193.9570  175.3630  137.9740 C   0  0  0  0  0  2  0  0  0  0  0  0
  185.7040  178.9260  141.1470 C   0  0  0  0  0  0  0  0  0  0  0  0
  185.6630  179.4080  142.3860 C   0  0  0  0  0  2  0  0  0  0  0  0
  184.5400  179.0830  140.2380 C   0  0  0  0  0  0  0  0  0  0  0  0
  184.6750  179.7300  139.1620 O   0  0  0  0  0  0  0  0  0  0  0  0
  180.3420  178.3320  137.6970 N   0  0  0  0  0  0  0  0  0  0  0  0
  181.0520  177.2860  138.2300 C   0  0  0  0  0  0  0  0  0  0  0  0
  181.4520  179.9970  139.1080 C   0  0  0  0  0  3  0  0  0  0  0  0
  180.5180  179.6410  138.1020 C   0  0  0  0  0  3  0  0  0  0  0  0
  181.9700  177.6030  139.2050 C   0  0  0  0  0  0  0  0  0  0  0  0
  182.1580  178.9350  139.6330 C   0  0  0  0  0  0  0  0  0  0  0  0
  183.0140  177.1280  140.1560 C   0  0  0  0  0  2  0  0  0  0  0  0
  183.1970  178.4970  140.6100 C   0  0  1  0  0  3  0  0  0  0  0  0
  180.9280  175.0240  138.9050 O   0  0  0  0  0  1  0  0  0  0  0  0
  180.8030  175.8770  137.8090 C   0  0  2  0  0  3  0  0  0  0  0  0
  181.7700  175.5000  136.7800 N   0  0  0  0  0  2  0  0  0  0  0  0
  182.5890  174.3600  137.2060 C   0  0  2  0  0  3  0  0  0  0  0  0
  184.0310  174.7470  137.3810 C   0  0  0  0  0  3  0  0  0  0  0  0
  184.8170  177.1380  137.0190 O   0  0  0  0  0  0  0  0  0  0  0  0
  184.4410  175.9730  137.1970 C   0  0  0  0  0  0  0  0  0  0  0  0
  182.4100  173.1620  136.2750 C   0  0  0  0  0  2  0  0  0  0  0  0
  183.4390  171.7760  136.8530 S   0  0  0  0  0  1  0  0  0  0  0  0
  1 27  1  0  0  0  0
  1  4  1  1  0  0  0
  2  3  2  0  0  0  0
  3  9  1  0  0  0  0
  4  2  2  0  0  0  0
  5  7  1  0  0  0  0
  6  7  2  0  0  0  0
  8  5  2  0  0  0  0
  9 10  2  0  0  0  0
  9  8  1  0  0  0  0
 10  6  1  0  0  0  0
 11  1  1  0  0  0  0
 12 11  1  0  0  0  0
 13 14  1  6  0  0  0
 13 12  1  0  0  0  0
 13 11  1  0  0  0  0
 15 19  1  1  0  0  0
 15 14  1  0  0  0  0
 17 16  1  1  0  0  0
 17 15  1  0  0  0  0
 18 17  1  0  0  0  0
 20 19  1  0  0  0  0
 20 21  1  0  0  0  0
 21 22  2  0  0  0  0
 23 25  2  0  0  0  0
 23 21  1  0  0  0  0
 24 25  1  0  0  0  0
 24 26  1  0  0  0  0
 25 26  1  0  0  0  0
 27 28  2  0  0  0  0
 29 27  1  0  0  0  0
 30 29  2  0  0  0  0
 31 34  2  0  0  0  0
 31 32  1  0  0  0  0
 32 35  2  0  0  0  0
 33 36  2  0  0  0  0
 34 33  1  0  0  0  0
 35 36  1  0  0  0  0
 35 37  1  0  0  0  0
 36 38  1  0  0  0  0
 37 38  1  0  0  0  0
 38 29  1  6  0  0  0
 40 32  1  0  0  0  0
 40 39  1  1  0  0  0
 41 42  1  0  0  0  0
 41 40  1  0  0  0  0
 42 46  1  6  0  0  0
 42 43  1  0  0  0  0
 44 45  2  0  0  0  0
 45 43  2  0  0  0  0
 46 47  1  0  0  0  0
M  END
>  <MODEL>
7

>  <REMARK>
 VINA RESULT:      -7.3      2.756      4.771
  Name = 
  17 active torsions:
  status: ('A' for Active; 'I' for Inactive)
    1  A    between atoms: C_1  and  C_17
    2  A    between atoms: C_1  and  C_23
    3  A    between atoms: C_1  and  N_25
    4  A    between atoms: C_5  and  C_46
    5  A    between atoms: C_7  and  C_19
    6  A    between atoms: N_8  and  C_37
    7  A    between atoms: C_9  and  C_34
    8  A    between atoms: N_11  and  C_34
    9  A    between atoms: N_11  and  C_46
   10  A    between atoms: N_12  and  C_18
   11  A    between atoms: C_13  and  C_35
   12  A    between atoms: C_18  and  C_19
   13  A    between atoms: C_19  and  N_38
   14  A    between atoms: C_23  and  C_28
   15  A    between atoms: C_28  and  C_40
   16  A    between atoms: C_29  and  C_46
   17  A    between atoms: N_38  and  C_47
                            x       y       z     vdW  Elec       q    Type
                         _______ _______ _______ _____ _____    ______ ____

>  <TORSDO>
F 17

$$$$
=
 OpenBabel10222420233D

 47 51  0  0  1  0  0  0  0  0999 V2000
  184.5440  178.1900  141.8550 C   0  0  2  0  0  3  0  0  0  0  0  0
  186.3560  178.1340  143.4840 C   0  0  0  0  0  0  0  0  0  0  0  0
  187.2980  177.4540  144.0820 C   0  0  0  0  0  3  0  0  0  0  0  0
  185.4190  178.8200  142.8890 C   0  0  0  0  0  3  0  0  0  0  0  0
  186.8290  178.3130  147.7180 C   0  0  0  0  0  3  0  0  0  0  0  0
  189.0000  177.2800  147.4650 C   0  0  0  0  0  3  0  0  0  0  0  0
  188.0290  177.8680  148.2780 C   0  0  0  0  0  3  0  0  0  0  0  0
  186.6010  178.1710  146.3440 C   0  0  0  0  0  3  0  0  0  0  0  0
  187.5700  177.5810  145.5250 C   0  0  0  0  0  0  0  0  0  0  0  0
  188.7740  177.1360  146.0930 C   0  0  0  0  0  3  0  0  0  0  0  0
  184.9930  178.5560  140.5140 N   0  0  0  0  0  0  0  0  0  0  0  0
  185.6810  179.7540  140.6300 O   0  0  0  0  0  0  0  0  0  0  0  0
  186.4350  178.6280  140.5430 C   0  0  2  0  0  3  0  0  0  0  0  0
  186.9650  178.4930  139.1940 N   0  0  0  0  0  2  0  0  0  0  0  0
  188.4210  178.4300  139.2700 C   0  0  2  0  0  3  0  0  0  0  0  0
  189.7190  177.8750  137.2480 N   0  0  0  0  0  1  0  0  0  0  0  0
  189.0810  178.9520  137.9900 C   0  0  1  0  0  3  0  0  0  0  0  0
  188.1430  179.5910  137.1830 O   0  0  0  0  0  1  0  0  0  0  0  0
  188.8500  177.0030  139.5530 C   0  0  0  0  0  2  0  0  0  0  0  0
  189.5110  176.9250  140.8490 N   0  0  0  0  0  2  0  0  0  0  0  0
  190.9200  177.1280  140.9920 C   0  0  0  0  0  0  0  0  0  0  0  0
  191.6300  177.3910  139.9780 O   0  0  0  0  0  0  0  0  0  0  0  0
  191.5120  177.0350  142.2930 N   0  0  0  0  0  0  0  0  0  0  0  0
  191.6730  178.5290  144.5710 C   0  0  0  0  0  2  0  0  0  0  0  0
  191.3930  177.9630  143.1860 C   0  0  0  0  0  0  0  0  0  0  0  0
  190.8840  179.3110  143.6770 C   0  0  0  0  0  2  0  0  0  0  0  0
  183.1090  178.5890  142.0790 C   0  0  0  0  0  0  0  0  0  0  0  0
  182.7710  179.0010  143.2980 C   0  0  0  0  0  2  0  0  0  0  0  0
  182.1070  178.5750  140.9830 C   0  0  0  0  0  0  0  0  0  0  0  0
  181.8070  179.6560  140.4020 O   0  0  0  0  0  0  0  0  0  0  0  0
  180.1730  176.9330  136.7160 N   0  0  0  0  0  0  0  0  0  0  0  0
  181.2390  176.3030  137.3070 C   0  0  0  0  0  0  0  0  0  0  0  0
  179.5540  178.1270  138.7620 C   0  0  0  0  0  3  0  0  0  0  0  0
  179.3520  177.8140  137.3940 C   0  0  0  0  0  3  0  0  0  0  0  0
  181.4620  176.5940  138.6330 C   0  0  0  0  0  0  0  0  0  0  0  0
  180.6300  177.4870  139.3420 C   0  0  0  0  0  0  0  0  0  0  0  0
  182.2970  176.3770  139.8480 C   0  0  0  0  0  2  0  0  0  0  0  0
  181.4310  177.2840  140.5830 C   0  0  1  0  0  3  0  0  0  0  0  0
  181.2660  174.5280  135.7460 O   0  0  0  0  0  1  0  0  0  0  0  0
  182.0750  175.3180  136.5620 C   0  0  2  0  0  3  0  0  0  0  0  0
  182.7890  174.4710  137.5160 N   0  0  0  0  0  2  0  0  0  0  0  0
  183.8790  173.7340  136.8660 C   0  0  2  0  0  3  0  0  0  0  0  0
  183.7950  172.2590  137.1460 C   0  0  0  0  0  3  0  0  0  0  0  0
  181.9650  170.8170  136.1260 O   0  0  0  0  0  0  0  0  0  0  0  0
  182.8580  171.5130  136.6250 C   0  0  0  0  0  0  0  0  0  0  0  0
  185.2430  174.3230  137.2180 C   0  0  0  0  0  2  0  0  0  0  0  0
  186.5000  173.0060  137.2180 S   0  0  0  0  0  1  0  0  0  0  0  0
  1 27  1  0  0  0  0
  1  4  1  1  0  0  0
  2  3  2  0  0  0  0
  3  9  1  0  0  0  0
  4  2  2  0  0  0  0
  5  7  1  0  0  0  0
  6  7  2  0  0  0  0
  8  5  2  0  0  0  0
  9 10  2  0  0  0  0
  9  8  1  0  0  0  0
 10  6  1  0  0  0  0
 11 13  1  0  0  0  0
 11 12  1  0  0  0  0
 11  1  1  0  0  0  0
 13 14  1  6  0  0  0
 13 12  1  0  0  0  0
 14 15  1  0  0  0  0
 15 19  1  6  0  0  0
 16 17  1  0  0  0  0
 17 18  1  6  0  0  0
 17 15  1  0  0  0  0
 19 20  1  0  0  0  0
 20 21  1  0  0  0  0
 21 23  1  0  0  0  0
 22 21  2  0  0  0  0
 23 25  2  0  0  0  0
 25 26  1  0  0  0  0
 25 24  1  0  0  0  0
 26 24  1  0  0  0  0
 27 28  2  0  0  0  0
 29 27  1  0  0  0  0
 30 29  2  0  0  0  0
 31 32  2  0  0  0  0
 31 34  1  0  0  0  0
 32 35  1  0  0  0  0
 33 36  1  0  0  0  0
 34 33  2  0  0  0  0
 35 36  2  0  0  0  0
 35 37  1  0  0  0  0
 36 38  1  0  0  0  0
 37 38  1  0  0  0  0
 38 29  1  6  0  0  0
 40 39  1  6  0  0  0
 40 32  1  0  0  0  0
 40 41  1  0  0  0  0
 42 43  1  1  0  0  0
 42 46  1  0  0  0  0
 42 41  1  0  0  0  0
 44 45  2  0  0  0  0
 45 43  2  0  0  0  0
 46 47  1  0  0  0  0
M  END
>  <MODEL>
8

>  <REMARK>
 VINA RESULT:      -7.2      3.096      6.015
  Name = 
  17 active torsions:
  status: ('A' for Active; 'I' for Inactive)
    1  A    between atoms: C_1  and  C_17
    2  A    between atoms: C_1  and  C_23
    3  A    between atoms: C_1  and  N_25
    4  A    between atoms: C_5  and  C_46
    5  A    between atoms: C_7  and  C_19
    6  A    between atoms: N_8  and  C_37
    7  A    between atoms: C_9  and  C_34
    8  A    between atoms: N_11  and  C_34
    9  A    between atoms: N_11  and  C_46
   10  A    between atoms: N_12  and  C_18
   11  A    between atoms: C_13  and  C_35
   12  A    between atoms: C_18  and  C_19
   13  A    between atoms: C_19  and  N_38
   14  A    between atoms: C_23  and  C_28
   15  A    between atoms: C_28  and  C_40
   16  A    between atoms: C_29  and  C_46
   17  A    between atoms: N_38  and  C_47
                            x       y       z     vdW  Elec       q    Type
                         _______ _______ _______ _____ _____    ______ ____

>  <TORSDO>
F 17

$$$$
=
 OpenBabel10222420233D

 47 51  0  0  1  0  0  0  0  0999 V2000
  185.6100  178.2400  144.5850 C   0  0  2  0  0  3  0  0  0  0  0  0
  187.6700  177.8900  145.8390 C   0  0  0  0  0  0  0  0  0  0  0  0
  188.8750  178.2960  146.1420 C   0  0  0  0  0  3  0  0  0  0  0  0
  186.4670  177.4800  145.5430 C   0  0  0  0  0  3  0  0  0  0  0  0
  191.5880  176.2160  147.7200 C   0  0  0  0  0  3  0  0  0  0  0  0
  191.6950  175.8970  145.3260 C   0  0  0  0  0  3  0  0  0  0  0  0
  192.1830  175.6210  146.6050 C   0  0  0  0  0  3  0  0  0  0  0  0
  190.5050  177.0880  147.5570 C   0  0  0  0  0  3  0  0  0  0  0  0
  190.0110  177.3680  146.2770 C   0  0  0  0  0  0  0  0  0  0  0  0
  190.6130  176.7680  145.1600 C   0  0  0  0  0  3  0  0  0  0  0  0
  184.1960  178.0030  144.8650 N   0  0  0  0  0  0  0  0  0  0  0  0
  183.7610  179.0460  145.6680 O   0  0  0  0  0  0  0  0  0  0  0  0
  183.4540  179.1290  144.3480 C   0  0  2  0  0  3  0  0  0  0  0  0
  182.0640  178.7540  144.1410 N   0  0  0  0  0  2  0  0  0  0  0  0
  181.5990  179.3560  142.8960 C   0  0  2  0  0  3  0  0  0  0  0  0
  179.4580  178.8690  144.0190 N   0  0  0  0  0  1  0  0  0  0  0  0
  180.0760  179.5290  142.8790 C   0  0  1  0  0  3  0  0  0  0  0  0
  179.7400  180.8800  142.8740 O   0  0  0  0  0  1  0  0  0  0  0  0
  182.0570  178.5070  141.7250 C   0  0  0  0  0  2  0  0  0  0  0  0
  181.5700  179.0750  140.4740 N   0  0  0  0  0  2  0  0  0  0  0  0
  182.4520  179.6950  139.5320 C   0  0  0  0  0  0  0  0  0  0  0  0
  183.6930  179.7550  139.7680 O   0  0  0  0  0  0  0  0  0  0  0  0
  181.9110  180.2390  138.3210 N   0  0  0  0  0  0  0  0  0  0  0  0
  180.9480  179.3360  135.9330 C   0  0  0  0  0  2  0  0  0  0  0  0
  181.5300  179.5010  137.3300 C   0  0  0  0  0  0  0  0  0  0  0  0
  181.3100  178.1570  136.6490 C   0  0  0  0  0  2  0  0  0  0  0  0
  185.9570  177.8630  143.1690 C   0  0  0  0  0  0  0  0  0  0  0  0
  184.9740  177.8800  142.2720 C   0  0  0  0  0  2  0  0  0  0  0  0
  187.3450  177.5290  142.7600 C   0  0  0  0  0  0  0  0  0  0  0  0
  187.8300  176.4040  143.0690 O   0  0  0  0  0  0  0  0  0  0  0  0
  190.6940  177.1110  139.1190 N   0  0  0  0  0  0  0  0  0  0  0  0
  189.5240  177.8050  138.9380 C   0  0  0  0  0  0  0  0  0  0  0  0
  190.5200  177.1620  141.5610 C   0  0  0  0  0  3  0  0  0  0  0  0
  191.1900  176.7900  140.3680 C   0  0  0  0  0  3  0  0  0  0  0  0
  188.8490  178.1740  140.0790 C   0  0  0  0  0  0  0  0  0  0  0  0
  189.3450  177.8580  141.3620 C   0  0  0  0  0  0  0  0  0  0  0  0
  187.6630  178.8460  140.6810 C   0  0  0  0  0  2  0  0  0  0  0  0
  188.1810  178.5360  142.0030 C   0  0  1  0  0  3  0  0  0  0  0  0
  189.0670  179.5690  137.4330 O   0  0  0  0  0  1  0  0  0  0  0  0
  189.0410  178.1820  137.5790 C   0  0  2  0  0  3  0  0  0  0  0  0
  187.6750  177.6940  137.3970 N   0  0  0  0  0  2  0  0  0  0  0  0
  187.6360  176.2310  137.3020 C   0  0  2  0  0  3  0  0  0  0  0  0
  188.7520  175.7000  136.4470 C   0  0  0  0  0  3  0  0  0  0  0  0
  190.1570  173.7120  137.1810 O   0  0  0  0  0  0  0  0  0  0  0  0
  189.4770  174.6790  136.8180 C   0  0  0  0  0  0  0  0  0  0  0  0
  186.2630  175.7340  136.8540 C   0  0  0  0  0  2  0  0  0  0  0  0
  185.1140  177.1400  136.7240 S   0  0  0  0  0  1  0  0  0  0  0  0
  1 11  1  0  0  0  0
  1  4  1  1  0  0  0
  2  3  2  0  0  0  0
  3  9  1  0  0  0  0
  4  2  2  0  0  0  0
  6  7  1  0  0  0  0
  7  5  2  0  0  0  0
  8  5  1  0  0  0  0
  9  8  2  0  0  0  0
 10  6  2  0  0  0  0
 10  9  1  0  0  0  0
 11 12  1  0  0  0  0
 13 14  1  1  0  0  0
 13 11  1  0  0  0  0
 13 12  1  0  0  0  0
 15 19  1  6  0  0  0
 15 14  1  0  0  0  0
 17 18  1  1  0  0  0
 17 15  1  0  0  0  0
 17 16  1  0  0  0  0
 20 19  1  0  0  0  0
 21 22  2  0  0  0  0
 21 20  1  0  0  0  0
 23 21  1  0  0  0  0
 24 26  1  0  0  0  0
 24 25  1  0  0  0  0
 25 23  2  0  0  0  0
 26 25  1  0  0  0  0
 27  1  1  0  0  0  0
 28 27  2  0  0  0  0
 29 30  2  0  0  0  0
 29 27  1  0  0  0  0
 31 34  1  0  0  0  0
 32 31  2  0  0  0  0
 32 35  1  0  0  0  0
 34 33  2  0  0  0  0
 35 37  1  0  0  0  0
 35 36  2  0  0  0  0
 36 33  1  0  0  0  0
 36 38  1  0  0  0  0
 37 38  1  0  0  0  0
 38 29  1  6  0  0  0
 40 39  1  1  0  0  0
 40 32  1  0  0  0  0
 41 40  1  0  0  0  0
 42 43  1  6  0  0  0
 42 41  1  0  0  0  0
 43 45  2  0  0  0  0
 45 44  2  0  0  0  0
 46 42  1  0  0  0  0
 47 46  1  0  0  0  0
M  END
>  <MODEL>
9

>  <REMARK>
 VINA RESULT:      -7.2      2.354      7.935
  Name = 
  17 active torsions:
  status: ('A' for Active; 'I' for Inactive)
    1  A    between atoms: C_1  and  C_17
    2  A    between atoms: C_1  and  C_23
    3  A    between atoms: C_1  and  N_25
    4  A    between atoms: C_5  and  C_46
    5  A    between atoms: C_7  and  C_19
    6  A    between atoms: N_8  and  C_37
    7  A    between atoms: C_9  and  C_34
    8  A    between atoms: N_11  and  C_34
    9  A    between atoms: N_11  and  C_46
   10  A    between atoms: N_12  and  C_18
   11  A    between atoms: C_13  and  C_35
   12  A    between atoms: C_18  and  C_19
   13  A    between atoms: C_19  and  N_38
   14  A    between atoms: C_23  and  C_28
   15  A    between atoms: C_28  and  C_40
   16  A    between atoms: C_29  and  C_46
   17  A    between atoms: N_38  and  C_47
                            x       y       z     vdW  Elec       q    Type
                         _______ _______ _______ _____ _____    ______ ____

>  <TORSDO>
F 17

$$$$
