=
 OpenBabel10222418143D

 45 48  0  0  1  0  0  0  0  0999 V2000
  188.3010  177.5870  140.9920 C   0  0  1  0  0  3  0  0  0  0  0  0
  189.0620  178.9830  139.1870 O   0  0  0  0  0  1  0  0  0  0  0  0
  189.4450  177.9240  140.0190 C   0  0  2  0  0  3  0  0  0  0  0  0
  191.0630  176.1210  139.6130 N   0  0  0  0  0  1  0  0  0  0  0  0
  189.8100  176.6990  139.1620 C   0  0  2  0  0  3  0  0  0  0  0  0
  189.9350  177.0770  137.6880 C   0  0  0  0  0  2  0  0  0  0  0  0
  189.1660  176.0940  136.8210 C   0  0  0  0  0  2  0  0  0  0  0  0
  184.8390  176.7750  137.7160 C   0  0  0  0  0  3  0  0  0  0  0  0
  185.3440  175.7910  136.7160 C   0  0  0  0  0  2  0  0  0  0  0  0
  187.4200  177.9160  136.4900 C   0  0  0  0  0  3  0  0  0  0  0  0
  185.2770  178.0350  137.7960 C   0  0  0  0  0  0  0  0  0  0  0  0
  184.6640  178.8700  138.6660 F   0  0  0  0  0  0  0  0  0  0  0  0
  186.8070  175.5420  136.8740 C   0  0  0  0  0  3  0  0  0  0  0  0
  187.7340  176.4940  136.7430 C   0  0  0  0  0  0  0  0  0  0  0  0
  186.3520  178.5850  136.9470 C   0  0  0  0  0  3  0  0  0  0  0  0
  188.8080  177.0130  142.2870 C   0  0  0  0  0  0  0  0  0  0  0  0
  188.7620  175.8040  142.4640 O   0  0  0  0  0  0  0  0  0  0  0  0
  188.7370  177.1300  146.9750 C   0  0  0  0  0  0  0  0  0  0  0  0
  192.1520  176.3250  147.5700 C   0  0  0  0  0  1  0  0  0  0  0  0
  190.5140  176.9120  145.7680 C   0  0  0  0  0  0  0  0  0  0  0  0
  189.2200  177.2220  145.7180 C   0  0  0  0  0  0  0  0  0  0  0  0
  186.6760  178.0450  146.1690 C   0  0  0  0  0  3  0  0  0  0  0  0
  187.4370  177.5360  147.2560 C   0  0  0  0  0  3  0  0  0  0  0  0
  189.3630  177.9120  143.3580 C   0  0  2  0  0  3  0  0  0  0  0  0
  189.7350  176.7610  147.8110 N   0  0  0  0  0  0  0  0  0  0  0  0
  190.8290  176.6320  147.0510 N   0  0  0  0  0  0  0  0  0  0  0  0
  190.8740  177.6410  143.5500 C   0  0  0  0  0  3  0  0  0  0  0  0
  191.3850  177.1730  144.6630 N   0  0  0  0  0  0  0  0  0  0  0  0
  188.5690  177.7640  144.6460 C   0  0  0  0  0  0  0  0  0  0  0  0
  187.2410  178.1730  144.8680 C   0  0  0  0  0  3  0  0  0  0  0  0
  187.4150  178.7940  141.2760 C   0  0  0  0  0  2  0  0  0  0  0  0
  186.0140  178.3360  141.5110 C   0  0  0  0  0  3  0  0  0  0  0  0
  185.1670  179.1090  142.1840 C   0  0  0  0  0  3  0  0  0  0  0  0
  183.7510  178.6860  142.4200 C   0  0  0  0  0  2  0  0  0  0  0  0
  183.3490  178.8880  143.8730 C   0  0  0  0  0  2  0  0  0  0  0  0
  181.8410  178.9740  143.9920 C   0  0  0  0  0  2  0  0  0  0  0  0
  181.2520  178.5990  142.7860 O   0  0  0  0  0  0  0  0  0  0  0  0
  180.1890  179.4910  142.6120 C   0  0  0  0  0  2  0  0  0  0  0  0
  179.6760  181.2280  141.0840 O   0  0  0  0  0  0  0  0  0  0  0  0
  180.9940  179.8990  138.8230 C   0  0  0  0  0  0  0  0  0  0  0  0
  181.6540  179.2190  137.9950 O   0  0  0  0  0  0  0  0  0  0  0  0
  180.2490  180.1200  141.2620 C   0  0  0  0  0  0  0  0  0  0  0  0
  180.9030  179.4470  140.1790 N   0  0  0  0  0  2  0  0  0  0  0  0
  180.3040  181.1340  138.3480 C   0  0  0  0  0  2  0  0  0  0  0  0
  181.3230  182.2190  138.0640 C   0  0  0  0  0  1  0  0  0  0  0  0
  1 31  1  1  0  0  0
  1 16  1  0  0  0  0
  3  2  1  6  0  0  0
  3  1  1  0  0  0  0
  5  4  1  1  0  0  0
  5  3  1  0  0  0  0
  6  5  1  0  0  0  0
  7  6  1  0  0  0  0
  8 11  2  0  0  0  0
  9 13  1  0  0  0  0
  9  8  1  0  0  0  0
 10 14  1  0  0  0  0
 10 15  2  0  0  0  0
 11 12  1  0  0  0  0
 14  7  1  0  0  0  0
 14 13  2  0  0  0  0
 15 11  1  0  0  0  0
 16 17  2  0  0  0  0
 18 23  1  0  0  0  0
 18 25  2  0  0  0  0
 20 26  1  0  0  0  0
 21 20  2  0  0  0  0
 21 18  1  0  0  0  0
 22 23  2  0  0  0  0
 24 16  1  6  0  0  0
 24 27  1  0  0  0  0
 24 29  1  0  0  0  0
 26 19  1  0  0  0  0
 26 25  1  0  0  0  0
 27 28  2  0  0  0  0
 28 20  1  0  0  0  0
 29 30  2  0  0  0  0
 29 21  1  0  0  0  0
 30 22  1  0  0  0  0
 31 32  1  0  0  0  0
 32 33  2  0  0  0  0
 33 34  1  0  0  0  0
 34 35  1  0  0  0  0
 35 36  1  0  0  0  0
 37 36  1  0  0  0  0
 38 37  1  0  0  0  0
 39 42  2  0  0  0  0
 40 43  1  0  0  0  0
 41 40  2  0  0  0  0
 42 38  1  0  0  0  0
 43 42  1  0  0  0  0
 44 40  1  0  0  0  0
 45 44  1  0  0  0  0
M  END
>  <MODEL>
1

>  <REMARK>
 VINA RESULT:      -7.9      0.000      0.000
  Name = 
  16 active torsions:
  status: ('A' for Active; 'I' for Inactive)
    1  A    between atoms: C_1  and  C_22
    2  A    between atoms: C_1  and  C_24
    3  A    between atoms: C_3  and  C_18
    4  A    between atoms: C_3  and  C_40
    5  A    between atoms: C_7  and  C_32
    6  A    between atoms: C_7  and  O_36
    7  A    between atoms: C_11  and  C_31
    8  A    between atoms: C_16  and  C_20
    9  A    between atoms: C_16  and  C_38
   10  A    between atoms: C_19  and  C_40
   11  A    between atoms: C_19  and  C_41
   12  A    between atoms: C_20  and  C_41
   13  A    between atoms: C_21  and  C_22
   14  A    between atoms: C_21  and  O_36
   15  A    between atoms: C_23  and  C_29
   16  A    between atoms: C_29  and  C_40
                            x       y       z     vdW  Elec       q    Type
                         _______ _______ _______ _____ _____    ______ ____

>  <TORSDO>
F 16

$$$$
=
 OpenBabel10222418143D

 45 48  0  0  1  0  0  0  0  0999 V2000
  189.6300  177.1730  140.4850 C   0  0  1  0  0  3  0  0  0  0  0  0
  191.9970  177.5080  140.7590 O   0  0  0  0  0  1  0  0  0  0  0  0
  191.0470  176.6250  140.2320 C   0  0  2  0  0  3  0  0  0  0  0  0
  190.8030  175.1400  138.2910 N   0  0  0  0  0  1  0  0  0  0  0  0
  191.2960  176.4350  138.7260 C   0  0  2  0  0  3  0  0  0  0  0  0
  192.7840  176.5410  138.3980 C   0  0  0  0  0  2  0  0  0  0  0  0
  193.0690  175.9400  137.0310 C   0  0  0  0  0  2  0  0  0  0  0  0
  197.3670  174.7070  137.0640 C   0  0  0  0  0  3  0  0  0  0  0  0
  196.4350  174.4690  135.9250 C   0  0  0  0  0  2  0  0  0  0  0  0
  194.5540  174.2520  138.2250 C   0  0  0  0  0  3  0  0  0  0  0  0
  197.0560  174.4430  138.3370 C   0  0  0  0  0  0  0  0  0  0  0  0
  198.0220  174.5890  139.2730 F   0  0  0  0  0  0  0  0  0  0  0  0
  195.1850  175.2760  136.0540 C   0  0  0  0  0  3  0  0  0  0  0  0
  194.3320  175.1520  137.0730 C   0  0  0  0  0  0  0  0  0  0  0  0
  195.7370  173.9440  138.7730 C   0  0  0  0  0  3  0  0  0  0  0  0
  189.4510  177.6490  141.9020 C   0  0  0  0  0  0  0  0  0  0  0  0
  189.7660  178.7940  142.1920 O   0  0  0  0  0  0  0  0  0  0  0  0
  189.5370  177.4240  146.5850 C   0  0  0  0  0  0  0  0  0  0  0  0
  186.1290  178.2370  147.2100 C   0  0  0  0  0  1  0  0  0  0  0  0
  187.7570  177.6810  145.3900 C   0  0  0  0  0  0  0  0  0  0  0  0
  189.0490  177.3640  145.3290 C   0  0  0  0  0  0  0  0  0  0  0  0
  191.5900  176.5160  145.7510 C   0  0  0  0  0  3  0  0  0  0  0  0
  190.8350  177.0050  146.8520 C   0  0  0  0  0  3  0  0  0  0  0  0
  188.8940  176.7290  142.9540 C   0  0  2  0  0  3  0  0  0  0  0  0
  188.5440  177.7810  147.4330 N   0  0  0  0  0  0  0  0  0  0  0  0
  187.4490  177.9330  146.6800 N   0  0  0  0  0  0  0  0  0  0  0  0
  187.3850  177.0040  143.1570 C   0  0  0  0  0  3  0  0  0  0  0  0
  186.8810  177.4500  144.2830 N   0  0  0  0  0  0  0  0  0  0  0  0
  189.6920  176.8430  144.2420 C   0  0  0  0  0  0  0  0  0  0  0  0
  191.0190  176.4210  144.4490 C   0  0  0  0  0  3  0  0  0  0  0  0
  189.2680  178.2930  139.5180 C   0  0  0  0  0  2  0  0  0  0  0  0
  187.9000  178.0510  138.9720 C   0  0  0  0  0  3  0  0  0  0  0  0
  187.6200  178.3790  137.7140 C   0  0  0  0  0  3  0  0  0  0  0  0
  186.2620  178.1320  137.1320 C   0  0  0  0  0  2  0  0  0  0  0  0
  185.2630  177.7390  138.2090 C   0  0  0  0  0  2  0  0  0  0  0  0
  184.3460  178.9040  138.5220 C   0  0  0  0  0  2  0  0  0  0  0  0
  184.8050  179.5740  139.6540 O   0  0  0  0  0  0  0  0  0  0  0  0
  184.8240  178.6050  140.6620 C   0  0  0  0  0  2  0  0  0  0  0  0
  182.5020  178.8560  141.0610 O   0  0  0  0  0  0  0  0  0  0  0  0
  182.8250  179.0890  143.9690 C   0  0  0  0  0  0  0  0  0  0  0  0
  183.1460  179.1060  145.1860 O   0  0  0  0  0  0  0  0  0  0  0  0
  183.6510  178.7680  141.5680 C   0  0  0  0  0  0  0  0  0  0  0  0
  183.8430  178.8770  142.9840 N   0  0  0  0  0  2  0  0  0  0  0  0
  181.3980  179.3270  143.6000 C   0  0  0  0  0  2  0  0  0  0  0  0
  180.5420  178.1710  144.0780 C   0  0  0  0  0  1  0  0  0  0  0  0
  1 31  1  6  0  0  0
  1 16  1  0  0  0  0
  3  1  1  0  0  0  0
  3  2  1  6  0  0  0
  5  4  1  1  0  0  0
  5  3  1  0  0  0  0
  6  5  1  0  0  0  0
  7 14  1  0  0  0  0
  7  6  1  0  0  0  0
  8 11  2  0  0  0  0
  9 13  1  0  0  0  0
  9  8  1  0  0  0  0
 10 15  2  0  0  0  0
 11 15  1  0  0  0  0
 11 12  1  0  0  0  0
 13 14  2  0  0  0  0
 14 10  1  0  0  0  0
 16 17  2  0  0  0  0
 18 23  1  0  0  0  0
 18 25  2  0  0  0  0
 20 26  1  0  0  0  0
 21 20  2  0  0  0  0
 21 18  1  0  0  0  0
 22 23  2  0  0  0  0
 24 16  1  6  0  0  0
 24 27  1  0  0  0  0
 24 29  1  0  0  0  0
 26 19  1  0  0  0  0
 26 25  1  0  0  0  0
 27 28  2  0  0  0  0
 28 20  1  0  0  0  0
 29 30  2  0  0  0  0
 29 21  1  0  0  0  0
 30 22  1  0  0  0  0
 32 31  1  0  0  0  0
 33 32  2  0  0  0  0
 34 33  1  0  0  0  0
 34 35  1  0  0  0  0
 35 36  1  0  0  0  0
 36 37  1  0  0  0  0
 37 38  1  0  0  0  0
 38 42  1  0  0  0  0
 39 42  2  0  0  0  0
 40 41  2  0  0  0  0
 42 43  1  0  0  0  0
 43 40  1  0  0  0  0
 44 40  1  0  0  0  0
 44 45  1  0  0  0  0
M  END
>  <MODEL>
2

>  <REMARK>
 VINA RESULT:      -7.7      3.811      5.899
  Name = 
  16 active torsions:
  status: ('A' for Active; 'I' for Inactive)
    1  A    between atoms: C_1  and  C_22
    2  A    between atoms: C_1  and  C_24
    3  A    between atoms: C_3  and  C_18
    4  A    between atoms: C_3  and  C_40
    5  A    between atoms: C_7  and  C_32
    6  A    between atoms: C_7  and  O_36
    7  A    between atoms: C_11  and  C_31
    8  A    between atoms: C_16  and  C_20
    9  A    between atoms: C_16  and  C_38
   10  A    between atoms: C_19  and  C_40
   11  A    between atoms: C_19  and  C_41
   12  A    between atoms: C_20  and  C_41
   13  A    between atoms: C_21  and  C_22
   14  A    between atoms: C_21  and  O_36
   15  A    between atoms: C_23  and  C_29
   16  A    between atoms: C_29  and  C_40
                            x       y       z     vdW  Elec       q    Type
                         _______ _______ _______ _____ _____    ______ ____

>  <TORSDO>
F 16

$$$$
=
 OpenBabel10222418143D

 45 48  0  0  1  0  0  0  0  0999 V2000
  187.8160  177.6670  141.3940 C   0  0  1  0  0  3  0  0  0  0  0  0
  188.4280  178.9340  139.4430 O   0  0  0  0  0  1  0  0  0  0  0  0
  188.9510  178.1280  140.4620 C   0  0  2  0  0  3  0  0  0  0  0  0
  191.1020  176.9980  140.1030 N   0  0  0  0  0  1  0  0  0  0  0  0
  189.6750  176.9200  139.8450 C   0  0  2  0  0  3  0  0  0  0  0  0
  189.4420  176.8490  138.3370 C   0  0  0  0  0  2  0  0  0  0  0  0
  190.0910  175.6030  137.7580 C   0  0  0  0  0  2  0  0  0  0  0  0
  187.2910  172.2080  136.9670 C   0  0  0  0  0  3  0  0  0  0  0  0
  188.4920  172.5140  136.1400 C   0  0  0  0  0  2  0  0  0  0  0  0
  187.6930  175.2590  136.9780 C   0  0  0  0  0  3  0  0  0  0  0  0
  186.4060  173.1340  137.3510 C   0  0  0  0  0  0  0  0  0  0  0  0
  185.2930  172.7220  138.0010 F   0  0  0  0  0  0  0  0  0  0  0  0
  189.4080  173.4730  136.8260 C   0  0  0  0  0  3  0  0  0  0  0  0
  189.0520  174.7110  137.1730 C   0  0  0  0  0  0  0  0  0  0  0  0
  186.5440  174.5730  137.0550 C   0  0  0  0  0  3  0  0  0  0  0  0
  188.3390  177.0600  142.6670 C   0  0  0  0  0  0  0  0  0  0  0  0
  188.1290  175.8770  142.8960 O   0  0  0  0  0  0  0  0  0  0  0  0
  189.0180  177.0420  147.3070 C   0  0  0  0  0  0  0  0  0  0  0  0
  192.4300  176.0280  147.3330 C   0  0  0  0  0  1  0  0  0  0  0  0
  190.5660  176.7600  145.8280 C   0  0  0  0  0  0  0  0  0  0  0  0
  189.3010  177.1430  145.9920 C   0  0  0  0  0  0  0  0  0  0  0  0
  186.9140  178.0940  146.8600 C   0  0  0  0  0  3  0  0  0  0  0  0
  187.8060  177.5110  147.8010 C   0  0  0  0  0  3  0  0  0  0  0  0
  189.1100  177.8940  143.6540 C   0  0  2  0  0  3  0  0  0  0  0  0
  190.1120  176.5920  147.9660 N   0  0  0  0  0  0  0  0  0  0  0  0
  191.0620  176.4250  147.0380 N   0  0  0  0  0  0  0  0  0  0  0  0
  190.6130  177.5330  143.5970 C   0  0  0  0  0  3  0  0  0  0  0  0
  191.2650  177.0040  144.6040 N   0  0  0  0  0  0  0  0  0  0  0  0
  188.5230  177.7520  145.0490 C   0  0  0  0  0  0  0  0  0  0  0  0
  187.2740  178.2280  145.4880 C   0  0  0  0  0  3  0  0  0  0  0  0
  186.8490  178.7970  141.7230 C   0  0  0  0  0  2  0  0  0  0  0  0
  185.6510  178.2380  142.4140 C   0  0  0  0  0  3  0  0  0  0  0  0
  184.8930  179.0260  143.1710 C   0  0  0  0  0  3  0  0  0  0  0  0
  183.6740  178.4980  143.8620 C   0  0  0  0  0  2  0  0  0  0  0  0
  182.4500  179.3420  143.5430 C   0  0  0  0  0  2  0  0  0  0  0  0
  181.5320  178.5970  142.5960 C   0  0  0  0  0  2  0  0  0  0  0  0
  181.5290  179.2250  141.3520 O   0  0  0  0  0  0  0  0  0  0  0  0
  180.6530  178.4690  140.5690 C   0  0  0  0  0  2  0  0  0  0  0  0
  180.9800  176.2290  139.8700 O   0  0  0  0  0  0  0  0  0  0  0  0
  183.4330  176.8420  138.3790 C   0  0  0  0  0  0  0  0  0  0  0  0
  184.4210  177.2990  137.7470 O   0  0  0  0  0  0  0  0  0  0  0  0
  181.3950  177.4160  139.8180 C   0  0  0  0  0  0  0  0  0  0  0  0
  182.5880  177.7490  139.0990 N   0  0  0  0  0  2  0  0  0  0  0  0
  183.2020  175.3680  138.3830 C   0  0  0  0  0  2  0  0  0  0  0  0
  182.7890  174.9070  136.9990 C   0  0  0  0  0  1  0  0  0  0  0  0
  1 31  1  1  0  0  0
  1 16  1  0  0  0  0
  3  2  1  6  0  0  0
  3  1  1  0  0  0  0
  5  4  1  6  0  0  0
  5  3  1  0  0  0  0
  6  5  1  0  0  0  0
  7  6  1  0  0  0  0
  8 11  2  0  0  0  0
  9 13  1  0  0  0  0
  9  8  1  0  0  0  0
 10 15  2  0  0  0  0
 10 14  1  0  0  0  0
 11 12  1  0  0  0  0
 13 14  2  0  0  0  0
 14  7  1  0  0  0  0
 15 11  1  0  0  0  0
 16 17  2  0  0  0  0
 18 23  1  0  0  0  0
 18 25  2  0  0  0  0
 20 21  2  0  0  0  0
 20 26  1  0  0  0  0
 21 18  1  0  0  0  0
 22 23  2  0  0  0  0
 24 16  1  6  0  0  0
 24 29  1  0  0  0  0
 26 19  1  0  0  0  0
 26 25  1  0  0  0  0
 27 24  1  0  0  0  0
 27 28  2  0  0  0  0
 28 20  1  0  0  0  0
 29 30  2  0  0  0  0
 29 21  1  0  0  0  0
 30 22  1  0  0  0  0
 31 32  1  0  0  0  0
 32 33  2  0  0  0  0
 33 34  1  0  0  0  0
 35 34  1  0  0  0  0
 36 35  1  0  0  0  0
 37 36  1  0  0  0  0
 38 37  1  0  0  0  0
 40 44  1  0  0  0  0
 40 43  1  0  0  0  0
 41 40  2  0  0  0  0
 42 39  2  0  0  0  0
 42 38  1  0  0  0  0
 43 42  1  0  0  0  0
 45 44  1  0  0  0  0
M  END
>  <MODEL>
3

>  <REMARK>
 VINA RESULT:      -7.6      1.879      2.782
  Name = 
  16 active torsions:
  status: ('A' for Active; 'I' for Inactive)
    1  A    between atoms: C_1  and  C_22
    2  A    between atoms: C_1  and  C_24
    3  A    between atoms: C_3  and  C_18
    4  A    between atoms: C_3  and  C_40
    5  A    between atoms: C_7  and  C_32
    6  A    between atoms: C_7  and  O_36
    7  A    between atoms: C_11  and  C_31
    8  A    between atoms: C_16  and  C_20
    9  A    between atoms: C_16  and  C_38
   10  A    between atoms: C_19  and  C_40
   11  A    between atoms: C_19  and  C_41
   12  A    between atoms: C_20  and  C_41
   13  A    between atoms: C_21  and  C_22
   14  A    between atoms: C_21  and  O_36
   15  A    between atoms: C_23  and  C_29
   16  A    between atoms: C_29  and  C_40
                            x       y       z     vdW  Elec       q    Type
                         _______ _______ _______ _____ _____    ______ ____

>  <TORSDO>
F 16

$$$$
=
 OpenBabel10222418143D

 45 48  0  0  1  0  0  0  0  0999 V2000
  186.4560  178.0350  138.1140 C   0  0  1  0  0  3  0  0  0  0  0  0
  184.9690  179.7140  138.9840 O   0  0  0  0  0  1  0  0  0  0  0  0
  185.0830  178.7230  138.0020 C   0  0  2  0  0  3  0  0  0  0  0  0
  183.1820  177.5920  136.9350 N   0  0  0  0  0  1  0  0  0  0  0  0
  183.9470  177.6990  138.1650 C   0  0  2  0  0  3  0  0  0  0  0  0
  183.0090  178.0960  139.3030 C   0  0  0  0  0  2  0  0  0  0  0  0
  183.2950  177.2620  140.5410 C   0  0  0  0  0  2  0  0  0  0  0  0
  182.7920  178.9900  144.6340 C   0  0  0  0  0  3  0  0  0  0  0  0
  182.1440  179.5360  143.4080 C   0  0  0  0  0  2  0  0  0  0  0  0
  184.6940  178.5060  142.2650 C   0  0  0  0  0  3  0  0  0  0  0  0
  184.0850  178.6580  144.6980 C   0  0  0  0  0  0  0  0  0  0  0  0
  184.5890  178.2820  145.8950 F   0  0  0  0  0  0  0  0  0  0  0  0
  182.2140  178.5740  142.2690 C   0  0  0  0  0  3  0  0  0  0  0  0
  183.3610  178.1390  141.7430 C   0  0  0  0  0  0  0  0  0  0  0  0
  185.0080  178.7310  143.5480 C   0  0  0  0  0  3  0  0  0  0  0  0
  187.3550  178.3680  136.9550 C   0  0  0  0  0  0  0  0  0  0  0  0
  187.8340  179.4900  136.8740 O   0  0  0  0  0  0  0  0  0  0  0  0
  189.5420  174.2230  136.8150 C   0  0  0  0  0  0  0  0  0  0  0  0
  186.6970  172.1470  136.2980 C   0  0  0  0  0  1  0  0  0  0  0  0
  187.4510  174.5350  136.3770 C   0  0  0  0  0  0  0  0  0  0  0  0
  188.6090  175.1650  136.5670 C   0  0  0  0  0  0  0  0  0  0  0  0
  191.1990  175.9500  136.7340 C   0  0  0  0  0  3  0  0  0  0  0  0
  190.8840  174.5760  136.9130 C   0  0  0  0  0  3  0  0  0  0  0  0
  187.6610  177.3390  135.9020 C   0  0  2  0  0  3  0  0  0  0  0  0
  188.9620  173.0000  136.7800 N   0  0  0  0  0  0  0  0  0  0  0  0
  187.6700  173.2090  136.5060 N   0  0  0  0  0  0  0  0  0  0  0  0
  186.3990  176.4990  135.5940 C   0  0  0  0  0  3  0  0  0  0  0  0
  186.3170  175.2110  135.8270 N   0  0  0  0  0  0  0  0  0  0  0  0
  188.8490  176.4860  136.3160 C   0  0  0  0  0  0  0  0  0  0  0  0
  190.1880  176.9040  136.4230 C   0  0  0  0  0  3  0  0  0  0  0  0
  187.1600  178.3700  139.4240 C   0  0  0  0  0  2  0  0  0  0  0  0
  188.2410  177.3720  139.6740 C   0  0  0  0  0  3  0  0  0  0  0  0
  189.4900  177.7830  139.8750 C   0  0  0  0  0  3  0  0  0  0  0  0
  190.5930  176.8070  140.1470 C   0  0  0  0  0  2  0  0  0  0  0  0
  191.6850  177.4330  141.0000 C   0  0  0  0  0  2  0  0  0  0  0  0
  191.1190  177.8780  142.3330 C   0  0  0  0  0  2  0  0  0  0  0  0
  192.0450  177.6310  143.3440 O   0  0  0  0  0  0  0  0  0  0  0  0
  191.5540  176.5060  144.0140 C   0  0  0  0  0  2  0  0  0  0  0  0
  191.6070  177.1170  146.3020 O   0  0  0  0  0  0  0  0  0  0  0  0
  188.6860  177.2990  146.5270 C   0  0  0  0  0  0  0  0  0  0  0  0
  187.4350  177.3880  146.4190 O   0  0  0  0  0  0  0  0  0  0  0  0
  190.8910  176.9030  145.2890 C   0  0  0  0  0  0  0  0  0  0  0  0
  189.4630  176.9850  145.3640 N   0  0  0  0  0  2  0  0  0  0  0  0
  189.3070  177.4900  147.8700 C   0  0  0  0  0  2  0  0  0  0  0  0
  188.3330  178.1940  148.7940 C   0  0  0  0  0  1  0  0  0  0  0  0
  1 31  1  1  0  0  0
  3  1  1  0  0  0  0
  3  5  1  0  0  0  0
  3  2  1  1  0  0  0
  5  4  1  6  0  0  0
  5  6  1  0  0  0  0
  6  7  1  0  0  0  0
  7 14  1  0  0  0  0
  8 11  2  0  0  0  0
  9  8  1  0  0  0  0
 10 15  2  0  0  0  0
 11 12  1  0  0  0  0
 13  9  1  0  0  0  0
 14 10  1  0  0  0  0
 14 13  2  0  0  0  0
 15 11  1  0  0  0  0
 16  1  1  0  0  0  0
 17 16  2  0  0  0  0
 18 23  1  0  0  0  0
 19 26  1  0  0  0  0
 20 26  1  0  0  0  0
 20 21  2  0  0  0  0
 21 18  1  0  0  0  0
 22 23  2  0  0  0  0
 24 29  1  0  0  0  0
 24 16  1  1  0  0  0
 25 18  2  0  0  0  0
 26 25  1  0  0  0  0
 27 28  2  0  0  0  0
 27 24  1  0  0  0  0
 28 20  1  0  0  0  0
 29 30  2  0  0  0  0
 29 21  1  0  0  0  0
 30 22  1  0  0  0  0
 31 32  1  0  0  0  0
 32 33  2  0  0  0  0
 33 34  1  0  0  0  0
 34 35  1  0  0  0  0
 35 36  1  0  0  0  0
 36 37  1  0  0  0  0
 37 38  1  0  0  0  0
 38 42  1  0  0  0  0
 40 44  1  0  0  0  0
 41 40  2  0  0  0  0
 42 43  1  0  0  0  0
 42 39  2  0  0  0  0
 43 40  1  0  0  0  0
 44 45  1  0  0  0  0
M  END
>  <MODEL>
4

>  <REMARK>
 VINA RESULT:      -7.5      2.696      9.076
  Name = 
  16 active torsions:
  status: ('A' for Active; 'I' for Inactive)
    1  A    between atoms: C_1  and  C_22
    2  A    between atoms: C_1  and  C_24
    3  A    between atoms: C_3  and  C_18
    4  A    between atoms: C_3  and  C_40
    5  A    between atoms: C_7  and  C_32
    6  A    between atoms: C_7  and  O_36
    7  A    between atoms: C_11  and  C_31
    8  A    between atoms: C_16  and  C_20
    9  A    between atoms: C_16  and  C_38
   10  A    between atoms: C_19  and  C_40
   11  A    between atoms: C_19  and  C_41
   12  A    between atoms: C_20  and  C_41
   13  A    between atoms: C_21  and  C_22
   14  A    between atoms: C_21  and  O_36
   15  A    between atoms: C_23  and  C_29
   16  A    between atoms: C_29  and  C_40
                            x       y       z     vdW  Elec       q    Type
                         _______ _______ _______ _____ _____    ______ ____

>  <TORSDO>
F 16

$$$$
=
 OpenBabel10222418143D

 45 48  0  0  1  0  0  0  0  0999 V2000
  185.2560  177.2590  137.9440 C   0  0  1  0  0  3  0  0  0  0  0  0
  183.9470  177.5900  135.9530 O   0  0  0  0  0  1  0  0  0  0  0  0
  184.4190  176.6050  136.8290 C   0  0  2  0  0  3  0  0  0  0  0  0
  183.2930  174.4320  137.0300 N   0  0  0  0  0  1  0  0  0  0  0  0
  183.2330  175.8280  137.4240 C   0  0  2  0  0  3  0  0  0  0  0  0
  181.9020  176.4210  136.9640 C   0  0  0  0  0  2  0  0  0  0  0  0
  180.9740  176.6240  138.1500 C   0  0  0  0  0  2  0  0  0  0  0  0
  180.5040  180.8500  139.5320 C   0  0  0  0  0  3  0  0  0  0  0  0
  179.4090  179.8390  139.5410 C   0  0  0  0  0  2  0  0  0  0  0  0
  180.9450  178.9620  137.1440 C   0  0  0  0  0  3  0  0  0  0  0  0
  181.3100  181.0540  138.4860 C   0  0  0  0  0  0  0  0  0  0  0  0
  182.1920  182.0780  138.5500 F   0  0  0  0  0  0  0  0  0  0  0  0
  179.9330  178.4540  139.3510 C   0  0  0  0  0  3  0  0  0  0  0  0
  180.5950  178.0600  138.2620 C   0  0  0  0  0  0  0  0  0  0  0  0
  181.2550  180.2620  137.2410 C   0  0  0  0  0  3  0  0  0  0  0  0
  186.7210  176.9430  137.8130 C   0  0  0  0  0  0  0  0  0  0  0  0
  187.0610  175.8330  137.4300 O   0  0  0  0  0  0  0  0  0  0  0  0
  189.9860  177.4910  141.1350 C   0  0  0  0  0  0  0  0  0  0  0  0
  192.8750  176.9970  139.1150 C   0  0  0  0  0  1  0  0  0  0  0  0
  190.3890  177.2920  139.0230 C   0  0  0  0  0  0  0  0  0  0  0  0
  189.4190  177.5010  139.9110 C   0  0  0  0  0  0  0  0  0  0  0  0
  187.8750  178.1730  142.0360 C   0  0  0  0  0  3  0  0  0  0  0  0
  189.2350  177.8250  142.2570 C   0  0  0  0  0  3  0  0  0  0  0  0
  187.7610  177.9760  138.1520 C   0  0  2  0  0  3  0  0  0  0  0  0
  191.3160  177.2750  141.0080 N   0  0  0  0  0  0  0  0  0  0  0  0
  191.5510  177.1570  139.6970 N   0  0  0  0  0  0  0  0  0  0  0  0
  188.9780  177.8370  137.2080 C   0  0  0  0  0  3  0  0  0  0  0  0
  190.1780  177.5130  137.6250 N   0  0  0  0  0  0  0  0  0  0  0  0
  188.1420  177.8910  139.6210 C   0  0  0  0  0  0  0  0  0  0  0  0
  187.3290  178.2200  140.7210 C   0  0  0  0  0  3  0  0  0  0  0  0
  185.0580  178.7690  137.9980 C   0  0  0  0  0  2  0  0  0  0  0  0
  184.2260  179.1170  139.1880 C   0  0  0  0  0  3  0  0  0  0  0  0
  183.8200  178.1590  140.0160 C   0  0  0  0  0  3  0  0  0  0  0  0
  183.0000  178.4780  141.2280 C   0  0  0  0  0  2  0  0  0  0  0  0
  183.8790  178.6610  142.4560 C   0  0  0  0  0  2  0  0  0  0  0  0
  183.0430  179.1150  143.6350 C   0  0  0  0  0  2  0  0  0  0  0  0
  183.6310  178.6850  144.8220 O   0  0  0  0  0  0  0  0  0  0  0  0
  184.8640  179.3410  144.8710 C   0  0  0  0  0  2  0  0  0  0  0  0
  185.4120  178.8050  147.1130 O   0  0  0  0  0  0  0  0  0  0  0  0
  187.9470  177.5120  146.3950 C   0  0  0  0  0  0  0  0  0  0  0  0
  188.9570  176.9480  145.8980 O   0  0  0  0  0  0  0  0  0  0  0  0
  185.7460  178.7230  145.9020 C   0  0  0  0  0  0  0  0  0  0  0  0
  186.9770  178.0980  145.5180 N   0  0  0  0  0  2  0  0  0  0  0  0
  187.8200  177.5800  147.8800 C   0  0  0  0  0  2  0  0  0  0  0  0
  188.9930  178.3400  148.4650 C   0  0  0  0  0  1  0  0  0  0  0  0
  1 31  1  6  0  0  0
  3  2  1  6  0  0  0
  3  5  1  0  0  0  0
  3  1  1  0  0  0  0
  5  4  1  6  0  0  0
  6  5  1  0  0  0  0
  6  7  1  0  0  0  0
  7 14  1  0  0  0  0
  8  9  1  0  0  0  0
 10 15  2  0  0  0  0
 10 14  1  0  0  0  0
 11 12  1  0  0  0  0
 11  8  2  0  0  0  0
 13  9  1  0  0  0  0
 14 13  2  0  0  0  0
 15 11  1  0  0  0  0
 16  1  1  0  0  0  0
 17 16  2  0  0  0  0
 18 23  1  0  0  0  0
 19 26  1  0  0  0  0
 20 26  1  0  0  0  0
 20 21  2  0  0  0  0
 21 18  1  0  0  0  0
 22 23  2  0  0  0  0
 24 16  1  6  0  0  0
 24 29  1  0  0  0  0
 25 18  2  0  0  0  0
 26 25  1  0  0  0  0
 27 28  2  0  0  0  0
 27 24  1  0  0  0  0
 28 20  1  0  0  0  0
 29 21  1  0  0  0  0
 29 30  2  0  0  0  0
 30 22  1  0  0  0  0
 31 32  1  0  0  0  0
 32 33  2  0  0  0  0
 33 34  1  0  0  0  0
 34 35  1  0  0  0  0
 35 36  1  0  0  0  0
 36 37  1  0  0  0  0
 37 38  1  0  0  0  0
 38 42  1  0  0  0  0
 40 44  1  0  0  0  0
 41 40  2  0  0  0  0
 42 39  2  0  0  0  0
 43 42  1  0  0  0  0
 43 40  1  0  0  0  0
 44 45  1  0  0  0  0
M  END
>  <MODEL>
5

>  <REMARK>
 VINA RESULT:      -7.5      2.491      6.799
  Name = 
  16 active torsions:
  status: ('A' for Active; 'I' for Inactive)
    1  A    between atoms: C_1  and  C_22
    2  A    between atoms: C_1  and  C_24
    3  A    between atoms: C_3  and  C_18
    4  A    between atoms: C_3  and  C_40
    5  A    between atoms: C_7  and  C_32
    6  A    between atoms: C_7  and  O_36
    7  A    between atoms: C_11  and  C_31
    8  A    between atoms: C_16  and  C_20
    9  A    between atoms: C_16  and  C_38
   10  A    between atoms: C_19  and  C_40
   11  A    between atoms: C_19  and  C_41
   12  A    between atoms: C_20  and  C_41
   13  A    between atoms: C_21  and  C_22
   14  A    between atoms: C_21  and  O_36
   15  A    between atoms: C_23  and  C_29
   16  A    between atoms: C_29  and  C_40
                            x       y       z     vdW  Elec       q    Type
                         _______ _______ _______ _____ _____    ______ ____

>  <TORSDO>
F 16

$$$$
=
 OpenBabel10222418143D

 45 48  0  0  1  0  0  0  0  0999 V2000
  186.3730  177.9490  138.6710 C   0  0  1  0  0  3  0  0  0  0  0  0
  187.6400  179.1570  137.0220 O   0  0  0  0  0  1  0  0  0  0  0  0
  187.4540  179.0110  138.4020 C   0  0  2  0  0  3  0  0  0  0  0  0
  189.7030  178.0790  138.0770 N   0  0  0  0  0  1  0  0  0  0  0  0
  188.7840  178.6140  139.0650 C   0  0  2  0  0  3  0  0  0  0  0  0
  188.5630  177.5710  140.1590 C   0  0  0  0  0  2  0  0  0  0  0  0
  189.8910  176.9830  140.6070 C   0  0  0  0  0  2  0  0  0  0  0  0
  190.2880  177.7050  145.0020 C   0  0  0  0  0  3  0  0  0  0  0  0
  191.2220  176.8620  144.2030 C   0  0  0  0  0  2  0  0  0  0  0  0
  188.6670  176.3700  142.7530 C   0  0  0  0  0  3  0  0  0  0  0  0
  188.9570  177.6110  144.9180 C   0  0  0  0  0  0  0  0  0  0  0  0
  188.2100  178.3440  145.7750 F   0  0  0  0  0  0  0  0  0  0  0  0
  191.0450  177.0770  142.7360 C   0  0  0  0  0  3  0  0  0  0  0  0
  189.9060  176.8270  142.0880 C   0  0  0  0  0  0  0  0  0  0  0  0
  188.2560  176.7110  143.9820 C   0  0  0  0  0  3  0  0  0  0  0  0
  185.1640  178.5300  139.3530 C   0  0  0  0  0  0  0  0  0  0  0  0
  184.9140  179.7190  139.2140 O   0  0  0  0  0  0  0  0  0  0  0  0
  182.7430  179.0430  143.3360 C   0  0  0  0  0  0  0  0  0  0  0  0
  179.4590  179.0010  141.9610 C   0  0  0  0  0  1  0  0  0  0  0  0
  181.8730  178.6320  141.4030 C   0  0  0  0  0  0  0  0  0  0  0  0
  183.0240  178.6670  142.0710 C   0  0  0  0  0  0  0  0  0  0  0  0
  185.0280  178.6020  143.8970 C   0  0  0  0  0  3  0  0  0  0  0  0
  183.7370  179.0310  144.3080 C   0  0  0  0  0  3  0  0  0  0  0  0
  184.2700  177.6640  140.1980 C   0  0  2  0  0  3  0  0  0  0  0  0
  181.4090  179.2450  143.4540 N   0  0  0  0  0  0  0  0  0  0  0  0
  180.8850  178.9840  142.2520 N   0  0  0  0  0  0  0  0  0  0  0  0
  182.8690  177.5530  139.5520 C   0  0  0  0  0  3  0  0  0  0  0  0
  181.7780  178.0120  140.1170 N   0  0  0  0  0  0  0  0  0  0  0  0
  184.2200  178.1800  141.6270 C   0  0  0  0  0  0  0  0  0  0  0  0
  185.2710  178.1630  142.5630 C   0  0  0  0  0  3  0  0  0  0  0  0
  185.9490  177.2270  137.3980 C   0  0  0  0  0  2  0  0  0  0  0  0
  186.6380  175.9050  137.3260 C   0  0  0  0  0  3  0  0  0  0  0  0
  187.5850  175.7000  136.4150 C   0  0  0  0  0  3  0  0  0  0  0  0
  188.3080  174.3910  136.3290 C   0  0  0  0  0  2  0  0  0  0  0  0
  189.7830  174.5950  136.0200 C   0  0  0  0  0  2  0  0  0  0  0  0
  190.6370  173.9130  137.0700 C   0  0  0  0  0  2  0  0  0  0  0  0
  191.1190  174.8580  137.9720 O   0  0  0  0  0  0  0  0  0  0  0  0
  192.1940  175.4660  137.3160 C   0  0  0  0  0  2  0  0  0  0  0  0
  194.1720  176.0030  138.5050 O   0  0  0  0  0  0  0  0  0  0  0  0
  195.1820  173.2470  138.4640 C   0  0  0  0  0  0  0  0  0  0  0  0
  195.4240  172.0140  138.4040 O   0  0  0  0  0  0  0  0  0  0  0  0
  193.4830  175.0960  137.9680 C   0  0  0  0  0  0  0  0  0  0  0  0
  193.9470  173.7410  137.9320 N   0  0  0  0  0  2  0  0  0  0  0  0
  196.2110  174.1520  139.0560 C   0  0  0  0  0  2  0  0  0  0  0  0
  197.3670  174.3210  138.0900 C   0  0  0  0  0  1  0  0  0  0  0  0
  1 31  1  6  0  0  0
  1 16  1  0  0  0  0
  3  2  1  6  0  0  0
  3  1  1  0  0  0  0
  3  5  1  0  0  0  0
  5  4  1  6  0  0  0
  5  6  1  0  0  0  0
  6  7  1  0  0  0  0
  7 14  1  0  0  0  0
  9  8  1  0  0  0  0
 10 15  2  0  0  0  0
 11  8  2  0  0  0  0
 11 12  1  0  0  0  0
 13  9  1  0  0  0  0
 14 13  2  0  0  0  0
 14 10  1  0  0  0  0
 15 11  1  0  0  0  0
 17 16  2  0  0  0  0
 18 25  2  0  0  0  0
 18 23  1  0  0  0  0
 19 26  1  0  0  0  0
 20 21  2  0  0  0  0
 20 26  1  0  0  0  0
 21 18  1  0  0  0  0
 22 23  2  0  0  0  0
 24 16  1  6  0  0  0
 24 29  1  0  0  0  0
 26 25  1  0  0  0  0
 27 28  2  0  0  0  0
 27 24  1  0  0  0  0
 28 20  1  0  0  0  0
 29 21  1  0  0  0  0
 29 30  2  0  0  0  0
 30 22  1  0  0  0  0
 32 31  1  0  0  0  0
 33 32  2  0  0  0  0
 34 33  1  0  0  0  0
 35 34  1  0  0  0  0
 35 36  1  0  0  0  0
 36 37  1  0  0  0  0
 38 42  1  0  0  0  0
 38 37  1  0  0  0  0
 40 44  1  0  0  0  0
 41 40  2  0  0  0  0
 42 39  2  0  0  0  0
 43 42  1  0  0  0  0
 43 40  1  0  0  0  0
 45 44  1  0  0  0  0
M  END
>  <MODEL>
6

>  <REMARK>
 VINA RESULT:      -7.4      3.449      9.521
  Name = 
  16 active torsions:
  status: ('A' for Active; 'I' for Inactive)
    1  A    between atoms: C_1  and  C_22
    2  A    between atoms: C_1  and  C_24
    3  A    between atoms: C_3  and  C_18
    4  A    between atoms: C_3  and  C_40
    5  A    between atoms: C_7  and  C_32
    6  A    between atoms: C_7  and  O_36
    7  A    between atoms: C_11  and  C_31
    8  A    between atoms: C_16  and  C_20
    9  A    between atoms: C_16  and  C_38
   10  A    between atoms: C_19  and  C_40
   11  A    between atoms: C_19  and  C_41
   12  A    between atoms: C_20  and  C_41
   13  A    between atoms: C_21  and  C_22
   14  A    between atoms: C_21  and  O_36
   15  A    between atoms: C_23  and  C_29
   16  A    between atoms: C_29  and  C_40
                            x       y       z     vdW  Elec       q    Type
                         _______ _______ _______ _____ _____    ______ ____

>  <TORSDO>
F 16

$$$$
=
 OpenBabel10222418143D

 45 48  0  0  1  0  0  0  0  0999 V2000
  189.9530  176.9100  140.4480 C   0  0  1  0  0  3  0  0  0  0  0  0
  192.2800  177.5020  140.2940 O   0  0  0  0  0  1  0  0  0  0  0  0
  191.3500  176.5190  139.9320 C   0  0  2  0  0  3  0  0  0  0  0  0
  190.4610  175.2630  138.0180 N   0  0  0  0  0  1  0  0  0  0  0  0
  191.3400  176.3530  138.4040 C   0  0  2  0  0  3  0  0  0  0  0  0
  192.7440  176.0760  137.8710 C   0  0  0  0  0  2  0  0  0  0  0  0
  192.9190  174.5940  137.5800 C   0  0  0  0  0  2  0  0  0  0  0  0
  197.3000  174.9240  136.7520 C   0  0  0  0  0  3  0  0  0  0  0  0
  196.2940  174.4380  135.7650 C   0  0  0  0  0  2  0  0  0  0  0  0
  195.0810  173.4640  138.3050 C   0  0  0  0  0  3  0  0  0  0  0  0
  197.3510  174.5020  138.0190 C   0  0  0  0  0  0  0  0  0  0  0  0
  198.3780  174.9250  138.7920 F   0  0  0  0  0  0  0  0  0  0  0  0
  194.9000  174.7540  136.1940 C   0  0  0  0  0  3  0  0  0  0  0  0
  194.3530  174.2910  137.3200 C   0  0  0  0  0  0  0  0  0  0  0  0
  196.3830  173.5560  138.6090 C   0  0  0  0  0  3  0  0  0  0  0  0
  189.8350  176.7540  141.9400 C   0  0  0  0  0  0  0  0  0  0  0  0
  189.9800  175.6470  142.4380 O   0  0  0  0  0  0  0  0  0  0  0  0
  186.8120  177.7460  145.3850 C   0  0  0  0  0  0  0  0  0  0  0  0
  189.1210  177.8560  148.0910 C   0  0  0  0  0  1  0  0  0  0  0  0
  188.9600  177.7060  145.5960 C   0  0  0  0  0  0  0  0  0  0  0  0
  187.9740  177.7020  144.7010 C   0  0  0  0  0  0  0  0  0  0  0  0
  185.6770  178.0030  143.2920 C   0  0  0  0  0  3  0  0  0  0  0  0
  185.6060  177.8950  144.7080 C   0  0  0  0  0  3  0  0  0  0  0  0
  189.5380  177.9420  142.8130 C   0  0  2  0  0  3  0  0  0  0  0  0
  187.0760  177.7760  146.7120 N   0  0  0  0  0  0  0  0  0  0  0  0
  188.4080  177.7540  146.8270 N   0  0  0  0  0  0  0  0  0  0  0  0
  190.5990  178.0600  143.9320 C   0  0  0  0  0  3  0  0  0  0  0  0
  190.3170  177.9400  145.2070 N   0  0  0  0  0  0  0  0  0  0  0  0
  188.1180  177.8690  143.3530 C   0  0  0  0  0  0  0  0  0  0  0  0
  186.9290  178.0040  142.6130 C   0  0  0  0  0  3  0  0  0  0  0  0
  189.5720  178.3300  140.0470 C   0  0  0  0  0  2  0  0  0  0  0  0
  188.3580  178.2900  139.1800 C   0  0  0  0  0  3  0  0  0  0  0  0
  188.4790  178.4180  137.8620 C   0  0  0  0  0  3  0  0  0  0  0  0
  187.2830  178.3630  136.9630 C   0  0  0  0  0  2  0  0  0  0  0  0
  186.5400  177.0450  137.1140 C   0  0  0  0  0  2  0  0  0  0  0  0
  185.0500  177.2930  137.2260 C   0  0  0  0  0  2  0  0  0  0  0  0
  184.7460  177.7670  138.5000 O   0  0  0  0  0  0  0  0  0  0  0  0
  183.4380  178.2500  138.4020 C   0  0  0  0  0  2  0  0  0  0  0  0
  183.1020  177.3860  140.5830 O   0  0  0  0  0  0  0  0  0  0  0  0
  181.0230  179.3460  141.2550 C   0  0  0  0  0  0  0  0  0  0  0  0
  180.2060  180.2940  141.3860 O   0  0  0  0  0  0  0  0  0  0  0  0
  182.7830  178.2670  139.7420 C   0  0  0  0  0  0  0  0  0  0  0  0
  181.7740  179.2390  140.0390 N   0  0  0  0  0  2  0  0  0  0  0  0
  181.1510  178.3510  142.3580 C   0  0  0  0  0  2  0  0  0  0  0  0
  181.7270  179.0180  143.5920 C   0  0  0  0  0  1  0  0  0  0  0  0
  1 31  1  1  0  0  0
  1 16  1  0  0  0  0
  3  2  1  6  0  0  0
  3  1  1  0  0  0  0
  5  4  1  1  0  0  0
  5  3  1  0  0  0  0
  6  5  1  0  0  0  0
  7  6  1  0  0  0  0
  8 11  2  0  0  0  0
  9 13  1  0  0  0  0
  9  8  1  0  0  0  0
 10 15  2  0  0  0  0
 11 15  1  0  0  0  0
 11 12  1  0  0  0  0
 13 14  2  0  0  0  0
 14  7  1  0  0  0  0
 14 10  1  0  0  0  0
 16 17  2  0  0  0  0
 18 25  2  0  0  0  0
 20 26  1  0  0  0  0
 21 18  1  0  0  0  0
 21 20  2  0  0  0  0
 22 23  2  0  0  0  0
 23 18  1  0  0  0  0
 24 16  1  1  0  0  0
 24 29  1  0  0  0  0
 24 27  1  0  0  0  0
 25 26  1  0  0  0  0
 26 19  1  0  0  0  0
 27 28  2  0  0  0  0
 28 20  1  0  0  0  0
 29 21  1  0  0  0  0
 30 22  1  0  0  0  0
 30 29  2  0  0  0  0
 32 31  1  0  0  0  0
 33 32  2  0  0  0  0
 34 35  1  0  0  0  0
 34 33  1  0  0  0  0
 35 36  1  0  0  0  0
 36 37  1  0  0  0  0
 38 37  1  0  0  0  0
 38 42  1  0  0  0  0
 40 41  2  0  0  0  0
 40 44  1  0  0  0  0
 42 43  1  0  0  0  0
 42 39  2  0  0  0  0
 43 40  1  0  0  0  0
 44 45  1  0  0  0  0
M  END
>  <MODEL>
7

>  <REMARK>
 VINA RESULT:      -7.2      3.814      5.761
  Name = 
  16 active torsions:
  status: ('A' for Active; 'I' for Inactive)
    1  A    between atoms: C_1  and  C_22
    2  A    between atoms: C_1  and  C_24
    3  A    between atoms: C_3  and  C_18
    4  A    between atoms: C_3  and  C_40
    5  A    between atoms: C_7  and  C_32
    6  A    between atoms: C_7  and  O_36
    7  A    between atoms: C_11  and  C_31
    8  A    between atoms: C_16  and  C_20
    9  A    between atoms: C_16  and  C_38
   10  A    between atoms: C_19  and  C_40
   11  A    between atoms: C_19  and  C_41
   12  A    between atoms: C_20  and  C_41
   13  A    between atoms: C_21  and  C_22
   14  A    between atoms: C_21  and  O_36
   15  A    between atoms: C_23  and  C_29
   16  A    between atoms: C_29  and  C_40
                            x       y       z     vdW  Elec       q    Type
                         _______ _______ _______ _____ _____    ______ ____

>  <TORSDO>
F 16

$$$$
=
 OpenBabel10222418143D

 45 48  0  0  1  0  0  0  0  0999 V2000
  186.3340  178.2690  139.8020 C   0  0  1  0  0  3  0  0  0  0  0  0
  184.6370  179.8380  139.1340 O   0  0  0  0  0  1  0  0  0  0  0  0
  185.2690  178.6470  138.7560 C   0  0  2  0  0  3  0  0  0  0  0  0
  183.2650  177.8580  137.5750 N   0  0  0  0  0  1  0  0  0  0  0  0
  184.2240  177.5280  138.6140 C   0  0  2  0  0  3  0  0  0  0  0  0
  183.4780  177.3030  139.9280 C   0  0  0  0  0  2  0  0  0  0  0  0
  181.9850  177.1770  139.6760 C   0  0  0  0  0  2  0  0  0  0  0  0
  179.0300  178.8110  142.6080 C   0  0  0  0  0  3  0  0  0  0  0  0
  179.0930  179.2070  141.1720 C   0  0  0  0  0  2  0  0  0  0  0  0
  181.9750  178.6900  141.7230 C   0  0  0  0  0  3  0  0  0  0  0  0
  180.1040  178.7410  143.4000 C   0  0  0  0  0  0  0  0  0  0  0  0
  179.9120  178.4850  144.7140 F   0  0  0  0  0  0  0  0  0  0  0  0
  179.9350  178.2660  140.3750 C   0  0  0  0  0  3  0  0  0  0  0  0
  181.2330  178.0610  140.6100 C   0  0  0  0  0  0  0  0  0  0  0  0
  181.4840  178.9850  142.9350 C   0  0  0  0  0  3  0  0  0  0  0  0
  187.7030  178.1330  139.1930 C   0  0  0  0  0  0  0  0  0  0  0  0
  188.0930  178.9820  138.4040 O   0  0  0  0  0  0  0  0  0  0  0  0
  191.6830  176.2850  137.5400 C   0  0  0  0  0  0  0  0  0  0  0  0
  193.8320  177.1750  140.2340 C   0  0  0  0  0  1  0  0  0  0  0  0
  191.4340  177.1230  139.5140 C   0  0  0  0  0  0  0  0  0  0  0  0
  190.7690  176.7160  138.4340 C   0  0  2  0  0  3  0  0  0  0  0  0
  189.8730  175.5180  136.1720 C   0  0  0  0  0  3  0  0  0  0  0  0
  191.2730  175.6670  136.3630 C   0  0  0  0  0  3  0  0  0  0  0  0
  188.5860  176.9680  139.5460 C   0  0  0  0  0  0  0  0  0  0  0  0
  192.9230  176.4240  138.0660 N   0  0  0  0  0  0  0  0  0  0  0  0
  192.7520  176.9400  139.2880 N   0  0  0  0  0  0  0  0  0  0  0  0
  189.4500  177.3080  140.7830 C   0  0  0  0  0  3  0  0  0  0  0  0
  190.7580  177.3830  140.7480 N   0  0  0  0  0  0  0  0  0  0  0  0
  189.4170  176.5430  138.3460 C   0  0  0  0  0  0  0  0  0  0  0  0
  188.9430  175.9410  137.1660 C   0  0  0  0  0  3  0  0  0  0  0  0
  186.3800  179.2620  140.9570 C   0  0  0  0  0  2  0  0  0  0  0  0
  186.1600  178.5360  142.2420 C   0  0  0  0  0  3  0  0  0  0  0  0
  185.1860  178.9190  143.0620 C   0  0  0  0  0  3  0  0  0  0  0  0
  184.9280  178.1990  144.3500 C   0  0  0  0  0  2  0  0  0  0  0  0
  184.9140  179.1620  145.5270 C   0  0  0  0  0  2  0  0  0  0  0  0
  185.3740  178.4550  146.7860 C   0  0  0  0  0  2  0  0  0  0  0  0
  186.3000  177.4670  146.4590 O   0  0  0  0  0  0  0  0  0  0  0  0
  187.4750  177.8440  147.1150 C   0  0  0  0  0  2  0  0  0  0  0  0
  188.5560  177.9440  145.0100 O   0  0  0  0  0  0  0  0  0  0  0  0
  191.0580  176.7830  146.0150 C   0  0  0  0  0  0  0  0  0  0  0  0
  192.0600  176.3360  146.6310 O   0  0  0  0  0  0  0  0  0  0  0  0
  188.6580  177.6470  146.2290 C   0  0  0  0  0  0  0  0  0  0  0  0
  189.8650  177.0800  146.7520 N   0  0  0  0  0  2  0  0  0  0  0  0
  191.1410  176.9520  144.5350 C   0  0  0  0  0  2  0  0  0  0  0  0
  191.6820  178.3280  144.2020 C   0  0  0  0  0  1  0  0  0  0  0  0
  1 31  1  1  0  0  0
  3  2  1  1  0  0  0
  3  1  1  0  0  0  0
  5  4  1  6  0  0  0
  5  3  1  0  0  0  0
  5  6  1  0  0  0  0
  7  6  1  0  0  0  0
  7 14  1  0  0  0  0
  8 11  2  0  0  0  0
  9  8  1  0  0  0  0
 10 15  2  0  0  0  0
 11 12  1  0  0  0  0
 13 14  2  0  0  0  0
 13  9  1  0  0  0  0
 14 10  1  0  0  0  0
 15 11  1  0  0  0  0
 16 24  1  0  0  0  0
 16  1  1  0  0  0  0
 17 16  2  0  0  0  0
 18 25  2  0  0  0  0
 20 28  2  0  0  0  0
 21 18  1  1  0  0  0
 21 20  1  0  0  0  0
 22 23  2  0  0  0  0
 22 30  1  0  0  0  0
 23 18  1  0  0  0  0
 24 27  2  0  0  0  0
 25 26  1  0  0  0  0
 26 20  1  0  0  0  0
 26 19  1  0  0  0  0
 28 27  1  0  0  0  0
 29 21  1  0  0  0  0
 29 24  1  0  0  0  0
 30 29  2  0  0  0  0
 31 32  1  0  0  0  0
 32 33  2  0  0  0  0
 33 34  1  0  0  0  0
 34 35  1  0  0  0  0
 35 36  1  0  0  0  0
 37 36  1  0  0  0  0
 37 38  1  0  0  0  0
 39 42  2  0  0  0  0
 40 41  2  0  0  0  0
 40 43  1  0  0  0  0
 42 43  1  0  0  0  0
 42 38  1  0  0  0  0
 44 40  1  0  0  0  0
 45 44  1  0  0  0  0
M  END
>  <MODEL>
8

>  <REMARK>
 VINA RESULT:      -7.2      2.486      7.867
  Name = 
  16 active torsions:
  status: ('A' for Active; 'I' for Inactive)
    1  A    between atoms: C_1  and  C_22
    2  A    between atoms: C_1  and  C_24
    3  A    between atoms: C_3  and  C_18
    4  A    between atoms: C_3  and  C_40
    5  A    between atoms: C_7  and  C_32
    6  A    between atoms: C_7  and  O_36
    7  A    between atoms: C_11  and  C_31
    8  A    between atoms: C_16  and  C_20
    9  A    between atoms: C_16  and  C_38
   10  A    between atoms: C_19  and  C_40
   11  A    between atoms: C_19  and  C_41
   12  A    between atoms: C_20  and  C_41
   13  A    between atoms: C_21  and  C_22
   14  A    between atoms: C_21  and  O_36
   15  A    between atoms: C_23  and  C_29
   16  A    between atoms: C_29  and  C_40
                            x       y       z     vdW  Elec       q    Type
                         _______ _______ _______ _____ _____    ______ ____

>  <TORSDO>
F 16

$$$$
=
 OpenBabel10222418143D

 45 48  0  0  1  0  0  0  0  0999 V2000
  183.3850  179.2710  142.9230 C   0  0  1  0  0  3  0  0  0  0  0  0
  181.7170  178.2830  144.3480 O   0  0  0  0  0  1  0  0  0  0  0  0
  181.9680  179.3820  143.5180 C   0  0  2  0  0  3  0  0  0  0  0  0
  179.9650  180.5100  142.6550 N   0  0  0  0  0  1  0  0  0  0  0  0
  180.9130  179.4400  142.4010 C   0  0  2  0  0  3  0  0  0  0  0  0
  180.1560  178.1170  142.2900 C   0  0  0  0  0  2  0  0  0  0  0  0
  179.0590  178.2190  141.2430 C   0  0  0  0  0  2  0  0  0  0  0  0
  180.5600  176.0270  137.6470 C   0  0  0  0  0  3  0  0  0  0  0  0
  179.2120  176.6550  137.7440 C   0  0  0  0  0  2  0  0  0  0  0  0
  179.6350  175.8320  140.5750 C   0  0  0  0  0  3  0  0  0  0  0  0
  181.0820  175.2540  138.6040 C   0  0  0  0  0  0  0  0  0  0  0  0
  182.2640  174.6430  138.3570 F   0  0  0  0  0  0  0  0  0  0  0  0
  179.1190  177.5910  138.9030 C   0  0  0  0  0  3  0  0  0  0  0  0
  179.2810  177.2090  140.1720 C   0  0  0  0  0  0  0  0  0  0  0  0
  180.4170  174.9830  139.8940 C   0  0  0  0  0  3  0  0  0  0  0  0
  184.4520  179.3660  143.9790 C   0  0  0  0  0  0  0  0  0  0  0  0
  184.9620  180.4510  144.2180 O   0  0  0  0  0  0  0  0  0  0  0  0
  188.5460  177.5360  145.3520 C   0  0  0  0  0  0  0  0  0  0  0  0
  188.2230  178.1000  148.8520 C   0  0  0  0  0  1  0  0  0  0  0  0
  186.9780  178.1990  146.6810 C   0  0  0  0  0  0  0  0  0  0  0  0
  187.2530  177.9160  145.4090 C   0  0  0  0  0  0  0  0  0  0  0  0
  188.1990  176.9610  143.0540 C   0  0  0  0  0  3  0  0  0  0  0  0
  189.0790  177.0430  144.1670 C   0  0  0  0  0  3  0  0  0  0  0  0
  184.8940  178.1420  144.7340 C   0  0  2  0  0  3  0  0  0  0  0  0
  189.0790  177.5830  146.5960 N   0  0  0  0  0  0  0  0  0  0  0  0
  188.0970  177.9910  147.4070 N   0  0  0  0  0  0  0  0  0  0  0  0
  184.6590  178.3370  146.2510 C   0  0  0  0  0  3  0  0  0  0  0  0
  185.6300  178.3690  147.1310 N   0  0  0  0  0  0  0  0  0  0  0  0
  186.3380  177.8000  144.4010 C   0  0  0  0  0  0  0  0  0  0  0  0
  186.8270  177.3250  143.1700 C   0  0  0  0  0  3  0  0  0  0  0  0
  183.5700  177.9900  142.1190 C   0  0  0  0  0  2  0  0  0  0  0  0
  183.9680  178.3360  140.7220 C   0  0  0  0  0  3  0  0  0  0  0  0
  183.2310  177.9150  139.6990 C   0  0  0  0  0  3  0  0  0  0  0  0
  183.5930  178.2620  138.2880 C   0  0  0  0  0  2  0  0  0  0  0  0
  184.1370  177.0530  137.5440 C   0  0  0  0  0  2  0  0  0  0  0  0
  185.0850  177.4950  136.4480 C   0  0  0  0  0  2  0  0  0  0  0  0
  186.3780  177.0660  136.7420 O   0  0  0  0  0  0  0  0  0  0  0  0
  187.0920  178.2360  137.0140 C   0  0  0  0  0  2  0  0  0  0  0  0
  187.7190  178.4310  139.2900 O   0  0  0  0  0  0  0  0  0  0  0  0
  190.3450  177.1840  138.8810 C   0  0  0  0  0  0  0  0  0  0  0  0
  191.3910  176.5790  138.5320 O   0  0  0  0  0  0  0  0  0  0  0  0
  188.0410  178.0210  138.1440 C   0  0  0  0  0  0  0  0  0  0  0  0
  189.3140  177.4070  137.9110 N   0  0  0  0  0  2  0  0  0  0  0  0
  190.2360  177.6780  140.2850 C   0  0  0  0  0  2  0  0  0  0  0  0
  191.3790  177.1300  141.1150 C   0  0  0  0  0  1  0  0  0  0  0  0
  1 31  1  1  0  0  0
  1  3  1  0  0  0  0
  1 16  1  0  0  0  0
  3  2  1  1  0  0  0
  5  4  1  1  0  0  0
  5  3  1  0  0  0  0
  6  5  1  0  0  0  0
  7  6  1  0  0  0  0
  8  9  1  0  0  0  0
  8 11  2  0  0  0  0
  9 13  1  0  0  0  0
 11 15  1  0  0  0  0
 12 11  1  0  0  0  0
 13 14  2  0  0  0  0
 14 10  1  0  0  0  0
 14  7  1  0  0  0  0
 15 10  2  0  0  0  0
 16 17  2  0  0  0  0
 18 21  1  0  0  0  0
 18 25  2  0  0  0  0
 20 28  1  0  0  0  0
 20 26  1  0  0  0  0
 21 20  2  0  0  0  0
 22 30  1  0  0  0  0
 22 23  2  0  0  0  0
 23 18  1  0  0  0  0
 24 16  1  6  0  0  0
 24 27  1  0  0  0  0
 25 26  1  0  0  0  0
 26 19  1  0  0  0  0
 27 28  2  0  0  0  0
 29 24  1  0  0  0  0
 29 21  1  0  0  0  0
 30 29  2  0  0  0  0
 32 31  1  0  0  0  0
 33 32  2  0  0  0  0
 34 33  1  0  0  0  0
 35 34  1  0  0  0  0
 36 37  1  0  0  0  0
 36 35  1  0  0  0  0
 37 38  1  0  0  0  0
 38 42  1  0  0  0  0
 40 44  1  0  0  0  0
 41 40  2  0  0  0  0
 42 39  2  0  0  0  0
 43 42  1  0  0  0  0
 43 40  1  0  0  0  0
 44 45  1  0  0  0  0
M  END
>  <MODEL>
9

>  <REMARK>
 VINA RESULT:      -7.2      2.529      7.187
  Name = 
  16 active torsions:
  status: ('A' for Active; 'I' for Inactive)
    1  A    between atoms: C_1  and  C_22
    2  A    between atoms: C_1  and  C_24
    3  A    between atoms: C_3  and  C_18
    4  A    between atoms: C_3  and  C_40
    5  A    between atoms: C_7  and  C_32
    6  A    between atoms: C_7  and  O_36
    7  A    between atoms: C_11  and  C_31
    8  A    between atoms: C_16  and  C_20
    9  A    between atoms: C_16  and  C_38
   10  A    between atoms: C_19  and  C_40
   11  A    between atoms: C_19  and  C_41
   12  A    between atoms: C_20  and  C_41
   13  A    between atoms: C_21  and  C_22
   14  A    between atoms: C_21  and  O_36
   15  A    between atoms: C_23  and  C_29
   16  A    between atoms: C_29  and  C_40
                            x       y       z     vdW  Elec       q    Type
                         _______ _______ _______ _____ _____    ______ ____

>  <TORSDO>
F 16

$$$$
