=
 OpenBabel10222417403D

 30 32  0  0  1  0  0  0  0  0999 V2000
  188.1380  177.3630  146.4400 C   0  0  0  0  0  3  0  0  0  0  0  0
  190.2410  177.0690  144.5490 C   0  0  0  0  0  0  0  0  0  0  0  0
  186.9910  177.5890  141.9770 C   0  0  0  0  0  2  0  0  0  0  0  0
  188.9070  176.4720  144.3190 C   0  0  1  0  0  3  0  0  0  0  0  0
  190.9760  177.6720  143.5740 C   0  0  0  0  0  3  0  0  0  0  0  0
  190.5860  177.2790  145.9700 C   0  0  0  0  0  0  0  0  0  0  0  0
  189.5110  177.0820  147.0140 C   0  0  0  0  0  2  0  0  0  0  0  0
  186.5040  177.4530  144.5710 C   0  0  0  0  0  2  0  0  0  0  0  0
  188.3420  176.9090  141.9730 C   0  0  2  0  0  3  0  0  0  0  0  0
  187.8360  177.0280  145.1780 C   0  0  0  0  0  0  0  0  0  0  0  0
  191.7470  177.6200  146.3170 O   0  0  0  0  0  0  0  0  0  0  0  0
  188.5920  176.3800  143.0960 C   0  0  0  0  0  2  0  0  0  0  0  0
  186.6650  178.3540  143.3080 C   0  0  2  0  0  3  0  0  0  0  0  0
  190.6630  177.8660  142.1080 C   0  0  0  0  0  3  0  0  0  0  0  0
  189.5340  177.5840  141.3830 C   0  0  0  0  0  0  0  0  0  0  0  0
  185.4830  179.8410  141.8650 O   0  0  0  0  0  1  0  0  0  0  0  0
  185.4690  179.2980  143.1520 C   0  0  1  0  0  3  0  0  0  0  0  0
  184.1160  178.6230  143.4320 C   0  0  2  0  0  3  0  0  0  0  0  0
  182.0810  178.8820  142.5970 C   0  0  0  0  0  1  0  0  0  0  0  0
  183.3760  178.4920  142.2520 O   0  0  0  0  0  0  0  0  0  0  0  0
  183.7310  179.0930  145.7570 O   0  0  0  0  0  1  0  0  0  0  0  0
  183.3010  179.3960  144.4640 C   0  0  0  0  0  2  0  0  0  0  0  0
  189.5500  177.9040  139.9350 C   0  0  0  0  0  0  0  0  0  0  0  0
  189.1040  179.0120  139.5280 O   0  0  0  0  0  0  0  0  0  0  0  0
  190.2510  176.7780  138.7220 S   0  0  0  0  0  0  0  0  0  0  0  0
  189.0010  177.1490  137.4910 C   0  0  0  0  0  0  0  0  0  0  0  0
  189.2880  177.8130  136.5090 O   0  0  0  0  0  0  0  0  0  0  0  0
  187.6070  176.6380  137.6740 C   0  0  0  0  0  2  0  0  0  0  0  0
  186.5880  177.6030  137.0900 C   0  0  0  0  0  2  0  0  0  0  0  0
  186.2780  178.5950  138.0200 O   0  0  0  0  0  1  0  0  0  0  0  0
  1  7  1  0  0  0  0
  2  6  1  0  0  0  0
  3 13  1  0  0  0  0
  4 12  1  6  0  0  0
  4  2  1  0  0  0  0
  4 10  1  0  0  0  0
  5  2  2  0  0  0  0
  6 11  2  0  0  0  0
  6  7  1  0  0  0  0
  8 10  1  0  0  0  0
  9  3  1  1  0  0  0
  9 12  1  0  0  0  0
 10  1  2  0  0  0  0
 13 17  1  6  0  0  0
 13  8  1  0  0  0  0
 14  5  1  0  0  0  0
 15  9  1  0  0  0  0
 15 14  2  0  0  0  0
 17 16  1  6  0  0  0
 17 18  1  0  0  0  0
 18 22  1  1  0  0  0
 20 19  1  0  0  0  0
 20 18  1  0  0  0  0
 22 21  1  0  0  0  0
 23 15  1  0  0  0  0
 24 23  2  0  0  0  0
 25 23  1  0  0  0  0
 26 28  1  0  0  0  0
 26 25  1  0  0  0  0
 27 26  2  0  0  0  0
 29 28  1  0  0  0  0
 29 30  1  0  0  0  0
M  END
>  <MODEL>
1

>  <REMARK>
 VINA RESULT:      -7.5      0.000      0.000
  Name = 
  9 active torsions:
  status: ('A' for Active; 'I' for Inactive)
    1  A    between atoms: C_3  and  C_28
    2  A    between atoms: C_3  and  S_29
    3  A    between atoms: C_8  and  C_22
    4  A    between atoms: C_11  and  C_24
    5  A    between atoms: C_11  and  C_26
    6  A    between atoms: C_17  and  C_22
    7  A    between atoms: C_17  and  S_29
    8  A    between atoms: O_18  and  C_26
    9  A    between atoms: C_26  and  C_30
                            x       y       z     vdW  Elec       q    Type
                         _______ _______ _______ _____ _____    ______ ____

>  <TORSDO>
F 9

$$$$
=
 OpenBabel10222417403D

 30 32  0  0  1  0  0  0  0  0999 V2000
  186.3990  178.2030  147.0100 C   0  0  0  0  0  3  0  0  0  0  0  0
  189.0730  177.6430  146.2250 C   0  0  0  0  0  0  0  0  0  0  0  0
  187.1440  177.4060  142.5270 C   0  0  0  0  0  2  0  0  0  0  0  0
  187.9270  176.9310  145.6200 C   0  0  1  0  0  3  0  0  0  0  0  0
  190.1550  178.0690  145.5150 C   0  0  0  0  0  3  0  0  0  0  0  0
  188.8260  178.1700  147.5820 C   0  0  0  0  0  0  0  0  0  0  0  0
  187.4180  178.1350  148.1290 C   0  0  0  0  0  2  0  0  0  0  0  0
  185.6540  177.7950  144.6760 C   0  0  0  0  0  2  0  0  0  0  0  0
  188.3620  176.8250  143.2090 C   0  0  2  0  0  3  0  0  0  0  0  0
  186.6180  177.5900  145.8380 C   0  0  0  0  0  0  0  0  0  0  0  0
  189.7610  178.6470  148.2780 O   0  0  0  0  0  0  0  0  0  0  0  0
  188.1250  176.5620  144.4250 C   0  0  0  0  0  2  0  0  0  0  0  0
  186.3350  178.4150  143.4160 C   0  0  2  0  0  3  0  0  0  0  0  0
  190.4620  177.9280  144.0420 C   0  0  0  0  0  3  0  0  0  0  0  0
  189.7110  177.4310  143.0100 C   0  0  0  0  0  0  0  0  0  0  0  0
  185.9720  179.7330  141.4620 O   0  0  0  0  0  1  0  0  0  0  0  0
  185.3310  179.2300  142.5960 C   0  0  1  0  0  3  0  0  0  0  0  0
  184.0800  178.4320  142.1930 C   0  0  2  0  0  3  0  0  0  0  0  0
  182.6670  177.8590  140.5860 C   0  0  0  0  0  1  0  0  0  0  0  0
  183.9220  178.4310  140.8030 O   0  0  0  0  0  0  0  0  0  0  0  0
  183.1480  179.7970  143.9380 O   0  0  0  0  0  1  0  0  0  0  0  0
  182.8200  178.9850  142.8510 C   0  0  0  0  0  2  0  0  0  0  0  0
  190.3150  177.4360  141.6550 C   0  0  0  0  0  0  0  0  0  0  0  0
  191.4000  178.0480  141.4500 O   0  0  0  0  0  0  0  0  0  0  0  0
  189.5800  176.5360  140.2840 S   0  0  0  0  0  0  0  0  0  0  0  0
  189.2160  178.0260  139.3560 C   0  0  0  0  0  0  0  0  0  0  0  0
  188.7360  178.9960  139.9190 O   0  0  0  0  0  0  0  0  0  0  0  0
  189.5070  178.0750  137.8900 C   0  0  0  0  0  2  0  0  0  0  0  0
  188.9460  179.3400  137.2600 C   0  0  0  0  0  2  0  0  0  0  0  0
  187.6520  179.1090  136.7910 O   0  0  0  0  0  1  0  0  0  0  0  0
  1  7  1  0  0  0  0
  2  6  1  0  0  0  0
  3 13  1  0  0  0  0
  4 12  1  6  0  0  0
  4 10  1  0  0  0  0
  4  2  1  0  0  0  0
  5  2  2  0  0  0  0
  6  7  1  0  0  0  0
  6 11  2  0  0  0  0
  8 10  1  0  0  0  0
  9  3  1  1  0  0  0
  9 12  1  0  0  0  0
 10  1  2  0  0  0  0
 13 17  1  6  0  0  0
 13  8  1  0  0  0  0
 14  5  1  0  0  0  0
 15  9  1  0  0  0  0
 15 14  2  0  0  0  0
 17 16  1  6  0  0  0
 18 17  1  0  0  0  0
 18 22  1  1  0  0  0
 19 20  1  0  0  0  0
 20 18  1  0  0  0  0
 22 21  1  0  0  0  0
 23 15  1  0  0  0  0
 24 23  2  0  0  0  0
 25 23  1  0  0  0  0
 26 27  2  0  0  0  0
 26 25  1  0  0  0  0
 28 26  1  0  0  0  0
 29 28  1  0  0  0  0
 30 29  1  0  0  0  0
M  END
>  <MODEL>
2

>  <REMARK>
 VINA RESULT:      -7.2      1.486      2.010
  Name = 
  9 active torsions:
  status: ('A' for Active; 'I' for Inactive)
    1  A    between atoms: C_3  and  C_28
    2  A    between atoms: C_3  and  S_29
    3  A    between atoms: C_8  and  C_22
    4  A    between atoms: C_11  and  C_24
    5  A    between atoms: C_11  and  C_26
    6  A    between atoms: C_17  and  C_22
    7  A    between atoms: C_17  and  S_29
    8  A    between atoms: O_18  and  C_26
    9  A    between atoms: C_26  and  C_30
                            x       y       z     vdW  Elec       q    Type
                         _______ _______ _______ _____ _____    ______ ____

>  <TORSDO>
F 9

$$$$
=
 OpenBabel10222417403D

 30 32  0  0  1  0  0  0  0  0999 V2000
  187.0510  177.8270  147.0180 C   0  0  0  0  0  3  0  0  0  0  0  0
  189.5330  177.3830  145.7050 C   0  0  0  0  0  0  0  0  0  0  0  0
  186.9650  177.5510  142.4140 C   0  0  0  0  0  2  0  0  0  0  0  0
  188.2870  176.7340  145.2410 C   0  0  1  0  0  3  0  0  0  0  0  0
  190.4740  177.8960  144.8640 C   0  0  0  0  0  3  0  0  0  0  0  0
  189.5410  177.7500  147.1350 C   0  0  0  0  0  0  0  0  0  0  0  0
  188.2540  177.6410  147.9200 C   0  0  0  0  0  2  0  0  0  0  0  0
  185.8930  177.6800  144.8260 C   0  0  0  0  0  2  0  0  0  0  0  0
  188.2800  176.9060  142.7940 C   0  0  2  0  0  3  0  0  0  0  0  0
  187.0480  177.3530  145.7640 C   0  0  0  0  0  0  0  0  0  0  0  0
  190.5920  178.1530  147.7010 O   0  0  0  0  0  0  0  0  0  0  0  0
  188.2620  176.5050  143.9950 C   0  0  0  0  0  2  0  0  0  0  0  0
  186.3420  178.4450  143.5430 C   0  0  2  0  0  3  0  0  0  0  0  0
  190.5090  177.9250  143.3530 C   0  0  0  0  0  3  0  0  0  0  0  0
  189.5770  177.5420  142.4240 C   0  0  0  0  0  0  0  0  0  0  0  0
  185.5730  179.8220  141.7530 O   0  0  0  0  0  1  0  0  0  0  0  0
  185.2170  179.3390  143.0150 C   0  0  1  0  0  3  0  0  0  0  0  0
  183.8530  178.6320  142.9500 C   0  0  2  0  0  3  0  0  0  0  0  0
  182.0120  178.7680  141.7260 C   0  0  0  0  0  1  0  0  0  0  0  0
  183.3900  178.5710  141.6320 O   0  0  0  0  0  0  0  0  0  0  0  0
  183.1810  179.2600  145.1710 O   0  0  0  0  0  1  0  0  0  0  0  0
  182.8140  179.3260  143.8260 C   0  0  0  0  0  2  0  0  0  0  0  0
  189.9270  177.7060  140.9920 C   0  0  0  0  0  0  0  0  0  0  0  0
  189.0470  178.0700  140.1650 O   0  0  0  0  0  0  0  0  0  0  0  0
  191.6040  177.4630  140.3910 S   0  0  0  0  0  0  0  0  0  0  0  0
  191.0750  176.5030  138.9730 C   0  0  0  0  0  0  0  0  0  0  0  0
  190.4120  175.4910  139.1320 O   0  0  0  0  0  0  0  0  0  0  0  0
  191.4470  176.9500  137.5950 C   0  0  0  0  0  2  0  0  0  0  0  0
  192.5410  176.0720  137.0090 C   0  0  0  0  0  2  0  0  0  0  0  0
  193.7960  176.5820  137.3420 O   0  0  0  0  0  1  0  0  0  0  0  0
  1  7  1  0  0  0  0
  2  6  1  0  0  0  0
  3 13  1  0  0  0  0
  4 12  1  6  0  0  0
  4  2  1  0  0  0  0
  4 10  1  0  0  0  0
  5  2  2  0  0  0  0
  6 11  2  0  0  0  0
  6  7  1  0  0  0  0
  8 10  1  0  0  0  0
  9  3  1  1  0  0  0
  9 12  1  0  0  0  0
 10  1  2  0  0  0  0
 13 17  1  6  0  0  0
 13  8  1  0  0  0  0
 14  5  1  0  0  0  0
 15  9  1  0  0  0  0
 15 14  2  0  0  0  0
 17 16  1  6  0  0  0
 18 17  1  0  0  0  0
 18 22  1  1  0  0  0
 20 19  1  0  0  0  0
 20 18  1  0  0  0  0
 22 21  1  0  0  0  0
 23 15  1  0  0  0  0
 24 23  2  0  0  0  0
 25 23  1  0  0  0  0
 26 27  2  0  0  0  0
 26 25  1  0  0  0  0
 28 26  1  0  0  0  0
 29 30  1  0  0  0  0
 29 28  1  0  0  0  0
M  END
>  <MODEL>
3

>  <REMARK>
 VINA RESULT:      -7.0      1.762      2.357
  Name = 
  9 active torsions:
  status: ('A' for Active; 'I' for Inactive)
    1  A    between atoms: C_3  and  C_28
    2  A    between atoms: C_3  and  S_29
    3  A    between atoms: C_8  and  C_22
    4  A    between atoms: C_11  and  C_24
    5  A    between atoms: C_11  and  C_26
    6  A    between atoms: C_17  and  C_22
    7  A    between atoms: C_17  and  S_29
    8  A    between atoms: O_18  and  C_26
    9  A    between atoms: C_26  and  C_30
                            x       y       z     vdW  Elec       q    Type
                         _______ _______ _______ _____ _____    ______ ____

>  <TORSDO>
F 9

$$$$
=
 OpenBabel10222417403D

 30 32  0  0  1  0  0  0  0  0999 V2000
  191.3830  176.7210  142.7310 C   0  0  0  0  0  3  0  0  0  0  0  0
  188.9720  177.7140  143.8640 C   0  0  0  0  0  0  0  0  0  0  0  0
  188.1770  178.2800  139.8020 C   0  0  0  0  0  2  0  0  0  0  0  0
  189.6010  178.3670  142.6960 C   0  0  1  0  0  3  0  0  0  0  0  0
  187.6270  177.5350  143.9950 C   0  0  0  0  0  3  0  0  0  0  0  0
  189.9040  176.9590  144.7250 C   0  0  0  0  0  0  0  0  0  0  0  0
  191.3200  176.7390  144.2450 C   0  0  0  0  0  2  0  0  0  0  0  0
  190.5710  177.3900  140.4810 C   0  0  0  0  0  2  0  0  0  0  0  0
  187.7880  178.8930  141.1300 C   0  0  2  0  0  3  0  0  0  0  0  0
  190.6030  177.5290  141.9980 C   0  0  0  0  0  0  0  0  0  0  0  0
  189.5380  176.4970  145.8380 O   0  0  0  0  0  0  0  0  0  0  0  0
  188.7760  178.9360  141.9210 C   0  0  0  0  0  2  0  0  0  0  0  0
  189.1520  177.0570  139.9250 C   0  0  2  0  0  3  0  0  0  0  0  0
  186.5040  177.9370  143.0670 C   0  0  0  0  0  3  0  0  0  0  0  0
  186.5260  178.4930  141.8150 C   0  0  0  0  0  0  0  0  0  0  0  0
  188.0070  176.2930  137.9770 O   0  0  0  0  0  1  0  0  0  0  0  0
  189.2470  176.2630  138.6200 C   0  0  1  0  0  3  0  0  0  0  0  0
  190.3500  176.7680  137.6750 C   0  0  2  0  0  3  0  0  0  0  0  0
  190.2490  176.6480  135.4650 C   0  0  0  0  0  1  0  0  0  0  0  0
  189.7930  177.3920  136.5540 O   0  0  0  0  0  0  0  0  0  0  0  0
  191.2480  174.5880  138.1460 O   0  0  0  0  0  1  0  0  0  0  0  0
  191.2710  175.6370  137.2260 C   0  0  0  0  0  2  0  0  0  0  0  0
  185.2220  178.7680  141.1630 C   0  0  0  0  0  0  0  0  0  0  0  0
  185.0940  179.7690  140.4050 O   0  0  0  0  0  0  0  0  0  0  0  0
  183.8100  177.6750  141.3650 S   0  0  0  0  0  0  0  0  0  0  0  0
  182.9070  178.8460  142.3770 C   0  0  0  0  0  0  0  0  0  0  0  0
  181.7460  179.1140  142.1140 O   0  0  0  0  0  0  0  0  0  0  0  0
  183.5820  179.4900  143.5460 C   0  0  0  0  0  2  0  0  0  0  0  0
  183.0680  178.9200  144.8590 C   0  0  0  0  0  2  0  0  0  0  0  0
  184.0700  178.9670  145.8280 O   0  0  0  0  0  1  0  0  0  0  0  0
  1  7  1  0  0  0  0
  2  5  2  0  0  0  0
  2  6  1  0  0  0  0
  3 13  1  0  0  0  0
  4 12  1  6  0  0  0
  4  2  1  0  0  0  0
  6 11  2  0  0  0  0
  7  6  1  0  0  0  0
  8 10  1  0  0  0  0
  9  3  1  6  0  0  0
  9 15  1  0  0  0  0
  9 12  1  0  0  0  0
 10  4  1  0  0  0  0
 10  1  2  0  0  0  0
 13 17  1  6  0  0  0
 13  8  1  0  0  0  0
 14  5  1  0  0  0  0
 15 14  2  0  0  0  0
 17 16  1  6  0  0  0
 18 22  1  6  0  0  0
 18 17  1  0  0  0  0
 19 20  1  0  0  0  0
 20 18  1  0  0  0  0
 22 21  1  0  0  0  0
 23 25  1  0  0  0  0
 23 15  1  0  0  0  0
 24 23  2  0  0  0  0
 25 26  1  0  0  0  0
 26 28  1  0  0  0  0
 27 26  2  0  0  0  0
 28 29  1  0  0  0  0
 29 30  1  0  0  0  0
M  END
>  <MODEL>
4

>  <REMARK>
 VINA RESULT:      -6.7      2.103      6.429
  Name = 
  9 active torsions:
  status: ('A' for Active; 'I' for Inactive)
    1  A    between atoms: C_3  and  C_28
    2  A    between atoms: C_3  and  S_29
    3  A    between atoms: C_8  and  C_22
    4  A    between atoms: C_11  and  C_24
    5  A    between atoms: C_11  and  C_26
    6  A    between atoms: C_17  and  C_22
    7  A    between atoms: C_17  and  S_29
    8  A    between atoms: O_18  and  C_26
    9  A    between atoms: C_26  and  C_30
                            x       y       z     vdW  Elec       q    Type
                         _______ _______ _______ _____ _____    ______ ____

>  <TORSDO>
F 9

$$$$
=
 OpenBabel10222417403D

 30 32  0  0  1  0  0  0  0  0999 V2000
  186.0900  178.6890  140.8190 C   0  0  0  0  0  3  0  0  0  0  0  0
  187.2060  177.8640  138.3380 C   0  0  0  0  0  0  0  0  0  0  0  0
  190.4380  177.1500  140.8870 C   0  0  0  0  0  2  0  0  0  0  0  0
  188.0090  178.6010  139.3380 C   0  0  1  0  0  3  0  0  0  0  0  0
  187.6870  176.8200  137.6060 C   0  0  0  0  0  3  0  0  0  0  0  0
  185.7510  178.1010  138.4190 C   0  0  0  0  0  0  0  0  0  0  0  0
  185.2050  178.8660  139.6020 C   0  0  0  0  0  2  0  0  0  0  0  0
  188.2830  178.2850  141.9120 C   0  0  0  0  0  2  0  0  0  0  0  0
  190.1950  177.4940  139.4330 C   0  0  2  0  0  3  0  0  0  0  0  0
  187.4230  178.6140  140.6980 C   0  0  0  0  0  0  0  0  0  0  0  0
  184.9680  177.6740  137.5290 O   0  0  0  0  0  0  0  0  0  0  0  0
  189.2440  178.3210  139.3120 C   0  0  0  0  0  2  0  0  0  0  0  0
  189.1270  176.9850  141.7320 C   0  0  2  0  0  3  0  0  0  0  0  0
  189.0620  176.1920  137.6050 C   0  0  0  0  0  3  0  0  0  0  0  0
  190.1590  176.4260  138.3920 C   0  0  0  0  0  0  0  0  0  0  0  0
  190.2840  175.2530  142.8940 O   0  0  0  0  0  1  0  0  0  0  0  0
  189.3920  176.3120  143.0810 C   0  0  1  0  0  3  0  0  0  0  0  0
  189.9270  177.2780  144.1520 C   0  0  2  0  0  3  0  0  0  0  0  0
  191.3710  176.8650  145.7810 C   0  0  0  0  0  1  0  0  0  0  0  0
  191.2830  177.0390  144.3990 O   0  0  0  0  0  0  0  0  0  0  0  0
  187.9370  177.8670  145.3640 O   0  0  0  0  0  1  0  0  0  0  0  0
  189.1420  177.1680  145.4560 C   0  0  0  0  0  2  0  0  0  0  0  0
  191.3780  175.6220  138.1290 C   0  0  0  0  0  0  0  0  0  0  0  0
  191.2870  174.3750  137.9600 O   0  0  0  0  0  0  0  0  0  0  0  0
  193.0000  176.3800  137.9770 S   0  0  0  0  0  0  0  0  0  0  0  0
  193.5570  175.2030  136.7450 C   0  0  0  0  0  0  0  0  0  0  0  0
  193.0140  175.1570  135.6540 O   0  0  0  0  0  0  0  0  0  0  0  0
  194.6930  174.2830  137.0600 C   0  0  0  0  0  2  0  0  0  0  0  0
  195.1340  174.4310  138.5080 C   0  0  0  0  0  2  0  0  0  0  0  0
  195.3680  173.1760  139.0690 O   0  0  0  0  0  1  0  0  0  0  0  0
  2  6  1  0  0  0  0
  2  4  1  0  0  0  0
  3 13  1  0  0  0  0
  4 12  1  1  0  0  0
  4 10  1  0  0  0  0
  5  2  2  0  0  0  0
  6  7  1  0  0  0  0
  7  1  1  0  0  0  0
  9 12  1  1  0  0  0
  9  3  1  0  0  0  0
 10  1  2  0  0  0  0
 10  8  1  0  0  0  0
 11  6  2  0  0  0  0
 13  8  1  0  0  0  0
 13 17  1  1  0  0  0
 14  5  1  0  0  0  0
 14 15  2  0  0  0  0
 15  9  1  0  0  0  0
 17 16  1  6  0  0  0
 17 18  1  0  0  0  0
 18 20  1  0  0  0  0
 18 22  1  1  0  0  0
 20 19  1  0  0  0  0
 21 22  1  0  0  0  0
 23 15  1  0  0  0  0
 24 23  2  0  0  0  0
 25 23  1  0  0  0  0
 26 28  1  0  0  0  0
 26 25  1  0  0  0  0
 27 26  2  0  0  0  0
 28 29  1  0  0  0  0
 29 30  1  0  0  0  0
M  END
>  <MODEL>
5

>  <REMARK>
 VINA RESULT:      -6.6      3.217      6.458
  Name = 
  9 active torsions:
  status: ('A' for Active; 'I' for Inactive)
    1  A    between atoms: C_3  and  C_28
    2  A    between atoms: C_3  and  S_29
    3  A    between atoms: C_8  and  C_22
    4  A    between atoms: C_11  and  C_24
    5  A    between atoms: C_11  and  C_26
    6  A    between atoms: C_17  and  C_22
    7  A    between atoms: C_17  and  S_29
    8  A    between atoms: O_18  and  C_26
    9  A    between atoms: C_26  and  C_30
                            x       y       z     vdW  Elec       q    Type
                         _______ _______ _______ _____ _____    ______ ____

>  <TORSDO>
F 9

$$$$
=
 OpenBabel10222417403D

 30 32  0  0  1  0  0  0  0  0999 V2000
  183.9300  178.4810  144.4470 C   0  0  0  0  0  3  0  0  0  0  0  0
  183.7720  178.8190  141.6290 C   0  0  0  0  0  0  0  0  0  0  0  0
  187.8760  178.1820  142.0760 C   0  0  0  0  0  2  0  0  0  0  0  0
  184.8970  179.3750  142.4100 C   0  0  1  0  0  3  0  0  0  0  0  0
  183.9180  178.2290  140.4100 C   0  0  0  0  0  3  0  0  0  0  0  0
  182.5220  178.6320  142.3940 C   0  0  0  0  0  0  0  0  0  0  0  0
  182.5570  178.8070  143.8950 C   0  0  0  0  0  2  0  0  0  0  0  0
  186.4030  178.3270  144.2650 C   0  0  0  0  0  2  0  0  0  0  0  0
  186.9360  178.9000  141.1320 C   0  0  2  0  0  3  0  0  0  0  0  0
  185.0410  178.7960  143.7660 C   0  0  0  0  0  0  0  0  0  0  0  0
  181.4430  178.3280  141.8200 O   0  0  0  0  0  0  0  0  0  0  0  0
  185.9840  179.4470  141.7630 C   0  0  0  0  0  2  0  0  0  0  0  0
  187.1520  177.4200  143.2400 C   0  0  2  0  0  3  0  0  0  0  0  0
  185.1660  178.0130  139.5840 C   0  0  0  0  0  3  0  0  0  0  0  0
  186.4850  178.2550  139.8660 C   0  0  0  0  0  0  0  0  0  0  0  0
  188.6860  175.6080  143.0080 O   0  0  0  0  0  1  0  0  0  0  0  0
  188.0860  176.4400  143.9560 C   0  0  1  0  0  3  0  0  0  0  0  0
  189.1580  177.1320  144.8140 C   0  0  2  0  0  3  0  0  0  0  0  0
  191.0870  178.0150  144.1760 C   0  0  0  0  0  1  0  0  0  0  0  0
  190.4400  176.7930  144.3710 O   0  0  0  0  0  0  0  0  0  0  0  0
  188.6300  177.8970  147.0310 O   0  0  0  0  0  1  0  0  0  0  0  0
  189.0160  176.7780  146.2910 C   0  0  0  0  0  2  0  0  0  0  0  0
  187.4830  177.9230  138.8200 C   0  0  0  0  0  0  0  0  0  0  0  0
  187.2270  177.0330  137.9630 O   0  0  0  0  0  0  0  0  0  0  0  0
  189.0460  178.8000  138.6870 S   0  0  0  0  0  0  0  0  0  0  0  0
  190.0250  177.3100  138.8740 C   0  0  0  0  0  0  0  0  0  0  0  0
  190.1850  176.8180  139.9780 O   0  0  0  0  0  0  0  0  0  0  0  0
  190.6410  176.6730  137.6690 C   0  0  0  0  0  2  0  0  0  0  0  0
  191.1360  175.2700  137.9820 C   0  0  0  0  0  2  0  0  0  0  0  0
  190.1890  174.3260  137.5850 O   0  0  0  0  0  1  0  0  0  0  0  0
  2  6  1  0  0  0  0
  2  4  1  0  0  0  0
  3 13  1  0  0  0  0
  4 12  1  6  0  0  0
  4 10  1  0  0  0  0
  5  2  2  0  0  0  0
  6  7  1  0  0  0  0
  7  1  1  0  0  0  0
  9 12  1  1  0  0  0
  9  3  1  0  0  0  0
 10  8  1  0  0  0  0
 10  1  2  0  0  0  0
 11  6  2  0  0  0  0
 13 17  1  1  0  0  0
 13  8  1  0  0  0  0
 14 15  2  0  0  0  0
 14  5  1  0  0  0  0
 15  9  1  0  0  0  0
 17 16  1  6  0  0  0
 17 18  1  0  0  0  0
 18 22  1  1  0  0  0
 19 20  1  0  0  0  0
 20 18  1  0  0  0  0
 22 21  1  0  0  0  0
 23 15  1  0  0  0  0
 24 23  2  0  0  0  0
 25 23  1  0  0  0  0
 25 26  1  0  0  0  0
 26 27  2  0  0  0  0
 28 29  1  0  0  0  0
 28 26  1  0  0  0  0
 30 29  1  0  0  0  0
M  END
>  <MODEL>
6

>  <REMARK>
 VINA RESULT:      -6.4      2.082      5.524
  Name = 
  9 active torsions:
  status: ('A' for Active; 'I' for Inactive)
    1  A    between atoms: C_3  and  C_28
    2  A    between atoms: C_3  and  S_29
    3  A    between atoms: C_8  and  C_22
    4  A    between atoms: C_11  and  C_24
    5  A    between atoms: C_11  and  C_26
    6  A    between atoms: C_17  and  C_22
    7  A    between atoms: C_17  and  S_29
    8  A    between atoms: O_18  and  C_26
    9  A    between atoms: C_26  and  C_30
                            x       y       z     vdW  Elec       q    Type
                         _______ _______ _______ _____ _____    ______ ____

>  <TORSDO>
F 9

$$$$
=
 OpenBabel10222417403D

 30 32  0  0  1  0  0  0  0  0999 V2000
  191.2940  177.1320  140.8200 C   0  0  0  0  0  3  0  0  0  0  0  0
  188.5480  177.8200  140.5660 C   0  0  0  0  0  0  0  0  0  0  0  0
  188.6950  176.8170  144.6180 C   0  0  0  0  0  2  0  0  0  0  0  0
  188.9840  176.6860  141.4080 C   0  0  1  0  0  3  0  0  0  0  0  0
  187.5630  178.6910  140.9240 C   0  0  0  0  0  3  0  0  0  0  0  0
  189.4720  178.1630  139.4660 C   0  0  0  0  0  0  0  0  0  0  0  0
  190.8300  177.5020  139.4260 C   0  0  0  0  0  2  0  0  0  0  0  0
  190.8850  176.4750  143.1810 C   0  0  0  0  0  2  0  0  0  0  0  0
  187.6900  176.8210  143.4870 C   0  0  2  0  0  3  0  0  0  0  0  0
  190.4260  176.6970  141.7450 C   0  0  0  0  0  0  0  0  0  0  0  0
  189.1480  178.9920  138.5740 O   0  0  0  0  0  0  0  0  0  0  0  0
  188.2260  176.4610  142.3980 C   0  0  0  0  0  2  0  0  0  0  0  0
  190.1130  177.3520  144.2140 C   0  0  2  0  0  3  0  0  0  0  0  0
  186.7070  178.7230  142.1690 C   0  0  0  0  0  3  0  0  0  0  0  0
  186.7460  177.9620  143.3080 C   0  0  0  0  0  0  0  0  0  0  0  0
  190.8430  179.0020  145.7740 O   0  0  0  0  0  1  0  0  0  0  0  0
  190.9840  177.6550  145.4360 C   0  0  1  0  0  3  0  0  0  0  0  0
  190.6670  176.7640  146.6490 C   0  0  2  0  0  3  0  0  0  0  0  0
  188.9340  177.2250  147.9510 C   0  0  0  0  0  1  0  0  0  0  0  0
  190.2780  177.5420  147.7450 O   0  0  0  0  0  0  0  0  0  0  0  0
  192.4880  176.3980  148.1750 O   0  0  0  0  0  1  0  0  0  0  0  0
  191.8570  175.8910  147.0370 C   0  0  0  0  0  2  0  0  0  0  0  0
  185.7460  178.2550  144.3650 C   0  0  0  0  0  0  0  0  0  0  0  0
  185.6120  177.4680  145.3420 O   0  0  0  0  0  0  0  0  0  0  0  0
  184.7460  179.7480  144.3370 S   0  0  0  0  0  0  0  0  0  0  0  0
  183.3470  178.9290  143.5700 C   0  0  0  0  0  0  0  0  0  0  0  0
  183.4310  178.5220  142.4230 O   0  0  0  0  0  0  0  0  0  0  0  0
  182.0810  178.7460  144.3440 C   0  0  0  0  0  2  0  0  0  0  0  0
  180.9170  178.4200  143.4230 C   0  0  0  0  0  2  0  0  0  0  0  0
  179.7310  178.3500  144.1540 O   0  0  0  0  0  1  0  0  0  0  0  0
  1 10  2  0  0  0  0
  2  5  2  0  0  0  0
  2  4  1  0  0  0  0
  4 10  1  0  0  0  0
  4 12  1  1  0  0  0
  5 14  1  0  0  0  0
  6  2  1  0  0  0  0
  7  6  1  0  0  0  0
  7  1  1  0  0  0  0
  8 13  1  0  0  0  0
  9 12  1  6  0  0  0
  9  3  1  0  0  0  0
 10  8  1  0  0  0  0
 11  6  2  0  0  0  0
 13  3  1  0  0  0  0
 13 17  1  1  0  0  0
 14 15  2  0  0  0  0
 15  9  1  0  0  0  0
 15 23  1  0  0  0  0
 17 16  1  1  0  0  0
 17 18  1  0  0  0  0
 18 22  1  1  0  0  0
 18 20  1  0  0  0  0
 20 19  1  0  0  0  0
 22 21  1  0  0  0  0
 23 24  2  0  0  0  0
 25 23  1  0  0  0  0
 26 25  1  0  0  0  0
 26 28  1  0  0  0  0
 27 26  2  0  0  0  0
 29 30  1  0  0  0  0
 29 28  1  0  0  0  0
M  END
>  <MODEL>
7

>  <REMARK>
 VINA RESULT:      -6.2      2.244      6.744
  Name = 
  9 active torsions:
  status: ('A' for Active; 'I' for Inactive)
    1  A    between atoms: C_3  and  C_28
    2  A    between atoms: C_3  and  S_29
    3  A    between atoms: C_8  and  C_22
    4  A    between atoms: C_11  and  C_24
    5  A    between atoms: C_11  and  C_26
    6  A    between atoms: C_17  and  C_22
    7  A    between atoms: C_17  and  S_29
    8  A    between atoms: O_18  and  C_26
    9  A    between atoms: C_26  and  C_30
                            x       y       z     vdW  Elec       q    Type
                         _______ _______ _______ _____ _____    ______ ____

>  <TORSDO>
F 9

$$$$
=
 OpenBabel10222417403D

 30 32  0  0  1  0  0  0  0  0999 V2000
  191.5390  176.6570  142.7990 C   0  0  0  0  0  3  0  0  0  0  0  0
  189.1690  177.6470  144.0180 C   0  0  0  0  0  0  0  0  0  0  0  0
  188.2740  178.3140  139.9920 C   0  0  0  0  0  2  0  0  0  0  0  0
  189.7740  178.3200  142.8480 C   0  0  1  0  0  3  0  0  0  0  0  0
  187.8270  177.4790  144.1800 C   0  0  0  0  0  3  0  0  0  0  0  0
  190.1160  176.8640  144.8360 C   0  0  0  0  0  0  0  0  0  0  0  0
  191.5160  176.6420  144.3140 C   0  0  0  0  0  2  0  0  0  0  0  0
  190.6750  177.3850  140.5860 C   0  0  0  0  0  2  0  0  0  0  0  0
  187.9260  178.9000  141.3430 C   0  0  2  0  0  3  0  0  0  0  0  0
  190.7490  177.4890  142.1050 C   0  0  0  0  0  0  0  0  0  0  0  0
  189.7740  176.3800  145.9480 O   0  0  0  0  0  0  0  0  0  0  0  0
  188.9350  178.9150  142.1080 C   0  0  0  0  0  2  0  0  0  0  0  0
  189.2390  177.0790  140.0610 C   0  0  2  0  0  3  0  0  0  0  0  0
  186.6830  177.9130  143.2920 C   0  0  0  0  0  3  0  0  0  0  0  0
  186.6780  178.4960  142.0520 C   0  0  0  0  0  0  0  0  0  0  0  0
  188.0370  176.3780  138.1240 O   0  0  0  0  0  1  0  0  0  0  0  0
  189.2910  176.3130  138.7360 C   0  0  1  0  0  3  0  0  0  0  0  0
  190.3800  176.8220  137.7780 C   0  0  2  0  0  3  0  0  0  0  0  0
  190.2410  176.7500  135.5680 C   0  0  0  0  0  1  0  0  0  0  0  0
  189.8080  177.4740  136.6800 O   0  0  0  0  0  0  0  0  0  0  0  0
  190.9920  174.5060  137.9710 O   0  0  0  0  0  1  0  0  0  0  0  0
  191.2790  175.6900  137.2900 C   0  0  0  0  0  2  0  0  0  0  0  0
  185.3600  178.7990  141.4410 C   0  0  0  0  0  0  0  0  0  0  0  0
  185.3020  179.3780  140.3210 O   0  0  0  0  0  0  0  0  0  0  0  0
  183.8180  178.3080  142.2210 S   0  0  0  0  0  0  0  0  0  0  0  0
  182.9760  178.0640  140.6570 C   0  0  0  0  0  0  0  0  0  0  0  0
  183.2900  177.1350  139.9320 O   0  0  0  0  0  0  0  0  0  0  0  0
  181.8850  179.0020  140.2490 C   0  0  0  0  0  2  0  0  0  0  0  0
  182.0350  179.4200  138.7950 C   0  0  0  0  0  2  0  0  0  0  0  0
  182.5880  180.6980  138.7170 O   0  0  0  0  0  1  0  0  0  0  0  0
  1  7  1  0  0  0  0
  2  5  2  0  0  0  0
  2  6  1  0  0  0  0
  3 13  1  0  0  0  0
  4 12  1  6  0  0  0
  4  2  1  0  0  0  0
  6 11  2  0  0  0  0
  7  6  1  0  0  0  0
  8 10  1  0  0  0  0
  9  3  1  6  0  0  0
  9 15  1  0  0  0  0
  9 12  1  0  0  0  0
 10  1  2  0  0  0  0
 10  4  1  0  0  0  0
 13 17  1  6  0  0  0
 13  8  1  0  0  0  0
 14  5  1  0  0  0  0
 15 14  2  0  0  0  0
 17 16  1  6  0  0  0
 18 22  1  6  0  0  0
 18 17  1  0  0  0  0
 19 20  1  0  0  0  0
 20 18  1  0  0  0  0
 22 21  1  0  0  0  0
 23 15  1  0  0  0  0
 23 25  1  0  0  0  0
 24 23  2  0  0  0  0
 26 25  1  0  0  0  0
 27 26  2  0  0  0  0
 28 26  1  0  0  0  0
 29 28  1  0  0  0  0
 30 29  1  0  0  0  0
M  END
>  <MODEL>
8

>  <REMARK>
 VINA RESULT:      -6.1      2.558      5.951
  Name = 
  9 active torsions:
  status: ('A' for Active; 'I' for Inactive)
    1  A    between atoms: C_3  and  C_28
    2  A    between atoms: C_3  and  S_29
    3  A    between atoms: C_8  and  C_22
    4  A    between atoms: C_11  and  C_24
    5  A    between atoms: C_11  and  C_26
    6  A    between atoms: C_17  and  C_22
    7  A    between atoms: C_17  and  S_29
    8  A    between atoms: O_18  and  C_26
    9  A    between atoms: C_26  and  C_30
                            x       y       z     vdW  Elec       q    Type
                         _______ _______ _______ _____ _____    ______ ____

>  <TORSDO>
F 9

$$$$
=
 OpenBabel10222417403D

 30 32  0  0  1  0  0  0  0  0999 V2000
  188.6870  177.2460  134.9860 C   0  0  0  0  0  3  0  0  0  0  0  0
  190.3670  176.8610  137.2470 C   0  0  0  0  0  0  0  0  0  0  0  0
  186.9980  178.5050  139.0900 C   0  0  0  0  0  2  0  0  0  0  0  0
  189.5110  178.0600  137.1170 C   0  0  1  0  0  3  0  0  0  0  0  0
  190.5500  176.1870  138.4170 C   0  0  0  0  0  3  0  0  0  0  0  0
  190.7430  176.2300  135.9660 C   0  0  0  0  0  0  0  0  0  0  0  0
  190.0730  176.7060  134.6980 C   0  0  0  0  0  2  0  0  0  0  0  0
  187.0040  178.3340  136.4530 C   0  0  0  0  0  2  0  0  0  0  0  0
  188.4920  178.4320  139.3170 C   0  0  2  0  0  3  0  0  0  0  0  0
  188.4330  177.9310  136.1100 C   0  0  0  0  0  0  0  0  0  0  0  0
  191.6000  175.3080  135.9180 O   0  0  0  0  0  0  0  0  0  0  0  0
  189.1260  178.5370  138.2260 C   0  0  0  0  0  2  0  0  0  0  0  0
  186.5090  177.7430  137.8090 C   0  0  2  0  0  3  0  0  0  0  0  0
  189.9880  176.4680  139.7920 C   0  0  0  0  0  3  0  0  0  0  0  0
  189.0780  177.3990  140.2200 C   0  0  0  0  0  0  0  0  0  0  0  0
  184.7060  176.1960  137.5870 O   0  0  0  0  0  1  0  0  0  0  0  0
  184.9900  177.5470  137.7990 C   0  0  1  0  0  3  0  0  0  0  0  0
  184.3020  178.0420  139.0820 C   0  0  2  0  0  3  0  0  0  0  0  0
  182.1750  177.6230  139.5390 C   0  0  0  0  0  1  0  0  0  0  0  0
  183.4500  177.0590  139.5970 O   0  0  0  0  0  0  0  0  0  0  0  0
  184.3140  180.4460  139.0840 O   0  0  0  0  0  1  0  0  0  0  0  0
  183.5140  179.3270  138.8430 C   0  0  0  0  0  2  0  0  0  0  0  0
  188.7320  177.4100  141.6620 C   0  0  0  0  0  0  0  0  0  0  0  0
  187.9590  178.2960  142.1190 O   0  0  0  0  0  0  0  0  0  0  0  0
  189.3340  176.1490  142.7920 S   0  0  0  0  0  0  0  0  0  0  0  0
  190.5170  177.2500  143.5680 C   0  0  0  0  0  0  0  0  0  0  0  0
  191.6270  177.3950  143.0840 O   0  0  0  0  0  0  0  0  0  0  0  0
  190.1330  177.9930  144.8080 C   0  0  0  0  0  2  0  0  0  0  0  0
  189.0100  177.2850  145.5470 C   0  0  0  0  0  2  0  0  0  0  0  0
  187.8420  178.0440  145.4890 O   0  0  0  0  0  1  0  0  0  0  0  0
  1 10  2  0  0  0  0
  2  5  2  0  0  0  0
  3  9  1  0  0  0  0
  4  2  1  0  0  0  0
  4 12  1  1  0  0  0
  5 14  1  0  0  0  0
  6  2  1  0  0  0  0
  7  1  1  0  0  0  0
  7  6  1  0  0  0  0
  8 13  1  0  0  0  0
  9 12  1  6  0  0  0
  9 15  1  0  0  0  0
 10  8  1  0  0  0  0
 10  4  1  0  0  0  0
 11  6  2  0  0  0  0
 13 17  1  6  0  0  0
 13  3  1  0  0  0  0
 14 15  2  0  0  0  0
 15 23  1  0  0  0  0
 17 16  1  1  0  0  0
 17 18  1  0  0  0  0
 18 22  1  6  0  0  0
 18 20  1  0  0  0  0
 19 20  1  0  0  0  0
 22 21  1  0  0  0  0
 23 24  2  0  0  0  0
 23 25  1  0  0  0  0
 25 26  1  0  0  0  0
 26 28  1  0  0  0  0
 27 26  2  0  0  0  0
 28 29  1  0  0  0  0
 30 29  1  0  0  0  0
M  END
>  <MODEL>
9

>  <REMARK>
 VINA RESULT:      -5.9      2.642      6.754
  Name = 
  9 active torsions:
  status: ('A' for Active; 'I' for Inactive)
    1  A    between atoms: C_3  and  C_28
    2  A    between atoms: C_3  and  S_29
    3  A    between atoms: C_8  and  C_22
    4  A    between atoms: C_11  and  C_24
    5  A    between atoms: C_11  and  C_26
    6  A    between atoms: C_17  and  C_22
    7  A    between atoms: C_17  and  S_29
    8  A    between atoms: O_18  and  C_26
    9  A    between atoms: C_26  and  C_30
                            x       y       z     vdW  Elec       q    Type
                         _______ _______ _______ _____ _____    ______ ____

>  <TORSDO>
F 9

$$$$
