=
 OpenBabel10222420413D

 42 44  0  0  1  0  0  0  0  0999 V2000
  184.4090  178.4420  143.0150 C   0  0  0  0  0  0  0  0  0  0  0  0
  185.6470  178.0260  142.5040 C   0  0  0  0  0  3  0  0  0  0  0  0
  186.5770  177.9790  144.7450 C   0  0  0  0  0  0  0  0  0  0  0  0
  185.3410  178.3890  145.2560 C   0  0  0  0  0  3  0  0  0  0  0  0
  186.7320  177.7960  143.3580 C   0  0  0  0  0  0  0  0  0  0  0  0
  184.2660  178.6220  144.3970 C   0  0  0  0  0  3  0  0  0  0  0  0
  183.4170  178.7330  140.7620 N   0  0  0  0  0  0  0  0  0  0  0  0
  182.1330  179.0560  138.7150 N   0  0  0  0  0  2  0  0  0  0  0  0
  180.9870  179.1310  141.2300 S   0  0  0  0  0  0  0  0  0  0  0  0
  183.2640  178.6840  142.1160 C   0  0  0  0  0  0  0  0  0  0  0  0
  181.9610  178.8860  142.5830 C   0  0  0  0  0  3  0  0  0  0  0  0
  182.2490  178.9730  140.1370 C   0  0  0  0  0  0  0  0  0  0  0  0
  180.8770  179.3510  138.0400 C   0  0  1  0  0  3  0  0  0  0  0  0
  180.7540  180.8470  137.8150 C   0  0  0  0  0  1  0  0  0  0  0  0
  180.7920  179.7200  135.8610 C   0  0  0  0  0  1  0  0  0  0  0  0
  180.8480  178.6960  136.8080 O   0  0  0  0  0  0  0  0  0  0  0  0
  187.6940  177.7150  145.6980 C   0  0  0  0  0  2  0  0  0  0  0  0
  187.3070  178.1310  147.0360 N   0  0  0  0  0  2  0  0  0  0  0  0
  188.3710  177.7170  147.9360 C   0  0  0  0  0  2  0  0  0  0  0  0
  189.2770  176.7270  147.2330 C   0  0  0  0  0  2  0  0  0  0  0  0
  190.7250  177.1050  147.4810 C   0  0  0  0  0  2  0  0  0  0  0  0
  191.6210  176.3550  146.5500 C   0  0  0  0  0  0  0  0  0  0  0  0
  192.4150  175.5390  146.9870 O   0  0  0  0  0  0  0  0  0  0  0  0
  191.5470  177.9650  144.8240 O   0  0  0  0  0  1  0  0  0  0  0  0
  191.5400  176.5940  145.0800 C   0  0  0  0  0  2  0  0  0  0  0  0
  188.2950  177.2680  142.6490 S   0  0  0  0  0  0  0  0  0  0  0  0
  188.2140  178.5100  141.3220 C   0  0  0  0  0  2  0  0  0  0  0  0
  187.8200  177.8770  140.0730 N   0  0  0  0  0  2  0  0  0  0  0  0
  189.1420  179.2640  138.7370 O   0  0  0  0  0  0  0  0  0  0  0  0
  188.3600  178.2790  138.8110 C   0  0  0  0  0  0  0  0  0  0  0  0
  188.0090  177.5730  137.6210 N   0  0  0  0  0  2  0  0  0  0  0  0
  185.6540  173.8810  137.2330 C   0  0  0  0  0  2  0  0  0  0  0  0
  185.1120  177.4720  137.8400 O   0  0  0  0  0  0  0  0  0  0  0  0
  187.1890  176.3680  137.6490 C   0  0  1  0  0  3  0  0  0  0  0  0
  185.8020  176.7170  137.1700 C   0  0  0  0  0  0  0  0  0  0  0  0
  184.7890  174.6180  136.2010 C   0  0  0  0  0  2  0  0  0  0  0  0
  187.1560  173.8700  136.9140 C   0  0  1  0  0  3  0  0  0  0  0  0
  189.3150  175.0800  137.1630 C   0  0  0  0  0  1  0  0  0  0  0  0
  187.4340  173.0370  135.6740 C   0  0  0  0  0  1  0  0  0  0  0  0
  187.8440  175.2460  136.8080 C   0  0  2  0  0  3  0  0  0  0  0  0
  185.2380  176.0560  135.9350 C   0  0  1  0  0  3  0  0  0  0  0  0
  184.1100  176.8540  135.3040 C   0  0  0  0  0  1  0  0  0  0  0  0
  1  6  1  0  0  0  0
  2  1  2  0  0  0  0
  2  5  1  0  0  0  0
  3  4  1  0  0  0  0
  3 17  1  0  0  0  0
  5  3  2  0  0  0  0
  6  4  2  0  0  0  0
  7 10  1  0  0  0  0
  8 12  1  0  0  0  0
  9 11  1  0  0  0  0
 10 11  2  0  0  0  0
 10  1  1  0  0  0  0
 12  7  2  0  0  0  0
 12  9  1  0  0  0  0
 13 14  1  6  0  0  0
 13  8  1  0  0  0  0
 15 16  1  0  0  0  0
 16 13  1  0  0  0  0
 17 18  1  0  0  0  0
 18 19  1  0  0  0  0
 20 21  1  0  0  0  0
 20 19  1  0  0  0  0
 22 23  2  0  0  0  0
 22 21  1  0  0  0  0
 24 25  1  0  0  0  0
 25 22  1  0  0  0  0
 26  5  1  0  0  0  0
 27 26  1  0  0  0  0
 28 27  1  0  0  0  0
 29 30  2  0  0  0  0
 30 28  1  0  0  0  0
 31 30  1  0  0  0  0
 34 31  1  6  0  0  0
 35 34  1  0  0  0  0
 35 33  2  0  0  0  0
 36 32  1  0  0  0  0
 37 39  1  6  0  0  0
 37 32  1  0  0  0  0
 40 37  1  0  0  0  0
 40 38  1  1  0  0  0
 40 34  1  0  0  0  0
 41 42  1  1  0  0  0
 41 36  1  0  0  0  0
 41 35  1  0  0  0  0
M  END
>  <MODEL>
1

>  <REMARK>
 VINA RESULT:      -7.8      0.000      0.000
  Name = 
  14 active torsions:
  status: ('A' for Active; 'I' for Inactive)
    1  A    between atoms: C_1  and  C_7
    2  A    between atoms: C_1  and  C_27
    3  A    between atoms: C_2  and  N_20
    4  A    between atoms: C_2  and  C_22
    5  A    between atoms: C_6  and  C_26
    6  A    between atoms: C_8  and  N_29
    7  A    between atoms: N_12  and  C_25
    8  A    between atoms: C_16  and  C_19
    9  A    between atoms: C_19  and  N_20
   10  A    between atoms: N_21  and  C_38
   11  A    between atoms: C_22  and  C_27
   12  A    between atoms: C_25  and  O_41
   13  A    between atoms: S_28  and  C_38
   14  A    between atoms: S_28  and  C_39
                            x       y       z     vdW  Elec       q    Type
                         _______ _______ _______ _____ _____    ______ ____

>  <TORSDO>
F 14

$$$$
=
 OpenBabel10222420413D

 42 44  0  0  1  0  0  0  0  0999 V2000
  183.8690  178.6180  143.6960 C   0  0  0  0  0  0  0  0  0  0  0  0
  185.0170  178.1930  143.0100 C   0  0  0  0  0  3  0  0  0  0  0  0
  186.2510  178.0990  145.0970 C   0  0  0  0  0  0  0  0  0  0  0  0
  185.1070  178.5180  145.7820 C   0  0  0  0  0  3  0  0  0  0  0  0
  186.2070  177.9340  143.6990 C   0  0  0  0  0  0  0  0  0  0  0  0
  183.9250  178.7800  145.0860 C   0  0  0  0  0  3  0  0  0  0  0  0
  182.5340  178.7810  141.6140 N   0  0  0  0  0  0  0  0  0  0  0  0
  180.9510  179.0290  139.7770 N   0  0  0  0  0  2  0  0  0  0  0  0
  180.2670  179.4890  142.4160 S   0  0  0  0  0  0  0  0  0  0  0  0
  182.6140  178.8900  142.9710 C   0  0  0  0  0  0  0  0  0  0  0  0
  181.4340  179.2810  143.6140 C   0  0  0  0  0  3  0  0  0  0  0  0
  181.3020  179.0810  141.1610 C   0  0  0  0  0  0  0  0  0  0  0  0
  179.6300  179.3880  139.2820 C   0  0  1  0  0  3  0  0  0  0  0  0
  179.5870  180.8720  138.9630 C   0  0  0  0  0  1  0  0  0  0  0  0
  180.3150  177.6480  138.1030 C   0  0  0  0  0  1  0  0  0  0  0  0
  179.3540  178.6600  138.1240 O   0  0  0  0  0  0  0  0  0  0  0  0
  187.4870  177.8040  145.8800 C   0  0  0  0  0  2  0  0  0  0  0  0
  187.3110  178.2340  147.2570 N   0  0  0  0  0  2  0  0  0  0  0  0
  188.2940  177.5210  148.0550 C   0  0  0  0  0  2  0  0  0  0  0  0
  189.2380  176.7630  147.1440 C   0  0  0  0  0  2  0  0  0  0  0  0
  190.6700  177.1220  147.4920 C   0  0  0  0  0  2  0  0  0  0  0  0
  191.6180  176.3990  146.5920 C   0  0  0  0  0  0  0  0  0  0  0  0
  192.4220  175.6080  147.0560 O   0  0  0  0  0  0  0  0  0  0  0  0
  191.5270  178.0010  144.8600 O   0  0  0  0  0  1  0  0  0  0  0  0
  191.5750  176.6320  145.1200 C   0  0  0  0  0  2  0  0  0  0  0  0
  187.6460  177.3960  142.7700 S   0  0  0  0  0  0  0  0  0  0  0  0
  187.4350  178.6980  141.5180 C   0  0  0  0  0  2  0  0  0  0  0  0
  187.2250  178.1000  140.2100 N   0  0  0  0  0  2  0  0  0  0  0  0
  185.3780  179.4320  139.6910 O   0  0  0  0  0  0  0  0  0  0  0  0
  186.1960  178.5480  139.3220 C   0  0  0  0  0  0  0  0  0  0  0  0
  186.0810  177.9890  138.0140 N   0  0  0  0  0  2  0  0  0  0  0  0
  188.9620  175.3430  136.0070 C   0  0  0  0  0  2  0  0  0  0  0  0
  185.6360  175.1500  137.5760 O   0  0  0  0  0  0  0  0  0  0  0  0
  187.0520  177.0360  137.4910 C   0  0  1  0  0  3  0  0  0  0  0  0
  186.3080  175.8840  136.8640 C   0  0  0  0  0  0  0  0  0  0  0  0
  187.8120  174.8870  135.0990 C   0  0  0  0  0  2  0  0  0  0  0  0
  189.1970  176.8600  136.0240 C   0  0  1  0  0  3  0  0  0  0  0  0
  188.5730  179.0210  137.0860 C   0  0  0  0  0  1  0  0  0  0  0  0
  189.7040  177.3390  134.6740 C   0  0  0  0  0  1  0  0  0  0  0  0
  188.0160  177.7310  136.5000 C   0  0  2  0  0  3  0  0  0  0  0  0
  186.4800  175.5800  135.3950 C   0  0  1  0  0  3  0  0  0  0  0  0
  185.3260  174.7750  134.8220 C   0  0  0  0  0  1  0  0  0  0  0  0
  1  6  1  0  0  0  0
  2  1  2  0  0  0  0
  2  5  1  0  0  0  0
  3  4  1  0  0  0  0
  3 17  1  0  0  0  0
  5  3  2  0  0  0  0
  6  4  2  0  0  0  0
  7 10  1  0  0  0  0
  8 12  1  0  0  0  0
  9 11  1  0  0  0  0
 10 11  2  0  0  0  0
 10  1  1  0  0  0  0
 12  7  2  0  0  0  0
 12  9  1  0  0  0  0
 13 14  1  6  0  0  0
 13  8  1  0  0  0  0
 15 16  1  0  0  0  0
 16 13  1  0  0  0  0
 17 18  1  0  0  0  0
 18 19  1  0  0  0  0
 20 21  1  0  0  0  0
 20 19  1  0  0  0  0
 22 23  2  0  0  0  0
 22 21  1  0  0  0  0
 24 25  1  0  0  0  0
 25 22  1  0  0  0  0
 26  5  1  0  0  0  0
 27 26  1  0  0  0  0
 28 27  1  0  0  0  0
 30 29  2  0  0  0  0
 30 28  1  0  0  0  0
 31 30  1  0  0  0  0
 32 37  1  0  0  0  0
 34 31  1  6  0  0  0
 35 34  1  0  0  0  0
 35 33  2  0  0  0  0
 36 41  1  0  0  0  0
 36 32  1  0  0  0  0
 37 39  1  6  0  0  0
 37 40  1  0  0  0  0
 40 38  1  1  0  0  0
 40 34  1  0  0  0  0
 41 42  1  1  0  0  0
 41 35  1  0  0  0  0
M  END
>  <MODEL>
2

>  <REMARK>
 VINA RESULT:      -7.4      1.468      1.954
  Name = 
  14 active torsions:
  status: ('A' for Active; 'I' for Inactive)
    1  A    between atoms: C_1  and  C_7
    2  A    between atoms: C_1  and  C_27
    3  A    between atoms: C_2  and  N_20
    4  A    between atoms: C_2  and  C_22
    5  A    between atoms: C_6  and  C_26
    6  A    between atoms: C_8  and  N_29
    7  A    between atoms: N_12  and  C_25
    8  A    between atoms: C_16  and  C_19
    9  A    between atoms: C_19  and  N_20
   10  A    between atoms: N_21  and  C_38
   11  A    between atoms: C_22  and  C_27
   12  A    between atoms: C_25  and  O_41
   13  A    between atoms: S_28  and  C_38
   14  A    between atoms: S_28  and  C_39
                            x       y       z     vdW  Elec       q    Type
                         _______ _______ _______ _____ _____    ______ ____

>  <TORSDO>
F 14

$$$$
=
 OpenBabel10222420413D

 42 44  0  0  1  0  0  0  0  0999 V2000
  190.8050  176.9920  140.5940 C   0  0  0  0  0  0  0  0  0  0  0  0
  189.4470  177.2820  140.7880 C   0  0  0  0  0  3  0  0  0  0  0  0
  189.8560  177.7100  143.1420 C   0  0  0  0  0  0  0  0  0  0  0  0
  191.2120  177.4260  142.9480 C   0  0  0  0  0  3  0  0  0  0  0  0
  188.9660  177.6370  142.0540 C   0  0  0  0  0  0  0  0  0  0  0  0
  191.6830  177.0660  141.6840 C   0  0  0  0  0  3  0  0  0  0  0  0
  192.5970  176.8870  138.8840 N   0  0  0  0  0  0  0  0  0  0  0  0
  194.1210  176.6180  137.0010 N   0  0  0  0  0  2  0  0  0  0  0  0
  191.4960  175.7530  136.9390 S   0  0  0  0  0  0  0  0  0  0  0  0
  191.3140  176.6190  139.2600 C   0  0  0  0  0  0  0  0  0  0  0  0
  190.5260  175.9790  138.2980 C   0  0  0  0  0  3  0  0  0  0  0  0
  192.8470  176.4700  137.6290 C   0  0  0  0  0  0  0  0  0  0  0  0
  194.3820  176.2000  135.6310 C   0  0  1  0  0  3  0  0  0  0  0  0
  195.3600  177.1600  134.9780 C   0  0  0  0  0  1  0  0  0  0  0  0
  196.2540  175.0940  136.0360 C   0  0  0  0  0  1  0  0  0  0  0  0
  194.9290  174.9160  135.6340 O   0  0  0  0  0  0  0  0  0  0  0  0
  189.3970  178.1150  144.5020 C   0  0  0  0  0  2  0  0  0  0  0  0
  188.8140  176.9720  145.1850 N   0  0  0  0  0  2  0  0  0  0  0  0
  188.9080  177.2340  146.6110 C   0  0  0  0  0  2  0  0  0  0  0  0
  187.5530  177.6600  147.1420 C   0  0  0  0  0  2  0  0  0  0  0  0
  186.5620  177.7300  145.9950 C   0  0  0  0  0  2  0  0  0  0  0  0
  185.5100  178.7500  146.2840 C   0  0  0  0  0  0  0  0  0  0  0  0
  185.6300  179.5030  147.2360 O   0  0  0  0  0  0  0  0  0  0  0  0
  184.6690  179.4600  144.1940 O   0  0  0  0  0  1  0  0  0  0  0  0
  184.3130  178.8580  145.4010 C   0  0  0  0  0  2  0  0  0  0  0  0
  187.2170  177.9940  142.2450 S   0  0  0  0  0  0  0  0  0  0  0  0
  187.1380  178.8990  140.6690 C   0  0  0  0  0  2  0  0  0  0  0  0
  185.7810  178.8660  140.1460 N   0  0  0  0  0  2  0  0  0  0  0  0
  186.3760  177.7980  138.1560 O   0  0  0  0  0  0  0  0  0  0  0  0
  185.4620  178.2570  138.8910 C   0  0  0  0  0  0  0  0  0  0  0  0
  184.1050  178.1720  138.4570 N   0  0  0  0  0  2  0  0  0  0  0  0
  180.4590  179.2460  140.6680 C   0  0  0  0  0  2  0  0  0  0  0  0
  183.2370  180.9090  138.9130 O   0  0  0  0  0  0  0  0  0  0  0  0
  182.9940  178.5940  139.3020 C   0  0  1  0  0  3  0  0  0  0  0  0
  182.5030  179.9350  138.8180 C   0  0  0  0  0  0  0  0  0  0  0  0
  180.0730  180.1280  139.4730 C   0  0  0  0  0  2  0  0  0  0  0  0
  180.7370  177.7780  140.3130 C   0  0  1  0  0  3  0  0  0  0  0  0
  182.4520  176.1350  139.5760 C   0  0  0  0  0  1  0  0  0  0  0  0
  179.4620  177.0870  139.8600 C   0  0  0  0  0  1  0  0  0  0  0  0
  181.8800  177.5200  139.3100 C   0  0  2  0  0  3  0  0  0  0  0  0
  181.0840  180.0900  138.3250 C   0  0  1  0  0  3  0  0  0  0  0  0
  180.9040  181.2980  137.4210 C   0  0  0  0  0  1  0  0  0  0  0  0
  1  2  2  0  0  0  0
  1  6  1  0  0  0  0
  2  5  1  0  0  0  0
  3 17  1  0  0  0  0
  4  3  1  0  0  0  0
  5 26  1  0  0  0  0
  5  3  2  0  0  0  0
  6  4  2  0  0  0  0
  7 10  1  0  0  0  0
  8 12  1  0  0  0  0
  9 12  1  0  0  0  0
  9 11  1  0  0  0  0
 10  1  1  0  0  0  0
 11 10  2  0  0  0  0
 12  7  2  0  0  0  0
 13 14  1  1  0  0  0
 13 16  1  0  0  0  0
 13  8  1  0  0  0  0
 16 15  1  0  0  0  0
 17 18  1  0  0  0  0
 18 19  1  0  0  0  0
 19 20  1  0  0  0  0
 21 22  1  0  0  0  0
 21 20  1  0  0  0  0
 22 23  2  0  0  0  0
 24 25  1  0  0  0  0
 25 22  1  0  0  0  0
 27 26  1  0  0  0  0
 28 27  1  0  0  0  0
 29 30  2  0  0  0  0
 30 28  1  0  0  0  0
 31 30  1  0  0  0  0
 34 31  1  6  0  0  0
 34 40  1  0  0  0  0
 35 33  2  0  0  0  0
 35 34  1  0  0  0  0
 36 32  1  0  0  0  0
 37 39  1  6  0  0  0
 37 32  1  0  0  0  0
 40 38  1  1  0  0  0
 40 37  1  0  0  0  0
 41 42  1  1  0  0  0
 41 35  1  0  0  0  0
 41 36  1  0  0  0  0
M  END
>  <MODEL>
3

>  <REMARK>
 VINA RESULT:      -7.3      3.582      7.893
  Name = 
  14 active torsions:
  status: ('A' for Active; 'I' for Inactive)
    1  A    between atoms: C_1  and  C_7
    2  A    between atoms: C_1  and  C_27
    3  A    between atoms: C_2  and  N_20
    4  A    between atoms: C_2  and  C_22
    5  A    between atoms: C_6  and  C_26
    6  A    between atoms: C_8  and  N_29
    7  A    between atoms: N_12  and  C_25
    8  A    between atoms: C_16  and  C_19
    9  A    between atoms: C_19  and  N_20
   10  A    between atoms: N_21  and  C_38
   11  A    between atoms: C_22  and  C_27
   12  A    between atoms: C_25  and  O_41
   13  A    between atoms: S_28  and  C_38
   14  A    between atoms: S_28  and  C_39
                            x       y       z     vdW  Elec       q    Type
                         _______ _______ _______ _____ _____    ______ ____

>  <TORSDO>
F 14

$$$$
=
 OpenBabel10222420413D

 42 44  0  0  1  0  0  0  0  0999 V2000
  190.8700  177.2880  141.3470 C   0  0  0  0  0  0  0  0  0  0  0  0
  190.0280  176.8260  140.3250 C   0  0  0  0  0  3  0  0  0  0  0  0
  191.9140  176.6960  138.8040 C   0  0  0  0  0  0  0  0  0  0  0  0
  192.7560  177.1520  139.8230 C   0  0  0  0  0  3  0  0  0  0  0  0
  190.5390  176.5320  139.0560 C   0  0  0  0  0  0  0  0  0  0  0  0
  192.2370  177.4490  141.0850 C   0  0  0  0  0  3  0  0  0  0  0  0
  189.0170  177.4140  142.9880 N   0  0  0  0  0  0  0  0  0  0  0  0
  187.4370  177.6560  144.8290 N   0  0  0  0  0  2  0  0  0  0  0  0
  190.1130  178.3160  145.0540 S   0  0  0  0  0  0  0  0  0  0  0  0
  190.3340  177.5980  142.6860 C   0  0  0  0  0  0  0  0  0  0  0  0
  191.1250  178.1040  143.7240 C   0  0  0  0  0  3  0  0  0  0  0  0
  188.7420  177.7670  144.2580 C   0  0  0  0  0  0  0  0  0  0  0  0
  187.1310  178.0710  146.1910 C   0  0  1  0  0  3  0  0  0  0  0  0
  185.6300  178.2230  146.3560 C   0  0  0  0  0  1  0  0  0  0  0  0
  187.9690  177.8270  148.2220 C   0  0  0  0  0  1  0  0  0  0  0  0
  187.5990  177.1070  147.0850 O   0  0  0  0  0  0  0  0  0  0  0  0
  192.5110  176.3640  137.4770 C   0  0  0  0  0  2  0  0  0  0  0  0
  192.9250  174.9710  137.4590 N   0  0  0  0  0  2  0  0  0  0  0  0
  193.6330  174.7530  136.2090 C   0  0  0  0  0  2  0  0  0  0  0  0
  194.8130  173.8310  136.4450 C   0  0  0  0  0  2  0  0  0  0  0  0
  196.1030  174.6110  136.2770 C   0  0  0  0  0  2  0  0  0  0  0  0
  196.8320  174.6920  137.5780 C   0  0  0  0  0  0  0  0  0  0  0  0
  197.9200  175.2400  137.6390 O   0  0  0  0  0  0  0  0  0  0  0  0
  195.7070  175.1330  139.6070 O   0  0  0  0  0  1  0  0  0  0  0  0
  196.2250  174.1120  138.8110 C   0  0  0  0  0  2  0  0  0  0  0  0
  189.4140  175.9470  137.7850 S   0  0  0  0  0  0  0  0  0  0  0  0
  188.7940  177.6220  137.4380 C   0  0  0  0  0  2  0  0  0  0  0  0
  187.3530  177.6670  137.6260 N   0  0  0  0  0  2  0  0  0  0  0  0
  186.8650  177.5330  135.3460 O   0  0  0  0  0  0  0  0  0  0  0  0
  186.4380  177.5730  136.5300 C   0  0  0  0  0  0  0  0  0  0  0  0
  185.0310  177.5350  136.7690 N   0  0  0  0  0  2  0  0  0  0  0  0
  182.9170  177.3250  140.6180 C   0  0  0  0  0  2  0  0  0  0  0  0
  184.8940  179.7380  138.6610 O   0  0  0  0  0  0  0  0  0  0  0  0
  184.4760  177.4800  138.1160 C   0  0  1  0  0  3  0  0  0  0  0  0
  184.0450  178.8690  138.5170 C   0  0  0  0  0  0  0  0  0  0  0  0
  182.2000  178.6230  140.2210 C   0  0  0  0  0  2  0  0  0  0  0  0
  182.7760  176.1830  139.6020 C   0  0  1  0  0  3  0  0  0  0  0  0
  183.7190  175.1290  137.5560 C   0  0  0  0  0  1  0  0  0  0  0  0
  181.3380  175.6960  139.5400 C   0  0  0  0  0  1  0  0  0  0  0  0
  183.3180  176.4560  138.1840 C   0  0  2  0  0  3  0  0  0  0  0  0
  182.5980  179.1500  138.8410 C   0  0  1  0  0  3  0  0  0  0  0  0
  182.2420  180.6220  138.7140 C   0  0  0  0  0  1  0  0  0  0  0  0
  1 10  1  0  0  0  0
  2  1  2  0  0  0  0
  3  5  2  0  0  0  0
  3  4  1  0  0  0  0
  4  6  2  0  0  0  0
  5  2  1  0  0  0  0
  6  1  1  0  0  0  0
  7 12  2  0  0  0  0
  8 13  1  0  0  0  0
 10  7  1  0  0  0  0
 10 11  2  0  0  0  0
 11  9  1  0  0  0  0
 12  8  1  0  0  0  0
 12  9  1  0  0  0  0
 13 14  1  6  0  0  0
 13 16  1  0  0  0  0
 16 15  1  0  0  0  0
 17  3  1  0  0  0  0
 18 17  1  0  0  0  0
 19 20  1  0  0  0  0
 19 18  1  0  0  0  0
 21 20  1  0  0  0  0
 21 22  1  0  0  0  0
 22 23  2  0  0  0  0
 22 25  1  0  0  0  0
 25 24  1  0  0  0  0
 26  5  1  0  0  0  0
 27 28  1  0  0  0  0
 27 26  1  0  0  0  0
 29 30  2  0  0  0  0
 30 31  1  0  0  0  0
 30 28  1  0  0  0  0
 34 31  1  6  0  0  0
 34 40  1  0  0  0  0
 34 35  1  0  0  0  0
 35 33  2  0  0  0  0
 35 41  1  0  0  0  0
 36 32  1  0  0  0  0
 37 39  1  6  0  0  0
 37 32  1  0  0  0  0
 40 38  1  1  0  0  0
 40 37  1  0  0  0  0
 41 42  1  1  0  0  0
 41 36  1  0  0  0  0
M  END
>  <MODEL>
4

>  <REMARK>
 VINA RESULT:      -7.0      3.900      8.098
  Name = 
  14 active torsions:
  status: ('A' for Active; 'I' for Inactive)
    1  A    between atoms: C_1  and  C_7
    2  A    between atoms: C_1  and  C_27
    3  A    between atoms: C_2  and  N_20
    4  A    between atoms: C_2  and  C_22
    5  A    between atoms: C_6  and  C_26
    6  A    between atoms: C_8  and  N_29
    7  A    between atoms: N_12  and  C_25
    8  A    between atoms: C_16  and  C_19
    9  A    between atoms: C_19  and  N_20
   10  A    between atoms: N_21  and  C_38
   11  A    between atoms: C_22  and  C_27
   12  A    between atoms: C_25  and  O_41
   13  A    between atoms: S_28  and  C_38
   14  A    between atoms: S_28  and  C_39
                            x       y       z     vdW  Elec       q    Type
                         _______ _______ _______ _____ _____    ______ ____

>  <TORSDO>
F 14

$$$$
=
 OpenBabel10222420413D

 42 44  0  0  1  0  0  0  0  0999 V2000
  188.2850  177.3970  141.4000 C   0  0  0  0  0  0  0  0  0  0  0  0
  187.2120  178.2790  141.5960 C   0  0  0  0  0  3  0  0  0  0  0  0
  186.9440  177.4780  143.8710 C   0  0  0  0  0  0  0  0  0  0  0  0
  188.0160  176.6010  143.6790 C   0  0  0  0  0  3  0  0  0  0  0  0
  186.5380  178.3240  142.8220 C   0  0  0  0  0  0  0  0  0  0  0  0
  188.6800  176.5580  142.4510 C   0  0  0  0  0  3  0  0  0  0  0  0
  189.9860  176.4410  139.8720 N   0  0  0  0  0  0  0  0  0  0  0  0
  191.5450  175.7390  138.1350 N   0  0  0  0  0  2  0  0  0  0  0  0
  189.7620  177.8230  137.7940 S   0  0  0  0  0  0  0  0  0  0  0  0
  188.9970  177.3490  140.1100 C   0  0  0  0  0  0  0  0  0  0  0  0
  188.7180  178.2250  139.0540 C   0  0  0  0  0  3  0  0  0  0  0  0
  190.5050  176.5790  138.6370 C   0  0  0  0  0  0  0  0  0  0  0  0
  192.1320  175.9100  136.8140 C   0  0  1  0  0  3  0  0  0  0  0  0
  193.5760  176.3580  136.9470 C   0  0  0  0  0  1  0  0  0  0  0  0
  192.6420  173.7680  137.0060 C   0  0  0  0  0  1  0  0  0  0  0  0
  192.0870  174.6970  136.1260 O   0  0  0  0  0  0  0  0  0  0  0  0
  186.2780  177.5130  145.2050 C   0  0  0  0  0  2  0  0  0  0  0  0
  187.0270  178.3710  146.1070 N   0  0  0  0  0  2  0  0  0  0  0  0
  187.8100  177.5030  146.9710 C   0  0  0  0  0  2  0  0  0  0  0  0
  189.2700  177.9040  146.9090 C   0  0  0  0  0  2  0  0  0  0  0  0
  190.1300  176.7480  147.3860 C   0  0  0  0  0  2  0  0  0  0  0  0
  191.3180  176.5880  146.4950 C   0  0  0  0  0  0  0  0  0  0  0  0
  192.2460  175.8720  146.8340 O   0  0  0  0  0  0  0  0  0  0  0  0
  191.7440  176.4000  144.1800 O   0  0  0  0  0  1  0  0  0  0  0  0
  191.3690  177.2940  145.1830 C   0  0  0  0  0  2  0  0  0  0  0  0
  185.1700  179.4710  143.0150 S   0  0  0  0  0  0  0  0  0  0  0  0
  183.9310  178.1410  142.9540 C   0  0  0  0  0  2  0  0  0  0  0  0
  183.7200  177.7220  141.5770 N   0  0  0  0  0  2  0  0  0  0  0  0
  181.9220  179.1690  141.2170 O   0  0  0  0  0  0  0  0  0  0  0  0
  182.7170  178.3140  140.7450 C   0  0  0  0  0  0  0  0  0  0  0  0
  182.6020  177.9320  139.3750 N   0  0  0  0  0  2  0  0  0  0  0  0
  185.4210  175.4690  137.0680 C   0  0  0  0  0  2  0  0  0  0  0  0
  182.0850  175.1770  138.6000 O   0  0  0  0  0  0  0  0  0  0  0  0
  183.5500  177.0220  138.7430 C   0  0  1  0  0  3  0  0  0  0  0  0
  182.7790  175.9730  137.9820 C   0  0  0  0  0  0  0  0  0  0  0  0
  184.2630  175.1550  136.1110 C   0  0  0  0  0  2  0  0  0  0  0  0
  185.6950  176.9670  137.2660 C   0  0  1  0  0  3  0  0  0  0  0  0
  185.1230  179.0010  138.5780 C   0  0  0  0  0  1  0  0  0  0  0  0
  186.2190  177.5900  135.9830 C   0  0  0  0  0  1  0  0  0  0  0  0
  184.5360  177.8060  137.8420 C   0  0  2  0  0  3  0  0  0  0  0  0
  182.9480  175.8420  136.4880 C   0  0  1  0  0  3  0  0  0  0  0  0
  181.7760  175.1420  135.8210 C   0  0  0  0  0  1  0  0  0  0  0  0
  1  2  2  0  0  0  0
  1  6  1  0  0  0  0
  2  5  1  0  0  0  0
  3 17  1  0  0  0  0
  4  3  1  0  0  0  0
  5 26  1  0  0  0  0
  5  3  2  0  0  0  0
  6  4  2  0  0  0  0
  7 10  1  0  0  0  0
  8 12  1  0  0  0  0
  9 12  1  0  0  0  0
  9 11  1  0  0  0  0
 10  1  1  0  0  0  0
 11 10  2  0  0  0  0
 12  7  2  0  0  0  0
 13 14  1  1  0  0  0
 13  8  1  0  0  0  0
 16 13  1  0  0  0  0
 16 15  1  0  0  0  0
 17 18  1  0  0  0  0
 18 19  1  0  0  0  0
 20 19  1  0  0  0  0
 20 21  1  0  0  0  0
 22 23  2  0  0  0  0
 22 21  1  0  0  0  0
 24 25  1  0  0  0  0
 25 22  1  0  0  0  0
 27 26  1  0  0  0  0
 28 27  1  0  0  0  0
 30 29  2  0  0  0  0
 30 28  1  0  0  0  0
 31 30  1  0  0  0  0
 32 37  1  0  0  0  0
 34 31  1  6  0  0  0
 35 33  2  0  0  0  0
 35 34  1  0  0  0  0
 36 41  1  0  0  0  0
 36 32  1  0  0  0  0
 37 39  1  6  0  0  0
 37 40  1  0  0  0  0
 40 38  1  1  0  0  0
 40 34  1  0  0  0  0
 41 42  1  1  0  0  0
 41 35  1  0  0  0  0
M  END
>  <MODEL>
5

>  <REMARK>
 VINA RESULT:      -7.0      2.470      5.895
  Name = 
  14 active torsions:
  status: ('A' for Active; 'I' for Inactive)
    1  A    between atoms: C_1  and  C_7
    2  A    between atoms: C_1  and  C_27
    3  A    between atoms: C_2  and  N_20
    4  A    between atoms: C_2  and  C_22
    5  A    between atoms: C_6  and  C_26
    6  A    between atoms: C_8  and  N_29
    7  A    between atoms: N_12  and  C_25
    8  A    between atoms: C_16  and  C_19
    9  A    between atoms: C_19  and  N_20
   10  A    between atoms: N_21  and  C_38
   11  A    between atoms: C_22  and  C_27
   12  A    between atoms: C_25  and  O_41
   13  A    between atoms: S_28  and  C_38
   14  A    between atoms: S_28  and  C_39
                            x       y       z     vdW  Elec       q    Type
                         _______ _______ _______ _____ _____    ______ ____

>  <TORSDO>
F 14

$$$$
=
 OpenBabel10222420413D

 42 44  0  0  1  0  0  0  0  0999 V2000
  188.3240  177.5430  141.7350 C   0  0  0  0  0  0  0  0  0  0  0  0
  187.2110  178.3840  141.8830 C   0  0  0  0  0  3  0  0  0  0  0  0
  187.0360  177.7710  144.2240 C   0  0  0  0  0  0  0  0  0  0  0  0
  188.1480  176.9360  144.0800 C   0  0  0  0  0  3  0  0  0  0  0  0
  186.5630  178.5020  143.1170 C   0  0  0  0  0  0  0  0  0  0  0  0
  188.7850  176.8200  142.8430 C   0  0  0  0  0  3  0  0  0  0  0  0
  190.0120  176.5160  140.2380 N   0  0  0  0  0  0  0  0  0  0  0  0
  191.5480  175.7250  138.5190 N   0  0  0  0  0  2  0  0  0  0  0  0
  189.7120  177.7440  138.0740 S   0  0  0  0  0  0  0  0  0  0  0  0
  189.0090  177.4180  140.4340 C   0  0  0  0  0  0  0  0  0  0  0  0
  188.6880  178.2120  139.3270 C   0  0  0  0  0  3  0  0  0  0  0  0
  190.5010  176.5770  138.9850 C   0  0  0  0  0  0  0  0  0  0  0  0
  192.1020  175.8150  137.1750 C   0  0  1  0  0  3  0  0  0  0  0  0
  193.6070  175.6190  137.2260 C   0  0  0  0  0  1  0  0  0  0  0  0
  192.5640  174.4230  135.5210 C   0  0  0  0  0  1  0  0  0  0  0  0
  191.5340  174.8250  136.3730 O   0  0  0  0  0  0  0  0  0  0  0  0
  186.3980  177.8890  145.5680 C   0  0  0  0  0  2  0  0  0  0  0  0
  187.2280  177.2320  146.5650 N   0  0  0  0  0  2  0  0  0  0  0  0
  187.6480  178.2530  147.5100 C   0  0  0  0  0  2  0  0  0  0  0  0
  189.0260  177.9190  148.0440 C   0  0  0  0  0  2  0  0  0  0  0  0
  189.5540  176.6840  147.3390 C   0  0  0  0  0  2  0  0  0  0  0  0
  191.0300  176.7930  147.1410 C   0  0  0  0  0  0  0  0  0  0  0  0
  191.7500  177.1270  148.0670 O   0  0  0  0  0  0  0  0  0  0  0  0
  191.6120  177.6220  145.0070 O   0  0  0  0  0  1  0  0  0  0  0  0
  191.6310  176.4830  145.8120 C   0  0  0  0  0  2  0  0  0  0  0  0
  185.1410  179.5900  143.2480 S   0  0  0  0  0  0  0  0  0  0  0  0
  183.9650  178.2030  143.2240 C   0  0  0  0  0  2  0  0  0  0  0  0
  183.0660  178.3340  142.0880 N   0  0  0  0  0  2  0  0  0  0  0  0
  181.3950  179.4280  143.3000 O   0  0  0  0  0  0  0  0  0  0  0  0
  181.8040  179.0020  142.1880 C   0  0  0  0  0  0  0  0  0  0  0  0
  180.9930  179.1820  141.0270 N   0  0  0  0  0  2  0  0  0  0  0  0
  181.9350  178.1890  136.8490 C   0  0  0  0  0  2  0  0  0  0  0  0
  181.3900  176.4690  140.0600 O   0  0  0  0  0  0  0  0  0  0  0  0
  181.4490  178.8000  139.6960 C   0  0  1  0  0  3  0  0  0  0  0  0
  180.9600  177.4050  139.4000 C   0  0  0  0  0  0  0  0  0  0  0  0
  180.7710  177.1900  136.8920 C   0  0  0  0  0  2  0  0  0  0  0  0
  181.5560  179.6270  137.2290 C   0  0  1  0  0  3  0  0  0  0  0  0
  181.2860  181.2540  139.0900 C   0  0  0  0  0  1  0  0  0  0  0  0
  180.6350  180.2310  136.1830 C   0  0  0  0  0  1  0  0  0  0  0  0
  180.9770  179.8330  138.6440 C   0  0  2  0  0  3  0  0  0  0  0  0
  180.0340  177.1590  138.2330 C   0  0  1  0  0  3  0  0  0  0  0  0
  179.2430  175.8690  138.3720 C   0  0  0  0  0  1  0  0  0  0  0  0
  1  2  2  0  0  0  0
  1  6  1  0  0  0  0
  2  5  1  0  0  0  0
  3 17  1  0  0  0  0
  4  3  1  0  0  0  0
  5 26  1  0  0  0  0
  5  3  2  0  0  0  0
  6  4  2  0  0  0  0
  7 10  1  0  0  0  0
  8 12  1  0  0  0  0
  9 12  1  0  0  0  0
  9 11  1  0  0  0  0
 10  1  1  0  0  0  0
 11 10  2  0  0  0  0
 12  7  2  0  0  0  0
 13 14  1  1  0  0  0
 13  8  1  0  0  0  0
 15 16  1  0  0  0  0
 16 13  1  0  0  0  0
 17 18  1  0  0  0  0
 18 19  1  0  0  0  0
 19 20  1  0  0  0  0
 21 20  1  0  0  0  0
 22 21  1  0  0  0  0
 22 23  2  0  0  0  0
 24 25  1  0  0  0  0
 25 22  1  0  0  0  0
 27 26  1  0  0  0  0
 28 30  1  0  0  0  0
 28 27  1  0  0  0  0
 30 29  2  0  0  0  0
 31 30  1  0  0  0  0
 32 36  1  0  0  0  0
 32 37  1  0  0  0  0
 34 31  1  1  0  0  0
 35 34  1  0  0  0  0
 35 33  2  0  0  0  0
 36 41  1  0  0  0  0
 37 39  1  6  0  0  0
 37 40  1  0  0  0  0
 40 38  1  1  0  0  0
 40 34  1  0  0  0  0
 41 42  1  1  0  0  0
 41 35  1  0  0  0  0
M  END
>  <MODEL>
6

>  <REMARK>
 VINA RESULT:      -7.0      2.793      6.771
  Name = 
  14 active torsions:
  status: ('A' for Active; 'I' for Inactive)
    1  A    between atoms: C_1  and  C_7
    2  A    between atoms: C_1  and  C_27
    3  A    between atoms: C_2  and  N_20
    4  A    between atoms: C_2  and  C_22
    5  A    between atoms: C_6  and  C_26
    6  A    between atoms: C_8  and  N_29
    7  A    between atoms: N_12  and  C_25
    8  A    between atoms: C_16  and  C_19
    9  A    between atoms: C_19  and  N_20
   10  A    between atoms: N_21  and  C_38
   11  A    between atoms: C_22  and  C_27
   12  A    between atoms: C_25  and  O_41
   13  A    between atoms: S_28  and  C_38
   14  A    between atoms: S_28  and  C_39
                            x       y       z     vdW  Elec       q    Type
                         _______ _______ _______ _____ _____    ______ ____

>  <TORSDO>
F 14

$$$$
=
 OpenBabel10222420413D

 42 44  0  0  1  0  0  0  0  0999 V2000
  186.2990  177.9140  142.6640 C   0  0  0  0  0  0  0  0  0  0  0  0
  186.8460  178.3440  141.4460 C   0  0  0  0  0  3  0  0  0  0  0  0
  188.9160  177.1790  141.9440 C   0  0  0  0  0  0  0  0  0  0  0  0
  188.3700  176.7460  143.1560 C   0  0  0  0  0  3  0  0  0  0  0  0
  188.1480  177.9850  141.0810 C   0  0  0  0  0  0  0  0  0  0  0  0
  187.0720  177.1140  143.5160 C   0  0  0  0  0  3  0  0  0  0  0  0
  183.9120  178.3240  142.1400 N   0  0  0  0  0  0  0  0  0  0  0  0
  181.5270  178.8000  141.9670 N   0  0  0  0  0  2  0  0  0  0  0  0
  182.9280  179.0040  144.3430 S   0  0  0  0  0  0  0  0  0  0  0  0
  184.9260  178.2910  143.0500 C   0  0  0  0  0  0  0  0  0  0  0  0
  184.5740  178.6440  144.3580 C   0  0  0  0  0  3  0  0  0  0  0  0
  182.7480  178.7010  142.7030 C   0  0  0  0  0  0  0  0  0  0  0  0
  180.2760  179.2420  142.5670 C   0  0  1  0  0  3  0  0  0  0  0  0
  179.6830  180.3720  141.7450 C   0  0  0  0  0  1  0  0  0  0  0  0
  179.4910  177.5720  141.3490 C   0  0  0  0  0  1  0  0  0  0  0  0
  179.3770  178.1760  142.6020 O   0  0  0  0  0  0  0  0  0  0  0  0
  190.2970  176.7430  141.5840 C   0  0  0  0  0  2  0  0  0  0  0  0
  191.2680  177.6510  142.1720 N   0  0  0  0  0  2  0  0  0  0  0  0
  191.9700  176.9120  143.2070 C   0  0  0  0  0  2  0  0  0  0  0  0
  191.6690  177.5190  144.5620 C   0  0  0  0  0  2  0  0  0  0  0  0
  191.6800  176.4280  145.6170 C   0  0  0  0  0  2  0  0  0  0  0  0
  190.9950  176.9010  146.8570 C   0  0  0  0  0  0  0  0  0  0  0  0
  191.6030  176.9510  147.9130 O   0  0  0  0  0  0  0  0  0  0  0  0
  189.0840  177.5170  148.0990 O   0  0  0  0  0  1  0  0  0  0  0  0
  189.5670  177.3270  146.8050 C   0  0  0  0  0  2  0  0  0  0  0  0
  188.7990  178.5660  139.5120 S   0  0  0  0  0  0  0  0  0  0  0  0
  188.5160  176.9640  138.6990 C   0  0  0  0  0  2  0  0  0  0  0  0
  187.2880  177.0110  137.9220 N   0  0  0  0  0  2  0  0  0  0  0  0
  188.0600  178.6560  136.4540 O   0  0  0  0  0  0  0  0  0  0  0  0
  187.1420  177.8560  136.7760 C   0  0  0  0  0  0  0  0  0  0  0  0
  185.9500  177.8060  135.9930 N   0  0  0  0  0  2  0  0  0  0  0  0
  182.9320  174.8610  137.2360 C   0  0  0  0  0  2  0  0  0  0  0  0
  185.8160  175.0930  134.9580 O   0  0  0  0  0  0  0  0  0  0  0  0
  184.8930  176.8370  136.2530 C   0  0  1  0  0  3  0  0  0  0  0  0
  185.4560  175.4490  136.0720 C   0  0  0  0  0  0  0  0  0  0  0  0
  184.0880  173.8880  137.5070 C   0  0  0  0  0  2  0  0  0  0  0  0
  183.0430  176.2030  137.9730 C   0  0  1  0  0  3  0  0  0  0  0  0
  183.9460  178.5190  137.8930 C   0  0  0  0  0  1  0  0  0  0  0  0
  182.8920  176.0040  139.4720 C   0  0  0  0  0  1  0  0  0  0  0  0
  184.2910  177.0550  137.6620 C   0  0  2  0  0  3  0  0  0  0  0  0
  185.4710  174.4800  137.2290 C   0  0  1  0  0  3  0  0  0  0  0  0
  186.4960  173.3720  137.0550 C   0  0  0  0  0  1  0  0  0  0  0  0
  1 10  1  0  0  0  0
  1  6  1  0  0  0  0
  2  1  2  0  0  0  0
  3  4  1  0  0  0  0
  4  6  2  0  0  0  0
  5  2  1  0  0  0  0
  5  3  2  0  0  0  0
  7 12  2  0  0  0  0
  7 10  1  0  0  0  0
  8 13  1  0  0  0  0
  8 12  1  0  0  0  0
  9 11  1  0  0  0  0
 10 11  2  0  0  0  0
 12  9  1  0  0  0  0
 13 14  1  6  0  0  0
 13 16  1  0  0  0  0
 15 16  1  0  0  0  0
 17  3  1  0  0  0  0
 17 18  1  0  0  0  0
 18 19  1  0  0  0  0
 19 20  1  0  0  0  0
 20 21  1  0  0  0  0
 21 22  1  0  0  0  0
 22 23  2  0  0  0  0
 25 22  1  0  0  0  0
 25 24  1  0  0  0  0
 26  5  1  0  0  0  0
 27 26  1  0  0  0  0
 28 27  1  0  0  0  0
 29 30  2  0  0  0  0
 30 28  1  0  0  0  0
 31 30  1  0  0  0  0
 32 36  1  0  0  0  0
 32 37  1  0  0  0  0
 33 35  2  0  0  0  0
 34 31  1  1  0  0  0
 34 40  1  0  0  0  0
 35 34  1  0  0  0  0
 35 41  1  0  0  0  0
 37 39  1  1  0  0  0
 40 38  1  6  0  0  0
 40 37  1  0  0  0  0
 41 42  1  6  0  0  0
 41 36  1  0  0  0  0
M  END
>  <MODEL>
7

>  <REMARK>
 VINA RESULT:      -6.8      2.392      3.756
  Name = 
  14 active torsions:
  status: ('A' for Active; 'I' for Inactive)
    1  A    between atoms: C_1  and  C_7
    2  A    between atoms: C_1  and  C_27
    3  A    between atoms: C_2  and  N_20
    4  A    between atoms: C_2  and  C_22
    5  A    between atoms: C_6  and  C_26
    6  A    between atoms: C_8  and  N_29
    7  A    between atoms: N_12  and  C_25
    8  A    between atoms: C_16  and  C_19
    9  A    between atoms: C_19  and  N_20
   10  A    between atoms: N_21  and  C_38
   11  A    between atoms: C_22  and  C_27
   12  A    between atoms: C_25  and  O_41
   13  A    between atoms: S_28  and  C_38
   14  A    between atoms: S_28  and  C_39
                            x       y       z     vdW  Elec       q    Type
                         _______ _______ _______ _____ _____    ______ ____

>  <TORSDO>
F 14

$$$$
=
 OpenBabel10222420413D

 42 44  0  0  1  0  0  0  0  0999 V2000
  189.5520  177.1690  140.8430 C   0  0  0  0  0  0  0  0  0  0  0  0
  189.1850  177.2400  139.4910 C   0  0  0  0  0  3  0  0  0  0  0  0
  191.5000  176.9450  138.8270 C   0  0  0  0  0  0  0  0  0  0  0  0
  191.8670  176.8690  140.1740 C   0  0  0  0  0  3  0  0  0  0  0  0
  190.1480  177.1320  138.4820 C   0  0  0  0  0  0  0  0  0  0  0  0
  190.9010  176.9840  141.1750 C   0  0  0  0  0  3  0  0  0  0  0  0
  187.4360  178.0710  141.7650 N   0  0  0  0  0  0  0  0  0  0  0  0
  185.4240  178.7610  142.9570 N   0  0  0  0  0  2  0  0  0  0  0  0
  187.2820  177.0210  144.0360 S   0  0  0  0  0  0  0  0  0  0  0  0
  188.5380  177.2810  141.9080 C   0  0  0  0  0  0  0  0  0  0  0  0
  188.6370  176.6000  143.1260 C   0  0  0  0  0  3  0  0  0  0  0  0
  186.6490  178.0330  142.8570 C   0  0  0  0  0  0  0  0  0  0  0  0
  184.5910  178.7490  144.1510 C   0  0  1  0  0  3  0  0  0  0  0  0
  185.3880  179.2570  145.3380 C   0  0  0  0  0  1  0  0  0  0  0  0
  182.3870  178.7880  144.3100 C   0  0  0  0  0  1  0  0  0  0  0  0
  183.4830  179.5730  143.9520 O   0  0  0  0  0  0  0  0  0  0  0  0
  192.5580  176.7930  137.7860 C   0  0  0  0  0  2  0  0  0  0  0  0
  193.7260  176.1480  138.3640 N   0  0  0  0  0  2  0  0  0  0  0  0
  193.8170  174.8230  137.7750 C   0  0  0  0  0  2  0  0  0  0  0  0
  194.1630  174.9400  136.3050 C   0  0  0  0  0  2  0  0  0  0  0  0
  195.6560  174.7420  136.1210 C   0  0  0  0  0  2  0  0  0  0  0  0
  196.2920  176.0100  135.6540 C   0  0  0  0  0  0  0  0  0  0  0  0
  197.4680  176.2310  135.8930 O   0  0  0  0  0  0  0  0  0  0  0  0
  195.4360  178.2100  135.5870 O   0  0  0  0  0  1  0  0  0  0  0  0
  195.4940  177.0070  134.8840 C   0  0  0  0  0  2  0  0  0  0  0  0
  189.6210  177.2350  136.7680 S   0  0  0  0  0  0  0  0  0  0  0  0
  188.4420  175.8620  136.9560 C   0  0  0  0  0  2  0  0  0  0  0  0
  187.1200  176.3830  137.2690 N   0  0  0  0  0  2  0  0  0  0  0  0
  186.4910  176.6460  135.0350 O   0  0  0  0  0  0  0  0  0  0  0  0
  186.1710  176.7170  136.2520 C   0  0  0  0  0  0  0  0  0  0  0  0
  184.8570  177.1440  136.6070 N   0  0  0  0  0  2  0  0  0  0  0  0
  183.0020  177.1940  140.5930 C   0  0  0  0  0  2  0  0  0  0  0  0
  185.1670  179.3220  138.5070 O   0  0  0  0  0  0  0  0  0  0  0  0
  184.3930  177.1530  137.9890 C   0  0  1  0  0  3  0  0  0  0  0  0
  184.1940  178.5840  138.4210 C   0  0  0  0  0  0  0  0  0  0  0  0
  182.4540  178.5850  140.2480 C   0  0  0  0  0  2  0  0  0  0  0  0
  182.6300  176.0960  139.5880 C   0  0  1  0  0  3  0  0  0  0  0  0
  183.2700  174.9410  137.4800 C   0  0  0  0  0  1  0  0  0  0  0  0
  181.1360  175.8200  139.6250 C   0  0  0  0  0  1  0  0  0  0  0  0
  183.1070  176.3040  138.1360 C   0  0  2  0  0  3  0  0  0  0  0  0
  182.8280  179.0660  138.8450 C   0  0  1  0  0  3  0  0  0  0  0  0
  182.6790  180.5750  138.7450 C   0  0  0  0  0  1  0  0  0  0  0  0
  1  6  1  0  0  0  0
  1 10  1  0  0  0  0
  2  1  2  0  0  0  0
  3  4  1  0  0  0  0
  4  6  2  0  0  0  0
  5  3  2  0  0  0  0
  5  2  1  0  0  0  0
  7 10  1  0  0  0  0
  7 12  2  0  0  0  0
  8 13  1  0  0  0  0
 10 11  2  0  0  0  0
 11  9  1  0  0  0  0
 12  8  1  0  0  0  0
 12  9  1  0  0  0  0
 13 14  1  1  0  0  0
 16 13  1  0  0  0  0
 16 15  1  0  0  0  0
 17 18  1  0  0  0  0
 17  3  1  0  0  0  0
 19 18  1  0  0  0  0
 20 19  1  0  0  0  0
 21 20  1  0  0  0  0
 22 23  2  0  0  0  0
 22 21  1  0  0  0  0
 25 24  1  0  0  0  0
 25 22  1  0  0  0  0
 26 27  1  0  0  0  0
 26  5  1  0  0  0  0
 27 28  1  0  0  0  0
 29 30  2  0  0  0  0
 30 31  1  0  0  0  0
 30 28  1  0  0  0  0
 34 31  1  6  0  0  0
 34 40  1  0  0  0  0
 34 35  1  0  0  0  0
 35 33  2  0  0  0  0
 35 41  1  0  0  0  0
 36 32  1  0  0  0  0
 37 39  1  6  0  0  0
 37 32  1  0  0  0  0
 40 38  1  1  0  0  0
 40 37  1  0  0  0  0
 41 42  1  1  0  0  0
 41 36  1  0  0  0  0
M  END
>  <MODEL>
8

>  <REMARK>
 VINA RESULT:      -6.7      3.807      7.458
  Name = 
  14 active torsions:
  status: ('A' for Active; 'I' for Inactive)
    1  A    between atoms: C_1  and  C_7
    2  A    between atoms: C_1  and  C_27
    3  A    between atoms: C_2  and  N_20
    4  A    between atoms: C_2  and  C_22
    5  A    between atoms: C_6  and  C_26
    6  A    between atoms: C_8  and  N_29
    7  A    between atoms: N_12  and  C_25
    8  A    between atoms: C_16  and  C_19
    9  A    between atoms: C_19  and  N_20
   10  A    between atoms: N_21  and  C_38
   11  A    between atoms: C_22  and  C_27
   12  A    between atoms: C_25  and  O_41
   13  A    between atoms: S_28  and  C_38
   14  A    between atoms: S_28  and  C_39
                            x       y       z     vdW  Elec       q    Type
                         _______ _______ _______ _____ _____    ______ ____

>  <TORSDO>
F 14

$$$$
=
 OpenBabel10222420413D

 42 44  0  0  1  0  0  0  0  0999 V2000
  188.4630  177.4350  141.3950 C   0  0  0  0  0  0  0  0  0  0  0  0
  187.2840  178.1900  141.4880 C   0  0  0  0  0  3  0  0  0  0  0  0
  187.0670  177.5990  143.8310 C   0  0  0  0  0  0  0  0  0  0  0  0
  188.2450  176.8500  143.7420 C   0  0  0  0  0  3  0  0  0  0  0  0
  186.5820  178.2750  142.6960 C   0  0  0  0  0  0  0  0  0  0  0  0
  188.9360  176.7660  142.5320 C   0  0  0  0  0  3  0  0  0  0  0  0
  190.1700  176.4050  139.9240 N   0  0  0  0  0  0  0  0  0  0  0  0
  191.7490  175.6300  138.2360 N   0  0  0  0  0  2  0  0  0  0  0  0
  190.0380  177.7620  137.8200 S   0  0  0  0  0  0  0  0  0  0  0  0
  189.2040  177.3460  140.1230 C   0  0  0  0  0  0  0  0  0  0  0  0
  188.9780  178.2140  139.0490 C   0  0  0  0  0  3  0  0  0  0  0  0
  190.7230  176.5080  138.7000 C   0  0  0  0  0  0  0  0  0  0  0  0
  192.3720  175.7630  136.9270 C   0  0  1  0  0  3  0  0  0  0  0  0
  193.7340  176.4180  137.0710 C   0  0  0  0  0  1  0  0  0  0  0  0
  193.8340  174.1250  136.6660 C   0  0  0  0  0  1  0  0  0  0  0  0
  192.5260  174.4990  136.3560 O   0  0  0  0  0  0  0  0  0  0  0  0
  186.3720  177.6850  145.1490 C   0  0  0  0  0  2  0  0  0  0  0  0
  187.1420  178.5190  146.0570 N   0  0  0  0  0  2  0  0  0  0  0  0
  187.5820  177.6680  147.1490 C   0  0  0  0  0  2  0  0  0  0  0  0
  189.0400  177.9440  147.4560 C   0  0  0  0  0  2  0  0  0  0  0  0
  189.7740  176.6290  147.6380 C   0  0  0  0  0  2  0  0  0  0  0  0
  191.1360  176.7100  147.0310 C   0  0  0  0  0  0  0  0  0  0  0  0
  192.1240  176.7610  147.7450 O   0  0  0  0  0  0  0  0  0  0  0  0
  191.7270  177.9720  145.1250 O   0  0  0  0  0  1  0  0  0  0  0  0
  191.2940  176.7160  145.5480 C   0  0  0  0  0  2  0  0  0  0  0  0
  185.0770  179.2520  142.7550 S   0  0  0  0  0  0  0  0  0  0  0  0
  184.1270  178.0080  141.8290 C   0  0  0  0  0  2  0  0  0  0  0  0
  183.3990  178.6470  140.7440 N   0  0  0  0  0  2  0  0  0  0  0  0
  185.3210  179.3740  139.6330 O   0  0  0  0  0  0  0  0  0  0  0  0
  184.0650  179.2800  139.6470 C   0  0  0  0  0  0  0  0  0  0  0  0
  183.3100  179.8190  138.5620 N   0  0  0  0  0  2  0  0  0  0  0  0
  179.0140  179.2870  137.7950 C   0  0  0  0  0  2  0  0  0  0  0  0
  181.3170  181.8830  139.0260 O   0  0  0  0  0  0  0  0  0  0  0  0
  181.8650  179.6570  138.4680 C   0  0  1  0  0  3  0  0  0  0  0  0
  181.2460  181.0020  138.1810 C   0  0  0  0  0  0  0  0  0  0  0  0
  179.0640  180.5870  136.9820 C   0  0  0  0  0  2  0  0  0  0  0  0
  180.0120  178.2130  137.3430 C   0  0  1  0  0  3  0  0  0  0  0  0
  182.3240  177.3270  137.5860 C   0  0  0  0  0  1  0  0  0  0  0  0
  179.6470  177.6900  135.9640 C   0  0  0  0  0  1  0  0  0  0  0  0
  181.5050  178.5960  137.3990 C   0  0  2  0  0  3  0  0  0  0  0  0
  180.4570  181.2180  136.9130 C   0  0  1  0  0  3  0  0  0  0  0  0
  180.3550  182.6840  136.5260 C   0  0  0  0  0  1  0  0  0  0  0  0
  1  2  2  0  0  0  0
  1  6  1  0  0  0  0
  2  5  1  0  0  0  0
  3 17  1  0  0  0  0
  4  3  1  0  0  0  0
  5 26  1  0  0  0  0
  5  3  2  0  0  0  0
  6  4  2  0  0  0  0
  7 10  1  0  0  0  0
  8 12  1  0  0  0  0
  9 12  1  0  0  0  0
  9 11  1  0  0  0  0
 10  1  1  0  0  0  0
 11 10  2  0  0  0  0
 12  7  2  0  0  0  0
 13 14  1  1  0  0  0
 13  8  1  0  0  0  0
 16 15  1  0  0  0  0
 16 13  1  0  0  0  0
 17 18  1  0  0  0  0
 18 19  1  0  0  0  0
 19 20  1  0  0  0  0
 20 21  1  0  0  0  0
 22 21  1  0  0  0  0
 22 23  2  0  0  0  0
 24 25  1  0  0  0  0
 25 22  1  0  0  0  0
 27 26  1  0  0  0  0
 28 27  1  0  0  0  0
 29 30  2  0  0  0  0
 30 28  1  0  0  0  0
 31 30  1  0  0  0  0
 34 31  1  6  0  0  0
 35 34  1  0  0  0  0
 35 33  2  0  0  0  0
 36 32  1  0  0  0  0
 37 39  1  6  0  0  0
 37 40  1  0  0  0  0
 37 32  1  0  0  0  0
 40 38  1  1  0  0  0
 40 34  1  0  0  0  0
 41 42  1  1  0  0  0
 41 36  1  0  0  0  0
 41 35  1  0  0  0  0
M  END
>  <MODEL>
9

>  <REMARK>
 VINA RESULT:      -6.7      2.600      6.789
  Name = 
  14 active torsions:
  status: ('A' for Active; 'I' for Inactive)
    1  A    between atoms: C_1  and  C_7
    2  A    between atoms: C_1  and  C_27
    3  A    between atoms: C_2  and  N_20
    4  A    between atoms: C_2  and  C_22
    5  A    between atoms: C_6  and  C_26
    6  A    between atoms: C_8  and  N_29
    7  A    between atoms: N_12  and  C_25
    8  A    between atoms: C_16  and  C_19
    9  A    between atoms: C_19  and  N_20
   10  A    between atoms: N_21  and  C_38
   11  A    between atoms: C_22  and  C_27
   12  A    between atoms: C_25  and  O_41
   13  A    between atoms: S_28  and  C_38
   14  A    between atoms: S_28  and  C_39
                            x       y       z     vdW  Elec       q    Type
                         _______ _______ _______ _____ _____    ______ ____

>  <TORSDO>
F 14

$$$$
