=
 OpenBabel10222419203D

 65 68  0  0  1  0  0  0  0  0999 V2000
  189.2050  175.6420  137.5260 C   0  0  1  0  0  3  0  0  0  0  0  0
  184.1260  177.3760  135.8770 N   0  0  0  0  0  0  0  0  0  0  0  0
  187.8020  177.4150  136.2450 C   0  0  0  0  0  0  0  0  0  0  0  0
  189.0240  178.3170  136.0630 C   0  0  0  0  0  1  0  0  0  0  0  0
  185.4220  177.1190  136.1060 C   0  0  0  0  0  0  0  0  0  0  0  0
  186.6990  175.4700  137.2130 C   0  0  0  0  0  3  0  0  0  0  0  0
  186.5580  177.8870  135.7960 C   0  0  0  0  0  3  0  0  0  0  0  0
  185.5350  175.9850  136.7440 C   0  0  0  0  0  0  0  0  0  0  0  0
  187.8920  176.1420  136.9280 C   0  0  0  0  0  0  0  0  0  0  0  0
  183.5020  176.3130  136.4520 C   0  0  0  0  0  0  0  0  0  0  0  0
  184.3840  175.4410  137.0910 N   0  0  0  0  0  2  0  0  0  0  0  0
  182.0210  176.2070  136.6420 C   0  0  0  0  0  2  0  0  0  0  0  0
  181.4520  174.8270  136.9990 C   0  0  0  0  0  2  0  0  0  0  0  0
  181.4080  173.6330  135.9230 C   0  0  0  0  0  2  0  0  0  0  0  0
  182.9340  171.4010  137.2030 O   0  0  0  0  0  1  0  0  0  0  0  0
  181.3290  171.8880  136.7880 P   0  0  0  0  0  0  0  0  0  0  0  0
  180.7800  170.8750  135.7670 O   0  0  0  0  0  0  0  0  0  0  0  0
  180.3390  171.9410  138.2260 O   0  0  0  0  0  1  0  0  0  0  0  0
  189.7970  173.1930  135.7410 O   0  0  0  0  0  0  0  0  0  0  0  0
  190.5760  174.1890  135.7230 C   0  0  0  0  0  0  0  0  0  0  0  0
  190.3450  175.3550  136.5330 N   0  0  0  0  0  2  0  0  0  0  0  0
  191.8060  174.2780  134.7950 C   0  0  2  0  0  3  0  0  0  0  0  0
  192.4930  173.0860  134.5980 O   0  0  0  0  0  0  0  0  0  0  0  0
  192.6370  172.6530  135.8430 O   0  0  0  0  0  1  0  0  0  0  0  0
  192.5420  175.6630  134.7150 C   0  0  0  0  0  2  0  0  0  0  0  0
  193.8820  175.6710  135.4810 C   0  0  2  0  0  3  0  0  0  0  0  0
  193.6130  176.6530  136.6090 C   0  0  0  0  0  1  0  0  0  0  0  0
  195.1220  176.0740  134.6000 C   0  0  0  0  0  2  0  0  0  0  0  0
  196.4960  176.1960  135.3720 C   0  0  0  0  0  2  0  0  0  0  0  0
  196.6340  175.0550  136.3440 N   0  0  0  0  0  2  0  0  0  0  0  0
  197.8840  174.8340  137.0470 C   0  0  1  0  0  3  0  0  0  0  0  0
  198.5000  174.4090  139.2980 O   0  0  0  0  0  0  0  0  0  0  0  0
  197.6110  174.5000  138.4440 C   0  0  0  0  0  0  0  0  0  0  0  0
  196.1640  174.5460  138.8360 C   0  0  0  0  0  2  0  0  0  0  0  0
  195.4950  173.2680  138.9070 N   0  0  0  0  0  1  0  0  0  0  0  0
  199.1790  173.9880  135.0510 N   0  0  0  0  0  1  0  0  0  0  0  0
  198.6170  173.6610  136.3440 C   0  0  2  0  0  3  0  0  0  0  0  0
  197.6940  172.4650  136.0160 C   0  0  0  0  0  2  0  0  0  0  0  0
  197.7860  171.4500  136.9710 O   0  0  0  0  0  1  0  0  0  0  0  0
  189.7410  176.2490  138.9020 C   0  0  0  0  0  2  0  0  0  0  0  0
  189.4300  177.7550  139.0500 C   0  0  0  0  0  2  0  0  0  0  0  0
  189.4160  178.0190  140.4270 N   0  0  0  0  0  2  0  0  0  0  0  0
  189.8630  176.9640  141.1730 C   0  0  0  0  0  2  0  0  0  0  0  0
  188.1250  177.8930  144.2470 C   0  0  0  0  0  0  0  0  0  0  0  0
  191.1610  177.1740  144.8080 C   0  0  0  0  0  3  0  0  0  0  0  0
  190.1880  177.0540  145.7080 C   0  0  0  0  0  0  0  0  0  0  0  0
  191.0800  176.9900  143.2990 C   0  0  0  0  0  3  0  0  0  0  0  0
  188.6820  177.4300  145.6210 C   0  0  0  0  0  2  0  0  0  0  0  0
  188.6030  177.6310  143.0450 C   0  0  0  0  0  3  0  0  0  0  0  0
  189.9320  176.9670  142.5740 C   0  0  0  0  0  0  0  0  0  0  0  0
  190.6820  176.5590  147.1290 C   0  0  2  0  0  3  0  0  0  0  0  0
  192.0930  176.8990  147.1430 O   0  0  0  0  0  0  0  0  0  0  0  0
  190.5380  175.0110  147.2540 C   0  0  0  0  0  2  0  0  0  0  0  0
  192.6870  175.8720  147.8570 C   0  0  2  0  0  3  0  0  0  0  0  0
  191.7330  174.6670  148.1090 C   0  0  0  0  0  2  0  0  0  0  0  0
  193.3850  176.4070  149.0830 C   0  0  0  0  0  2  0  0  0  0  0  0
  193.6320  177.9780  150.5590 C   0  0  0  0  0  1  0  0  0  0  0  0
  192.9560  177.6900  149.3740 O   0  0  0  0  0  0  0  0  0  0  0  0
  186.8860  178.7280  144.2380 C   0  0  0  0  0  2  0  0  0  0  0  0
  185.5490  178.1920  143.8890 C   0  0  1  0  0  3  0  0  0  0  0  0
  184.7040  178.2470  144.9770 O   0  0  0  0  0  1  0  0  0  0  0  0
  185.4540  179.5950  141.9840 O   0  0  0  0  0  0  0  0  0  0  0  0
  184.9630  178.6030  142.5940 C   0  0  0  0  0  0  0  0  0  0  0  0
  183.8370  178.0110  142.0990 O   0  0  0  0  0  0  0  0  0  0  0  0
  183.2870  178.2760  140.8120 C   0  0  0  0  0  1  0  0  0  0  0  0
  1 40  1  1  0  0  0
  2  5  1  0  0  0  0
  2 10  2  0  0  0  0
  3  9  1  0  0  0  0
  4  3  1  0  0  0  0
  5  8  2  0  0  0  0
  7  5  1  0  0  0  0
  7  3  2  0  0  0  0
  8 11  1  0  0  0  0
  8  6  1  0  0  0  0
  9  6  2  0  0  0  0
  9  1  1  0  0  0  0
 10 12  1  0  0  0  0
 10 11  1  0  0  0  0
 12 13  1  0  0  0  0
 14 16  1  0  0  0  0
 14 13  1  0  0  0  0
 16 15  1  0  0  0  0
 16 18  1  0  0  0  0
 17 16  2  0  0  0  0
 20 19  2  0  0  0  0
 20 21  1  0  0  0  0
 21  1  1  0  0  0  0
 22 25  1  1  0  0  0
 22 20  1  0  0  0  0
 23 22  1  0  0  0  0
 23 24  1  0  0  0  0
 25 26  1  0  0  0  0
 26 27  1  1  0  0  0
 28 29  1  0  0  0  0
 28 26  1  0  0  0  0
 29 30  1  0  0  0  0
 31 30  1  6  0  0  0
 31 33  1  0  0  0  0
 33 34  1  0  0  0  0
 33 32  2  0  0  0  0
 34 35  1  0  0  0  0
 37 36  1  6  0  0  0
 37 31  1  0  0  0  0
 38 37  1  0  0  0  0
 38 39  1  0  0  0  0
 40 41  1  0  0  0  0
 41 42  1  0  0  0  0
 42 43  1  0  0  0  0
 43 50  1  0  0  0  0
 44 48  1  0  0  0  0
 45 46  2  0  0  0  0
 47 45  1  0  0  0  0
 48 46  1  0  0  0  0
 49 44  2  0  0  0  0
 50 49  1  0  0  0  0
 50 47  2  0  0  0  0
 51 46  1  6  0  0  0
 51 52  1  0  0  0  0
 51 53  1  0  0  0  0
 52 54  1  0  0  0  0
 53 55  1  0  0  0  0
 54 55  1  0  0  0  0
 54 56  1  1  0  0  0
 56 58  1  0  0  0  0
 58 57  1  0  0  0  0
 59 44  1  0  0  0  0
 60 59  1  0  0  0  0
 60 61  1  1  0  0  0
 62 63  2  0  0  0  0
 63 60  1  0  0  0  0
 64 63  1  0  0  0  0
 65 64  1  0  0  0  0
M  END
>  <MODEL>
1

>  <REMARK>
 VINA RESULT:      -4.6      0.000      0.000
  Name = 
  29 active torsions:
  status: ('A' for Active; 'I' for Inactive)
    1  A    between atoms: O_2  and  C_61
    2  A    between atoms: O_3  and  C_28
    3  A    between atoms: C_4  and  C_14
    4  A    between atoms: C_4  and  C_46
    5  A    between atoms: C_5  and  N_38
    6  A    between atoms: C_5  and  C_57
    7  A    between atoms: C_7  and  CA_16
    8  A    between atoms: C_7  and  N_38
    9  A    between atoms: C_7  and  C_62
   10  A    between atoms: C_10  and  C_42
   11  A    between atoms: C_10  and  C_44
   12  A    between atoms: C_10  and  N_58
   13  A    between atoms: C_11  and  C_30
   14  A    between atoms: CA_16  and  C_17
   15  A    between atoms: P_19  and  C_50
   16  A    between atoms: O_22  and  C_59
   17  A    between atoms: C_25  and  C_33
   18  A    between atoms: C_25  and  C_49
   19  A    between atoms: C_28  and  C_40
   20  A    between atoms: C_28  and  C_43
   21  A    between atoms: C_33  and  C_50
   22  A    between atoms: C_34  and  C_59
   23  A    between atoms: C_39  and  C_62
   24  A    between atoms: C_40  and  C_52
   25  A    between atoms: C_41  and  C_44
   26  A    between atoms: C_41  and  N_51
   27  A    between atoms: C_46  and  C_61
   28  A    between atoms: C_52  and  C_57
   29  A    between atoms: C_63  and  C_65
                            x       y       z     vdW  Elec       q    Type
                         _______ _______ _______ _____ _____    ______ ____

>  <TORSDO>
F 29

$$$$
=
 OpenBabel10222419203D

 65 68  0  0  1  0  0  0  0  0999 V2000
  184.4500  177.0900  136.6480 C   0  0  1  0  0  3  0  0  0  0  0  0
  188.6550  173.3920  136.2370 N   0  0  0  0  0  0  0  0  0  0  0  0
  185.3560  174.7250  137.2320 C   0  0  0  0  0  0  0  0  0  0  0  0
  184.1770  174.4560  138.1690 C   0  0  0  0  0  1  0  0  0  0  0  0
  187.5190  174.0840  136.4070 C   0  0  0  0  0  0  0  0  0  0  0  0
  186.6730  176.2080  135.8160 C   0  0  0  0  0  3  0  0  0  0  0  0
  186.3710  173.7590  137.1490 C   0  0  0  0  0  3  0  0  0  0  0  0
  187.6070  175.2250  135.7780 C   0  0  0  0  0  0  0  0  0  0  0  0
  185.4780  175.9690  136.5020 C   0  0  0  0  0  0  0  0  0  0  0  0
  189.4100  174.2330  135.4810 C   0  0  0  0  0  0  0  0  0  0  0  0
  188.7890  175.4580  135.2400 N   0  0  0  0  0  2  0  0  0  0  0  0
  190.8570  174.0130  135.1690 C   0  0  0  0  0  3  0  0  0  0  0  0
  191.8060  173.7690  136.3500 C   0  0  0  0  0  3  0  0  0  0  0  0
  193.3930  173.6230  136.1370 C   0  0  0  0  0  2  0  0  0  0  0  0
  194.9690  176.0410  135.3500 O   0  0  0  0  0  0  0  0  0  0  0  0
  194.3490  175.2130  136.7350 P   0  0  0  0  0  0  0  0  0  0  0  0
  195.5480  174.7560  137.5850 O   0  0  0  0  0  1  0  0  0  0  0  0
  193.2990  176.2780  137.6370 O   0  0  0  0  0  1  0  0  0  0  0  0
  182.2940  177.9080  134.5940 O   0  0  0  0  0  0  0  0  0  0  0  0
  182.0050  177.1020  135.5240 C   0  0  0  0  0  0  0  0  0  0  0  0
  182.9720  176.6870  136.5050 N   0  0  0  0  0  2  0  0  0  0  0  0
  180.6160  176.4410  135.6630 C   0  0  2  0  0  3  0  0  0  0  0  0
  180.6240  175.0590  135.8030 O   0  0  0  0  0  0  0  0  0  0  0  0
  181.3670  174.6900  134.7690 O   0  0  0  0  0  1  0  0  0  0  0  0
  179.4030  177.1850  135.0000 C   0  0  0  0  0  2  0  0  0  0  0  0
  178.9550  178.4260  135.8010 C   0  0  2  0  0  3  0  0  0  0  0  0
  179.4510  179.5740  134.9370 C   0  0  0  0  0  1  0  0  0  0  0  0
  179.5140  178.4790  137.2700 C   0  0  0  0  0  2  0  0  0  0  0  0
  178.9850  179.6740  138.1600 C   0  0  0  0  0  2  0  0  0  0  0  0
  179.8140  179.7780  139.4120 N   0  0  0  0  0  2  0  0  0  0  0  0
  179.3390  179.2110  140.6590 C   0  0  1  0  0  3  0  0  0  0  0  0
  180.2960  177.9190  142.4030 O   0  0  0  0  0  0  0  0  0  0  0  0
  180.4020  178.4200  141.2780 C   0  0  0  0  0  0  0  0  0  0  0  0
  181.5150  178.0230  140.3550 C   0  0  0  0  0  2  0  0  0  0  0  0
  181.5130  176.6410  139.9320 N   0  0  0  0  0  1  0  0  0  0  0  0
  179.1940  181.7030  141.0400 N   0  0  0  0  0  1  0  0  0  0  0  0
  178.9320  180.3880  141.5850 C   0  0  2  0  0  3  0  0  0  0  0  0
  179.7070  180.4180  142.9210 C   0  0  0  0  0  2  0  0  0  0  0  0
  178.9930  179.8160  143.9600 O   0  0  0  0  0  1  0  0  0  0  0  0
  184.6620  178.2330  137.7410 C   0  0  0  0  0  2  0  0  0  0  0  0
  186.1220  178.7340  137.8060 C   0  0  0  0  0  2  0  0  0  0  0  0
  186.7390  178.0130  138.8380 N   0  0  0  0  0  2  0  0  0  0  0  0
  186.7430  178.6890  140.0270 C   0  0  0  0  0  2  0  0  0  0  0  0
  186.0850  177.7470  143.4930 C   0  0  0  0  0  0  0  0  0  0  0  0
  189.1950  177.9620  142.9250 C   0  0  0  0  0  3  0  0  0  0  0  0
  188.6620  177.1880  143.8670 C   0  0  0  0  0  0  0  0  0  0  0  0
  188.6130  178.3380  141.5690 C   0  0  0  0  0  3  0  0  0  0  0  0
  187.1840  177.0280  144.3220 C   0  0  0  0  0  2  0  0  0  0  0  0
  186.1370  178.1330  142.2320 C   0  0  0  0  0  3  0  0  0  0  0  0
  187.3130  178.1940  141.2090 C   0  0  0  0  0  0  0  0  0  0  0  0
  189.7270  176.4020  144.7360 C   0  0  2  0  0  3  0  0  0  0  0  0
  189.9350  177.2610  145.8890 O   0  0  0  0  0  0  0  0  0  0  0  0
  191.0760  176.2670  143.9640 C   0  0  0  0  0  2  0  0  0  0  0  0
  191.2770  177.1060  146.1940 C   0  0  2  0  0  3  0  0  0  0  0  0
  192.0770  176.3550  145.0900 C   0  0  0  0  0  2  0  0  0  0  0  0
  191.4480  176.5670  147.5930 C   0  0  0  0  0  2  0  0  0  0  0  0
  193.0940  175.6050  148.6310 C   0  0  0  0  0  1  0  0  0  0  0  0
  192.7220  176.8260  148.0680 O   0  0  0  0  0  0  0  0  0  0  0  0
  184.7830  178.0440  144.1630 C   0  0  0  0  0  2  0  0  0  0  0  0
  184.5890  179.1810  145.0940 C   0  0  1  0  0  3  0  0  0  0  0  0
  183.4330  179.8680  144.7860 O   0  0  0  0  0  1  0  0  0  0  0  0
  184.0610  178.1650  147.1650 O   0  0  0  0  0  0  0  0  0  0  0  0
  184.8340  178.9390  146.5320 C   0  0  0  0  0  0  0  0  0  0  0  0
  185.8010  179.6160  147.2160 O   0  0  0  0  0  0  0  0  0  0  0  0
  186.7030  179.0160  148.1410 C   0  0  0  0  0  1  0  0  0  0  0  0
  1 40  1  1  0  0  0
  2  5  1  0  0  0  0
  3  4  1  0  0  0  0
  5  7  2  0  0  0  0
  6  9  1  0  0  0  0
  7  3  1  0  0  0  0
  8  6  2  0  0  0  0
  8  5  1  0  0  0  0
  9  1  1  0  0  0  0
  9  3  2  0  0  0  0
 10  2  2  0  0  0  0
 11 10  1  0  0  0  0
 11  8  1  0  0  0  0
 12 10  1  0  0  0  0
 12 13  2  0  0  0  0
 14 13  1  0  0  0  0
 14 16  1  0  0  0  0
 15 16  2  0  0  0  0
 16 17  1  0  0  0  0
 16 18  1  0  0  0  0
 19 20  2  0  0  0  0
 20 22  1  0  0  0  0
 20 21  1  0  0  0  0
 21  1  1  0  0  0  0
 22 25  1  6  0  0  0
 22 23  1  0  0  0  0
 24 23  1  0  0  0  0
 25 26  1  0  0  0  0
 26 27  1  6  0  0  0
 26 28  1  0  0  0  0
 28 29  1  0  0  0  0
 29 30  1  0  0  0  0
 31 30  1  6  0  0  0
 31 33  1  0  0  0  0
 31 37  1  0  0  0  0
 33 32  2  0  0  0  0
 34 33  1  0  0  0  0
 35 34  1  0  0  0  0
 37 36  1  6  0  0  0
 37 38  1  0  0  0  0
 38 39  1  0  0  0  0
 40 41  1  0  0  0  0
 41 42  1  0  0  0  0
 42 43  1  0  0  0  0
 43 50  1  0  0  0  0
 44 59  1  0  0  0  0
 44 48  1  0  0  0  0
 45 46  2  0  0  0  0
 46 48  1  0  0  0  0
 47 45  1  0  0  0  0
 49 44  2  0  0  0  0
 50 47  2  0  0  0  0
 50 49  1  0  0  0  0
 51 46  1  6  0  0  0
 51 52  1  0  0  0  0
 52 54  1  0  0  0  0
 53 51  1  0  0  0  0
 53 55  1  0  0  0  0
 54 56  1  1  0  0  0
 55 54  1  0  0  0  0
 56 58  1  0  0  0  0
 58 57  1  0  0  0  0
 59 60  1  0  0  0  0
 60 61  1  1  0  0  0
 60 63  1  0  0  0  0
 63 62  2  0  0  0  0
 63 64  1  0  0  0  0
 64 65  1  0  0  0  0
M  END
>  <MODEL>
2

>  <REMARK>
 VINA RESULT:      -4.4      3.633     10.502
  Name = 
  29 active torsions:
  status: ('A' for Active; 'I' for Inactive)
    1  A    between atoms: O_2  and  C_61
    2  A    between atoms: O_3  and  C_28
    3  A    between atoms: C_4  and  C_14
    4  A    between atoms: C_4  and  C_46
    5  A    between atoms: C_5  and  N_38
    6  A    between atoms: C_5  and  C_57
    7  A    between atoms: C_7  and  CA_16
    8  A    between atoms: C_7  and  N_38
    9  A    between atoms: C_7  and  C_62
   10  A    between atoms: C_10  and  C_42
   11  A    between atoms: C_10  and  C_44
   12  A    between atoms: C_10  and  N_58
   13  A    between atoms: C_11  and  C_30
   14  A    between atoms: CA_16  and  C_17
   15  A    between atoms: P_19  and  C_50
   16  A    between atoms: O_22  and  C_59
   17  A    between atoms: C_25  and  C_33
   18  A    between atoms: C_25  and  C_49
   19  A    between atoms: C_28  and  C_40
   20  A    between atoms: C_28  and  C_43
   21  A    between atoms: C_33  and  C_50
   22  A    between atoms: C_34  and  C_59
   23  A    between atoms: C_39  and  C_62
   24  A    between atoms: C_40  and  C_52
   25  A    between atoms: C_41  and  C_44
   26  A    between atoms: C_41  and  N_51
   27  A    between atoms: C_46  and  C_61
   28  A    between atoms: C_52  and  C_57
   29  A    between atoms: C_63  and  C_65
                            x       y       z     vdW  Elec       q    Type
                         _______ _______ _______ _____ _____    ______ ____

>  <TORSDO>
F 29

$$$$
=
 OpenBabel10222419203D

 65 68  0  0  1  0  0  0  0  0999 V2000
  189.7770  177.7960  139.7020 C   0  0  1  0  0  3  0  0  0  0  0  0
  186.2630  177.5330  144.0730 N   0  0  0  0  0  0  0  0  0  0  0  0
  189.3750  177.0200  142.1490 C   0  0  0  0  0  0  0  0  0  0  0  0
  190.6880  176.2350  142.1630 C   0  0  0  0  0  1  0  0  0  0  0  0
  187.2730  177.5350  143.1910 C   0  0  0  0  0  0  0  0  0  0  0  0
  187.6580  178.3030  140.9910 C   0  0  0  0  0  3  0  0  0  0  0  0
  188.5420  176.9370  143.2760 C   0  0  0  0  0  3  0  0  0  0  0  0
  186.9110  178.1860  142.1180 C   0  0  0  0  0  0  0  0  0  0  0  0
  188.9510  177.7690  140.9870 C   0  0  0  0  0  0  0  0  0  0  0  0
  185.2860  178.2120  143.4150 C   0  0  0  0  0  0  0  0  0  0  0  0
  185.6500  178.5740  142.1180 N   0  0  0  0  0  2  0  0  0  0  0  0
  183.8720  178.3270  143.8920 C   0  0  0  0  0  2  0  0  0  0  0  0
  182.7830  178.5400  142.8310 C   0  0  0  0  0  2  0  0  0  0  0  0
  181.5940  179.6000  143.0500 C   0  0  0  0  0  2  0  0  0  0  0  0
  178.9310  180.1000  141.7840 O   0  0  0  0  0  1  0  0  0  0  0  0
  179.8660  178.8580  142.5390 P   0  0  0  0  0  0  0  0  0  0  0  0
  179.1320  178.4330  143.8240 O   0  0  0  0  0  1  0  0  0  0  0  0
  180.0560  177.5140  141.4410 O   0  0  0  0  0  0  0  0  0  0  0  0
  191.7550  176.7990  137.5500 O   0  0  0  0  0  0  0  0  0  0  0  0
  190.7830  176.0690  137.9000 C   0  0  0  0  0  0  0  0  0  0  0  0
  189.8350  176.4850  138.8980 N   0  0  0  0  0  2  0  0  0  0  0  0
  190.5530  174.6490  137.3400 C   0  0  2  0  0  3  0  0  0  0  0  0
  189.2950  174.1090  137.5780 O   0  0  0  0  0  0  0  0  0  0  0  0
  188.7100  174.2650  136.3990 O   0  0  0  0  0  1  0  0  0  0  0  0
  191.8160  173.7300  137.1860 C   0  0  0  0  0  2  0  0  0  0  0  0
  192.3060  173.6280  135.7250 C   0  0  2  0  0  3  0  0  0  0  0  0
  191.5200  172.4400  135.1960 C   0  0  0  0  0  1  0  0  0  0  0  0
  193.8610  173.4480  135.5800 C   0  0  0  0  0  2  0  0  0  0  0  0
  194.5170  172.3800  136.5440 C   0  0  0  0  0  2  0  0  0  0  0  0
  195.3510  173.0800  137.5830 N   0  0  0  0  0  2  0  0  0  0  0  0
  196.7410  173.3980  137.3190 C   0  0  1  0  0  3  0  0  0  0  0  0
  197.9990  175.3120  137.9380 O   0  0  0  0  0  0  0  0  0  0  0  0
  197.1990  174.4250  138.2540 C   0  0  0  0  0  0  0  0  0  0  0  0
  196.4270  174.5020  139.5380 C   0  0  0  0  0  2  0  0  0  0  0  0
  196.6430  175.6930  140.3260 N   0  0  0  0  0  1  0  0  0  0  0  0
  198.8710  172.1140  136.8840 N   0  0  0  0  0  1  0  0  0  0  0  0
  197.5630  172.0950  137.5030 C   0  0  2  0  0  3  0  0  0  0  0  0
  196.9040  170.8540  136.8600 C   0  0  0  0  0  2  0  0  0  0  0  0
  196.5440  169.8960  137.8100 O   0  0  0  0  0  1  0  0  0  0  0  0
  189.7500  179.0830  138.7590 C   0  0  0  0  0  2  0  0  0  0  0  0
  189.0040  178.8330  137.4290 C   0  0  0  0  0  2  0  0  0  0  0  0
  187.8530  178.1020  137.7550 N   0  0  0  0  0  2  0  0  0  0  0  0
  186.7590  178.4880  137.0320 C   0  0  0  0  0  2  0  0  0  0  0  0
  184.5010  175.8620  135.8760 C   0  0  0  0  0  0  0  0  0  0  0  0
  182.9600  178.0380  137.5900 C   0  0  0  0  0  3  0  0  0  0  0  0
  182.5700  176.7710  137.4710 C   0  0  0  0  0  0  0  0  0  0  0  0
  184.3780  178.5940  137.5980 C   0  0  0  0  0  3  0  0  0  0  0  0
  183.1590  175.6120  136.6190 C   0  0  0  0  0  2  0  0  0  0  0  0
  185.4410  176.7410  136.1680 C   0  0  0  0  0  3  0  0  0  0  0  0
  185.4820  177.9250  137.1800 C   0  0  0  0  0  0  0  0  0  0  0  0
  181.2190  176.4380  138.2270 C   0  0  2  0  0  3  0  0  0  0  0  0
  181.1210  174.9920  138.1380 O   0  0  0  0  0  0  0  0  0  0  0  0
  180.0020  177.0690  137.4830 C   0  0  0  0  0  2  0  0  0  0  0  0
  179.7640  174.7480  138.0090 C   0  0  2  0  0  3  0  0  0  0  0  0
  178.9320  176.0330  137.7270 C   0  0  0  0  0  2  0  0  0  0  0  0
  179.2630  173.8930  139.1470 C   0  0  0  0  0  2  0  0  0  0  0  0
  179.5070  172.4790  137.5180 C   0  0  0  0  0  1  0  0  0  0  0  0
  179.5260  172.5550  138.9110 O   0  0  0  0  0  0  0  0  0  0  0  0
  184.8120  175.0120  134.6870 C   0  0  0  0  0  2  0  0  0  0  0  0
  185.0660  173.5550  134.7750 C   0  0  1  0  0  3  0  0  0  0  0  0
  186.3410  173.3110  135.2430 O   0  0  0  0  0  1  0  0  0  0  0  0
  182.9780  172.4470  134.6400 O   0  0  0  0  0  0  0  0  0  0  0  0
  183.9960  172.7060  135.3440 C   0  0  0  0  0  0  0  0  0  0  0  0
  184.0280  172.2900  136.6430 O   0  0  0  0  0  0  0  0  0  0  0  0
  184.9440  172.7740  137.6210 C   0  0  0  0  0  1  0  0  0  0  0  0
  1 40  1  6  0  0  0
  1  9  1  0  0  0  0
  3  4  1  0  0  0  0
  3  7  1  0  0  0  0
  5  7  2  0  0  0  0
  5  2  1  0  0  0  0
  6  8  2  0  0  0  0
  8  5  1  0  0  0  0
  9  6  1  0  0  0  0
  9  3  2  0  0  0  0
 10 12  1  0  0  0  0
 10  2  2  0  0  0  0
 11  8  1  0  0  0  0
 11 10  1  0  0  0  0
 13 14  1  0  0  0  0
 13 12  1  0  0  0  0
 15 16  1  0  0  0  0
 16 14  1  0  0  0  0
 16 17  1  0  0  0  0
 18 16  2  0  0  0  0
 19 20  2  0  0  0  0
 20 21  1  0  0  0  0
 21  1  1  0  0  0  0
 22 25  1  1  0  0  0
 22 23  1  0  0  0  0
 22 20  1  0  0  0  0
 24 23  1  0  0  0  0
 26 27  1  1  0  0  0
 26 25  1  0  0  0  0
 28 26  1  0  0  0  0
 28 29  1  0  0  0  0
 29 30  1  0  0  0  0
 31 37  1  0  0  0  0
 31 30  1  1  0  0  0
 31 33  1  0  0  0  0
 32 33  2  0  0  0  0
 33 34  1  0  0  0  0
 34 35  1  0  0  0  0
 37 36  1  6  0  0  0
 38 37  1  0  0  0  0
 38 39  1  0  0  0  0
 41 42  1  0  0  0  0
 41 40  1  0  0  0  0
 43 50  1  0  0  0  0
 43 42  1  0  0  0  0
 44 49  2  0  0  0  0
 44 48  1  0  0  0  0
 45 47  1  0  0  0  0
 46 45  2  0  0  0  0
 48 46  1  0  0  0  0
 49 50  1  0  0  0  0
 50 47  2  0  0  0  0
 51 46  1  6  0  0  0
 52 51  1  0  0  0  0
 53 55  1  0  0  0  0
 53 51  1  0  0  0  0
 54 52  1  0  0  0  0
 54 56  1  1  0  0  0
 55 54  1  0  0  0  0
 57 58  1  0  0  0  0
 58 56  1  0  0  0  0
 59 60  1  0  0  0  0
 59 44  1  0  0  0  0
 60 61  1  1  0  0  0
 60 63  1  0  0  0  0
 62 63  2  0  0  0  0
 63 64  1  0  0  0  0
 64 65  1  0  0  0  0
M  END
>  <MODEL>
3

>  <REMARK>
 VINA RESULT:      -4.3      3.734      8.482
  Name = 
  29 active torsions:
  status: ('A' for Active; 'I' for Inactive)
    1  A    between atoms: O_2  and  C_61
    2  A    between atoms: O_3  and  C_28
    3  A    between atoms: C_4  and  C_14
    4  A    between atoms: C_4  and  C_46
    5  A    between atoms: C_5  and  N_38
    6  A    between atoms: C_5  and  C_57
    7  A    between atoms: C_7  and  CA_16
    8  A    between atoms: C_7  and  N_38
    9  A    between atoms: C_7  and  C_62
   10  A    between atoms: C_10  and  C_42
   11  A    between atoms: C_10  and  C_44
   12  A    between atoms: C_10  and  N_58
   13  A    between atoms: C_11  and  C_30
   14  A    between atoms: CA_16  and  C_17
   15  A    between atoms: P_19  and  C_50
   16  A    between atoms: O_22  and  C_59
   17  A    between atoms: C_25  and  C_33
   18  A    between atoms: C_25  and  C_49
   19  A    between atoms: C_28  and  C_40
   20  A    between atoms: C_28  and  C_43
   21  A    between atoms: C_33  and  C_50
   22  A    between atoms: C_34  and  C_59
   23  A    between atoms: C_39  and  C_62
   24  A    between atoms: C_40  and  C_52
   25  A    between atoms: C_41  and  C_44
   26  A    between atoms: C_41  and  N_51
   27  A    between atoms: C_46  and  C_61
   28  A    between atoms: C_52  and  C_57
   29  A    between atoms: C_63  and  C_65
                            x       y       z     vdW  Elec       q    Type
                         _______ _______ _______ _____ _____    ______ ____

>  <TORSDO>
F 29

$$$$
=
 OpenBabel10222419203D

 65 68  0  0  1  0  0  0  0  0999 V2000
  189.5020  177.1700  142.1250 C   0  0  1  0  0  3  0  0  0  0  0  0
  193.5460  176.8160  138.2450 N   0  0  0  0  0  0  0  0  0  0  0  0
  191.9750  177.6510  141.4830 C   0  0  0  0  0  0  0  0  0  0  0  0
  192.1920  178.4740  142.7550 C   0  0  0  0  0  1  0  0  0  0  0  0
  192.7620  176.9480  139.3260 C   0  0  0  0  0  0  0  0  0  0  0  0
  190.5350  176.4480  139.9290 C   0  0  0  0  0  3  0  0  0  0  0  0
  193.0250  177.5770  140.5550 C   0  0  0  0  0  3  0  0  0  0  0  0
  191.5960  176.4110  139.0850 C   0  0  0  0  0  0  0  0  0  0  0  0
  190.7040  177.0230  141.1930 C   0  0  0  0  0  0  0  0  0  0  0  0
  192.7320  176.1820  137.3590 C   0  0  0  0  0  0  0  0  0  0  0  0
  191.4410  175.9820  137.8470 N   0  0  0  0  0  2  0  0  0  0  0  0
  193.0660  175.9660  135.9160 C   0  0  0  0  0  3  0  0  0  0  0  0
  194.2940  175.1010  135.5980 C   0  0  0  0  0  3  0  0  0  0  0  0
  195.1430  174.3870  136.7620 C   0  0  0  0  0  2  0  0  0  0  0  0
  197.5910  173.5300  135.2730 O   0  0  0  0  0  0  0  0  0  0  0  0
  197.0600  174.6230  136.5020 P   0  0  0  0  0  0  0  0  0  0  0  0
  197.7700  174.2370  137.8130 O   0  0  0  0  0  1  0  0  0  0  0  0
  197.4370  176.2630  136.0340 O   0  0  0  0  0  1  0  0  0  0  0  0
  190.9630  175.3150  144.1160 O   0  0  0  0  0  0  0  0  0  0  0  0
  190.5010  176.4250  144.5110 C   0  0  0  0  0  0  0  0  0  0  0  0
  189.8150  177.3260  143.6240 N   0  0  0  0  0  2  0  0  0  0  0  0
  190.6780  176.9440  145.9540 C   0  0  2  0  0  3  0  0  0  0  0  0
  191.9930  177.0710  146.3850 O   0  0  0  0  0  0  0  0  0  0  0  0
  192.1480  175.9630  147.0960 O   0  0  0  0  0  1  0  0  0  0  0  0
  189.5150  176.6500  146.9660 C   0  0  0  0  0  2  0  0  0  0  0  0
  188.3870  177.7040  146.9000 C   0  0  2  0  0  3  0  0  0  0  0  0
  187.7840  177.6270  148.2920 C   0  0  0  0  0  1  0  0  0  0  0  0
  187.3340  177.4460  145.7610 C   0  0  0  0  0  2  0  0  0  0  0  0
  186.7530  178.7410  145.0640 C   0  0  0  0  0  2  0  0  0  0  0  0
  185.5490  178.3750  144.2380 N   0  0  0  0  0  2  0  0  0  0  0  0
  184.7890  179.4000  143.5490 C   0  0  1  0  0  3  0  0  0  0  0  0
  184.8280  179.7380  141.2010 O   0  0  0  0  0  0  0  0  0  0  0  0
  184.5700  179.0010  142.1590 C   0  0  0  0  0  0  0  0  0  0  0  0
  184.2750  177.5440  141.9570 C   0  0  0  0  0  2  0  0  0  0  0  0
  183.4210  177.2300  140.8350 N   0  0  0  0  0  1  0  0  0  0  0  0
  183.3980  178.9760  145.6120 N   0  0  0  0  0  1  0  0  0  0  0  0
  183.4330  179.5550  144.2870 C   0  0  2  0  0  3  0  0  0  0  0  0
  182.2600  178.8440  143.5760 C   0  0  0  0  0  2  0  0  0  0  0  0
  181.0800  179.5900  143.6290 O   0  0  0  0  0  1  0  0  0  0  0  0
  188.2420  178.0400  141.6770 C   0  0  0  0  0  2  0  0  0  0  0  0
  188.3050  178.4580  140.1900 C   0  0  0  0  0  2  0  0  0  0  0  0
  187.3780  177.6520  139.5160 N   0  0  0  0  0  2  0  0  0  0  0  0
  186.3430  178.3680  138.9810 C   0  0  0  0  0  2  0  0  0  0  0  0
  185.4300  175.9770  136.3770 C   0  0  0  0  0  0  0  0  0  0  0  0
  182.9900  177.8560  137.1270 C   0  0  0  0  0  3  0  0  0  0  0  0
  182.8590  176.6270  136.6320 C   0  0  0  0  0  0  0  0  0  0  0  0
  184.0800  178.3950  138.0440 C   0  0  0  0  0  3  0  0  0  0  0  0
  183.9360  175.6180  136.1450 C   0  0  0  0  0  3  0  0  0  0  0  0
  185.9400  176.7920  137.2810 C   0  0  0  0  0  2  0  0  0  0  0  0
  185.2770  177.7960  138.2720 C   0  0  0  0  0  0  0  0  0  0  0  0
  181.3580  176.1840  136.3950 C   0  0  2  0  0  3  0  0  0  0  0  0
  181.4330  174.7360  136.3150 O   0  0  0  0  0  0  0  0  0  0  0  0
  180.8310  176.7330  135.0330 C   0  0  0  0  0  2  0  0  0  0  0  0
  180.4730  174.3930  135.3780 C   0  0  2  0  0  3  0  0  0  0  0  0
  179.9140  175.6170  134.5940 C   0  0  0  0  0  2  0  0  0  0  0  0
  179.4310  173.4870  135.9860 C   0  0  0  0  0  2  0  0  0  0  0  0
  180.9700  172.3640  137.0250 C   0  0  0  0  0  1  0  0  0  0  0  0
  179.9180  172.1990  136.1240 O   0  0  0  0  0  0  0  0  0  0  0  0
  186.4510  175.3290  135.4990 C   0  0  0  0  0  2  0  0  0  0  0  0
  187.8000  174.9390  135.9740 C   0  0  1  0  0  3  0  0  0  0  0  0
  188.2800  175.8590  136.8820 O   0  0  0  0  0  1  0  0  0  0  0  0
  189.0130  173.2040  137.0350 O   0  0  0  0  0  0  0  0  0  0  0  0
  188.0200  173.5170  136.3180 C   0  0  0  0  0  0  0  0  0  0  0  0
  187.2460  172.5260  135.7880 O   0  0  0  0  0  0  0  0  0  0  0  0
  187.6180  171.1510  135.7410 C   0  0  0  0  0  1  0  0  0  0  0  0
  1 40  1  6  0  0  0
  1 21  1  0  0  0  0
  2  5  1  0  0  0  0
  3  4  1  0  0  0  0
  5  7  1  0  0  0  0
  6  9  2  0  0  0  0
  7  3  2  0  0  0  0
  8  5  2  0  0  0  0
  8  6  1  0  0  0  0
  9  3  1  0  0  0  0
  9  1  1  0  0  0  0
 10 11  1  0  0  0  0
 10  2  2  0  0  0  0
 11  8  1  0  0  0  0
 12 10  1  0  0  0  0
 13 12  2  0  0  0  0
 13 14  1  0  0  0  0
 15 16  2  0  0  0  0
 16 14  1  0  0  0  0
 16 17  1  0  0  0  0
 18 16  1  0  0  0  0
 19 20  2  0  0  0  0
 20 22  1  0  0  0  0
 21 20  1  0  0  0  0
 22 23  1  0  0  0  0
 22 25  1  1  0  0  0
 23 24  1  0  0  0  0
 26 25  1  0  0  0  0
 26 27  1  1  0  0  0
 28 26  1  0  0  0  0
 29 28  1  0  0  0  0
 30 29  1  0  0  0  0
 31 33  1  6  0  0  0
 31 30  1  0  0  0  0
 31 37  1  0  0  0  0
 32 33  2  0  0  0  0
 34 33  1  0  0  0  0
 35 34  1  0  0  0  0
 37 36  1  1  0  0  0
 38 39  1  0  0  0  0
 38 37  1  0  0  0  0
 41 40  1  0  0  0  0
 42 41  1  0  0  0  0
 43 42  1  0  0  0  0
 44 49  1  0  0  0  0
 45 47  1  0  0  0  0
 46 45  2  0  0  0  0
 47 50  2  0  0  0  0
 48 44  2  0  0  0  0
 48 46  1  0  0  0  0
 49 50  1  0  0  0  0
 50 43  1  0  0  0  0
 51 46  1  6  0  0  0
 52 51  1  0  0  0  0
 53 51  1  0  0  0  0
 54 56  1  1  0  0  0
 54 52  1  0  0  0  0
 55 53  1  0  0  0  0
 55 54  1  0  0  0  0
 56 58  1  0  0  0  0
 58 57  1  0  0  0  0
 59 60  1  0  0  0  0
 59 44  1  0  0  0  0
 60 63  1  0  0  0  0
 60 61  1  1  0  0  0
 63 62  2  0  0  0  0
 64 63  1  0  0  0  0
 65 64  1  0  0  0  0
M  END
>  <MODEL>
4

>  <REMARK>
 VINA RESULT:      -4.3      3.252     12.379
  Name = 
  29 active torsions:
  status: ('A' for Active; 'I' for Inactive)
    1  A    between atoms: O_2  and  C_61
    2  A    between atoms: O_3  and  C_28
    3  A    between atoms: C_4  and  C_14
    4  A    between atoms: C_4  and  C_46
    5  A    between atoms: C_5  and  N_38
    6  A    between atoms: C_5  and  C_57
    7  A    between atoms: C_7  and  CA_16
    8  A    between atoms: C_7  and  N_38
    9  A    between atoms: C_7  and  C_62
   10  A    between atoms: C_10  and  C_42
   11  A    between atoms: C_10  and  C_44
   12  A    between atoms: C_10  and  N_58
   13  A    between atoms: C_11  and  C_30
   14  A    between atoms: CA_16  and  C_17
   15  A    between atoms: P_19  and  C_50
   16  A    between atoms: O_22  and  C_59
   17  A    between atoms: C_25  and  C_33
   18  A    between atoms: C_25  and  C_49
   19  A    between atoms: C_28  and  C_40
   20  A    between atoms: C_28  and  C_43
   21  A    between atoms: C_33  and  C_50
   22  A    between atoms: C_34  and  C_59
   23  A    between atoms: C_39  and  C_62
   24  A    between atoms: C_40  and  C_52
   25  A    between atoms: C_41  and  C_44
   26  A    between atoms: C_41  and  N_51
   27  A    between atoms: C_46  and  C_61
   28  A    between atoms: C_52  and  C_57
   29  A    between atoms: C_63  and  C_65
                            x       y       z     vdW  Elec       q    Type
                         _______ _______ _______ _____ _____    ______ ____

>  <TORSDO>
F 29

$$$$
=
 OpenBabel10222419203D

 65 68  0  0  1  0  0  0  0  0999 V2000
  189.9560  175.4040  137.1010 C   0  0  1  0  0  3  0  0  0  0  0  0
  184.7390  173.7580  135.8360 N   0  0  0  0  0  0  0  0  0  0  0  0
  187.6620  176.0080  136.0400 C   0  0  0  0  0  0  0  0  0  0  0  0
  188.0710  177.4740  135.8800 C   0  0  0  0  0  1  0  0  0  0  0  0
  185.9410  174.3330  135.9840 C   0  0  0  0  0  0  0  0  0  0  0  0
  188.0450  173.7560  136.8870 C   0  0  0  0  0  3  0  0  0  0  0  0
  186.3520  175.6450  135.6900 C   0  0  0  0  0  3  0  0  0  0  0  0
  186.7700  173.4770  136.5170 C   0  0  0  0  0  0  0  0  0  0  0  0
  188.5600  175.0260  136.6070 C   0  0  0  0  0  0  0  0  0  0  0  0
  184.9360  172.5130  136.3470 C   0  0  0  0  0  0  0  0  0  0  0  0
  186.2160  172.3310  136.8690 N   0  0  0  0  0  2  0  0  0  0  0  0
  183.8420  171.5210  136.5940 C   0  0  0  0  0  2  0  0  0  0  0  0
  182.4230  172.0710  136.7980 C   0  0  0  0  0  2  0  0  0  0  0  0
  181.6260  172.8000  135.6070 C   0  0  0  0  0  2  0  0  0  0  0  0
  180.8430  174.4790  137.9550 O   0  0  0  0  0  1  0  0  0  0  0  0
  180.5300  174.2690  136.2680 P   0  0  0  0  0  0  0  0  0  0  0  0
  179.0510  173.8690  136.1110 O   0  0  0  0  0  1  0  0  0  0  0  0
  180.8810  175.7520  135.4150 O   0  0  0  0  0  0  0  0  0  0  0  0
  191.9260  173.0270  137.1990 O   0  0  0  0  0  0  0  0  0  0  0  0
  192.0260  173.8920  136.2810 C   0  0  0  0  0  0  0  0  0  0  0  0
  191.1330  175.0160  136.1890 N   0  0  0  0  0  2  0  0  0  0  0  0
  193.0670  173.7960  135.1450 C   0  0  2  0  0  3  0  0  0  0  0  0
  193.2350  172.5310  134.5950 O   0  0  0  0  0  0  0  0  0  0  0  0
  194.2790  172.0810  135.2770 O   0  0  0  0  0  1  0  0  0  0  0  0
  194.2410  174.8380  135.1640 C   0  0  0  0  0  2  0  0  0  0  0  0
  193.8860  176.1220  135.9440 C   0  0  2  0  0  3  0  0  0  0  0  0
  194.5780  177.2040  135.1310 C   0  0  0  0  0  1  0  0  0  0  0  0
  194.3390  176.1040  137.4500 C   0  0  0  0  0  2  0  0  0  0  0  0
  194.7000  174.6800  138.0360 C   0  0  0  0  0  2  0  0  0  0  0  0
  195.8480  174.8070  139.0010 N   0  0  0  0  0  2  0  0  0  0  0  0
  197.0350  173.9870  138.8440 C   0  0  1  0  0  3  0  0  0  0  0  0
  197.1600  173.6590  136.4980 O   0  0  0  0  0  0  0  0  0  0  0  0
  196.9290  173.1940  137.6200 C   0  0  0  0  0  0  0  0  0  0  0  0
  196.7910  171.7160  137.8320 C   0  0  0  0  0  2  0  0  0  0  0  0
  195.4430  171.2370  138.0330 N   0  0  0  0  0  1  0  0  0  0  0  0
  199.1680  174.6670  137.6760 N   0  0  0  0  0  1  0  0  0  0  0  0
  198.2560  174.9410  138.7670 C   0  0  2  0  0  3  0  0  0  0  0  0
  199.1790  174.8620  140.0040 C   0  0  0  0  0  2  0  0  0  0  0  0
  198.4800  175.0580  141.1970 O   0  0  0  0  0  1  0  0  0  0  0  0
  190.1940  176.8000  137.8350 C   0  0  0  0  0  2  0  0  0  0  0  0
  190.9880  176.6540  139.1530 C   0  0  0  0  0  2  0  0  0  0  0  0
  190.0840  176.9250  140.1890 N   0  0  0  0  0  2  0  0  0  0  0  0
  189.0440  177.7180  139.7890 C   0  0  0  0  0  2  0  0  0  0  0  0
  185.4600  178.3670  140.0440 C   0  0  0  0  0  0  0  0  0  0  0  0
  187.0340  179.5960  142.5050 C   0  0  0  0  0  3  0  0  0  0  0  0
  185.7570  179.2230  142.5490 C   0  0  0  0  0  0  0  0  0  0  0  0
  188.1690  178.9880  141.6920 C   0  0  0  0  0  3  0  0  0  0  0  0
  184.8260  178.6820  141.4270 C   0  0  0  0  0  2  0  0  0  0  0  0
  186.7190  178.0840  139.7710 C   0  0  0  0  0  3  0  0  0  0  0  0
  188.0130  178.1470  140.6380 C   0  0  0  0  0  0  0  0  0  0  0  0
  185.0540  179.4920  143.9420 C   0  0  2  0  0  3  0  0  0  0  0  0
  185.5310  178.4110  144.7850 O   0  0  0  0  0  0  0  0  0  0  0  0
  183.5040  179.3760  143.8070 C   0  0  0  0  0  2  0  0  0  0  0  0
  184.4530  178.1130  145.6030 C   0  0  2  0  0  3  0  0  0  0  0  0
  183.1290  178.7940  145.1490 C   0  0  0  0  0  2  0  0  0  0  0  0
  184.8140  178.3090  147.0550 C   0  0  0  0  0  2  0  0  0  0  0  0
  186.9130  178.3570  147.6050 C   0  0  0  0  0  1  0  0  0  0  0  0
  185.8740  179.1880  147.1850 O   0  0  0  0  0  0  0  0  0  0  0  0
  184.5630  178.3550  138.8490 C   0  0  0  0  0  2  0  0  0  0  0  0
  183.4030  179.2650  138.6950 C   0  0  1  0  0  3  0  0  0  0  0  0
  183.8250  180.5490  138.4180 O   0  0  0  0  0  1  0  0  0  0  0  0
  182.0820  177.5340  137.7650 O   0  0  0  0  0  0  0  0  0  0  0  0
  182.2510  178.7790  137.9050 C   0  0  0  0  0  0  0  0  0  0  0  0
  181.4330  179.6390  137.2310 O   0  0  0  0  0  0  0  0  0  0  0  0
  181.3320  179.7080  135.8120 C   0  0  0  0  0  1  0  0  0  0  0  0
  1 40  1  6  0  0  0
  2  5  1  0  0  0  0
  2 10  2  0  0  0  0
  3  9  1  0  0  0  0
  4  3  1  0  0  0  0
  5  8  2  0  0  0  0
  7  5  1  0  0  0  0
  7  3  2  0  0  0  0
  8 11  1  0  0  0  0
  8  6  1  0  0  0  0
  9  6  2  0  0  0  0
  9  1  1  0  0  0  0
 10 12  1  0  0  0  0
 10 11  1  0  0  0  0
 12 13  1  0  0  0  0
 14 16  1  0  0  0  0
 14 13  1  0  0  0  0
 16 15  1  0  0  0  0
 17 16  1  0  0  0  0
 18 16  2  0  0  0  0
 20 19  2  0  0  0  0
 21 20  1  0  0  0  0
 21  1  1  0  0  0  0
 22 25  1  1  0  0  0
 22 20  1  0  0  0  0
 23 22  1  0  0  0  0
 23 24  1  0  0  0  0
 25 26  1  0  0  0  0
 26 27  1  6  0  0  0
 26 28  1  0  0  0  0
 28 29  1  0  0  0  0
 29 30  1  0  0  0  0
 31 33  1  6  0  0  0
 31 30  1  0  0  0  0
 32 33  2  0  0  0  0
 33 34  1  0  0  0  0
 34 35  1  0  0  0  0
 37 36  1  6  0  0  0
 37 31  1  0  0  0  0
 37 38  1  0  0  0  0
 38 39  1  0  0  0  0
 40 41  1  0  0  0  0
 41 42  1  0  0  0  0
 43 42  1  0  0  0  0
 43 50  1  0  0  0  0
 44 48  1  0  0  0  0
 45 46  2  0  0  0  0
 47 45  1  0  0  0  0
 48 46  1  0  0  0  0
 49 44  2  0  0  0  0
 49 50  1  0  0  0  0
 50 47  2  0  0  0  0
 51 46  1  6  0  0  0
 51 52  1  0  0  0  0
 52 54  1  0  0  0  0
 53 51  1  0  0  0  0
 53 55  1  0  0  0  0
 54 56  1  1  0  0  0
 55 54  1  0  0  0  0
 56 58  1  0  0  0  0
 58 57  1  0  0  0  0
 59 44  1  0  0  0  0
 60 61  1  6  0  0  0
 60 59  1  0  0  0  0
 62 63  2  0  0  0  0
 63 60  1  0  0  0  0
 64 63  1  0  0  0  0
 65 64  1  0  0  0  0
M  END
>  <MODEL>
5

>  <REMARK>
 VINA RESULT:      -3.7      3.041      4.446
  Name = 
  29 active torsions:
  status: ('A' for Active; 'I' for Inactive)
    1  A    between atoms: O_2  and  C_61
    2  A    between atoms: O_3  and  C_28
    3  A    between atoms: C_4  and  C_14
    4  A    between atoms: C_4  and  C_46
    5  A    between atoms: C_5  and  N_38
    6  A    between atoms: C_5  and  C_57
    7  A    between atoms: C_7  and  CA_16
    8  A    between atoms: C_7  and  N_38
    9  A    between atoms: C_7  and  C_62
   10  A    between atoms: C_10  and  C_42
   11  A    between atoms: C_10  and  C_44
   12  A    between atoms: C_10  and  N_58
   13  A    between atoms: C_11  and  C_30
   14  A    between atoms: CA_16  and  C_17
   15  A    between atoms: P_19  and  C_50
   16  A    between atoms: O_22  and  C_59
   17  A    between atoms: C_25  and  C_33
   18  A    between atoms: C_25  and  C_49
   19  A    between atoms: C_28  and  C_40
   20  A    between atoms: C_28  and  C_43
   21  A    between atoms: C_33  and  C_50
   22  A    between atoms: C_34  and  C_59
   23  A    between atoms: C_39  and  C_62
   24  A    between atoms: C_40  and  C_52
   25  A    between atoms: C_41  and  C_44
   26  A    between atoms: C_41  and  N_51
   27  A    between atoms: C_46  and  C_61
   28  A    between atoms: C_52  and  C_57
   29  A    between atoms: C_63  and  C_65
                            x       y       z     vdW  Elec       q    Type
                         _______ _______ _______ _____ _____    ______ ____

>  <TORSDO>
F 29

$$$$
=
 OpenBabel10222419203D

 65 68  0  0  1  0  0  0  0  0999 V2000
  188.9490  177.3050  141.3710 C   0  0  1  0  0  3  0  0  0  0  0  0
  192.3650  175.6220  137.2450 N   0  0  0  0  0  0  0  0  0  0  0  0
  191.3400  177.3370  140.3530 C   0  0  0  0  0  0  0  0  0  0  0  0
  191.8030  178.3920  141.3600 C   0  0  0  0  0  1  0  0  0  0  0  0
  191.7540  176.0830  138.3460 C   0  0  0  0  0  0  0  0  0  0  0  0
  189.5970  175.9950  139.3030 C   0  0  0  0  0  3  0  0  0  0  0  0
  192.2400  176.9350  139.3540 C   0  0  0  0  0  3  0  0  0  0  0  0
  190.5240  175.6460  138.3760 C   0  0  0  0  0  0  0  0  0  0  0  0
  189.9910  176.8140  140.3670 C   0  0  0  0  0  0  0  0  0  0  0  0
  191.3830  174.9060  136.6340 C   0  0  0  0  0  0  0  0  0  0  0  0
  190.1600  174.9730  137.3010 N   0  0  0  0  0  2  0  0  0  0  0  0
  191.4930  174.3340  135.2550 C   0  0  0  0  0  2  0  0  0  0  0  0
  192.1460  172.9520  135.1120 C   0  0  0  0  0  2  0  0  0  0  0  0
  193.7350  172.7900  134.9260 C   0  0  0  0  0  2  0  0  0  0  0  0
  194.9570  171.5740  137.3700 O   0  0  0  0  0  1  0  0  0  0  0  0
  194.3980  171.1720  135.7850 P   0  0  0  0  0  0  0  0  0  0  0  0
  195.6060  170.6640  134.9760 O   0  0  0  0  0  0  0  0  0  0  0  0
  193.1490  169.9560  135.8910 O   0  0  0  0  0  1  0  0  0  0  0  0
  190.7790  175.7170  143.2850 O   0  0  0  0  0  0  0  0  0  0  0  0
  190.3130  176.8380  143.6430 C   0  0  0  0  0  0  0  0  0  0  0  0
  189.4590  177.6180  142.7890 N   0  0  0  0  0  2  0  0  0  0  0  0
  190.6600  177.5000  144.9930 C   0  0  2  0  0  3  0  0  0  0  0  0
  190.3100  178.8400  145.1080 O   0  0  0  0  0  0  0  0  0  0  0  0
  191.2840  179.4290  144.4280 O   0  0  0  0  0  1  0  0  0  0  0  0
  191.8780  176.9070  145.7870 C   0  0  0  0  0  2  0  0  0  0  0  0
  191.5460  176.6330  147.2700 C   0  0  2  0  0  3  0  0  0  0  0  0
  192.4550  175.4610  147.6000 C   0  0  0  0  0  1  0  0  0  0  0  0
  190.0270  176.3250  147.5410 C   0  0  0  0  0  2  0  0  0  0  0  0
  189.2180  177.4730  148.2680 C   0  0  0  0  0  2  0  0  0  0  0  0
  187.7550  177.3490  147.9360 N   0  0  0  0  0  2  0  0  0  0  0  0
  187.1540  178.2070  146.9320 C   0  0  1  0  0  3  0  0  0  0  0  0
  186.2020  176.2810  145.9260 O   0  0  0  0  0  0  0  0  0  0  0  0
  186.7100  177.4000  145.7960 C   0  0  0  0  0  0  0  0  0  0  0  0
  186.6560  178.1270  144.4850 C   0  0  0  0  0  2  0  0  0  0  0  0
  185.3660  178.1450  143.8340 N   0  0  0  0  0  1  0  0  0  0  0  0
  184.6660  178.6340  146.9800 N   0  0  0  0  0  1  0  0  0  0  0  0
  185.9460  178.9240  147.5900 C   0  0  2  0  0  3  0  0  0  0  0  0
  186.0210  180.4640  147.5020 C   0  0  0  0  0  2  0  0  0  0  0  0
  185.8570  181.0730  148.7490 O   0  0  0  0  0  1  0  0  0  0  0  0
  187.8010  178.3120  140.9050 C   0  0  0  0  0  2  0  0  0  0  0  0
  187.9860  178.7950  139.4490 C   0  0  0  0  0  2  0  0  0  0  0  0
  186.8910  178.2980  138.7290 N   0  0  0  0  0  2  0  0  0  0  0  0
  185.6910  178.6380  139.2880 C   0  0  0  0  0  2  0  0  0  0  0  0
  182.3580  179.7940  138.3440 C   0  0  0  0  0  0  0  0  0  0  0  0
  182.4890  176.6300  138.4730 C   0  0  0  0  0  3  0  0  0  0  0  0
  181.6380  177.3100  137.7090 C   0  0  0  0  0  0  0  0  0  0  0  0
  183.9090  177.0090  138.8740 C   0  0  0  0  0  3  0  0  0  0  0  0
  181.3930  178.8400  137.5880 C   0  0  0  0  0  3  0  0  0  0  0  0
  183.5960  179.5570  138.7360 C   0  0  0  0  0  2  0  0  0  0  0  0
  184.4460  178.2510  138.7690 C   0  0  0  0  0  0  0  0  0  0  0  0
  180.6380  176.3970  136.8880 C   0  0  2  0  0  3  0  0  0  0  0  0
  181.4060  175.1930  136.6230 O   0  0  0  0  0  0  0  0  0  0  0  0
  180.2730  177.0670  135.5270 C   0  0  0  0  0  2  0  0  0  0  0  0
  180.9900  174.7910  135.3650 C   0  0  2  0  0  3  0  0  0  0  0  0
  180.1350  175.8620  134.6270 C   0  0  0  0  0  2  0  0  0  0  0  0
  180.3860  173.4090  135.4180 C   0  0  0  0  0  2  0  0  0  0  0  0
  180.7280  172.7470  137.4560 C   0  0  0  0  0  1  0  0  0  0  0  0
  181.1840  172.5500  136.1530 O   0  0  0  0  0  0  0  0  0  0  0  0
  181.8710  181.1680  138.6740 C   0  0  0  0  0  2  0  0  0  0  0  0
  180.4570  181.5850  138.5220 C   0  0  1  0  0  3  0  0  0  0  0  0
  179.7990  181.5190  139.7330 O   0  0  0  0  0  1  0  0  0  0  0  0
  179.5100  183.7310  138.2020 O   0  0  0  0  0  0  0  0  0  0  0  0
  180.1800  182.7840  137.7010 C   0  0  0  0  0  0  0  0  0  0  0  0
  180.5330  182.8450  136.3840 O   0  0  0  0  0  0  0  0  0  0  0  0
  179.9410  182.0580  135.3550 C   0  0  0  0  0  1  0  0  0  0  0  0
  1 40  1  6  0  0  0
  1 21  1  0  0  0  0
  2  5  1  0  0  0  0
  3  9  1  0  0  0  0
  3  4  1  0  0  0  0
  5  8  2  0  0  0  0
  5  7  1  0  0  0  0
  6  9  2  0  0  0  0
  7  3  2  0  0  0  0
  8  6  1  0  0  0  0
  9  1  1  0  0  0  0
 10  2  2  0  0  0  0
 10 11  1  0  0  0  0
 11  8  1  0  0  0  0
 12 10  1  0  0  0  0
 13 12  1  0  0  0  0
 14 13  1  0  0  0  0
 14 16  1  0  0  0  0
 16 18  1  0  0  0  0
 16 15  1  0  0  0  0
 17 16  2  0  0  0  0
 19 20  2  0  0  0  0
 20 22  1  0  0  0  0
 21 20  1  0  0  0  0
 22 23  1  0  0  0  0
 22 25  1  6  0  0  0
 24 23  1  0  0  0  0
 25 26  1  0  0  0  0
 26 28  1  0  0  0  0
 26 27  1  6  0  0  0
 28 29  1  0  0  0  0
 30 29  1  0  0  0  0
 31 33  1  6  0  0  0
 31 37  1  0  0  0  0
 31 30  1  0  0  0  0
 33 32  2  0  0  0  0
 34 33  1  0  0  0  0
 35 34  1  0  0  0  0
 37 36  1  6  0  0  0
 38 37  1  0  0  0  0
 38 39  1  0  0  0  0
 41 40  1  0  0  0  0
 42 43  1  0  0  0  0
 42 41  1  0  0  0  0
 44 59  1  0  0  0  0
 44 49  1  0  0  0  0
 45 47  1  0  0  0  0
 46 45  2  0  0  0  0
 48 46  1  0  0  0  0
 48 44  2  0  0  0  0
 49 50  1  0  0  0  0
 50 47  2  0  0  0  0
 50 43  1  0  0  0  0
 51 46  1  1  0  0  0
 52 51  1  0  0  0  0
 53 51  1  0  0  0  0
 54 56  1  1  0  0  0
 54 52  1  0  0  0  0
 55 54  1  0  0  0  0
 55 53  1  0  0  0  0
 56 58  1  0  0  0  0
 58 57  1  0  0  0  0
 60 59  1  0  0  0  0
 60 61  1  1  0  0  0
 63 62  2  0  0  0  0
 63 60  1  0  0  0  0
 64 63  1  0  0  0  0
 65 64  1  0  0  0  0
M  END
>  <MODEL>
6

>  <REMARK>
 VINA RESULT:      -3.4      3.735     11.651
  Name = 
  29 active torsions:
  status: ('A' for Active; 'I' for Inactive)
    1  A    between atoms: O_2  and  C_61
    2  A    between atoms: O_3  and  C_28
    3  A    between atoms: C_4  and  C_14
    4  A    between atoms: C_4  and  C_46
    5  A    between atoms: C_5  and  N_38
    6  A    between atoms: C_5  and  C_57
    7  A    between atoms: C_7  and  CA_16
    8  A    between atoms: C_7  and  N_38
    9  A    between atoms: C_7  and  C_62
   10  A    between atoms: C_10  and  C_42
   11  A    between atoms: C_10  and  C_44
   12  A    between atoms: C_10  and  N_58
   13  A    between atoms: C_11  and  C_30
   14  A    between atoms: CA_16  and  C_17
   15  A    between atoms: P_19  and  C_50
   16  A    between atoms: O_22  and  C_59
   17  A    between atoms: C_25  and  C_33
   18  A    between atoms: C_25  and  C_49
   19  A    between atoms: C_28  and  C_40
   20  A    between atoms: C_28  and  C_43
   21  A    between atoms: C_33  and  C_50
   22  A    between atoms: C_34  and  C_59
   23  A    between atoms: C_39  and  C_62
   24  A    between atoms: C_40  and  C_52
   25  A    between atoms: C_41  and  C_44
   26  A    between atoms: C_41  and  N_51
   27  A    between atoms: C_46  and  C_61
   28  A    between atoms: C_52  and  C_57
   29  A    between atoms: C_63  and  C_65
                            x       y       z     vdW  Elec       q    Type
                         _______ _______ _______ _____ _____    ______ ____

>  <TORSDO>
F 29

$$$$
=
 OpenBabel10222419203D

 65 68  0  0  1  0  0  0  0  0999 V2000
  186.0590  179.1180  143.4310 C   0  0  1  0  0  3  0  0  0  0  0  0
  181.6810  178.4270  139.9840 N   0  0  0  0  0  0  0  0  0  0  0  0
  183.4880  178.8280  143.1810 C   0  0  0  0  0  0  0  0  0  0  0  0
  183.3110  178.6860  144.6940 C   0  0  0  0  0  1  0  0  0  0  0  0
  182.5590  178.6470  140.9740 C   0  0  0  0  0  0  0  0  0  0  0  0
  184.8860  178.9780  141.1910 C   0  0  0  0  0  3  0  0  0  0  0  0
  182.3580  178.6670  142.3650 C   0  0  0  0  0  3  0  0  0  0  0  0
  183.7490  178.8230  140.4670 C   0  0  0  0  0  0  0  0  0  0  0  0
  184.7880  179.0450  142.5850 C   0  0  0  0  0  0  0  0  0  0  0  0
  182.4640  178.4680  138.8720 C   0  0  0  0  0  0  0  0  0  0  0  0
  183.8170  178.6400  139.1620 N   0  0  0  0  0  2  0  0  0  0  0  0
  181.9990  178.0910  137.5000 C   0  0  0  0  0  2  0  0  0  0  0  0
  182.4280  176.7190  136.9610 C   0  0  0  0  0  2  0  0  0  0  0  0
  182.5630  175.4420  137.9290 C   0  0  0  0  0  2  0  0  0  0  0  0
  179.6350  175.3720  137.3230 O   0  0  0  0  0  0  0  0  0  0  0  0
  180.8220  174.6940  138.3820 P   0  0  0  0  0  0  0  0  0  0  0  0
  180.4740  175.1300  139.8170 O   0  0  0  0  0  1  0  0  0  0  0  0
  180.8220  172.9540  138.2280 O   0  0  0  0  0  1  0  0  0  0  0  0
  186.4980  176.6740  145.2680 O   0  0  0  0  0  0  0  0  0  0  0  0
  186.0980  177.7690  145.7600 C   0  0  0  0  0  0  0  0  0  0  0  0
  185.8800  178.9370  144.9490 N   0  0  0  0  0  2  0  0  0  0  0  0
  185.8650  177.9770  147.2720 C   0  0  2  0  0  3  0  0  0  0  0  0
  184.9220  178.9420  147.6030 O   0  0  0  0  0  0  0  0  0  0  0  0
  185.6110  180.0600  147.4230 O   0  0  0  0  0  1  0  0  0  0  0  0
  187.0640  177.6480  148.2300 C   0  0  0  0  0  2  0  0  0  0  0  0
  188.3340  177.2100  147.4680 C   0  0  2  0  0  3  0  0  0  0  0  0
  188.6000  175.8270  148.0370 C   0  0  0  0  0  1  0  0  0  0  0  0
  189.5540  178.1880  147.6380 C   0  0  0  0  0  2  0  0  0  0  0  0
  190.9030  177.7210  146.9590 C   0  0  0  0  0  2  0  0  0  0  0  0
  190.7220  177.6550  145.4660 N   0  0  0  0  0  2  0  0  0  0  0  0
  191.8020  177.1940  144.6140 C   0  0  1  0  0  3  0  0  0  0  0  0
  192.2680  174.9240  144.1060 O   0  0  0  0  0  0  0  0  0  0  0  0
  191.4770  175.8730  144.0760 C   0  0  0  0  0  0  0  0  0  0  0  0
  190.0310  175.6660  143.7380 C   0  0  0  0  0  2  0  0  0  0  0  0
  189.7310  175.5420  142.3290 N   0  0  0  0  0  1  0  0  0  0  0  0
  190.9190  179.2250  143.4000 N   0  0  0  0  0  1  0  0  0  0  0  0
  191.9610  178.2220  143.4630 C   0  0  2  0  0  3  0  0  0  0  0  0
  191.9030  177.5870  142.0560 C   0  0  0  0  0  2  0  0  0  0  0  0
  190.6570  177.7620  141.4490 O   0  0  0  0  0  1  0  0  0  0  0  0
  187.4130  178.4640  142.8990 C   0  0  0  0  0  2  0  0  0  0  0  0
  187.8110  178.9740  141.4950 C   0  0  0  0  0  2  0  0  0  0  0  0
  187.7230  177.8690  140.6370 N   0  0  0  0  0  2  0  0  0  0  0  0
  187.6850  178.2250  139.3180 C   0  0  0  0  0  2  0  0  0  0  0  0
  189.5500  176.3290  136.8160 C   0  0  0  0  0  0  0  0  0  0  0  0
  186.4400  176.2950  136.2080 C   0  0  0  0  0  3  0  0  0  0  0  0
  187.2840  175.3410  135.8240 C   0  0  0  0  0  0  0  0  0  0  0  0
  186.4940  177.1560  137.4630 C   0  0  0  0  0  3  0  0  0  0  0  0
  188.8290  175.2440  135.9700 C   0  0  0  0  0  3  0  0  0  0  0  0
  189.0450  177.0840  137.7730 C   0  0  0  0  0  2  0  0  0  0  0  0
  187.5820  177.3090  138.2600 C   0  0  0  0  0  0  0  0  0  0  0  0
  186.6100  174.1850  134.9780 C   0  0  2  0  0  3  0  0  0  0  0  0
  185.5140  173.7350  135.8170 O   0  0  0  0  0  0  0  0  0  0  0  0
  187.6040  172.9990  134.7750 C   0  0  0  0  0  2  0  0  0  0  0  0
  185.4450  172.3710  135.5900 C   0  0  2  0  0  3  0  0  0  0  0  0
  186.6680  171.8150  134.8030 C   0  0  0  0  0  2  0  0  0  0  0  0
  184.0950  171.9890  135.0340 C   0  0  0  0  0  2  0  0  0  0  0  0
  183.9810  171.7540  137.1890 C   0  0  0  0  0  1  0  0  0  0  0  0
  183.2990  171.4270  136.0170 O   0  0  0  0  0  0  0  0  0  0  0  0
  191.0020  176.5690  136.5570 C   0  0  0  0  0  2  0  0  0  0  0  0
  192.0820  175.7760  137.1900 C   0  0  1  0  0  3  0  0  0  0  0  0
  192.0860  175.9660  138.5560 O   0  0  0  0  0  1  0  0  0  0  0  0
  191.9490  174.0770  135.5470 O   0  0  0  0  0  0  0  0  0  0  0  0
  192.2680  174.3820  136.7310 C   0  0  0  0  0  0  0  0  0  0  0  0
  192.6670  173.3960  137.5860 O   0  0  0  0  0  0  0  0  0  0  0  0
  193.7590  172.5140  137.3430 C   0  0  0  0  0  1  0  0  0  0  0  0
  1 40  1  6  0  0  0
  1 21  1  0  0  0  0
  2  5  1  0  0  0  0
  3  4  1  0  0  0  0
  5  7  1  0  0  0  0
  6  9  2  0  0  0  0
  7  3  2  0  0  0  0
  8  5  2  0  0  0  0
  8  6  1  0  0  0  0
  9  3  1  0  0  0  0
  9  1  1  0  0  0  0
 10 11  1  0  0  0  0
 10  2  2  0  0  0  0
 11  8  1  0  0  0  0
 12 10  1  0  0  0  0
 13 12  1  0  0  0  0
 13 14  1  0  0  0  0
 14 16  1  0  0  0  0
 15 16  2  0  0  0  0
 16 17  1  0  0  0  0
 18 16  1  0  0  0  0
 19 20  2  0  0  0  0
 20 22  1  0  0  0  0
 21 20  1  0  0  0  0
 22 23  1  0  0  0  0
 22 25  1  1  0  0  0
 24 23  1  0  0  0  0
 26 28  1  0  0  0  0
 26 27  1  1  0  0  0
 26 25  1  0  0  0  0
 29 28  1  0  0  0  0
 30 29  1  0  0  0  0
 31 33  1  6  0  0  0
 31 30  1  0  0  0  0
 33 32  2  0  0  0  0
 34 33  1  0  0  0  0
 35 34  1  0  0  0  0
 37 36  1  6  0  0  0
 37 31  1  0  0  0  0
 38 37  1  0  0  0  0
 39 38  1  0  0  0  0
 41 40  1  0  0  0  0
 42 41  1  0  0  0  0
 43 42  1  0  0  0  0
 44 49  1  0  0  0  0
 45 47  1  0  0  0  0
 46 48  1  0  0  0  0
 46 45  2  0  0  0  0
 47 50  2  0  0  0  0
 48 44  2  0  0  0  0
 49 50  1  0  0  0  0
 50 43  1  0  0  0  0
 51 52  1  0  0  0  0
 51 46  1  1  0  0  0
 53 55  1  0  0  0  0
 53 51  1  0  0  0  0
 54 56  1  6  0  0  0
 54 52  1  0  0  0  0
 55 54  1  0  0  0  0
 56 58  1  0  0  0  0
 58 57  1  0  0  0  0
 59 44  1  0  0  0  0
 59 60  1  0  0  0  0
 60 61  1  1  0  0  0
 62 63  2  0  0  0  0
 63 60  1  0  0  0  0
 63 64  1  0  0  0  0
 65 64  1  0  0  0  0
M  END
>  <MODEL>
7

>  <REMARK>
 VINA RESULT:      -2.9      3.531     10.133
  Name = 
  29 active torsions:
  status: ('A' for Active; 'I' for Inactive)
    1  A    between atoms: O_2  and  C_61
    2  A    between atoms: O_3  and  C_28
    3  A    between atoms: C_4  and  C_14
    4  A    between atoms: C_4  and  C_46
    5  A    between atoms: C_5  and  N_38
    6  A    between atoms: C_5  and  C_57
    7  A    between atoms: C_7  and  CA_16
    8  A    between atoms: C_7  and  N_38
    9  A    between atoms: C_7  and  C_62
   10  A    between atoms: C_10  and  C_42
   11  A    between atoms: C_10  and  C_44
   12  A    between atoms: C_10  and  N_58
   13  A    between atoms: C_11  and  C_30
   14  A    between atoms: CA_16  and  C_17
   15  A    between atoms: P_19  and  C_50
   16  A    between atoms: O_22  and  C_59
   17  A    between atoms: C_25  and  C_33
   18  A    between atoms: C_25  and  C_49
   19  A    between atoms: C_28  and  C_40
   20  A    between atoms: C_28  and  C_43
   21  A    between atoms: C_33  and  C_50
   22  A    between atoms: C_34  and  C_59
   23  A    between atoms: C_39  and  C_62
   24  A    between atoms: C_40  and  C_52
   25  A    between atoms: C_41  and  C_44
   26  A    between atoms: C_41  and  N_51
   27  A    between atoms: C_46  and  C_61
   28  A    between atoms: C_52  and  C_57
   29  A    between atoms: C_63  and  C_65
                            x       y       z     vdW  Elec       q    Type
                         _______ _______ _______ _____ _____    ______ ____

>  <TORSDO>
F 29

$$$$
=
 OpenBabel10222419203D

 65 68  0  0  1  0  0  0  0  0999 V2000
  189.4200  177.9090  139.7500 C   0  0  1  0  0  3  0  0  0  0  0  0
  187.2320  178.0240  144.9200 N   0  0  0  0  0  0  0  0  0  0  0  0
  187.2810  177.9420  141.2270 C   0  0  0  0  0  0  0  0  0  0  0  0
  186.3850  178.1360  140.0020 C   0  0  0  0  0  1  0  0  0  0  0  0
  187.5300  177.9340  143.6150 C   0  0  0  0  0  0  0  0  0  0  0  0
  189.4750  177.8350  142.2810 C   0  0  0  0  0  3  0  0  0  0  0  0
  186.6820  177.9580  142.4950 C   0  0  0  0  0  3  0  0  0  0  0  0
  188.8250  177.8480  143.4710 C   0  0  0  0  0  0  0  0  0  0  0  0
  188.7180  177.8220  141.1050 C   0  0  0  0  0  0  0  0  0  0  0  0
  188.4560  178.0060  145.5110 C   0  0  0  0  0  0  0  0  0  0  0  0
  189.5070  177.9760  144.5940 N   0  0  0  0  0  2  0  0  0  0  0  0
  188.6930  178.2740  146.9650 C   0  0  0  0  0  2  0  0  0  0  0  0
  189.5240  177.2480  147.7460 C   0  0  0  0  0  2  0  0  0  0  0  0
  191.1240  177.3720  147.8560 C   0  0  0  0  0  2  0  0  0  0  0  0
  192.1040  175.7430  145.5470 O   0  0  0  0  0  0  0  0  0  0  0  0
  192.0140  175.7390  147.2730 P   0  0  0  0  0  0  0  0  0  0  0  0
  191.1400  174.5430  147.6950 O   0  0  0  0  0  1  0  0  0  0  0  0
  193.6210  175.6210  147.9460 O   0  0  0  0  0  1  0  0  0  0  0  0
  191.1950  177.1460  137.3410 O   0  0  0  0  0  0  0  0  0  0  0  0
  190.4190  176.2860  137.8500 C   0  0  0  0  0  0  0  0  0  0  0  0
  189.5740  176.5900  138.9740 N   0  0  0  0  0  2  0  0  0  0  0  0
  190.3470  174.8240  137.3600 C   0  0  2  0  0  3  0  0  0  0  0  0
  189.0920  174.2320  137.4340 O   0  0  0  0  0  0  0  0  0  0  0  0
  189.3520  173.0030  137.0090 O   0  0  0  0  0  1  0  0  0  0  0  0
  191.6580  173.9690  137.4730 C   0  0  0  0  0  2  0  0  0  0  0  0
  192.6190  174.1900  136.2840 C   0  0  2  0  0  3  0  0  0  0  0  0
  192.4920  172.8890  135.5100 C   0  0  0  0  0  1  0  0  0  0  0  0
  194.1000  174.5100  136.7070 C   0  0  0  0  0  2  0  0  0  0  0  0
  194.6760  173.6330  137.8890 C   0  0  0  0  0  2  0  0  0  0  0  0
  195.7370  172.7060  137.3600 N   0  0  0  0  0  2  0  0  0  0  0  0
  196.4310  173.0110  136.1230 C   0  0  1  0  0  3  0  0  0  0  0  0
  198.8030  172.9980  136.0820 O   0  0  0  0  0  0  0  0  0  0  0  0
  197.7540  173.5570  136.4210 C   0  0  0  0  0  0  0  0  0  0  0  0
  197.7580  174.9720  136.9190 C   0  0  0  0  0  2  0  0  0  0  0  0
  198.1330  175.1460  138.3040 N   0  0  0  0  0  1  0  0  0  0  0  0
  195.3670  171.3020  134.5980 N   0  0  0  0  0  1  0  0  0  0  0  0
  196.5600  171.6890  135.3200 C   0  0  2  0  0  3  0  0  0  0  0  0
  196.8340  170.4540  136.2060 C   0  0  0  0  0  2  0  0  0  0  0  0
  196.7610  170.7540  137.5680 O   0  0  0  0  0  1  0  0  0  0  0  0
  189.1480  179.1510  138.7860 C   0  0  0  0  0  2  0  0  0  0  0  0
  188.3170  178.7680  137.5400 C   0  0  0  0  0  2  0  0  0  0  0  0
  187.0480  178.4060  138.0110 N   0  0  0  0  0  2  0  0  0  0  0  0
  186.2230  177.9570  137.0170 C   0  0  0  0  0  2  0  0  0  0  0  0
  183.6600  175.5390  136.0590 C   0  0  0  0  0  0  0  0  0  0  0  0
  182.4140  177.9640  137.6760 C   0  0  0  0  0  3  0  0  0  0  0  0
  181.8840  176.7440  137.6370 C   0  0  0  0  0  0  0  0  0  0  0  0
  183.8840  178.3580  137.6240 C   0  0  0  0  0  3  0  0  0  0  0  0
  182.3190  175.4810  136.8420 C   0  0  0  0  0  2  0  0  0  0  0  0
  184.6980  176.3220  136.2810 C   0  0  0  0  0  3  0  0  0  0  0  0
  184.8970  177.5480  137.2230 C   0  0  0  0  0  0  0  0  0  0  0  0
  180.5250  176.6050  138.4380 C   0  0  2  0  0  3  0  0  0  0  0  0
  180.7310  177.4310  139.6140 O   0  0  0  0  0  0  0  0  0  0  0  0
  180.3040  175.1300  138.8950 C   0  0  0  0  0  2  0  0  0  0  0  0
  180.0580  176.7640  140.6240 C   0  0  2  0  0  3  0  0  0  0  0  0
  179.6120  175.3280  140.2220 C   0  0  0  0  0  2  0  0  0  0  0  0
  178.9730  177.6340  141.2100 C   0  0  0  0  0  2  0  0  0  0  0  0
  180.3430  178.3380  142.7400 C   0  0  0  0  0  1  0  0  0  0  0  0
  179.5050  178.8030  141.7260 O   0  0  0  0  0  0  0  0  0  0  0  0
  183.8440  174.5960  134.9150 C   0  0  0  0  0  2  0  0  0  0  0  0
  184.7540  173.4270  134.9650 C   0  0  1  0  0  3  0  0  0  0  0  0
  186.0470  173.8050  134.6690 O   0  0  0  0  0  1  0  0  0  0  0  0
  185.5790  171.7620  136.4310 O   0  0  0  0  0  0  0  0  0  0  0  0
  184.5990  172.4860  136.0960 C   0  0  0  0  0  0  0  0  0  0  0  0
  183.3940  172.2990  136.7090 O   0  0  0  0  0  0  0  0  0  0  0  0
  182.4350  171.3210  136.3190 C   0  0  0  0  0  1  0  0  0  0  0  0
  1 40  1  6  0  0  0
  1  9  1  0  0  0  0
  2 10  2  0  0  0  0
  3  7  1  0  0  0  0
  4  3  1  0  0  0  0
  5  2  1  0  0  0  0
  6  8  2  0  0  0  0
  7  5  2  0  0  0  0
  8  5  1  0  0  0  0
  8 11  1  0  0  0  0
  9  3  2  0  0  0  0
  9  6  1  0  0  0  0
 10 12  1  0  0  0  0
 11 10  1  0  0  0  0
 12 13  1  0  0  0  0
 13 14  1  0  0  0  0
 15 16  2  0  0  0  0
 16 17  1  0  0  0  0
 16 14  1  0  0  0  0
 16 18  1  0  0  0  0
 19 20  2  0  0  0  0
 20 21  1  0  0  0  0
 21  1  1  0  0  0  0
 22 23  1  0  0  0  0
 22 25  1  1  0  0  0
 22 20  1  0  0  0  0
 24 23  1  0  0  0  0
 26 27  1  6  0  0  0
 26 28  1  0  0  0  0
 26 25  1  0  0  0  0
 28 29  1  0  0  0  0
 30 29  1  0  0  0  0
 31 33  1  1  0  0  0
 31 30  1  0  0  0  0
 32 33  2  0  0  0  0
 33 34  1  0  0  0  0
 34 35  1  0  0  0  0
 37 36  1  1  0  0  0
 37 31  1  0  0  0  0
 37 38  1  0  0  0  0
 38 39  1  0  0  0  0
 41 42  1  0  0  0  0
 41 40  1  0  0  0  0
 43 50  1  0  0  0  0
 43 42  1  0  0  0  0
 44 49  2  0  0  0  0
 44 48  1  0  0  0  0
 46 45  2  0  0  0  0
 47 45  1  0  0  0  0
 48 46  1  0  0  0  0
 49 50  1  0  0  0  0
 50 47  2  0  0  0  0
 51 46  1  6  0  0  0
 51 53  1  0  0  0  0
 51 52  1  0  0  0  0
 52 54  1  0  0  0  0
 53 55  1  0  0  0  0
 54 56  1  6  0  0  0
 55 54  1  0  0  0  0
 56 58  1  0  0  0  0
 58 57  1  0  0  0  0
 59 60  1  0  0  0  0
 59 44  1  0  0  0  0
 60 61  1  1  0  0  0
 60 63  1  0  0  0  0
 63 62  2  0  0  0  0
 63 64  1  0  0  0  0
 65 64  1  0  0  0  0
M  END
>  <MODEL>
8

>  <REMARK>
 VINA RESULT:      -2.9      3.095      9.150
  Name = 
  29 active torsions:
  status: ('A' for Active; 'I' for Inactive)
    1  A    between atoms: O_2  and  C_61
    2  A    between atoms: O_3  and  C_28
    3  A    between atoms: C_4  and  C_14
    4  A    between atoms: C_4  and  C_46
    5  A    between atoms: C_5  and  N_38
    6  A    between atoms: C_5  and  C_57
    7  A    between atoms: C_7  and  CA_16
    8  A    between atoms: C_7  and  N_38
    9  A    between atoms: C_7  and  C_62
   10  A    between atoms: C_10  and  C_42
   11  A    between atoms: C_10  and  C_44
   12  A    between atoms: C_10  and  N_58
   13  A    between atoms: C_11  and  C_30
   14  A    between atoms: CA_16  and  C_17
   15  A    between atoms: P_19  and  C_50
   16  A    between atoms: O_22  and  C_59
   17  A    between atoms: C_25  and  C_33
   18  A    between atoms: C_25  and  C_49
   19  A    between atoms: C_28  and  C_40
   20  A    between atoms: C_28  and  C_43
   21  A    between atoms: C_33  and  C_50
   22  A    between atoms: C_34  and  C_59
   23  A    between atoms: C_39  and  C_62
   24  A    between atoms: C_40  and  C_52
   25  A    between atoms: C_41  and  C_44
   26  A    between atoms: C_41  and  N_51
   27  A    between atoms: C_46  and  C_61
   28  A    between atoms: C_52  and  C_57
   29  A    between atoms: C_63  and  C_65
                            x       y       z     vdW  Elec       q    Type
                         _______ _______ _______ _____ _____    ______ ____

>  <TORSDO>
F 29

$$$$
=
 OpenBabel10222419203D

 65 68  0  0  1  0  0  0  0  0999 V2000
  189.1740  175.6730  137.6980 C   0  0  1  0  0  3  0  0  0  0  0  0
  184.0680  177.3200  136.0420 N   0  0  0  0  0  0  0  0  0  0  0  0
  187.7440  177.4120  136.3990 C   0  0  0  0  0  0  0  0  0  0  0  0
  188.9540  178.3270  136.2030 C   0  0  0  0  0  1  0  0  0  0  0  0
  185.3680  177.0830  136.2710 C   0  0  0  0  0  0  0  0  0  0  0  0
  186.6690  175.4640  137.3940 C   0  0  0  0  0  3  0  0  0  0  0  0
  186.4930  177.8620  135.9480 C   0  0  0  0  0  3  0  0  0  0  0  0
  185.4970  175.9590  136.9210 C   0  0  0  0  0  0  0  0  0  0  0  0
  187.8520  176.1480  137.0970 C   0  0  0  0  0  0  0  0  0  0  0  0
  183.4600  176.2560  136.6320 C   0  0  0  0  0  0  0  0  0  0  0  0
  184.3540  175.4040  137.2790 N   0  0  0  0  0  2  0  0  0  0  0  0
  181.9810  176.1340  136.8270 C   0  0  0  0  0  2  0  0  0  0  0  0
  181.2060  177.4130  137.1740 C   0  0  0  0  0  2  0  0  0  0  0  0
  180.7640  177.7430  138.6840 C   0  0  0  0  0  2  0  0  0  0  0  0
  182.2430  180.3390  138.5400 O   0  0  0  0  0  1  0  0  0  0  0  0
  180.7260  179.6620  139.0190 P   0  0  0  0  0  0  0  0  0  0  0  0
  180.5740  179.8780  140.5360 O   0  0  0  0  0  1  0  0  0  0  0  0
  179.4320  180.4320  138.1350 O   0  0  0  0  0  0  0  0  0  0  0  0
  189.9100  173.1570  136.0660 O   0  0  0  0  0  0  0  0  0  0  0  0
  190.6180  174.2000  135.9700 C   0  0  0  0  0  0  0  0  0  0  0  0
  190.3180  175.3990  136.7060 N   0  0  0  0  0  2  0  0  0  0  0  0
  191.8280  174.3110  135.0170 C   0  0  2  0  0  3  0  0  0  0  0  0
  192.5150  173.1250  134.7850 O   0  0  0  0  0  0  0  0  0  0  0  0
  192.5680  172.6060  136.0030 O   0  0  0  0  0  1  0  0  0  0  0  0
  192.5550  175.7000  134.9450 C   0  0  0  0  0  2  0  0  0  0  0  0
  193.9540  175.6750  135.5980 C   0  0  2  0  0  3  0  0  0  0  0  0
  193.8280  176.7240  136.6890 C   0  0  0  0  0  1  0  0  0  0  0  0
  195.1330  175.9670  134.5990 C   0  0  0  0  0  2  0  0  0  0  0  0
  196.5670  176.0910  135.2540 C   0  0  0  0  0  2  0  0  0  0  0  0
  196.7340  175.0310  136.3100 N   0  0  0  0  0  2  0  0  0  0  0  0
  198.0560  174.6640  136.7820 C   0  0  1  0  0  3  0  0  0  0  0  0
  199.0050  174.1210  138.8870 O   0  0  0  0  0  0  0  0  0  0  0  0
  197.9970  174.3310  138.2050 C   0  0  0  0  0  0  0  0  0  0  0  0
  196.6560  174.5300  138.8470 C   0  0  0  0  0  2  0  0  0  0  0  0
  196.5710  175.6230  139.7880 N   0  0  0  0  0  1  0  0  0  0  0  0
  197.8090  173.2340  134.7170 N   0  0  0  0  0  1  0  0  0  0  0  0
  198.5250  173.4370  135.9580 C   0  0  2  0  0  3  0  0  0  0  0  0
  198.3220  172.0900  136.6880 C   0  0  0  0  0  2  0  0  0  0  0  0
  197.6600  171.1520  135.8920 O   0  0  0  0  0  1  0  0  0  0  0  0
  189.7000  176.2960  139.0700 C   0  0  0  0  0  2  0  0  0  0  0  0
  189.3980  177.8060  139.1940 C   0  0  0  0  0  2  0  0  0  0  0  0
  189.3400  178.0840  140.5670 N   0  0  0  0  0  2  0  0  0  0  0  0
  189.6860  177.0100  141.3390 C   0  0  0  0  0  2  0  0  0  0  0  0
  187.8180  177.9660  144.3270 C   0  0  0  0  0  0  0  0  0  0  0  0
  190.8230  177.2390  145.0260 C   0  0  0  0  0  3  0  0  0  0  0  0
  189.8110  177.1280  145.8840 C   0  0  0  0  0  0  0  0  0  0  0  0
  190.8080  177.0450  143.5160 C   0  0  0  0  0  3  0  0  0  0  0  0
  188.3120  177.5100  145.7280 C   0  0  0  0  0  2  0  0  0  0  0  0
  188.3470  177.6940  143.1490 C   0  0  0  0  0  3  0  0  0  0  0  0
  189.6940  177.0220  142.7420 C   0  0  0  0  0  0  0  0  0  0  0  0
  190.2400  176.6410  147.3280 C   0  0  2  0  0  3  0  0  0  0  0  0
  191.6890  176.7310  147.3080 O   0  0  0  0  0  0  0  0  0  0  0  0
  189.8340  175.1510  147.5500 C   0  0  0  0  0  2  0  0  0  0  0  0
  192.1090  175.6610  148.0800 C   0  0  2  0  0  3  0  0  0  0  0  0
  190.9680  174.6570  148.4150 C   0  0  0  0  0  2  0  0  0  0  0  0
  192.9140  176.1390  149.2640 C   0  0  0  0  0  2  0  0  0  0  0  0
  193.9250  177.7580  150.2970 C   0  0  0  0  0  1  0  0  0  0  0  0
  193.3740  177.4280  149.0580 O   0  0  0  0  0  0  0  0  0  0  0  0
  186.5840  178.8050  144.2580 C   0  0  0  0  0  2  0  0  0  0  0  0
  185.2470  178.2580  143.9270 C   0  0  1  0  0  3  0  0  0  0  0  0
  184.8550  177.3300  144.8700 O   0  0  0  0  0  1  0  0  0  0  0  0
  183.6660  179.9700  144.3430 O   0  0  0  0  0  0  0  0  0  0  0  0
  184.2060  179.2120  143.4870 C   0  0  0  0  0  0  0  0  0  0  0  0
  183.7340  179.2140  142.2070 O   0  0  0  0  0  0  0  0  0  0  0  0
  184.0030  178.1950  141.2480 C   0  0  0  0  0  1  0  0  0  0  0  0
  1 40  1  1  0  0  0
  2  5  1  0  0  0  0
  2 10  2  0  0  0  0
  3  9  1  0  0  0  0
  4  3  1  0  0  0  0
  5  8  2  0  0  0  0
  7  5  1  0  0  0  0
  7  3  2  0  0  0  0
  8 11  1  0  0  0  0
  8  6  1  0  0  0  0
  9  6  2  0  0  0  0
  9  1  1  0  0  0  0
 10 12  1  0  0  0  0
 10 11  1  0  0  0  0
 12 13  1  0  0  0  0
 13 14  1  0  0  0  0
 14 16  1  0  0  0  0
 15 16  1  0  0  0  0
 16 17  1  0  0  0  0
 18 16  2  0  0  0  0
 20 19  2  0  0  0  0
 20 21  1  0  0  0  0
 21  1  1  0  0  0  0
 22 25  1  1  0  0  0
 22 20  1  0  0  0  0
 23 22  1  0  0  0  0
 23 24  1  0  0  0  0
 25 26  1  0  0  0  0
 26 27  1  1  0  0  0
 28 29  1  0  0  0  0
 28 26  1  0  0  0  0
 29 30  1  0  0  0  0
 31 30  1  6  0  0  0
 31 33  1  0  0  0  0
 33 34  1  0  0  0  0
 33 32  2  0  0  0  0
 34 35  1  0  0  0  0
 37 36  1  6  0  0  0
 37 38  1  0  0  0  0
 37 31  1  0  0  0  0
 39 38  1  0  0  0  0
 40 41  1  0  0  0  0
 41 42  1  0  0  0  0
 42 43  1  0  0  0  0
 43 50  1  0  0  0  0
 44 48  1  0  0  0  0
 45 46  2  0  0  0  0
 47 45  1  0  0  0  0
 48 46  1  0  0  0  0
 49 44  2  0  0  0  0
 50 49  1  0  0  0  0
 50 47  2  0  0  0  0
 51 46  1  6  0  0  0
 51 53  1  0  0  0  0
 52 51  1  0  0  0  0
 52 54  1  0  0  0  0
 53 55  1  0  0  0  0
 54 55  1  0  0  0  0
 54 56  1  1  0  0  0
 58 56  1  0  0  0  0
 58 57  1  0  0  0  0
 59 44  1  0  0  0  0
 60 59  1  0  0  0  0
 60 61  1  1  0  0  0
 63 60  1  0  0  0  0
 63 62  2  0  0  0  0
 64 63  1  0  0  0  0
 65 64  1  0  0  0  0
M  END
>  <MODEL>
9

>  <REMARK>
 VINA RESULT:      -2.8      2.191      2.446
  Name = 
  29 active torsions:
  status: ('A' for Active; 'I' for Inactive)
    1  A    between atoms: O_2  and  C_61
    2  A    between atoms: O_3  and  C_28
    3  A    between atoms: C_4  and  C_14
    4  A    between atoms: C_4  and  C_46
    5  A    between atoms: C_5  and  N_38
    6  A    between atoms: C_5  and  C_57
    7  A    between atoms: C_7  and  CA_16
    8  A    between atoms: C_7  and  N_38
    9  A    between atoms: C_7  and  C_62
   10  A    between atoms: C_10  and  C_42
   11  A    between atoms: C_10  and  C_44
   12  A    between atoms: C_10  and  N_58
   13  A    between atoms: C_11  and  C_30
   14  A    between atoms: CA_16  and  C_17
   15  A    between atoms: P_19  and  C_50
   16  A    between atoms: O_22  and  C_59
   17  A    between atoms: C_25  and  C_33
   18  A    between atoms: C_25  and  C_49
   19  A    between atoms: C_28  and  C_40
   20  A    between atoms: C_28  and  C_43
   21  A    between atoms: C_33  and  C_50
   22  A    between atoms: C_34  and  C_59
   23  A    between atoms: C_39  and  C_62
   24  A    between atoms: C_40  and  C_52
   25  A    between atoms: C_41  and  C_44
   26  A    between atoms: C_41  and  N_51
   27  A    between atoms: C_46  and  C_61
   28  A    between atoms: C_52  and  C_57
   29  A    between atoms: C_63  and  C_65
                            x       y       z     vdW  Elec       q    Type
                         _______ _______ _______ _____ _____    ______ ____

>  <TORSDO>
F 29

$$$$
