=
 OpenBabel10222419293D

 42 46  0  0  1  0  0  0  0  0999 V2000
  186.4020  178.5320  143.0380 C   0  0  2  0  0  3  0  0  0  0  0  0
  187.2080  177.5290  142.2050 C   0  0  2  0  0  3  0  0  0  0  0  0
  188.5770  177.1950  142.8020 C   0  0  1  0  0  3  0  0  0  0  0  0
  188.4690  178.1820  141.6590 C   0  0  1  0  0  3  0  0  0  0  0  0
  188.9150  177.5000  140.3740 C   0  0  1  0  0  3  0  0  0  0  0  0
  188.8240  178.4680  139.2090 C   0  0  0  0  0  1  0  0  0  0  0  0
  191.3540  177.7520  141.2640 C   0  0  0  0  0  1  0  0  0  0  0  0
  190.6230  175.9310  139.9770 O   0  0  0  0  0  0  0  0  0  0  0  0
  190.3180  176.9860  140.5060 C   0  0  0  0  0  0  0  0  0  0  0  0
  188.8550  177.9050  144.0050 O   0  0  0  0  0  0  0  0  0  0  0  0
  190.2150  176.9020  147.3130 C   0  0  0  0  0  3  0  0  0  0  0  0
  189.3460  177.4200  146.3490 C   0  0  0  0  0  3  0  0  0  0  0  0
  189.7080  177.4090  144.9940 C   0  0  0  0  0  0  0  0  0  0  0  0
  192.3760  175.8280  147.9590 C   0  0  0  0  0  1  0  0  0  0  0  0
  190.9450  176.8750  144.6170 C   0  0  0  0  0  3  0  0  0  0  0  0
  191.8160  176.3620  145.5840 C   0  0  0  0  0  3  0  0  0  0  0  0
  191.4520  176.3770  146.9300 C   0  0  0  0  0  0  0  0  0  0  0  0
  185.8290  177.8790  144.2970 C   0  0  0  0  0  2  0  0  0  0  0  0
  185.6750  178.8710  145.4370 C   0  0  0  0  0  2  0  0  0  0  0  0
  184.4040  178.6600  146.1110 N   0  0  0  0  0  2  0  0  0  0  0  0
  183.3650  178.9960  145.1560 C   0  0  0  0  0  1  0  0  0  0  0  0
  185.3030  179.2050  142.2040 C   0  0  0  0  0  2  0  0  0  0  0  0
  184.2000  178.2530  141.7360 C   0  0  0  0  0  2  0  0  0  0  0  0
  180.6190  179.9960  135.9260 C   0  0  0  0  0  2  0  0  0  0  0  0
  180.9830  178.5330  135.5560 C   0  0  0  0  0  2  0  0  0  0  0  0
  183.6470  178.6590  140.3840 C   0  0  1  0  0  3  0  0  0  0  0  0
  187.0580  176.3060  136.2380 C   0  0  0  0  0  2  0  0  0  0  0  0
  186.3240  177.4260  136.9730 C   0  0  0  0  0  2  0  0  0  0  0  0
  181.7600  179.9620  139.5270 O   0  0  0  0  0  0  0  0  0  0  0  0
  184.1480  178.0730  138.0350 C   0  0  0  0  0  2  0  0  0  0  0  0
  183.8570  177.5050  139.4110 C   0  0  0  0  0  2  0  0  0  0  0  0
  182.8950  175.7060  136.3950 N   0  0  0  0  0  0  0  0  0  0  0  0
  186.3150  175.9290  135.1110 O   0  0  0  0  0  0  0  0  0  0  0  0
  182.1720  179.0400  140.5370 C   0  0  0  0  0  2  0  0  0  0  0  0
  181.2810  179.5500  138.2840 C   0  0  0  0  0  0  0  0  0  0  0  0
  181.0730  180.4360  137.3050 C   0  0  0  0  0  3  0  0  0  0  0  0
  184.8550  177.1170  137.1350 C   0  0  0  0  0  0  0  0  0  0  0  0
  185.2050  175.2260  135.6070 C   0  0  0  0  0  2  0  0  0  0  0  0
  181.8180  176.3880  136.4910 N   0  0  0  0  0  0  0  0  0  0  0  0
  181.7420  177.8200  136.6750 C   0  0  2  0  0  3  0  0  0  0  0  0
  184.2800  176.1320  136.3800 C   0  0  0  0  0  0  0  0  0  0  0  0
  181.0580  178.1050  137.9980 C   0  0  0  0  0  2  0  0  0  0  0  0
  1 22  1  6  0  0  0
  1 18  1  0  0  0  0
  2  3  1  0  0  0  0
  2  1  1  1  0  0  0
  3 10  1  1  0  0  0
  4  5  1  6  0  0  0
  4  2  1  0  0  0  0
  4  3  1  0  0  0  0
  5  6  1  6  0  0  0
  5  9  1  0  0  0  0
  8  9  2  0  0  0  0
  9  7  1  0  0  0  0
 10 13  1  0  0  0  0
 12 11  2  0  0  0  0
 13 12  1  0  0  0  0
 15 13  2  0  0  0  0
 15 16  1  0  0  0  0
 16 17  2  0  0  0  0
 17 11  1  0  0  0  0
 17 14  1  0  0  0  0
 18 19  1  0  0  0  0
 19 20  1  0  0  0  0
 21 20  1  0  0  0  0
 23 22  1  0  0  0  0
 24 36  1  0  0  0  0
 25 24  1  0  0  0  0
 26 34  1  0  0  0  0
 26 23  1  1  0  0  0
 27 28  1  0  0  0  0
 28 37  1  0  0  0  0
 29 34  1  0  0  0  0
 30 31  1  0  0  0  0
 31 26  1  0  0  0  0
 32 39  2  0  0  0  0
 33 38  1  0  0  0  0
 33 27  1  0  0  0  0
 35 29  1  0  0  0  0
 36 35  2  0  0  0  0
 37 30  1  0  0  0  0
 38 41  1  0  0  0  0
 39 40  1  0  0  0  0
 40 25  1  6  0  0  0
 40 42  1  0  0  0  0
 41 32  1  0  0  0  0
 41 37  2  0  0  0  0
 42 35  1  0  0  0  0
M  END
>  <MODEL>
1

>  <REMARK>
 VINA RESULT:      -8.5      0.000      0.000
  Name = 
  11 active torsions:
  status: ('A' for Active; 'I' for Inactive)
    1  A    between atoms: C_2  and  C_10
    2  A    between atoms: C_2  and  C_36
    3  A    between atoms: N_6  and  C_37
    4  A    between atoms: O_7  and  C_18
    5  A    between atoms: O_7  and  C_24
    6  A    between atoms: C_9  and  C_23
    7  A    between atoms: C_13  and  C_32
    8  A    between atoms: C_13  and  C_37
    9  A    between atoms: C_14  and  C_32
   10  A    between atoms: C_23  and  C_29
   11  A    between atoms: C_32  and  C_36
                            x       y       z     vdW  Elec       q    Type
                         _______ _______ _______ _____ _____    ______ ____

>  <TORSDO>
F 11

$$$$
=
 OpenBabel10222419293D

 42 46  0  0  1  0  0  0  0  0999 V2000
  188.4370  176.7420  142.5990 C   0  0  2  0  0  3  0  0  0  0  0  0
  187.3610  176.5960  143.6810 C   0  0  2  0  0  3  0  0  0  0  0  0
  186.0800  177.3800  143.3830 C   0  0  1  0  0  3  0  0  0  0  0  0
  187.0990  177.9340  144.3560 C   0  0  1  0  0  3  0  0  0  0  0  0
  186.5900  177.7300  145.7750 C   0  0  1  0  0  3  0  0  0  0  0  0
  187.7480  177.7530  146.7560 C   0  0  0  0  0  1  0  0  0  0  0  0
  184.2540  178.8520  145.4700 C   0  0  0  0  0  1  0  0  0  0  0  0
  185.8760  179.6200  146.9810 O   0  0  0  0  0  0  0  0  0  0  0  0
  185.5910  178.7890  146.1370 C   0  0  0  0  0  0  0  0  0  0  0  0
  186.1430  178.1220  142.1690 O   0  0  0  0  0  0  0  0  0  0  0  0
  182.6020  178.4990  141.1160 C   0  0  0  0  0  3  0  0  0  0  0  0
  183.7170  178.1600  141.8870 C   0  0  0  0  0  3  0  0  0  0  0  0
  185.0100  178.4340  141.4150 C   0  0  0  0  0  0  0  0  0  0  0  0
  181.5820  179.4600  139.0480 C   0  0  0  0  0  1  0  0  0  0  0  0
  185.1710  179.0460  140.1680 C   0  0  0  0  0  3  0  0  0  0  0  0
  184.0540  179.3780  139.3950 C   0  0  0  0  0  3  0  0  0  0  0  0
  182.7710  179.1040  139.8680 C   0  0  0  0  0  0  0  0  0  0  0  0
  189.6480  175.8540  142.8910 C   0  0  0  0  0  2  0  0  0  0  0  0
  190.8450  176.6570  143.3670 C   0  0  0  0  0  2  0  0  0  0  0  0
  191.6050  175.8880  144.3390 N   0  0  0  0  0  2  0  0  0  0  0  0
  191.5860  176.6450  145.5760 C   0  0  0  0  0  1  0  0  0  0  0  0
  188.8490  178.2080  142.4050 C   0  0  0  0  0  2  0  0  0  0  0  0
  188.7190  178.7100  140.9660 C   0  0  0  0  0  2  0  0  0  0  0  0
  191.1260  174.0230  136.2910 C   0  0  0  0  0  2  0  0  0  0  0  0
  190.4120  174.9940  135.3140 C   0  0  0  0  0  2  0  0  0  0  0  0
  189.0120  177.6120  139.9620 C   0  0  1  0  0  3  0  0  0  0  0  0
  184.3480  177.0580  136.4540 C   0  0  0  0  0  2  0  0  0  0  0  0
  185.4330  176.5850  137.4200 C   0  0  0  0  0  2  0  0  0  0  0  0
  190.8640  176.1000  139.4350 O   0  0  0  0  0  0  0  0  0  0  0  0
  187.8790  176.7230  137.9520 C   0  0  0  0  0  2  0  0  0  0  0  0
  188.3650  177.9880  138.6340 C   0  0  0  0  0  2  0  0  0  0  0  0
  188.2410  177.7400  135.0030 N   0  0  0  0  0  0  0  0  0  0  0  0
  184.7240  176.7340  135.1430 O   0  0  0  0  0  0  0  0  0  0  0  0
  190.5270  177.4250  139.8480 C   0  0  0  0  0  2  0  0  0  0  0  0
  190.9540  175.7310  138.0940 C   0  0  0  0  0  0  0  0  0  0  0  0
  191.0970  174.4480  137.7470 C   0  0  0  0  0  3  0  0  0  0  0  0
  186.8130  176.9670  136.9390 C   0  0  0  0  0  0  0  0  0  0  0  0
  185.7630  177.6210  134.8170 C   0  0  0  0  0  2  0  0  0  0  0  0
  189.4210  177.2640  135.1270 N   0  0  0  0  0  0  0  0  0  0  0  0
  189.8110  176.2040  136.0290 C   0  0  2  0  0  3  0  0  0  0  0  0
  186.9980  177.3500  135.6390 C   0  0  0  0  0  0  0  0  0  0  0  0
  190.8230  176.7510  137.0150 C   0  0  0  0  0  2  0  0  0  0  0  0
  1 22  1  1  0  0  0
  1 18  1  0  0  0  0
  2  1  1  6  0  0  0
  2  4  1  0  0  0  0
  3 10  1  6  0  0  0
  3  2  1  0  0  0  0
  3  4  1  0  0  0  0
  4  5  1  1  0  0  0
  5  9  1  0  0  0  0
  5  6  1  1  0  0  0
  7  9  1  0  0  0  0
  9  8  2  0  0  0  0
 11 12  1  0  0  0  0
 13 12  2  0  0  0  0
 13 10  1  0  0  0  0
 14 17  1  0  0  0  0
 15 13  1  0  0  0  0
 16 17  1  0  0  0  0
 16 15  2  0  0  0  0
 17 11  2  0  0  0  0
 18 19  1  0  0  0  0
 19 20  1  0  0  0  0
 20 21  1  0  0  0  0
 23 22  1  0  0  0  0
 24 36  1  0  0  0  0
 25 24  1  0  0  0  0
 26 23  1  1  0  0  0
 27 28  1  0  0  0  0
 29 34  1  0  0  0  0
 30 31  1  0  0  0  0
 31 26  1  0  0  0  0
 32 39  2  0  0  0  0
 32 41  1  0  0  0  0
 33 27  1  0  0  0  0
 34 26  1  0  0  0  0
 35 29  1  0  0  0  0
 36 35  2  0  0  0  0
 37 28  1  0  0  0  0
 37 30  1  0  0  0  0
 38 33  1  0  0  0  0
 38 41  1  0  0  0  0
 39 40  1  0  0  0  0
 40 25  1  6  0  0  0
 40 42  1  0  0  0  0
 41 37  2  0  0  0  0
 42 35  1  0  0  0  0
M  END
>  <MODEL>
2

>  <REMARK>
 VINA RESULT:      -8.4      2.655      7.381
  Name = 
  11 active torsions:
  status: ('A' for Active; 'I' for Inactive)
    1  A    between atoms: C_2  and  C_10
    2  A    between atoms: C_2  and  C_36
    3  A    between atoms: N_6  and  C_37
    4  A    between atoms: O_7  and  C_18
    5  A    between atoms: O_7  and  C_24
    6  A    between atoms: C_9  and  C_23
    7  A    between atoms: C_13  and  C_32
    8  A    between atoms: C_13  and  C_37
    9  A    between atoms: C_14  and  C_32
   10  A    between atoms: C_23  and  C_29
   11  A    between atoms: C_32  and  C_36
                            x       y       z     vdW  Elec       q    Type
                         _______ _______ _______ _____ _____    ______ ____

>  <TORSDO>
F 11

$$$$
=
 OpenBabel10222419293D

 42 46  0  0  1  0  0  0  0  0999 V2000
  188.3900  176.7350  142.8090 C   0  0  2  0  0  3  0  0  0  0  0  0
  187.6710  176.8130  144.1610 C   0  0  2  0  0  3  0  0  0  0  0  0
  186.2490  177.3710  144.0700 C   0  0  1  0  0  3  0  0  0  0  0  0
  187.3840  178.2610  144.5300 C   0  0  1  0  0  3  0  0  0  0  0  0
  187.3020  178.4250  146.0400 C   0  0  1  0  0  3  0  0  0  0  0  0
  186.0420  177.7660  146.5710 C   0  0  0  0  0  1  0  0  0  0  0  0
  188.3740  176.9100  147.8730 C   0  0  0  0  0  1  0  0  0  0  0  0
  189.6210  178.1140  146.2910 O   0  0  0  0  0  0  0  0  0  0  0  0
  188.5090  177.8330  146.7040 C   0  0  0  0  0  0  0  0  0  0  0  0
  185.8730  177.7420  142.7470 O   0  0  0  0  0  0  0  0  0  0  0  0
  182.7840  178.4090  140.7960 C   0  0  0  0  0  3  0  0  0  0  0  0
  184.0950  178.0310  141.0960 C   0  0  0  0  0  3  0  0  0  0  0  0
  184.5730  178.1270  142.4120 C   0  0  0  0  0  0  0  0  0  0  0  0
  180.5520  179.2970  141.4810 C   0  0  0  0  0  1  0  0  0  0  0  0
  183.7270  178.6050  143.4170 C   0  0  0  0  0  3  0  0  0  0  0  0
  182.4170  178.9890  143.1140 C   0  0  0  0  0  3  0  0  0  0  0  0
  181.9460  178.8930  141.8040 C   0  0  0  0  0  0  0  0  0  0  0  0
  189.5470  175.7360  142.8480 C   0  0  0  0  0  2  0  0  0  0  0  0
  190.8670  176.4020  143.1950 C   0  0  0  0  0  2  0  0  0  0  0  0
  191.7110  175.4770  143.9350 N   0  0  0  0  0  2  0  0  0  0  0  0
  191.8440  176.0160  145.2750 C   0  0  0  0  0  1  0  0  0  0  0  0
  188.8580  178.1190  142.3380 C   0  0  0  0  0  2  0  0  0  0  0  0
  188.3630  178.5060  140.9430 C   0  0  0  0  0  2  0  0  0  0  0  0
  191.1640  174.1660  136.1530 C   0  0  0  0  0  2  0  0  0  0  0  0
  190.4080  175.1270  135.1960 C   0  0  0  0  0  2  0  0  0  0  0  0
  188.7470  177.4680  139.9060 C   0  0  1  0  0  3  0  0  0  0  0  0
  184.2000  176.7480  136.2760 C   0  0  0  0  0  2  0  0  0  0  0  0
  185.2950  176.3100  137.2490 C   0  0  0  0  0  2  0  0  0  0  0  0
  190.7040  176.1000  139.3640 O   0  0  0  0  0  0  0  0  0  0  0  0
  187.7150  176.5850  137.8390 C   0  0  0  0  0  2  0  0  0  0  0  0
  188.1030  177.8520  138.5780 C   0  0  0  0  0  2  0  0  0  0  0  0
  188.0670  177.7360  134.9390 N   0  0  0  0  0  0  0  0  0  0  0  0
  184.6230  176.5000  134.9630 O   0  0  0  0  0  0  0  0  0  0  0  0
  190.2730  177.3840  139.8180 C   0  0  0  0  0  2  0  0  0  0  0  0
  190.8450  175.7900  138.0130 C   0  0  0  0  0  0  0  0  0  0  0  0
  191.0780  174.5320  137.6230 C   0  0  0  0  0  3  0  0  0  0  0  0
  186.6550  176.7990  136.8130 C   0  0  0  0  0  0  0  0  0  0  0  0
  185.6070  177.4640  134.6930 C   0  0  0  0  0  2  0  0  0  0  0  0
  189.2740  177.3330  135.0720 N   0  0  0  0  0  0  0  0  0  0  0  0
  189.7140  176.2670  135.9420 C   0  0  2  0  0  3  0  0  0  0  0  0
  186.8410  177.2420  135.5320 C   0  0  0  0  0  0  0  0  0  0  0  0
  190.6690  176.8400  136.9700 C   0  0  0  0  0  2  0  0  0  0  0  0
  1 22  1  1  0  0  0
  1 18  1  0  0  0  0
  2  1  1  6  0  0  0
  2  4  1  0  0  0  0
  3 10  1  6  0  0  0
  3  2  1  0  0  0  0
  3  4  1  0  0  0  0
  4  5  1  1  0  0  0
  5  6  1  1  0  0  0
  5  9  1  0  0  0  0
  8  9  2  0  0  0  0
  9  7  1  0  0  0  0
 11 12  2  0  0  0  0
 11 17  1  0  0  0  0
 12 13  1  0  0  0  0
 13 10  1  0  0  0  0
 13 15  2  0  0  0  0
 14 17  1  0  0  0  0
 16 15  1  0  0  0  0
 17 16  2  0  0  0  0
 18 19  1  0  0  0  0
 19 20  1  0  0  0  0
 20 21  1  0  0  0  0
 23 22  1  0  0  0  0
 24 36  1  0  0  0  0
 25 24  1  0  0  0  0
 26 23  1  1  0  0  0
 27 28  1  0  0  0  0
 29 34  1  0  0  0  0
 30 31  1  0  0  0  0
 31 26  1  0  0  0  0
 32 39  2  0  0  0  0
 32 41  1  0  0  0  0
 33 27  1  0  0  0  0
 34 26  1  0  0  0  0
 35 29  1  0  0  0  0
 36 35  2  0  0  0  0
 37 28  1  0  0  0  0
 37 30  1  0  0  0  0
 38 33  1  0  0  0  0
 38 41  1  0  0  0  0
 39 40  1  0  0  0  0
 40 25  1  6  0  0  0
 40 42  1  0  0  0  0
 41 37  2  0  0  0  0
 42 35  1  0  0  0  0
M  END
>  <MODEL>
3

>  <REMARK>
 VINA RESULT:      -8.4      2.798      7.201
  Name = 
  11 active torsions:
  status: ('A' for Active; 'I' for Inactive)
    1  A    between atoms: C_2  and  C_10
    2  A    between atoms: C_2  and  C_36
    3  A    between atoms: N_6  and  C_37
    4  A    between atoms: O_7  and  C_18
    5  A    between atoms: O_7  and  C_24
    6  A    between atoms: C_9  and  C_23
    7  A    between atoms: C_13  and  C_32
    8  A    between atoms: C_13  and  C_37
    9  A    between atoms: C_14  and  C_32
   10  A    between atoms: C_23  and  C_29
   11  A    between atoms: C_32  and  C_36
                            x       y       z     vdW  Elec       q    Type
                         _______ _______ _______ _____ _____    ______ ____

>  <TORSDO>
F 11

$$$$
=
 OpenBabel10222419293D

 42 46  0  0  1  0  0  0  0  0999 V2000
  186.1740  178.5960  143.0570 C   0  0  2  0  0  3  0  0  0  0  0  0
  186.9660  177.5000  142.3360 C   0  0  2  0  0  3  0  0  0  0  0  0
  188.1430  176.9550  143.1510 C   0  0  1  0  0  3  0  0  0  0  0  0
  188.3860  177.9680  142.0510 C   0  0  1  0  0  3  0  0  0  0  0  0
  188.9550  177.2510  140.8370 C   0  0  1  0  0  3  0  0  0  0  0  0
  188.9100  178.1600  139.6230 C   0  0  0  0  0  1  0  0  0  0  0  0
  191.5280  177.5850  140.5630 C   0  0  0  0  0  1  0  0  0  0  0  0
  190.5690  175.7950  141.7390 O   0  0  0  0  0  0  0  0  0  0  0  0
  190.3650  176.8090  141.0940 C   0  0  0  0  0  0  0  0  0  0  0  0
  188.2960  177.5940  144.4140 O   0  0  0  0  0  0  0  0  0  0  0  0
  191.5910  176.5880  145.8010 C   0  0  0  0  0  3  0  0  0  0  0  0
  190.5960  176.9100  144.8750 C   0  0  0  0  0  3  0  0  0  0  0  0
  189.3080  177.2530  145.3140 C   0  0  0  0  0  0  0  0  0  0  0  0
  192.3670  176.2540  148.1520 C   0  0  0  0  0  1  0  0  0  0  0  0
  189.0310  177.2690  146.6850 C   0  0  0  0  0  3  0  0  0  0  0  0
  190.0270  176.9410  147.6100 C   0  0  0  0  0  3  0  0  0  0  0  0
  191.3050  176.6000  147.1690 C   0  0  0  0  0  0  0  0  0  0  0  0
  185.1970  178.0030  144.0740 C   0  0  0  0  0  2  0  0  0  0  0  0
  184.5140  179.0740  144.9050 C   0  0  0  0  0  2  0  0  0  0  0  0
  184.4770  178.6720  146.3020 N   0  0  0  0  0  2  0  0  0  0  0  0
  185.7870  178.9590  146.8530 C   0  0  0  0  0  1  0  0  0  0  0  0
  185.4580  179.5220  142.0640 C   0  0  0  0  0  2  0  0  0  0  0  0
  185.5590  179.0740  140.6050 C   0  0  0  0  0  2  0  0  0  0  0  0
  179.9010  176.3670  137.4000 C   0  0  0  0  0  2  0  0  0  0  0  0
  179.2430  177.6230  138.0330 C   0  0  0  0  0  2  0  0  0  0  0  0
  184.2820  178.4070  140.1340 C   0  0  1  0  0  3  0  0  0  0  0  0
  180.2080  179.1340  144.2870 C   0  0  0  0  0  2  0  0  0  0  0  0
  181.0830  178.3490  143.3100 C   0  0  0  0  0  2  0  0  0  0  0  0
  183.5090  177.1860  138.1580 O   0  0  0  0  0  0  0  0  0  0  0  0
  181.9540  178.2920  140.9600 C   0  0  0  0  0  2  0  0  0  0  0  0
  183.0970  179.2310  140.6270 C   0  0  0  0  0  2  0  0  0  0  0  0
  179.6320  180.2950  140.2820 N   0  0  0  0  0  0  0  0  0  0  0  0
  178.9310  179.3000  143.7340 O   0  0  0  0  0  0  0  0  0  0  0  0
  184.3140  178.2760  138.6090 C   0  0  0  0  0  2  0  0  0  0  0  0
  182.1500  177.3200  137.8820 C   0  0  0  0  0  0  0  0  0  0  0  0
  181.3950  176.2450  137.6330 C   0  0  0  0  0  3  0  0  0  0  0  0
  180.9580  178.8800  141.9020 C   0  0  0  0  0  0  0  0  0  0  0  0
  179.0830  180.2470  142.7070 C   0  0  0  0  0  2  0  0  0  0  0  0
  179.7390  179.8080  139.1040 N   0  0  0  0  0  0  0  0  0  0  0  0
  180.2510  178.4970  138.7790 C   0  0  2  0  0  3  0  0  0  0  0  0
  179.9150  179.7010  141.5740 C   0  0  0  0  0  0  0  0  0  0  0  0
  181.4940  178.6570  137.9270 C   0  0  0  0  0  2  0  0  0  0  0  0
  1 22  1  6  0  0  0
  1 18  1  0  0  0  0
  2  1  1  1  0  0  0
  2  3  1  0  0  0  0
  3 10  1  1  0  0  0
  4  5  1  6  0  0  0
  4  2  1  0  0  0  0
  4  3  1  0  0  0  0
  5  6  1  6  0  0  0
  5  9  1  0  0  0  0
  7  9  1  0  0  0  0
  9  8  2  0  0  0  0
 10 13  1  0  0  0  0
 11 17  1  0  0  0  0
 12 13  1  0  0  0  0
 12 11  2  0  0  0  0
 13 15  2  0  0  0  0
 15 16  1  0  0  0  0
 17 16  2  0  0  0  0
 17 14  1  0  0  0  0
 18 19  1  0  0  0  0
 19 20  1  0  0  0  0
 20 21  1  0  0  0  0
 23 22  1  0  0  0  0
 24 36  1  0  0  0  0
 24 25  1  0  0  0  0
 25 40  1  0  0  0  0
 26 23  1  6  0  0  0
 26 31  1  0  0  0  0
 28 27  1  0  0  0  0
 29 34  1  0  0  0  0
 30 37  1  0  0  0  0
 31 30  1  0  0  0  0
 32 41  1  0  0  0  0
 33 27  1  0  0  0  0
 34 26  1  0  0  0  0
 35 42  1  0  0  0  0
 35 29  1  0  0  0  0
 36 35  2  0  0  0  0
 37 28  1  0  0  0  0
 38 33  1  0  0  0  0
 39 32  2  0  0  0  0
 40 42  1  6  0  0  0
 40 39  1  0  0  0  0
 41 37  2  0  0  0  0
 41 38  1  0  0  0  0
M  END
>  <MODEL>
4

>  <REMARK>
 VINA RESULT:      -8.4      2.070      4.237
  Name = 
  11 active torsions:
  status: ('A' for Active; 'I' for Inactive)
    1  A    between atoms: C_2  and  C_10
    2  A    between atoms: C_2  and  C_36
    3  A    between atoms: N_6  and  C_37
    4  A    between atoms: O_7  and  C_18
    5  A    between atoms: O_7  and  C_24
    6  A    between atoms: C_9  and  C_23
    7  A    between atoms: C_13  and  C_32
    8  A    between atoms: C_13  and  C_37
    9  A    between atoms: C_14  and  C_32
   10  A    between atoms: C_23  and  C_29
   11  A    between atoms: C_32  and  C_36
                            x       y       z     vdW  Elec       q    Type
                         _______ _______ _______ _____ _____    ______ ____

>  <TORSDO>
F 11

$$$$
=
 OpenBabel10222419293D

 42 46  0  0  1  0  0  0  0  0999 V2000
  186.6270  178.4460  142.2990 C   0  0  2  0  0  3  0  0  0  0  0  0
  187.5570  177.6780  141.3530 C   0  0  2  0  0  3  0  0  0  0  0  0
  189.0130  177.6320  141.8260 C   0  0  1  0  0  3  0  0  0  0  0  0
  188.5960  178.6140  140.7520 C   0  0  1  0  0  3  0  0  0  0  0  0
  189.0670  178.0980  139.4010 C   0  0  1  0  0  3  0  0  0  0  0  0
  190.1600  177.0620  139.5890 C   0  0  0  0  0  1  0  0  0  0  0  0
  186.7330  178.3260  138.2600 C   0  0  0  0  0  1  0  0  0  0  0  0
  187.9620  176.3280  138.3140 O   0  0  0  0  0  0  0  0  0  0  0  0
  187.9250  177.5040  138.6330 C   0  0  0  0  0  0  0  0  0  0  0  0
  189.2310  178.3390  143.0440 O   0  0  0  0  0  0  0  0  0  0  0  0
  190.0980  177.3740  146.5240 C   0  0  0  0  0  3  0  0  0  0  0  0
  189.4310  177.9700  145.4510 C   0  0  0  0  0  3  0  0  0  0  0  0
  189.8860  177.7700  144.1390 C   0  0  0  0  0  0  0  0  0  0  0  0
  191.9350  175.9510  147.4400 C   0  0  0  0  0  1  0  0  0  0  0  0
  191.0110  176.9690  143.9160 C   0  0  0  0  0  3  0  0  0  0  0  0
  191.6810  176.3790  144.9920 C   0  0  0  0  0  3  0  0  0  0  0  0
  191.2260  176.5820  146.2950 C   0  0  0  0  0  0  0  0  0  0  0  0
  186.1170  177.5490  143.4290 C   0  0  0  0  0  2  0  0  0  0  0  0
  185.6480  178.3520  144.6300 C   0  0  0  0  0  2  0  0  0  0  0  0
  186.0800  177.7060  145.8590 N   0  0  0  0  0  2  0  0  0  0  0  0
  185.7400  178.6050  146.9440 C   0  0  0  0  0  1  0  0  0  0  0  0
  185.4680  179.1070  141.5400 C   0  0  0  0  0  2  0  0  0  0  0  0
  184.2020  178.2530  141.4640 C   0  0  0  0  0  2  0  0  0  0  0  0
  180.1690  179.2840  135.7810 C   0  0  0  0  0  2  0  0  0  0  0  0
  179.9320  177.7620  135.9730 C   0  0  0  0  0  2  0  0  0  0  0  0
  183.5190  178.3830  140.1160 C   0  0  1  0  0  3  0  0  0  0  0  0
  184.9070  173.6750  136.9100 C   0  0  0  0  0  2  0  0  0  0  0  0
  184.7760  175.1660  137.2190 C   0  0  0  0  0  2  0  0  0  0  0  0
  182.0280  179.9700  138.9960 O   0  0  0  0  0  0  0  0  0  0  0  0
  183.2430  176.9220  138.1400 C   0  0  0  0  0  2  0  0  0  0  0  0
  183.1050  176.9920  139.6490 C   0  0  0  0  0  2  0  0  0  0  0  0
  180.9340  174.8480  137.6620 N   0  0  0  0  0  0  0  0  0  0  0  0
  183.8430  173.2790  136.0890 O   0  0  0  0  0  0  0  0  0  0  0  0
  182.3320  179.3410  140.2420 C   0  0  0  0  0  2  0  0  0  0  0  0
  181.1680  179.4020  138.0580 C   0  0  0  0  0  0  0  0  0  0  0  0
  181.0470  179.9300  136.8360 C   0  0  0  0  0  3  0  0  0  0  0  0
  183.3670  175.5300  137.6200 C   0  0  0  0  0  0  0  0  0  0  0  0
  182.7080  173.2710  136.9150 C   0  0  0  0  0  2  0  0  0  0  0  0
  180.1980  175.8900  137.5840 N   0  0  0  0  0  0  0  0  0  0  0  0
  180.6460  177.2110  137.2070 C   0  0  2  0  0  3  0  0  0  0  0  0
  182.3400  174.6650  137.3580 C   0  0  0  0  0  0  0  0  0  0  0  0
  180.4190  178.1530  138.3730 C   0  0  0  0  0  2  0  0  0  0  0  0
  1 22  1  6  0  0  0
  1 18  1  0  0  0  0
  2  3  1  0  0  0  0
  2  1  1  1  0  0  0
  3 10  1  1  0  0  0
  4  5  1  6  0  0  0
  4  2  1  0  0  0  0
  4  3  1  0  0  0  0
  5  6  1  1  0  0  0
  7  9  1  0  0  0  0
  8  9  2  0  0  0  0
  9  5  1  0  0  0  0
 10 13  1  0  0  0  0
 12 11  2  0  0  0  0
 13 12  1  0  0  0  0
 15 13  2  0  0  0  0
 15 16  1  0  0  0  0
 16 17  2  0  0  0  0
 17 11  1  0  0  0  0
 17 14  1  0  0  0  0
 18 19  1  0  0  0  0
 19 20  1  0  0  0  0
 20 21  1  0  0  0  0
 23 22  1  0  0  0  0
 24 25  1  0  0  0  0
 24 36  1  0  0  0  0
 26 34  1  0  0  0  0
 26 23  1  1  0  0  0
 27 28  1  0  0  0  0
 28 37  1  0  0  0  0
 29 34  1  0  0  0  0
 30 31  1  0  0  0  0
 31 26  1  0  0  0  0
 33 27  1  0  0  0  0
 33 38  1  0  0  0  0
 35 42  1  0  0  0  0
 35 29  1  0  0  0  0
 36 35  2  0  0  0  0
 37 30  1  0  0  0  0
 38 41  1  0  0  0  0
 39 32  2  0  0  0  0
 40 25  1  6  0  0  0
 40 39  1  0  0  0  0
 40 42  1  0  0  0  0
 41 37  2  0  0  0  0
 41 32  1  0  0  0  0
M  END
>  <MODEL>
5

>  <REMARK>
 VINA RESULT:      -7.9      1.468      1.935
  Name = 
  11 active torsions:
  status: ('A' for Active; 'I' for Inactive)
    1  A    between atoms: C_2  and  C_10
    2  A    between atoms: C_2  and  C_36
    3  A    between atoms: N_6  and  C_37
    4  A    between atoms: O_7  and  C_18
    5  A    between atoms: O_7  and  C_24
    6  A    between atoms: C_9  and  C_23
    7  A    between atoms: C_13  and  C_32
    8  A    between atoms: C_13  and  C_37
    9  A    between atoms: C_14  and  C_32
   10  A    between atoms: C_23  and  C_29
   11  A    between atoms: C_32  and  C_36
                            x       y       z     vdW  Elec       q    Type
                         _______ _______ _______ _____ _____    ______ ____

>  <TORSDO>
F 11

$$$$
=
 OpenBabel10222419293D

 42 46  0  0  1  0  0  0  0  0999 V2000
  188.6290  178.2060  139.5070 C   0  0  2  0  0  3  0  0  0  0  0  0
  189.4490  176.9120  139.4570 C   0  0  2  0  0  3  0  0  0  0  0  0
  190.4020  176.7420  140.6430 C   0  0  1  0  0  3  0  0  0  0  0  0
  190.9310  177.2250  139.3090 C   0  0  1  0  0  3  0  0  0  0  0  0
  191.6560  176.0780  138.6210 C   0  0  1  0  0  3  0  0  0  0  0  0
  190.9060  175.6580  137.3700 C   0  0  0  0  0  1  0  0  0  0  0  0
  193.5590  176.3800  136.8620 C   0  0  0  0  0  1  0  0  0  0  0  0
  193.8100  176.8710  139.1430 O   0  0  0  0  0  0  0  0  0  0  0  0
  193.0590  176.4740  138.2680 C   0  0  0  0  0  0  0  0  0  0  0  0
  190.3690  177.8370  141.5540 O   0  0  0  0  0  0  0  0  0  0  0  0
  188.8360  177.0610  144.8460 C   0  0  0  0  0  3  0  0  0  0  0  0
  188.9730  177.2360  143.4670 C   0  0  0  0  0  3  0  0  0  0  0  0
  190.1940  177.6690  142.9290 C   0  0  0  0  0  0  0  0  0  0  0  0
  189.7620  177.1420  147.1650 C   0  0  0  0  0  1  0  0  0  0  0  0
  191.2700  177.9250  143.7860 C   0  0  0  0  0  3  0  0  0  0  0  0
  191.1290  177.7560  145.1670 C   0  0  0  0  0  3  0  0  0  0  0  0
  189.9120  177.3260  145.6970 C   0  0  0  0  0  0  0  0  0  0  0  0
  187.2880  177.9910  140.2110 C   0  0  0  0  0  2  0  0  0  0  0  0
  187.0530  179.0040  141.3180 C   0  0  0  0  0  2  0  0  0  0  0  0
  185.6430  179.0360  141.6710 N   0  0  0  0  0  2  0  0  0  0  0  0
  185.5070  178.3000  142.9130 C   0  0  0  0  0  1  0  0  0  0  0  0
  188.4400  178.8100  138.1090 C   0  0  0  0  0  2  0  0  0  0  0  0
  188.3460  177.7740  136.9870 C   0  0  0  0  0  2  0  0  0  0  0  0
  183.5380  172.6320  137.2360 C   0  0  0  0  0  2  0  0  0  0  0  0
  182.6980  173.7130  136.5050 C   0  0  0  0  0  2  0  0  0  0  0  0
  187.2190  176.7890  137.2290 C   0  0  1  0  0  3  0  0  0  0  0  0
  182.4300  179.8260  138.7160 C   0  0  0  0  0  2  0  0  0  0  0  0
  183.5140  178.7600  138.8750 C   0  0  0  0  0  2  0  0  0  0  0  0
  186.8920  174.3640  137.1300 O   0  0  0  0  0  0  0  0  0  0  0  0
  184.7930  176.9710  137.6730 C   0  0  0  0  0  2  0  0  0  0  0  0
  185.9150  177.4230  136.7580 C   0  0  0  0  0  2  0  0  0  0  0  0
  182.5060  177.0830  135.5250 N   0  0  0  0  0  0  0  0  0  0  0  0
  181.2650  179.2290  138.2170 O   0  0  0  0  0  0  0  0  0  0  0  0
  187.5310  175.4770  136.5040 C   0  0  0  0  0  2  0  0  0  0  0  0
  185.5980  173.9610  136.8050 C   0  0  0  0  0  0  0  0  0  0  0  0
  184.9710  173.0310  137.5330 C   0  0  0  0  0  3  0  0  0  0  0  0
  183.6090  177.8770  137.6540 C   0  0  0  0  0  0  0  0  0  0  0  0
  181.5360  178.9360  136.8710 C   0  0  0  0  0  2  0  0  0  0  0  0
  182.8520  175.8740  135.2900 N   0  0  0  0  0  0  0  0  0  0  0  0
  183.4980  174.9860  136.2300 C   0  0  2  0  0  3  0  0  0  0  0  0
  182.5900  177.8650  136.7420 C   0  0  0  0  0  0  0  0  0  0  0  0
  184.8600  174.6070  135.6840 C   0  0  0  0  0  2  0  0  0  0  0  0
  1 22  1  6  0  0  0
  1 18  1  0  0  0  0
  2  1  1  1  0  0  0
  2  3  1  0  0  0  0
  3 10  1  1  0  0  0
  4  5  1  6  0  0  0
  4  2  1  0  0  0  0
  4  3  1  0  0  0  0
  5  6  1  6  0  0  0
  7  9  1  0  0  0  0
  9  5  1  0  0  0  0
  9  8  2  0  0  0  0
 10 13  1  0  0  0  0
 11 17  1  0  0  0  0
 12 11  2  0  0  0  0
 13 12  1  0  0  0  0
 13 15  2  0  0  0  0
 15 16  1  0  0  0  0
 16 17  2  0  0  0  0
 17 14  1  0  0  0  0
 18 19  1  0  0  0  0
 19 20  1  0  0  0  0
 20 21  1  0  0  0  0
 23 22  1  0  0  0  0
 24 36  1  0  0  0  0
 25 24  1  0  0  0  0
 26 23  1  6  0  0  0
 27 28  1  0  0  0  0
 31 26  1  0  0  0  0
 31 30  1  0  0  0  0
 32 41  1  0  0  0  0
 33 27  1  0  0  0  0
 34 29  1  0  0  0  0
 34 26  1  0  0  0  0
 35 29  1  0  0  0  0
 35 36  2  0  0  0  0
 37 30  1  0  0  0  0
 37 28  1  0  0  0  0
 38 33  1  0  0  0  0
 39 32  2  0  0  0  0
 39 40  1  0  0  0  0
 40 42  1  6  0  0  0
 40 25  1  0  0  0  0
 41 38  1  0  0  0  0
 41 37  2  0  0  0  0
 42 35  1  0  0  0  0
M  END
>  <MODEL>
6

>  <REMARK>
 VINA RESULT:      -7.6      2.036      4.560
  Name = 
  11 active torsions:
  status: ('A' for Active; 'I' for Inactive)
    1  A    between atoms: C_2  and  C_10
    2  A    between atoms: C_2  and  C_36
    3  A    between atoms: N_6  and  C_37
    4  A    between atoms: O_7  and  C_18
    5  A    between atoms: O_7  and  C_24
    6  A    between atoms: C_9  and  C_23
    7  A    between atoms: C_13  and  C_32
    8  A    between atoms: C_13  and  C_37
    9  A    between atoms: C_14  and  C_32
   10  A    between atoms: C_23  and  C_29
   11  A    between atoms: C_32  and  C_36
                            x       y       z     vdW  Elec       q    Type
                         _______ _______ _______ _____ _____    ______ ____

>  <TORSDO>
F 11

$$$$
=
 OpenBabel10222419293D

 42 46  0  0  1  0  0  0  0  0999 V2000
  188.7860  177.3400  139.6200 C   0  0  2  0  0  3  0  0  0  0  0  0
  188.1690  178.4610  140.4650 C   0  0  2  0  0  3  0  0  0  0  0  0
  188.7830  178.5860  141.8620 C   0  0  1  0  0  3  0  0  0  0  0  0
  187.4550  177.8830  141.6770 C   0  0  1  0  0  3  0  0  0  0  0  0
  186.3380  178.8090  142.1360 C   0  0  1  0  0  3  0  0  0  0  0  0
  185.3280  179.0030  141.0200 C   0  0  0  0  0  1  0  0  0  0  0  0
  184.2470  178.6250  143.6850 C   0  0  0  0  0  1  0  0  0  0  0  0
  186.2680  177.5040  144.0920 O   0  0  0  0  0  0  0  0  0  0  0  0
  185.6580  178.2570  143.3530 C   0  0  0  0  0  0  0  0  0  0  0  0
  189.7910  177.6140  142.1230 O   0  0  0  0  0  0  0  0  0  0  0  0
  190.1540  177.6250  145.8190 C   0  0  0  0  0  3  0  0  0  0  0  0
  189.7010  177.9580  144.5400 C   0  0  0  0  0  3  0  0  0  0  0  0
  190.2350  177.3150  143.4130 C   0  0  0  0  0  0  0  0  0  0  0  0
  191.6300  176.3060  147.3420 C   0  0  0  0  0  1  0  0  0  0  0  0
  191.2240  176.3400  143.5820 C   0  0  0  0  0  3  0  0  0  0  0  0
  191.6810  176.0130  144.8620 C   0  0  0  0  0  3  0  0  0  0  0  0
  191.1470  176.6560  145.9800 C   0  0  0  0  0  0  0  0  0  0  0  0
  190.1480  177.7500  139.0560 C   0  0  0  0  0  2  0  0  0  0  0  0
  190.6100  176.8230  137.9460 C   0  0  0  0  0  2  0  0  0  0  0  0
  191.1160  175.5830  138.5120 N   0  0  0  0  0  2  0  0  0  0  0  0
  191.1730  174.6220  137.4270 C   0  0  0  0  0  1  0  0  0  0  0  0
  187.8320  176.8800  138.5080 C   0  0  0  0  0  2  0  0  0  0  0  0
  186.8170  177.9390  138.0770 C   0  0  0  0  0  2  0  0  0  0  0  0
  181.1800  175.2760  134.7970 C   0  0  0  0  0  2  0  0  0  0  0  0
  180.5800  176.6360  135.2430 C   0  0  0  0  0  2  0  0  0  0  0  0
  185.5240  177.3110  137.5930 C   0  0  1  0  0  3  0  0  0  0  0  0
  181.2680  178.7720  141.3500 C   0  0  0  0  0  2  0  0  0  0  0  0
  182.1400  177.8250  140.5260 C   0  0  0  0  0  2  0  0  0  0  0  0
  184.7860  175.9300  135.7110 O   0  0  0  0  0  0  0  0  0  0  0  0
  183.1480  177.4460  138.2630 C   0  0  0  0  0  2  0  0  0  0  0  0
  184.3770  178.2630  137.9110 C   0  0  0  0  0  2  0  0  0  0  0  0
  181.0280  179.5120  137.2130 N   0  0  0  0  0  0  0  0  0  0  0  0
  180.0440  178.9600  140.6950 O   0  0  0  0  0  0  0  0  0  0  0  0
  185.6410  177.0070  136.0970 C   0  0  0  0  0  2  0  0  0  0  0  0
  183.4600  176.1240  135.3280 C   0  0  0  0  0  0  0  0  0  0  0  0
  182.6440  175.0810  135.1450 C   0  0  0  0  0  3  0  0  0  0  0  0
  182.1430  178.2020  139.0640 C   0  0  0  0  0  0  0  0  0  0  0  0
  180.3280  179.7730  139.5860 C   0  0  0  0  0  2  0  0  0  0  0  0
  181.1700  178.8900  136.1050 N   0  0  0  0  0  0  0  0  0  0  0  0
  181.6030  177.5190  135.9590 C   0  0  2  0  0  3  0  0  0  0  0  0
  181.1850  179.0490  138.5780 C   0  0  0  0  0  0  0  0  0  0  0  0
  182.9050  177.4990  135.1830 C   0  0  0  0  0  2  0  0  0  0  0  0
  1 22  1  6  0  0  0
  2  1  1  6  0  0  0
  2  4  1  0  0  0  0
  2  3  1  0  0  0  0
  3 10  1  6  0  0  0
  4  3  1  0  0  0  0
  4  5  1  1  0  0  0
  5  6  1  6  0  0  0
  5  9  1  0  0  0  0
  9  7  1  0  0  0  0
  9  8  2  0  0  0  0
 10 13  1  0  0  0  0
 11 17  1  0  0  0  0
 12 11  2  0  0  0  0
 13 15  2  0  0  0  0
 13 12  1  0  0  0  0
 15 16  1  0  0  0  0
 16 17  2  0  0  0  0
 17 14  1  0  0  0  0
 18  1  1  0  0  0  0
 19 20  1  0  0  0  0
 19 18  1  0  0  0  0
 21 20  1  0  0  0  0
 23 22  1  0  0  0  0
 24 36  1  0  0  0  0
 24 25  1  0  0  0  0
 25 40  1  0  0  0  0
 26 31  1  0  0  0  0
 26 23  1  6  0  0  0
 28 27  1  0  0  0  0
 29 34  1  0  0  0  0
 30 37  1  0  0  0  0
 31 30  1  0  0  0  0
 32 41  1  0  0  0  0
 33 27  1  0  0  0  0
 34 26  1  0  0  0  0
 35 29  1  0  0  0  0
 36 35  2  0  0  0  0
 37 28  1  0  0  0  0
 38 33  1  0  0  0  0
 39 32  2  0  0  0  0
 40 42  1  6  0  0  0
 40 39  1  0  0  0  0
 41 37  2  0  0  0  0
 41 38  1  0  0  0  0
 42 35  1  0  0  0  0
M  END
>  <MODEL>
7

>  <REMARK>
 VINA RESULT:      -7.5      2.167      5.164
  Name = 
  11 active torsions:
  status: ('A' for Active; 'I' for Inactive)
    1  A    between atoms: C_2  and  C_10
    2  A    between atoms: C_2  and  C_36
    3  A    between atoms: N_6  and  C_37
    4  A    between atoms: O_7  and  C_18
    5  A    between atoms: O_7  and  C_24
    6  A    between atoms: C_9  and  C_23
    7  A    between atoms: C_13  and  C_32
    8  A    between atoms: C_13  and  C_37
    9  A    between atoms: C_14  and  C_32
   10  A    between atoms: C_23  and  C_29
   11  A    between atoms: C_32  and  C_36
                            x       y       z     vdW  Elec       q    Type
                         _______ _______ _______ _____ _____    ______ ____

>  <TORSDO>
F 11

$$$$
=
 OpenBabel10222419293D

 42 46  0  0  1  0  0  0  0  0999 V2000
  188.2210  177.3140  138.7260 C   0  0  2  0  0  3  0  0  0  0  0  0
  187.6680  178.4630  139.5770 C   0  0  2  0  0  3  0  0  0  0  0  0
  188.0700  178.3840  141.0520 C   0  0  1  0  0  3  0  0  0  0  0  0
  186.6910  177.9330  140.6170 C   0  0  1  0  0  3  0  0  0  0  0  0
  185.6790  179.0040  140.9980 C   0  0  1  0  0  3  0  0  0  0  0  0
  184.7140  179.2440  139.8520 C   0  0  0  0  0  1  0  0  0  0  0  0
  185.6100  178.4660  143.5500 C   0  0  0  0  0  1  0  0  0  0  0  0
  183.7280  178.3750  142.1530 O   0  0  0  0  0  0  0  0  0  0  0  0
  184.9230  178.6030  142.2290 C   0  0  0  0  0  0  0  0  0  0  0  0
  188.8580  177.2370  141.3600 O   0  0  0  0  0  0  0  0  0  0  0  0
  189.9250  177.7070  144.8860 C   0  0  0  0  0  3  0  0  0  0  0  0
  189.2300  177.8830  143.6870 C   0  0  0  0  0  3  0  0  0  0  0  0
  189.5450  177.0970  142.5680 C   0  0  0  0  0  0  0  0  0  0  0  0
  191.6820  176.5710  146.2500 C   0  0  0  0  0  1  0  0  0  0  0  0
  190.5590  176.1390  142.6650 C   0  0  0  0  0  3  0  0  0  0  0  0
  191.2580  175.9690  143.8640 C   0  0  0  0  0  3  0  0  0  0  0  0
  190.9420  176.7530  144.9730 C   0  0  0  0  0  0  0  0  0  0  0  0
  189.4430  177.7550  137.9190 C   0  0  0  0  0  2  0  0  0  0  0  0
  190.7350  177.1890  138.4810 C   0  0  0  0  0  2  0  0  0  0  0  0
  190.5810  175.7680  138.7460 N   0  0  0  0  0  2  0  0  0  0  0  0
  191.4660  175.0740  137.8310 C   0  0  0  0  0  1  0  0  0  0  0  0
  187.1380  176.7090  137.8210 C   0  0  0  0  0  2  0  0  0  0  0  0
  187.5170  175.3580  137.2100 C   0  0  0  0  0  2  0  0  0  0  0  0
  182.3810  170.7290  135.8650 C   0  0  0  0  0  2  0  0  0  0  0  0
  181.6210  172.0390  135.5260 C   0  0  0  0  0  2  0  0  0  0  0  0
  186.3250  174.4230  137.1390 C   0  0  1  0  0  3  0  0  0  0  0  0
  181.7310  177.1340  139.5700 C   0  0  0  0  0  2  0  0  0  0  0  0
  182.7410  176.0050  139.3690 C   0  0  0  0  0  2  0  0  0  0  0  0
  185.8420  172.1830  136.2780 O   0  0  0  0  0  0  0  0  0  0  0  0
  183.9120  174.6120  137.6460 C   0  0  0  0  0  2  0  0  0  0  0  0
  185.0700  175.2580  136.9090 C   0  0  0  0  0  2  0  0  0  0  0  0
  181.6590  175.5500  135.6700 N   0  0  0  0  0  0  0  0  0  0  0  0
  180.5340  176.8040  138.9200 O   0  0  0  0  0  0  0  0  0  0  0  0
  186.5590  173.3930  136.0310 C   0  0  0  0  0  2  0  0  0  0  0  0
  184.5280  171.9890  135.8560 C   0  0  0  0  0  0  0  0  0  0  0  0
  183.8340  170.9190  136.2570 C   0  0  0  0  0  3  0  0  0  0  0  0
  182.7910  175.5520  137.9290 C   0  0  0  0  0  0  0  0  0  0  0  0
  180.7990  176.9380  137.5470 C   0  0  0  0  0  2  0  0  0  0  0  0
  181.9270  174.4590  135.0600 N   0  0  0  0  0  0  0  0  0  0  0  0
  182.5050  173.2790  135.6610 C   0  0  2  0  0  3  0  0  0  0  0  0
  181.7820  175.8980  137.0720 C   0  0  0  0  0  0  0  0  0  0  0  0
  183.8450  173.0050  135.0070 C   0  0  0  0  0  2  0  0  0  0  0  0
  1 22  1  6  0  0  0
  2  1  1  6  0  0  0
  2  4  1  0  0  0  0
  2  3  1  0  0  0  0
  3 10  1  6  0  0  0
  4  5  1  1  0  0  0
  4  3  1  0  0  0  0
  5  6  1  6  0  0  0
  5  9  1  0  0  0  0
  8  9  2  0  0  0  0
  9  7  1  0  0  0  0
 10 13  1  0  0  0  0
 11 17  1  0  0  0  0
 12 11  2  0  0  0  0
 13 15  2  0  0  0  0
 13 12  1  0  0  0  0
 15 16  1  0  0  0  0
 16 17  2  0  0  0  0
 17 14  1  0  0  0  0
 18 19  1  0  0  0  0
 18  1  1  0  0  0  0
 19 20  1  0  0  0  0
 21 20  1  0  0  0  0
 23 22  1  0  0  0  0
 24 36  1  0  0  0  0
 25 40  1  0  0  0  0
 25 24  1  0  0  0  0
 26 23  1  6  0  0  0
 28 27  1  0  0  0  0
 30 37  1  0  0  0  0
 31 26  1  0  0  0  0
 31 30  1  0  0  0  0
 32 41  1  0  0  0  0
 33 27  1  0  0  0  0
 34 29  1  0  0  0  0
 34 26  1  0  0  0  0
 35 36  2  0  0  0  0
 35 29  1  0  0  0  0
 37 28  1  0  0  0  0
 38 33  1  0  0  0  0
 39 40  1  0  0  0  0
 39 32  2  0  0  0  0
 40 42  1  6  0  0  0
 41 38  1  0  0  0  0
 41 37  2  0  0  0  0
 42 35  1  0  0  0  0
M  END
>  <MODEL>
8

>  <REMARK>
 VINA RESULT:      -7.5      2.657      5.831
  Name = 
  11 active torsions:
  status: ('A' for Active; 'I' for Inactive)
    1  A    between atoms: C_2  and  C_10
    2  A    between atoms: C_2  and  C_36
    3  A    between atoms: N_6  and  C_37
    4  A    between atoms: O_7  and  C_18
    5  A    between atoms: O_7  and  C_24
    6  A    between atoms: C_9  and  C_23
    7  A    between atoms: C_13  and  C_32
    8  A    between atoms: C_13  and  C_37
    9  A    between atoms: C_14  and  C_32
   10  A    between atoms: C_23  and  C_29
   11  A    between atoms: C_32  and  C_36
                            x       y       z     vdW  Elec       q    Type
                         _______ _______ _______ _____ _____    ______ ____

>  <TORSDO>
F 11

$$$$
=
 OpenBabel10222419293D

 42 46  0  0  1  0  0  0  0  0999 V2000
  189.3450  177.2270  143.4230 C   0  0  2  0  0  3  0  0  0  0  0  0
  188.2480  176.7600  144.3860 C   0  0  2  0  0  3  0  0  0  0  0  0
  186.8570  177.3000  144.0410 C   0  0  1  0  0  3  0  0  0  0  0  0
  187.6680  177.9430  145.1470 C   0  0  1  0  0  3  0  0  0  0  0  0
  187.1110  177.4980  146.4910 C   0  0  1  0  0  3  0  0  0  0  0  0
  188.2240  177.4200  147.5190 C   0  0  0  0  0  1  0  0  0  0  0  0
  184.6140  178.2510  146.5650 C   0  0  0  0  0  1  0  0  0  0  0  0
  186.3460  179.3850  147.6700 O   0  0  0  0  0  0  0  0  0  0  0  0
  186.0440  178.4410  146.9610 C   0  0  0  0  0  0  0  0  0  0  0  0
  186.8530  178.1610  142.9060 O   0  0  0  0  0  0  0  0  0  0  0  0
  184.5520  179.2910  140.2200 C   0  0  0  0  0  3  0  0  0  0  0  0
  185.7350  179.0020  140.9030 C   0  0  0  0  0  3  0  0  0  0  0  0
  185.6880  178.4750  142.2030 C   0  0  0  0  0  0  0  0  0  0  0  0
  182.0580  179.3770  140.1020 C   0  0  0  0  0  1  0  0  0  0  0  0
  184.4480  178.2450  142.8070 C   0  0  0  0  0  3  0  0  0  0  0  0
  183.2640  178.5410  142.1230 C   0  0  0  0  0  3  0  0  0  0  0  0
  183.3160  179.0650  140.8320 C   0  0  0  0  0  0  0  0  0  0  0  0
  190.0140  178.5110  143.9190 C   0  0  0  0  0  2  0  0  0  0  0  0
  191.4530  178.2800  144.3450 C   0  0  0  0  0  2  0  0  0  0  0  0
  191.6630  176.8720  144.6420 N   0  0  0  0  0  2  0  0  0  0  0  0
  191.6790  176.7490  146.0870 C   0  0  0  0  0  1  0  0  0  0  0  0
  188.8110  177.3880  141.9930 C   0  0  0  0  0  2  0  0  0  0  0  0
  189.7080  178.2260  141.0800 C   0  0  0  0  0  2  0  0  0  0  0  0
  187.5360  176.5130  134.6020 C   0  0  0  0  0  2  0  0  0  0  0  0
  188.2870  175.2020  134.9600 C   0  0  0  0  0  2  0  0  0  0  0  0
  189.4660  177.9120  139.6160 C   0  0  1  0  0  3  0  0  0  0  0  0
  194.2830  175.3450  137.4800 C   0  0  0  0  0  2  0  0  0  0  0  0
  193.1590  176.3780  137.5360 C   0  0  0  0  0  2  0  0  0  0  0  0
  187.6470  178.1650  137.9970 O   0  0  0  0  0  0  0  0  0  0  0  0
  190.6920  176.6780  137.8590 C   0  0  0  0  0  2  0  0  0  0  0  0
  190.1690  176.6020  139.2810 C   0  0  0  0  0  2  0  0  0  0  0  0
  190.4560  173.6120  137.2220 N   0  0  0  0  0  0  0  0  0  0  0  0
  193.9680  174.3700  136.5240 O   0  0  0  0  0  0  0  0  0  0  0  0
  187.9590  177.8560  139.3560 C   0  0  0  0  0  2  0  0  0  0  0  0
  187.6190  177.1970  136.9940 C   0  0  0  0  0  0  0  0  0  0  0  0
  187.4980  177.5490  135.7100 C   0  0  0  0  0  3  0  0  0  0  0  0
  191.8010  175.7210  137.5820 C   0  0  0  0  0  0  0  0  0  0  0  0
  192.9400  173.6000  137.0920 C   0  0  0  0  0  2  0  0  0  0  0  0
  189.2740  173.9200  136.8440 N   0  0  0  0  0  0  0  0  0  0  0  0
  188.8500  175.2210  136.3810 C   0  0  2  0  0  3  0  0  0  0  0  0
  191.6710  174.4020  137.2440 C   0  0  0  0  0  0  0  0  0  0  0  0
  187.7920  175.7540  137.3260 C   0  0  0  0  0  2  0  0  0  0  0  0
  1 22  1  6  0  0  0
  1 18  1  0  0  0  0
  2  1  1  6  0  0  0
  2  4  1  0  0  0  0
  3 10  1  6  0  0  0
  3  2  1  0  0  0  0
  3  4  1  0  0  0  0
  4  5  1  1  0  0  0
  5  9  1  0  0  0  0
  5  6  1  1  0  0  0
  7  9  1  0  0  0  0
  9  8  2  0  0  0  0
 11 17  2  0  0  0  0
 11 12  1  0  0  0  0
 12 13  2  0  0  0  0
 13 15  1  0  0  0  0
 13 10  1  0  0  0  0
 14 17  1  0  0  0  0
 16 15  2  0  0  0  0
 17 16  1  0  0  0  0
 18 19  1  0  0  0  0
 19 20  1  0  0  0  0
 20 21  1  0  0  0  0
 23 22  1  0  0  0  0
 24 25  1  0  0  0  0
 24 36  1  0  0  0  0
 26 23  1  1  0  0  0
 27 28  1  0  0  0  0
 28 37  1  0  0  0  0
 29 34  1  0  0  0  0
 30 31  1  0  0  0  0
 31 26  1  0  0  0  0
 32 41  1  0  0  0  0
 33 38  1  0  0  0  0
 33 27  1  0  0  0  0
 34 26  1  0  0  0  0
 35 42  1  0  0  0  0
 35 29  1  0  0  0  0
 36 35  2  0  0  0  0
 37 30  1  0  0  0  0
 38 41  1  0  0  0  0
 39 32  2  0  0  0  0
 40 25  1  6  0  0  0
 40 39  1  0  0  0  0
 40 42  1  0  0  0  0
 41 37  2  0  0  0  0
M  END
>  <MODEL>
9

>  <REMARK>
 VINA RESULT:      -7.4      3.101      7.222
  Name = 
  11 active torsions:
  status: ('A' for Active; 'I' for Inactive)
    1  A    between atoms: C_2  and  C_10
    2  A    between atoms: C_2  and  C_36
    3  A    between atoms: N_6  and  C_37
    4  A    between atoms: O_7  and  C_18
    5  A    between atoms: O_7  and  C_24
    6  A    between atoms: C_9  and  C_23
    7  A    between atoms: C_13  and  C_32
    8  A    between atoms: C_13  and  C_37
    9  A    between atoms: C_14  and  C_32
   10  A    between atoms: C_23  and  C_29
   11  A    between atoms: C_32  and  C_36
                            x       y       z     vdW  Elec       q    Type
                         _______ _______ _______ _____ _____    ______ ____

>  <TORSDO>
F 11

$$$$
