=
 OpenBabel10222418423D

 41 45  0  0  1  0  0  0  0  0999 V2000
  189.3480  177.9570  139.1580 C   0  0  1  0  0  3  0  0  0  0  0  0
  191.2550  176.3340  139.5930 N   0  0  0  0  0  0  0  0  0  0  0  0
  187.8810  178.4040  141.2020 C   0  0  0  0  0  0  0  0  0  0  0  0
  190.4990  176.6900  137.3610 C   0  0  0  0  0  0  0  0  0  0  0  0
  186.5790  178.1110  137.6540 N   0  0  0  0  0  0  0  0  0  0  0  0
  191.3820  176.1250  138.3420 N   0  0  0  0  0  0  0  0  0  0  0  0
  188.8730  177.9580  141.9890 C   0  0  0  0  0  3  0  0  0  0  0  0
  190.0210  177.2240  141.4280 C   0  0  0  0  0  3  0  0  0  0  0  0
  186.8010  178.2210  139.0660 C   0  0  0  0  0  3  0  0  0  0  0  0
  188.8090  178.2840  136.6710 C   0  0  0  0  0  3  0  0  0  0  0  0
  189.4950  177.5210  137.7180 C   0  0  0  0  0  0  0  0  0  0  0  0
  187.9600  178.1890  139.7360 C   0  0  0  0  0  0  0  0  0  0  0  0
  190.2080  177.1520  140.1080 C   0  0  0  0  0  0  0  0  0  0  0  0
  190.7510  176.3390  135.9280 C   0  0  0  0  0  1  0  0  0  0  0  0
  187.5120  178.5570  136.6570 C   0  0  0  0  0  3  0  0  0  0  0  0
  184.2440  178.2100  138.3930 C   0  0  0  0  0  0  0  0  0  0  0  0
  185.0510  175.7290  135.7630 C   0  0  0  0  0  2  0  0  0  0  0  0
  185.1750  177.9000  137.2820 C   0  0  2  0  0  3  0  0  0  0  0  0
  183.7120  175.9850  137.9590 N   0  0  0  0  0  0  0  0  0  0  0  0
  185.9270  175.4020  136.9670 C   0  0  0  0  0  2  0  0  0  0  0  0
  184.8160  176.4240  137.0920 C   0  0  0  0  0  0  0  0  0  0  0  0
  183.4930  177.1010  138.7450 O   0  0  0  0  0  0  0  0  0  0  0  0
  184.1080  179.3960  138.9670 C   0  0  0  0  0  2  0  0  0  0  0  0
  182.5040  175.8160  137.1550 C   0  0  0  0  0  2  0  0  0  0  0  0
  181.7170  174.6050  137.6290 C   0  0  0  0  0  2  0  0  0  0  0  0
  181.6740  173.5420  136.5460 C   0  0  0  0  0  2  0  0  0  0  0  0
  181.6750  172.1670  137.1860 C   0  0  0  0  0  2  0  0  0  0  0  0
  184.1620  172.1610  137.1950 C   0  0  0  0  0  1  0  0  0  0  0  0
  182.9170  171.4010  136.7750 C   0  0  0  0  0  2  0  0  0  0  0  0
  186.7640  179.0570  141.7460 O   0  0  0  0  0  0  0  0  0  0  0  0
  185.6240  178.3790  142.2630 C   0  0  0  0  0  2  0  0  0  0  0  0
  185.9220  177.7960  143.6380 C   0  0  0  0  0  2  0  0  0  0  0  0
  185.5560  178.7450  144.6820 N   0  0  0  0  0  2  0  0  0  0  0  0
  185.9710  178.6110  146.0450 C   0  0  0  0  0  0  0  0  0  0  0  0
  185.6790  179.5160  146.8700 O   0  0  0  0  0  0  0  0  0  0  0  0
  186.7130  177.4030  146.5160 C   0  0  0  0  0  2  0  0  0  0  0  0
  188.6050  177.8430  148.0040 C   0  0  0  0  0  2  0  0  0  0  0  0
  188.1540  177.7260  146.7570 C   0  0  0  0  0  0  0  0  0  0  0  0
  189.1120  177.8260  145.6100 C   0  0  0  0  0  2  0  0  0  0  0  0
  191.3100  176.8810  145.0240 C   0  0  0  0  0  2  0  0  0  0  0  0
  190.4520  177.2610  145.9700 C   0  0  0  0  0  3  0  0  0  0  0  0
  1 11  1  6  0  0  0
  1 12  1  0  0  0  0
  1 13  1  0  0  0  0
  2 13  1  0  0  0  0
  3 30  1  0  0  0  0
  3  7  2  0  0  0  0
  4 11  2  0  0  0  0
  4  6  1  0  0  0  0
  5  9  1  0  0  0  0
  6  2  2  0  0  0  0
  8  7  1  0  0  0  0
  9 12  2  0  0  0  0
 10 11  1  0  0  0  0
 12  3  1  0  0  0  0
 13  8  2  0  0  0  0
 14  4  1  0  0  0  0
 15 10  2  0  0  0  0
 15  5  1  0  0  0  0
 16 22  1  0  0  0  0
 16 23  2  0  0  0  0
 17 20  1  0  0  0  0
 17 21  1  0  0  0  0
 18  5  1  1  0  0  0
 18 16  1  0  0  0  0
 19 22  1  0  0  0  0
 20 21  1  0  0  0  0
 21 18  1  0  0  0  0
 21 19  1  0  0  0  0
 24 25  1  0  0  0  0
 24 19  1  0  0  0  0
 26 27  1  0  0  0  0
 26 25  1  0  0  0  0
 29 27  1  0  0  0  0
 29 28  1  0  0  0  0
 30 31  1  0  0  0  0
 31 32  1  0  0  0  0
 32 33  1  0  0  0  0
 33 34  1  0  0  0  0
 34 36  1  0  0  0  0
 34 35  2  0  0  0  0
 36 38  1  0  0  0  0
 38 37  2  0  0  0  0
 39 41  1  0  0  0  0
 39 38  1  0  0  0  0
 40 41  2  0  0  0  0
M  END
>  <MODEL>
1

>  <REMARK>
 VINA RESULT:      -7.7      0.000      0.000
  Name = 
  14 active torsions:
  status: ('A' for Active; 'I' for Inactive)
    1  A    between atoms: C_6  and  N_15
    2  A    between atoms: C_7  and  O_16
    3  A    between atoms: N_8  and  C_13
    4  A    between atoms: C_10  and  O_16
    5  A    between atoms: C_10  and  C_27
    6  A    between atoms: C_13  and  C_32
    7  A    between atoms: N_14  and  C_27
    8  A    between atoms: C_17  and  C_20
    9  A    between atoms: C_17  and  C_23
   10  A    between atoms: C_20  and  C_22
   11  A    between atoms: C_21  and  C_32
   12  A    between atoms: C_21  and  C_33
   13  A    between atoms: C_23  and  C_40
   14  A    between atoms: C_33  and  C_39
                            x       y       z     vdW  Elec       q    Type
                         _______ _______ _______ _____ _____    ______ ____

>  <TORSDO>
F 14

$$$$
=
 OpenBabel10222418423D

 41 45  0  0  1  0  0  0  0  0999 V2000
  186.5490  176.4980  137.0340 C   0  0  0  0  0  0  0  0  0  0  0  0
  186.1250  174.1570  136.1400 N   0  0  0  0  0  2  0  0  0  0  0  0
  188.8670  176.8100  138.0640 C   0  0  0  0  0  0  0  0  0  0  0  0
  184.2780  175.5650  136.6730 C   0  0  0  0  0  0  0  0  0  0  0  0
  185.6950  178.3850  139.4140 N   0  0  0  0  0  0  0  0  0  0  0  0
  184.8670  174.3640  136.1540 N   0  0  0  0  0  0  0  0  0  0  0  0
  189.2900  175.7250  137.3950 C   0  0  0  0  0  3  0  0  0  0  0  0
  188.3360  174.8030  136.7550 C   0  0  0  0  0  3  0  0  0  0  0  0
  187.0100  177.8860  139.1390 C   0  0  0  0  0  3  0  0  0  0  0  0
  184.4140  177.8740  137.3970 C   0  0  0  0  0  3  0  0  0  0  0  0
  185.0440  176.5740  137.1440 C   0  0  0  0  0  0  0  0  0  0  0  0
  187.4150  177.1080  138.1270 C   0  0  0  0  0  0  0  0  0  0  0  0
  187.0430  175.1200  136.6520 C   0  0  0  0  0  0  0  0  0  0  0  0
  182.7850  175.6620  136.6500 C   0  0  0  0  0  1  0  0  0  0  0  0
  184.7210  178.6830  138.4010 C   0  0  0  0  0  3  0  0  0  0  0  0
  186.6700  178.6230  141.6500 C   0  0  0  0  0  0  0  0  0  0  0  0
  182.9780  178.8240  141.4160 C   0  0  0  0  0  2  0  0  0  0  0  0
  185.5420  178.9680  140.7520 C   0  0  2  0  0  3  0  0  0  0  0  0
  184.8600  177.7730  142.8430 N   0  0  0  0  0  0  0  0  0  0  0  0
  183.3860  177.4690  140.8500 C   0  0  0  0  0  2  0  0  0  0  0  0
  184.4070  178.3340  141.5610 C   0  0  0  0  0  0  0  0  0  0  0  0
  186.2310  177.9310  142.7660 O   0  0  0  0  0  0  0  0  0  0  0  0
  187.9360  178.9530  141.4470 C   0  0  0  0  0  2  0  0  0  0  0  0
  184.4150  178.6390  143.9330 C   0  0  0  0  0  2  0  0  0  0  0  0
  185.5760  178.9640  144.8580 C   0  0  0  0  0  2  0  0  0  0  0  0
  185.4230  178.2370  146.1810 C   0  0  0  0  0  2  0  0  0  0  0  0
  186.4570  178.7500  147.1640 C   0  0  0  0  0  2  0  0  0  0  0  0
  188.3430  178.0820  148.6420 C   0  0  0  0  0  1  0  0  0  0  0  0
  187.4600  177.6580  147.4820 C   0  0  0  0  0  2  0  0  0  0  0  0
  189.7770  177.6570  138.7160 O   0  0  0  0  0  0  0  0  0  0  0  0
  191.1360  177.3170  138.9670 C   0  0  0  0  0  2  0  0  0  0  0  0
  191.4150  177.2880  140.4640 C   0  0  0  0  0  2  0  0  0  0  0  0
  190.4470  176.4380  141.1450 N   0  0  0  0  0  2  0  0  0  0  0  0
  190.4690  176.1980  142.5560 C   0  0  0  0  0  0  0  0  0  0  0  0
  189.5500  175.5150  143.0800 O   0  0  0  0  0  0  0  0  0  0  0  0
  191.5780  176.7120  143.4150 C   0  0  0  0  0  2  0  0  0  0  0  0
  190.9120  179.0050  143.9490 C   0  0  0  0  0  2  0  0  0  0  0  0
  191.0750  177.7510  144.3660 C   0  0  0  0  0  0  0  0  0  0  0  0
  190.6660  177.3740  145.7570 C   0  0  0  0  0  2  0  0  0  0  0  0
  191.4850  175.7730  147.4390 C   0  0  0  0  0  2  0  0  0  0  0  0
  191.7620  176.6400  146.4660 C   0  0  0  0  0  3  0  0  0  0  0  0
  1 11  2  0  0  0  0
  1 12  1  0  0  0  0
  2  6  1  0  0  0  0
  2 13  1  0  0  0  0
  3 12  1  0  0  0  0
  3 30  1  0  0  0  0
  4 11  1  0  0  0  0
  6  4  2  0  0  0  0
  7  3  2  0  0  0  0
  8  7  1  0  0  0  0
  9  5  1  0  0  0  0
 10 15  2  0  0  0  0
 11 10  1  0  0  0  0
 12  9  2  0  0  0  0
 13  8  2  0  0  0  0
 13  1  1  0  0  0  0
 14  4  1  0  0  0  0
 15  5  1  0  0  0  0
 16 22  1  0  0  0  0
 17 21  1  0  0  0  0
 18  5  1  6  0  0  0
 18 21  1  0  0  0  0
 18 16  1  0  0  0  0
 19 24  1  0  0  0  0
 20 17  1  0  0  0  0
 20 21  1  0  0  0  0
 21 19  1  0  0  0  0
 22 19  1  0  0  0  0
 23 16  2  0  0  0  0
 24 25  1  0  0  0  0
 25 26  1  0  0  0  0
 26 27  1  0  0  0  0
 27 29  1  0  0  0  0
 29 28  1  0  0  0  0
 30 31  1  0  0  0  0
 31 32  1  0  0  0  0
 32 33  1  0  0  0  0
 33 34  1  0  0  0  0
 34 35  2  0  0  0  0
 34 36  1  0  0  0  0
 36 38  1  0  0  0  0
 37 38  2  0  0  0  0
 38 39  1  0  0  0  0
 39 41  1  0  0  0  0
 41 40  2  0  0  0  0
M  END
>  <MODEL>
2

>  <REMARK>
 VINA RESULT:      -7.5      2.049      6.394
  Name = 
  14 active torsions:
  status: ('A' for Active; 'I' for Inactive)
    1  A    between atoms: C_6  and  N_15
    2  A    between atoms: C_7  and  O_16
    3  A    between atoms: N_8  and  C_13
    4  A    between atoms: C_10  and  O_16
    5  A    between atoms: C_10  and  C_27
    6  A    between atoms: C_13  and  C_32
    7  A    between atoms: N_14  and  C_27
    8  A    between atoms: C_17  and  C_20
    9  A    between atoms: C_17  and  C_23
   10  A    between atoms: C_20  and  C_22
   11  A    between atoms: C_21  and  C_32
   12  A    between atoms: C_21  and  C_33
   13  A    between atoms: C_23  and  C_40
   14  A    between atoms: C_33  and  C_39
                            x       y       z     vdW  Elec       q    Type
                         _______ _______ _______ _____ _____    ______ ____

>  <TORSDO>
F 14

$$$$
=
 OpenBabel10222418423D

 41 45  0  0  1  0  0  0  0  0999 V2000
  189.3160  177.9130  139.0450 C   0  0  1  0  0  3  0  0  0  0  0  0
  191.2190  176.2550  139.3500 N   0  0  0  0  0  0  0  0  0  0  0  0
  187.9620  178.3400  141.1700 C   0  0  0  0  0  0  0  0  0  0  0  0
  190.3540  176.6650  137.1680 C   0  0  0  0  0  0  0  0  0  0  0  0
  186.4750  178.1340  137.6890 N   0  0  0  0  0  0  0  0  0  0  0  0
  191.2780  176.0690  138.0910 N   0  0  0  0  0  0  0  0  0  0  0  0
  188.9860  177.8650  141.8950 C   0  0  0  0  0  3  0  0  0  0  0  0
  190.0930  177.1270  141.2630 C   0  0  0  0  0  3  0  0  0  0  0  0
  186.7710  178.2140  139.0890 C   0  0  0  0  0  3  0  0  0  0  0  0
  188.6540  178.2950  136.5950 C   0  0  0  0  0  3  0  0  0  0  0  0
  189.3820  177.5030  137.5920 C   0  0  0  0  0  0  0  0  0  0  0  0
  187.9620  178.1520  139.6980 C   0  0  0  0  0  0  0  0  0  0  0  0
  190.2110  177.0780  139.9340 C   0  0  0  0  0  0  0  0  0  0  0  0
  190.5270  176.3390  135.7170 C   0  0  0  0  0  1  0  0  0  0  0  0
  187.3630  178.5860  136.6540 C   0  0  0  0  0  3  0  0  0  0  0  0
  184.1820  178.2820  138.5390 C   0  0  0  0  0  0  0  0  0  0  0  0
  184.8120  175.7750  135.8840 C   0  0  0  0  0  2  0  0  0  0  0  0
  185.0520  177.9490  137.3860 C   0  0  2  0  0  3  0  0  0  0  0  0
  183.5850  176.0660  138.1410 N   0  0  0  0  0  0  0  0  0  0  0  0
  185.7390  175.4350  137.0460 C   0  0  0  0  0  2  0  0  0  0  0  0
  184.6550  176.4800  137.2200 C   0  0  0  0  0  0  0  0  0  0  0  0
  183.4260  177.1890  138.9310 O   0  0  0  0  0  0  0  0  0  0  0  0
  184.0960  179.4720  139.1130 C   0  0  0  0  0  2  0  0  0  0  0  0
  182.3370  175.9180  137.3970 C   0  0  0  0  0  2  0  0  0  0  0  0
  181.6450  174.6190  137.7760 C   0  0  0  0  0  2  0  0  0  0  0  0
  180.2210  174.8870  138.2280 C   0  0  0  0  0  2  0  0  0  0  0  0
  180.0540  176.3630  138.5300 C   0  0  0  0  0  2  0  0  0  0  0  0
  180.4250  177.6770  140.6080 C   0  0  0  0  0  1  0  0  0  0  0  0
  179.6250  176.5560  139.9710 C   0  0  0  0  0  2  0  0  0  0  0  0
  186.8840  178.9980  141.7830 O   0  0  0  0  0  0  0  0  0  0  0  0
  185.7520  178.3260  142.3260 C   0  0  0  0  0  2  0  0  0  0  0  0
  186.0660  177.7770  143.7110 C   0  0  0  0  0  2  0  0  0  0  0  0
  185.6210  178.7080  144.7400 N   0  0  0  0  0  2  0  0  0  0  0  0
  186.0040  178.6000  146.1150 C   0  0  0  0  0  0  0  0  0  0  0  0
  185.6420  179.4900  146.9280 O   0  0  0  0  0  0  0  0  0  0  0  0
  186.7950  177.4340  146.6120 C   0  0  0  0  0  2  0  0  0  0  0  0
  188.6830  178.0210  148.0550 C   0  0  0  0  0  2  0  0  0  0  0  0
  188.2270  177.8140  146.8200 C   0  0  0  0  0  0  0  0  0  0  0  0
  189.1740  177.8730  145.6610 C   0  0  0  0  0  2  0  0  0  0  0  0
  191.3150  176.8600  144.9880 C   0  0  0  0  0  2  0  0  0  0  0  0
  190.4410  177.1300  145.9560 C   0  0  0  0  0  3  0  0  0  0  0  0
  1 11  1  6  0  0  0
  1 12  1  0  0  0  0
  1 13  1  0  0  0  0
  2 13  1  0  0  0  0
  3 30  1  0  0  0  0
  3  7  2  0  0  0  0
  4 11  2  0  0  0  0
  4  6  1  0  0  0  0
  5  9  1  0  0  0  0
  6  2  2  0  0  0  0
  8  7  1  0  0  0  0
  9 12  2  0  0  0  0
 10 15  2  0  0  0  0
 10 11  1  0  0  0  0
 12  3  1  0  0  0  0
 13  8  2  0  0  0  0
 14  4  1  0  0  0  0
 15  5  1  0  0  0  0
 16 22  1  0  0  0  0
 16 23  2  0  0  0  0
 17 20  1  0  0  0  0
 17 21  1  0  0  0  0
 18  5  1  1  0  0  0
 18 16  1  0  0  0  0
 19 22  1  0  0  0  0
 20 21  1  0  0  0  0
 21 18  1  0  0  0  0
 21 19  1  0  0  0  0
 24 25  1  0  0  0  0
 24 19  1  0  0  0  0
 25 26  1  0  0  0  0
 26 27  1  0  0  0  0
 27 29  1  0  0  0  0
 29 28  1  0  0  0  0
 30 31  1  0  0  0  0
 31 32  1  0  0  0  0
 32 33  1  0  0  0  0
 33 34  1  0  0  0  0
 34 36  1  0  0  0  0
 34 35  2  0  0  0  0
 36 38  1  0  0  0  0
 38 37  2  0  0  0  0
 39 41  1  0  0  0  0
 39 38  1  0  0  0  0
 40 41  2  0  0  0  0
M  END
>  <MODEL>
3

>  <REMARK>
 VINA RESULT:      -7.5      1.029      1.805
  Name = 
  14 active torsions:
  status: ('A' for Active; 'I' for Inactive)
    1  A    between atoms: C_6  and  N_15
    2  A    between atoms: C_7  and  O_16
    3  A    between atoms: N_8  and  C_13
    4  A    between atoms: C_10  and  O_16
    5  A    between atoms: C_10  and  C_27
    6  A    between atoms: C_13  and  C_32
    7  A    between atoms: N_14  and  C_27
    8  A    between atoms: C_17  and  C_20
    9  A    between atoms: C_17  and  C_23
   10  A    between atoms: C_20  and  C_22
   11  A    between atoms: C_21  and  C_32
   12  A    between atoms: C_21  and  C_33
   13  A    between atoms: C_23  and  C_40
   14  A    between atoms: C_33  and  C_39
                            x       y       z     vdW  Elec       q    Type
                         _______ _______ _______ _____ _____    ______ ____

>  <TORSDO>
F 14

$$$$
=
 OpenBabel10222418423D

 41 45  0  0  1  0  0  0  0  0999 V2000
  189.1900  177.0880  142.1240 C   0  0  1  0  0  3  0  0  0  0  0  0
  191.6830  177.3680  142.5320 N   0  0  0  0  0  0  0  0  0  0  0  0
  188.4010  177.9880  139.8660 C   0  0  0  0  0  0  0  0  0  0  0  0
  190.2140  177.0710  144.3850 C   0  0  0  0  0  0  0  0  0  0  0  0
  186.4210  178.2540  143.0870 N   0  0  0  0  0  0  0  0  0  0  0  0
  191.5110  177.2090  143.7850 N   0  0  0  0  0  0  0  0  0  0  0  0
  189.6670  177.9300  139.4220 C   0  0  0  0  0  3  0  0  0  0  0  0
  190.7940  177.7390  140.3510 C   0  0  0  0  0  3  0  0  0  0  0  0
  186.9730  178.3230  141.7670 C   0  0  0  0  0  3  0  0  0  0  0  0
  187.8330  176.6380  144.2550 C   0  0  0  0  0  3  0  0  0  0  0  0
  189.0910  177.0600  143.6320 C   0  0  0  0  0  0  0  0  0  0  0  0
  188.1280  177.8180  141.3150 C   0  0  0  0  0  0  0  0  0  0  0  0
  190.5800  177.4240  141.6300 C   0  0  0  0  0  0  0  0  0  0  0  0
  190.1590  176.9160  145.8720 C   0  0  0  0  0  1  0  0  0  0  0  0
  186.6450  177.1640  143.9950 C   0  0  0  0  0  3  0  0  0  0  0  0
  184.7670  179.0770  144.6970 C   0  0  0  0  0  0  0  0  0  0  0  0
  183.7740  179.1150  141.1280 C   0  0  0  0  0  2  0  0  0  0  0  0
  185.2830  179.1530  143.3090 C   0  0  2  0  0  3  0  0  0  0  0  0
  182.8690  178.5100  143.4730 N   0  0  0  0  0  0  0  0  0  0  0  0
  184.1160  177.6720  141.4790 C   0  0  0  0  0  2  0  0  0  0  0  0
  184.0140  178.7160  142.5730 C   0  0  0  0  0  0  0  0  0  0  0  0
  183.4400  178.6800  144.7200 O   0  0  0  0  0  0  0  0  0  0  0  0
  185.4570  179.3780  145.7860 C   0  0  0  0  0  2  0  0  0  0  0  0
  181.9230  179.6130  143.3100 C   0  0  0  0  0  2  0  0  0  0  0  0
  180.5580  179.0840  142.9040 C   0  0  0  0  0  2  0  0  0  0  0  0
  180.1490  179.6460  141.5540 C   0  0  0  0  0  2  0  0  0  0  0  0
  179.5740  178.5370  140.6960 C   0  0  0  0  0  2  0  0  0  0  0  0
  179.8940  176.2030  139.8990 C   0  0  0  0  0  1  0  0  0  0  0  0
  180.5140  177.3480  140.6790 C   0  0  0  0  0  2  0  0  0  0  0  0
  187.3350  178.2210  138.9840 O   0  0  0  0  0  0  0  0  0  0  0  0
  187.4120  178.0140  137.5770 C   0  0  0  0  0  2  0  0  0  0  0  0
  186.0230  177.8060  136.9880 C   0  0  0  0  0  2  0  0  0  0  0  0
  185.1980  177.0180  137.8950 N   0  0  0  0  0  2  0  0  0  0  0  0
  183.8010  176.7910  137.6870 C   0  0  0  0  0  0  0  0  0  0  0  0
  183.1750  176.0320  138.4740 O   0  0  0  0  0  0  0  0  0  0  0  0
  183.0600  177.4620  136.5760 C   0  0  0  0  0  2  0  0  0  0  0  0
  180.6670  177.9210  136.7950 C   0  0  0  0  0  2  0  0  0  0  0  0
  181.9150  178.2630  137.1100 C   0  0  0  0  0  0  0  0  0  0  0  0
  182.1560  179.3890  138.0680 C   0  0  0  0  0  2  0  0  0  0  0  0
  181.3310  181.6730  138.4750 C   0  0  0  0  0  2  0  0  0  0  0  0
  181.1810  180.5050  137.8510 C   0  0  0  0  0  3  0  0  0  0  0  0
  1 12  1  1  0  0  0
  1 11  1  0  0  0  0
  2  6  2  0  0  0  0
  3 12  1  0  0  0  0
  4 14  1  0  0  0  0
  5 15  1  0  0  0  0
  6  4  1  0  0  0  0
  7  3  2  0  0  0  0
  7  8  1  0  0  0  0
  8 13  2  0  0  0  0
  9  5  1  0  0  0  0
 11 10  1  0  0  0  0
 11  4  2  0  0  0  0
 12  9  2  0  0  0  0
 13  1  1  0  0  0  0
 13  2  1  0  0  0  0
 15 10  2  0  0  0  0
 16 22  1  0  0  0  0
 16 23  2  0  0  0  0
 17 20  1  0  0  0  0
 17 21  1  0  0  0  0
 18  5  1  1  0  0  0
 18 16  1  0  0  0  0
 19 22  1  0  0  0  0
 20 21  1  0  0  0  0
 21 18  1  0  0  0  0
 21 19  1  0  0  0  0
 24 19  1  0  0  0  0
 25 24  1  0  0  0  0
 26 25  1  0  0  0  0
 27 26  1  0  0  0  0
 28 29  1  0  0  0  0
 29 27  1  0  0  0  0
 30  3  1  0  0  0  0
 31 30  1  0  0  0  0
 32 31  1  0  0  0  0
 32 33  1  0  0  0  0
 34 33  1  0  0  0  0
 34 35  2  0  0  0  0
 36 38  1  0  0  0  0
 36 34  1  0  0  0  0
 37 38  2  0  0  0  0
 38 39  1  0  0  0  0
 41 39  1  0  0  0  0
 41 40  2  0  0  0  0
M  END
>  <MODEL>
4

>  <REMARK>
 VINA RESULT:      -7.3      2.545      7.325
  Name = 
  14 active torsions:
  status: ('A' for Active; 'I' for Inactive)
    1  A    between atoms: C_6  and  N_15
    2  A    between atoms: C_7  and  O_16
    3  A    between atoms: N_8  and  C_13
    4  A    between atoms: C_10  and  O_16
    5  A    between atoms: C_10  and  C_27
    6  A    between atoms: C_13  and  C_32
    7  A    between atoms: N_14  and  C_27
    8  A    between atoms: C_17  and  C_20
    9  A    between atoms: C_17  and  C_23
   10  A    between atoms: C_20  and  C_22
   11  A    between atoms: C_21  and  C_32
   12  A    between atoms: C_21  and  C_33
   13  A    between atoms: C_23  and  C_40
   14  A    between atoms: C_33  and  C_39
                            x       y       z     vdW  Elec       q    Type
                         _______ _______ _______ _____ _____    ______ ____

>  <TORSDO>
F 14

$$$$
=
 OpenBabel10222418423D

 41 45  0  0  1  0  0  0  0  0999 V2000
  187.4250  178.5060  146.0870 C   0  0  1  0  0  3  0  0  0  0  0  0
  187.0930  177.7780  148.5000 N   0  0  0  0  0  0  0  0  0  0  0  0
  185.2700  178.5650  144.7160 C   0  0  0  0  0  0  0  0  0  0  0  0
  189.2490  177.5960  147.5030 C   0  0  0  0  0  0  0  0  0  0  0  0
  188.6330  177.4490  143.3710 N   0  0  0  0  0  0  0  0  0  0  0  0
  188.3340  177.5090  148.6050 N   0  0  0  0  0  0  0  0  0  0  0  0
  184.5660  178.6100  145.8580 C   0  0  0  0  0  3  0  0  0  0  0  0
  185.1970  178.3130  147.1550 C   0  0  0  0  0  3  0  0  0  0  0  0
  187.2630  177.7750  143.6360 C   0  0  0  0  0  3  0  0  0  0  0  0
  189.8570  178.3540  145.2820 C   0  0  0  0  0  3  0  0  0  0  0  0
  188.8420  178.0160  146.2840 C   0  0  0  0  0  0  0  0  0  0  0  0
  186.7190  178.2510  144.7630 C   0  0  0  0  0  0  0  0  0  0  0  0
  186.5220  178.1860  147.2580 C   0  0  0  0  0  0  0  0  0  0  0  0
  190.6760  177.2250  147.7640 C   0  0  0  0  0  1  0  0  0  0  0  0
  189.7500  178.1120  143.9830 C   0  0  0  0  0  3  0  0  0  0  0  0
  190.2060  176.1180  142.0440 C   0  0  0  0  0  0  0  0  0  0  0  0
  187.5960  177.9620  140.1700 C   0  0  0  0  0  2  0  0  0  0  0  0
  188.8400  176.6860  142.1350 C   0  0  2  0  0  3  0  0  0  0  0  0
  190.1230  177.4170  140.1130 N   0  0  0  0  0  0  0  0  0  0  0  0
  188.3850  178.9950  140.9650 C   0  0  0  0  0  2  0  0  0  0  0  0
  188.8770  177.5640  140.8810 C   0  0  0  0  0  0  0  0  0  0  0  0
  190.8750  176.5910  140.9270 O   0  0  0  0  0  0  0  0  0  0  0  0
  190.7280  175.2450  142.8910 C   0  0  0  0  0  2  0  0  0  0  0  0
  189.8540  176.6490  138.8990 C   0  0  0  0  0  2  0  0  0  0  0  0
  190.2620  177.4430  137.6690 C   0  0  0  0  0  2  0  0  0  0  0  0
  189.0700  177.6570  136.7540 C   0  0  0  0  0  2  0  0  0  0  0  0
  188.1230  176.4780  136.8710 C   0  0  0  0  0  2  0  0  0  0  0  0
  186.4770  177.6520  135.4240 C   0  0  0  0  0  1  0  0  0  0  0  0
  186.6870  176.9470  136.7510 C   0  0  0  0  0  2  0  0  0  0  0  0
  184.6530  178.7980  143.4770 O   0  0  0  0  0  0  0  0  0  0  0  0
  183.2440  178.7700  143.2760 C   0  0  0  0  0  2  0  0  0  0  0  0
  182.9140  178.5770  141.8020 C   0  0  0  0  0  2  0  0  0  0  0  0
  184.0120  179.0500  140.9690 N   0  0  0  0  0  2  0  0  0  0  0  0
  183.8620  179.3830  139.5860 C   0  0  0  0  0  0  0  0  0  0  0  0
  184.8410  179.8610  138.9560 O   0  0  0  0  0  0  0  0  0  0  0  0
  182.5760  179.1410  138.8640 C   0  0  0  0  0  2  0  0  0  0  0  0
  182.2390  178.0400  136.7050 C   0  0  0  0  0  2  0  0  0  0  0  0
  182.6900  177.9590  137.9550 C   0  0  0  0  0  0  0  0  0  0  0  0
  183.3920  176.7160  138.4100 C   0  0  0  0  0  2  0  0  0  0  0  0
  181.3050  175.5700  139.0390 C   0  0  0  0  0  2  0  0  0  0  0  0
  182.5450  175.9330  139.3660 C   0  0  0  0  0  3  0  0  0  0  0  0
  1 12  1  6  0  0  0
  1 11  1  0  0  0  0
  1 13  1  0  0  0  0
  2  6  2  0  0  0  0
  3 12  1  0  0  0  0
  3  7  2  0  0  0  0
  4 14  1  0  0  0  0
  4  6  1  0  0  0  0
  5  9  1  0  0  0  0
  5 15  1  0  0  0  0
  7  8  1  0  0  0  0
  8 13  2  0  0  0  0
  9 12  2  0  0  0  0
 10 11  1  0  0  0  0
 11  4  2  0  0  0  0
 13  2  1  0  0  0  0
 15 10  2  0  0  0  0
 16 18  1  0  0  0  0
 16 23  2  0  0  0  0
 17 21  1  0  0  0  0
 17 20  1  0  0  0  0
 18  5  1  1  0  0  0
 19 21  1  0  0  0  0
 19 22  1  0  0  0  0
 21 20  1  0  0  0  0
 21 18  1  0  0  0  0
 22 16  1  0  0  0  0
 24 19  1  0  0  0  0
 25 24  1  0  0  0  0
 26 27  1  0  0  0  0
 26 25  1  0  0  0  0
 28 29  1  0  0  0  0
 29 27  1  0  0  0  0
 30  3  1  0  0  0  0
 31 30  1  0  0  0  0
 32 31  1  0  0  0  0
 33 32  1  0  0  0  0
 34 33  1  0  0  0  0
 35 34  2  0  0  0  0
 36 34  1  0  0  0  0
 37 38  2  0  0  0  0
 38 39  1  0  0  0  0
 38 36  1  0  0  0  0
 39 41  1  0  0  0  0
 40 41  2  0  0  0  0
M  END
>  <MODEL>
5

>  <REMARK>
 VINA RESULT:      -7.3      2.337      7.887
  Name = 
  14 active torsions:
  status: ('A' for Active; 'I' for Inactive)
    1  A    between atoms: C_6  and  N_15
    2  A    between atoms: C_7  and  O_16
    3  A    between atoms: N_8  and  C_13
    4  A    between atoms: C_10  and  O_16
    5  A    between atoms: C_10  and  C_27
    6  A    between atoms: C_13  and  C_32
    7  A    between atoms: N_14  and  C_27
    8  A    between atoms: C_17  and  C_20
    9  A    between atoms: C_17  and  C_23
   10  A    between atoms: C_20  and  C_22
   11  A    between atoms: C_21  and  C_32
   12  A    between atoms: C_21  and  C_33
   13  A    between atoms: C_23  and  C_40
   14  A    between atoms: C_33  and  C_39
                            x       y       z     vdW  Elec       q    Type
                         _______ _______ _______ _____ _____    ______ ____

>  <TORSDO>
F 14

$$$$
=
 OpenBabel10222418423D

 41 45  0  0  1  0  0  0  0  0999 V2000
  184.7250  175.1520  136.3780 C   0  0  1  0  0  3  0  0  0  0  0  0
  185.1810  172.6520  136.4620 N   0  0  0  0  0  0  0  0  0  0  0  0
  186.6260  176.5840  137.3080 C   0  0  0  0  0  0  0  0  0  0  0  0
  182.9360  173.4330  136.3100 C   0  0  0  0  0  0  0  0  0  0  0  0
  182.9430  177.3470  137.7760 N   0  0  0  0  0  0  0  0  0  0  0  0
  183.9380  172.4060  136.3350 N   0  0  0  0  0  0  0  0  0  0  0  0
  187.4630  175.5480  137.1420 C   0  0  0  0  0  3  0  0  0  0  0  0
  186.9550  174.1910  136.8750 C   0  0  0  0  0  3  0  0  0  0  0  0
  184.3730  177.2660  137.7830 C   0  0  0  0  0  3  0  0  0  0  0  0
  182.2480  175.7450  136.0680 C   0  0  0  0  0  3  0  0  0  0  0  0
  183.2700  174.7410  136.3790 C   0  0  0  0  0  0  0  0  0  0  0  0
  185.1630  176.3680  137.1810 C   0  0  0  0  0  0  0  0  0  0  0  0
  185.6660  173.9870  136.5950 C   0  0  0  0  0  0  0  0  0  0  0  0
  181.5100  172.9970  136.1800 C   0  0  0  0  0  1  0  0  0  0  0  0
  182.1180  176.9110  136.6840 C   0  0  0  0  0  3  0  0  0  0  0  0
  183.4270  179.1600  139.3530 C   0  0  0  0  0  0  0  0  0  0  0  0
  180.5380  176.9850  140.1570 C   0  0  0  0  0  2  0  0  0  0  0  0
  182.3900  178.2780  138.7660 C   0  0  2  0  0  3  0  0  0  0  0  0
  182.5860  178.1160  141.2570 N   0  0  0  0  0  0  0  0  0  0  0  0
  181.7610  176.0820  140.0650 C   0  0  0  0  0  2  0  0  0  0  0  0
  181.9270  177.5880  140.0520 C   0  0  0  0  0  0  0  0  0  0  0  0
  183.5120  178.9940  140.7250 O   0  0  0  0  0  0  0  0  0  0  0  0
  184.1660  180.0250  138.6760 C   0  0  0  0  0  2  0  0  0  0  0  0
  181.6380  178.9360  142.0070 C   0  0  0  0  0  2  0  0  0  0  0  0
  181.8130  178.7170  143.5000 C   0  0  0  0  0  2  0  0  0  0  0  0
  183.0560  179.4310  144.0000 C   0  0  0  0  0  2  0  0  0  0  0  0
  183.8440  178.5040  144.9050 C   0  0  0  0  0  2  0  0  0  0  0  0
  185.5530  178.8190  146.6840 C   0  0  0  0  0  1  0  0  0  0  0  0
  185.1870  179.1220  145.2430 C   0  0  0  0  0  2  0  0  0  0  0  0
  187.1110  177.8650  137.6140 O   0  0  0  0  0  0  0  0  0  0  0  0
  188.4920  178.1670  137.7890 C   0  0  0  0  0  2  0  0  0  0  0  0
  188.8060  178.4160  139.2580 C   0  0  0  0  0  2  0  0  0  0  0  0
  187.5760  178.4700  140.0380 N   0  0  0  0  0  2  0  0  0  0  0  0
  187.5540  178.4800  141.4690 C   0  0  0  0  0  0  0  0  0  0  0  0
  186.4550  178.6080  142.0690 O   0  0  0  0  0  0  0  0  0  0  0  0
  188.8060  178.3070  142.2670 C   0  0  0  0  0  2  0  0  0  0  0  0
  189.1140  175.9380  142.7960 C   0  0  0  0  0  2  0  0  0  0  0  0
  188.6890  177.1370  143.1910 C   0  0  0  0  0  0  0  0  0  0  0  0
  188.1850  177.3200  144.5900 C   0  0  0  0  0  2  0  0  0  0  0  0
  189.0840  177.1900  146.8780 C   0  0  0  0  0  2  0  0  0  0  0  0
  189.3130  177.3450  145.5750 C   0  0  0  0  0  3  0  0  0  0  0  0
  1 11  1  1  0  0  0
  1 13  1  0  0  0  0
  1 12  1  0  0  0  0
  2 13  1  0  0  0  0
  3 30  1  0  0  0  0
  4  6  1  0  0  0  0
  4 11  2  0  0  0  0
  5  9  1  0  0  0  0
  6  2  2  0  0  0  0
  7  3  2  0  0  0  0
  8  7  1  0  0  0  0
 10 11  1  0  0  0  0
 10 15  2  0  0  0  0
 12  3  1  0  0  0  0
 12  9  2  0  0  0  0
 13  8  2  0  0  0  0
 14  4  1  0  0  0  0
 15  5  1  0  0  0  0
 16 22  1  0  0  0  0
 18  5  1  6  0  0  0
 18 16  1  0  0  0  0
 18 21  1  0  0  0  0
 19 24  1  0  0  0  0
 20 17  1  0  0  0  0
 21 20  1  0  0  0  0
 21 17  1  0  0  0  0
 21 19  1  0  0  0  0
 22 19  1  0  0  0  0
 23 16  2  0  0  0  0
 24 25  1  0  0  0  0
 25 26  1  0  0  0  0
 26 27  1  0  0  0  0
 27 29  1  0  0  0  0
 29 28  1  0  0  0  0
 30 31  1  0  0  0  0
 31 32  1  0  0  0  0
 32 33  1  0  0  0  0
 33 34  1  0  0  0  0
 34 35  2  0  0  0  0
 34 36  1  0  0  0  0
 36 38  1  0  0  0  0
 37 38  2  0  0  0  0
 38 39  1  0  0  0  0
 39 41  1  0  0  0  0
 41 40  2  0  0  0  0
M  END
>  <MODEL>
6

>  <REMARK>
 VINA RESULT:      -7.0      2.187      6.142
  Name = 
  14 active torsions:
  status: ('A' for Active; 'I' for Inactive)
    1  A    between atoms: C_6  and  N_15
    2  A    between atoms: C_7  and  O_16
    3  A    between atoms: N_8  and  C_13
    4  A    between atoms: C_10  and  O_16
    5  A    between atoms: C_10  and  C_27
    6  A    between atoms: C_13  and  C_32
    7  A    between atoms: N_14  and  C_27
    8  A    between atoms: C_17  and  C_20
    9  A    between atoms: C_17  and  C_23
   10  A    between atoms: C_20  and  C_22
   11  A    between atoms: C_21  and  C_32
   12  A    between atoms: C_21  and  C_33
   13  A    between atoms: C_23  and  C_40
   14  A    between atoms: C_33  and  C_39
                            x       y       z     vdW  Elec       q    Type
                         _______ _______ _______ _____ _____    ______ ____

>  <TORSDO>
F 14

$$$$
=
 OpenBabel10222418423D

 41 45  0  0  1  0  0  0  0  0999 V2000
  189.2700  177.1270  142.4420 C   0  0  1  0  0  3  0  0  0  0  0  0
  191.7370  177.4950  142.9320 N   0  0  0  0  0  0  0  0  0  0  0  0
  188.5450  177.9160  140.1220 C   0  0  0  0  0  0  0  0  0  0  0  0
  190.2060  177.2270  144.7380 C   0  0  0  0  0  0  0  0  0  0  0  0
  186.4350  178.2470  143.2530 N   0  0  0  0  0  0  0  0  0  0  0  0
  191.5210  177.3800  144.1830 N   0  0  0  0  0  0  0  0  0  0  0  0
  189.8280  177.8780  139.7290 C   0  0  0  0  0  3  0  0  0  0  0  0
  190.9230  177.7570  140.7060 C   0  0  0  0  0  3  0  0  0  0  0  0
  187.0350  178.2820  141.9530 C   0  0  0  0  0  3  0  0  0  0  0  0
  187.8450  176.7190  144.5360 C   0  0  0  0  0  3  0  0  0  0  0  0
  189.1140  177.1540  143.9450 C   0  0  0  0  0  0  0  0  0  0  0  0
  188.2210  177.7940  141.5650 C   0  0  0  0  0  0  0  0  0  0  0  0
  190.6690  177.4850  141.9880 C   0  0  0  0  0  0  0  0  0  0  0  0
  190.0980  177.1270  146.2280 C   0  0  0  0  0  1  0  0  0  0  0  0
  186.6530  177.1990  144.2110 C   0  0  0  0  0  3  0  0  0  0  0  0
  184.6800  179.0600  144.7580 C   0  0  0  0  0  0  0  0  0  0  0  0
  183.8700  178.9940  141.1440 C   0  0  0  0  0  2  0  0  0  0  0  0
  185.2640  179.1200  143.3970 C   0  0  2  0  0  3  0  0  0  0  0  0
  182.8620  178.4160  143.4530 N   0  0  0  0  0  0  0  0  0  0  0  0
  184.2310  177.5690  141.5440 C   0  0  0  0  0  2  0  0  0  0  0  0
  184.0460  178.6330  142.6070 C   0  0  0  0  0  0  0  0  0  0  0  0
  183.3640  178.6280  144.7230 O   0  0  0  0  0  0  0  0  0  0  0  0
  185.3060  179.4030  145.8740 C   0  0  0  0  0  2  0  0  0  0  0  0
  181.8980  179.4890  143.2170 C   0  0  0  0  0  2  0  0  0  0  0  0
  180.4840  178.9330  143.1850 C   0  0  0  0  0  2  0  0  0  0  0  0
  180.3130  177.9850  142.0120 C   0  0  0  0  0  2  0  0  0  0  0  0
  179.4290  178.6310  140.9630 C   0  0  0  0  0  2  0  0  0  0  0  0
  180.4300  180.5850  139.7940 C   0  0  0  0  0  1  0  0  0  0  0  0
  180.2640  179.0760  139.7780 C   0  0  0  0  0  2  0  0  0  0  0  0
  187.5080  178.0830  139.1920 O   0  0  0  0  0  0  0  0  0  0  0  0
  187.7180  178.2530  137.7940 C   0  0  0  0  0  2  0  0  0  0  0  0
  186.3980  178.1770  137.0390 C   0  0  0  0  0  2  0  0  0  0  0  0
  185.9580  176.7920  136.9220 N   0  0  0  0  0  2  0  0  0  0  0  0
  184.6370  176.3570  137.2590 C   0  0  0  0  0  0  0  0  0  0  0  0
  184.3110  175.1590  137.0540 O   0  0  0  0  0  0  0  0  0  0  0  0
  183.6470  177.2880  137.8800 C   0  0  0  0  0  2  0  0  0  0  0  0
  181.4310  176.7230  137.0100 C   0  0  0  0  0  2  0  0  0  0  0  0
  182.3090  176.6330  138.0080 C   0  0  0  0  0  0  0  0  0  0  0  0
  181.9830  175.7970  139.2080 C   0  0  0  0  0  2  0  0  0  0  0  0
  179.9930  174.7560  140.2190 C   0  0  0  0  0  2  0  0  0  0  0  0
  180.5810  175.2740  139.1410 C   0  0  0  0  0  3  0  0  0  0  0  0
  1 12  1  6  0  0  0
  1 11  1  0  0  0  0
  2  6  2  0  0  0  0
  3 12  1  0  0  0  0
  4 14  1  0  0  0  0
  5 15  1  0  0  0  0
  6  4  1  0  0  0  0
  7  3  2  0  0  0  0
  7  8  1  0  0  0  0
  8 13  2  0  0  0  0
  9  5  1  0  0  0  0
 11 10  1  0  0  0  0
 11  4  2  0  0  0  0
 12  9  2  0  0  0  0
 13  1  1  0  0  0  0
 13  2  1  0  0  0  0
 15 10  2  0  0  0  0
 16 23  2  0  0  0  0
 17 20  1  0  0  0  0
 17 21  1  0  0  0  0
 18  5  1  1  0  0  0
 18 16  1  0  0  0  0
 19 22  1  0  0  0  0
 20 21  1  0  0  0  0
 21 18  1  0  0  0  0
 21 19  1  0  0  0  0
 22 16  1  0  0  0  0
 24 19  1  0  0  0  0
 25 24  1  0  0  0  0
 26 25  1  0  0  0  0
 27 26  1  0  0  0  0
 29 28  1  0  0  0  0
 29 27  1  0  0  0  0
 30  3  1  0  0  0  0
 31 30  1  0  0  0  0
 32 31  1  0  0  0  0
 33 32  1  0  0  0  0
 33 34  1  0  0  0  0
 34 36  1  0  0  0  0
 35 34  2  0  0  0  0
 36 38  1  0  0  0  0
 37 38  2  0  0  0  0
 38 39  1  0  0  0  0
 41 39  1  0  0  0  0
 41 40  2  0  0  0  0
M  END
>  <MODEL>
7

>  <REMARK>
 VINA RESULT:      -6.9      2.525      7.398
  Name = 
  14 active torsions:
  status: ('A' for Active; 'I' for Inactive)
    1  A    between atoms: C_6  and  N_15
    2  A    between atoms: C_7  and  O_16
    3  A    between atoms: N_8  and  C_13
    4  A    between atoms: C_10  and  O_16
    5  A    between atoms: C_10  and  C_27
    6  A    between atoms: C_13  and  C_32
    7  A    between atoms: N_14  and  C_27
    8  A    between atoms: C_17  and  C_20
    9  A    between atoms: C_17  and  C_23
   10  A    between atoms: C_20  and  C_22
   11  A    between atoms: C_21  and  C_32
   12  A    between atoms: C_21  and  C_33
   13  A    between atoms: C_23  and  C_40
   14  A    between atoms: C_33  and  C_39
                            x       y       z     vdW  Elec       q    Type
                         _______ _______ _______ _____ _____    ______ ____

>  <TORSDO>
F 14

$$$$
=
 OpenBabel10222418423D

 41 45  0  0  1  0  0  0  0  0999 V2000
  188.4290  176.8970  137.2430 C   0  0  0  0  0  0  0  0  0  0  0  0
  188.6810  177.4730  134.7790 N   0  0  0  0  0  2  0  0  0  0  0  0
  186.6270  178.2530  138.4450 C   0  0  0  0  0  0  0  0  0  0  0  0
  190.4790  176.4160  135.9300 C   0  0  0  0  0  0  0  0  0  0  0  0
  189.9390  177.2500  139.9900 N   0  0  0  0  0  0  0  0  0  0  0  0
  189.8370  176.9380  134.7580 N   0  0  0  0  0  0  0  0  0  0  0  0
  186.0760  178.5410  137.2550 C   0  0  0  0  0  3  0  0  0  0  0  0
  186.8010  178.2910  135.9970 C   0  0  0  0  0  3  0  0  0  0  0  0
  188.6580  177.7840  139.6360 C   0  0  0  0  0  3  0  0  0  0  0  0
  190.4360  175.6350  138.2250 C   0  0  0  0  0  3  0  0  0  0  0  0
  189.8610  176.4260  137.1320 C   0  0  0  0  0  0  0  0  0  0  0  0
  187.9750  177.6340  138.4940 C   0  0  0  0  0  0  0  0  0  0  0  0
  187.9390  177.5930  135.9910 C   0  0  0  0  0  0  0  0  0  0  0  0
  191.8500  175.8370  135.7620 C   0  0  0  0  0  1  0  0  0  0  0  0
  190.4520  176.0020  139.4980 C   0  0  0  0  0  3  0  0  0  0  0  0
  191.9240  177.4120  141.4170 C   0  0  0  0  0  0  0  0  0  0  0  0
  188.6440  177.8800  143.0750 C   0  0  0  0  0  2  0  0  0  0  0  0
  190.5220  177.8390  141.2010 C   0  0  2  0  0  3  0  0  0  0  0  0
  190.9190  176.6920  143.3910 N   0  0  0  0  0  0  0  0  0  0  0  0
  188.6230  176.5000  142.4280 C   0  0  0  0  0  2  0  0  0  0  0  0
  189.9150  177.2870  142.4940 C   0  0  0  0  0  0  0  0  0  0  0  0
  192.0690  176.7510  142.6260 O   0  0  0  0  0  0  0  0  0  0  0  0
  192.9320  177.6500  140.5910 C   0  0  0  0  0  2  0  0  0  0  0  0
  191.1430  177.5860  144.5250 C   0  0  0  0  0  2  0  0  0  0  0  0
  191.3390  176.7840  145.8000 C   0  0  0  0  0  2  0  0  0  0  0  0
  190.3680  177.2450  146.8730 C   0  0  0  0  0  2  0  0  0  0  0  0
  188.9460  177.0900  146.3700 C   0  0  0  0  0  2  0  0  0  0  0  0
  188.6720  178.2600  148.5470 C   0  0  0  0  0  1  0  0  0  0  0  0
  187.9630  177.4790  147.4560 C   0  0  0  0  0  2  0  0  0  0  0  0
  185.9530  178.5400  139.6420 O   0  0  0  0  0  0  0  0  0  0  0  0
  184.7420  179.2850  139.7100 C   0  0  0  0  0  2  0  0  0  0  0  0
  183.5430  178.3540  139.8300 C   0  0  0  0  0  2  0  0  0  0  0  0
  182.3010  179.1060  139.7050 N   0  0  0  0  0  2  0  0  0  0  0  0
  181.2240  179.0040  140.6420 C   0  0  0  0  0  0  0  0  0  0  0  0
  180.2170  179.7470  140.5080 O   0  0  0  0  0  0  0  0  0  0  0  0
  181.2570  178.0110  141.7580 C   0  0  0  0  0  2  0  0  0  0  0  0
  180.4230  178.5890  143.9850 C   0  0  0  0  0  2  0  0  0  0  0  0
  181.3930  178.6990  143.0790 C   0  0  0  0  0  0  0  0  0  0  0  0
  182.6510  179.4350  143.4260 C   0  0  0  0  0  2  0  0  0  0  0  0
  184.2600  178.9980  145.2390 C   0  0  0  0  0  2  0  0  0  0  0  0
  183.6110  178.5520  144.1640 C   0  0  0  0  0  3  0  0  0  0  0  0
  1 12  1  0  0  0  0
  2 13  1  0  0  0  0
  3 12  1  0  0  0  0
  3 30  1  0  0  0  0
  4 11  1  0  0  0  0
  6  2  1  0  0  0  0
  6  4  2  0  0  0  0
  7  3  2  0  0  0  0
  8  7  1  0  0  0  0
  9  5  1  0  0  0  0
 10 15  2  0  0  0  0
 11  1  2  0  0  0  0
 11 10  1  0  0  0  0
 12  9  2  0  0  0  0
 13  8  2  0  0  0  0
 13  1  1  0  0  0  0
 14  4  1  0  0  0  0
 15  5  1  0  0  0  0
 16 22  1  0  0  0  0
 18  5  1  6  0  0  0
 18 16  1  0  0  0  0
 18 21  1  0  0  0  0
 19 24  1  0  0  0  0
 20 21  1  0  0  0  0
 20 17  1  0  0  0  0
 21 17  1  0  0  0  0
 21 19  1  0  0  0  0
 22 19  1  0  0  0  0
 23 16  2  0  0  0  0
 24 25  1  0  0  0  0
 25 26  1  0  0  0  0
 27 26  1  0  0  0  0
 27 29  1  0  0  0  0
 29 28  1  0  0  0  0
 30 31  1  0  0  0  0
 31 32  1  0  0  0  0
 33 32  1  0  0  0  0
 33 34  1  0  0  0  0
 34 36  1  0  0  0  0
 35 34  2  0  0  0  0
 36 38  1  0  0  0  0
 38 39  1  0  0  0  0
 38 37  2  0  0  0  0
 39 41  1  0  0  0  0
 41 40  2  0  0  0  0
M  END
>  <MODEL>
8

>  <REMARK>
 VINA RESULT:      -6.8      3.229      7.509
  Name = 
  14 active torsions:
  status: ('A' for Active; 'I' for Inactive)
    1  A    between atoms: C_6  and  N_15
    2  A    between atoms: C_7  and  O_16
    3  A    between atoms: N_8  and  C_13
    4  A    between atoms: C_10  and  O_16
    5  A    between atoms: C_10  and  C_27
    6  A    between atoms: C_13  and  C_32
    7  A    between atoms: N_14  and  C_27
    8  A    between atoms: C_17  and  C_20
    9  A    between atoms: C_17  and  C_23
   10  A    between atoms: C_20  and  C_22
   11  A    between atoms: C_21  and  C_32
   12  A    between atoms: C_21  and  C_33
   13  A    between atoms: C_23  and  C_40
   14  A    between atoms: C_33  and  C_39
                            x       y       z     vdW  Elec       q    Type
                         _______ _______ _______ _____ _____    ______ ____

>  <TORSDO>
F 14

$$$$
=
 OpenBabel10222418423D

 41 45  0  0  1  0  0  0  0  0999 V2000
  188.7540  178.1650  139.5870 C   0  0  1  0  0  3  0  0  0  0  0  0
  190.6530  176.8390  140.6340 N   0  0  0  0  0  0  0  0  0  0  0  0
  186.8290  178.6640  141.1920 C   0  0  0  0  0  0  0  0  0  0  0  0
  190.3900  176.8460  138.2660 C   0  0  0  0  0  0  0  0  0  0  0  0
  186.3930  177.8160  137.5230 N   0  0  0  0  0  0  0  0  0  0  0  0
  191.0770  176.5060  139.4800 N   0  0  0  0  0  0  0  0  0  0  0  0
  187.6550  178.4310  142.2240 C   0  0  0  0  0  3  0  0  0  0  0  0
  188.9610  177.7800  142.0260 C   0  0  0  0  0  3  0  0  0  0  0  0
  186.2800  178.1120  138.9200 C   0  0  0  0  0  3  0  0  0  0  0  0
  188.7620  178.1390  137.0210 C   0  0  0  0  0  3  0  0  0  0  0  0
  189.2600  177.5870  138.2850 C   0  0  0  0  0  0  0  0  0  0  0  0
  187.2560  178.2940  139.8190 C   0  0  0  0  0  0  0  0  0  0  0  0
  189.4460  177.5810  140.7990 C   0  0  0  0  0  0  0  0  0  0  0  0
  190.9900  176.3660  136.9810 C   0  0  0  0  0  1  0  0  0  0  0  0
  187.4830  178.2530  136.6950 C   0  0  0  0  0  3  0  0  0  0  0  0
  183.9740  177.5400  137.8060 C   0  0  0  0  0  0  0  0  0  0  0  0
  185.6370  175.2650  135.4010 C   0  0  0  0  0  2  0  0  0  0  0  0
  185.1350  177.3990  136.8940 C   0  0  2  0  0  3  0  0  0  0  0  0
  183.8840  175.2690  137.3010 N   0  0  0  0  0  0  0  0  0  0  0  0
  186.3100  175.0530  136.7510 C   0  0  0  0  0  2  0  0  0  0  0  0
  185.0500  175.8890  136.6540 C   0  0  0  0  0  0  0  0  0  0  0  0
  183.3510  176.3220  138.0200 O   0  0  0  0  0  0  0  0  0  0  0  0
  183.5510  178.6790  138.3320 C   0  0  0  0  0  2  0  0  0  0  0  0
  182.8900  174.9310  136.2840 C   0  0  0  0  0  2  0  0  0  0  0  0
  181.9740  173.8270  136.7860 C   0  0  0  0  0  2  0  0  0  0  0  0
  180.7320  174.4180  137.4290 C   0  0  0  0  0  2  0  0  0  0  0  0
  180.0080  173.3430  138.2160 C   0  0  0  0  0  2  0  0  0  0  0  0
  179.6510  171.3300  136.7990 C   0  0  0  0  0  1  0  0  0  0  0  0
  180.5430  171.9740  137.8440 C   0  0  0  0  0  2  0  0  0  0  0  0
  185.5640  179.2380  141.3920 O   0  0  0  0  0  0  0  0  0  0  0  0
  184.6470  178.8030  142.3900 C   0  0  0  0  0  2  0  0  0  0  0  0
  184.6870  179.7300  143.5970 C   0  0  0  0  0  2  0  0  0  0  0  0
  184.0820  179.0830  144.7550 N   0  0  0  0  0  2  0  0  0  0  0  0
  184.8060  178.7780  145.9510 C   0  0  0  0  0  0  0  0  0  0  0  0
  184.1930  178.2900  146.9370 O   0  0  0  0  0  0  0  0  0  0  0  0
  186.2820  178.9930  146.0420 C   0  0  0  0  0  2  0  0  0  0  0  0
  186.8120  176.7760  145.1520 C   0  0  0  0  0  2  0  0  0  0  0  0
  187.0070  177.6860  146.1050 C   0  0  0  0  0  0  0  0  0  0  0  0
  188.0190  177.4280  147.1790 C   0  0  0  0  0  2  0  0  0  0  0  0
  189.7870  177.9300  145.5410 C   0  0  0  0  0  2  0  0  0  0  0  0
  189.3860  177.2310  146.6010 C   0  0  0  0  0  3  0  0  0  0  0  0
  1 11  1  6  0  0  0
  1 12  1  0  0  0  0
  1 13  1  0  0  0  0
  2 13  1  0  0  0  0
  3 30  1  0  0  0  0
  3  7  2  0  0  0  0
  4 11  2  0  0  0  0
  4  6  1  0  0  0  0
  5  9  1  0  0  0  0
  6  2  2  0  0  0  0
  8  7  1  0  0  0  0
  9 12  2  0  0  0  0
 10 11  1  0  0  0  0
 12  3  1  0  0  0  0
 13  8  2  0  0  0  0
 14  4  1  0  0  0  0
 15 10  2  0  0  0  0
 15  5  1  0  0  0  0
 16 22  1  0  0  0  0
 16 23  2  0  0  0  0
 17 21  1  0  0  0  0
 17 20  1  0  0  0  0
 18  5  1  1  0  0  0
 18 16  1  0  0  0  0
 19 22  1  0  0  0  0
 21 20  1  0  0  0  0
 21 18  1  0  0  0  0
 21 19  1  0  0  0  0
 24 25  1  0  0  0  0
 24 19  1  0  0  0  0
 25 26  1  0  0  0  0
 26 27  1  0  0  0  0
 28 29  1  0  0  0  0
 29 27  1  0  0  0  0
 30 31  1  0  0  0  0
 31 32  1  0  0  0  0
 32 33  1  0  0  0  0
 33 34  1  0  0  0  0
 34 36  1  0  0  0  0
 34 35  2  0  0  0  0
 36 38  1  0  0  0  0
 37 38  2  0  0  0  0
 38 39  1  0  0  0  0
 40 41  2  0  0  0  0
 41 39  1  0  0  0  0
M  END
>  <MODEL>
9

>  <REMARK>
 VINA RESULT:      -6.8      1.148      1.563
  Name = 
  14 active torsions:
  status: ('A' for Active; 'I' for Inactive)
    1  A    between atoms: C_6  and  N_15
    2  A    between atoms: C_7  and  O_16
    3  A    between atoms: N_8  and  C_13
    4  A    between atoms: C_10  and  O_16
    5  A    between atoms: C_10  and  C_27
    6  A    between atoms: C_13  and  C_32
    7  A    between atoms: N_14  and  C_27
    8  A    between atoms: C_17  and  C_20
    9  A    between atoms: C_17  and  C_23
   10  A    between atoms: C_20  and  C_22
   11  A    between atoms: C_21  and  C_32
   12  A    between atoms: C_21  and  C_33
   13  A    between atoms: C_23  and  C_40
   14  A    between atoms: C_33  and  C_39
                            x       y       z     vdW  Elec       q    Type
                         _______ _______ _______ _____ _____    ______ ____

>  <TORSDO>
F 14

$$$$
