=
 OpenBabel10222416293D

 32 34  0  0  1  0  0  0  0  0999 V2000
  188.0950  178.2570  141.2730 C   0  0  0  0  0  0  0  0  0  0  0  0
  189.9940  177.7450  142.6720 N   0  0  0  0  0  0  0  0  0  0  0  0
  188.1000  179.1300  136.8670 O   0  0  0  0  0  0  0  0  0  0  0  0
  188.7640  178.8690  139.0910 N   0  0  0  0  0  0  0  0  0  0  0  0
  187.7770  178.7190  139.9090 C   0  0  0  0  0  0  0  0  0  0  0  0
  189.4020  177.5960  141.5220 C   0  0  0  0  0  0  0  0  0  0  0  0
  191.3070  175.2550  137.9850 S   0  0  0  0  0  0  0  0  0  0  0  0
  190.8680  177.0160  138.1540 C   0  0  1  0  0  3  0  0  0  0  0  0
  186.4080  178.7580  139.4870 N   0  0  0  0  0  0  0  0  0  0  0  0
  185.3820  178.7060  140.4900 C   0  0  0  0  0  3  0  0  0  0  0  0
  188.7130  176.0270  137.4970 C   0  0  0  0  0  2  0  0  0  0  0  0
  188.7790  178.5050  137.7250 C   0  0  0  0  0  0  0  0  0  0  0  0
  189.5620  177.2730  137.3590 C   0  0  1  0  0  3  0  0  0  0  0  0
  190.8960  177.4540  139.5690 N   0  0  0  0  0  2  0  0  0  0  0  0
  187.0960  178.1410  142.1570 C   0  0  0  0  0  3  0  0  0  0  0  0
  185.6970  178.4430  141.7690 C   0  0  0  0  0  2  0  0  0  0  0  0
  189.6340  174.8200  137.3870 C   0  0  1  0  0  3  0  0  0  0  0  0
  189.9860  176.6990  140.4380 C   0  0  0  0  0  2  0  0  0  0  0  0
  189.6950  174.3370  135.9750 C   0  0  0  0  0  0  0  0  0  0  0  0
  188.8160  174.8350  135.0180 O   0  0  0  0  0  0  0  0  0  0  0  0
  190.5450  173.4650  135.6510 O   0  0  0  0  0  1  0  0  0  0  0  0
  191.2630  177.1090  143.0190 C   0  0  0  0  0  2  0  0  0  0  0  0
  191.1830  176.4340  144.3790 C   0  0  0  0  0  2  0  0  0  0  0  0
  190.5920  177.3750  145.4190 C   0  0  0  0  0  2  0  0  0  0  0  0
  188.3040  177.6860  146.4660 C   0  0  0  0  0  0  0  0  0  0  0  0
  188.8170  178.0360  147.5630 O   0  0  0  0  0  0  0  0  0  0  0  0
  189.1360  177.3600  145.3470 N   0  0  0  0  0  2  0  0  0  0  0  0
  186.8180  177.5400  146.3700 C   0  0  0  0  0  2  0  0  0  0  0  0
  186.1320  178.8720  146.1010 C   0  0  2  0  0  3  0  0  0  0  0  0
  185.7310  179.4480  147.3070 O   0  0  0  0  0  1  0  0  0  0  0  0
  183.7590  179.0280  145.8850 O   0  0  0  0  0  1  0  0  0  0  0  0
  184.9200  178.6120  145.2310 C   0  0  0  0  0  2  0  0  0  0  0  0
  1  6  1  0  0  0  0
  1 15  2  0  0  0  0
  2 22  1  0  0  0  0
  3 12  2  0  0  0  0
  4  5  2  0  0  0  0
  5  1  1  0  0  0  0
  6  2  2  0  0  0  0
  8  7  1  1  0  0  0
  8 14  1  0  0  0  0
  9  5  1  0  0  0  0
  9 10  2  0  0  0  0
 10 16  1  0  0  0  0
 12  4  1  0  0  0  0
 13 11  1  1  0  0  0
 13 12  1  0  0  0  0
 13  8  1  0  0  0  0
 14 18  1  0  0  0  0
 16 15  1  0  0  0  0
 17 19  1  6  0  0  0
 17 11  1  0  0  0  0
 17  7  1  0  0  0  0
 18  6  1  0  0  0  0
 20 19  2  0  0  0  0
 21 19  1  0  0  0  0
 22 23  1  0  0  0  0
 23 24  1  0  0  0  0
 25 26  2  0  0  0  0
 27 24  1  0  0  0  0
 27 25  1  0  0  0  0
 28 25  1  0  0  0  0
 29 28  1  0  0  0  0
 29 30  1  1  0  0  0
 32 31  1  0  0  0  0
 32 29  1  0  0  0  0
M  END
>  <MODEL>
1

>  <REMARK>
 VINA RESULT:      -8.0      0.000      0.000
  Name = 
  8 active torsions:
  status: ('A' for Active; 'I' for Inactive)
    1  A    between atoms: N_2  and  C_10
    2  A    between atoms: C_3  and  C_32
    3  A    between atoms: C_5  and  C_10
    4  A    between atoms: C_5  and  C_17
    5  A    between atoms: C_9  and  C_30
    6  A    between atoms: C_16  and  C_28
    7  A    between atoms: C_16  and  C_32
    8  A    between atoms: C_17  and  N_22
                            x       y       z     vdW  Elec       q    Type
                         _______ _______ _______ _____ _____    ______ ____

>  <TORSDO>
F 8

$$$$
=
 OpenBabel10222416293D

 32 34  0  0  1  0  0  0  0  0999 V2000
  186.5260  178.5900  141.4280 C   0  0  0  0  0  0  0  0  0  0  0  0
  188.7310  178.4390  140.4590 N   0  0  0  0  0  0  0  0  0  0  0  0
  182.7020  179.7230  139.3620 O   0  0  0  0  0  0  0  0  0  0  0  0
  184.9630  179.4780  139.8950 N   0  0  0  0  0  0  0  0  0  0  0  0
  185.1660  179.0530  141.0960 C   0  0  0  0  0  0  0  0  0  0  0  0
  187.4540  178.2320  140.3230 C   0  0  0  0  0  0  0  0  0  0  0  0
  185.5570  176.6250  136.3940 S   0  0  0  0  0  0  0  0  0  0  0  0
  185.3630  178.2240  137.2480 C   0  0  1  0  0  3  0  0  0  0  0  0
  184.0990  178.8030  142.0200 N   0  0  0  0  0  0  0  0  0  0  0  0
  184.4340  178.4520  143.3720 C   0  0  0  0  0  3  0  0  0  0  0  0
  183.7570  176.8090  138.4650 C   0  0  0  0  0  2  0  0  0  0  0  0
  183.8260  179.2170  139.0960 C   0  0  0  0  0  0  0  0  0  0  0  0
  183.9950  178.2240  137.9790 C   0  0  1  0  0  3  0  0  0  0  0  0
  186.5590  178.5640  138.0520 N   0  0  0  0  0  2  0  0  0  0  0  0
  186.7770  178.1900  142.6810 C   0  0  0  0  0  3  0  0  0  0  0  0
  185.7070  178.1870  143.7080 C   0  0  0  0  0  2  0  0  0  0  0  0
  184.2150  175.8560  137.3700 C   0  0  1  0  0  3  0  0  0  0  0  0
  186.8840  177.5650  139.0780 C   0  0  0  0  0  2  0  0  0  0  0  0
  183.0690  175.4920  136.4830 C   0  0  0  0  0  0  0  0  0  0  0  0
  182.7710  176.2600  135.3600 O   0  0  0  0  0  0  0  0  0  0  0  0
  182.3630  174.4870  136.7590 O   0  0  0  0  0  1  0  0  0  0  0  0
  189.7220  178.0910  139.4430 C   0  0  0  0  0  2  0  0  0  0  0  0
  190.6270  176.9670  139.9200 C   0  0  0  0  0  2  0  0  0  0  0  0
  191.3840  177.3770  141.1760 C   0  0  0  0  0  2  0  0  0  0  0  0
  190.3540  177.5190  143.4890 C   0  0  0  0  0  0  0  0  0  0  0  0
  190.4530  178.7760  143.4920 O   0  0  0  0  0  0  0  0  0  0  0  0
  190.7840  176.7600  142.3530 N   0  0  0  0  0  2  0  0  0  0  0  0
  189.8540  176.8240  144.7160 C   0  0  0  0  0  2  0  0  0  0  0  0
  190.4350  177.4270  145.9880 C   0  0  2  0  0  3  0  0  0  0  0  0
  191.7850  177.0900  146.0960 O   0  0  0  0  0  1  0  0  0  0  0  0
  189.4820  177.8550  148.1350 O   0  0  0  0  0  1  0  0  0  0  0  0
  189.6720  176.8660  147.1690 C   0  0  0  0  0  2  0  0  0  0  0  0
  1 15  2  0  0  0  0
  4  5  2  0  0  0  0
  5  1  1  0  0  0  0
  5  9  1  0  0  0  0
  6  2  2  0  0  0  0
  6  1  1  0  0  0  0
  7 17  1  0  0  0  0
  8  7  1  1  0  0  0
  8 13  1  0  0  0  0
  8 14  1  0  0  0  0
  9 10  2  0  0  0  0
 10 16  1  0  0  0  0
 12  3  2  0  0  0  0
 12  4  1  0  0  0  0
 13 11  1  1  0  0  0
 13 12  1  0  0  0  0
 14 18  1  0  0  0  0
 15 16  1  0  0  0  0
 17 19  1  6  0  0  0
 17 11  1  0  0  0  0
 18  6  1  0  0  0  0
 19 21  1  0  0  0  0
 20 19  2  0  0  0  0
 22 23  1  0  0  0  0
 22  2  1  0  0  0  0
 23 24  1  0  0  0  0
 24 27  1  0  0  0  0
 25 26  2  0  0  0  0
 25 28  1  0  0  0  0
 27 25  1  0  0  0  0
 28 29  1  0  0  0  0
 29 30  1  1  0  0  0
 29 32  1  0  0  0  0
 32 31  1  0  0  0  0
M  END
>  <MODEL>
2

>  <REMARK>
 VINA RESULT:      -7.3      3.312      4.741
  Name = 
  8 active torsions:
  status: ('A' for Active; 'I' for Inactive)
    1  A    between atoms: N_2  and  C_10
    2  A    between atoms: C_3  and  C_32
    3  A    between atoms: C_5  and  C_10
    4  A    between atoms: C_5  and  C_17
    5  A    between atoms: C_9  and  C_30
    6  A    between atoms: C_16  and  C_28
    7  A    between atoms: C_16  and  C_32
    8  A    between atoms: C_17  and  N_22
                            x       y       z     vdW  Elec       q    Type
                         _______ _______ _______ _____ _____    ______ ____

>  <TORSDO>
F 8

$$$$
=
 OpenBabel10222416293D

 32 34  0  0  1  0  0  0  0  0999 V2000
  188.5580  177.3500  139.2320 C   0  0  0  0  0  0  0  0  0  0  0  0
  186.7650  178.5920  140.2660 N   0  0  0  0  0  0  0  0  0  0  0  0
  192.9170  177.4310  140.3100 O   0  0  0  0  0  0  0  0  0  0  0  0
  190.6660  178.0060  140.0740 N   0  0  0  0  0  0  0  0  0  0  0  0
  190.0300  177.2610  139.2340 C   0  0  0  0  0  0  0  0  0  0  0  0
  187.8710  177.9230  140.4190 C   0  0  0  0  0  0  0  0  0  0  0  0
  189.9700  177.4200  144.5370 S   0  0  0  0  0  0  0  0  0  0  0  0
  190.5120  178.2630  143.0150 C   0  0  1  0  0  3  0  0  0  0  0  0
  190.6660  176.2160  138.4890 N   0  0  0  0  0  2  0  0  0  0  0  0
  189.9010  175.5260  137.4880 C   0  0  0  0  0  3  0  0  0  0  0  0
  191.1370  175.9300  142.5420 C   0  0  0  0  0  2  0  0  0  0  0  0
  191.7920  177.6260  140.8420 C   0  0  0  0  0  0  0  0  0  0  0  0
  191.5580  177.3650  142.3050 C   0  0  1  0  0  3  0  0  0  0  0  0
  189.3610  178.7290  142.2080 N   0  0  0  0  0  2  0  0  0  0  0  0
  187.8750  176.6250  138.3370 C   0  0  0  0  0  3  0  0  0  0  0  0
  188.5790  175.7330  137.3840 C   0  0  0  0  0  3  0  0  0  0  0  0
  190.6530  175.8170  143.9810 C   0  0  1  0  0  3  0  0  0  0  0  0
  188.4510  177.6510  141.8020 C   0  0  0  0  0  2  0  0  0  0  0  0
  191.7710  175.3890  144.8750 C   0  0  0  0  0  0  0  0  0  0  0  0
  192.5260  174.2590  144.5720 O   0  0  0  0  0  0  0  0  0  0  0  0
  192.0250  176.0520  145.9150 O   0  0  0  0  0  1  0  0  0  0  0  0
  186.0030  179.1640  141.3740 C   0  0  0  0  0  2  0  0  0  0  0  0
  184.5910  178.6040  141.4160 C   0  0  0  0  0  2  0  0  0  0  0  0
  183.9700  178.7980  142.7920 C   0  0  0  0  0  2  0  0  0  0  0  0
  184.7270  179.0520  145.1990 C   0  0  0  0  0  0  0  0  0  0  0  0
  183.5420  178.9420  145.6170 O   0  0  0  0  0  0  0  0  0  0  0  0
  185.0120  178.9710  143.7980 N   0  0  0  0  0  2  0  0  0  0  0  0
  185.8200  179.3470  146.1760 C   0  0  0  0  0  2  0  0  0  0  0  0
  186.8140  178.1980  146.2820 C   0  0  2  0  0  3  0  0  0  0  0  0
  186.1980  177.0050  145.9040 O   0  0  0  0  0  1  0  0  0  0  0  0
  188.6630  178.2230  147.7930 O   0  0  0  0  0  1  0  0  0  0  0  0
  187.2740  178.1020  147.7210 C   0  0  0  0  0  2  0  0  0  0  0  0
  1  5  1  0  0  0  0
  1  6  1  0  0  0  0
  2  6  2  0  0  0  0
  2 22  1  0  0  0  0
  3 12  2  0  0  0  0
  4 12  1  0  0  0  0
  5  4  2  0  0  0  0
  6 18  1  0  0  0  0
  8 14  1  6  0  0  0
  8  7  1  0  0  0  0
  9  5  1  0  0  0  0
 10  9  1  0  0  0  0
 11 17  1  0  0  0  0
 12 13  1  0  0  0  0
 13 11  1  6  0  0  0
 13  8  1  0  0  0  0
 15  1  2  0  0  0  0
 16 10  2  0  0  0  0
 16 15  1  0  0  0  0
 17  7  1  0  0  0  0
 17 19  1  1  0  0  0
 18 14  1  0  0  0  0
 19 21  1  0  0  0  0
 20 19  2  0  0  0  0
 22 23  1  0  0  0  0
 23 24  1  0  0  0  0
 24 27  1  0  0  0  0
 25 26  2  0  0  0  0
 25 28  1  0  0  0  0
 27 25  1  0  0  0  0
 28 29  1  0  0  0  0
 29 30  1  1  0  0  0
 29 32  1  0  0  0  0
 32 31  1  0  0  0  0
M  END
>  <MODEL>
3

>  <REMARK>
 VINA RESULT:      -7.2      2.748      5.542
  Name = 
  8 active torsions:
  status: ('A' for Active; 'I' for Inactive)
    1  A    between atoms: N_2  and  C_10
    2  A    between atoms: C_3  and  C_32
    3  A    between atoms: C_5  and  C_10
    4  A    between atoms: C_5  and  C_17
    5  A    between atoms: C_9  and  C_30
    6  A    between atoms: C_16  and  C_28
    7  A    between atoms: C_16  and  C_32
    8  A    between atoms: C_17  and  N_22
                            x       y       z     vdW  Elec       q    Type
                         _______ _______ _______ _____ _____    ______ ____

>  <TORSDO>
F 8

$$$$
=
 OpenBabel10222416293D

 32 34  0  0  1  0  0  0  0  0999 V2000
  185.2760  178.1380  138.3110 C   0  0  0  0  0  0  0  0  0  0  0  0
  185.4330  179.0680  140.5330 N   0  0  0  0  0  0  0  0  0  0  0  0
  188.3970  178.2280  135.0830 O   0  0  0  0  0  0  0  0  0  0  0  0
  187.1460  178.7240  136.9910 N   0  0  0  0  0  0  0  0  0  0  0  0
  186.0040  178.1250  137.0290 C   0  0  0  0  0  0  0  0  0  0  0  0
  186.0240  178.4380  139.5600 C   0  0  0  0  0  0  0  0  0  0  0  0
  190.5200  177.2580  139.6770 S   0  0  0  0  0  0  0  0  0  0  0  0
  189.6130  178.4040  138.5870 C   0  0  1  0  0  3  0  0  0  0  0  0
  185.5400  177.2750  135.9730 N   0  0  0  0  0  0  0  0  0  0  0  0
  184.2040  176.7530  136.0520 C   0  0  0  0  0  3  0  0  0  0  0  0
  189.1930  176.2390  137.4940 C   0  0  0  0  0  2  0  0  0  0  0  0
  188.3120  178.2610  136.3400 C   0  0  0  0  0  0  0  0  0  0  0  0
  189.4060  177.7120  137.2150 C   0  0  1  0  0  3  0  0  0  0  0  0
  188.4130  178.9580  139.2540 N   0  0  0  0  0  2  0  0  0  0  0  0
  184.0660  177.5670  138.3660 C   0  0  0  0  0  3  0  0  0  0  0  0
  183.4810  176.9110  137.1720 C   0  0  0  0  0  2  0  0  0  0  0  0
  190.1610  175.8280  138.5950 C   0  0  1  0  0  3  0  0  0  0  0  0
  187.4560  177.9350  139.6930 C   0  0  0  0  0  2  0  0  0  0  0  0
  191.4250  175.2920  138.0040 C   0  0  0  0  0  0  0  0  0  0  0  0
  191.4850  173.9840  137.5310 O   0  0  0  0  0  0  0  0  0  0  0  0
  192.4450  176.0280  137.9420 O   0  0  0  0  0  1  0  0  0  0  0  0
  186.0770  179.3780  141.8080 C   0  0  0  0  0  2  0  0  0  0  0  0
  185.0560  179.4600  142.9320 C   0  0  0  0  0  2  0  0  0  0  0  0
  185.1350  178.2320  143.8280 C   0  0  0  0  0  2  0  0  0  0  0  0
  187.3370  177.7330  144.9820 C   0  0  0  0  0  0  0  0  0  0  0  0
  186.9160  178.2200  146.0670 O   0  0  0  0  0  0  0  0  0  0  0  0
  186.4890  177.6920  143.8290 N   0  0  0  0  0  2  0  0  0  0  0  0
  188.7570  177.2710  144.8930 C   0  0  0  0  0  2  0  0  0  0  0  0
  189.2790  177.3110  143.4630 C   0  0  2  0  0  3  0  0  0  0  0  0
  189.7420  176.0470  143.0940 O   0  0  0  0  0  1  0  0  0  0  0  0
  191.3550  178.0300  144.3980 O   0  0  0  0  0  1  0  0  0  0  0  0
  190.4170  178.3080  143.4030 C   0  0  0  0  0  2  0  0  0  0  0  0
  1 15  2  0  0  0  0
  1  6  1  0  0  0  0
  2 22  1  0  0  0  0
  3 12  2  0  0  0  0
  4  5  2  0  0  0  0
  5  1  1  0  0  0  0
  6 18  1  0  0  0  0
  6  2  2  0  0  0  0
  8 14  1  1  0  0  0
  8  7  1  0  0  0  0
  9 10  2  0  0  0  0
  9  5  1  0  0  0  0
 10 16  1  0  0  0  0
 11 17  1  0  0  0  0
 12  4  1  0  0  0  0
 12 13  1  0  0  0  0
 13 11  1  1  0  0  0
 13  8  1  0  0  0  0
 14 18  1  0  0  0  0
 16 15  1  0  0  0  0
 17 19  1  6  0  0  0
 17  7  1  0  0  0  0
 20 19  2  0  0  0  0
 21 19  1  0  0  0  0
 22 23  1  0  0  0  0
 23 24  1  0  0  0  0
 24 27  1  0  0  0  0
 25 26  2  0  0  0  0
 27 25  1  0  0  0  0
 28 25  1  0  0  0  0
 29 30  1  1  0  0  0
 29 28  1  0  0  0  0
 32 29  1  0  0  0  0
 32 31  1  0  0  0  0
M  END
>  <MODEL>
4

>  <REMARK>
 VINA RESULT:      -7.1      2.511      4.129
  Name = 
  8 active torsions:
  status: ('A' for Active; 'I' for Inactive)
    1  A    between atoms: N_2  and  C_10
    2  A    between atoms: C_3  and  C_32
    3  A    between atoms: C_5  and  C_10
    4  A    between atoms: C_5  and  C_17
    5  A    between atoms: C_9  and  C_30
    6  A    between atoms: C_16  and  C_28
    7  A    between atoms: C_16  and  C_32
    8  A    between atoms: C_17  and  N_22
                            x       y       z     vdW  Elec       q    Type
                         _______ _______ _______ _____ _____    ______ ____

>  <TORSDO>
F 8

$$$$
=
 OpenBabel10222416293D

 32 34  0  0  1  0  0  0  0  0999 V2000
  188.6360  175.7690  137.0850 C   0  0  0  0  0  0  0  0  0  0  0  0
  186.6680  177.1390  136.8060 N   0  0  0  0  0  0  0  0  0  0  0  0
  192.4490  176.8580  139.1940 O   0  0  0  0  0  0  0  0  0  0  0  0
  190.4080  176.9860  138.0650 N   0  0  0  0  0  0  0  0  0  0  0  0
  190.0310  175.8630  137.5560 C   0  0  0  0  0  0  0  0  0  0  0  0
  187.6420  176.7570  137.5800 C   0  0  0  0  0  0  0  0  0  0  0  0
  188.3430  178.5330  141.8190 S   0  0  0  0  0  0  0  0  0  0  0  0
  189.3650  178.6000  140.3120 C   0  0  1  0  0  3  0  0  0  0  0  0
  190.8190  174.6690  137.6410 N   0  0  0  0  0  2  0  0  0  0  0  0
  190.3710  173.5020  136.9350 C   0  0  0  0  0  3  0  0  0  0  0  0
  190.0010  176.4150  141.2480 C   0  0  0  0  0  2  0  0  0  0  0  0
  191.2230  177.1530  139.2090 C   0  0  0  0  0  0  0  0  0  0  0  0
  190.5380  177.5990  140.4720 C   0  0  1  0  0  3  0  0  0  0  0  0
  188.5410  178.4860  139.0860 N   0  0  0  0  0  2  0  0  0  0  0  0
  188.2310  174.6310  136.5060 C   0  0  0  0  0  3  0  0  0  0  0  0
  189.1550  173.4800  136.3640 C   0  0  0  0  0  3  0  0  0  0  0  0
  189.0930  176.9500  142.3460 C   0  0  1  0  0  3  0  0  0  0  0  0
  187.7540  177.2490  139.0170 C   0  0  0  0  0  2  0  0  0  0  0  0
  189.8600  177.1340  143.6150 C   0  0  0  0  0  0  0  0  0  0  0  0
  190.8680  176.2410  143.9680 O   0  0  0  0  0  0  0  0  0  0  0  0
  189.5860  178.1010  144.3740 O   0  0  0  0  0  1  0  0  0  0  0  0
  185.6270  178.0790  137.2150 C   0  0  0  0  0  2  0  0  0  0  0  0
  184.3820  177.3480  137.6890 C   0  0  0  0  0  2  0  0  0  0  0  0
  183.5160  178.2540  138.5520 C   0  0  0  0  0  2  0  0  0  0  0  0
  184.4600  178.5750  140.8840 C   0  0  0  0  0  0  0  0  0  0  0  0
  185.1150  179.5870  140.5140 O   0  0  0  0  0  0  0  0  0  0  0  0
  183.6250  177.8740  139.9550 N   0  0  0  0  0  2  0  0  0  0  0  0
  184.6240  178.0700  142.2820 C   0  0  0  0  0  2  0  0  0  0  0  0
  184.5080  179.1890  143.3090 C   0  0  2  0  0  3  0  0  0  0  0  0
  185.5520  179.0950  144.2290 O   0  0  0  0  0  1  0  0  0  0  0  0
  183.3650  179.1340  145.4050 O   0  0  0  0  0  1  0  0  0  0  0  0
  183.1820  179.0380  144.0240 C   0  0  0  0  0  2  0  0  0  0  0  0
  1  5  1  0  0  0  0
  1  6  1  0  0  0  0
  2 22  1  0  0  0  0
  2  6  2  0  0  0  0
  3 12  2  0  0  0  0
  4 12  1  0  0  0  0
  5  9  1  0  0  0  0
  5  4  2  0  0  0  0
  6 18  1  0  0  0  0
  7 17  1  0  0  0  0
  8 14  1  6  0  0  0
  8 13  1  0  0  0  0
  8  7  1  0  0  0  0
 10  9  1  0  0  0  0
 11 17  1  0  0  0  0
 12 13  1  0  0  0  0
 13 11  1  6  0  0  0
 15  1  2  0  0  0  0
 16 15  1  0  0  0  0
 16 10  2  0  0  0  0
 17 19  1  1  0  0  0
 18 14  1  0  0  0  0
 19 20  2  0  0  0  0
 19 21  1  0  0  0  0
 22 23  1  0  0  0  0
 23 24  1  0  0  0  0
 24 27  1  0  0  0  0
 25 28  1  0  0  0  0
 26 25  2  0  0  0  0
 27 25  1  0  0  0  0
 28 29  1  0  0  0  0
 29 32  1  0  0  0  0
 29 30  1  1  0  0  0
 32 31  1  0  0  0  0
M  END
>  <MODEL>
5

>  <REMARK>
 VINA RESULT:      -6.9      2.963      6.151
  Name = 
  8 active torsions:
  status: ('A' for Active; 'I' for Inactive)
    1  A    between atoms: N_2  and  C_10
    2  A    between atoms: C_3  and  C_32
    3  A    between atoms: C_5  and  C_10
    4  A    between atoms: C_5  and  C_17
    5  A    between atoms: C_9  and  C_30
    6  A    between atoms: C_16  and  C_28
    7  A    between atoms: C_16  and  C_32
    8  A    between atoms: C_17  and  N_22
                            x       y       z     vdW  Elec       q    Type
                         _______ _______ _______ _____ _____    ______ ____

>  <TORSDO>
F 8

$$$$
=
 OpenBabel10222416293D

 32 34  0  0  1  0  0  0  0  0999 V2000
  186.6840  178.5020  141.7130 C   0  0  0  0  0  0  0  0  0  0  0  0
  188.4040  178.7660  140.0400 N   0  0  0  0  0  0  0  0  0  0  0  0
  182.2850  179.2810  141.2580 O   0  0  0  0  0  0  0  0  0  0  0  0
  184.5990  179.3090  140.9490 N   0  0  0  0  0  0  0  0  0  0  0  0
  185.2560  178.7980  141.9340 C   0  0  0  0  0  0  0  0  0  0  0  0
  187.1890  178.3930  140.3190 C   0  0  0  0  0  0  0  0  0  0  0  0
  184.1860  176.9390  137.0800 S   0  0  0  0  0  0  0  0  0  0  0  0
  184.1530  178.3990  138.1720 C   0  0  1  0  0  3  0  0  0  0  0  0
  184.6180  178.3060  143.1190 N   0  0  0  0  0  0  0  0  0  0  0  0
  185.4440  177.8700  144.2100 C   0  0  0  0  0  3  0  0  0  0  0  0
  183.2310  176.6540  139.6430 C   0  0  0  0  0  2  0  0  0  0  0  0
  183.2840  178.9700  140.5560 C   0  0  0  0  0  0  0  0  0  0  0  0
  183.1410  178.1300  139.3160 C   0  0  1  0  0  3  0  0  0  0  0  0
  185.5170  178.8230  138.5610 N   0  0  0  0  0  2  0  0  0  0  0  0
  187.4020  178.0170  142.7340 C   0  0  0  0  0  3  0  0  0  0  0  0
  186.7730  177.7570  144.0510 C   0  0  0  0  0  2  0  0  0  0  0  0
  183.3610  175.8920  138.3320 C   0  0  1  0  0  3  0  0  0  0  0  0
  186.2820  177.7820  139.2590 C   0  0  0  0  0  2  0  0  0  0  0  0
  182.0160  175.4600  137.8450 C   0  0  0  0  0  0  0  0  0  0  0  0
  181.8660  174.9140  136.5730 O   0  0  0  0  0  0  0  0  0  0  0  0
  181.0100  175.5990  138.5890 O   0  0  0  0  0  1  0  0  0  0  0  0
  188.9970  178.6670  138.7090 C   0  0  0  0  0  2  0  0  0  0  0  0
  189.6470  177.3100  138.4960 C   0  0  0  0  0  2  0  0  0  0  0  0
  190.8720  177.1490  139.3860 C   0  0  0  0  0  2  0  0  0  0  0  0
  190.8210  176.8450  141.9030 C   0  0  0  0  0  0  0  0  0  0  0  0
  191.3550  177.9740  142.0830 O   0  0  0  0  0  0  0  0  0  0  0  0
  190.5350  176.3810  140.5790 N   0  0  0  0  0  2  0  0  0  0  0  0
  190.5610  175.9650  143.0840 C   0  0  0  0  0  2  0  0  0  0  0  0
  191.7640  175.8900  144.0140 C   0  0  2  0  0  3  0  0  0  0  0  0
  192.0470  174.5560  144.3120 O   0  0  0  0  0  1  0  0  0  0  0  0
  192.0490  176.0330  146.3800 O   0  0  0  0  0  1  0  0  0  0  0  0
  191.4260  176.6370  145.2870 C   0  0  0  0  0  2  0  0  0  0  0  0
  1  5  1  0  0  0  0
  1 15  2  0  0  0  0
  2  6  2  0  0  0  0
  4  5  2  0  0  0  0
  5  9  1  0  0  0  0
  6  1  1  0  0  0  0
  7 17  1  0  0  0  0
  8  7  1  1  0  0  0
  8 14  1  0  0  0  0
  8 13  1  0  0  0  0
  9 10  2  0  0  0  0
 12  4  1  0  0  0  0
 12  3  2  0  0  0  0
 13 11  1  1  0  0  0
 13 12  1  0  0  0  0
 14 18  1  0  0  0  0
 15 16  1  0  0  0  0
 16 10  1  0  0  0  0
 17 19  1  6  0  0  0
 17 11  1  0  0  0  0
 18  6  1  0  0  0  0
 19 21  1  0  0  0  0
 20 19  2  0  0  0  0
 22  2  1  0  0  0  0
 23 22  1  0  0  0  0
 23 24  1  0  0  0  0
 24 27  1  0  0  0  0
 25 26  2  0  0  0  0
 25 28  1  0  0  0  0
 27 25  1  0  0  0  0
 28 29  1  0  0  0  0
 29 30  1  1  0  0  0
 29 32  1  0  0  0  0
 32 31  1  0  0  0  0
M  END
>  <MODEL>
6

>  <REMARK>
 VINA RESULT:      -6.9      3.536      5.945
  Name = 
  8 active torsions:
  status: ('A' for Active; 'I' for Inactive)
    1  A    between atoms: N_2  and  C_10
    2  A    between atoms: C_3  and  C_32
    3  A    between atoms: C_5  and  C_10
    4  A    between atoms: C_5  and  C_17
    5  A    between atoms: C_9  and  C_30
    6  A    between atoms: C_16  and  C_28
    7  A    between atoms: C_16  and  C_32
    8  A    between atoms: C_17  and  N_22
                            x       y       z     vdW  Elec       q    Type
                         _______ _______ _______ _____ _____    ______ ____

>  <TORSDO>
F 8

$$$$
=
 OpenBabel10222416293D

 32 34  0  0  1  0  0  0  0  0999 V2000
  181.8990  178.9950  142.4750 C   0  0  0  0  0  0  0  0  0  0  0  0
  184.2840  178.9650  142.8440 N   0  0  0  0  0  0  0  0  0  0  0  0
  179.7430  179.5290  138.5710 O   0  0  0  0  0  0  0  0  0  0  0  0
  181.3740  179.5640  140.2430 N   0  0  0  0  0  0  0  0  0  0  0  0
  180.9150  179.2860  141.4160 C   0  0  0  0  0  0  0  0  0  0  0  0
  183.2850  178.6200  142.0860 C   0  0  0  0  0  0  0  0  0  0  0  0
  183.8330  176.4440  138.0150 S   0  0  0  0  0  0  0  0  0  0  0  0
  183.1640  178.0940  138.4070 C   0  0  1  0  0  3  0  0  0  0  0  0
  179.5280  179.0260  141.6640 N   0  0  0  0  0  0  0  0  0  0  0  0
  179.0970  178.8490  143.0220 C   0  0  0  0  0  3  0  0  0  0  0  0
  181.2000  176.6580  138.7780 C   0  0  0  0  0  2  0  0  0  0  0  0
  180.8490  179.1120  139.0100 C   0  0  0  0  0  0  0  0  0  0  0  0
  181.6180  178.0330  138.3000 C   0  0  1  0  0  3  0  0  0  0  0  0
  183.7350  178.6300  139.6650 N   0  0  0  0  0  2  0  0  0  0  0  0
  181.4530  178.7510  143.7140 C   0  0  0  0  0  3  0  0  0  0  0  0
  180.0000  178.7470  144.0110 C   0  0  0  0  0  2  0  0  0  0  0  0
  182.2000  175.6490  138.2320 C   0  0  1  0  0  3  0  0  0  0  0  0
  183.4900  177.7770  140.8340 C   0  0  0  0  0  2  0  0  0  0  0  0
  181.7180  175.0850  136.9350 C   0  0  0  0  0  0  0  0  0  0  0  0
  181.6920  173.7090  136.7280 O   0  0  0  0  0  1  0  0  0  0  0  0
  181.3400  175.8640  136.0200 O   0  0  0  0  0  0  0  0  0  0  0  0
  185.6750  178.6160  142.5620 C   0  0  0  0  0  2  0  0  0  0  0  0
  186.2380  177.6970  143.6330 C   0  0  0  0  0  2  0  0  0  0  0  0
  187.7120  177.4110  143.3830 C   0  0  0  0  0  2  0  0  0  0  0  0
  189.4070  177.5540  145.2640 C   0  0  0  0  0  0  0  0  0  0  0  0
  189.8280  178.6660  144.8440 O   0  0  0  0  0  0  0  0  0  0  0  0
  188.3380  176.8820  144.5890 N   0  0  0  0  0  2  0  0  0  0  0  0
  190.0900  176.9080  146.4270 C   0  0  0  0  0  2  0  0  0  0  0  0
  191.5640  176.6470  146.1500 C   0  0  2  0  0  3  0  0  0  0  0  0
  191.7160  176.1140  144.8690 O   0  0  0  0  0  1  0  0  0  0  0  0
  192.7450  176.3280  148.2000 O   0  0  0  0  0  1  0  0  0  0  0  0
  192.0710  175.6580  147.1780 C   0  0  0  0  0  2  0  0  0  0  0  0
  1 15  2  0  0  0  0
  3 12  2  0  0  0  0
  4  5  2  0  0  0  0
  5  9  1  0  0  0  0
  5  1  1  0  0  0  0
  6  1  1  0  0  0  0
  6  2  2  0  0  0  0
  7 17  1  0  0  0  0
  8  7  1  1  0  0  0
  8 14  1  0  0  0  0
  9 10  2  0  0  0  0
 10 16  1  0  0  0  0
 12  4  1  0  0  0  0
 13  8  1  0  0  0  0
 13 11  1  1  0  0  0
 13 12  1  0  0  0  0
 14 18  1  0  0  0  0
 15 16  1  0  0  0  0
 17 19  1  6  0  0  0
 17 11  1  0  0  0  0
 18  6  1  0  0  0  0
 20 19  1  0  0  0  0
 21 19  2  0  0  0  0
 22  2  1  0  0  0  0
 22 23  1  0  0  0  0
 24 23  1  0  0  0  0
 24 27  1  0  0  0  0
 25 28  1  0  0  0  0
 26 25  2  0  0  0  0
 27 25  1  0  0  0  0
 29 30  1  6  0  0  0
 29 28  1  0  0  0  0
 29 32  1  0  0  0  0
 32 31  1  0  0  0  0
M  END
>  <MODEL>
7

>  <REMARK>
 VINA RESULT:      -6.6      4.772      6.785
  Name = 
  8 active torsions:
  status: ('A' for Active; 'I' for Inactive)
    1  A    between atoms: N_2  and  C_10
    2  A    between atoms: C_3  and  C_32
    3  A    between atoms: C_5  and  C_10
    4  A    between atoms: C_5  and  C_17
    5  A    between atoms: C_9  and  C_30
    6  A    between atoms: C_16  and  C_28
    7  A    between atoms: C_16  and  C_32
    8  A    between atoms: C_17  and  N_22
                            x       y       z     vdW  Elec       q    Type
                         _______ _______ _______ _____ _____    ______ ____

>  <TORSDO>
F 8

$$$$
=
 OpenBabel10222416293D

 32 34  0  0  1  0  0  0  0  0999 V2000
  184.2770  178.7070  140.9670 C   0  0  0  0  0  0  0  0  0  0  0  0
  185.8140  178.6640  139.1070 N   0  0  0  0  0  0  0  0  0  0  0  0
  179.7940  178.9190  140.8060 O   0  0  0  0  0  0  0  0  0  0  0  0
  182.0570  179.0770  140.2500 N   0  0  0  0  0  0  0  0  0  0  0  0
  182.8470  178.9180  141.2570 C   0  0  0  0  0  0  0  0  0  0  0  0
  184.6780  178.2710  139.6040 C   0  0  0  0  0  0  0  0  0  0  0  0
  181.6210  175.7160  137.2080 S   0  0  0  0  0  0  0  0  0  0  0  0
  181.5010  177.4070  137.8750 C   0  0  1  0  0  3  0  0  0  0  0  0
  182.3690  178.7100  142.5920 N   0  0  0  0  0  0  0  0  0  0  0  0
  183.3250  178.6680  143.6630 C   0  0  0  0  0  3  0  0  0  0  0  0
  180.9150  176.0520  139.8440 C   0  0  0  0  0  2  0  0  0  0  0  0
  180.7640  178.5230  140.1060 C   0  0  0  0  0  0  0  0  0  0  0  0
  180.6230  177.3670  139.1530 C   0  0  1  0  0  3  0  0  0  0  0  0
  182.8320  178.0470  137.9880 N   0  0  0  0  0  2  0  0  0  0  0  0
  185.1280  178.5880  141.9950 C   0  0  0  0  0  3  0  0  0  0  0  0
  184.6410  178.6400  143.3950 C   0  0  0  0  0  2  0  0  0  0  0  0
  181.0290  174.9770  138.7720 C   0  0  1  0  0  3  0  0  0  0  0  0
  183.7690  177.3110  138.8470 C   0  0  0  0  0  2  0  0  0  0  0  0
  179.7110  174.3050  138.5650 C   0  0  0  0  0  0  0  0  0  0  0  0
  179.1150  174.2880  137.3070 O   0  0  0  0  0  0  0  0  0  0  0  0
  179.1310  173.7560  139.5400 O   0  0  0  0  0  1  0  0  0  0  0  0
  186.3070  178.2630  137.7910 C   0  0  0  0  0  2  0  0  0  0  0  0
  187.4960  177.3250  137.9130 C   0  0  0  0  0  2  0  0  0  0  0  0
  188.6630  178.0150  138.6060 C   0  0  0  0  0  2  0  0  0  0  0  0
  188.9350  177.7390  141.1120 C   0  0  0  0  0  0  0  0  0  0  0  0
  188.3930  178.8570  141.3270 O   0  0  0  0  0  0  0  0  0  0  0  0
  189.0830  177.2500  139.7740 N   0  0  0  0  0  2  0  0  0  0  0  0
  189.4900  176.9640  142.2640 C   0  0  0  0  0  2  0  0  0  0  0  0
  189.3480  177.7180  143.5800 C   0  0  2  0  0  3  0  0  0  0  0  0
  190.5770  177.7520  144.2390 O   0  0  0  0  0  1  0  0  0  0  0  0
  187.6810  177.8920  145.2810 O   0  0  0  0  0  1  0  0  0  0  0  0
  188.3300  176.9920  144.4330 C   0  0  0  0  0  2  0  0  0  0  0  0
  1  5  1  0  0  0  0
  1 15  2  0  0  0  0
  2  6  2  0  0  0  0
  4  5  2  0  0  0  0
  5  9  1  0  0  0  0
  6  1  1  0  0  0  0
  7 17  1  0  0  0  0
  8  7  1  1  0  0  0
  8 14  1  0  0  0  0
  8 13  1  0  0  0  0
  9 10  2  0  0  0  0
 12  4  1  0  0  0  0
 12  3  2  0  0  0  0
 13 11  1  1  0  0  0
 13 12  1  0  0  0  0
 14 18  1  0  0  0  0
 15 16  1  0  0  0  0
 16 10  1  0  0  0  0
 17 19  1  6  0  0  0
 17 11  1  0  0  0  0
 18  6  1  0  0  0  0
 19 21  1  0  0  0  0
 20 19  2  0  0  0  0
 22 23  1  0  0  0  0
 22  2  1  0  0  0  0
 23 24  1  0  0  0  0
 24 27  1  0  0  0  0
 25 26  2  0  0  0  0
 25 28  1  0  0  0  0
 27 25  1  0  0  0  0
 28 29  1  0  0  0  0
 29 30  1  1  0  0  0
 29 32  1  0  0  0  0
 32 31  1  0  0  0  0
M  END
>  <MODEL>
8

>  <REMARK>
 VINA RESULT:      -6.5      4.566      7.041
  Name = 
  8 active torsions:
  status: ('A' for Active; 'I' for Inactive)
    1  A    between atoms: N_2  and  C_10
    2  A    between atoms: C_3  and  C_32
    3  A    between atoms: C_5  and  C_10
    4  A    between atoms: C_5  and  C_17
    5  A    between atoms: C_9  and  C_30
    6  A    between atoms: C_16  and  C_28
    7  A    between atoms: C_16  and  C_32
    8  A    between atoms: C_17  and  N_22
                            x       y       z     vdW  Elec       q    Type
                         _______ _______ _______ _____ _____    ______ ____

>  <TORSDO>
F 8

$$$$
=
 OpenBabel10222416293D

 32 34  0  0  1  0  0  0  0  0999 V2000
  187.7490  178.0980  140.8120 C   0  0  0  0  0  0  0  0  0  0  0  0
  188.4310  178.6290  138.5580 N   0  0  0  0  0  0  0  0  0  0  0  0
  183.9630  179.3360  142.8870 O   0  0  0  0  0  0  0  0  0  0  0  0
  185.7730  179.2450  141.4140 N   0  0  0  0  0  0  0  0  0  0  0  0
  186.7110  178.4480  141.8000 C   0  0  0  0  0  0  0  0  0  0  0  0
  187.4650  178.3030  139.3670 C   0  0  0  0  0  0  0  0  0  0  0  0
  183.0320  177.9720  138.0070 S   0  0  0  0  0  0  0  0  0  0  0  0
  183.8390  179.1060  139.1830 C   0  0  1  0  0  3  0  0  0  0  0  0
  186.6570  177.7290  143.0380 N   0  0  0  0  0  2  0  0  0  0  0  0
  187.8060  176.9640  143.4360 C   0  0  0  0  0  3  0  0  0  0  0  0
  183.4320  177.1310  140.5940 C   0  0  0  0  0  2  0  0  0  0  0  0
  184.3980  179.1290  141.7230 C   0  0  0  0  0  0  0  0  0  0  0  0
  183.4940  178.6440  140.6230 C   0  0  1  0  0  3  0  0  0  0  0  0
  185.2710  179.3010  138.8600 N   0  0  0  0  0  2  0  0  0  0  0  0
  188.7620  177.3120  141.2000 C   0  0  0  0  0  3  0  0  0  0  0  0
  188.8270  176.7830  142.5830 C   0  0  0  0  0  3  0  0  0  0  0  0
  182.7390  176.7170  139.3030 C   0  0  1  0  0  3  0  0  0  0  0  0
  186.0510  178.0570  138.8580 C   0  0  0  0  0  2  0  0  0  0  0  0
  181.2740  176.5370  139.5330 C   0  0  0  0  0  0  0  0  0  0  0  0
  180.3900  177.5920  139.3260 O   0  0  0  0  0  0  0  0  0  0  0  0
  180.8370  175.4220  139.9250 O   0  0  0  0  0  1  0  0  0  0  0  0
  188.2550  178.8210  137.1200 C   0  0  0  0  0  2  0  0  0  0  0  0
  189.4310  178.2530  136.3440 C   0  0  0  0  0  2  0  0  0  0  0  0
  189.8020  176.8680  136.8540 C   0  0  0  0  0  2  0  0  0  0  0  0
  188.8220  174.5300  136.9020 C   0  0  0  0  0  0  0  0  0  0  0  0
  189.7870  174.1040  137.5930 O   0  0  0  0  0  0  0  0  0  0  0  0
  188.7590  175.9070  136.5150 N   0  0  0  0  0  2  0  0  0  0  0  0
  187.7840  173.5640  136.4270 C   0  0  0  0  0  2  0  0  0  0  0  0
  186.4030  173.8960  136.9760 C   0  0  2  0  0  3  0  0  0  0  0  0
  186.0570  172.9770  137.9680 O   0  0  0  0  0  1  0  0  0  0  0  0
  185.9480  173.0870  134.7760 O   0  0  0  0  0  1  0  0  0  0  0  0
  185.4090  173.8160  135.8370 C   0  0  0  0  0  2  0  0  0  0  0  0
  1 15  2  0  0  0  0
  1  5  1  0  0  0  0
  2  6  2  0  0  0  0
  4 12  1  0  0  0  0
  4  5  2  0  0  0  0
  5  9  1  0  0  0  0
  6  1  1  0  0  0  0
  7 17  1  0  0  0  0
  8  7  1  6  0  0  0
  8 13  1  0  0  0  0
  9 10  1  0  0  0  0
 12  3  2  0  0  0  0
 13 11  1  6  0  0  0
 13 12  1  0  0  0  0
 14  8  1  0  0  0  0
 15 16  1  0  0  0  0
 16 10  2  0  0  0  0
 17 19  1  1  0  0  0
 17 11  1  0  0  0  0
 18 14  1  0  0  0  0
 18  6  1  0  0  0  0
 19 21  1  0  0  0  0
 20 19  2  0  0  0  0
 22  2  1  0  0  0  0
 23 24  1  0  0  0  0
 23 22  1  0  0  0  0
 25 26  2  0  0  0  0
 27 24  1  0  0  0  0
 27 25  1  0  0  0  0
 28 25  1  0  0  0  0
 28 29  1  0  0  0  0
 29 30  1  1  0  0  0
 31 32  1  0  0  0  0
 32 29  1  0  0  0  0
M  END
>  <MODEL>
9

>  <REMARK>
 VINA RESULT:      -6.3      3.388      7.776
  Name = 
  8 active torsions:
  status: ('A' for Active; 'I' for Inactive)
    1  A    between atoms: N_2  and  C_10
    2  A    between atoms: C_3  and  C_32
    3  A    between atoms: C_5  and  C_10
    4  A    between atoms: C_5  and  C_17
    5  A    between atoms: C_9  and  C_30
    6  A    between atoms: C_16  and  C_28
    7  A    between atoms: C_16  and  C_32
    8  A    between atoms: C_17  and  N_22
                            x       y       z     vdW  Elec       q    Type
                         _______ _______ _______ _____ _____    ______ ____

>  <TORSDO>
F 8

$$$$
