=
 OpenBabel10222417043D

 55 61  0  0  1  0  0  0  0  0999 V2000
  186.3010  178.2450  142.8700 N   0  0  1  0  0  0  0  0  0  0  0  0
  188.8530  177.6320  144.7930 N   0  0  0  0  0  0  0  0  0  0  0  0
  188.9580  176.4470  142.7750 O   0  0  0  0  0  0  0  0  0  0  0  0
  187.2560  178.2690  140.2270 C   0  0  0  0  0  0  0  0  0  0  0  0
  188.5780  177.4820  143.3880 C   0  0  0  0  0  0  0  0  0  0  0  0
  184.9560  178.1840  139.4230 C   0  0  0  0  0  0  0  0  0  0  0  0
  187.9660  178.4770  145.5930 C   0  0  0  0  0  2  0  0  0  0  0  0
  187.7520  178.5070  142.6650 C   0  0  1  0  0  3  0  0  0  0  0  0
  188.1450  178.4820  141.2820 O   0  0  0  0  0  0  0  0  0  0  0  0
  185.8920  178.3960  140.4610 C   0  0  0  0  0  0  0  0  0  0  0  0
  187.7260  177.9320  138.9520 C   0  0  0  0  0  0  0  0  0  0  0  0
  185.8560  178.7720  144.1890 C   0  0  2  0  0  3  0  0  0  0  0  0
  186.3400  176.6960  145.3630 O   0  0  0  0  0  1  0  0  0  0  0  0
  185.4330  177.8200  138.1380 C   0  0  0  0  0  0  0  0  0  0  0  0
  186.5030  178.0840  145.4000 C   0  0  1  0  0  3  0  0  0  0  0  0
  185.5060  178.9040  141.8100 C   0  0  2  0  0  3  0  0  0  0  0  0
  185.6580  180.2970  141.8500 O   0  0  0  0  0  1  0  0  0  0  0  0
  186.8140  177.7000  137.9220 C   0  0  0  0  0  3  0  0  0  0  0  0
  183.5050  178.3420  139.6840 C   0  0  0  0  0  0  0  0  0  0  0  0
  182.8780  179.5780  139.4690 C   0  0  0  0  0  3  0  0  0  0  0  0
  179.4310  178.7850  140.3990 F   0  0  0  0  0  0  0  0  0  0  0  0
  182.7430  177.2560  140.1410 C   0  0  0  0  0  3  0  0  0  0  0  0
  181.3740  177.4040  140.3820 C   0  0  0  0  0  3  0  0  0  0  0  0
  180.7570  178.6400  140.1650 C   0  0  0  0  0  0  0  0  0  0  0  0
  181.5090  179.7260  139.7090 C   0  0  0  0  0  3  0  0  0  0  0  0
  192.1000  175.7140  146.6920 N   0  0  0  0  0  0  0  0  0  0  0  0
  191.1210  176.2750  147.4500 C   0  0  0  0  0  3  0  0  0  0  0  0
  190.0390  176.9100  146.8380 C   0  0  0  0  0  3  0  0  0  0  0  0
  189.9580  176.9630  145.4380 C   0  0  0  0  0  0  0  0  0  0  0  0
  192.0560  175.7540  145.3340 C   0  0  0  0  0  3  0  0  0  0  0  0
  190.9900  176.3790  144.6860 C   0  0  0  0  0  3  0  0  0  0  0  0
  183.8450  179.0020  145.4650 O   0  0  0  0  0  1  0  0  0  0  0  0
  183.5570  178.2450  143.3220 O   0  0  0  0  0  0  0  0  0  0  0  0
  184.3630  178.6890  144.3620 C   0  0  0  0  0  0  0  0  0  0  0  0
  184.4910  177.5380  137.0370 C   0  0  0  0  0  3  0  0  0  0  0  0
  183.9270  176.3460  136.8410 C   0  0  0  0  0  3  0  0  0  0  0  0
  181.5990  174.3640  134.8460 C   0  0  2  0  0  3  0  0  0  0  0  0
  181.2940  173.0310  135.1090 O   0  0  0  0  0  1  0  0  0  0  0  0
  181.5320  176.3330  136.1250 C   0  0  2  0  0  3  0  0  0  0  0  0
  182.9730  176.0910  135.7140 C   0  0  2  0  0  3  0  0  0  0  0  0
  183.0190  174.6570  135.2600 C   0  0  0  0  0  2  0  0  0  0  0  0
  180.7150  175.2330  135.6150 N   0  0  0  0  0  2  0  0  0  0  0  0
  181.0560  177.6310  135.5620 C   0  0  0  0  0  3  0  0  0  0  0  0
  180.3460  178.4250  136.2780 N   0  0  0  0  0  0  0  0  0  0  0  0
  179.8550  180.7230  136.8390 C   0  0  0  0  0  2  0  0  0  0  0  0
  179.8820  179.6780  135.7430 C   0  0  1  0  0  3  0  0  0  0  0  0
  180.8050  181.7060  134.9350 C   0  0  0  0  0  2  0  0  0  0  0  0
  180.8550  180.2140  134.7280 C   0  0  0  0  0  2  0  0  0  0  0  0
  180.4630  181.9490  136.3310 N   0  0  0  0  0  2  0  0  0  0  0  0
  189.1870  177.7790  138.6900 C   0  0  0  0  0  2  0  0  0  0  0  0
  189.4510  177.7570  137.1960 C   0  0  0  0  0  2  0  0  0  0  0  0
  190.5160  176.7240  136.8880 C   0  0  0  0  0  2  0  0  0  0  0  0
  190.9360  174.8770  138.3430 O   0  0  0  0  0  1  0  0  0  0  0  0
  188.9960  174.7650  137.1240 O   0  0  0  0  0  0  0  0  0  0  0  0
  190.1650  175.4140  137.5040 C   0  0  0  0  0  0  0  0  0  0  0  0
  1 12  1  0  0  0  0
  2 29  1  0  0  0  0
  2  7  1  0  0  0  0
  3  5  2  0  0  0  0
  4 10  1  0  0  0  0
  4  9  1  0  0  0  0
  5  2  1  0  0  0  0
  6 19  1  0  0  0  0
  6 10  2  0  0  0  0
  8  1  1  0  0  0  0
  8  5  1  0  0  0  0
  9  8  1  0  0  0  0
 10 16  1  0  0  0  0
 11  4  2  0  0  0  0
 12 34  1  0  0  0  0
 12 15  1  0  0  0  0
 13 15  1  0  0  0  0
 14  6  1  0  0  0  0
 15  7  1  0  0  0  0
 16 17  1  0  0  0  0
 16  1  1  0  0  0  0
 18 14  2  0  0  0  0
 18 11  1  0  0  0  0
 19 22  1  0  0  0  0
 20 19  2  0  0  0  0
 20 25  1  0  0  0  0
 22 23  2  0  0  0  0
 24 23  1  0  0  0  0
 24 21  1  0  0  0  0
 25 24  2  0  0  0  0
 26 27  1  0  0  0  0
 28 27  2  0  0  0  0
 29 28  1  0  0  0  0
 30 26  2  0  0  0  0
 31 30  1  0  0  0  0
 31 29  2  0  0  0  0
 33 34  2  0  0  0  0
 34 32  1  0  0  0  0
 35 14  1  0  0  0  0
 36 35  2  0  0  0  0
 37 38  1  0  0  0  0
 37 41  1  0  0  0  0
 37 42  1  0  0  0  0
 40 39  1  0  0  0  0
 40 36  1  0  0  0  0
 41 40  1  0  0  0  0
 42 39  1  0  0  0  0
 43 39  1  0  0  0  0
 43 44  2  0  0  0  0
 46 44  1  0  0  0  0
 46 45  1  0  0  0  0
 47 49  1  0  0  0  0
 48 47  1  0  0  0  0
 48 46  1  0  0  0  0
 49 45  1  0  0  0  0
 50 11  1  0  0  0  0
 51 50  1  0  0  0  0
 52 51  1  0  0  0  0
 52 55  1  0  0  0  0
 54 55  2  0  0  0  0
 55 53  1  0  0  0  0
M  END
>  <MODEL>
1

>  <REMARK>
 VINA RESULT:      -7.5      0.000      0.000
  Name = 
  11 active torsions:
  status: ('A' for Active; 'I' for Inactive)
    1  A    between atoms: C_2  and  C_20
    2  A    between atoms: C_2  and  C_27
    3  A    between atoms: N_7  and  C_41
    4  A    between atoms: C_13  and  C_16
    5  A    between atoms: C_20  and  C_44
    6  A    between atoms: C_23  and  N_33
    7  A    between atoms: C_26  and  C_32
    8  A    between atoms: C_28  and  C_53
    9  A    between atoms: C_30  and  C_44
   10  A    between atoms: C_34  and  C_36
   11  A    between atoms: C_38  and  C_46
                            x       y       z     vdW  Elec       q    Type
                         _______ _______ _______ _____ _____    ______ ____

>  <TORSDO>
F 11

$$$$
=
 OpenBabel10222417043D

 55 61  0  0  1  0  0  0  0  0999 V2000
  181.9090  179.5000  140.5520 N   0  0  1  0  0  0  0  0  0  0  0  0
  180.1670  180.6980  138.0800 N   0  0  0  0  0  0  0  0  0  0  0  0
  182.4630  181.0740  137.8100 O   0  0  0  0  0  0  0  0  0  0  0  0
  184.2990  178.5010  139.4600 C   0  0  0  0  0  0  0  0  0  0  0  0
  181.5470  180.3390  138.2720 C   0  0  0  0  0  0  0  0  0  0  0  0
  185.2320  178.3510  141.7070 C   0  0  0  0  0  0  0  0  0  0  0  0
  179.1790  180.2210  139.0480 C   0  0  0  0  0  2  0  0  0  0  0  0
  181.9100  179.1440  139.1060 C   0  0  1  0  0  3  0  0  0  0  0  0
  183.1800  178.6590  138.6390 O   0  0  0  0  0  0  0  0  0  0  0  0
  184.1260  178.5020  140.8390 C   0  0  0  0  0  0  0  0  0  0  0  0
  185.5750  178.3450  138.9070 C   0  0  0  0  0  0  0  0  0  0  0  0
  180.5220  179.4940  141.0920 C   0  0  2  0  0  3  0  0  0  0  0  0
  180.1380  181.8410  140.5720 O   0  0  0  0  0  1  0  0  0  0  0  0
  186.5280  178.2160  141.1450 C   0  0  0  0  0  0  0  0  0  0  0  0
  179.5970  180.5550  140.4780 C   0  0  1  0  0  3  0  0  0  0  0  0
  182.7150  178.5240  141.3200 C   0  0  2  0  0  3  0  0  0  0  0  0
  182.1690  177.2360  141.2380 O   0  0  0  0  0  1  0  0  0  0  0  0
  186.6790  178.2130  139.7500 C   0  0  0  0  0  3  0  0  0  0  0  0
  185.0300  178.3350  143.1760 C   0  0  0  0  0  0  0  0  0  0  0  0
  183.8610  178.8730  143.7340 C   0  0  0  0  0  3  0  0  0  0  0  0
  184.4490  178.2770  147.2950 F   0  0  0  0  0  0  0  0  0  0  0  0
  186.0000  177.7750  144.0210 C   0  0  0  0  0  3  0  0  0  0  0  0
  185.8050  177.7550  145.4050 C   0  0  0  0  0  3  0  0  0  0  0  0
  184.6370  178.2950  145.9540 C   0  0  0  0  0  0  0  0  0  0  0  0
  183.6660  178.8540  145.1190 C   0  0  0  0  0  3  0  0  0  0  0  0
  178.9350  183.1180  134.8470 N   0  0  0  0  0  0  0  0  0  0  0  0
  179.2950  181.8290  134.6140 C   0  0  0  0  0  3  0  0  0  0  0  0
  179.7020  181.0140  135.6720 C   0  0  0  0  0  3  0  0  0  0  0  0
  179.7310  181.5260  136.9800 C   0  0  0  0  0  0  0  0  0  0  0  0
  178.9580  183.6470  136.1000 C   0  0  0  0  0  3  0  0  0  0  0  0
  179.3580  182.8630  137.1830 C   0  0  0  0  0  3  0  0  0  0  0  0
  180.4370  180.8310  143.0740 O   0  0  0  0  0  0  0  0  0  0  0  0
  180.5460  178.5690  143.4280 O   0  0  0  0  0  1  0  0  0  0  0  0
  180.4910  179.6730  142.5860 C   0  0  0  0  0  0  0  0  0  0  0  0
  187.7170  178.1060  142.0120 C   0  0  0  0  0  3  0  0  0  0  0  0
  188.3050  176.9470  142.3070 C   0  0  0  0  0  3  0  0  0  0  0  0
  191.8560  177.2250  143.1100 C   0  0  2  0  0  3  0  0  0  0  0  0
  192.8330  177.5830  142.1840 O   0  0  0  0  0  1  0  0  0  0  0  0
  189.8450  178.2100  143.8180 C   0  0  2  0  0  3  0  0  0  0  0  0
  189.5130  176.8680  143.1910 C   0  0  2  0  0  3  0  0  0  0  0  0
  190.7430  176.4780  142.4180 C   0  0  0  0  0  2  0  0  0  0  0  0
  191.2880  178.4240  143.7160 N   0  0  0  0  0  2  0  0  0  0  0  0
  189.4250  178.2180  145.2510 C   0  0  0  0  0  3  0  0  0  0  0  0
  189.9790  177.4230  146.0920 N   0  0  0  0  0  0  0  0  0  0  0  0
  188.9300  178.7470  147.8200 C   0  0  0  0  0  2  0  0  0  0  0  0
  189.5800  177.4230  147.4750 C   0  0  1  0  0  3  0  0  0  0  0  0
  187.6200  177.0400  148.7490 C   0  0  0  0  0  2  0  0  0  0  0  0
  188.5080  176.3950  147.7160 C   0  0  0  0  0  2  0  0  0  0  0  0
  187.7060  178.4830  148.5700 N   0  0  0  0  0  2  0  0  0  0  0  0
  185.7760  178.3550  137.4280 C   0  0  0  0  0  2  0  0  0  0  0  0
  187.2510  178.2240  137.1000 C   0  0  0  0  0  2  0  0  0  0  0  0
  187.5420  176.8080  136.6460 C   0  0  0  0  0  2  0  0  0  0  0  0
  189.2040  175.4120  137.6440 O   0  0  0  0  0  1  0  0  0  0  0  0
  189.9900  177.2530  136.5230 O   0  0  0  0  0  0  0  0  0  0  0  0
  188.9520  176.4390  136.9600 C   0  0  0  0  0  0  0  0  0  0  0  0
  1 12  1  0  0  0  0
  1 16  1  0  0  0  0
  2  5  1  0  0  0  0
  2  7  1  0  0  0  0
  3  5  2  0  0  0  0
  4 10  1  0  0  0  0
  5  8  1  0  0  0  0
  6 19  1  0  0  0  0
  7 15  1  0  0  0  0
  8  1  1  0  0  0  0
  9  8  1  0  0  0  0
  9  4  1  0  0  0  0
 10 16  1  0  0  0  0
 10  6  2  0  0  0  0
 11  4  2  0  0  0  0
 11 18  1  0  0  0  0
 12 34  1  0  0  0  0
 14  6  1  0  0  0  0
 14 35  1  0  0  0  0
 15 13  1  0  0  0  0
 15 12  1  0  0  0  0
 17 16  1  0  0  0  0
 18 14  2  0  0  0  0
 19 20  2  0  0  0  0
 19 22  1  0  0  0  0
 20 25  1  0  0  0  0
 22 23  2  0  0  0  0
 23 24  1  0  0  0  0
 24 21  1  0  0  0  0
 25 24  2  0  0  0  0
 26 30  1  0  0  0  0
 27 26  2  0  0  0  0
 27 28  1  0  0  0  0
 28 29  2  0  0  0  0
 29 31  1  0  0  0  0
 29  2  1  0  0  0  0
 30 31  2  0  0  0  0
 34 32  2  0  0  0  0
 34 33  1  0  0  0  0
 35 36  2  0  0  0  0
 36 40  1  0  0  0  0
 37 42  1  0  0  0  0
 38 37  1  0  0  0  0
 39 43  1  0  0  0  0
 40 39  1  0  0  0  0
 41 37  1  0  0  0  0
 41 40  1  0  0  0  0
 42 39  1  0  0  0  0
 43 44  2  0  0  0  0
 44 46  1  0  0  0  0
 45 49  1  0  0  0  0
 46 48  1  0  0  0  0
 46 45  1  0  0  0  0
 48 47  1  0  0  0  0
 49 47  1  0  0  0  0
 50 11  1  0  0  0  0
 51 50  1  0  0  0  0
 52 55  1  0  0  0  0
 52 51  1  0  0  0  0
 54 55  2  0  0  0  0
 55 53  1  0  0  0  0
M  END
>  <MODEL>
2

>  <REMARK>
 VINA RESULT:      -6.6      3.047      9.883
  Name = 
  11 active torsions:
  status: ('A' for Active; 'I' for Inactive)
    1  A    between atoms: C_2  and  C_20
    2  A    between atoms: C_2  and  C_27
    3  A    between atoms: N_7  and  C_41
    4  A    between atoms: C_13  and  C_16
    5  A    between atoms: C_20  and  C_44
    6  A    between atoms: C_23  and  N_33
    7  A    between atoms: C_26  and  C_32
    8  A    between atoms: C_28  and  C_53
    9  A    between atoms: C_30  and  C_44
   10  A    between atoms: C_34  and  C_36
   11  A    between atoms: C_38  and  C_46
                            x       y       z     vdW  Elec       q    Type
                         _______ _______ _______ _____ _____    ______ ____

>  <TORSDO>
F 11

$$$$
=
 OpenBabel10222417043D

 55 61  0  0  1  0  0  0  0  0999 V2000
  182.0580  179.3970  140.5170 N   0  0  1  0  0  0  0  0  0  0  0  0
  180.2760  180.5100  138.0340 N   0  0  0  0  0  0  0  0  0  0  0  0
  182.5450  181.0420  137.8050 O   0  0  0  0  0  0  0  0  0  0  0  0
  184.5250  178.5750  139.4500 C   0  0  0  0  0  0  0  0  0  0  0  0
  181.6740  180.2420  138.2430 C   0  0  0  0  0  0  0  0  0  0  0  0
  185.4330  178.4560  141.7090 C   0  0  0  0  0  0  0  0  0  0  0  0
  179.3080  179.9550  138.9810 C   0  0  0  0  0  2  0  0  0  0  0  0
  182.1030  179.0620  139.0680 C   0  0  1  0  0  3  0  0  0  0  0  0
  183.4100  178.6690  138.6140 O   0  0  0  0  0  0  0  0  0  0  0  0
  184.3320  178.5460  140.8260 C   0  0  0  0  0  0  0  0  0  0  0  0
  185.8170  178.5120  138.9150 C   0  0  0  0  0  0  0  0  0  0  0  0
  180.6660  179.2920  141.0350 C   0  0  2  0  0  3  0  0  0  0  0  0
  180.1340  181.6140  140.5390 O   0  0  0  0  0  1  0  0  0  0  0  0
  186.7420  178.4150  141.1660 C   0  0  0  0  0  0  0  0  0  0  0  0
  179.6810  180.2970  140.4210 C   0  0  1  0  0  3  0  0  0  0  0  0
  182.9150  178.4660  141.2860 C   0  0  2  0  0  3  0  0  0  0  0  0
  182.4580  177.1460  141.1780 O   0  0  0  0  0  1  0  0  0  0  0  0
  186.9140  178.4420  139.7740 C   0  0  0  0  0  3  0  0  0  0  0  0
  185.2100  178.4070  143.1740 C   0  0  0  0  0  0  0  0  0  0  0  0
  186.0670  177.6590  143.9950 C   0  0  0  0  0  3  0  0  0  0  0  0
  184.6000  178.2800  147.2880 F   0  0  0  0  0  0  0  0  0  0  0  0
  184.1470  179.1140  143.7560 C   0  0  0  0  0  3  0  0  0  0  0  0
  183.9420  179.0720  145.1380 C   0  0  0  0  0  3  0  0  0  0  0  0
  184.8000  178.3220  145.9490 C   0  0  0  0  0  0  0  0  0  0  0  0
  185.8620  177.6160  145.3770 C   0  0  0  0  0  3  0  0  0  0  0  0
  178.9310  182.8820  134.8100 N   0  0  0  0  0  0  0  0  0  0  0  0
  179.2090  181.5680  134.6000 C   0  0  0  0  0  3  0  0  0  0  0  0
  179.6510  180.7690  135.6560 C   0  0  0  0  0  3  0  0  0  0  0  0
  179.8020  181.3220  136.9380 C   0  0  0  0  0  0  0  0  0  0  0  0
  179.0720  183.4500  136.0370 C   0  0  0  0  0  3  0  0  0  0  0  0
  179.5120  182.6830  137.1170 C   0  0  0  0  0  3  0  0  0  0  0  0
  180.8470  180.5650  143.0530 O   0  0  0  0  0  0  0  0  0  0  0  0
  180.2960  178.3590  143.3390 O   0  0  0  0  0  1  0  0  0  0  0  0
  180.6010  179.4470  142.5310 C   0  0  0  0  0  0  0  0  0  0  0  0
  187.9240  178.3740  142.0500 C   0  0  0  0  0  3  0  0  0  0  0  0
  189.1720  178.2400  141.6010 C   0  0  0  0  0  3  0  0  0  0  0  0
  190.8870  177.6840  144.7760 C   0  0  2  0  0  3  0  0  0  0  0  0
  190.2410  177.2910  145.9450 O   0  0  0  0  0  1  0  0  0  0  0  0
  190.9730  176.8190  142.5940 C   0  0  2  0  0  3  0  0  0  0  0  0
  190.3520  178.2020  142.5240 C   0  0  2  0  0  3  0  0  0  0  0  0
  189.9610  178.5320  143.9390 C   0  0  0  0  0  2  0  0  0  0  0  0
  191.2520  176.5080  143.9940 N   0  0  0  0  0  2  0  0  0  0  0  0
  192.2360  176.7900  141.7990 C   0  0  0  0  0  3  0  0  0  0  0  0
  192.2530  177.2310  140.5940 N   0  0  0  0  0  0  0  0  0  0  0  0
  194.5290  176.4220  140.5590 C   0  0  0  0  0  2  0  0  0  0  0  0
  193.4660  177.2070  139.8200 C   0  0  1  0  0  3  0  0  0  0  0  0
  194.5730  175.7510  138.3140 C   0  0  0  0  0  2  0  0  0  0  0  0
  193.2580  176.4540  138.5340 C   0  0  0  0  0  2  0  0  0  0  0  0
  195.1700  175.5060  139.6210 N   0  0  0  0  0  2  0  0  0  0  0  0
  186.0380  178.5560  137.4400 C   0  0  0  0  0  2  0  0  0  0  0  0
  187.2140  177.6750  137.0610 C   0  0  0  0  0  2  0  0  0  0  0  0
  186.7070  176.4320  136.3590 C   0  0  0  0  0  2  0  0  0  0  0  0
  187.9430  174.4030  136.6030 O   0  0  0  0  0  1  0  0  0  0  0  0
  188.8030  175.9210  135.1140 O   0  0  0  0  0  0  0  0  0  0  0  0
  187.8390  175.5200  136.0320 C   0  0  0  0  0  0  0  0  0  0  0  0
  1 12  1  0  0  0  0
  1 16  1  0  0  0  0
  2  5  1  0  0  0  0
  2  7  1  0  0  0  0
  3  5  2  0  0  0  0
  4 10  1  0  0  0  0
  5  8  1  0  0  0  0
  6 19  1  0  0  0  0
  7 15  1  0  0  0  0
  8  1  1  0  0  0  0
  9  8  1  0  0  0  0
  9  4  1  0  0  0  0
 10 16  1  0  0  0  0
 10  6  2  0  0  0  0
 11  4  2  0  0  0  0
 11 18  1  0  0  0  0
 12 34  1  0  0  0  0
 14  6  1  0  0  0  0
 14 35  1  0  0  0  0
 15 13  1  0  0  0  0
 15 12  1  0  0  0  0
 17 16  1  0  0  0  0
 18 14  2  0  0  0  0
 19 22  2  0  0  0  0
 19 20  1  0  0  0  0
 20 25  2  0  0  0  0
 22 23  1  0  0  0  0
 23 24  2  0  0  0  0
 24 21  1  0  0  0  0
 25 24  1  0  0  0  0
 26 30  1  0  0  0  0
 27 26  2  0  0  0  0
 27 28  1  0  0  0  0
 28 29  2  0  0  0  0
 29 31  1  0  0  0  0
 29  2  1  0  0  0  0
 30 31  2  0  0  0  0
 34 32  2  0  0  0  0
 34 33  1  0  0  0  0
 36 35  2  0  0  0  0
 36 40  1  0  0  0  0
 37 38  1  0  0  0  0
 39 42  1  0  0  0  0
 40 39  1  0  0  0  0
 40 41  1  0  0  0  0
 41 37  1  0  0  0  0
 42 37  1  0  0  0  0
 43 39  1  0  0  0  0
 44 43  2  0  0  0  0
 46 45  1  0  0  0  0
 46 44  1  0  0  0  0
 47 48  1  0  0  0  0
 47 49  1  0  0  0  0
 48 46  1  0  0  0  0
 49 45  1  0  0  0  0
 50 11  1  0  0  0  0
 51 50  1  0  0  0  0
 52 51  1  0  0  0  0
 54 55  2  0  0  0  0
 55 52  1  0  0  0  0
 55 53  1  0  0  0  0
M  END
>  <MODEL>
3

>  <REMARK>
 VINA RESULT:      -6.4      3.060      9.889
  Name = 
  11 active torsions:
  status: ('A' for Active; 'I' for Inactive)
    1  A    between atoms: C_2  and  C_20
    2  A    between atoms: C_2  and  C_27
    3  A    between atoms: N_7  and  C_41
    4  A    between atoms: C_13  and  C_16
    5  A    between atoms: C_20  and  C_44
    6  A    between atoms: C_23  and  N_33
    7  A    between atoms: C_26  and  C_32
    8  A    between atoms: C_28  and  C_53
    9  A    between atoms: C_30  and  C_44
   10  A    between atoms: C_34  and  C_36
   11  A    between atoms: C_38  and  C_46
                            x       y       z     vdW  Elec       q    Type
                         _______ _______ _______ _____ _____    ______ ____

>  <TORSDO>
F 11

$$$$
=
 OpenBabel10222417043D

 55 61  0  0  1  0  0  0  0  0999 V2000
  191.2620  174.9270  136.9660 N   0  0  1  0  0  0  0  0  0  0  0  0
  194.4800  174.4680  136.8630 N   0  0  0  0  0  0  0  0  0  0  0  0
  193.9110  176.5570  137.7550 O   0  0  0  0  0  0  0  0  0  0  0  0
  190.7150  176.3590  139.3220 C   0  0  0  0  0  0  0  0  0  0  0  0
  193.6010  175.3460  137.5880 C   0  0  0  0  0  0  0  0  0  0  0  0
  188.4650  176.8070  138.4960 C   0  0  0  0  0  0  0  0  0  0  0  0
  193.9070  173.3030  136.1900 C   0  0  0  0  0  2  0  0  0  0  0  0
  192.2640  174.8540  138.0640 C   0  0  1  0  0  3  0  0  0  0  0  0
  191.9020  175.6320  139.2190 O   0  0  0  0  0  0  0  0  0  0  0  0
  189.6820  176.0910  138.4310 C   0  0  0  0  0  0  0  0  0  0  0  0
  190.5620  177.3430  140.3050 C   0  0  0  0  0  0  0  0  0  0  0  0
  191.4010  173.7590  136.0530 C   0  0  2  0  0  3  0  0  0  0  0  0
  192.9940  174.8830  134.5970 O   0  0  0  0  0  1  0  0  0  0  0  0
  188.3210  177.8200  139.4790 C   0  0  0  0  0  0  0  0  0  0  0  0
  192.7350  173.7000  135.2960 C   0  0  1  0  0  3  0  0  0  0  0  0
  189.8900  174.9250  137.5230 C   0  0  2  0  0  3  0  0  0  0  0  0
  189.6220  173.7360  138.2150 O   0  0  0  0  0  1  0  0  0  0  0  0
  189.3740  178.0720  140.3710 C   0  0  0  0  0  3  0  0  0  0  0  0
  187.3660  176.4960  137.5500 C   0  0  0  0  0  0  0  0  0  0  0  0
  186.6540  175.2930  137.6640 C   0  0  0  0  0  3  0  0  0  0  0  0
  184.2710  175.6290  134.9090 F   0  0  0  0  0  0  0  0  0  0  0  0
  187.0220  177.4050  136.5380 C   0  0  0  0  0  3  0  0  0  0  0  0
  185.9820  177.1140  135.6500 C   0  0  0  0  0  3  0  0  0  0  0  0
  185.2780  175.9110  135.7700 C   0  0  0  0  0  0  0  0  0  0  0  0
  185.6140  175.0020  136.7760 C   0  0  0  0  0  3  0  0  0  0  0  0
  198.6320  175.1980  136.6090 N   0  0  0  0  0  0  0  0  0  0  0  0
  198.1630  174.3340  137.5470 C   0  0  0  0  0  3  0  0  0  0  0  0
  196.7940  174.0780  137.6430 C   0  0  0  0  0  3  0  0  0  0  0  0
  195.9010  174.7100  136.7630 C   0  0  0  0  0  0  0  0  0  0  0  0
  197.7930  175.8320  135.7460 C   0  0  0  0  0  3  0  0  0  0  0  0
  196.4180  175.6020  135.8100 C   0  0  0  0  0  3  0  0  0  0  0  0
  189.7920  174.7640  134.5950 O   0  0  0  0  0  1  0  0  0  0  0  0
  189.8100  172.4730  134.5940 O   0  0  0  0  0  0  0  0  0  0  0  0
  190.2950  173.6980  135.0330 C   0  0  0  0  0  0  0  0  0  0  0  0
  187.0880  178.6280  139.5520 C   0  0  0  0  0  3  0  0  0  0  0  0
  185.9670  178.2030  140.1350 C   0  0  0  0  0  3  0  0  0  0  0  0
  182.6960  179.3860  139.0220 C   0  0  2  0  0  3  0  0  0  0  0  0
  182.0510  178.9160  137.8800 O   0  0  0  0  0  1  0  0  0  0  0  0
  183.5990  178.3470  140.9250 C   0  0  2  0  0  3  0  0  0  0  0  0
  184.7300  179.0480  140.1940 C   0  0  2  0  0  3  0  0  0  0  0  0
  184.1910  179.3420  138.8210 C   0  0  0  0  0  2  0  0  0  0  0  0
  182.3680  178.5350  140.1600 N   0  0  0  0  0  2  0  0  0  0  0  0
  183.4460  178.9250  142.2940 C   0  0  0  0  0  3  0  0  0  0  0  0
  184.4140  178.8620  143.1340 N   0  0  0  0  0  0  0  0  0  0  0  0
  183.8490  178.3300  145.4220 C   0  0  0  0  0  2  0  0  0  0  0  0
  184.2750  179.4150  144.4560 C   0  0  1  0  0  3  0  0  0  0  0  0
  185.5490  179.5770  146.4470 C   0  0  0  0  0  2  0  0  0  0  0  0
  185.6060  179.8880  144.9740 C   0  0  0  0  0  2  0  0  0  0  0  0
  184.6730  178.4260  146.6240 N   0  0  0  0  0  2  0  0  0  0  0  0
  191.6670  177.6500  141.2600 C   0  0  0  0  0  2  0  0  0  0  0  0
  191.1190  177.7810  142.6690 C   0  0  0  0  0  2  0  0  0  0  0  0
  190.7340  176.4110  143.1890 C   0  0  0  0  0  2  0  0  0  0  0  0
  189.6000  177.0210  145.2010 O   0  0  0  0  0  1  0  0  0  0  0  0
  188.3150  175.9890  143.6070 O   0  0  0  0  0  0  0  0  0  0  0  0
  189.5250  176.5050  144.0550 C   0  0  0  0  0  0  0  0  0  0  0  0
  1 16  1  0  0  0  0
  1  8  1  0  0  0  0
  2  5  1  0  0  0  0
  4 11  1  0  0  0  0
  5  3  2  0  0  0  0
  5  8  1  0  0  0  0
  6 14  2  0  0  0  0
  7  2  1  0  0  0  0
  8  9  1  0  0  0  0
  9  4  1  0  0  0  0
 10  6  1  0  0  0  0
 10  4  2  0  0  0  0
 11 18  2  0  0  0  0
 11 50  1  0  0  0  0
 12  1  1  0  0  0  0
 13 15  1  0  0  0  0
 14 35  1  0  0  0  0
 14 18  1  0  0  0  0
 15 12  1  0  0  0  0
 15  7  1  0  0  0  0
 16 17  1  0  0  0  0
 16 10  1  0  0  0  0
 19 20  1  0  0  0  0
 19  6  1  0  0  0  0
 21 24  1  0  0  0  0
 22 19  2  0  0  0  0
 23 24  2  0  0  0  0
 23 22  1  0  0  0  0
 24 25  1  0  0  0  0
 25 20  2  0  0  0  0
 26 27  1  0  0  0  0
 27 28  2  0  0  0  0
 29  2  1  0  0  0  0
 29 28  1  0  0  0  0
 30 31  1  0  0  0  0
 30 26  2  0  0  0  0
 31 29  2  0  0  0  0
 32 34  1  0  0  0  0
 33 34  2  0  0  0  0
 34 12  1  0  0  0  0
 35 36  2  0  0  0  0
 36 40  1  0  0  0  0
 37 42  1  0  0  0  0
 38 37  1  0  0  0  0
 39 43  1  0  0  0  0
 40 39  1  0  0  0  0
 41 37  1  0  0  0  0
 41 40  1  0  0  0  0
 42 39  1  0  0  0  0
 43 44  2  0  0  0  0
 44 46  1  0  0  0  0
 45 49  1  0  0  0  0
 46 48  1  0  0  0  0
 46 45  1  0  0  0  0
 47 49  1  0  0  0  0
 48 47  1  0  0  0  0
 50 51  1  0  0  0  0
 51 52  1  0  0  0  0
 52 55  1  0  0  0  0
 54 55  2  0  0  0  0
 55 53  1  0  0  0  0
M  END
>  <MODEL>
4

>  <REMARK>
 VINA RESULT:      -6.1      4.042      8.457
  Name = 
  11 active torsions:
  status: ('A' for Active; 'I' for Inactive)
    1  A    between atoms: C_2  and  C_20
    2  A    between atoms: C_2  and  C_27
    3  A    between atoms: N_7  and  C_41
    4  A    between atoms: C_13  and  C_16
    5  A    between atoms: C_20  and  C_44
    6  A    between atoms: C_23  and  N_33
    7  A    between atoms: C_26  and  C_32
    8  A    between atoms: C_28  and  C_53
    9  A    between atoms: C_30  and  C_44
   10  A    between atoms: C_34  and  C_36
   11  A    between atoms: C_38  and  C_46
                            x       y       z     vdW  Elec       q    Type
                         _______ _______ _______ _____ _____    ______ ____

>  <TORSDO>
F 11

$$$$
=
 OpenBabel10222417043D

 55 61  0  0  1  0  0  0  0  0999 V2000
  186.1900  178.4510  143.7190 N   0  0  1  0  0  0  0  0  0  0  0  0
  188.9440  177.5900  145.2200 N   0  0  0  0  0  0  0  0  0  0  0  0
  188.6950  176.5290  143.1470 O   0  0  0  0  0  0  0  0  0  0  0  0
  186.7650  178.5910  140.9720 C   0  0  0  0  0  0  0  0  0  0  0  0
  188.4670  177.5410  143.8630 C   0  0  0  0  0  0  0  0  0  0  0  0
  184.3740  178.6740  140.5030 C   0  0  0  0  0  0  0  0  0  0  0  0
  188.2300  178.4280  146.1840 C   0  0  0  0  0  2  0  0  0  0  0  0
  187.6110  178.6510  143.3230 C   0  0  1  0  0  3  0  0  0  0  0  0
  187.8040  178.6920  141.8980 O   0  0  0  0  0  0  0  0  0  0  0  0
  185.4570  178.7730  141.4060 C   0  0  0  0  0  0  0  0  0  0  0  0
  187.0300  178.3100  139.6260 C   0  0  0  0  0  0  0  0  0  0  0  0
  185.9660  178.9170  145.1150 C   0  0  2  0  0  3  0  0  0  0  0  0
  186.4850  176.7500  146.0930 O   0  0  0  0  0  1  0  0  0  0  0  0
  184.6430  178.3660  139.1450 C   0  0  0  0  0  0  0  0  0  0  0  0
  186.7350  178.1230  146.1820 C   0  0  1  0  0  3  0  0  0  0  0  0
  185.2950  179.2150  142.8210 C   0  0  2  0  0  3  0  0  0  0  0  0
  185.5340  180.5920  142.9150 O   0  0  0  0  0  1  0  0  0  0  0  0
  185.9710  178.1900  138.7270 C   0  0  0  0  0  3  0  0  0  0  0  0
  182.9850  178.8890  140.9780 C   0  0  0  0  0  0  0  0  0  0  0  0
  182.1440  179.7960  140.3160 C   0  0  0  0  0  3  0  0  0  0  0  0
  179.0840  179.4840  142.2960 F   0  0  0  0  0  0  0  0  0  0  0  0
  182.4970  178.1830  142.0870 C   0  0  0  0  0  3  0  0  0  0  0  0
  181.1860  178.3830  142.5310 C   0  0  0  0  0  3  0  0  0  0  0  0
  180.3540  179.2900  141.8660 C   0  0  0  0  0  0  0  0  0  0  0  0
  180.8330  179.9950  140.7590 C   0  0  0  0  0  3  0  0  0  0  0  0
  192.2700  175.3210  146.4940 N   0  0  0  0  0  0  0  0  0  0  0  0
  192.1340  175.6210  145.1750 C   0  0  0  0  0  3  0  0  0  0  0  0
  191.0420  176.3730  144.7380 C   0  0  0  0  0  3  0  0  0  0  0  0
  190.0880  176.8260  145.6620 C   0  0  0  0  0  0  0  0  0  0  0  0
  191.3600  175.7380  147.4140 C   0  0  0  0  0  3  0  0  0  0  0  0
  190.2560  176.4920  147.0150 C   0  0  0  0  0  3  0  0  0  0  0  0
  184.1390  178.2560  146.5110 O   0  0  0  0  0  1  0  0  0  0  0  0
  183.5720  179.5700  144.7210 O   0  0  0  0  0  0  0  0  0  0  0  0
  184.5100  178.9000  145.4960 C   0  0  0  0  0  0  0  0  0  0  0  0
  183.5410  178.2020  138.1760 C   0  0  0  0  0  3  0  0  0  0  0  0
  183.6530  177.4980  137.0500 C   0  0  0  0  0  3  0  0  0  0  0  0
  180.7450  175.8560  135.5740 C   0  0  2  0  0  3  0  0  0  0  0  0
  180.2510  174.6260  136.0020 O   0  0  0  0  0  1  0  0  0  0  0  0
  181.2150  177.8860  136.6570 C   0  0  2  0  0  3  0  0  0  0  0  0
  182.5150  177.3490  136.0870 C   0  0  2  0  0  3  0  0  0  0  0  0
  182.2400  175.9040  135.7700 C   0  0  0  0  0  2  0  0  0  0  0  0
  180.1510  176.9270  136.3660 N   0  0  0  0  0  2  0  0  0  0  0  0
  180.8990  179.2080  136.0400 C   0  0  0  0  0  3  0  0  0  0  0  0
  179.8650  179.8680  136.4170 N   0  0  0  0  0  0  0  0  0  0  0  0
  179.6290  182.2280  136.8810 C   0  0  0  0  0  2  0  0  0  0  0  0
  179.5520  181.1430  135.8270 C   0  0  1  0  0  3  0  0  0  0  0  0
  180.7070  183.0200  134.9570 C   0  0  0  0  0  2  0  0  0  0  0  0
  180.5920  181.5250  134.8090 C   0  0  0  0  0  2  0  0  0  0  0  0
  180.3770  183.3560  136.3360 N   0  0  0  0  0  2  0  0  0  0  0  0
  188.4280  178.0990  139.1500 C   0  0  0  0  0  2  0  0  0  0  0  0
  188.5160  176.8200  138.3380 C   0  0  0  0  0  2  0  0  0  0  0  0
  188.9230  177.1530  136.9160 C   0  0  0  0  0  2  0  0  0  0  0  0
  189.4740  174.9830  136.0830 O   0  0  0  0  0  1  0  0  0  0  0  0
  187.6670  175.9990  135.1010 O   0  0  0  0  0  0  0  0  0  0  0  0
  188.7050  175.9790  136.0240 C   0  0  0  0  0  0  0  0  0  0  0  0
  1 12  1  0  0  0  0
  2 29  1  0  0  0  0
  2  7  1  0  0  0  0
  3  5  2  0  0  0  0
  4 10  1  0  0  0  0
  4  9  1  0  0  0  0
  5  2  1  0  0  0  0
  6 19  1  0  0  0  0
  6 10  2  0  0  0  0
  8  1  1  0  0  0  0
  8  5  1  0  0  0  0
  9  8  1  0  0  0  0
 10 16  1  0  0  0  0
 11  4  2  0  0  0  0
 12 34  1  0  0  0  0
 12 15  1  0  0  0  0
 13 15  1  0  0  0  0
 14  6  1  0  0  0  0
 15  7  1  0  0  0  0
 16 17  1  0  0  0  0
 16  1  1  0  0  0  0
 18 14  2  0  0  0  0
 18 11  1  0  0  0  0
 19 22  1  0  0  0  0
 20 25  1  0  0  0  0
 20 19  2  0  0  0  0
 22 23  2  0  0  0  0
 24 21  1  0  0  0  0
 24 23  1  0  0  0  0
 25 24  2  0  0  0  0
 26 30  1  0  0  0  0
 27 26  2  0  0  0  0
 28 27  1  0  0  0  0
 28 29  2  0  0  0  0
 29 31  1  0  0  0  0
 31 30  2  0  0  0  0
 33 34  2  0  0  0  0
 34 32  1  0  0  0  0
 35 14  1  0  0  0  0
 36 35  2  0  0  0  0
 37 41  1  0  0  0  0
 37 38  1  0  0  0  0
 37 42  1  0  0  0  0
 40 39  1  0  0  0  0
 40 36  1  0  0  0  0
 41 40  1  0  0  0  0
 42 39  1  0  0  0  0
 43 44  2  0  0  0  0
 43 39  1  0  0  0  0
 46 44  1  0  0  0  0
 46 45  1  0  0  0  0
 47 49  1  0  0  0  0
 48 47  1  0  0  0  0
 48 46  1  0  0  0  0
 49 45  1  0  0  0  0
 50 11  1  0  0  0  0
 51 50  1  0  0  0  0
 52 51  1  0  0  0  0
 54 55  2  0  0  0  0
 55 53  1  0  0  0  0
 55 52  1  0  0  0  0
M  END
>  <MODEL>
5

>  <REMARK>
 VINA RESULT:      -5.3      1.217      1.557
  Name = 
  11 active torsions:
  status: ('A' for Active; 'I' for Inactive)
    1  A    between atoms: C_2  and  C_20
    2  A    between atoms: C_2  and  C_27
    3  A    between atoms: N_7  and  C_41
    4  A    between atoms: C_13  and  C_16
    5  A    between atoms: C_20  and  C_44
    6  A    between atoms: C_23  and  N_33
    7  A    between atoms: C_26  and  C_32
    8  A    between atoms: C_28  and  C_53
    9  A    between atoms: C_30  and  C_44
   10  A    between atoms: C_34  and  C_36
   11  A    between atoms: C_38  and  C_46
                            x       y       z     vdW  Elec       q    Type
                         _______ _______ _______ _____ _____    ______ ____

>  <TORSDO>
F 11

$$$$
=
 OpenBabel10222417043D

 55 61  0  0  1  0  0  0  0  0999 V2000
  186.0260  178.3010  143.3160 N   0  0  1  0  0  0  0  0  0  0  0  0
  188.7600  177.5760  144.9210 N   0  0  0  0  0  0  0  0  0  0  0  0
  188.6680  176.5470  142.8190 O   0  0  0  0  0  0  0  0  0  0  0  0
  186.7100  178.5350  140.5990 C   0  0  0  0  0  0  0  0  0  0  0  0
  188.3470  177.5290  143.5440 C   0  0  0  0  0  0  0  0  0  0  0  0
  184.3410  178.4830  140.0260 C   0  0  0  0  0  0  0  0  0  0  0  0
  187.9550  178.3480  145.8680 C   0  0  0  0  0  2  0  0  0  0  0  0
  187.4480  178.5950  142.9860 C   0  0  1  0  0  3  0  0  0  0  0  0
  187.7000  178.6790  141.5730 O   0  0  0  0  0  0  0  0  0  0  0  0
  185.3750  178.6280  140.9780 C   0  0  0  0  0  0  0  0  0  0  0  0
  187.0500  178.3000  139.2620 C   0  0  0  0  0  0  0  0  0  0  0  0
  185.7140  178.7220  144.7090 C   0  0  2  0  0  3  0  0  0  0  0  0
  186.3220  176.5700  145.6680 O   0  0  0  0  0  1  0  0  0  0  0  0
  184.6880  178.2220  138.6750 C   0  0  0  0  0  0  0  0  0  0  0  0
  186.4820  177.9540  145.7930 C   0  0  1  0  0  3  0  0  0  0  0  0
  185.1250  179.0290  142.3930 C   0  0  2  0  0  3  0  0  0  0  0  0
  185.2740  180.4160  142.5230 O   0  0  0  0  0  1  0  0  0  0  0  0
  186.0410  178.1360  138.3140 C   0  0  0  0  0  3  0  0  0  0  0  0
  182.9230  178.6030  140.4420 C   0  0  0  0  0  0  0  0  0  0  0  0
  182.2040  179.7770  140.1730 C   0  0  0  0  0  3  0  0  0  0  0  0
  178.9390  178.9390  141.5930 F   0  0  0  0  0  0  0  0  0  0  0  0
  182.2830  177.5420  141.1010 C   0  0  0  0  0  3  0  0  0  0  0  0
  180.9450  177.6550  141.4880 C   0  0  0  0  0  3  0  0  0  0  0  0
  180.2350  178.8290  141.2170 C   0  0  0  0  0  0  0  0  0  0  0  0
  180.8650  179.8890  140.5600 C   0  0  0  0  0  3  0  0  0  0  0  0
  192.1930  175.5610  146.3300 N   0  0  0  0  0  0  0  0  0  0  0  0
  191.3810  176.1930  147.2170 C   0  0  0  0  0  3  0  0  0  0  0  0
  190.2400  176.8620  146.7690 C   0  0  0  0  0  3  0  0  0  0  0  0
  189.9280  176.8740  145.4000 C   0  0  0  0  0  0  0  0  0  0  0  0
  191.9240  175.5590  144.9970 C   0  0  0  0  0  3  0  0  0  0  0  0
  190.7920  176.2160  144.5110 C   0  0  0  0  0  3  0  0  0  0  0  0
  183.4250  178.3890  144.0960 O   0  0  0  0  0  0  0  0  0  0  0  0
  183.7910  178.7700  146.3260 O   0  0  0  0  0  1  0  0  0  0  0  0
  184.2460  178.6090  145.0240 C   0  0  0  0  0  0  0  0  0  0  0  0
  183.6410  178.0120  137.6560 C   0  0  0  0  0  3  0  0  0  0  0  0
  182.4050  177.6050  137.9470 C   0  0  0  0  0  3  0  0  0  0  0  0
  180.0440  178.6530  135.3670 C   0  0  2  0  0  3  0  0  0  0  0  0
  179.8120  179.9840  135.0250 O   0  0  0  0  0  1  0  0  0  0  0  0
  181.9730  177.3200  135.5010 C   0  0  2  0  0  3  0  0  0  0  0  0
  181.3630  177.4020  136.8890 C   0  0  2  0  0  3  0  0  0  0  0  0
  180.3990  178.5550  136.8300 C   0  0  0  0  0  2  0  0  0  0  0  0
  181.1660  178.1340  134.5940 N   0  0  0  0  0  2  0  0  0  0  0  0
  181.9920  175.9010  135.0380 C   0  0  0  0  0  3  0  0  0  0  0  0
  182.8950  175.0940  135.4630 N   0  0  0  0  0  0  0  0  0  0  0  0
  183.4710  172.8420  136.1240 C   0  0  0  0  0  2  0  0  0  0  0  0
  182.9210  173.7240  135.0220 C   0  0  1  0  0  3  0  0  0  0  0  0
  181.5890  171.7760  135.2240 C   0  0  0  0  0  2  0  0  0  0  0  0
  181.5250  173.2160  134.7860 C   0  0  0  0  0  2  0  0  0  0  0  0
  182.6120  171.6700  136.2550 N   0  0  0  0  0  2  0  0  0  0  0  0
  188.4780  178.1850  138.8440 C   0  0  0  0  0  2  0  0  0  0  0  0
  189.1720  177.1020  139.6480 C   0  0  0  0  0  2  0  0  0  0  0  0
  190.0460  176.2730  138.7290 C   0  0  0  0  0  2  0  0  0  0  0  0
  192.1860  176.7330  137.7730 O   0  0  0  0  0  0  0  0  0  0  0  0
  191.9940  177.1250  140.0250 O   0  0  0  0  0  1  0  0  0  0  0  0
  191.4620  176.7300  138.8040 C   0  0  0  0  0  0  0  0  0  0  0  0
  1 12  1  0  0  0  0
  2 29  1  0  0  0  0
  2  7  1  0  0  0  0
  3  5  2  0  0  0  0
  4 10  1  0  0  0  0
  4  9  1  0  0  0  0
  5  2  1  0  0  0  0
  6 19  1  0  0  0  0
  6 10  2  0  0  0  0
  8  1  1  0  0  0  0
  8  5  1  0  0  0  0
  9  8  1  0  0  0  0
 10 16  1  0  0  0  0
 11  4  2  0  0  0  0
 12 34  1  0  0  0  0
 12 15  1  0  0  0  0
 13 15  1  0  0  0  0
 14  6  1  0  0  0  0
 15  7  1  0  0  0  0
 16 17  1  0  0  0  0
 16  1  1  0  0  0  0
 18 14  2  0  0  0  0
 18 11  1  0  0  0  0
 19 22  1  0  0  0  0
 20 19  2  0  0  0  0
 20 25  1  0  0  0  0
 22 23  2  0  0  0  0
 24 23  1  0  0  0  0
 24 21  1  0  0  0  0
 25 24  2  0  0  0  0
 26 27  1  0  0  0  0
 28 27  2  0  0  0  0
 29 28  1  0  0  0  0
 30 26  2  0  0  0  0
 31 30  1  0  0  0  0
 31 29  2  0  0  0  0
 32 34  2  0  0  0  0
 34 33  1  0  0  0  0
 35 36  2  0  0  0  0
 35 14  1  0  0  0  0
 37 41  1  0  0  0  0
 38 37  1  0  0  0  0
 39 40  1  0  0  0  0
 40 36  1  0  0  0  0
 41 40  1  0  0  0  0
 42 37  1  0  0  0  0
 42 39  1  0  0  0  0
 43 44  2  0  0  0  0
 43 39  1  0  0  0  0
 45 49  1  0  0  0  0
 46 44  1  0  0  0  0
 46 45  1  0  0  0  0
 47 49  1  0  0  0  0
 48 46  1  0  0  0  0
 48 47  1  0  0  0  0
 50 11  1  0  0  0  0
 50 51  1  0  0  0  0
 52 55  1  0  0  0  0
 52 51  1  0  0  0  0
 53 55  2  0  0  0  0
 55 54  1  0  0  0  0
M  END
>  <MODEL>
6

>  <REMARK>
 VINA RESULT:      -5.3      1.682      3.290
  Name = 
  11 active torsions:
  status: ('A' for Active; 'I' for Inactive)
    1  A    between atoms: C_2  and  C_20
    2  A    between atoms: C_2  and  C_27
    3  A    between atoms: N_7  and  C_41
    4  A    between atoms: C_13  and  C_16
    5  A    between atoms: C_20  and  C_44
    6  A    between atoms: C_23  and  N_33
    7  A    between atoms: C_26  and  C_32
    8  A    between atoms: C_28  and  C_53
    9  A    between atoms: C_30  and  C_44
   10  A    between atoms: C_34  and  C_36
   11  A    between atoms: C_38  and  C_46
                            x       y       z     vdW  Elec       q    Type
                         _______ _______ _______ _____ _____    ______ ____

>  <TORSDO>
F 11

$$$$
=
 OpenBabel10222417043D

 55 61  0  0  1  0  0  0  0  0999 V2000
  190.6380  176.1680  137.0280 N   0  0  1  0  0  0  0  0  0  0  0  0
  193.6980  175.5290  136.1300 N   0  0  0  0  0  0  0  0  0  0  0  0
  193.5960  177.0270  137.9290 O   0  0  0  0  0  0  0  0  0  0  0  0
  190.6410  176.4160  139.8280 C   0  0  0  0  0  0  0  0  0  0  0  0
  193.0750  176.0550  137.3160 C   0  0  0  0  0  0  0  0  0  0  0  0
  188.4060  177.3830  139.7190 C   0  0  0  0  0  0  0  0  0  0  0  0
  192.8610  174.8510  135.1410 C   0  0  0  0  0  2  0  0  0  0  0  0
  191.7490  175.5180  137.7750 C   0  0  1  0  0  3  0  0  0  0  0  0
  191.6720  175.7160  139.1980 O   0  0  0  0  0  0  0  0  0  0  0  0
  189.4720  176.6720  139.1210 C   0  0  0  0  0  0  0  0  0  0  0  0
  190.7790  176.8570  141.1500 C   0  0  0  0  0  0  0  0  0  0  0  0
  190.4660  175.5350  135.6920 C   0  0  2  0  0  3  0  0  0  0  0  0
  192.0170  177.0540  134.5940 O   0  0  0  0  0  1  0  0  0  0  0  0
  188.5570  177.8480  141.0500 C   0  0  0  0  0  0  0  0  0  0  0  0
  191.6620  175.7100  134.7460 C   0  0  1  0  0  3  0  0  0  0  0  0
  189.3680  176.0320  137.7780 C   0  0  2  0  0  3  0  0  0  0  0  0
  189.0030  174.6880  137.9230 O   0  0  0  0  0  1  0  0  0  0  0  0
  189.7440  177.5750  141.7470 C   0  0  0  0  0  3  0  0  0  0  0  0
  187.1580  177.6320  138.9580 C   0  0  0  0  0  0  0  0  0  0  0  0
  187.0590  177.2420  137.6140 C   0  0  0  0  0  3  0  0  0  0  0  0
  183.6510  178.3120  136.8250 F   0  0  0  0  0  0  0  0  0  0  0  0
  186.0610  178.2520  139.5760 C   0  0  0  0  0  3  0  0  0  0  0  0
  184.8820  178.4810  138.8590 C   0  0  0  0  0  3  0  0  0  0  0  0
  184.7930  178.0890  137.5190 C   0  0  0  0  0  0  0  0  0  0  0  0
  185.8800  177.4710  136.8980 C   0  0  0  0  0  3  0  0  0  0  0  0
  197.8420  175.9490  135.4350 N   0  0  0  0  0  0  0  0  0  0  0  0
  197.4080  175.0340  136.3400 C   0  0  0  0  0  3  0  0  0  0  0  0
  196.0410  174.8790  136.5800 C   0  0  0  0  0  3  0  0  0  0  0  0
  195.1140  175.6670  135.8790 C   0  0  0  0  0  0  0  0  0  0  0  0
  196.9710  176.7320  134.7430 C   0  0  0  0  0  3  0  0  0  0  0  0
  195.5970  176.6070  134.9550 C   0  0  0  0  0  3  0  0  0  0  0  0
  188.3110  175.2400  134.6950 O   0  0  0  0  0  1  0  0  0  0  0  0
  189.1440  177.3730  134.6000 O   0  0  0  0  0  0  0  0  0  0  0  0
  189.2410  176.0390  134.9750 C   0  0  0  0  0  0  0  0  0  0  0  0
  187.4910  178.6380  141.6980 C   0  0  0  0  0  3  0  0  0  0  0  0
  186.5960  178.1140  142.5350 C   0  0  0  0  0  3  0  0  0  0  0  0
  183.2070  179.4010  142.9740 C   0  0  2  0  0  3  0  0  0  0  0  0
  182.1360  179.0570  142.1530 O   0  0  0  0  0  1  0  0  0  0  0  0
  184.7580  178.1630  144.2300 C   0  0  2  0  0  3  0  0  0  0  0  0
  185.5250  178.9430  143.1770 C   0  0  2  0  0  3  0  0  0  0  0  0
  184.4890  179.3840  142.1790 C   0  0  0  0  0  2  0  0  0  0  0  0
  183.3320  178.4290  144.0540 N   0  0  0  0  0  2  0  0  0  0  0  0
  185.1960  178.5860  145.5930 C   0  0  0  0  0  3  0  0  0  0  0  0
  186.0970  177.9200  146.2190 N   0  0  0  0  0  0  0  0  0  0  0  0
  186.8760  177.0940  148.3520 C   0  0  0  0  0  2  0  0  0  0  0  0
  186.5250  178.3190  147.5340 C   0  0  1  0  0  3  0  0  0  0  0  0
  188.5560  178.6920  148.6940 C   0  0  0  0  0  2  0  0  0  0  0  0
  187.8030  179.1090  147.4570 C   0  0  0  0  0  2  0  0  0  0  0  0
  188.1490  177.3330  149.0260 N   0  0  0  0  0  2  0  0  0  0  0  0
  192.0340  176.6000  141.9150 C   0  0  0  0  0  2  0  0  0  0  0  0
  191.9200  177.1760  143.3140 C   0  0  0  0  0  2  0  0  0  0  0  0
  191.6810  176.0540  144.3030 C   0  0  0  0  0  2  0  0  0  0  0  0
  190.0400  176.9740  145.7750 O   0  0  0  0  0  0  0  0  0  0  0  0
  192.1450  176.7350  146.6540 O   0  0  0  0  0  1  0  0  0  0  0  0
  191.2330  176.6030  145.6140 C   0  0  0  0  0  0  0  0  0  0  0  0
  1  8  1  0  0  0  0
  1 16  1  0  0  0  0
  2  5  1  0  0  0  0
  4 11  1  0  0  0  0
  5  8  1  0  0  0  0
  5  3  2  0  0  0  0
  6 14  2  0  0  0  0
  7  2  1  0  0  0  0
  8  9  1  0  0  0  0
  9  4  1  0  0  0  0
 10  6  1  0  0  0  0
 10  4  2  0  0  0  0
 11 18  2  0  0  0  0
 11 50  1  0  0  0  0
 12  1  1  0  0  0  0
 13 15  1  0  0  0  0
 14 35  1  0  0  0  0
 14 18  1  0  0  0  0
 15  7  1  0  0  0  0
 15 12  1  0  0  0  0
 16 17  1  0  0  0  0
 16 10  1  0  0  0  0
 19 22  1  0  0  0  0
 19  6  1  0  0  0  0
 20 19  2  0  0  0  0
 21 24  1  0  0  0  0
 23 22  2  0  0  0  0
 24 23  1  0  0  0  0
 25 24  2  0  0  0  0
 25 20  1  0  0  0  0
 26 27  1  0  0  0  0
 27 28  2  0  0  0  0
 29  2  1  0  0  0  0
 29 28  1  0  0  0  0
 30 31  1  0  0  0  0
 30 26  2  0  0  0  0
 31 29  2  0  0  0  0
 32 34  1  0  0  0  0
 33 34  2  0  0  0  0
 34 12  1  0  0  0  0
 35 36  2  0  0  0  0
 36 40  1  0  0  0  0
 37 42  1  0  0  0  0
 38 37  1  0  0  0  0
 39 43  1  0  0  0  0
 40 39  1  0  0  0  0
 41 37  1  0  0  0  0
 41 40  1  0  0  0  0
 42 39  1  0  0  0  0
 43 44  2  0  0  0  0
 44 46  1  0  0  0  0
 45 49  1  0  0  0  0
 46 45  1  0  0  0  0
 47 49  1  0  0  0  0
 48 46  1  0  0  0  0
 48 47  1  0  0  0  0
 50 51  1  0  0  0  0
 51 52  1  0  0  0  0
 52 55  1  0  0  0  0
 55 53  2  0  0  0  0
 55 54  1  0  0  0  0
M  END
>  <MODEL>
7

>  <REMARK>
 VINA RESULT:      -4.9      3.782      9.263
  Name = 
  11 active torsions:
  status: ('A' for Active; 'I' for Inactive)
    1  A    between atoms: C_2  and  C_20
    2  A    between atoms: C_2  and  C_27
    3  A    between atoms: N_7  and  C_41
    4  A    between atoms: C_13  and  C_16
    5  A    between atoms: C_20  and  C_44
    6  A    between atoms: C_23  and  N_33
    7  A    between atoms: C_26  and  C_32
    8  A    between atoms: C_28  and  C_53
    9  A    between atoms: C_30  and  C_44
   10  A    between atoms: C_34  and  C_36
   11  A    between atoms: C_38  and  C_46
                            x       y       z     vdW  Elec       q    Type
                         _______ _______ _______ _____ _____    ______ ____

>  <TORSDO>
F 11

$$$$
=
 OpenBabel10222417043D

 55 61  0  0  1  0  0  0  0  0999 V2000
  185.3650  177.2560  137.9560 N   0  0  1  0  0  0  0  0  0  0  0  0
  182.6860  176.5170  136.2670 N   0  0  0  0  0  0  0  0  0  0  0  0
  182.4430  176.0700  138.5530 O   0  0  0  0  0  0  0  0  0  0  0  0
  184.5150  178.2820  140.4310 C   0  0  0  0  0  0  0  0  0  0  0  0
  182.9760  176.7740  137.6520 C   0  0  0  0  0  0  0  0  0  0  0  0
  186.7910  178.0590  141.2750 C   0  0  0  0  0  0  0  0  0  0  0  0
  183.6780  176.8970  135.2610 C   0  0  0  0  0  2  0  0  0  0  0  0
  183.9890  177.8170  138.0320 C   0  0  1  0  0  3  0  0  0  0  0  0
  183.6420  178.3000  139.3410 O   0  0  0  0  0  0  0  0  0  0  0  0
  185.8730  178.0900  140.2010 C   0  0  0  0  0  0  0  0  0  0  0  0
  184.0360  178.4530  141.7350 C   0  0  0  0  0  0  0  0  0  0  0  0
  185.8510  177.2520  136.5490 C   0  0  2  0  0  3  0  0  0  0  0  0
  184.9800  175.0280  136.0840 O   0  0  0  0  0  1  0  0  0  0  0  0
  186.3010  178.2090  142.5970 C   0  0  0  0  0  0  0  0  0  0  0  0
  185.0570  176.3390  135.6040 C   0  0  1  0  0  3  0  0  0  0  0  0
  186.2960  178.0690  138.7710 C   0  0  2  0  0  3  0  0  0  0  0  0
  186.3840  179.3810  138.2860 O   0  0  0  0  0  1  0  0  0  0  0  0
  184.9270  178.4060  142.8070 C   0  0  0  0  0  3  0  0  0  0  0  0
  188.2380  177.8720  141.0130 C   0  0  0  0  0  0  0  0  0  0  0  0
  189.1740  178.0640  142.0400 C   0  0  0  0  0  3  0  0  0  0  0  0
  192.2990  177.3310  140.2850 F   0  0  0  0  0  0  0  0  0  0  0  0
  188.6860  177.4930  139.7380 C   0  0  0  0  0  3  0  0  0  0  0  0
  190.0500  177.3110  139.4930 C   0  0  0  0  0  3  0  0  0  0  0  0
  190.9770  177.5060  140.5230 C   0  0  0  0  0  0  0  0  0  0  0  0
  190.5390  177.8830  141.7950 C   0  0  0  0  0  3  0  0  0  0  0  0
  179.1220  174.6510  134.9820 N   0  0  0  0  0  0  0  0  0  0  0  0
  180.2630  173.9180  135.0730 C   0  0  0  0  0  3  0  0  0  0  0  0
  181.4490  174.5180  135.4990 C   0  0  0  0  0  3  0  0  0  0  0  0
  181.4610  175.8800  135.8410 C   0  0  0  0  0  0  0  0  0  0  0  0
  179.1010  175.9730  135.3000 C   0  0  0  0  0  3  0  0  0  0  0  0
  180.2670  176.6080  135.7300 C   0  0  0  0  0  3  0  0  0  0  0  0
  187.6820  175.7530  136.9040 O   0  0  0  0  0  1  0  0  0  0  0  0
  188.2250  177.7270  135.8750 O   0  0  0  0  0  0  0  0  0  0  0  0
  187.3010  176.8610  136.4470 C   0  0  0  0  0  0  0  0  0  0  0  0
  187.2160  178.1330  143.7540 C   0  0  0  0  0  3  0  0  0  0  0  0
  186.8390  178.3950  145.0050 C   0  0  0  0  0  3  0  0  0  0  0  0
  187.7800  178.2300  148.5290 C   0  0  2  0  0  3  0  0  0  0  0  0
  186.8650  178.2840  149.5780 O   0  0  0  0  0  1  0  0  0  0  0  0
  187.9910  176.8750  146.6220 C   0  0  2  0  0  3  0  0  0  0  0  0
  187.7910  178.3070  146.1590 C   0  0  2  0  0  3  0  0  0  0  0  0
  187.2740  179.0440  147.3650 C   0  0  0  0  0  2  0  0  0  0  0  0
  187.9370  176.8500  148.0820 N   0  0  0  0  0  2  0  0  0  0  0  0
  189.3140  176.3700  146.1480 C   0  0  0  0  0  3  0  0  0  0  0  0
  190.3190  177.1630  146.0690 N   0  0  0  0  0  0  0  0  0  0  0  0
  192.1220  175.6350  146.5690 C   0  0  0  0  0  2  0  0  0  0  0  0
  191.5980  176.6860  145.6130 C   0  0  1  0  0  3  0  0  0  0  0  0
  192.4650  174.8540  144.3860 C   0  0  0  0  0  2  0  0  0  0  0  0
  191.4570  175.9700  144.2970 C   0  0  0  0  0  2  0  0  0  0  0  0
  192.6150  174.5010  145.7920 N   0  0  0  0  0  2  0  0  0  0  0  0
  182.5800  178.6470  141.9960 C   0  0  0  0  0  2  0  0  0  0  0  0
  182.3780  179.3930  143.3010 C   0  0  0  0  0  2  0  0  0  0  0  0
  181.4110  178.6230  144.1780 C   0  0  0  0  0  2  0  0  0  0  0  0
  179.7660  180.0500  143.1980 O   0  0  0  0  0  0  0  0  0  0  0  0
  178.9560  178.2470  144.3610 O   0  0  0  0  0  1  0  0  0  0  0  0
  180.0060  179.0130  143.8720 C   0  0  0  0  0  0  0  0  0  0  0  0
  1  8  1  0  0  0  0
  1 16  1  0  0  0  0
  2  5  1  0  0  0  0
  4 11  1  0  0  0  0
  5  8  1  0  0  0  0
  5  3  2  0  0  0  0
  6 14  2  0  0  0  0
  7 15  1  0  0  0  0
  7  2  1  0  0  0  0
  8  9  1  0  0  0  0
  9  4  1  0  0  0  0
 10  4  2  0  0  0  0
 10  6  1  0  0  0  0
 11 50  1  0  0  0  0
 11 18  2  0  0  0  0
 12  1  1  0  0  0  0
 14 18  1  0  0  0  0
 14 35  1  0  0  0  0
 15 13  1  0  0  0  0
 15 12  1  0  0  0  0
 16 10  1  0  0  0  0
 17 16  1  0  0  0  0
 19  6  1  0  0  0  0
 19 20  1  0  0  0  0
 21 24  1  0  0  0  0
 22 19  2  0  0  0  0
 23 22  1  0  0  0  0
 23 24  2  0  0  0  0
 24 25  1  0  0  0  0
 25 20  2  0  0  0  0
 26 27  2  0  0  0  0
 26 30  1  0  0  0  0
 27 28  1  0  0  0  0
 28 29  2  0  0  0  0
 29  2  1  0  0  0  0
 30 31  2  0  0  0  0
 31 29  1  0  0  0  0
 33 34  2  0  0  0  0
 34 12  1  0  0  0  0
 34 32  1  0  0  0  0
 35 36  2  0  0  0  0
 36 40  1  0  0  0  0
 37 38  1  0  0  0  0
 39 42  1  0  0  0  0
 40 39  1  0  0  0  0
 40 41  1  0  0  0  0
 41 37  1  0  0  0  0
 42 37  1  0  0  0  0
 43 39  1  0  0  0  0
 44 43  2  0  0  0  0
 46 44  1  0  0  0  0
 46 45  1  0  0  0  0
 47 49  1  0  0  0  0
 48 47  1  0  0  0  0
 48 46  1  0  0  0  0
 49 45  1  0  0  0  0
 50 51  1  0  0  0  0
 51 52  1  0  0  0  0
 53 55  2  0  0  0  0
 55 52  1  0  0  0  0
 55 54  1  0  0  0  0
M  END
>  <MODEL>
8

>  <REMARK>
 VINA RESULT:      -4.8      3.189     11.134
  Name = 
  11 active torsions:
  status: ('A' for Active; 'I' for Inactive)
    1  A    between atoms: C_2  and  C_20
    2  A    between atoms: C_2  and  C_27
    3  A    between atoms: N_7  and  C_41
    4  A    between atoms: C_13  and  C_16
    5  A    between atoms: C_20  and  C_44
    6  A    between atoms: C_23  and  N_33
    7  A    between atoms: C_26  and  C_32
    8  A    between atoms: C_28  and  C_53
    9  A    between atoms: C_30  and  C_44
   10  A    between atoms: C_34  and  C_36
   11  A    between atoms: C_38  and  C_46
                            x       y       z     vdW  Elec       q    Type
                         _______ _______ _______ _____ _____    ______ ____

>  <TORSDO>
F 11

$$$$
=
 OpenBabel10222417043D

 55 61  0  0  1  0  0  0  0  0999 V2000
  184.4060  175.6830  137.1030 N   0  0  1  0  0  0  0  0  0  0  0  0
  182.2260  173.8410  135.5420 N   0  0  0  0  0  0  0  0  0  0  0  0
  181.6230  174.2310  137.7710 O   0  0  0  0  0  0  0  0  0  0  0  0
  182.9670  177.3530  138.8460 C   0  0  0  0  0  0  0  0  0  0  0  0
  182.2100  174.6460  136.7350 C   0  0  0  0  0  0  0  0  0  0  0  0
  185.0510  177.9280  139.9740 C   0  0  0  0  0  0  0  0  0  0  0  0
  183.3270  174.0180  134.5930 C   0  0  0  0  0  2  0  0  0  0  0  0
  182.9740  175.9380  136.7860 C   0  0  1  0  0  3  0  0  0  0  0  0
  182.3220  176.7890  137.7440 O   0  0  0  0  0  0  0  0  0  0  0  0
  184.3570  177.3720  138.8750 C   0  0  0  0  0  0  0  0  0  0  0  0
  182.2310  177.8920  139.9080 C   0  0  0  0  0  0  0  0  0  0  0  0
  185.1450  175.2600  135.8820 C   0  0  2  0  0  3  0  0  0  0  0  0
  184.7020  172.8930  136.2400 O   0  0  0  0  0  1  0  0  0  0  0  0
  184.3030  178.4530  141.0590 C   0  0  0  0  0  0  0  0  0  0  0  0
  184.6810  173.9200  135.2910 C   0  0  1  0  0  3  0  0  0  0  0  0
  185.0410  176.9120  137.6320 C   0  0  2  0  0  3  0  0  0  0  0  0
  185.0320  177.9400  136.6800 O   0  0  0  0  0  1  0  0  0  0  0  0
  182.9010  178.4280  141.0080 C   0  0  0  0  0  3  0  0  0  0  0  0
  186.5330  177.9580  139.9810 C   0  0  0  0  0  0  0  0  0  0  0  0
  187.2360  178.4760  138.8830 C   0  0  0  0  0  3  0  0  0  0  0  0
  190.6930  178.0580  140.0030 F   0  0  0  0  0  0  0  0  0  0  0  0
  187.2480  177.4760  141.0870 C   0  0  0  0  0  3  0  0  0  0  0  0
  188.6460  177.5090  141.0950 C   0  0  0  0  0  3  0  0  0  0  0  0
  189.3390  178.0270  139.9960 C   0  0  0  0  0  0  0  0  0  0  0  0
  188.6340  178.5100  138.8900 C   0  0  0  0  0  3  0  0  0  0  0  0
  179.2260  170.9750  134.7620 N   0  0  0  0  0  0  0  0  0  0  0  0
  178.9420  172.2950  134.6090 C   0  0  0  0  0  3  0  0  0  0  0  0
  179.9230  173.2560  134.8590 C   0  0  0  0  0  3  0  0  0  0  0  0
  181.2080  172.8570  135.2630 C   0  0  0  0  0  0  0  0  0  0  0  0
  180.4570  170.5550  135.1570 C   0  0  0  0  0  3  0  0  0  0  0  0
  181.4640  171.4850  135.4170 C   0  0  0  0  0  3  0  0  0  0  0  0
  187.4240  175.3400  135.1580 O   0  0  0  0  0  0  0  0  0  0  0  0
  187.1230  174.8590  137.3780 O   0  0  0  0  0  1  0  0  0  0  0  0
  186.6290  175.1640  136.1170 C   0  0  0  0  0  0  0  0  0  0  0  0
  184.9850  178.9970  142.2500 C   0  0  0  0  0  3  0  0  0  0  0  0
  185.4770  178.2340  143.2250 C   0  0  0  0  0  3  0  0  0  0  0  0
  185.8510  179.0740  146.7590 C   0  0  2  0  0  3  0  0  0  0  0  0
  184.8920  178.7880  147.7280 O   0  0  0  0  0  1  0  0  0  0  0  0
  186.9890  177.7790  145.1640 C   0  0  2  0  0  3  0  0  0  0  0  0
  186.1650  178.8170  144.4230 C   0  0  2  0  0  3  0  0  0  0  0  0
  185.1790  179.3340  145.4340 C   0  0  0  0  0  2  0  0  0  0  0  0
  186.7430  177.9320  146.5970 N   0  0  0  0  0  2  0  0  0  0  0  0
  188.4390  177.9770  144.8670 C   0  0  0  0  0  3  0  0  0  0  0  0
  189.2710  177.0140  145.0330 N   0  0  0  0  0  0  0  0  0  0  0  0
  191.1280  176.1600  143.7450 C   0  0  0  0  0  2  0  0  0  0  0  0
  190.6700  177.1960  144.7500 C   0  0  1  0  0  3  0  0  0  0  0  0
  192.0210  178.2280  143.1010 C   0  0  0  0  0  2  0  0  0  0  0  0
  190.9060  178.5180  144.0730 C   0  0  0  0  0  2  0  0  0  0  0  0
  191.9240  176.8260  142.7190 N   0  0  0  0  0  2  0  0  0  0  0  0
  180.7390  177.8670  139.8960 C   0  0  0  0  0  2  0  0  0  0  0  0
  180.1910  178.9530  140.8020 C   0  0  0  0  0  2  0  0  0  0  0  0
  179.6040  178.3210  142.0490 C   0  0  0  0  0  2  0  0  0  0  0  0
  179.3150  178.9020  144.3470 O   0  0  0  0  0  1  0  0  0  0  0  0
  180.2060  180.5390  143.0100 O   0  0  0  0  0  0  0  0  0  0  0  0
  179.7060  179.2570  143.2040 C   0  0  0  0  0  0  0  0  0  0  0  0
  1 16  1  0  0  0  0
  2  5  1  0  0  0  0
  4 10  2  0  0  0  0
  4 11  1  0  0  0  0
  5  8  1  0  0  0  0
  5  3  2  0  0  0  0
  6 19  1  0  0  0  0
  6 14  2  0  0  0  0
  7 15  1  0  0  0  0
  7  2  1  0  0  0  0
  8  1  1  0  0  0  0
  8  9  1  0  0  0  0
  9  4  1  0  0  0  0
 10  6  1  0  0  0  0
 11 18  2  0  0  0  0
 12 34  1  0  0  0  0
 12  1  1  0  0  0  0
 14 35  1  0  0  0  0
 15 12  1  0  0  0  0
 15 13  1  0  0  0  0
 16 10  1  0  0  0  0
 17 16  1  0  0  0  0
 18 14  1  0  0  0  0
 19 22  1  0  0  0  0
 20 25  1  0  0  0  0
 20 19  2  0  0  0  0
 22 23  2  0  0  0  0
 24 21  1  0  0  0  0
 24 23  1  0  0  0  0
 25 24  2  0  0  0  0
 26 30  1  0  0  0  0
 27 26  2  0  0  0  0
 27 28  1  0  0  0  0
 28 29  2  0  0  0  0
 29 31  1  0  0  0  0
 29  2  1  0  0  0  0
 30 31  2  0  0  0  0
 32 34  2  0  0  0  0
 34 33  1  0  0  0  0
 35 36  2  0  0  0  0
 36 40  1  0  0  0  0
 37 38  1  0  0  0  0
 39 42  1  0  0  0  0
 40 39  1  0  0  0  0
 40 41  1  0  0  0  0
 41 37  1  0  0  0  0
 42 37  1  0  0  0  0
 43 44  2  0  0  0  0
 43 39  1  0  0  0  0
 45 46  1  0  0  0  0
 46 44  1  0  0  0  0
 47 48  1  0  0  0  0
 48 46  1  0  0  0  0
 49 47  1  0  0  0  0
 49 45  1  0  0  0  0
 50 11  1  0  0  0  0
 50 51  1  0  0  0  0
 51 52  1  0  0  0  0
 52 55  1  0  0  0  0
 54 55  2  0  0  0  0
 55 53  1  0  0  0  0
M  END
>  <MODEL>
9

>  <REMARK>
 VINA RESULT:      -4.7      3.290     10.770
  Name = 
  11 active torsions:
  status: ('A' for Active; 'I' for Inactive)
    1  A    between atoms: C_2  and  C_20
    2  A    between atoms: C_2  and  C_27
    3  A    between atoms: N_7  and  C_41
    4  A    between atoms: C_13  and  C_16
    5  A    between atoms: C_20  and  C_44
    6  A    between atoms: C_23  and  N_33
    7  A    between atoms: C_26  and  C_32
    8  A    between atoms: C_28  and  C_53
    9  A    between atoms: C_30  and  C_44
   10  A    between atoms: C_34  and  C_36
   11  A    between atoms: C_38  and  C_46
                            x       y       z     vdW  Elec       q    Type
                         _______ _______ _______ _____ _____    ______ ____

>  <TORSDO>
F 11

$$$$
