=
 OpenBabel10222416563D

 28 29  0  0  1  0  0  0  0  0999 V2000
  186.6310  178.2170  139.0310 C   0  0  2  0  0  3  0  0  0  0  0  0
  186.1130  178.2550  137.6010 C   0  0  0  0  0  1  0  0  0  0  0  0
  185.8410  178.9940  139.9320 O   0  0  0  0  0  0  0  0  0  0  0  0
  185.0820  178.4820  140.9920 C   0  0  0  0  0  0  0  0  0  0  0  0
  183.9670  177.9520  140.7460 O   0  0  0  0  0  0  0  0  0  0  0  0
  185.5410  178.5800  142.3420 N   0  0  0  0  0  2  0  0  0  0  0  0
  184.1350  179.7770  145.1950 N   0  0  0  0  0  2  0  0  0  0  0  0
  183.7500  179.3050  143.8630 C   0  0  1  0  0  3  0  0  0  0  0  0
  185.2300  178.9960  145.6170 C   0  0  0  0  0  0  0  0  0  0  0  0
  185.9040  179.0980  146.8310 C   0  0  0  0  0  3  0  0  0  0  0  0
  187.3130  177.2630  146.0770 C   0  0  0  0  0  3  0  0  0  0  0  0
  186.9700  178.2120  147.0610 C   0  0  0  0  0  3  0  0  0  0  0  0
  186.6150  177.2050  144.9030 N   0  0  0  0  0  0  0  0  0  0  0  0
  184.7320  178.1670  143.4820 C   0  0  2  0  0  3  0  0  0  0  0  0
  182.3320  178.7670  143.9020 C   0  0  0  0  0  1  0  0  0  0  0  0
  185.5910  178.0700  144.6880 C   0  0  0  0  0  0  0  0  0  0  0  0
  188.1390  178.4770  139.1890 C   0  0  1  0  0  3  0  0  0  0  0  0
  188.7470  178.5060  141.9940 O   0  0  0  0  0  0  0  0  0  0  0  0
  189.6440  176.3510  141.9960 N   0  0  0  0  0  2  0  0  0  0  0  0
  189.0530  177.4720  141.3370 C   0  0  0  0  0  0  0  0  0  0  0  0
  188.8150  177.4110  139.9310 N   0  0  0  0  0  2  0  0  0  0  0  0
  189.8560  176.3230  143.4340 C   0  0  0  0  0  2  0  0  0  0  0  0
  191.9660  177.6510  143.6450 O   0  0  0  0  0  0  0  0  0  0  0  0
  191.9670  175.3910  144.0130 O   0  0  0  0  0  1  0  0  0  0  0  0
  191.3110  176.4270  143.7430 C   0  0  0  0  0  0  0  0  0  0  0  0
  188.8070  178.8260  137.9900 O   0  0  0  0  0  0  0  0  0  0  0  0
  189.4610  177.3440  136.2400 C   0  0  0  0  0  1  0  0  0  0  0  0
  189.7290  177.8210  137.6530 C   0  0  0  0  0  2  0  0  0  0  0  0
  1  2  1  6  0  0  0
  1 17  1  0  0  0  0
  1  3  1  0  0  0  0
  3  4  1  0  0  0  0
  4  6  1  0  0  0  0
  5  4  2  0  0  0  0
  7  9  1  0  0  0  0
  8 15  1  1  0  0  0
  8  7  1  0  0  0  0
  9 10  1  0  0  0  0
 10 12  2  0  0  0  0
 11 12  1  0  0  0  0
 13 11  2  0  0  0  0
 14  6  1  6  0  0  0
 14  8  1  0  0  0  0
 14 16  1  0  0  0  0
 16 13  1  0  0  0  0
 16  9  2  0  0  0  0
 17 26  1  6  0  0  0
 17 21  1  0  0  0  0
 19 22  1  0  0  0  0
 20 18  2  0  0  0  0
 20 19  1  0  0  0  0
 21 20  1  0  0  0  0
 22 25  1  0  0  0  0
 23 25  2  0  0  0  0
 25 24  1  0  0  0  0
 27 28  1  0  0  0  0
 28 26  1  0  0  0  0
M  END
>  <MODEL>
1

>  <REMARK>
 VINA RESULT:      -6.9      0.000      0.000
  Name = 
  9 active torsions:
  status: ('A' for Active; 'I' for Inactive)
    1  A    between atoms: C_1  and  O_6
    2  A    between atoms: C_1  and  C_12
    3  A    between atoms: C_2  and  O_6
    4  A    between atoms: N_7  and  C_28
    5  A    between atoms: N_8  and  C_22
    6  A    between atoms: C_12  and  N_19
    7  A    between atoms: C_12  and  O_24
    8  A    between atoms: C_14  and  C_28
    9  A    between atoms: C_23  and  O_24
                            x       y       z     vdW  Elec       q    Type
                         _______ _______ _______ _____ _____    ______ ____

>  <TORSDO>
F 9

$$$$
=
 OpenBabel10222416563D

 28 29  0  0  1  0  0  0  0  0999 V2000
  188.1420  177.9140  140.5790 C   0  0  2  0  0  3  0  0  0  0  0  0
  187.7590  178.0880  139.1160 C   0  0  0  0  0  1  0  0  0  0  0  0
  187.3870  178.7510  141.4560 O   0  0  0  0  0  0  0  0  0  0  0  0
  186.5510  178.3010  142.4850 C   0  0  0  0  0  0  0  0  0  0  0  0
  185.3610  177.9880  142.2150 O   0  0  0  0  0  0  0  0  0  0  0  0
  187.0180  178.2210  143.8340 N   0  0  0  0  0  2  0  0  0  0  0  0
  185.6200  179.5240  146.6440 N   0  0  0  0  0  2  0  0  0  0  0  0
  185.2400  179.0770  145.3020 C   0  0  1  0  0  3  0  0  0  0  0  0
  186.6440  178.6680  147.0980 C   0  0  0  0  0  0  0  0  0  0  0  0
  187.2880  178.7240  148.3310 C   0  0  0  0  0  3  0  0  0  0  0  0
  188.5820  176.7900  147.6200 C   0  0  0  0  0  3  0  0  0  0  0  0
  188.2800  177.7640  148.5920 C   0  0  0  0  0  3  0  0  0  0  0  0
  187.9160  176.7800  146.4260 N   0  0  0  0  0  0  0  0  0  0  0  0
  186.1490  177.8700  144.9500 C   0  0  2  0  0  3  0  0  0  0  0  0
  183.7870  178.6430  145.3000 C   0  0  0  0  0  1  0  0  0  0  0  0
  186.9640  177.7160  146.1810 C   0  0  0  0  0  0  0  0  0  0  0  0
  189.6510  177.9590  140.8700 C   0  0  1  0  0  3  0  0  0  0  0  0
  190.9720  178.8740  143.2480 O   0  0  0  0  0  0  0  0  0  0  0  0
  190.8970  176.7900  144.2980 N   0  0  0  0  0  2  0  0  0  0  0  0
  190.6460  177.6560  143.1900 C   0  0  0  0  0  0  0  0  0  0  0  0
  190.0220  177.1290  142.0180 N   0  0  0  0  0  2  0  0  0  0  0  0
  191.4710  177.2750  145.5430 C   0  0  0  0  0  2  0  0  0  0  0  0
  192.2700  176.3000  147.7040 O   0  0  0  0  0  1  0  0  0  0  0  0
  192.2440  175.0390  145.7930 O   0  0  0  0  0  0  0  0  0  0  0  0
  191.9870  176.1330  146.3520 C   0  0  0  0  0  0  0  0  0  0  0  0
  190.4780  177.7410  139.7410 O   0  0  0  0  0  0  0  0  0  0  0  0
  191.5380  176.1350  138.3340 C   0  0  0  0  0  1  0  0  0  0  0  0
  190.6930  176.3630  139.5700 C   0  0  0  0  0  2  0  0  0  0  0  0
  1  2  1  6  0  0  0
  1 17  1  0  0  0  0
  1  3  1  0  0  0  0
  3  4  1  0  0  0  0
  4  6  1  0  0  0  0
  5  4  2  0  0  0  0
  7  9  1  0  0  0  0
  8 15  1  1  0  0  0
  8  7  1  0  0  0  0
  9 10  1  0  0  0  0
 10 12  2  0  0  0  0
 11 12  1  0  0  0  0
 13 11  2  0  0  0  0
 14  6  1  6  0  0  0
 14  8  1  0  0  0  0
 14 16  1  0  0  0  0
 16 13  1  0  0  0  0
 16  9  2  0  0  0  0
 17 26  1  6  0  0  0
 17 21  1  0  0  0  0
 19 22  1  0  0  0  0
 20 18  2  0  0  0  0
 20 19  1  0  0  0  0
 21 20  1  0  0  0  0
 22 25  1  0  0  0  0
 24 25  2  0  0  0  0
 25 23  1  0  0  0  0
 27 28  1  0  0  0  0
 28 26  1  0  0  0  0
M  END
>  <MODEL>
2

>  <REMARK>
 VINA RESULT:      -6.8      1.894      2.407
  Name = 
  9 active torsions:
  status: ('A' for Active; 'I' for Inactive)
    1  A    between atoms: C_1  and  O_6
    2  A    between atoms: C_1  and  C_12
    3  A    between atoms: C_2  and  O_6
    4  A    between atoms: N_7  and  C_28
    5  A    between atoms: N_8  and  C_22
    6  A    between atoms: C_12  and  N_19
    7  A    between atoms: C_12  and  O_24
    8  A    between atoms: C_14  and  C_28
    9  A    between atoms: C_23  and  O_24
                            x       y       z     vdW  Elec       q    Type
                         _______ _______ _______ _____ _____    ______ ____

>  <TORSDO>
F 9

$$$$
=
 OpenBabel10222416563D

 28 29  0  0  1  0  0  0  0  0999 V2000
  188.9430  178.2340  139.0300 C   0  0  2  0  0  3  0  0  0  0  0  0
  189.0420  178.9360  137.6840 C   0  0  0  0  0  1  0  0  0  0  0  0
  188.2300  178.9950  140.0050 O   0  0  0  0  0  0  0  0  0  0  0  0
  187.0520  178.5900  140.6450 C   0  0  0  0  0  0  0  0  0  0  0  0
  185.9950  178.4770  139.9690 O   0  0  0  0  0  0  0  0  0  0  0  0
  187.0260  178.3360  142.0520 N   0  0  0  0  0  2  0  0  0  0  0  0
  184.6150  179.7800  143.9620 N   0  0  0  0  0  2  0  0  0  0  0  0
  184.7990  179.2020  142.6280 C   0  0  1  0  0  3  0  0  0  0  0  0
  185.4000  179.0260  144.8580 C   0  0  0  0  0  0  0  0  0  0  0  0
  185.5120  179.2220  146.2320 C   0  0  0  0  0  3  0  0  0  0  0  0
  187.0240  177.3160  146.2700 C   0  0  0  0  0  3  0  0  0  0  0  0
  186.3460  178.3470  146.9490 C   0  0  0  0  0  3  0  0  0  0  0  0
  186.8770  177.1680  144.9190 N   0  0  0  0  0  0  0  0  0  0  0  0
  185.8000  178.0260  142.7750 C   0  0  2  0  0  3  0  0  0  0  0  0
  183.4710  178.6840  142.1090 C   0  0  0  0  0  1  0  0  0  0  0  0
  186.0740  178.0220  144.2340 C   0  0  0  0  0  0  0  0  0  0  0  0
  190.2670  177.6680  139.5720 C   0  0  1  0  0  3  0  0  0  0  0  0
  192.1120  177.4020  141.7550 O   0  0  0  0  0  0  0  0  0  0  0  0
  190.7080  176.0110  142.9970 N   0  0  0  0  0  2  0  0  0  0  0  0
  191.0160  176.7810  141.8340 C   0  0  0  0  0  0  0  0  0  0  0  0
  190.0720  176.8390  140.7640 N   0  0  0  0  0  2  0  0  0  0  0  0
  191.5960  175.9600  144.1480 C   0  0  0  0  0  2  0  0  0  0  0  0
  190.2640  177.9710  144.8150 O   0  0  0  0  0  0  0  0  0  0  0  0
  191.8250  177.0800  146.2350 O   0  0  0  0  0  1  0  0  0  0  0  0
  191.2190  177.0110  145.1370 C   0  0  0  0  0  0  0  0  0  0  0  0
  191.0890  177.0510  138.5990 O   0  0  0  0  0  0  0  0  0  0  0  0
  190.6030  175.4530  136.8970 C   0  0  0  0  0  1  0  0  0  0  0  0
  190.6610  175.7300  138.3850 C   0  0  0  0  0  2  0  0  0  0  0  0
  1  2  1  6  0  0  0
  1 17  1  0  0  0  0
  1  3  1  0  0  0  0
  3  4  1  0  0  0  0
  4  6  1  0  0  0  0
  5  4  2  0  0  0  0
  7  9  1  0  0  0  0
  8 15  1  1  0  0  0
  8 14  1  0  0  0  0
  8  7  1  0  0  0  0
  9 10  1  0  0  0  0
 10 12  2  0  0  0  0
 11 12  1  0  0  0  0
 13 11  2  0  0  0  0
 14  6  1  6  0  0  0
 14 16  1  0  0  0  0
 16  9  2  0  0  0  0
 16 13  1  0  0  0  0
 17 26  1  6  0  0  0
 17 21  1  0  0  0  0
 18 20  2  0  0  0  0
 19 22  1  0  0  0  0
 20 19  1  0  0  0  0
 21 20  1  0  0  0  0
 22 25  1  0  0  0  0
 23 25  2  0  0  0  0
 25 24  1  0  0  0  0
 27 28  1  0  0  0  0
 28 26  1  0  0  0  0
M  END
>  <MODEL>
3

>  <REMARK>
 VINA RESULT:      -6.8      1.652      1.978
  Name = 
  9 active torsions:
  status: ('A' for Active; 'I' for Inactive)
    1  A    between atoms: C_1  and  O_6
    2  A    between atoms: C_1  and  C_12
    3  A    between atoms: C_2  and  O_6
    4  A    between atoms: N_7  and  C_28
    5  A    between atoms: N_8  and  C_22
    6  A    between atoms: C_12  and  N_19
    7  A    between atoms: C_12  and  O_24
    8  A    between atoms: C_14  and  C_28
    9  A    between atoms: C_23  and  O_24
                            x       y       z     vdW  Elec       q    Type
                         _______ _______ _______ _____ _____    ______ ____

>  <TORSDO>
F 9

$$$$
=
 OpenBabel10222416563D

 28 29  0  0  1  0  0  0  0  0999 V2000
  185.6260  178.4270  144.5540 C   0  0  2  0  0  3  0  0  0  0  0  0
  184.5130  178.8980  145.4790 C   0  0  0  0  0  1  0  0  0  0  0  0
  185.1390  177.8860  143.3250 O   0  0  0  0  0  0  0  0  0  0  0  0
  184.9940  178.5980  142.1280 C   0  0  0  0  0  0  0  0  0  0  0  0
  185.6220  179.6800  141.9790 O   0  0  0  0  0  0  0  0  0  0  0  0
  184.1250  178.1320  141.0930 N   0  0  0  0  0  2  0  0  0  0  0  0
  182.5840  177.9050  138.0730 N   0  0  0  0  0  2  0  0  0  0  0  0
  182.4310  178.5740  139.3670 C   0  0  1  0  0  3  0  0  0  0  0  0
  183.9640  177.8410  137.7940 C   0  0  0  0  0  0  0  0  0  0  0  0
  184.5580  177.2960  136.6590 C   0  0  0  0  0  3  0  0  0  0  0  0
  186.7050  177.9320  137.6100 C   0  0  0  0  0  3  0  0  0  0  0  0
  185.9600  177.3430  136.5700 C   0  0  0  0  0  3  0  0  0  0  0  0
  186.0700  178.4540  138.7020 N   0  0  0  0  0  0  0  0  0  0  0  0
  183.8570  178.8990  139.8830 C   0  0  2  0  0  3  0  0  0  0  0  0
  181.6450  179.8590  139.1870 C   0  0  0  0  0  1  0  0  0  0  0  0
  184.7160  178.3990  138.7810 C   0  0  0  0  0  0  0  0  0  0  0  0
  186.6920  177.5360  145.2130 C   0  0  1  0  0  3  0  0  0  0  0  0
  187.9400  175.8940  143.2170 O   0  0  0  0  0  0  0  0  0  0  0  0
  189.8450  177.2340  143.0610 N   0  0  0  0  0  2  0  0  0  0  0  0
  188.5720  176.9090  143.6210 C   0  0  0  0  0  0  0  0  0  0  0  0
  188.0240  177.7440  144.6420 N   0  0  0  0  0  2  0  0  0  0  0  0
  190.4310  176.4630  141.9760 C   0  0  0  0  0  2  0  0  0  0  0  0
  189.0810  177.6070  140.2070 O   0  0  0  0  0  1  0  0  0  0  0  0
  191.3560  177.4240  140.0060 O   0  0  0  0  0  0  0  0  0  0  0  0
  190.3250  177.2150  140.6930 C   0  0  0  0  0  0  0  0  0  0  0  0
  186.6880  177.5580  146.6290 O   0  0  0  0  0  0  0  0  0  0  0  0
  188.1120  178.2060  148.4280 C   0  0  0  0  0  1  0  0  0  0  0  0
  188.0070  177.4720  147.1070 C   0  0  0  0  0  2  0  0  0  0  0  0
  1 17  1  0  0  0  0
  1  2  1  1  0  0  0
  3  1  1  0  0  0  0
  4  3  1  0  0  0  0
  5  4  2  0  0  0  0
  6  4  1  0  0  0  0
  7  8  1  0  0  0  0
  8 15  1  6  0  0  0
  8 14  1  0  0  0  0
  9  7  1  0  0  0  0
  9 16  1  0  0  0  0
 10  9  2  0  0  0  0
 11 13  1  0  0  0  0
 12 10  1  0  0  0  0
 12 11  2  0  0  0  0
 13 16  2  0  0  0  0
 14  6  1  1  0  0  0
 16 14  1  0  0  0  0
 17 21  1  6  0  0  0
 17 26  1  0  0  0  0
 18 20  2  0  0  0  0
 19 20  1  0  0  0  0
 20 21  1  0  0  0  0
 22 19  1  0  0  0  0
 23 25  1  0  0  0  0
 24 25  2  0  0  0  0
 25 22  1  0  0  0  0
 26 28  1  0  0  0  0
 28 27  1  0  0  0  0
M  END
>  <MODEL>
4

>  <REMARK>
 VINA RESULT:      -6.8      2.456      6.352
  Name = 
  9 active torsions:
  status: ('A' for Active; 'I' for Inactive)
    1  A    between atoms: C_1  and  O_6
    2  A    between atoms: C_1  and  C_12
    3  A    between atoms: C_2  and  O_6
    4  A    between atoms: N_7  and  C_28
    5  A    between atoms: N_8  and  C_22
    6  A    between atoms: C_12  and  N_19
    7  A    between atoms: C_12  and  O_24
    8  A    between atoms: C_14  and  C_28
    9  A    between atoms: C_23  and  O_24
                            x       y       z     vdW  Elec       q    Type
                         _______ _______ _______ _____ _____    ______ ____

>  <TORSDO>
F 9

$$$$
=
 OpenBabel10222416563D

 28 29  0  0  1  0  0  0  0  0999 V2000
  188.1710  177.7120  146.4190 C   0  0  2  0  0  3  0  0  0  0  0  0
  188.1100  177.2810  147.8770 C   0  0  0  0  0  1  0  0  0  0  0  0
  186.9900  177.3760  145.6890 O   0  0  0  0  0  0  0  0  0  0  0  0
  186.1180  178.2960  145.0940 C   0  0  0  0  0  0  0  0  0  0  0  0
  185.6390  179.2270  145.7940 O   0  0  0  0  0  0  0  0  0  0  0  0
  185.7420  178.1740  143.7200 N   0  0  0  0  0  2  0  0  0  0  0  0
  182.6910  178.0910  142.2260 N   0  0  0  0  0  2  0  0  0  0  0  0
  183.3250  178.5480  143.4650 C   0  0  1  0  0  3  0  0  0  0  0  0
  183.6140  178.2990  141.1800 C   0  0  0  0  0  0  0  0  0  0  0  0
  183.4180  178.0180  139.8310 C   0  0  0  0  0  3  0  0  0  0  0  0
  185.6600  178.8760  139.4390 C   0  0  0  0  0  3  0  0  0  0  0  0
  184.4670  178.3120  138.9450 C   0  0  0  0  0  3  0  0  0  0  0  0
  185.7980  179.1340  140.7740 N   0  0  0  0  0  0  0  0  0  0  0  0
  184.7500  179.0380  143.0940 C   0  0  2  0  0  3  0  0  0  0  0  0
  182.5260  179.6940  144.0560 C   0  0  0  0  0  1  0  0  0  0  0  0
  184.7800  178.8410  141.6230 C   0  0  0  0  0  0  0  0  0  0  0  0
  189.4590  177.3220  145.6740 C   0  0  1  0  0  3  0  0  0  0  0  0
  188.9650  176.0770  143.1360 O   0  0  0  0  0  0  0  0  0  0  0  0
  189.3150  178.0350  141.9140 N   0  0  0  0  0  2  0  0  0  0  0  0
  189.2670  177.3020  143.1390 C   0  0  0  0  0  0  0  0  0  0  0  0
  189.5640  177.9710  144.3660 N   0  0  0  0  0  2  0  0  0  0  0  0
  188.9630  177.4320  140.6390 C   0  0  0  0  0  2  0  0  0  0  0  0
  189.9250  177.4980  138.3300 O   0  0  0  0  0  0  0  0  0  0  0  0
  191.2940  177.4220  140.1640 O   0  0  0  0  0  1  0  0  0  0  0  0
  190.1260  177.4800  139.7070 C   0  0  0  0  0  0  0  0  0  0  0  0
  190.6430  177.4330  146.4430 O   0  0  0  0  0  0  0  0  0  0  0  0
  192.1200  175.6230  146.9210 C   0  0  0  0  0  1  0  0  0  0  0  0
  191.6470  176.6230  145.8860 C   0  0  0  0  0  2  0  0  0  0  0  0
  1  2  1  1  0  0  0
  3  1  1  0  0  0  0
  4  3  1  0  0  0  0
  4  5  2  0  0  0  0
  6  4  1  0  0  0  0
  7  8  1  0  0  0  0
  8 15  1  6  0  0  0
  9 16  1  0  0  0  0
  9  7  1  0  0  0  0
 10  9  2  0  0  0  0
 11 13  1  0  0  0  0
 12 11  2  0  0  0  0
 12 10  1  0  0  0  0
 13 16  2  0  0  0  0
 14  8  1  0  0  0  0
 14  6  1  1  0  0  0
 16 14  1  0  0  0  0
 17 21  1  6  0  0  0
 17  1  1  0  0  0  0
 17 26  1  0  0  0  0
 18 20  2  0  0  0  0
 19 20  1  0  0  0  0
 20 21  1  0  0  0  0
 22 19  1  0  0  0  0
 23 25  2  0  0  0  0
 25 24  1  0  0  0  0
 25 22  1  0  0  0  0
 28 26  1  0  0  0  0
 28 27  1  0  0  0  0
M  END
>  <MODEL>
5

>  <REMARK>
 VINA RESULT:      -6.7      2.291      5.786
  Name = 
  9 active torsions:
  status: ('A' for Active; 'I' for Inactive)
    1  A    between atoms: C_1  and  O_6
    2  A    between atoms: C_1  and  C_12
    3  A    between atoms: C_2  and  O_6
    4  A    between atoms: N_7  and  C_28
    5  A    between atoms: N_8  and  C_22
    6  A    between atoms: C_12  and  N_19
    7  A    between atoms: C_12  and  O_24
    8  A    between atoms: C_14  and  C_28
    9  A    between atoms: C_23  and  O_24
                            x       y       z     vdW  Elec       q    Type
                         _______ _______ _______ _____ _____    ______ ____

>  <TORSDO>
F 9

$$$$
=
 OpenBabel10222416563D

 28 29  0  0  1  0  0  0  0  0999 V2000
  185.7380  178.7850  145.6610 C   0  0  2  0  0  3  0  0  0  0  0  0
  185.8580  178.9610  147.1680 C   0  0  0  0  0  1  0  0  0  0  0  0
  184.4690  178.2700  145.2590 O   0  0  0  0  0  0  0  0  0  0  0  0
  183.5450  178.9370  144.4450 C   0  0  0  0  0  0  0  0  0  0  0  0
  183.8280  180.0850  144.0120 O   0  0  0  0  0  0  0  0  0  0  0  0
  182.2810  178.3480  144.1280 N   0  0  0  0  0  2  0  0  0  0  0  0
  179.2670  177.8700  142.6340 N   0  0  0  0  0  2  0  0  0  0  0  0
  179.8500  178.5280  143.8050 C   0  0  1  0  0  3  0  0  0  0  0  0
  180.1930  177.9950  141.5770 C   0  0  0  0  0  0  0  0  0  0  0  0
  180.0380  177.5240  140.2760 C   0  0  0  0  0  3  0  0  0  0  0  0
  182.2280  178.4650  139.7910 C   0  0  0  0  0  3  0  0  0  0  0  0
  181.0820  177.7630  139.3680 C   0  0  0  0  0  3  0  0  0  0  0  0
  182.3270  178.9070  141.0800 N   0  0  0  0  0  0  0  0  0  0  0  0
  181.2470  179.0550  143.3830 C   0  0  2  0  0  3  0  0  0  0  0  0
  178.9710  179.6890  144.2290 C   0  0  0  0  0  1  0  0  0  0  0  0
  181.3150  178.6650  141.9530 C   0  0  0  0  0  0  0  0  0  0  0  0
  186.9150  178.0540  144.9920 C   0  0  1  0  0  3  0  0  0  0  0  0
  189.7310  178.3520  145.4570 O   0  0  0  0  0  0  0  0  0  0  0  0
  189.7880  176.7730  147.1760 N   0  0  0  0  0  2  0  0  0  0  0  0
  189.1060  177.5110  146.1610 C   0  0  0  0  0  0  0  0  0  0  0  0
  187.7120  177.2860  145.9510 N   0  0  0  0  0  2  0  0  0  0  0  0
  191.1920  176.9980  147.4830 C   0  0  0  0  0  2  0  0  0  0  0  0
  191.9470  175.8210  145.4090 O   0  0  0  0  0  0  0  0  0  0  0  0
  192.7850  175.2310  147.4570 O   0  0  0  0  0  1  0  0  0  0  0  0
  192.0410  175.9890  146.7870 C   0  0  0  0  0  0  0  0  0  0  0  0
  186.5690  177.3090  143.8390 O   0  0  0  0  0  0  0  0  0  0  0  0
  188.4460  176.9440  142.4150 C   0  0  0  0  0  1  0  0  0  0  0  0
  187.2500  177.8210  142.7220 C   0  0  0  0  0  2  0  0  0  0  0  0
  1  2  1  1  0  0  0
  3  1  1  0  0  0  0
  4  3  1  0  0  0  0
  5  4  2  0  0  0  0
  6  4  1  0  0  0  0
  7  8  1  0  0  0  0
  8 15  1  6  0  0  0
  9 16  1  0  0  0  0
  9  7  1  0  0  0  0
 10  9  2  0  0  0  0
 11 13  1  0  0  0  0
 12 11  2  0  0  0  0
 12 10  1  0  0  0  0
 13 16  2  0  0  0  0
 14  8  1  0  0  0  0
 14  6  1  1  0  0  0
 16 14  1  0  0  0  0
 17 26  1  6  0  0  0
 17  1  1  0  0  0  0
 17 21  1  0  0  0  0
 18 20  2  0  0  0  0
 19 22  1  0  0  0  0
 20 19  1  0  0  0  0
 21 20  1  0  0  0  0
 23 25  2  0  0  0  0
 25 24  1  0  0  0  0
 25 22  1  0  0  0  0
 27 28  1  0  0  0  0
 28 26  1  0  0  0  0
M  END
>  <MODEL>
6

>  <REMARK>
 VINA RESULT:      -6.6      3.368      5.758
  Name = 
  9 active torsions:
  status: ('A' for Active; 'I' for Inactive)
    1  A    between atoms: C_1  and  O_6
    2  A    between atoms: C_1  and  C_12
    3  A    between atoms: C_2  and  O_6
    4  A    between atoms: N_7  and  C_28
    5  A    between atoms: N_8  and  C_22
    6  A    between atoms: C_12  and  N_19
    7  A    between atoms: C_12  and  O_24
    8  A    between atoms: C_14  and  C_28
    9  A    between atoms: C_23  and  O_24
                            x       y       z     vdW  Elec       q    Type
                         _______ _______ _______ _____ _____    ______ ____

>  <TORSDO>
F 9

$$$$
=
 OpenBabel10222416563D

 28 29  0  0  1  0  0  0  0  0999 V2000
  185.0450  178.8410  139.6910 C   0  0  2  0  0  3  0  0  0  0  0  0
  183.8780  179.7210  139.2650 C   0  0  0  0  0  1  0  0  0  0  0  0
  185.6070  179.2290  140.9450 O   0  0  0  0  0  0  0  0  0  0  0  0
  185.7750  178.3880  142.0520 C   0  0  0  0  0  0  0  0  0  0  0  0
  184.7580  177.9930  142.6810 O   0  0  0  0  0  0  0  0  0  0  0  0
  187.0790  178.0000  142.4920 N   0  0  0  0  0  2  0  0  0  0  0  0
  188.5350  178.1930  145.5570 N   0  0  0  0  0  2  0  0  0  0  0  0
  187.2050  178.1530  144.9430 C   0  0  1  0  0  3  0  0  0  0  0  0
  189.3740  177.3530  144.7960 C   0  0  0  0  0  0  0  0  0  0  0  0
  190.7200  177.0870  145.0340 C   0  0  0  0  0  3  0  0  0  0  0  0
  190.6630  175.6280  143.0890 C   0  0  0  0  0  3  0  0  0  0  0  0
  191.3750  176.2070  144.1570 C   0  0  0  0  0  3  0  0  0  0  0  0
  189.3410  175.9220  142.9030 N   0  0  0  0  0  0  0  0  0  0  0  0
  187.3030  177.2240  143.7050 C   0  0  2  0  0  3  0  0  0  0  0  0
  186.2030  177.5870  145.9320 C   0  0  0  0  0  1  0  0  0  0  0  0
  188.7180  176.7780  143.7520 C   0  0  0  0  0  0  0  0  0  0  0  0
  186.1130  178.6020  138.6100 C   0  0  1  0  0  3  0  0  0  0  0  0
  188.9410  179.0950  138.6300 O   0  0  0  0  0  0  0  0  0  0  0  0
  189.4670  177.0310  139.5860 N   0  0  0  0  0  2  0  0  0  0  0  0
  188.5360  177.9820  139.0670 C   0  0  0  0  0  0  0  0  0  0  0  0
  187.1450  177.6580  139.0470 N   0  0  0  0  0  2  0  0  0  0  0  0
  190.8880  177.3210  139.6940 C   0  0  0  0  0  2  0  0  0  0  0  0
  191.1270  175.2130  138.3670 O   0  0  0  0  0  0  0  0  0  0  0  0
  192.8470  176.7200  138.4850 O   0  0  0  0  0  1  0  0  0  0  0  0
  191.6670  176.4230  138.7940 C   0  0  0  0  0  0  0  0  0  0  0  0
  185.5980  178.3020  137.3260 O   0  0  0  0  0  0  0  0  0  0  0  0
  183.9060  176.7000  136.8220 C   0  0  0  0  0  1  0  0  0  0  0  0
  185.3490  176.9240  137.2240 C   0  0  0  0  0  2  0  0  0  0  0  0
  1  2  1  6  0  0  0
  1  3  1  0  0  0  0
  3  4  1  0  0  0  0
  4  6  1  0  0  0  0
  4  5  2  0  0  0  0
  8  7  1  0  0  0  0
  8 15  1  1  0  0  0
  9 10  1  0  0  0  0
  9  7  1  0  0  0  0
 11 12  1  0  0  0  0
 12 10  2  0  0  0  0
 13 11  2  0  0  0  0
 13 16  1  0  0  0  0
 14  6  1  6  0  0  0
 14 16  1  0  0  0  0
 14  8  1  0  0  0  0
 16  9  2  0  0  0  0
 17 26  1  6  0  0  0
 17 21  1  0  0  0  0
 17  1  1  0  0  0  0
 18 20  2  0  0  0  0
 19 22  1  0  0  0  0
 20 19  1  0  0  0  0
 21 20  1  0  0  0  0
 23 25  2  0  0  0  0
 24 25  1  0  0  0  0
 25 22  1  0  0  0  0
 27 28  1  0  0  0  0
 28 26  1  0  0  0  0
M  END
>  <MODEL>
7

>  <REMARK>
 VINA RESULT:      -6.5      2.461      3.880
  Name = 
  9 active torsions:
  status: ('A' for Active; 'I' for Inactive)
    1  A    between atoms: C_1  and  O_6
    2  A    between atoms: C_1  and  C_12
    3  A    between atoms: C_2  and  O_6
    4  A    between atoms: N_7  and  C_28
    5  A    between atoms: N_8  and  C_22
    6  A    between atoms: C_12  and  N_19
    7  A    between atoms: C_12  and  O_24
    8  A    between atoms: C_14  and  C_28
    9  A    between atoms: C_23  and  O_24
                            x       y       z     vdW  Elec       q    Type
                         _______ _______ _______ _____ _____    ______ ____

>  <TORSDO>
F 9

$$$$
=
 OpenBabel10222416563D

 28 29  0  0  1  0  0  0  0  0999 V2000
  190.9970  176.0900  138.1560 C   0  0  2  0  0  3  0  0  0  0  0  0
  192.0470  175.0570  137.7710 C   0  0  0  0  0  1  0  0  0  0  0  0
  190.5160  175.9250  139.4900 O   0  0  0  0  0  0  0  0  0  0  0  0
  190.5540  176.9030  140.4910 C   0  0  0  0  0  0  0  0  0  0  0  0
  191.4860  177.7510  140.4830 O   0  0  0  0  0  0  0  0  0  0  0  0
  189.5750  176.9330  141.5330 N   0  0  0  0  0  2  0  0  0  0  0  0
  189.9560  177.0140  144.9080 N   0  0  0  0  0  2  0  0  0  0  0  0
  190.6880  177.3500  143.6850 C   0  0  1  0  0  3  0  0  0  0  0  0
  188.5960  177.3090  144.6780 C   0  0  0  0  0  0  0  0  0  0  0  0
  187.5480  177.1530  145.5810 C   0  0  0  0  0  3  0  0  0  0  0  0
  186.0740  178.0240  143.8520 C   0  0  0  0  0  3  0  0  0  0  0  0
  186.2600  177.5170  145.1530 C   0  0  0  0  0  3  0  0  0  0  0  0
  187.1400  178.1580  143.0070 N   0  0  0  0  0  0  0  0  0  0  0  0
  189.6460  177.8590  142.6550 C   0  0  2  0  0  3  0  0  0  0  0  0
  191.6970  178.4440  143.9780 C   0  0  0  0  0  1  0  0  0  0  0  0
  188.3800  177.7970  143.4270 C   0  0  0  0  0  0  0  0  0  0  0  0
  189.8630  176.2820  137.1350 C   0  0  1  0  0  3  0  0  0  0  0  0
  187.0230  176.1060  137.5110 O   0  0  0  0  0  0  0  0  0  0  0  0
  186.7930  178.3460  138.1280 N   0  0  0  0  0  2  0  0  0  0  0  0
  187.5710  177.2260  137.7010 C   0  0  0  0  0  0  0  0  0  0  0  0
  188.9740  177.3900  137.4910 N   0  0  0  0  0  2  0  0  0  0  0  0
  185.3730  178.2330  138.4200 C   0  0  0  0  0  2  0  0  0  0  0  0
  184.1240  180.3430  138.9180 O   0  0  0  0  0  0  0  0  0  0  0  0
  185.4110  179.3400  140.5250 O   0  0  0  0  0  1  0  0  0  0  0  0
  184.9510  179.3130  139.3570 C   0  0  0  0  0  0  0  0  0  0  0  0
  190.2830  176.3230  135.7840 O   0  0  0  0  0  0  0  0  0  0  0  0
  189.2560  174.2020  135.4230 C   0  0  0  0  0  1  0  0  0  0  0  0
  189.3530  175.6470  134.9770 C   0  0  0  0  0  2  0  0  0  0  0  0
  1  2  1  6  0  0  0
  1  3  1  0  0  0  0
  3  4  1  0  0  0  0
  4  6  1  0  0  0  0
  5  4  2  0  0  0  0
  8 15  1  1  0  0  0
  8  7  1  0  0  0  0
  9  7  1  0  0  0  0
  9 10  1  0  0  0  0
 11 12  1  0  0  0  0
 12 10  2  0  0  0  0
 13 16  1  0  0  0  0
 13 11  2  0  0  0  0
 14  6  1  6  0  0  0
 14 16  1  0  0  0  0
 14  8  1  0  0  0  0
 16  9  2  0  0  0  0
 17 26  1  6  0  0  0
 17 21  1  0  0  0  0
 17  1  1  0  0  0  0
 18 20  2  0  0  0  0
 19 22  1  0  0  0  0
 20 19  1  0  0  0  0
 21 20  1  0  0  0  0
 22 25  1  0  0  0  0
 23 25  2  0  0  0  0
 25 24  1  0  0  0  0
 28 27  1  0  0  0  0
 28 26  1  0  0  0  0
M  END
>  <MODEL>
8

>  <REMARK>
 VINA RESULT:      -6.5      2.279      5.573
  Name = 
  9 active torsions:
  status: ('A' for Active; 'I' for Inactive)
    1  A    between atoms: C_1  and  O_6
    2  A    between atoms: C_1  and  C_12
    3  A    between atoms: C_2  and  O_6
    4  A    between atoms: N_7  and  C_28
    5  A    between atoms: N_8  and  C_22
    6  A    between atoms: C_12  and  N_19
    7  A    between atoms: C_12  and  O_24
    8  A    between atoms: C_14  and  C_28
    9  A    between atoms: C_23  and  O_24
                            x       y       z     vdW  Elec       q    Type
                         _______ _______ _______ _____ _____    ______ ____

>  <TORSDO>
F 9

$$$$
=
 OpenBabel10222416563D

 28 29  0  0  1  0  0  0  0  0999 V2000
  186.0640  178.3370  144.5970 C   0  0  2  0  0  3  0  0  0  0  0  0
  185.5810  178.2460  146.0380 C   0  0  0  0  0  1  0  0  0  0  0  0
  185.0580  177.9810  143.6490 O   0  0  0  0  0  0  0  0  0  0  0  0
  184.7890  178.6660  142.4570 C   0  0  0  0  0  0  0  0  0  0  0  0
  185.1630  179.8630  142.3420 O   0  0  0  0  0  0  0  0  0  0  0  0
  184.0730  178.0390  141.3900 N   0  0  0  0  0  2  0  0  0  0  0  0
  182.5210  177.5710  138.4040 N   0  0  0  0  0  2  0  0  0  0  0  0
  182.2980  178.2190  139.6990 C   0  0  1  0  0  3  0  0  0  0  0  0
  183.8900  177.7070  138.0970 C   0  0  0  0  0  0  0  0  0  0  0  0
  184.5350  177.2470  136.9510 C   0  0  0  0  0  3  0  0  0  0  0  0
  186.5840  178.1940  137.8560 C   0  0  0  0  0  3  0  0  0  0  0  0
  185.9120  177.4960  136.8340 C   0  0  0  0  0  3  0  0  0  0  0  0
  185.9020  178.6260  138.9590 N   0  0  0  0  0  0  0  0  0  0  0  0
  183.6720  178.7510  140.1840 C   0  0  2  0  0  3  0  0  0  0  0  0
  181.3300  179.3750  139.5310 C   0  0  0  0  0  1  0  0  0  0  0  0
  184.5720  178.3750  139.0660 C   0  0  0  0  0  0  0  0  0  0  0  0
  187.4130  177.6550  144.3150 C   0  0  1  0  0  3  0  0  0  0  0  0
  190.0840  178.1130  145.2620 O   0  0  0  0  0  0  0  0  0  0  0  0
  189.8040  176.8270  147.1910 N   0  0  0  0  0  2  0  0  0  0  0  0
  189.3330  177.3740  145.9580 C   0  0  0  0  0  0  0  0  0  0  0  0
  188.0070  177.0740  145.5210 N   0  0  0  0  0  2  0  0  0  0  0  0
  191.1190  177.1430  147.7240 C   0  0  0  0  0  2  0  0  0  0  0  0
  192.9610  175.6280  148.4800 O   0  0  0  0  0  1  0  0  0  0  0  0
  192.0820  175.4360  146.3740 O   0  0  0  0  0  0  0  0  0  0  0  0
  192.0550  176.0050  147.4940 C   0  0  0  0  0  0  0  0  0  0  0  0
  187.4070  176.7610  143.2170 O   0  0  0  0  0  0  0  0  0  0  0  0
  188.3430  178.2310  141.5890 C   0  0  0  0  0  1  0  0  0  0  0  0
  188.5430  176.9800  142.4210 C   0  0  0  0  0  2  0  0  0  0  0  0
  1  2  1  1  0  0  0
  3  1  1  0  0  0  0
  4  3  1  0  0  0  0
  5  4  2  0  0  0  0
  6  4  1  0  0  0  0
  7  8  1  0  0  0  0
  8 15  1  6  0  0  0
  8 14  1  0  0  0  0
  9  7  1  0  0  0  0
  9 16  1  0  0  0  0
 10  9  2  0  0  0  0
 11 13  1  0  0  0  0
 12 10  1  0  0  0  0
 12 11  2  0  0  0  0
 13 16  2  0  0  0  0
 14  6  1  1  0  0  0
 16 14  1  0  0  0  0
 17 26  1  6  0  0  0
 17  1  1  0  0  0  0
 17 21  1  0  0  0  0
 18 20  2  0  0  0  0
 19 22  1  0  0  0  0
 20 19  1  0  0  0  0
 21 20  1  0  0  0  0
 24 25  2  0  0  0  0
 25 22  1  0  0  0  0
 25 23  1  0  0  0  0
 27 28  1  0  0  0  0
 28 26  1  0  0  0  0
M  END
>  <MODEL>
9

>  <REMARK>
 VINA RESULT:      -6.5      2.684      5.753
  Name = 
  9 active torsions:
  status: ('A' for Active; 'I' for Inactive)
    1  A    between atoms: C_1  and  O_6
    2  A    between atoms: C_1  and  C_12
    3  A    between atoms: C_2  and  O_6
    4  A    between atoms: N_7  and  C_28
    5  A    between atoms: N_8  and  C_22
    6  A    between atoms: C_12  and  N_19
    7  A    between atoms: C_12  and  O_24
    8  A    between atoms: C_14  and  C_28
    9  A    between atoms: C_23  and  O_24
                            x       y       z     vdW  Elec       q    Type
                         _______ _______ _______ _____ _____    ______ ____

>  <TORSDO>
F 9

$$$$
