=
 OpenBabel10222421083D

 29 30  0  0  1  0  0  0  0  0999 V2000
  186.5390  178.1490  145.4480 C   0  0  1  0  0  3  0  0  0  0  0  0
  186.2730  178.7140  140.9930 C   0  0  0  0  0  3  0  0  0  0  0  0
  184.4340  179.5530  145.1710 N   0  0  0  0  0  0  0  0  0  0  0  0
  188.0510  177.3580  142.0670 C   0  0  0  0  0  0  0  0  0  0  0  0
  186.3480  176.9140  146.0690 O   0  0  0  0  0  1  0  0  0  0  0  0
  187.5670  177.2310  143.3180 C   0  0  0  0  0  3  0  0  0  0  0  0
  185.1940  178.0960  141.8140 C   0  0  0  0  0  2  0  0  0  0  0  0
  185.6520  179.5720  147.1520 O   0  0  0  0  0  0  0  0  0  0  0  0
  187.5610  178.3630  141.0910 C   0  0  0  0  0  0  0  0  0  0  0  0
  184.3420  179.2230  143.9200 C   0  0  0  0  0  3  0  0  0  0  0  0
  185.3860  178.4200  143.2570 C   0  0  0  0  0  0  0  0  0  0  0  0
  186.4590  177.9820  143.9490 C   0  0  0  0  0  0  0  0  0  0  0  0
  185.5370  179.1350  145.9770 C   0  0  0  0  0  0  0  0  0  0  0  0
  188.8180  178.5920  138.8790 C   0  0  0  0  0  0  0  0  0  0  0  0
  188.5320  178.9760  140.2320 N   0  0  0  0  0  2  0  0  0  0  0  0
  189.0440  179.4860  138.0250 O   0  0  0  0  0  0  0  0  0  0  0  0
  187.8710  176.6070  137.7540 C   0  0  0  0  0  1  0  0  0  0  0  0
  188.8970  177.2510  138.4930 O   0  0  0  0  0  0  0  0  0  0  0  0
  189.1090  176.5410  141.6470 O   0  0  0  0  0  0  0  0  0  0  0  0
  190.2590  176.2770  142.4430 C   0  0  0  0  0  2  0  0  0  0  0  0
  191.2250  177.4450  142.3350 C   0  0  0  0  0  2  0  0  0  0  0  0
  190.6210  179.1440  143.9170 O   0  0  0  0  0  1  0  0  0  0  0  0
  191.5080  178.0880  143.6900 C   0  0  1  0  0  3  0  0  0  0  0  0
  191.4280  177.0740  144.8240 C   0  0  0  0  0  2  0  0  0  0  0  0
  190.2180  176.8150  146.9010 N   0  0  0  0  0  0  0  0  0  0  0  0
  190.3220  177.4220  145.7610 C   0  0  0  0  0  3  0  0  0  0  0  0
  189.1780  177.1230  147.8340 C   0  0  0  0  0  0  0  0  0  0  0  0
  189.0230  178.5200  148.3200 C   0  0  0  0  0  1  0  0  0  0  0  0
  188.3870  176.2290  148.2430 O   0  0  0  0  0  0  0  0  0  0  0  0
  1 13  1  0  0  0  0
  1  5  1  1  0  0  0
  2  9  2  0  0  0  0
  2  7  1  0  0  0  0
  3 13  1  0  0  0  0
  4  6  2  0  0  0  0
  6 12  1  0  0  0  0
  7 11  1  0  0  0  0
  9  4  1  0  0  0  0
 10  3  2  0  0  0  0
 11 10  1  0  0  0  0
 11 12  2  0  0  0  0
 12  1  1  0  0  0  0
 13  8  2  0  0  0  0
 14 15  1  0  0  0  0
 15  9  1  0  0  0  0
 16 14  2  0  0  0  0
 17 18  1  0  0  0  0
 18 14  1  0  0  0  0
 19  4  1  0  0  0  0
 19 20  1  0  0  0  0
 21 20  1  0  0  0  0
 21 23  1  0  0  0  0
 23 22  1  1  0  0  0
 23 24  1  0  0  0  0
 24 26  1  0  0  0  0
 25 27  1  0  0  0  0
 26 25  2  0  0  0  0
 27 29  2  0  0  0  0
 27 28  1  0  0  0  0
M  END
>  <MODEL>
1

>  <REMARK>
 VINA RESULT:      -7.8      0.000      0.000
  Name = 
  9 active torsions:
  status: ('A' for Active; 'I' for Inactive)
    1  A    between atoms: N_3  and  C_4
    2  A    between atoms: C_6  and  O_16
    3  A    between atoms: C_7  and  O_21
    4  A    between atoms: N_11  and  C_15
    5  A    between atoms: O_16  and  C_26
    6  A    between atoms: C_18  and  C_19
    7  A    between atoms: C_18  and  C_22
    8  A    between atoms: C_19  and  C_29
    9  A    between atoms: C_26  and  C_29
                            x       y       z     vdW  Elec       q    Type
                         _______ _______ _______ _____ _____    ______ ____

>  <TORSDO>
F 9

$$$$
=
 OpenBabel10222421083D

 29 30  0  0  1  0  0  0  0  0999 V2000
  188.5460  177.2980  146.0260 C   0  0  1  0  0  3  0  0  0  0  0  0
  191.4220  177.1590  142.5690 C   0  0  0  0  0  3  0  0  0  0  0  0
  190.7570  176.7050  147.1400 N   0  0  0  0  0  0  0  0  0  0  0  0
  189.0310  177.7620  142.2990 C   0  0  0  0  0  0  0  0  0  0  0  0
  187.9560  178.4800  146.4750 O   0  0  0  0  0  1  0  0  0  0  0  0
  188.6610  177.9590  143.5790 C   0  0  0  0  0  3  0  0  0  0  0  0
  191.5950  178.0460  143.7530 C   0  0  0  0  0  2  0  0  0  0  0  0
  188.7210  176.1440  148.1130 O   0  0  0  0  0  0  0  0  0  0  0  0
  190.2690  177.0490  141.8970 C   0  0  0  0  0  0  0  0  0  0  0  0
  191.4240  177.1320  146.1120 C   0  0  0  0  0  3  0  0  0  0  0  0
  190.7420  177.5800  144.8850 C   0  0  0  0  0  0  0  0  0  0  0  0
  189.3940  177.5830  144.8090 C   0  0  0  0  0  0  0  0  0  0  0  0
  189.3290  176.6720  147.1460 C   0  0  0  0  0  0  0  0  0  0  0  0
  190.6190  176.5600  139.4150 C   0  0  0  0  0  0  0  0  0  0  0  0
  190.1980  176.2050  140.7400 N   0  0  0  0  0  2  0  0  0  0  0  0
  191.2050  175.7000  138.7090 O   0  0  0  0  0  0  0  0  0  0  0  0
  189.2890  178.0550  137.9660 C   0  0  0  0  0  1  0  0  0  0  0  0
  190.3580  177.8200  138.8700 O   0  0  0  0  0  0  0  0  0  0  0  0
  188.1970  178.2020  141.2620 O   0  0  0  0  0  0  0  0  0  0  0  0
  186.8750  178.6840  141.4700 C   0  0  0  0  0  2  0  0  0  0  0  0
  186.0920  178.5820  140.1720 C   0  0  0  0  0  2  0  0  0  0  0  0
  184.4890  179.9760  139.0570 O   0  0  0  0  0  1  0  0  0  0  0  0
  184.7460  179.2960  140.2510 C   0  0  1  0  0  3  0  0  0  0  0  0
  183.6110  178.3280  140.5660 C   0  0  0  0  0  2  0  0  0  0  0  0
  183.6650  178.3930  142.9820 N   0  0  0  0  0  0  0  0  0  0  0  0
  183.0090  178.6410  141.8930 C   0  0  0  0  0  3  0  0  0  0  0  0
  183.1300  178.6830  144.2760 C   0  0  0  0  0  0  0  0  0  0  0  0
  184.0560  178.9620  145.4040 C   0  0  0  0  0  1  0  0  0  0  0  0
  181.8830  178.7130  144.4700 O   0  0  0  0  0  0  0  0  0  0  0  0
  1  5  1  1  0  0  0
  1 13  1  0  0  0  0
  2  7  1  0  0  0  0
  3 13  1  0  0  0  0
  4  6  2  0  0  0  0
  6 12  1  0  0  0  0
  7 11  1  0  0  0  0
  9  4  1  0  0  0  0
  9  2  2  0  0  0  0
 10  3  2  0  0  0  0
 11 10  1  0  0  0  0
 12 11  2  0  0  0  0
 12  1  1  0  0  0  0
 13  8  2  0  0  0  0
 14 15  1  0  0  0  0
 15  9  1  0  0  0  0
 16 14  2  0  0  0  0
 17 18  1  0  0  0  0
 18 14  1  0  0  0  0
 19 20  1  0  0  0  0
 19  4  1  0  0  0  0
 21 23  1  0  0  0  0
 21 20  1  0  0  0  0
 23 22  1  6  0  0  0
 23 24  1  0  0  0  0
 24 26  1  0  0  0  0
 25 27  1  0  0  0  0
 26 25  2  0  0  0  0
 27 29  2  0  0  0  0
 27 28  1  0  0  0  0
M  END
>  <MODEL>
2

>  <REMARK>
 VINA RESULT:      -7.0      2.037      5.493
  Name = 
  9 active torsions:
  status: ('A' for Active; 'I' for Inactive)
    1  A    between atoms: N_3  and  C_4
    2  A    between atoms: C_6  and  O_16
    3  A    between atoms: C_7  and  O_21
    4  A    between atoms: N_11  and  C_15
    5  A    between atoms: O_16  and  C_26
    6  A    between atoms: C_18  and  C_19
    7  A    between atoms: C_18  and  C_22
    8  A    between atoms: C_19  and  C_29
    9  A    between atoms: C_26  and  C_29
                            x       y       z     vdW  Elec       q    Type
                         _______ _______ _______ _____ _____    ______ ____

>  <TORSDO>
F 9

$$$$
=
 OpenBabel10222421083D

 29 30  0  0  1  0  0  0  0  0999 V2000
  183.8270  177.9860  141.3810 C   0  0  1  0  0  3  0  0  0  0  0  0
  185.4580  178.8340  145.4870 C   0  0  0  0  0  3  0  0  0  0  0  0
  181.8430  179.0370  142.5820 N   0  0  0  0  0  0  0  0  0  0  0  0
  186.8410  177.8620  143.6710 C   0  0  0  0  0  0  0  0  0  0  0  0
  184.2550  178.6670  140.2400 O   0  0  0  0  0  1  0  0  0  0  0  0
  186.0520  178.0680  142.5990 C   0  0  0  0  0  3  0  0  0  0  0  0
  184.8780  179.8780  144.5960 C   0  0  0  0  0  2  0  0  0  0  0  0
  181.5470  177.6120  140.7680 O   0  0  0  0  0  0  0  0  0  0  0  0
  186.3630  177.9380  145.0740 C   0  0  0  0  0  0  0  0  0  0  0  0
  182.6230  179.5470  143.4850 C   0  0  0  0  0  3  0  0  0  0  0  0
  184.0660  179.2490  143.5140 C   0  0  0  0  0  0  0  0  0  0  0  0
  184.6230  178.4530  142.5780 C   0  0  0  0  0  0  0  0  0  0  0  0
  182.3480  178.1810  141.5550 C   0  0  0  0  0  0  0  0  0  0  0  0
  188.0110  177.2270  146.8910 C   0  0  0  0  0  0  0  0  0  0  0  0
  186.9050  176.9930  146.0070 N   0  0  0  0  0  2  0  0  0  0  0  0
  187.9660  176.7660  148.0600 O   0  0  0  0  0  0  0  0  0  0  0  0
  190.4140  177.2730  146.3170 C   0  0  0  0  0  1  0  0  0  0  0  0
  189.1560  177.9120  146.4770 O   0  0  0  0  0  0  0  0  0  0  0  0
  188.1840  177.5090  143.4850 O   0  0  0  0  0  0  0  0  0  0  0  0
  188.6070  176.1990  143.1240 C   0  0  0  0  0  2  0  0  0  0  0  0
  190.0990  176.2150  142.8350 C   0  0  0  0  0  2  0  0  0  0  0  0
  191.3000  178.2750  143.0950 O   0  0  0  0  0  1  0  0  0  0  0  0
  190.5490  177.5220  142.1890 C   0  0  1  0  0  3  0  0  0  0  0  0
  191.3480  177.2750  140.9140 C   0  0  0  0  0  2  0  0  0  0  0  0
  189.2910  177.9610  139.8440 N   0  0  0  0  0  0  0  0  0  0  0  0
  190.5210  177.5760  139.7110 C   0  0  0  0  0  3  0  0  0  0  0  0
  188.4650  178.2680  138.7180 C   0  0  0  0  0  0  0  0  0  0  0  0
  189.0670  178.3060  137.3580 C   0  0  0  0  0  1  0  0  0  0  0  0
  187.2330  178.5010  138.8610 O   0  0  0  0  0  0  0  0  0  0  0  0
  1  5  1  6  0  0  0
  1 13  1  0  0  0  0
  1 12  1  0  0  0  0
  3 10  2  0  0  0  0
  4  9  1  0  0  0  0
  6  4  2  0  0  0  0
  7  2  1  0  0  0  0
  8 13  2  0  0  0  0
  9  2  2  0  0  0  0
  9 15  1  0  0  0  0
 10 11  1  0  0  0  0
 11  7  1  0  0  0  0
 12  6  1  0  0  0  0
 12 11  2  0  0  0  0
 13  3  1  0  0  0  0
 14 16  2  0  0  0  0
 15 14  1  0  0  0  0
 17 18  1  0  0  0  0
 18 14  1  0  0  0  0
 19  4  1  0  0  0  0
 20 19  1  0  0  0  0
 21 20  1  0  0  0  0
 23 21  1  0  0  0  0
 23 22  1  1  0  0  0
 24 23  1  0  0  0  0
 26 25  2  0  0  0  0
 26 24  1  0  0  0  0
 27 29  2  0  0  0  0
 27 25  1  0  0  0  0
 28 27  1  0  0  0  0
M  END
>  <MODEL>
3

>  <REMARK>
 VINA RESULT:      -6.8      2.324      5.932
  Name = 
  9 active torsions:
  status: ('A' for Active; 'I' for Inactive)
    1  A    between atoms: N_3  and  C_4
    2  A    between atoms: C_6  and  O_16
    3  A    between atoms: C_7  and  O_21
    4  A    between atoms: N_11  and  C_15
    5  A    between atoms: O_16  and  C_26
    6  A    between atoms: C_18  and  C_19
    7  A    between atoms: C_18  and  C_22
    8  A    between atoms: C_19  and  C_29
    9  A    between atoms: C_26  and  C_29
                            x       y       z     vdW  Elec       q    Type
                         _______ _______ _______ _____ _____    ______ ____

>  <TORSDO>
F 9

$$$$
=
 OpenBabel10222421083D

 29 30  0  0  1  0  0  0  0  0999 V2000
  189.2810  177.2090  142.5550 C   0  0  1  0  0  3  0  0  0  0  0  0
  186.9590  178.2110  138.8340 C   0  0  0  0  0  3  0  0  0  0  0  0
  190.7210  176.2320  140.6970 N   0  0  0  0  0  0  0  0  0  0  0  0
  186.2280  178.9120  141.0980 C   0  0  0  0  0  0  0  0  0  0  0  0
  189.9070  178.1760  143.3420 O   0  0  0  0  0  1  0  0  0  0  0  0
  187.3370  178.6660  141.8230 C   0  0  0  0  0  3  0  0  0  0  0  0
  188.3670  178.6360  139.0690 C   0  0  0  0  0  2  0  0  0  0  0  0
  190.8210  175.4080  142.8700 O   0  0  0  0  0  0  0  0  0  0  0  0
  185.9870  178.3580  139.7430 C   0  0  0  0  0  0  0  0  0  0  0  0
  190.1320  176.9730  139.8100 C   0  0  0  0  0  3  0  0  0  0  0  0
  188.9830  177.8260  140.1600 C   0  0  0  0  0  0  0  0  0  0  0  0
  188.5270  177.8790  141.4300 C   0  0  0  0  0  0  0  0  0  0  0  0
  190.3030  176.2240  142.0640 C   0  0  0  0  0  0  0  0  0  0  0  0
  183.6630  178.7810  138.7720 C   0  0  0  0  0  0  0  0  0  0  0  0
  184.6470  177.9620  139.4200 N   0  0  0  0  0  2  0  0  0  0  0  0
  182.9020  178.2600  137.9170 O   0  0  0  0  0  0  0  0  0  0  0  0
  182.3440  180.8700  138.7180 C   0  0  0  0  0  1  0  0  0  0  0  0
  183.4960  180.1310  139.0950 O   0  0  0  0  0  0  0  0  0  0  0  0
  185.2030  179.6950  141.6460 O   0  0  0  0  0  0  0  0  0  0  0  0
  184.3920  179.2730  142.7360 C   0  0  0  0  0  2  0  0  0  0  0  0
  184.7370  180.0950  143.9670 C   0  0  0  0  0  2  0  0  0  0  0  0
  183.7330  178.9970  145.8490 O   0  0  0  0  0  1  0  0  0  0  0  0
  184.9510  179.2240  145.2020 C   0  0  1  0  0  3  0  0  0  0  0  0
  185.6190  177.9000  144.8500 C   0  0  0  0  0  2  0  0  0  0  0  0
  187.2650  177.6800  146.6080 N   0  0  0  0  0  0  0  0  0  0  0  0
  187.0240  177.8730  145.3500 C   0  0  0  0  0  3  0  0  0  0  0  0
  188.5960  177.6390  147.1280 C   0  0  0  0  0  0  0  0  0  0  0  0
  188.8730  178.2110  148.4730 C   0  0  0  0  0  1  0  0  0  0  0  0
  189.5370  177.1180  146.4670 O   0  0  0  0  0  0  0  0  0  0  0  0
  1  5  1  6  0  0  0
  2  7  1  0  0  0  0
  2  9  2  0  0  0  0
  3 13  1  0  0  0  0
  4 19  1  0  0  0  0
  4  6  2  0  0  0  0
  7 11  1  0  0  0  0
  9  4  1  0  0  0  0
 10 11  1  0  0  0  0
 10  3  2  0  0  0  0
 11 12  2  0  0  0  0
 12  6  1  0  0  0  0
 12  1  1  0  0  0  0
 13  1  1  0  0  0  0
 13  8  2  0  0  0  0
 14 18  1  0  0  0  0
 14 15  1  0  0  0  0
 15  9  1  0  0  0  0
 16 14  2  0  0  0  0
 17 18  1  0  0  0  0
 19 20  1  0  0  0  0
 20 21  1  0  0  0  0
 21 23  1  0  0  0  0
 23 22  1  6  0  0  0
 24 23  1  0  0  0  0
 24 26  1  0  0  0  0
 25 27  1  0  0  0  0
 26 25  2  0  0  0  0
 27 28  1  0  0  0  0
 29 27  2  0  0  0  0
M  END
>  <MODEL>
4

>  <REMARK>
 VINA RESULT:      -6.6      2.703      5.238
  Name = 
  9 active torsions:
  status: ('A' for Active; 'I' for Inactive)
    1  A    between atoms: N_3  and  C_4
    2  A    between atoms: C_6  and  O_16
    3  A    between atoms: C_7  and  O_21
    4  A    between atoms: N_11  and  C_15
    5  A    between atoms: O_16  and  C_26
    6  A    between atoms: C_18  and  C_19
    7  A    between atoms: C_18  and  C_22
    8  A    between atoms: C_19  and  C_29
    9  A    between atoms: C_26  and  C_29
                            x       y       z     vdW  Elec       q    Type
                         _______ _______ _______ _____ _____    ______ ____

>  <TORSDO>
F 9

$$$$
=
 OpenBabel10222421083D

 29 30  0  0  1  0  0  0  0  0999 V2000
  183.1190  178.2090  140.8940 C   0  0  1  0  0  3  0  0  0  0  0  0
  185.1250  178.6610  144.8950 C   0  0  0  0  0  3  0  0  0  0  0  0
  181.1660  178.6260  142.4720 N   0  0  0  0  0  0  0  0  0  0  0  0
  186.3940  178.3040  142.7940 C   0  0  0  0  0  0  0  0  0  0  0  0
  183.2580  179.1430  139.8660 O   0  0  0  0  0  1  0  0  0  0  0  0
  185.4410  178.5250  141.8680 C   0  0  0  0  0  3  0  0  0  0  0  0
  184.2520  179.7030  144.2860 C   0  0  0  0  0  2  0  0  0  0  0  0
  180.8790  177.4970  140.4600 O   0  0  0  0  0  0  0  0  0  0  0  0
  186.1090  178.0450  144.2270 C   0  0  0  0  0  0  0  0  0  0  0  0
  181.9600  179.1220  143.3710 C   0  0  0  0  0  3  0  0  0  0  0  0
  183.4230  179.1170  143.1930 C   0  0  0  0  0  0  0  0  0  0  0  0
  183.9770  178.6160  142.0690 C   0  0  0  0  0  0  0  0  0  0  0  0
  181.6670  178.0740  141.2540 C   0  0  0  0  0  0  0  0  0  0  0  0
  188.1480  177.3690  145.6080 C   0  0  0  0  0  0  0  0  0  0  0  0
  186.9320  177.0840  144.9010 N   0  0  0  0  0  2  0  0  0  0  0  0
  188.3840  176.7650  146.6850 O   0  0  0  0  0  0  0  0  0  0  0  0
  190.4420  177.8910  144.8530 C   0  0  0  0  0  1  0  0  0  0  0  0
  189.0980  178.2660  145.1130 O   0  0  0  0  0  0  0  0  0  0  0  0
  187.7400  178.2610  142.4060 O   0  0  0  0  0  0  0  0  0  0  0  0
  188.1950  178.6370  141.1110 C   0  0  0  0  0  2  0  0  0  0  0  0
  188.8940  177.4560  140.4600 C   0  0  0  0  0  2  0  0  0  0  0  0
  190.3040  176.0680  141.8170 O   0  0  0  0  0  1  0  0  0  0  0  0
  190.2900  177.2240  141.0320 C   0  0  1  0  0  3  0  0  0  0  0  0
  191.3420  177.1320  139.9320 C   0  0  0  0  0  2  0  0  0  0  0  0
  190.8110  175.2810  138.4700 N   0  0  0  0  0  0  0  0  0  0  0  0
  190.7530  176.5570  138.6900 C   0  0  0  0  0  3  0  0  0  0  0  0
  190.2520  174.6860  137.2960 C   0  0  0  0  0  0  0  0  0  0  0  0
  189.9690  175.5370  136.1090 C   0  0  0  0  0  1  0  0  0  0  0  0
  190.0030  173.4500  137.2500 O   0  0  0  0  0  0  0  0  0  0  0  0
  1  5  1  6  0  0  0
  1 13  1  0  0  0  0
  1 12  1  0  0  0  0
  3 10  2  0  0  0  0
  4  9  1  0  0  0  0
  6 12  1  0  0  0  0
  6  4  2  0  0  0  0
  7  2  1  0  0  0  0
  8 13  2  0  0  0  0
  9  2  2  0  0  0  0
  9 15  1  0  0  0  0
 11 10  1  0  0  0  0
 11  7  1  0  0  0  0
 12 11  2  0  0  0  0
 13  3  1  0  0  0  0
 14 16  2  0  0  0  0
 15 14  1  0  0  0  0
 17 18  1  0  0  0  0
 18 14  1  0  0  0  0
 19  4  1  0  0  0  0
 20 19  1  0  0  0  0
 21 23  1  0  0  0  0
 21 20  1  0  0  0  0
 23 22  1  6  0  0  0
 24 23  1  0  0  0  0
 25 26  2  0  0  0  0
 26 24  1  0  0  0  0
 27 25  1  0  0  0  0
 28 27  1  0  0  0  0
 29 27  2  0  0  0  0
M  END
>  <MODEL>
5

>  <REMARK>
 VINA RESULT:      -6.6      2.972      6.306
  Name = 
  9 active torsions:
  status: ('A' for Active; 'I' for Inactive)
    1  A    between atoms: N_3  and  C_4
    2  A    between atoms: C_6  and  O_16
    3  A    between atoms: C_7  and  O_21
    4  A    between atoms: N_11  and  C_15
    5  A    between atoms: O_16  and  C_26
    6  A    between atoms: C_18  and  C_19
    7  A    between atoms: C_18  and  C_22
    8  A    between atoms: C_19  and  C_29
    9  A    between atoms: C_26  and  C_29
                            x       y       z     vdW  Elec       q    Type
                         _______ _______ _______ _____ _____    ______ ____

>  <TORSDO>
F 9

$$$$
=
 OpenBabel10222421083D

 29 30  0  0  1  0  0  0  0  0999 V2000
  183.8810  177.9420  141.4620 C   0  0  1  0  0  3  0  0  0  0  0  0
  185.5660  178.8180  145.5400 C   0  0  0  0  0  3  0  0  0  0  0  0
  181.9210  179.0220  142.6750 N   0  0  0  0  0  0  0  0  0  0  0  0
  186.9200  177.8150  143.7190 C   0  0  0  0  0  0  0  0  0  0  0  0
  184.3010  178.6060  140.3090 O   0  0  0  0  0  1  0  0  0  0  0  0
  186.1200  178.0160  142.6530 C   0  0  0  0  0  3  0  0  0  0  0  0
  184.9850  179.8570  144.6450 C   0  0  0  0  0  2  0  0  0  0  0  0
  181.5910  177.5810  140.8790 O   0  0  0  0  0  0  0  0  0  0  0  0
  186.4590  177.9090  145.1270 C   0  0  0  0  0  0  0  0  0  0  0  0
  182.7150  179.5340  143.5640 C   0  0  0  0  0  3  0  0  0  0  0  0
  184.1560  179.2250  143.5790 C   0  0  0  0  0  0  0  0  0  0  0  0
  184.6940  178.4130  142.6450 C   0  0  0  0  0  0  0  0  0  0  0  0
  182.4060  178.1510  141.6510 C   0  0  0  0  0  0  0  0  0  0  0  0
  188.1630  177.1770  146.8830 C   0  0  0  0  0  0  0  0  0  0  0  0
  187.0030  176.9690  146.0630 N   0  0  0  0  0  2  0  0  0  0  0  0
  188.1570  176.7570  148.0680 O   0  0  0  0  0  0  0  0  0  0  0  0
  190.5680  177.1270  146.3190 C   0  0  0  0  0  1  0  0  0  0  0  0
  189.3160  177.7930  146.3890 O   0  0  0  0  0  0  0  0  0  0  0  0
  188.2570  177.4470  143.5210 O   0  0  0  0  0  0  0  0  0  0  0  0
  188.6730  176.1140  143.2490 C   0  0  0  0  0  2  0  0  0  0  0  0
  189.9840  176.1420  142.4820 C   0  0  0  0  0  2  0  0  0  0  0  0
  191.6390  177.7400  141.8010 O   0  0  0  0  0  1  0  0  0  0  0  0
  190.2620  177.5080  141.8610 C   0  0  1  0  0  3  0  0  0  0  0  0
  189.6410  177.6350  140.4740 C   0  0  0  0  0  2  0  0  0  0  0  0
  190.5560  175.9380  139.0150 N   0  0  0  0  0  0  0  0  0  0  0  0
  190.5940  177.1650  139.4290 C   0  0  0  0  0  3  0  0  0  0  0  0
  191.4450  175.4470  138.0090 C   0  0  0  0  0  0  0  0  0  0  0  0
  192.4890  176.3490  137.4530 C   0  0  0  0  0  1  0  0  0  0  0  0
  191.3610  174.2590  137.5910 O   0  0  0  0  0  0  0  0  0  0  0  0
  1  5  1  6  0  0  0
  1 13  1  0  0  0  0
  1 12  1  0  0  0  0
  3 10  2  0  0  0  0
  4  9  1  0  0  0  0
  6  4  2  0  0  0  0
  7  2  1  0  0  0  0
  8 13  2  0  0  0  0
  9  2  2  0  0  0  0
  9 15  1  0  0  0  0
 10 11  1  0  0  0  0
 11  7  1  0  0  0  0
 12  6  1  0  0  0  0
 12 11  2  0  0  0  0
 13  3  1  0  0  0  0
 14 16  2  0  0  0  0
 15 14  1  0  0  0  0
 17 18  1  0  0  0  0
 18 14  1  0  0  0  0
 19  4  1  0  0  0  0
 20 19  1  0  0  0  0
 21 20  1  0  0  0  0
 23 22  1  6  0  0  0
 23 21  1  0  0  0  0
 24 23  1  0  0  0  0
 25 26  2  0  0  0  0
 26 24  1  0  0  0  0
 27 25  1  0  0  0  0
 28 27  1  0  0  0  0
 29 27  2  0  0  0  0
M  END
>  <MODEL>
6

>  <REMARK>
 VINA RESULT:      -6.5      2.740      6.181
  Name = 
  9 active torsions:
  status: ('A' for Active; 'I' for Inactive)
    1  A    between atoms: N_3  and  C_4
    2  A    between atoms: C_6  and  O_16
    3  A    between atoms: C_7  and  O_21
    4  A    between atoms: N_11  and  C_15
    5  A    between atoms: O_16  and  C_26
    6  A    between atoms: C_18  and  C_19
    7  A    between atoms: C_18  and  C_22
    8  A    between atoms: C_19  and  C_29
    9  A    between atoms: C_26  and  C_29
                            x       y       z     vdW  Elec       q    Type
                         _______ _______ _______ _____ _____    ______ ____

>  <TORSDO>
F 9

$$$$
=
 OpenBabel10222421083D

 29 30  0  0  1  0  0  0  0  0999 V2000
  188.2720  177.2060  145.9710 C   0  0  1  0  0  3  0  0  0  0  0  0
  191.1770  177.5450  142.5530 C   0  0  0  0  0  3  0  0  0  0  0  0
  190.5360  177.0400  147.1220 N   0  0  0  0  0  0  0  0  0  0  0  0
  188.7210  177.7000  142.2420 C   0  0  0  0  0  0  0  0  0  0  0  0
  187.4710  178.2680  146.3930 O   0  0  0  0  0  1  0  0  0  0  0  0
  188.3020  177.8450  143.5150 C   0  0  0  0  0  3  0  0  0  0  0  0
  191.1690  178.4650  143.7240 C   0  0  0  0  0  2  0  0  0  0  0  0
  188.6210  176.1320  148.0780 O   0  0  0  0  0  0  0  0  0  0  0  0
  190.0740  177.2180  141.8680 C   0  0  0  0  0  0  0  0  0  0  0  0
  191.1300  177.5670  146.0950 C   0  0  0  0  0  3  0  0  0  0  0  0
  190.3970  177.8670  144.8520 C   0  0  0  0  0  0  0  0  0  0  0  0
  189.0730  177.6250  144.7590 C   0  0  0  0  0  0  0  0  0  0  0  0
  189.1370  176.7490  147.1100 C   0  0  0  0  0  0  0  0  0  0  0  0
  190.4350  176.7830  139.3780 C   0  0  0  0  0  0  0  0  0  0  0  0
  190.1750  176.3590  140.7240 N   0  0  0  0  0  2  0  0  0  0  0  0
  191.1930  176.0870  138.6550 O   0  0  0  0  0  0  0  0  0  0  0  0
  189.4970  178.0220  137.4570 C   0  0  0  0  0  1  0  0  0  0  0  0
  189.8360  177.9210  138.8320 O   0  0  0  0  0  0  0  0  0  0  0  0
  187.8370  177.9670  141.1880 O   0  0  0  0  0  0  0  0  0  0  0  0
  186.5960  178.6410  141.3570 C   0  0  0  0  0  2  0  0  0  0  0  0
  185.9050  178.7690  140.0100 C   0  0  0  0  0  2  0  0  0  0  0  0
  184.0740  180.1080  139.2300 O   0  0  0  0  0  1  0  0  0  0  0  0
  184.4260  179.1160  140.1490 C   0  0  1  0  0  3  0  0  0  0  0  0
  183.5390  177.8890  139.9710 C   0  0  0  0  0  2  0  0  0  0  0  0
  182.0810  178.7120  141.7140 N   0  0  0  0  0  0  0  0  0  0  0  0
  182.1930  178.1240  140.5660 C   0  0  0  0  0  3  0  0  0  0  0  0
  180.8090  178.9650  142.3180 C   0  0  0  0  0  0  0  0  0  0  0  0
  180.6040  178.6350  143.7540 C   0  0  0  0  0  1  0  0  0  0  0  0
  179.8630  179.4690  141.6520 O   0  0  0  0  0  0  0  0  0  0  0  0
  1  5  1  1  0  0  0
  1 13  1  0  0  0  0
  2  7  1  0  0  0  0
  4  6  2  0  0  0  0
  6 12  1  0  0  0  0
  7 11  1  0  0  0  0
  9  4  1  0  0  0  0
  9  2  2  0  0  0  0
 10  3  2  0  0  0  0
 11 10  1  0  0  0  0
 12 11  2  0  0  0  0
 12  1  1  0  0  0  0
 13  3  1  0  0  0  0
 13  8  2  0  0  0  0
 14 15  1  0  0  0  0
 15  9  1  0  0  0  0
 16 14  2  0  0  0  0
 17 18  1  0  0  0  0
 18 14  1  0  0  0  0
 19 20  1  0  0  0  0
 19  4  1  0  0  0  0
 21 23  1  0  0  0  0
 21 20  1  0  0  0  0
 23 22  1  6  0  0  0
 24 23  1  0  0  0  0
 24 26  1  0  0  0  0
 25 27  1  0  0  0  0
 26 25  2  0  0  0  0
 27 28  1  0  0  0  0
 29 27  2  0  0  0  0
M  END
>  <MODEL>
7

>  <REMARK>
 VINA RESULT:      -6.3      2.671      6.128
  Name = 
  9 active torsions:
  status: ('A' for Active; 'I' for Inactive)
    1  A    between atoms: N_3  and  C_4
    2  A    between atoms: C_6  and  O_16
    3  A    between atoms: C_7  and  O_21
    4  A    between atoms: N_11  and  C_15
    5  A    between atoms: O_16  and  C_26
    6  A    between atoms: C_18  and  C_19
    7  A    between atoms: C_18  and  C_22
    8  A    between atoms: C_19  and  C_29
    9  A    between atoms: C_26  and  C_29
                            x       y       z     vdW  Elec       q    Type
                         _______ _______ _______ _____ _____    ______ ____

>  <TORSDO>
F 9

$$$$
=
 OpenBabel10222421083D

 29 30  0  0  1  0  0  0  0  0999 V2000
  183.4470  178.1580  140.9620 C   0  0  1  0  0  3  0  0  0  0  0  0
  185.2950  178.6990  145.0280 C   0  0  0  0  0  3  0  0  0  0  0  0
  181.4440  178.6940  142.4380 N   0  0  0  0  0  0  0  0  0  0  0  0
  186.6400  178.2240  142.9980 C   0  0  0  0  0  0  0  0  0  0  0  0
  183.6600  179.0480  139.9080 O   0  0  0  0  0  1  0  0  0  0  0  0
  185.7340  178.4400  142.0240 C   0  0  0  0  0  3  0  0  0  0  0  0
  184.4830  179.7440  144.3430 C   0  0  0  0  0  2  0  0  0  0  0  0
  181.2050  177.4990  140.4570 O   0  0  0  0  0  0  0  0  0  0  0  0
  186.2860  178.0290  144.4260 C   0  0  0  0  0  0  0  0  0  0  0  0
  182.2140  179.1990  143.3510 C   0  0  0  0  0  3  0  0  0  0  0  0
  183.6820  179.1430  143.2380 C   0  0  0  0  0  0  0  0  0  0  0  0
  184.2670  178.5830  142.1580 C   0  0  0  0  0  0  0  0  0  0  0  0
  181.9780  178.0810  141.2630 C   0  0  0  0  0  0  0  0  0  0  0  0
  188.2000  177.3550  145.9770 C   0  0  0  0  0  0  0  0  0  0  0  0
  187.0490  177.0690  145.1700 N   0  0  0  0  0  2  0  0  0  0  0  0
  188.3440  176.7530  147.0710 O   0  0  0  0  0  0  0  0  0  0  0  0
  190.4400  177.8220  145.0450 C   0  0  0  0  0  1  0  0  0  0  0  0
  189.1900  178.2510  145.5620 O   0  0  0  0  0  0  0  0  0  0  0  0
  187.9990  178.1250  142.6710 O   0  0  0  0  0  0  0  0  0  0  0  0
  188.4940  178.2240  141.3410 C   0  0  0  0  0  2  0  0  0  0  0  0
  189.3810  177.0260  141.0440 C   0  0  0  0  0  2  0  0  0  0  0  0
  191.7280  177.5250  141.0240 O   0  0  0  0  0  1  0  0  0  0  0  0
  190.6000  177.4030  140.2070 C   0  0  1  0  0  3  0  0  0  0  0  0
  190.8560  176.3930  139.0950 C   0  0  0  0  0  2  0  0  0  0  0  0
  189.6050  177.8220  137.6000 N   0  0  0  0  0  0  0  0  0  0  0  0
  189.9210  176.6180  137.9560 C   0  0  0  0  0  3  0  0  0  0  0  0
  188.7190  178.0850  136.5090 C   0  0  0  0  0  0  0  0  0  0  0  0
  187.3620  178.6260  136.7840 C   0  0  0  0  0  1  0  0  0  0  0  0
  189.0740  177.8690  135.3170 O   0  0  0  0  0  0  0  0  0  0  0  0
  1  5  1  6  0  0  0
  1 13  1  0  0  0  0
  1 12  1  0  0  0  0
  3 10  2  0  0  0  0
  4  9  1  0  0  0  0
  6 12  1  0  0  0  0
  6  4  2  0  0  0  0
  7  2  1  0  0  0  0
  8 13  2  0  0  0  0
  9  2  2  0  0  0  0
  9 15  1  0  0  0  0
 11 10  1  0  0  0  0
 11  7  1  0  0  0  0
 12 11  2  0  0  0  0
 13  3  1  0  0  0  0
 14 16  2  0  0  0  0
 15 14  1  0  0  0  0
 17 18  1  0  0  0  0
 18 14  1  0  0  0  0
 19  4  1  0  0  0  0
 20 19  1  0  0  0  0
 21 20  1  0  0  0  0
 23 22  1  1  0  0  0
 23 21  1  0  0  0  0
 24 23  1  0  0  0  0
 25 26  2  0  0  0  0
 26 24  1  0  0  0  0
 27 28  1  0  0  0  0
 27 25  1  0  0  0  0
 29 27  2  0  0  0  0
M  END
>  <MODEL>
8

>  <REMARK>
 VINA RESULT:      -6.2      2.764      6.473
  Name = 
  9 active torsions:
  status: ('A' for Active; 'I' for Inactive)
    1  A    between atoms: N_3  and  C_4
    2  A    between atoms: C_6  and  O_16
    3  A    between atoms: C_7  and  O_21
    4  A    between atoms: N_11  and  C_15
    5  A    between atoms: O_16  and  C_26
    6  A    between atoms: C_18  and  C_19
    7  A    between atoms: C_18  and  C_22
    8  A    between atoms: C_19  and  C_29
    9  A    between atoms: C_26  and  C_29
                            x       y       z     vdW  Elec       q    Type
                         _______ _______ _______ _____ _____    ______ ____

>  <TORSDO>
F 9

$$$$
=
 OpenBabel10222421083D

 29 30  0  0  1  0  0  0  0  0999 V2000
  189.7460  174.4630  137.2280 C   0  0  1  0  0  3  0  0  0  0  0  0
  188.7150  178.7020  138.3300 C   0  0  0  0  0  3  0  0  0  0  0  0
  188.4030  175.2690  135.2210 N   0  0  0  0  0  0  0  0  0  0  0  0
  190.1090  177.2440  139.7740 C   0  0  0  0  0  0  0  0  0  0  0  0
  191.0470  174.0500  136.9400 O   0  0  0  0  0  1  0  0  0  0  0  0
  190.3890  176.2290  138.9340 C   0  0  0  0  0  3  0  0  0  0  0  0
  189.4590  178.3260  137.0950 C   0  0  0  0  0  2  0  0  0  0  0  0
  188.5500  173.0110  135.7530 O   0  0  0  0  0  0  0  0  0  0  0  0
  189.0240  178.2300  139.5450 C   0  0  0  0  0  0  0  0  0  0  0  0
  188.6000  176.5090  135.5500 C   0  0  0  0  0  3  0  0  0  0  0  0
  189.2860  176.8740  136.8020 C   0  0  0  0  0  0  0  0  0  0  0  0
  189.7530  175.9190  137.6330 C   0  0  0  0  0  0  0  0  0  0  0  0
  188.8620  174.1950  136.0440 C   0  0  0  0  0  0  0  0  0  0  0  0
  186.8660  178.5590  140.8700 C   0  0  0  0  0  0  0  0  0  0  0  0
  188.2850  178.6760  140.6900 N   0  0  0  0  0  2  0  0  0  0  0  0
  186.4180  178.2630  142.0080 O   0  0  0  0  0  0  0  0  0  0  0  0
  184.5800  179.0210  140.0550 C   0  0  0  0  0  1  0  0  0  0  0  0
  185.9660  178.8080  139.8310 O   0  0  0  0  0  0  0  0  0  0  0  0
  190.8340  177.3760  140.9660 O   0  0  0  0  0  0  0  0  0  0  0  0
  190.6790  176.5040  142.0790 C   0  0  0  0  0  2  0  0  0  0  0  0
  191.4390  177.0660  143.2690 C   0  0  0  0  0  2  0  0  0  0  0  0
  190.6060  178.9990  144.4200 O   0  0  0  0  0  1  0  0  0  0  0  0
  190.5050  177.6070  144.3480 C   0  0  1  0  0  3  0  0  0  0  0  0
  189.0600  177.1910  144.1040 C   0  0  0  0  0  2  0  0  0  0  0  0
  188.3230  177.4060  146.3970 N   0  0  0  0  0  0  0  0  0  0  0  0
  188.1680  177.7520  145.1590 C   0  0  0  0  0  3  0  0  0  0  0  0
  187.4960  177.9260  147.4410 C   0  0  0  0  0  0  0  0  0  0  0  0
  186.1860  178.5400  147.0980 C   0  0  0  0  0  1  0  0  0  0  0  0
  187.8590  177.8650  148.6480 O   0  0  0  0  0  0  0  0  0  0  0  0
  1  5  1  6  0  0  0
  1 12  1  0  0  0  0
  2  9  2  0  0  0  0
  3 10  2  0  0  0  0
  3 13  1  0  0  0  0
  4 19  1  0  0  0  0
  6  4  2  0  0  0  0
  7  2  1  0  0  0  0
  8 13  2  0  0  0  0
  9  4  1  0  0  0  0
  9 15  1  0  0  0  0
 10 11  1  0  0  0  0
 11  7  1  0  0  0  0
 11 12  2  0  0  0  0
 12  6  1  0  0  0  0
 13  1  1  0  0  0  0
 14 16  2  0  0  0  0
 15 14  1  0  0  0  0
 18 17  1  0  0  0  0
 18 14  1  0  0  0  0
 19 20  1  0  0  0  0
 20 21  1  0  0  0  0
 21 23  1  0  0  0  0
 23 22  1  6  0  0  0
 24 23  1  0  0  0  0
 24 26  1  0  0  0  0
 25 27  1  0  0  0  0
 26 25  2  0  0  0  0
 27 29  2  0  0  0  0
 28 27  1  0  0  0  0
M  END
>  <MODEL>
9

>  <REMARK>
 VINA RESULT:      -6.2      2.509      6.062
  Name = 
  9 active torsions:
  status: ('A' for Active; 'I' for Inactive)
    1  A    between atoms: N_3  and  C_4
    2  A    between atoms: C_6  and  O_16
    3  A    between atoms: C_7  and  O_21
    4  A    between atoms: N_11  and  C_15
    5  A    between atoms: O_16  and  C_26
    6  A    between atoms: C_18  and  C_19
    7  A    between atoms: C_18  and  C_22
    8  A    between atoms: C_19  and  C_29
    9  A    between atoms: C_26  and  C_29
                            x       y       z     vdW  Elec       q    Type
                         _______ _______ _______ _____ _____    ______ ____

>  <TORSDO>
F 9

$$$$
