=
 OpenBabel10222417253D

 28 30  0  0  1  0  0  0  0  0999 V2000
  187.2680  177.7710  142.4980 C   0  0  2  0  0  3  0  0  0  0  0  0
  185.1930  178.9680  143.5100 C   0  0  0  0  0  0  0  0  0  0  0  0
  185.8530  178.2880  142.3600 C   0  0  0  0  0  0  0  0  0  0  0  0
  186.7630  177.6840  144.9760 C   0  0  0  0  0  2  0  0  0  0  0  0
  185.2270  178.0510  141.1960 C   0  0  0  0  0  3  0  0  0  0  0  0
  185.7480  178.8210  144.9020 C   0  0  2  0  0  3  0  0  0  0  0  0
  184.2150  179.7410  143.3210 O   0  0  0  0  0  0  0  0  0  0  0  0
  187.8400  177.8920  143.9210 C   0  0  1  0  0  3  0  0  0  0  0  0
  184.6460  178.5760  145.8850 C   0  0  0  0  0  3  0  0  0  0  0  0
  184.9150  178.2010  147.1350 C   0  0  0  0  0  2  0  0  0  0  0  0
  183.0240  177.1700  140.4960 C   0  0  0  0  0  1  0  0  0  0  0  0
  183.8090  178.4120  140.8820 C   0  0  2  0  0  3  0  0  0  0  0  0
  182.5540  179.8170  139.2340 O   0  0  0  0  0  0  0  0  0  0  0  0
  184.8430  179.8740  139.3150 O   0  0  0  0  0  1  0  0  0  0  0  0
  183.7680  179.4050  139.7710 C   0  0  0  0  0  0  0  0  0  0  0  0
  188.1840  178.4940  141.5160 C   0  0  0  0  0  2  0  0  0  0  0  0
  190.4280  176.0760  139.7260 O   0  0  0  0  0  1  0  0  0  0  0  0
  189.5110  178.3180  139.4150 C   0  0  0  0  0  2  0  0  0  0  0  0
  188.5600  177.5790  140.3600 C   0  0  1  0  0  3  0  0  0  0  0  0
  190.8510  177.7390  141.3830 O   0  0  0  0  0  1  0  0  0  0  0  0
  190.0430  177.2620  140.3480 C   0  0  0  0  0  0  0  0  0  0  0  0
  188.8980  176.9140  144.1130 N   0  0  0  0  0  2  0  0  0  0  0  0
  190.8210  178.1210  144.6350 O   0  0  0  0  0  0  0  0  0  0  0  0
  191.0900  176.8120  145.0700 C   0  0  2  0  0  3  0  0  0  0  0  0
  189.7430  177.4070  145.1870 C   0  0  2  0  0  3  0  0  0  0  0  0
  192.2250  175.6640  146.9640 C   0  0  0  0  0  3  0  0  0  0  0  0
  191.7580  176.8630  146.3560 N   0  0  0  0  0  2  0  0  0  0  0  0
  192.8020  175.7100  148.0810 O   0  0  0  0  0  0  0  0  0  0  0  0
  1 16  1  6  0  0  0
  1  8  1  0  0  0  0
  2  6  1  0  0  0  0
  3  1  1  0  0  0  0
  3  2  1  0  0  0  0
  5  3  2  0  0  0  0
  6  4  1  0  0  0  0
  6  9  1  1  0  0  0
  7  2  2  0  0  0  0
  8 22  1  1  0  0  0
  8  4  1  0  0  0  0
  9 10  2  0  0  0  0
 12 11  1  6  0  0  0
 12  5  1  0  0  0  0
 13 15  2  0  0  0  0
 14 15  1  0  0  0  0
 15 12  1  0  0  0  0
 17 21  1  0  0  0  0
 18 21  1  0  0  0  0
 18 19  1  0  0  0  0
 19 16  1  1  0  0  0
 21 19  1  0  0  0  0
 21 20  1  0  0  0  0
 23 24  1  0  0  0  0
 23 25  1  0  0  0  0
 24 25  1  0  0  0  0
 24 27  1  1  0  0  0
 25 22  1  6  0  0  0
 26 28  2  0  0  0  0
 27 26  1  0  0  0  0
M  END
>  <MODEL>
1

>  <REMARK>
 VINA RESULT:      -7.9      0.000      0.000
  Name = 
  8 active torsions:
  status: ('A' for Active; 'I' for Inactive)
    1  A    between atoms: C_1  and  C_19
    2  A    between atoms: C_2  and  C_3
    3  A    between atoms: C_2  and  C_17
    4  A    between atoms: C_11  and  N_24
    5  A    between atoms: C_14  and  C_16
    6  A    between atoms: C_16  and  C_20
    7  A    between atoms: N_22  and  C_26
    8  A    between atoms: N_22  and  C_27
                            x       y       z     vdW  Elec       q    Type
                         _______ _______ _______ _____ _____    ______ ____

>  <TORSDO>
F 8

$$$$
=
 OpenBabel10222417253D

 28 30  0  0  1  0  0  0  0  0999 V2000
  188.3370  177.2630  144.6210 C   0  0  2  0  0  3  0  0  0  0  0  0
  190.6250  177.4710  143.4030 C   0  0  0  0  0  0  0  0  0  0  0  0
  189.8390  177.0850  144.6090 C   0  0  0  0  0  0  0  0  0  0  0  0
  188.5180  177.1180  142.1010 C   0  0  0  0  0  2  0  0  0  0  0  0
  190.3960  176.5210  145.6920 C   0  0  0  0  0  3  0  0  0  0  0  0
  189.9370  177.6750  142.0790 C   0  0  2  0  0  3  0  0  0  0  0  0
  191.8590  177.7130  143.4940 O   0  0  0  0  0  0  0  0  0  0  0  0
  187.7520  177.7160  143.2720 C   0  0  1  0  0  3  0  0  0  0  0  0
  190.7150  177.0270  140.9760 C   0  0  0  0  0  3  0  0  0  0  0  0
  190.3020  177.1020  139.7120 C   0  0  0  0  0  2  0  0  0  0  0  0
  192.1400  174.8160  145.2760 C   0  0  0  0  0  1  0  0  0  0  0  0
  191.8470  176.1900  145.8530 C   0  0  2  0  0  3  0  0  0  0  0  0
  191.7160  177.2160  148.1320 O   0  0  0  0  0  1  0  0  0  0  0  0
  193.0070  175.3600  147.7580 O   0  0  0  0  0  0  0  0  0  0  0  0
  192.2230  176.2280  147.2950 C   0  0  0  0  0  0  0  0  0  0  0  0
  187.9400  178.2550  145.7090 C   0  0  0  0  0  2  0  0  0  0  0  0
  184.4120  178.1030  146.9810 O   0  0  0  0  0  1  0  0  0  0  0  0
  186.6600  178.5480  147.8260 C   0  0  0  0  0  2  0  0  0  0  0  0
  186.8210  177.6870  146.5710 C   0  0  1  0  0  3  0  0  0  0  0  0
  185.6930  179.8580  145.9960 O   0  0  0  0  0  1  0  0  0  0  0  0
  185.6610  178.6540  146.7040 C   0  0  0  0  0  0  0  0  0  0  0  0
  186.3540  177.3270  143.1840 N   0  0  0  0  0  2  0  0  0  0  0  0
  184.2590  178.3460  143.1420 O   0  0  0  0  0  0  0  0  0  0  0  0
  184.5810  178.1320  141.7910 C   0  0  2  0  0  3  0  0  0  0  0  0
  185.6090  178.5080  142.7840 C   0  0  2  0  0  3  0  0  0  0  0  0
  184.4840  179.3530  139.6250 C   0  0  0  0  0  3  0  0  0  0  0  0
  184.2000  179.2980  141.0180 N   0  0  0  0  0  2  0  0  0  0  0  0
  184.1550  180.3660  138.9560 O   0  0  0  0  0  0  0  0  0  0  0  0
  1 16  1  1  0  0  0
  2  7  2  0  0  0  0
  2  3  1  0  0  0  0
  3  1  1  0  0  0  0
  3  5  2  0  0  0  0
  4  8  1  0  0  0  0
  5 12  1  0  0  0  0
  6  9  1  6  0  0  0
  6  4  1  0  0  0  0
  6  2  1  0  0  0  0
  8 22  1  1  0  0  0
  8  1  1  0  0  0  0
 10  9  2  0  0  0  0
 12 11  1  1  0  0  0
 12 15  1  0  0  0  0
 15 14  2  0  0  0  0
 15 13  1  0  0  0  0
 19 16  1  6  0  0  0
 19 21  1  0  0  0  0
 19 18  1  0  0  0  0
 20 21  1  0  0  0  0
 21 17  1  0  0  0  0
 21 18  1  0  0  0  0
 24 27  1  6  0  0  0
 24 25  1  0  0  0  0
 24 23  1  0  0  0  0
 25 23  1  0  0  0  0
 25 22  1  1  0  0  0
 26 27  1  0  0  0  0
 28 26  2  0  0  0  0
M  END
>  <MODEL>
2

>  <REMARK>
 VINA RESULT:      -7.7      1.974      8.253
  Name = 
  8 active torsions:
  status: ('A' for Active; 'I' for Inactive)
    1  A    between atoms: C_1  and  C_19
    2  A    between atoms: C_2  and  C_3
    3  A    between atoms: C_2  and  C_17
    4  A    between atoms: C_11  and  N_24
    5  A    between atoms: C_14  and  C_16
    6  A    between atoms: C_16  and  C_20
    7  A    between atoms: N_22  and  C_26
    8  A    between atoms: N_22  and  C_27
                            x       y       z     vdW  Elec       q    Type
                         _______ _______ _______ _____ _____    ______ ____

>  <TORSDO>
F 8

$$$$
=
 OpenBabel10222417253D

 28 30  0  0  1  0  0  0  0  0999 V2000
  187.7410  178.4970  141.4800 C   0  0  2  0  0  3  0  0  0  0  0  0
  187.5320  177.5970  143.9100 C   0  0  0  0  0  0  0  0  0  0  0  0
  188.3810  178.0920  142.7900 C   0  0  0  0  0  0  0  0  0  0  0  0
  185.6610  178.8910  142.8660 C   0  0  0  0  0  2  0  0  0  0  0  0
  189.7080  178.2560  142.8980 C   0  0  0  0  0  3  0  0  0  0  0  0
  186.0460  177.8450  143.9070 C   0  0  2  0  0  3  0  0  0  0  0  0
  188.0320  176.8960  144.8300 O   0  0  0  0  0  0  0  0  0  0  0  0
  186.2040  178.4800  141.5040 C   0  0  1  0  0  3  0  0  0  0  0  0
  185.5820  178.2870  145.2600 C   0  0  0  0  0  3  0  0  0  0  0  0
  184.4050  178.8900  145.4160 C   0  0  0  0  0  2  0  0  0  0  0  0
  191.6390  179.0070  144.2500 C   0  0  0  0  0  1  0  0  0  0  0  0
  190.5210  177.9870  144.1270 C   0  0  2  0  0  3  0  0  0  0  0  0
  190.8720  175.7990  142.9640 O   0  0  0  0  0  0  0  0  0  0  0  0
  191.7730  176.1800  145.0360 O   0  0  0  0  0  1  0  0  0  0  0  0
  191.0900  176.6110  144.0710 C   0  0  0  0  0  0  0  0  0  0  0  0
  188.2450  177.5970  140.3560 C   0  0  0  0  0  2  0  0  0  0  0  0
  188.9170  179.5840  137.2430 O   0  0  0  0  0  1  0  0  0  0  0  0
  189.5810  177.4640  138.2580 C   0  0  0  0  0  2  0  0  0  0  0  0
  189.1340  178.3790  139.3990 C   0  0  1  0  0  3  0  0  0  0  0  0
  187.2320  177.9910  137.8020 O   0  0  0  0  0  1  0  0  0  0  0  0
  188.5150  178.5000  138.0210 C   0  0  0  0  0  0  0  0  0  0  0  0
  185.6830  179.3780  140.4870 N   0  0  0  0  0  2  0  0  0  0  0  0
  184.1440  178.3370  139.0820 O   0  0  0  0  0  0  0  0  0  0  0  0
  183.7790  179.6940  139.0700 C   0  0  2  0  0  3  0  0  0  0  0  0
  184.2850  179.0360  140.2930 C   0  0  2  0  0  3  0  0  0  0  0  0
  181.6510  180.7360  138.3100 C   0  0  0  0  0  3  0  0  0  0  0  0
  182.3350  179.8010  139.1360 N   0  0  0  0  0  2  0  0  0  0  0  0
  180.3980  180.8300  138.3700 O   0  0  0  0  0  0  0  0  0  0  0  0
  1 16  1  6  0  0  0
  1  8  1  0  0  0  0
  1  3  1  0  0  0  0
  2  7  2  0  0  0  0
  3  5  2  0  0  0  0
  3  2  1  0  0  0  0
  4  6  1  0  0  0  0
  5 12  1  0  0  0  0
  6  2  1  0  0  0  0
  6  9  1  1  0  0  0
  8 22  1  6  0  0  0
  8  4  1  0  0  0  0
  9 10  2  0  0  0  0
 12 11  1  6  0  0  0
 13 15  2  0  0  0  0
 15 12  1  0  0  0  0
 15 14  1  0  0  0  0
 17 21  1  0  0  0  0
 18 19  1  0  0  0  0
 19 16  1  1  0  0  0
 20 21  1  0  0  0  0
 21 18  1  0  0  0  0
 21 19  1  0  0  0  0
 23 25  1  0  0  0  0
 24 23  1  0  0  0  0
 24 27  1  1  0  0  0
 24 25  1  0  0  0  0
 25 22  1  6  0  0  0
 26 28  2  0  0  0  0
 26 27  1  0  0  0  0
M  END
>  <MODEL>
3

>  <REMARK>
 VINA RESULT:      -7.6      2.684      7.235
  Name = 
  8 active torsions:
  status: ('A' for Active; 'I' for Inactive)
    1  A    between atoms: C_1  and  C_19
    2  A    between atoms: C_2  and  C_3
    3  A    between atoms: C_2  and  C_17
    4  A    between atoms: C_11  and  N_24
    5  A    between atoms: C_14  and  C_16
    6  A    between atoms: C_16  and  C_20
    7  A    between atoms: N_22  and  C_26
    8  A    between atoms: N_22  and  C_27
                            x       y       z     vdW  Elec       q    Type
                         _______ _______ _______ _____ _____    ______ ____

>  <TORSDO>
F 8

$$$$
=
 OpenBabel10222417253D

 28 30  0  0  1  0  0  0  0  0999 V2000
  188.9120  177.3030  140.8720 C   0  0  2  0  0  3  0  0  0  0  0  0
  189.6290  178.1330  143.2300 C   0  0  0  0  0  0  0  0  0  0  0  0
  188.5530  177.7430  142.2750 C   0  0  0  0  0  0  0  0  0  0  0  0
  191.1530  176.6870  141.8720 C   0  0  0  0  0  2  0  0  0  0  0  0
  187.2560  177.7050  142.6140 C   0  0  0  0  0  3  0  0  0  0  0  0
  191.0600  177.7450  142.9660 C   0  0  2  0  0  3  0  0  0  0  0  0
  189.3680  178.8620  144.2250 O   0  0  0  0  0  0  0  0  0  0  0  0
  190.4240  177.1730  140.6270 C   0  0  1  0  0  3  0  0  0  0  0  0
  191.7070  177.2350  144.2160 C   0  0  0  0  0  3  0  0  0  0  0  0
  191.6450  175.9450  144.5410 C   0  0  0  0  0  2  0  0  0  0  0  0
  186.8970  176.8530  144.9090 C   0  0  0  0  0  1  0  0  0  0  0  0
  186.7000  178.0270  143.9660 C   0  0  2  0  0  3  0  0  0  0  0  0
  184.5620  178.8900  144.9410 O   0  0  0  0  0  1  0  0  0  0  0  0
  184.6420  178.1420  142.7770 O   0  0  0  0  0  0  0  0  0  0  0  0
  185.2490  178.3540  143.8580 C   0  0  0  0  0  0  0  0  0  0  0  0
  188.3100  178.2690  139.8560 C   0  0  0  0  0  2  0  0  0  0  0  0
  188.5970  177.6980  136.1570 O   0  0  0  0  0  1  0  0  0  0  0  0
  186.9020  178.3170  137.8020 C   0  0  0  0  0  2  0  0  0  0  0  0
  187.9880  177.5460  138.5560 C   0  0  1  0  0  3  0  0  0  0  0  0
  188.9560  179.6220  137.5210 O   0  0  0  0  0  1  0  0  0  0  0  0
  188.3340  178.3840  137.3410 C   0  0  0  0  0  0  0  0  0  0  0  0
  190.6700  176.2480  139.5320 N   0  0  0  0  0  2  0  0  0  0  0  0
  191.5200  176.6670  137.4040 O   0  0  0  0  0  0  0  0  0  0  0  0
  192.3790  175.6960  137.9490 C   0  0  2  0  0  3  0  0  0  0  0  0
  191.7960  176.7710  138.7790 C   0  0  2  0  0  3  0  0  0  0  0  0
  194.6380  175.0120  137.1610 C   0  0  0  0  0  3  0  0  0  0  0  0
  193.7490  176.0280  137.6140 N   0  0  0  0  0  2  0  0  0  0  0  0
  195.8270  175.3010  136.8730 O   0  0  0  0  0  0  0  0  0  0  0  0
  1 16  1  6  0  0  0
  1  3  1  0  0  0  0
  2  7  2  0  0  0  0
  3  5  2  0  0  0  0
  3  2  1  0  0  0  0
  4  6  1  0  0  0  0
  5 12  1  0  0  0  0
  6  2  1  0  0  0  0
  6  9  1  1  0  0  0
  8 22  1  6  0  0  0
  8  1  1  0  0  0  0
  8  4  1  0  0  0  0
  9 10  2  0  0  0  0
 12 11  1  1  0  0  0
 14 15  2  0  0  0  0
 15 12  1  0  0  0  0
 15 13  1  0  0  0  0
 17 21  1  0  0  0  0
 18 19  1  0  0  0  0
 19 16  1  1  0  0  0
 21 20  1  0  0  0  0
 21 18  1  0  0  0  0
 21 19  1  0  0  0  0
 23 24  1  0  0  0  0
 23 25  1  0  0  0  0
 24 27  1  6  0  0  0
 24 25  1  0  0  0  0
 25 22  1  1  0  0  0
 26 27  1  0  0  0  0
 28 26  2  0  0  0  0
M  END
>  <MODEL>
4

>  <REMARK>
 VINA RESULT:      -6.7      3.155      5.833
  Name = 
  8 active torsions:
  status: ('A' for Active; 'I' for Inactive)
    1  A    between atoms: C_1  and  C_19
    2  A    between atoms: C_2  and  C_3
    3  A    between atoms: C_2  and  C_17
    4  A    between atoms: C_11  and  N_24
    5  A    between atoms: C_14  and  C_16
    6  A    between atoms: C_16  and  C_20
    7  A    between atoms: N_22  and  C_26
    8  A    between atoms: N_22  and  C_27
                            x       y       z     vdW  Elec       q    Type
                         _______ _______ _______ _____ _____    ______ ____

>  <TORSDO>
F 8

$$$$
=
 OpenBabel10222417253D

 28 30  0  0  1  0  0  0  0  0999 V2000
  187.6670  178.0050  143.1220 C   0  0  2  0  0  3  0  0  0  0  0  0
  185.4140  177.9940  144.4200 C   0  0  0  0  0  0  0  0  0  0  0  0
  186.9030  177.9300  144.4260 C   0  0  0  0  0  0  0  0  0  0  0  0
  185.6250  179.2140  142.2450 C   0  0  0  0  0  2  0  0  0  0  0  0
  187.6250  177.8640  145.5550 C   0  0  0  0  0  3  0  0  0  0  0  0
  184.6790  178.5060  143.2090 C   0  0  2  0  0  3  0  0  0  0  0  0
  184.7500  177.5450  145.3930 O   0  0  0  0  0  0  0  0  0  0  0  0
  186.7840  178.2900  141.8970 C   0  0  1  0  0  3  0  0  0  0  0  0
  183.5820  179.4400  143.6150 C   0  0  0  0  0  3  0  0  0  0  0  0
  182.3330  179.0030  143.7700 C   0  0  0  0  0  2  0  0  0  0  0  0
  186.5950  179.2460  147.3290 C   0  0  0  0  0  1  0  0  0  0  0  0
  187.0690  177.8560  146.9440 C   0  0  2  0  0  3  0  0  0  0  0  0
  189.2750  176.7870  147.4510 O   0  0  0  0  0  0  0  0  0  0  0  0
  187.9230  177.5350  149.1430 O   0  0  0  0  0  1  0  0  0  0  0  0
  188.1070  177.3870  147.9070 C   0  0  0  0  0  0  0  0  0  0  0  0
  188.4460  176.7120  142.9010 C   0  0  0  0  0  2  0  0  0  0  0  0
  192.0220  177.6600  143.5380 O   0  0  0  0  0  1  0  0  0  0  0  0
  190.6850  175.6510  143.1600 C   0  0  0  0  0  2  0  0  0  0  0  0
  189.7350  176.7170  143.7110 C   0  0  1  0  0  3  0  0  0  0  0  0
  190.7360  177.4850  141.5370 O   0  0  0  0  0  1  0  0  0  0  0  0
  190.9320  177.1070  142.8680 C   0  0  0  0  0  0  0  0  0  0  0  0
  187.5820  178.8950  140.8420 N   0  0  0  0  0  2  0  0  0  0  0  0
  188.2940  177.0960  139.5440 O   0  0  0  0  0  0  0  0  0  0  0  0
  188.5130  178.2270  138.7400 C   0  0  2  0  0  3  0  0  0  0  0  0
  187.3410  178.1250  139.6330 C   0  0  2  0  0  3  0  0  0  0  0  0
  189.0310  178.1340  136.3070 C   0  0  0  0  0  3  0  0  0  0  0  0
  188.1150  177.9300  137.3780 N   0  0  0  0  0  2  0  0  0  0  0  0
  188.6830  177.8780  135.1260 O   0  0  0  0  0  0  0  0  0  0  0  0
  1 16  1  6  0  0  0
  1  3  1  0  0  0  0
  2  3  1  0  0  0  0
  2  7  2  0  0  0  0
  3  5  2  0  0  0  0
  4  6  1  0  0  0  0
  5 12  1  0  0  0  0
  6  9  1  1  0  0  0
  6  2  1  0  0  0  0
  8 22  1  6  0  0  0
  8  4  1  0  0  0  0
  8  1  1  0  0  0  0
  9 10  2  0  0  0  0
 12 11  1  1  0  0  0
 12 15  1  0  0  0  0
 13 15  2  0  0  0  0
 15 14  1  0  0  0  0
 18 19  1  0  0  0  0
 19 16  1  6  0  0  0
 20 21  1  0  0  0  0
 21 18  1  0  0  0  0
 21 17  1  0  0  0  0
 21 19  1  0  0  0  0
 23 25  1  0  0  0  0
 24 27  1  6  0  0  0
 24 23  1  0  0  0  0
 24 25  1  0  0  0  0
 25 22  1  1  0  0  0
 26 27  1  0  0  0  0
 28 26  2  0  0  0  0
M  END
>  <MODEL>
5

>  <REMARK>
 VINA RESULT:      -6.6      2.905      6.381
  Name = 
  8 active torsions:
  status: ('A' for Active; 'I' for Inactive)
    1  A    between atoms: C_1  and  C_19
    2  A    between atoms: C_2  and  C_3
    3  A    between atoms: C_2  and  C_17
    4  A    between atoms: C_11  and  N_24
    5  A    between atoms: C_14  and  C_16
    6  A    between atoms: C_16  and  C_20
    7  A    between atoms: N_22  and  C_26
    8  A    between atoms: N_22  and  C_27
                            x       y       z     vdW  Elec       q    Type
                         _______ _______ _______ _____ _____    ______ ____

>  <TORSDO>
F 8

$$$$
=
 OpenBabel10222417253D

 28 30  0  0  1  0  0  0  0  0999 V2000
  189.1610  177.8750  141.3880 C   0  0  2  0  0  3  0  0  0  0  0  0
  189.8190  176.7510  139.1380 C   0  0  0  0  0  0  0  0  0  0  0  0
  188.8640  177.5700  139.9360 C   0  0  0  0  0  0  0  0  0  0  0  0
  191.5800  177.5070  140.7460 C   0  0  0  0  0  2  0  0  0  0  0  0
  187.7560  178.1160  139.4110 C   0  0  0  0  0  3  0  0  0  0  0  0
  191.2300  176.5400  139.6200 C   0  0  2  0  0  3  0  0  0  0  0  0
  189.4350  176.1560  138.0940 O   0  0  0  0  0  0  0  0  0  0  0  0
  190.5450  177.3950  141.8560 C   0  0  1  0  0  3  0  0  0  0  0  0
  192.2020  176.7060  138.4940 C   0  0  0  0  0  3  0  0  0  0  0  0
  192.8110  175.6510  137.9550 C   0  0  0  0  0  2  0  0  0  0  0  0
  188.0430  179.0270  137.1290 C   0  0  0  0  0  1  0  0  0  0  0  0
  187.3210  178.0000  137.9830 C   0  0  2  0  0  3  0  0  0  0  0  0
  185.1890  179.0730  138.7380 O   0  0  0  0  0  1  0  0  0  0  0  0
  185.1930  177.5660  137.0110 O   0  0  0  0  0  0  0  0  0  0  0  0
  185.8470  178.1980  137.8800 C   0  0  0  0  0  0  0  0  0  0  0  0
  188.0810  177.2670  142.2770 C   0  0  0  0  0  2  0  0  0  0  0  0
  186.1460  178.8910  145.0530 O   0  0  0  0  0  1  0  0  0  0  0  0
  185.7420  177.8930  142.8600 C   0  0  0  0  0  2  0  0  0  0  0  0
  187.2000  178.3550  142.8730 C   0  0  1  0  0  3  0  0  0  0  0  0
  186.8180  176.6350  144.6660 O   0  0  0  0  0  1  0  0  0  0  0  0
  186.5210  177.8990  144.1490 C   0  0  0  0  0  0  0  0  0  0  0  0
  190.9780  178.1790  143.0010 N   0  0  0  0  0  2  0  0  0  0  0  0
  190.7660  176.3070  144.3710 O   0  0  0  0  0  0  0  0  0  0  0  0
  191.0770  177.3600  145.2490 C   0  0  2  0  0  3  0  0  0  0  0  0
  191.6720  177.2720  143.8990 C   0  0  2  0  0  3  0  0  0  0  0  0
  191.6110  176.0360  147.2870 C   0  0  0  0  0  3  0  0  0  0  0  0
  192.0330  176.8940  146.2330 N   0  0  0  0  0  2  0  0  0  0  0  0
  192.4410  175.6350  148.1420 O   0  0  0  0  0  0  0  0  0  0  0  0
  1  8  1  0  0  0  0
  1 16  1  1  0  0  0
  2  6  1  0  0  0  0
  2  3  1  0  0  0  0
  3  1  1  0  0  0  0
  4  8  1  0  0  0  0
  5  3  2  0  0  0  0
  6  9  1  6  0  0  0
  6  4  1  0  0  0  0
  7  2  2  0  0  0  0
  8 22  1  1  0  0  0
 10  9  2  0  0  0  0
 12 11  1  6  0  0  0
 12  5  1  0  0  0  0
 14 15  2  0  0  0  0
 15 12  1  0  0  0  0
 15 13  1  0  0  0  0
 18 19  1  0  0  0  0
 18 21  1  0  0  0  0
 19 16  1  6  0  0  0
 19 21  1  0  0  0  0
 21 20  1  0  0  0  0
 21 17  1  0  0  0  0
 23 24  1  0  0  0  0
 24 27  1  1  0  0  0
 25 22  1  6  0  0  0
 25 23  1  0  0  0  0
 25 24  1  0  0  0  0
 26 28  2  0  0  0  0
 27 26  1  0  0  0  0
M  END
>  <MODEL>
6

>  <REMARK>
 VINA RESULT:      -6.6      2.061      5.279
  Name = 
  8 active torsions:
  status: ('A' for Active; 'I' for Inactive)
    1  A    between atoms: C_1  and  C_19
    2  A    between atoms: C_2  and  C_3
    3  A    between atoms: C_2  and  C_17
    4  A    between atoms: C_11  and  N_24
    5  A    between atoms: C_14  and  C_16
    6  A    between atoms: C_16  and  C_20
    7  A    between atoms: N_22  and  C_26
    8  A    between atoms: N_22  and  C_27
                            x       y       z     vdW  Elec       q    Type
                         _______ _______ _______ _____ _____    ______ ____

>  <TORSDO>
F 8

$$$$
=
 OpenBabel10222417253D

 28 30  0  0  1  0  0  0  0  0999 V2000
  185.1720  178.1780  142.2830 C   0  0  2  0  0  3  0  0  0  0  0  0
  184.2680  179.2690  144.4630 C   0  0  0  0  0  0  0  0  0  0  0  0
  184.0200  178.7160  143.1020 C   0  0  0  0  0  0  0  0  0  0  0  0
  186.3080  177.8210  144.5160 C   0  0  0  0  0  2  0  0  0  0  0  0
  182.7920  178.6140  142.5700 C   0  0  0  0  0  3  0  0  0  0  0  0
  185.5540  178.9650  145.1860 C   0  0  2  0  0  3  0  0  0  0  0  0
  183.4450  180.0640  144.9910 O   0  0  0  0  0  0  0  0  0  0  0  0
  186.5100  178.1370  143.0410 C   0  0  1  0  0  3  0  0  0  0  0  0
  185.2850  178.6200  146.6180 C   0  0  0  0  0  3  0  0  0  0  0  0
  186.1210  179.0020  147.5820 C   0  0  0  0  0  2  0  0  0  0  0  0
  180.7980  177.7920  143.7830 C   0  0  0  0  0  1  0  0  0  0  0  0
  181.5160  179.0160  143.2410 C   0  0  2  0  0  3  0  0  0  0  0  0
  179.9440  180.8770  142.6680 O   0  0  0  0  0  1  0  0  0  0  0  0
  180.5190  179.3080  141.1000 O   0  0  0  0  0  0  0  0  0  0  0  0
  180.6370  179.7370  142.2770 C   0  0  0  0  0  0  0  0  0  0  0  0
  185.3320  178.9990  141.0080 C   0  0  0  0  0  2  0  0  0  0  0  0
  185.0110  177.2510  137.7020 O   0  0  0  0  0  1  0  0  0  0  0  0
  184.4120  179.3860  138.7260 C   0  0  0  0  0  2  0  0  0  0  0  0
  184.5470  178.3730  139.8650 C   0  0  1  0  0  3  0  0  0  0  0  0
  186.7330  178.6060  138.6450 O   0  0  0  0  0  1  0  0  0  0  0  0
  185.3840  178.2430  138.6080 C   0  0  0  0  0  0  0  0  0  0  0  0
  187.3830  177.1360  142.4490 N   0  0  0  0  0  2  0  0  0  0  0  0
  189.6250  176.7520  141.9460 O   0  0  0  0  0  0  0  0  0  0  0  0
  189.5200  176.5070  143.3260 C   0  0  2  0  0  3  0  0  0  0  0  0
  188.7490  177.5810  142.6670 C   0  0  2  0  0  3  0  0  0  0  0  0
  190.9880  176.6720  145.3290 C   0  0  0  0  0  3  0  0  0  0  0  0
  190.6690  177.0760  144.0020 N   0  0  0  0  0  2  0  0  0  0  0  0
  191.9840  177.1680  145.9150 O   0  0  0  0  0  0  0  0  0  0  0  0
  1 16  1  6  0  0  0
  1  8  1  0  0  0  0
  1  3  1  0  0  0  0
  2  7  2  0  0  0  0
  2  6  1  0  0  0  0
  3  2  1  0  0  0  0
  4  6  1  0  0  0  0
  5  3  2  0  0  0  0
  5 12  1  0  0  0  0
  6  9  1  1  0  0  0
  8 22  1  6  0  0  0
  8  4  1  0  0  0  0
  9 10  2  0  0  0  0
 12 11  1  6  0  0  0
 14 15  2  0  0  0  0
 15 13  1  0  0  0  0
 15 12  1  0  0  0  0
 17 21  1  0  0  0  0
 18 19  1  0  0  0  0
 19 16  1  1  0  0  0
 21 20  1  0  0  0  0
 21 18  1  0  0  0  0
 21 19  1  0  0  0  0
 23 25  1  0  0  0  0
 23 24  1  0  0  0  0
 24 27  1  1  0  0  0
 25 22  1  6  0  0  0
 25 24  1  0  0  0  0
 26 28  2  0  0  0  0
 27 26  1  0  0  0  0
M  END
>  <MODEL>
7

>  <REMARK>
 VINA RESULT:      -6.5      2.159      3.279
  Name = 
  8 active torsions:
  status: ('A' for Active; 'I' for Inactive)
    1  A    between atoms: C_1  and  C_19
    2  A    between atoms: C_2  and  C_3
    3  A    between atoms: C_2  and  C_17
    4  A    between atoms: C_11  and  N_24
    5  A    between atoms: C_14  and  C_16
    6  A    between atoms: C_16  and  C_20
    7  A    between atoms: N_22  and  C_26
    8  A    between atoms: N_22  and  C_27
                            x       y       z     vdW  Elec       q    Type
                         _______ _______ _______ _____ _____    ______ ____

>  <TORSDO>
F 8

$$$$
=
 OpenBabel10222417253D

 28 30  0  0  1  0  0  0  0  0999 V2000
  189.6730  176.6970  139.7020 C   0  0  2  0  0  3  0  0  0  0  0  0
  187.5400  178.1560  139.4130 C   0  0  0  0  0  0  0  0  0  0  0  0
  188.4440  177.0840  138.9090 C   0  0  0  0  0  0  0  0  0  0  0  0
  188.4070  177.6070  141.6950 C   0  0  0  0  0  2  0  0  0  0  0  0
  188.1930  176.3840  137.7920 C   0  0  0  0  0  3  0  0  0  0  0  0
  187.6080  178.5950  140.8520 C   0  0  2  0  0  3  0  0  0  0  0  0
  186.7690  178.7660  138.6240 O   0  0  0  0  0  0  0  0  0  0  0  0
  189.7780  177.3940  141.0690 C   0  0  1  0  0  3  0  0  0  0  0  0
  186.2310  178.7440  141.4220 C   0  0  0  0  0  3  0  0  0  0  0  0
  185.9120  178.1920  142.5910 C   0  0  0  0  0  2  0  0  0  0  0  0
  186.2690  175.2340  136.7440 C   0  0  0  0  0  1  0  0  0  0  0  0
  186.9980  176.5570  136.9070 C   0  0  2  0  0  3  0  0  0  0  0  0
  188.6890  177.6080  135.3920 O   0  0  0  0  0  1  0  0  0  0  0  0
  186.6170  177.0270  134.6050 O   0  0  0  0  0  0  0  0  0  0  0  0
  187.4190  177.0730  135.5740 C   0  0  0  0  0  0  0  0  0  0  0  0
  190.9290  176.9820  138.8850 C   0  0  0  0  0  2  0  0  0  0  0  0
  193.6300  174.6100  137.8040 O   0  0  0  0  0  1  0  0  0  0  0  0
  191.8950  176.0090  136.8050 C   0  0  0  0  0  2  0  0  0  0  0  0
  191.4480  175.7060  138.2370 C   0  0  1  0  0  3  0  0  0  0  0  0
  193.6310  176.9520  138.2530 O   0  0  0  0  0  1  0  0  0  0  0  0
  192.9200  175.8060  137.8890 C   0  0  0  0  0  0  0  0  0  0  0  0
  190.6010  176.6000  141.9670 N   0  0  0  0  0  2  0  0  0  0  0  0
  191.9240  177.7950  143.4660 O   0  0  0  0  0  0  0  0  0  0  0  0
  191.5780  176.6190  144.1520 C   0  0  2  0  0  3  0  0  0  0  0  0
  190.6300  177.2940  143.2420 C   0  0  2  0  0  3  0  0  0  0  0  0
  191.8660  176.2320  146.5940 C   0  0  0  0  0  3  0  0  0  0  0  0
  191.2510  176.9450  145.5260 N   0  0  0  0  0  2  0  0  0  0  0  0
  191.5800  176.5160  147.7850 O   0  0  0  0  0  0  0  0  0  0  0  0
  1 16  1  6  0  0  0
  1  8  1  0  0  0  0
  2  6  1  0  0  0  0
  3  2  1  0  0  0  0
  3  1  1  0  0  0  0
  5  3  2  0  0  0  0
  6  9  1  1  0  0  0
  6  4  1  0  0  0  0
  7  2  2  0  0  0  0
  8  4  1  0  0  0  0
  8 22  1  1  0  0  0
  9 10  2  0  0  0  0
 12 11  1  6  0  0  0
 12  5  1  0  0  0  0
 13 15  1  0  0  0  0
 14 15  2  0  0  0  0
 15 12  1  0  0  0  0
 17 21  1  0  0  0  0
 18 21  1  0  0  0  0
 18 19  1  0  0  0  0
 19 16  1  1  0  0  0
 21 19  1  0  0  0  0
 21 20  1  0  0  0  0
 23 24  1  0  0  0  0
 24 27  1  1  0  0  0
 25 22  1  6  0  0  0
 25 23  1  0  0  0  0
 25 24  1  0  0  0  0
 26 28  2  0  0  0  0
 27 26  1  0  0  0  0
M  END
>  <MODEL>
8

>  <REMARK>
 VINA RESULT:      -6.5      2.892      4.253
  Name = 
  8 active torsions:
  status: ('A' for Active; 'I' for Inactive)
    1  A    between atoms: C_1  and  C_19
    2  A    between atoms: C_2  and  C_3
    3  A    between atoms: C_2  and  C_17
    4  A    between atoms: C_11  and  N_24
    5  A    between atoms: C_14  and  C_16
    6  A    between atoms: C_16  and  C_20
    7  A    between atoms: N_22  and  C_26
    8  A    between atoms: N_22  and  C_27
                            x       y       z     vdW  Elec       q    Type
                         _______ _______ _______ _____ _____    ______ ____

>  <TORSDO>
F 8

$$$$
=
 OpenBabel10222417253D

 28 30  0  0  1  0  0  0  0  0999 V2000
  187.9940  177.6040  142.7070 C   0  0  2  0  0  3  0  0  0  0  0  0
  189.6580  178.2590  144.5950 C   0  0  0  0  0  0  0  0  0  0  0  0
  188.2710  177.9310  144.1580 C   0  0  0  0  0  0  0  0  0  0  0  0
  190.4340  176.9400  142.6160 C   0  0  0  0  0  2  0  0  0  0  0  0
  187.2380  177.8510  145.0100 C   0  0  0  0  0  3  0  0  0  0  0  0
  190.8340  177.9100  143.7220 C   0  0  2  0  0  3  0  0  0  0  0  0
  189.8570  178.9070  145.6580 O   0  0  0  0  0  0  0  0  0  0  0  0
  189.2580  177.5110  141.8360 C   0  0  1  0  0  3  0  0  0  0  0  0
  191.9380  177.3140  144.5390 C   0  0  0  0  0  3  0  0  0  0  0  0
  191.6720  176.4800  145.5430 C   0  0  0  0  0  2  0  0  0  0  0  0
  187.5410  176.7380  147.1990 C   0  0  0  0  0  1  0  0  0  0  0  0
  187.3130  178.0620  146.4900 C   0  0  2  0  0  3  0  0  0  0  0  0
  186.0710  179.9630  147.5430 O   0  0  0  0  0  1  0  0  0  0  0  0
  184.9660  178.0660  146.8860 O   0  0  0  0  0  0  0  0  0  0  0  0
  186.0530  178.6920  146.9810 C   0  0  0  0  0  0  0  0  0  0  0  0
  187.0400  178.6360  142.1150 C   0  0  0  0  0  2  0  0  0  0  0  0
  183.5070  178.2000  140.9270 O   0  0  0  0  0  1  0  0  0  0  0  0
  184.7290  179.3640  142.6920 C   0  0  0  0  0  2  0  0  0  0  0  0
  185.5960  178.1790  142.2620 C   0  0  1  0  0  3  0  0  0  0  0  0
  185.2290  179.7360  140.3230 O   0  0  0  0  0  1  0  0  0  0  0  0
  184.6800  178.8690  141.2710 C   0  0  0  0  0  0  0  0  0  0  0  0
  188.9980  176.6750  140.6750 N   0  0  0  0  0  2  0  0  0  0  0  0
  189.4130  176.5560  138.3850 O   0  0  0  0  0  0  0  0  0  0  0  0
  190.6400  176.2310  138.9890 C   0  0  2  0  0  3  0  0  0  0  0  0
  189.7370  177.2500  139.5640 C   0  0  2  0  0  3  0  0  0  0  0  0
  192.9280  176.1840  138.0130 C   0  0  0  0  0  3  0  0  0  0  0  0
  191.7150  176.8830  138.2690 N   0  0  0  0  0  2  0  0  0  0  0  0
  193.8610  176.7520  137.3900 O   0  0  0  0  0  0  0  0  0  0  0  0
  1 16  1  6  0  0  0
  1  3  1  0  0  0  0
  2  7  2  0  0  0  0
  3  2  1  0  0  0  0
  3  5  2  0  0  0  0
  4  6  1  0  0  0  0
  5 12  1  0  0  0  0
  6  9  1  1  0  0  0
  6  2  1  0  0  0  0
  8 22  1  6  0  0  0
  8  4  1  0  0  0  0
  8  1  1  0  0  0  0
  9 10  2  0  0  0  0
 12 15  1  0  0  0  0
 12 11  1  1  0  0  0
 14 15  2  0  0  0  0
 15 13  1  0  0  0  0
 17 21  1  0  0  0  0
 19 16  1  6  0  0  0
 19 18  1  0  0  0  0
 20 21  1  0  0  0  0
 21 19  1  0  0  0  0
 21 18  1  0  0  0  0
 23 24  1  0  0  0  0
 23 25  1  0  0  0  0
 24 27  1  6  0  0  0
 24 25  1  0  0  0  0
 25 22  1  1  0  0  0
 26 27  1  0  0  0  0
 28 26  2  0  0  0  0
M  END
>  <MODEL>
9

>  <REMARK>
 VINA RESULT:      -6.4      2.463      6.320
  Name = 
  8 active torsions:
  status: ('A' for Active; 'I' for Inactive)
    1  A    between atoms: C_1  and  C_19
    2  A    between atoms: C_2  and  C_3
    3  A    between atoms: C_2  and  C_17
    4  A    between atoms: C_11  and  N_24
    5  A    between atoms: C_14  and  C_16
    6  A    between atoms: C_16  and  C_20
    7  A    between atoms: N_22  and  C_26
    8  A    between atoms: N_22  and  C_27
                            x       y       z     vdW  Elec       q    Type
                         _______ _______ _______ _____ _____    ______ ____

>  <TORSDO>
F 8

$$$$
