=
 OpenBabel10222420453D

 39 44  0  0  1  0  0  0  0  0999 V2000
  187.1710  177.9690  145.2580 C   0  0  2  0  0  3  0  0  0  0  0  0
  186.2460  177.6250  144.0920 C   0  0  1  0  0  3  0  0  0  0  0  0
  185.3990  179.3150  142.5830 C   0  0  1  0  0  3  0  0  0  0  0  0
  188.4820  178.2570  144.6780 N   0  0  0  0  0  2  0  0  0  0  0  0
  188.4340  177.5540  143.4060 C   0  0  1  0  0  3  0  0  0  0  0  0
  185.1550  178.6740  143.9310 C   0  0  0  0  0  2  0  0  0  0  0  0
  186.8210  178.9310  142.2640 C   0  0  0  0  0  2  0  0  0  0  0  0
  187.0650  177.6310  142.8880 N   0  0  2  0  0  0  0  0  0  0  0  0
  183.1370  178.5630  141.8250 C   0  0  0  0  0  3  0  0  0  0  0  0
  184.0230  178.2670  139.1690 C   0  0  0  0  0  0  0  0  0  0  0  0
  184.4920  178.7810  141.5090 C   0  0  0  0  0  0  0  0  0  0  0  0
  180.3720  177.7270  139.1830 C   0  0  0  0  0  2  0  0  0  0  0  0
  180.5100  177.9270  141.0120 S   0  0  0  0  0  0  0  0  0  0  0  0
  181.6780  177.7830  138.6100 O   0  0  0  0  0  0  0  0  0  0  0  0
  184.9290  178.6310  140.1730 C   0  0  0  0  0  3  0  0  0  0  0  0
  182.6800  178.0760  139.5090 C   0  0  0  0  0  0  0  0  0  0  0  0
  182.2540  178.1990  140.8080 C   0  0  0  0  0  0  0  0  0  0  0  0
  184.4540  178.1170  137.8570 O   0  0  0  0  0  1  0  0  0  0  0  0
  187.2660  176.7630  146.1910 C   0  0  0  0  0  2  0  0  0  0  0  0
  188.4490  176.9080  147.1220 C   0  0  0  0  0  2  0  0  0  0  0  0
  189.3140  178.5050  148.7240 N   0  0  0  0  0  1  0  0  0  0  0  0
  188.0980  177.8670  148.2440 C   0  0  0  0  0  2  0  0  0  0  0  0
  189.5120  178.0110  142.4070 C   0  0  2  0  0  3  0  0  0  0  0  0
  189.9800  176.8570  141.6300 N   0  0  0  0  0  2  0  0  0  0  0  0
  189.2850  177.7310  139.4080 N   0  0  0  0  0  2  0  0  0  0  0  0
  190.0100  176.7830  140.2000 C   0  0  0  0  0  0  0  0  0  0  0  0
  190.6860  175.8760  139.6500 O   0  0  0  0  0  0  0  0  0  0  0  0
  189.1790  177.6540  138.0070 N   0  0  0  0  0  0  0  0  0  0  0  0
  189.1630  179.0250  137.5390 C   0  0  0  0  0  1  0  0  0  0  0  0
  186.3660  176.6800  135.7560 O   0  0  0  0  0  1  0  0  0  0  0  0
  187.6830  176.7150  136.2260 C   0  0  1  0  0  0  0  0  0  0  0  0
  189.8860  175.8130  135.6860 C   0  0  2  0  0  3  0  0  0  0  0  0
  188.8040  176.7530  135.2000 C   0  0  0  0  0  2  0  0  0  0  0  0
  187.8650  177.0790  137.7000 C   0  0  1  0  0  3  0  0  0  0  0  0
  190.2330  174.8240  134.5950 C   0  0  0  0  0  1  0  0  0  0  0  0
  189.3480  175.0810  136.9000 C   0  0  0  0  0  2  0  0  0  0  0  0
  187.9460  175.6090  137.2180 C   0  0  2  0  0  3  0  0  0  0  0  0
  191.6260  178.0200  143.6770 C   0  0  0  0  0  2  0  0  0  0  0  0
  190.6490  178.7180  143.0910 C   0  0  0  0  0  3  0  0  0  0  0  0
  1 19  1  1  0  0  0
  2  6  1  6  0  0  0
  2  1  1  0  0  0  0
  3 11  1  6  0  0  0
  3  6  1  0  0  0  0
  4  1  1  0  0  0  0
  5 23  1  6  0  0  0
  5  4  1  0  0  0  0
  7  3  1  0  0  0  0
  8  7  1  1  0  0  0
  8  5  1  0  0  0  0
  8  2  1  0  0  0  0
 10 16  2  0  0  0  0
 10 15  1  0  0  0  0
 11  9  1  0  0  0  0
 12 13  1  0  0  0  0
 14 12  1  0  0  0  0
 14 16  1  0  0  0  0
 15 11  2  0  0  0  0
 16 17  1  0  0  0  0
 17 13  1  0  0  0  0
 17  9  2  0  0  0  0
 18 10  1  0  0  0  0
 19 20  1  0  0  0  0
 20 22  1  0  0  0  0
 22 21  1  0  0  0  0
 23 39  1  1  0  0  0
 24 23  1  0  0  0  0
 25 26  1  0  0  0  0
 26 24  1  0  0  0  0
 27 26  2  0  0  0  0
 28 25  1  0  0  0  0
 29 28  1  0  0  0  0
 31 30  1  6  0  0  0
 31 37  1  0  0  0  0
 31 34  1  0  0  0  0
 32 35  1  6  0  0  0
 32 36  1  0  0  0  0
 33 32  1  0  0  0  0
 33 31  1  0  0  0  0
 34 28  1  6  0  0  0
 37 36  1  6  0  0  0
 37 34  1  0  0  0  0
 39 38  2  0  0  0  0
M  END
>  <MODEL>
1

>  <REMARK>
 VINA RESULT:      -7.4      0.000      0.000
  Name = 
  9 active torsions:
  status: ('A' for Active; 'I' for Inactive)
    1  A    between atoms: C_5  and  C_28
    2  A    between atoms: N_6  and  N_16
    3  A    between atoms: N_6  and  C_23
    4  A    between atoms: N_7  and  C_30
    5  A    between atoms: C_10  and  C_14
    6  A    between atoms: C_13  and  C_24
    7  A    between atoms: C_13  and  C_28
    8  A    between atoms: C_22  and  C_30
    9  A    between atoms: C_26  and  C_30
                            x       y       z     vdW  Elec       q    Type
                         _______ _______ _______ _____ _____    ______ ____

>  <TORSDO>
F 9

$$$$
=
 OpenBabel10222420453D

 39 44  0  0  1  0  0  0  0  0999 V2000
  190.8550  176.6910  138.4060 C   0  0  2  0  0  3  0  0  0  0  0  0
  190.0400  176.5290  139.6870 C   0  0  1  0  0  3  0  0  0  0  0  0
  189.4450  178.4180  141.0770 C   0  0  1  0  0  3  0  0  0  0  0  0
  189.9550  177.2720  137.4110 N   0  0  0  0  0  2  0  0  0  0  0  0
  188.6390  176.9000  137.9080 C   0  0  1  0  0  3  0  0  0  0  0  0
  190.5630  177.4430  140.7880 C   0  0  0  0  0  2  0  0  0  0  0  0
  188.5560  178.3020  139.8650 C   0  0  0  0  0  2  0  0  0  0  0  0
  188.6760  176.9300  139.3740 N   0  0  2  0  0  0  0  0  0  0  0  0
  189.3530  177.8030  143.5000 C   0  0  0  0  0  3  0  0  0  0  0  0
  186.5390  177.8900  143.5110 C   0  0  0  0  0  0  0  0  0  0  0  0
  188.6530  178.0530  142.3030 C   0  0  0  0  0  0  0  0  0  0  0  0
  187.6440  177.3840  146.9960 C   0  0  0  0  0  2  0  0  0  0  0  0
  189.3430  177.3140  146.2800 S   0  0  0  0  0  0  0  0  0  0  0  0
  186.6970  177.5120  145.9360 O   0  0  0  0  0  0  0  0  0  0  0  0
  187.2410  178.0960  142.3170 C   0  0  0  0  0  3  0  0  0  0  0  0
  187.2600  177.6620  144.6870 C   0  0  0  0  0  0  0  0  0  0  0  0
  188.6310  177.5980  144.6760 C   0  0  0  0  0  0  0  0  0  0  0  0
  185.1510  177.9290  143.5240 O   0  0  0  0  0  1  0  0  0  0  0  0
  191.3300  175.3150  137.9400 C   0  0  0  0  0  2  0  0  0  0  0  0
  192.3030  175.4530  136.7900 C   0  0  0  0  0  2  0  0  0  0  0  0
  194.3600  176.6780  136.4310 N   0  0  0  0  0  1  0  0  0  0  0  0
  193.6870  175.7540  137.3320 C   0  0  0  0  0  2  0  0  0  0  0  0
  187.4910  177.7160  137.2900 C   0  0  2  0  0  3  0  0  0  0  0  0
  186.2970  176.8710  137.1720 N   0  0  0  0  0  2  0  0  0  0  0  0
  184.7750  178.3830  138.4310 N   0  0  0  0  0  2  0  0  0  0  0  0
  184.9770  177.2470  137.5810 C   0  0  0  0  0  0  0  0  0  0  0  0
  183.9970  176.5700  137.1770 O   0  0  0  0  0  0  0  0  0  0  0  0
  183.5230  178.7440  138.9600 N   0  0  0  0  0  0  0  0  0  0  0  0
  183.4030  180.1710  138.7430 C   0  0  0  0  0  1  0  0  0  0  0  0
  182.2060  178.8950  142.4480 O   0  0  0  0  0  1  0  0  0  0  0  0
  182.2140  178.5550  141.0920 C   0  0  1  0  0  0  0  0  0  0  0  0
  180.8480  177.3720  139.4510 C   0  0  2  0  0  3  0  0  0  0  0  0
  180.8950  178.5970  140.3390 C   0  0  0  0  0  2  0  0  0  0  0  0
  183.5830  178.5320  140.4100 C   0  0  1  0  0  3  0  0  0  0  0  0
  179.5680  176.6060  139.7010 C   0  0  0  0  0  1  0  0  0  0  0  0
  182.0470  176.5090  139.7950 C   0  0  0  0  0  2  0  0  0  0  0  0
  182.8850  177.2240  140.8590 C   0  0  2  0  0  3  0  0  0  0  0  0
  187.3070  177.8920  134.8370 C   0  0  0  0  0  2  0  0  0  0  0  0
  187.8780  178.3170  135.9670 C   0  0  0  0  0  3  0  0  0  0  0  0
  1 19  1  6  0  0  0
  1  2  1  0  0  0  0
  2  6  1  1  0  0  0
  3 11  1  1  0  0  0
  4  5  1  0  0  0  0
  4  1  1  0  0  0  0
  5 23  1  6  0  0  0
  5  8  1  0  0  0  0
  6  3  1  0  0  0  0
  7  3  1  0  0  0  0
  8  2  1  0  0  0  0
  8  7  1  6  0  0  0
  9 17  1  0  0  0  0
 10 18  1  0  0  0  0
 10 16  1  0  0  0  0
 11 15  1  0  0  0  0
 11  9  2  0  0  0  0
 13 12  1  0  0  0  0
 14 12  1  0  0  0  0
 15 10  2  0  0  0  0
 16 14  1  0  0  0  0
 17 16  2  0  0  0  0
 17 13  1  0  0  0  0
 20 22  1  0  0  0  0
 20 19  1  0  0  0  0
 21 22  1  0  0  0  0
 23 39  1  6  0  0  0
 24 23  1  0  0  0  0
 24 26  1  0  0  0  0
 25 28  1  0  0  0  0
 26 25  1  0  0  0  0
 27 26  2  0  0  0  0
 29 28  1  0  0  0  0
 31 30  1  1  0  0  0
 32 35  1  1  0  0  0
 32 36  1  0  0  0  0
 32 33  1  0  0  0  0
 33 31  1  0  0  0  0
 34 28  1  6  0  0  0
 34 37  1  0  0  0  0
 34 31  1  0  0  0  0
 37 36  1  6  0  0  0
 37 31  1  0  0  0  0
 38 39  2  0  0  0  0
M  END
>  <MODEL>
2

>  <REMARK>
 VINA RESULT:      -7.4      3.153      7.730
  Name = 
  9 active torsions:
  status: ('A' for Active; 'I' for Inactive)
    1  A    between atoms: C_5  and  C_28
    2  A    between atoms: N_6  and  N_16
    3  A    between atoms: N_6  and  C_23
    4  A    between atoms: N_7  and  C_30
    5  A    between atoms: C_10  and  C_14
    6  A    between atoms: C_13  and  C_24
    7  A    between atoms: C_13  and  C_28
    8  A    between atoms: C_22  and  C_30
    9  A    between atoms: C_26  and  C_30
                            x       y       z     vdW  Elec       q    Type
                         _______ _______ _______ _____ _____    ______ ____

>  <TORSDO>
F 9

$$$$
=
 OpenBabel10222420453D

 39 44  0  0  1  0  0  0  0  0999 V2000
  184.2860  176.6910  136.3040 C   0  0  2  0  0  3  0  0  0  0  0  0
  185.6970  176.3540  136.7810 C   0  0  1  0  0  3  0  0  0  0  0  0
  187.5880  177.7890  136.3120 C   0  0  1  0  0  3  0  0  0  0  0  0
  183.8070  177.7760  137.1590 N   0  0  0  0  0  2  0  0  0  0  0  0
  184.6220  177.6310  138.3550 C   0  0  1  0  0  3  0  0  0  0  0  0
  186.7310  176.6950  135.7160 C   0  0  0  0  0  2  0  0  0  0  0  0
  186.7510  178.3060  137.4540 C   0  0  0  0  0  2  0  0  0  0  0  0
  185.9580  177.1820  137.9500 N   0  0  2  0  0  0  0  0  0  0  0  0
  189.7730  176.6200  135.9680 C   0  0  0  0  0  3  0  0  0  0  0  0
  190.6020  177.1970  138.5950 C   0  0  0  0  0  0  0  0  0  0  0  0
  188.8960  177.2780  136.8520 C   0  0  0  0  0  0  0  0  0  0  0  0
  193.4630  175.6580  136.8460 C   0  0  0  0  0  2  0  0  0  0  0  0
  192.2930  175.4680  135.4330 S   0  0  0  0  0  0  0  0  0  0  0  0
  192.7620  176.2100  137.9590 O   0  0  0  0  0  0  0  0  0  0  0  0
  189.3200  177.5650  138.1700 C   0  0  0  0  0  3  0  0  0  0  0  0
  191.4570  176.5620  137.6900 C   0  0  0  0  0  0  0  0  0  0  0  0
  191.0440  176.2620  136.4170 C   0  0  0  0  0  0  0  0  0  0  0  0
  191.0170  177.4770  139.8910 O   0  0  0  0  0  1  0  0  0  0  0  0
  183.3960  175.4610  136.4730 C   0  0  0  0  0  2  0  0  0  0  0  0
  183.8250  174.3630  135.5250 C   0  0  0  0  0  2  0  0  0  0  0  0
  184.3800  173.2170  137.5850 N   0  0  0  0  0  1  0  0  0  0  0  0
  183.8200  173.0330  136.2550 C   0  0  0  0  0  2  0  0  0  0  0  0
  184.6230  178.8760  139.2580 C   0  0  2  0  0  3  0  0  0  0  0  0
  184.4310  178.4690  140.6550 N   0  0  0  0  0  2  0  0  0  0  0  0
  186.8400  178.4780  141.2690 N   0  0  0  0  0  2  0  0  0  0  0  0
  185.4600  178.4220  141.6490 C   0  0  0  0  0  0  0  0  0  0  0  0
  185.1350  178.3370  142.8610 O   0  0  0  0  0  0  0  0  0  0  0  0
  187.9030  178.3260  142.1780 N   0  0  0  0  0  0  0  0  0  0  0  0
  188.9890  179.1260  141.6490 C   0  0  0  0  0  1  0  0  0  0  0  0
  190.2440  175.4850  142.7970 O   0  0  0  0  0  1  0  0  0  0  0  0
  189.4300  176.5750  143.1250 C   0  0  1  0  0  0  0  0  0  0  0  0
  188.7060  177.8480  145.0780 C   0  0  2  0  0  3  0  0  0  0  0  0
  189.9070  177.5160  144.2180 C   0  0  0  0  0  2  0  0  0  0  0  0
  188.3320  176.9240  142.1190 C   0  0  1  0  0  3  0  0  0  0  0  0
  189.0190  177.5630  146.5290 C   0  0  0  0  0  1  0  0  0  0  0  0
  187.5540  176.9770  144.6140 C   0  0  0  0  0  2  0  0  0  0  0  0
  188.0150  176.1400  143.4170 C   0  0  2  0  0  3  0  0  0  0  0  0
  182.3680  179.8710  139.3600 C   0  0  0  0  0  2  0  0  0  0  0  0
  183.5930  179.8830  138.8260 C   0  0  0  0  0  3  0  0  0  0  0  0
  1 19  1  1  0  0  0
  1  2  1  0  0  0  0
  1  4  1  0  0  0  0
  2  6  1  6  0  0  0
  2  8  1  0  0  0  0
  3 11  1  1  0  0  0
  3  7  1  0  0  0  0
  4  5  1  0  0  0  0
  5 23  1  6  0  0  0
  6  3  1  0  0  0  0
  8  7  1  6  0  0  0
  8  5  1  0  0  0  0
  9 17  2  0  0  0  0
  9 11  1  0  0  0  0
 10 18  1  0  0  0  0
 11 15  2  0  0  0  0
 12 14  1  0  0  0  0
 13 17  1  0  0  0  0
 13 12  1  0  0  0  0
 15 10  1  0  0  0  0
 16 14  1  0  0  0  0
 16 10  2  0  0  0  0
 17 16  1  0  0  0  0
 20 22  1  0  0  0  0
 20 19  1  0  0  0  0
 22 21  1  0  0  0  0
 23 39  1  6  0  0  0
 23 24  1  0  0  0  0
 24 26  1  0  0  0  0
 25 26  1  0  0  0  0
 25 28  1  0  0  0  0
 26 27  2  0  0  0  0
 29 28  1  0  0  0  0
 31 30  1  6  0  0  0
 31 37  1  0  0  0  0
 31 33  1  0  0  0  0
 32 35  1  1  0  0  0
 33 32  1  0  0  0  0
 34 28  1  1  0  0  0
 34 31  1  0  0  0  0
 34 37  1  0  0  0  0
 36 32  1  0  0  0  0
 37 36  1  1  0  0  0
 39 38  2  0  0  0  0
M  END
>  <MODEL>
3

>  <REMARK>
 VINA RESULT:      -7.0      3.439      8.641
  Name = 
  9 active torsions:
  status: ('A' for Active; 'I' for Inactive)
    1  A    between atoms: C_5  and  C_28
    2  A    between atoms: N_6  and  N_16
    3  A    between atoms: N_6  and  C_23
    4  A    between atoms: N_7  and  C_30
    5  A    between atoms: C_10  and  C_14
    6  A    between atoms: C_13  and  C_24
    7  A    between atoms: C_13  and  C_28
    8  A    between atoms: C_22  and  C_30
    9  A    between atoms: C_26  and  C_30
                            x       y       z     vdW  Elec       q    Type
                         _______ _______ _______ _____ _____    ______ ____

>  <TORSDO>
F 9

$$$$
=
 OpenBabel10222420453D

 39 44  0  0  1  0  0  0  0  0999 V2000
  190.9010  176.7060  137.8430 C   0  0  2  0  0  3  0  0  0  0  0  0
  190.1240  176.5820  139.1530 C   0  0  1  0  0  3  0  0  0  0  0  0
  188.9910  178.4700  140.1550 C   0  0  1  0  0  3  0  0  0  0  0  0
  189.9050  176.8070  136.7770 N   0  0  0  0  0  2  0  0  0  0  0  0
  188.7290  176.1920  137.3740 C   0  0  1  0  0  3  0  0  0  0  0  0
  190.3430  177.8040  140.0350 C   0  0  0  0  0  2  0  0  0  0  0  0
  188.2050  177.8760  139.0150 C   0  0  0  0  0  2  0  0  0  0  0  0
  188.7120  176.5210  138.8030 N   0  0  2  0  0  0  0  0  0  0  0  0
  189.0850  177.8330  142.5730 C   0  0  0  0  0  3  0  0  0  0  0  0
  186.3000  178.1340  142.8560 C   0  0  0  0  0  0  0  0  0  0  0  0
  188.2950  178.1510  141.4510 C   0  0  0  0  0  0  0  0  0  0  0  0
  187.6920  177.5010  146.2150 C   0  0  0  0  0  2  0  0  0  0  0  0
  189.3040  177.3110  145.3380 S   0  0  0  0  0  0  0  0  0  0  0  0
  186.6610  177.7150  145.2530 O   0  0  0  0  0  0  0  0  0  0  0  0
  186.8980  178.3020  141.6010 C   0  0  0  0  0  3  0  0  0  0  0  0
  187.1110  177.8380  143.9560 C   0  0  0  0  0  0  0  0  0  0  0  0
  188.4660  177.6690  143.8120 C   0  0  0  0  0  0  0  0  0  0  0  0
  184.9270  178.2790  143.0030 O   0  0  0  0  0  1  0  0  0  0  0  0
  191.7500  175.4510  137.6470 C   0  0  0  0  0  2  0  0  0  0  0  0
  193.1510  175.8230  137.2150 C   0  0  0  0  0  2  0  0  0  0  0  0
  195.4680  175.2300  137.5910 N   0  0  0  0  0  1  0  0  0  0  0  0
  194.1100  174.7090  137.5920 C   0  0  0  0  0  2  0  0  0  0  0  0
  187.4190  176.5200  136.6370 C   0  0  2  0  0  3  0  0  0  0  0  0
  186.4540  175.4340  136.8450 N   0  0  0  0  0  2  0  0  0  0  0  0
  184.4680  176.8980  137.1610 N   0  0  0  0  0  2  0  0  0  0  0  0
  185.0350  175.6000  136.9470 C   0  0  0  0  0  0  0  0  0  0  0  0
  184.2940  174.5890  136.8380 O   0  0  0  0  0  0  0  0  0  0  0  0
  183.0970  177.1200  137.3800 N   0  0  0  0  0  0  0  0  0  0  0  0
  182.6000  177.7340  136.1660 C   0  0  0  0  0  1  0  0  0  0  0  0
  181.2410  179.3910  139.6880 O   0  0  0  0  0  1  0  0  0  0  0  0
  181.5940  178.1790  139.0870 C   0  0  1  0  0  0  0  0  0  0  0  0
  181.0130  175.8090  139.1740 C   0  0  2  0  0  3  0  0  0  0  0  0
  180.4870  177.1780  138.8000 C   0  0  0  0  0  2  0  0  0  0  0  0
  182.9810  178.1210  138.4470 C   0  0  1  0  0  3  0  0  0  0  0  0
  180.0520  175.1320  140.1250 C   0  0  0  0  0  1  0  0  0  0  0  0
  182.3590  176.0020  139.8460 C   0  0  0  0  0  2  0  0  0  0  0  0
  182.7090  177.4940  139.8370 C   0  0  2  0  0  3  0  0  0  0  0  0
  187.1500  177.8850  134.6010 C   0  0  0  0  0  2  0  0  0  0  0  0
  187.6480  176.7870  135.1750 C   0  0  0  0  0  3  0  0  0  0  0  0
  1 19  1  6  0  0  0
  1  2  1  0  0  0  0
  2  6  1  1  0  0  0
  3 11  1  1  0  0  0
  4  5  1  0  0  0  0
  4  1  1  0  0  0  0
  5 23  1  6  0  0  0
  5  8  1  0  0  0  0
  6  3  1  0  0  0  0
  7  3  1  0  0  0  0
  8  7  1  6  0  0  0
  8  2  1  0  0  0  0
  9 17  1  0  0  0  0
 10 18  1  0  0  0  0
 10 16  1  0  0  0  0
 11 15  1  0  0  0  0
 11  9  2  0  0  0  0
 13 12  1  0  0  0  0
 14 12  1  0  0  0  0
 15 10  2  0  0  0  0
 16 14  1  0  0  0  0
 17 16  2  0  0  0  0
 17 13  1  0  0  0  0
 20 22  1  0  0  0  0
 20 19  1  0  0  0  0
 21 22  1  0  0  0  0
 23 39  1  6  0  0  0
 23 24  1  0  0  0  0
 24 26  1  0  0  0  0
 25 28  1  0  0  0  0
 26 25  1  0  0  0  0
 27 26  2  0  0  0  0
 29 28  1  0  0  0  0
 31 30  1  1  0  0  0
 31 37  1  0  0  0  0
 32 36  1  0  0  0  0
 32 35  1  1  0  0  0
 33 31  1  0  0  0  0
 33 32  1  0  0  0  0
 34 28  1  6  0  0  0
 34 31  1  0  0  0  0
 34 37  1  0  0  0  0
 37 36  1  6  0  0  0
 38 39  2  0  0  0  0
M  END
>  <MODEL>
4

>  <REMARK>
 VINA RESULT:      -6.9      3.295      7.681
  Name = 
  9 active torsions:
  status: ('A' for Active; 'I' for Inactive)
    1  A    between atoms: C_5  and  C_28
    2  A    between atoms: N_6  and  N_16
    3  A    between atoms: N_6  and  C_23
    4  A    between atoms: N_7  and  C_30
    5  A    between atoms: C_10  and  C_14
    6  A    between atoms: C_13  and  C_24
    7  A    between atoms: C_13  and  C_28
    8  A    between atoms: C_22  and  C_30
    9  A    between atoms: C_26  and  C_30
                            x       y       z     vdW  Elec       q    Type
                         _______ _______ _______ _____ _____    ______ ____

>  <TORSDO>
F 9

$$$$
=
 OpenBabel10222420453D

 39 44  0  0  1  0  0  0  0  0999 V2000
  187.8260  173.9270  136.3800 C   0  0  2  0  0  3  0  0  0  0  0  0
  189.2010  173.6280  136.9740 C   0  0  1  0  0  3  0  0  0  0  0  0
  191.2480  174.1960  135.8170 C   0  0  1  0  0  3  0  0  0  0  0  0
  187.6210  175.3690  136.5100 N   0  0  0  0  0  2  0  0  0  0  0  0
  188.5150  175.7260  137.6010 C   0  0  1  0  0  3  0  0  0  0  0  0
  190.1660  173.1440  135.9000 C   0  0  0  0  0  2  0  0  0  0  0  0
  190.6280  175.3910  136.4930 C   0  0  0  0  0  2  0  0  0  0  0  0
  189.7110  174.8810  137.5110 N   0  0  2  0  0  0  0  0  0  0  0  0
  193.0790  172.5540  136.2770 C   0  0  0  0  0  3  0  0  0  0  0  0
  194.4110  174.3710  137.9650 C   0  0  0  0  0  0  0  0  0  0  0  0
  192.5000  173.8070  136.5570 C   0  0  0  0  0  0  0  0  0  0  0  0
  196.6020  171.4290  137.5590 C   0  0  0  0  0  2  0  0  0  0  0  0
  195.2080  170.7250  136.5760 S   0  0  0  0  0  0  0  0  0  0  0  0
  196.2080  172.6960  138.0840 O   0  0  0  0  0  0  0  0  0  0  0  0
  193.1750  174.7140  137.4040 C   0  0  0  0  0  3  0  0  0  0  0  0
  194.9710  173.1280  137.6550 C   0  0  0  0  0  0  0  0  0  0  0  0
  194.3110  172.2350  136.8500 C   0  0  0  0  0  0  0  0  0  0  0  0
  195.0720  175.2610  138.8010 O   0  0  0  0  0  1  0  0  0  0  0  0
  186.7630  173.1750  137.1810 C   0  0  0  0  0  2  0  0  0  0  0  0
  185.4430  173.9130  137.1310 C   0  0  0  0  0  2  0  0  0  0  0  0
  184.5270  171.8390  136.2810 N   0  0  0  0  0  1  0  0  0  0  0  0
  184.3030  172.9170  137.2310 C   0  0  0  0  0  2  0  0  0  0  0  0
  188.8140  177.2330  137.6890 C   0  0  2  0  0  3  0  0  0  0  0  0
  188.1890  177.7860  138.8950 N   0  0  0  0  0  2  0  0  0  0  0  0
  190.1090  177.3490  140.4150 N   0  0  0  0  0  2  0  0  0  0  0  0
  188.8490  177.9790  140.1520 C   0  0  0  0  0  0  0  0  0  0  0  0
  188.3100  178.7140  141.0180 O   0  0  0  0  0  0  0  0  0  0  0  0
  190.7590  177.4030  141.6610 N   0  0  0  0  0  0  0  0  0  0  0  0
  192.0990  177.8790  141.3830 C   0  0  0  0  0  1  0  0  0  0  0  0
  191.8990  174.7540  144.0290 O   0  0  0  0  0  1  0  0  0  0  0  0
  191.2550  175.9290  143.6290 C   0  0  1  0  0  0  0  0  0  0  0  0
  189.9230  177.7460  144.5700 C   0  0  2  0  0  3  0  0  0  0  0  0
  191.3020  177.1220  144.5690 C   0  0  0  0  0  2  0  0  0  0  0  0
  190.8850  176.0250  142.1490 C   0  0  1  0  0  3  0  0  0  0  0  0
  189.4200  177.8780  145.9900 C   0  0  0  0  0  1  0  0  0  0  0  0
  189.0060  176.8340  143.7760 C   0  0  0  0  0  2  0  0  0  0  0  0
  189.8270  175.6660  143.2210 C   0  0  2  0  0  3  0  0  0  0  0  0
  187.1990  178.5960  136.4180 C   0  0  0  0  0  2  0  0  0  0  0  0
  188.3760  177.9650  136.4500 C   0  0  0  0  0  3  0  0  0  0  0  0
  1  4  1  0  0  0  0
  1  2  1  0  0  0  0
  1 19  1  1  0  0  0
  2  6  1  6  0  0  0
  2  8  1  0  0  0  0
  3  6  1  0  0  0  0
  3  7  1  0  0  0  0
  3 11  1  1  0  0  0
  4  5  1  0  0  0  0
  5 23  1  6  0  0  0
  8  7  1  6  0  0  0
  8  5  1  0  0  0  0
  9 11  2  0  0  0  0
  9 17  1  0  0  0  0
 10 18  1  0  0  0  0
 11 15  1  0  0  0  0
 12 14  1  0  0  0  0
 13 17  1  0  0  0  0
 13 12  1  0  0  0  0
 15 10  2  0  0  0  0
 16 10  1  0  0  0  0
 16 14  1  0  0  0  0
 17 16  2  0  0  0  0
 20 19  1  0  0  0  0
 20 22  1  0  0  0  0
 21 22  1  0  0  0  0
 23 39  1  6  0  0  0
 23 24  1  0  0  0  0
 24 26  1  0  0  0  0
 25 28  1  0  0  0  0
 26 25  1  0  0  0  0
 26 27  2  0  0  0  0
 29 28  1  0  0  0  0
 31 30  1  1  0  0  0
 31 33  1  0  0  0  0
 32 35  1  1  0  0  0
 33 32  1  0  0  0  0
 34 28  1  1  0  0  0
 34 37  1  0  0  0  0
 34 31  1  0  0  0  0
 36 32  1  0  0  0  0
 37 31  1  0  0  0  0
 37 36  1  1  0  0  0
 38 39  2  0  0  0  0
M  END
>  <MODEL>
5

>  <REMARK>
 VINA RESULT:      -6.8      4.566      9.945
  Name = 
  9 active torsions:
  status: ('A' for Active; 'I' for Inactive)
    1  A    between atoms: C_5  and  C_28
    2  A    between atoms: N_6  and  N_16
    3  A    between atoms: N_6  and  C_23
    4  A    between atoms: N_7  and  C_30
    5  A    between atoms: C_10  and  C_14
    6  A    between atoms: C_13  and  C_24
    7  A    between atoms: C_13  and  C_28
    8  A    between atoms: C_22  and  C_30
    9  A    between atoms: C_26  and  C_30
                            x       y       z     vdW  Elec       q    Type
                         _______ _______ _______ _____ _____    ______ ____

>  <TORSDO>
F 9

$$$$
=
 OpenBabel10222420453D

 39 44  0  0  1  0  0  0  0  0999 V2000
  190.6830  175.6750  136.4110 C   0  0  2  0  0  3  0  0  0  0  0  0
  190.3420  175.7020  137.9000 C   0  0  1  0  0  3  0  0  0  0  0  0
  189.9390  177.7710  139.0870 C   0  0  1  0  0  3  0  0  0  0  0  0
  189.4410  175.9650  135.6960 N   0  0  0  0  0  2  0  0  0  0  0  0
  188.4170  175.5860  136.6580 C   0  0  1  0  0  3  0  0  0  0  0  0
  191.0420  176.8600  138.6000 C   0  0  0  0  0  2  0  0  0  0  0  0
  188.7430  177.3380  138.2780 C   0  0  0  0  0  2  0  0  0  0  0  0
  188.9050  175.9120  138.0010 N   0  0  2  0  0  0  0  0  0  0  0  0
  188.3560  177.9570  141.0150 C   0  0  0  0  0  3  0  0  0  0  0  0
  190.1630  176.6620  142.7430 C   0  0  0  0  0  0  0  0  0  0  0  0
  189.6340  177.5910  140.5490 C   0  0  0  0  0  0  0  0  0  0  0  0
  187.0030  177.1260  144.5930 C   0  0  0  0  0  2  0  0  0  0  0  0
  186.4340  178.0180  143.0810 S   0  0  0  0  0  0  0  0  0  0  0  0
  188.3670  176.7440  144.4210 O   0  0  0  0  0  0  0  0  0  0  0  0
  190.5350  176.9410  141.4220 C   0  0  0  0  0  3  0  0  0  0  0  0
  188.8810  177.0200  143.1730 C   0  0  0  0  0  0  0  0  0  0  0  0
  188.0100  177.6710  142.3360 C   0  0  0  0  0  0  0  0  0  0  0  0
  191.0500  176.0260  143.6020 O   0  0  0  0  0  1  0  0  0  0  0  0
  191.1860  174.2810  136.0400 C   0  0  0  0  0  2  0  0  0  0  0  0
  192.1680  173.7810  137.0770 C   0  0  0  0  0  2  0  0  0  0  0  0
  194.0830  175.0570  137.8280 N   0  0  0  0  0  1  0  0  0  0  0  0
  193.5630  174.2610  136.7270 C   0  0  0  0  0  2  0  0  0  0  0  0
  187.0250  176.1580  136.3370 C   0  0  2  0  0  3  0  0  0  0  0  0
  185.9970  175.1720  136.6880 N   0  0  0  0  0  2  0  0  0  0  0  0
  184.1620  176.8130  137.0400 N   0  0  0  0  0  2  0  0  0  0  0  0
  184.6080  175.4610  136.8780 C   0  0  0  0  0  0  0  0  0  0  0  0
  183.7840  174.5110  136.8930 O   0  0  0  0  0  0  0  0  0  0  0  0
  182.8320  177.1620  137.3390 N   0  0  0  0  0  0  0  0  0  0  0  0
  182.3390  177.8630  136.1720 C   0  0  0  0  0  1  0  0  0  0  0  0
  181.3280  179.4420  139.8820 O   0  0  0  0  0  1  0  0  0  0  0  0
  181.5590  178.2350  139.2160 C   0  0  1  0  0  0  0  0  0  0  0  0
  180.8710  175.8930  139.2940 C   0  0  2  0  0  3  0  0  0  0  0  0
  180.3800  177.2970  139.0120 C   0  0  0  0  0  2  0  0  0  0  0  0
  182.8720  178.1320  138.4390 C   0  0  1  0  0  3  0  0  0  0  0  0
  179.9750  175.2320  140.3170 C   0  0  0  0  0  1  0  0  0  0  0  0
  182.2850  176.0010  139.8340 C   0  0  0  0  0  2  0  0  0  0  0  0
  182.7070  177.4740  139.8310 C   0  0  2  0  0  3  0  0  0  0  0  0
  186.7330  177.8780  134.5940 C   0  0  0  0  0  2  0  0  0  0  0  0
  186.9130  176.5900  134.9010 C   0  0  0  0  0  3  0  0  0  0  0  0
  1 19  1  6  0  0  0
  1  2  1  0  0  0  0
  2  8  1  0  0  0  0
  2  6  1  1  0  0  0
  3 11  1  1  0  0  0
  4  1  1  0  0  0  0
  4  5  1  0  0  0  0
  5 23  1  6  0  0  0
  5  8  1  0  0  0  0
  6  3  1  0  0  0  0
  7  3  1  0  0  0  0
  8  7  1  6  0  0  0
  9 17  1  0  0  0  0
 10 16  1  0  0  0  0
 10 18  1  0  0  0  0
 11  9  2  0  0  0  0
 11 15  1  0  0  0  0
 13 12  1  0  0  0  0
 14 12  1  0  0  0  0
 15 10  2  0  0  0  0
 16 14  1  0  0  0  0
 17 13  1  0  0  0  0
 17 16  2  0  0  0  0
 19 20  1  0  0  0  0
 22 20  1  0  0  0  0
 22 21  1  0  0  0  0
 23 39  1  6  0  0  0
 23 24  1  0  0  0  0
 24 26  1  0  0  0  0
 25 28  1  0  0  0  0
 26 27  2  0  0  0  0
 26 25  1  0  0  0  0
 29 28  1  0  0  0  0
 31 37  1  0  0  0  0
 31 30  1  1  0  0  0
 32 36  1  0  0  0  0
 32 35  1  1  0  0  0
 33 31  1  0  0  0  0
 33 32  1  0  0  0  0
 34 28  1  6  0  0  0
 34 31  1  0  0  0  0
 34 37  1  0  0  0  0
 37 36  1  6  0  0  0
 38 39  2  0  0  0  0
M  END
>  <MODEL>
6

>  <REMARK>
 VINA RESULT:      -6.4      3.251      8.127
  Name = 
  9 active torsions:
  status: ('A' for Active; 'I' for Inactive)
    1  A    between atoms: C_5  and  C_28
    2  A    between atoms: N_6  and  N_16
    3  A    between atoms: N_6  and  C_23
    4  A    between atoms: N_7  and  C_30
    5  A    between atoms: C_10  and  C_14
    6  A    between atoms: C_13  and  C_24
    7  A    between atoms: C_13  and  C_28
    8  A    between atoms: C_22  and  C_30
    9  A    between atoms: C_26  and  C_30
                            x       y       z     vdW  Elec       q    Type
                         _______ _______ _______ _____ _____    ______ ____

>  <TORSDO>
F 9

$$$$
=
 OpenBabel10222420453D

 39 44  0  0  1  0  0  0  0  0999 V2000
  190.1710  176.5450  136.5200 C   0  0  2  0  0  3  0  0  0  0  0  0
  189.7810  176.5090  137.9970 C   0  0  1  0  0  3  0  0  0  0  0  0
  188.8770  178.4450  139.1310 C   0  0  1  0  0  3  0  0  0  0  0  0
  188.9230  176.5370  135.7590 N   0  0  0  0  0  2  0  0  0  0  0  0
  187.9780  175.9470  136.6940 C   0  0  1  0  0  3  0  0  0  0  0  0
  190.1750  177.8030  138.6970 C   0  0  0  0  0  2  0  0  0  0  0  0
  187.8410  177.7440  138.2910 C   0  0  0  0  0  2  0  0  0  0  0  0
  188.3310  176.3890  138.0470 N   0  0  2  0  0  0  0  0  0  0  0  0
  187.3000  178.5950  141.0670 C   0  0  0  0  0  3  0  0  0  0  0  0
  189.0750  177.1910  142.7410 C   0  0  0  0  0  0  0  0  0  0  0  0
  188.5690  178.2160  140.5860 C   0  0  0  0  0  0  0  0  0  0  0  0
  185.9290  177.6600  144.6120 C   0  0  0  0  0  2  0  0  0  0  0  0
  185.3820  178.6240  143.1370 S   0  0  0  0  0  0  0  0  0  0  0  0
  187.2830  177.2520  144.4240 O   0  0  0  0  0  0  0  0  0  0  0  0
  189.4540  177.5100  141.4320 C   0  0  0  0  0  3  0  0  0  0  0  0
  187.8030  177.5630  143.1860 C   0  0  0  0  0  0  0  0  0  0  0  0
  186.9480  178.2670  142.3770 C   0  0  0  0  0  0  0  0  0  0  0  0
  189.9470  176.5000  143.5730 O   0  0  0  0  0  1  0  0  0  0  0  0
  190.9900  175.2970  136.1920 C   0  0  0  0  0  2  0  0  0  0  0  0
  191.9830  175.0100  137.2960 C   0  0  0  0  0  2  0  0  0  0  0  0
  194.0720  175.7270  138.2890 N   0  0  0  0  0  1  0  0  0  0  0  0
  193.1540  175.9690  137.1870 C   0  0  0  0  0  2  0  0  0  0  0  0
  186.5050  176.1850  136.3180 C   0  0  2  0  0  3  0  0  0  0  0  0
  185.6370  175.4630  137.2550 N   0  0  0  0  0  2  0  0  0  0  0  0
  183.8650  177.2040  137.3730 N   0  0  0  0  0  2  0  0  0  0  0  0
  184.3200  175.8720  137.6420 C   0  0  0  0  0  0  0  0  0  0  0  0
  183.5680  175.0440  138.2170 O   0  0  0  0  0  0  0  0  0  0  0  0
  182.6300  177.7080  137.8210 N   0  0  0  0  0  0  0  0  0  0  0  0
  181.7400  177.6370  136.6810 C   0  0  0  0  0  1  0  0  0  0  0  0
  181.5080  181.1350  138.7830 O   0  0  0  0  0  1  0  0  0  0  0  0
  181.6680  179.7520  138.9130 C   0  0  1  0  0  0  0  0  0  0  0  0
  181.1090  177.9400  140.4500 C   0  0  2  0  0  3  0  0  0  0  0  0
  180.5140  178.9530  139.4960 C   0  0  0  0  0  2  0  0  0  0  0  0
  182.8240  179.1290  138.1290 C   0  0  1  0  0  3  0  0  0  0  0  0
  180.4410  178.0540  141.8020 C   0  0  0  0  0  1  0  0  0  0  0  0
  182.5910  178.2410  140.5760 C   0  0  0  0  0  2  0  0  0  0  0  0
  182.9400  179.4080  139.6480 C   0  0  2  0  0  3  0  0  0  0  0  0
  185.2060  174.9880  134.5980 C   0  0  0  0  0  2  0  0  0  0  0  0
  186.2210  175.8050  134.8910 C   0  0  0  0  0  3  0  0  0  0  0  0
  1 19  1  6  0  0  0
  1  2  1  0  0  0  0
  2  8  1  0  0  0  0
  2  6  1  1  0  0  0
  3 11  1  1  0  0  0
  4  1  1  0  0  0  0
  4  5  1  0  0  0  0
  5 23  1  6  0  0  0
  5  8  1  0  0  0  0
  6  3  1  0  0  0  0
  7  3  1  0  0  0  0
  8  7  1  6  0  0  0
  9 17  1  0  0  0  0
 10 16  1  0  0  0  0
 10 18  1  0  0  0  0
 11  9  2  0  0  0  0
 11 15  1  0  0  0  0
 13 12  1  0  0  0  0
 14 12  1  0  0  0  0
 15 10  2  0  0  0  0
 16 14  1  0  0  0  0
 17 13  1  0  0  0  0
 17 16  2  0  0  0  0
 19 20  1  0  0  0  0
 22 20  1  0  0  0  0
 22 21  1  0  0  0  0
 23 39  1  6  0  0  0
 23 24  1  0  0  0  0
 24 26  1  0  0  0  0
 25 26  1  0  0  0  0
 25 28  1  0  0  0  0
 26 27  2  0  0  0  0
 29 28  1  0  0  0  0
 31 30  1  6  0  0  0
 31 33  1  0  0  0  0
 31 37  1  0  0  0  0
 32 36  1  0  0  0  0
 32 35  1  1  0  0  0
 33 32  1  0  0  0  0
 34 28  1  1  0  0  0
 34 31  1  0  0  0  0
 34 37  1  0  0  0  0
 37 36  1  1  0  0  0
 38 39  2  0  0  0  0
M  END
>  <MODEL>
7

>  <REMARK>
 VINA RESULT:      -6.4      3.179      7.915
  Name = 
  9 active torsions:
  status: ('A' for Active; 'I' for Inactive)
    1  A    between atoms: C_5  and  C_28
    2  A    between atoms: N_6  and  N_16
    3  A    between atoms: N_6  and  C_23
    4  A    between atoms: N_7  and  C_30
    5  A    between atoms: C_10  and  C_14
    6  A    between atoms: C_13  and  C_24
    7  A    between atoms: C_13  and  C_28
    8  A    between atoms: C_22  and  C_30
    9  A    between atoms: C_26  and  C_30
                            x       y       z     vdW  Elec       q    Type
                         _______ _______ _______ _____ _____    ______ ____

>  <TORSDO>
F 9

$$$$
=
 OpenBabel10222420453D

 39 44  0  0  1  0  0  0  0  0999 V2000
  180.6530  176.3940  138.7800 C   0  0  2  0  0  3  0  0  0  0  0  0
  181.7430  175.3570  138.5140 C   0  0  1  0  0  3  0  0  0  0  0  0
  183.3710  175.6310  136.7460 C   0  0  1  0  0  3  0  0  0  0  0  0
  181.3100  177.5340  139.4190 N   0  0  0  0  0  2  0  0  0  0  0  0
  182.5070  176.9370  139.9920 C   0  0  1  0  0  3  0  0  0  0  0  0
  181.9600  175.1630  137.0200 C   0  0  0  0  0  2  0  0  0  0  0  0
  183.7080  176.4560  137.9610 C   0  0  0  0  0  2  0  0  0  0  0  0
  182.9740  175.8820  139.0880 N   0  0  2  0  0  0  0  0  0  0  0  0
  183.9020  173.2730  136.0990 C   0  0  0  0  0  3  0  0  0  0  0  0
  186.6360  173.6360  136.6630 C   0  0  0  0  0  0  0  0  0  0  0  0
  184.3520  174.4960  136.6340 C   0  0  0  0  0  0  0  0  0  0  0  0
  186.2550  170.3000  135.1330 C   0  0  0  0  0  2  0  0  0  0  0  0
  184.4480  170.6710  135.1550 S   0  0  0  0  0  0  0  0  0  0  0  0
  186.9580  171.3720  135.7590 O   0  0  0  0  0  0  0  0  0  0  0  0
  185.7270  174.6710  136.9130 C   0  0  0  0  0  3  0  0  0  0  0  0
  186.1630  172.4400  136.1150 C   0  0  0  0  0  0  0  0  0  0  0  0
  184.8270  172.2570  135.8610 C   0  0  0  0  0  0  0  0  0  0  0  0
  187.9860  173.8080  136.9400 O   0  0  0  0  0  1  0  0  0  0  0  0
  179.6130  175.7940  139.7240 C   0  0  0  0  0  2  0  0  0  0  0  0
  179.7460  174.2870  139.7680 C   0  0  0  0  0  2  0  0  0  0  0  0
  179.1060  174.6090  142.0810 N   0  0  0  0  0  1  0  0  0  0  0  0
  178.9330  173.7410  140.9270 C   0  0  0  0  0  2  0  0  0  0  0  0
  183.5870  177.9640  140.3740 C   0  0  2  0  0  3  0  0  0  0  0  0
  183.8030  177.9320  141.8250 N   0  0  0  0  0  2  0  0  0  0  0  0
  186.2840  178.0680  141.7290 N   0  0  0  0  0  2  0  0  0  0  0  0
  185.0630  178.1290  142.4760 C   0  0  0  0  0  0  0  0  0  0  0  0
  185.0820  178.3620  143.7110 O   0  0  0  0  0  0  0  0  0  0  0  0
  187.5600  178.1420  142.3170 N   0  0  0  0  0  0  0  0  0  0  0  0
  188.3420  179.0010  141.4520 C   0  0  0  0  0  1  0  0  0  0  0  0
  190.2980  175.6380  142.7230 O   0  0  0  0  0  1  0  0  0  0  0  0
  189.3970  176.6330  143.1180 C   0  0  1  0  0  0  0  0  0  0  0  0
  188.7530  177.8900  145.1090 C   0  0  2  0  0  3  0  0  0  0  0  0
  189.8760  177.6710  144.1180 C   0  0  0  0  0  2  0  0  0  0  0  0
  188.1530  176.8020  142.2450 C   0  0  1  0  0  3  0  0  0  0  0  0
  189.2690  177.7070  146.5190 C   0  0  0  0  0  1  0  0  0  0  0  0
  187.6740  176.8650  144.8130 C   0  0  0  0  0  2  0  0  0  0  0  0
  188.0930  176.0410  143.5920 C   0  0  2  0  0  3  0  0  0  0  0  0
  183.9810  179.9410  138.9530 C   0  0  0  0  0  2  0  0  0  0  0  0
  183.2420  179.3470  139.8940 C   0  0  0  0  0  3  0  0  0  0  0  0
  1  4  1  0  0  0  0
  1 19  1  1  0  0  0
  2  6  1  6  0  0  0
  2  1  1  0  0  0  0
  2  8  1  0  0  0  0
  3 11  1  1  0  0  0
  3  6  1  0  0  0  0
  3  7  1  0  0  0  0
  4  5  1  0  0  0  0
  5 23  1  6  0  0  0
  8  7  1  6  0  0  0
  8  5  1  0  0  0  0
  9 11  1  0  0  0  0
 10 15  1  0  0  0  0
 10 18  1  0  0  0  0
 11 15  2  0  0  0  0
 12 13  1  0  0  0  0
 12 14  1  0  0  0  0
 13 17  1  0  0  0  0
 14 16  1  0  0  0  0
 16 10  2  0  0  0  0
 17  9  2  0  0  0  0
 17 16  1  0  0  0  0
 19 20  1  0  0  0  0
 20 22  1  0  0  0  0
 22 21  1  0  0  0  0
 23 39  1  1  0  0  0
 23 24  1  0  0  0  0
 24 26  1  0  0  0  0
 25 28  1  0  0  0  0
 25 26  1  0  0  0  0
 26 27  2  0  0  0  0
 29 28  1  0  0  0  0
 31 30  1  6  0  0  0
 31 37  1  0  0  0  0
 31 33  1  0  0  0  0
 32 35  1  1  0  0  0
 33 32  1  0  0  0  0
 34 28  1  1  0  0  0
 34 31  1  0  0  0  0
 34 37  1  0  0  0  0
 36 32  1  0  0  0  0
 37 36  1  1  0  0  0
 38 39  2  0  0  0  0
M  END
>  <MODEL>
8

>  <REMARK>
 VINA RESULT:      -6.3      3.871      8.103
  Name = 
  9 active torsions:
  status: ('A' for Active; 'I' for Inactive)
    1  A    between atoms: C_5  and  C_28
    2  A    between atoms: N_6  and  N_16
    3  A    between atoms: N_6  and  C_23
    4  A    between atoms: N_7  and  C_30
    5  A    between atoms: C_10  and  C_14
    6  A    between atoms: C_13  and  C_24
    7  A    between atoms: C_13  and  C_28
    8  A    between atoms: C_22  and  C_30
    9  A    between atoms: C_26  and  C_30
                            x       y       z     vdW  Elec       q    Type
                         _______ _______ _______ _____ _____    ______ ____

>  <TORSDO>
F 9

$$$$
=
 OpenBabel10222420453D

 39 44  0  0  1  0  0  0  0  0999 V2000
  187.4250  178.1390  145.8200 C   0  0  2  0  0  3  0  0  0  0  0  0
  186.1660  177.8180  145.0160 C   0  0  1  0  0  3  0  0  0  0  0  0
  185.0210  179.4950  143.7010 C   0  0  1  0  0  3  0  0  0  0  0  0
  188.5130  178.2740  144.8530 N   0  0  0  0  0  2  0  0  0  0  0  0
  188.0300  177.5100  143.7130 C   0  0  1  0  0  3  0  0  0  0  0  0
  185.1550  178.9530  145.1060 C   0  0  0  0  0  2  0  0  0  0  0  0
  186.2470  178.9650  143.0020 C   0  0  0  0  0  2  0  0  0  0  0  0
  186.5770  177.6840  143.6250 N   0  0  2  0  0  0  0  0  0  0  0  0
  182.5670  179.0130  143.6830 C   0  0  0  0  0  3  0  0  0  0  0  0
  182.6320  178.2960  140.9610 C   0  0  0  0  0  0  0  0  0  0  0  0
  183.7940  178.9880  142.9930 C   0  0  0  0  0  0  0  0  0  0  0  0
  179.0950  178.3180  142.0140 C   0  0  0  0  0  2  0  0  0  0  0  0
  179.7620  178.6950  143.6920 S   0  0  0  0  0  0  0  0  0  0  0  0
  180.1850  178.1130  141.1160 O   0  0  0  0  0  0  0  0  0  0  0  0
  183.8190  178.6280  141.6260 C   0  0  0  0  0  3  0  0  0  0  0  0
  181.4260  178.3480  141.6660 C   0  0  0  0  0  0  0  0  0  0  0  0
  181.3980  178.6770  142.9990 C   0  0  0  0  0  0  0  0  0  0  0  0
  182.6580  177.9390  139.6190 O   0  0  0  0  0  1  0  0  0  0  0  0
  187.7140  176.9830  146.7750 C   0  0  0  0  0  2  0  0  0  0  0  0
  187.9310  177.4980  148.1800 C   0  0  0  0  0  2  0  0  0  0  0  0
  190.2790  177.1290  147.7190 N   0  0  0  0  0  1  0  0  0  0  0  0
  189.3320  178.0670  148.3010 C   0  0  0  0  0  2  0  0  0  0  0  0
  188.7810  177.8110  142.4050 C   0  0  2  0  0  3  0  0  0  0  0  0
  187.8240  178.2350  141.3770 N   0  0  0  0  0  2  0  0  0  0  0  0
  189.3150  177.8130  139.4320 N   0  0  0  0  0  2  0  0  0  0  0  0
  188.0170  178.1000  139.9640 C   0  0  0  0  0  0  0  0  0  0  0  0
  187.0280  178.2300  139.1980 O   0  0  0  0  0  0  0  0  0  0  0  0
  189.6000  177.7760  138.0550 N   0  0  0  0  0  0  0  0  0  0  0  0
  189.0560  179.0030  137.5090 C   0  0  0  0  0  1  0  0  0  0  0  0
  188.6180  175.3970  135.3530 O   0  0  0  0  0  1  0  0  0  0  0  0
  189.4800  176.0450  136.2430 C   0  0  1  0  0  0  0  0  0  0  0  0
  191.8350  176.0680  136.8860 C   0  0  2  0  0  3  0  0  0  0  0  0
  190.8780  176.3900  135.7580 C   0  0  0  0  0  2  0  0  0  0  0  0
  188.8300  176.6690  137.4780 C   0  0  1  0  0  3  0  0  0  0  0  0
  192.9350  175.1600  136.3820 C   0  0  0  0  0  1  0  0  0  0  0  0
  191.0430  175.3710  137.9750 C   0  0  0  0  0  2  0  0  0  0  0  0
  189.5710  175.3110  137.5580 C   0  0  2  0  0  3  0  0  0  0  0  0
  190.1810  175.8280  142.8390 C   0  0  0  0  0  2  0  0  0  0  0  0
  189.6040  176.6380  141.9470 C   0  0  0  0  0  3  0  0  0  0  0  0
  1 19  1  1  0  0  0
  2  6  1  6  0  0  0
  2  1  1  0  0  0  0
  3 11  1  6  0  0  0
  3  6  1  0  0  0  0
  4  1  1  0  0  0  0
  5 23  1  6  0  0  0
  5  4  1  0  0  0  0
  7  3  1  0  0  0  0
  8  7  1  6  0  0  0
  8  5  1  0  0  0  0
  8  2  1  0  0  0  0
 10 15  2  0  0  0  0
 10 16  1  0  0  0  0
 11  9  2  0  0  0  0
 12 13  1  0  0  0  0
 14 16  1  0  0  0  0
 14 12  1  0  0  0  0
 15 11  1  0  0  0  0
 16 17  2  0  0  0  0
 17  9  1  0  0  0  0
 17 13  1  0  0  0  0
 18 10  1  0  0  0  0
 19 20  1  0  0  0  0
 20 22  1  0  0  0  0
 21 22  1  0  0  0  0
 23 39  1  6  0  0  0
 24 23  1  0  0  0  0
 25 26  1  0  0  0  0
 26 24  1  0  0  0  0
 27 26  2  0  0  0  0
 28 25  1  0  0  0  0
 29 28  1  0  0  0  0
 31 30  1  6  0  0  0
 31 34  1  0  0  0  0
 31 37  1  0  0  0  0
 32 35  1  6  0  0  0
 32 36  1  0  0  0  0
 33 31  1  0  0  0  0
 33 32  1  0  0  0  0
 34 37  1  0  0  0  0
 34 28  1  1  0  0  0
 37 36  1  1  0  0  0
 39 38  2  0  0  0  0
M  END
>  <MODEL>
9

>  <REMARK>
 VINA RESULT:      -6.2      1.670      2.028
  Name = 
  9 active torsions:
  status: ('A' for Active; 'I' for Inactive)
    1  A    between atoms: C_5  and  C_28
    2  A    between atoms: N_6  and  N_16
    3  A    between atoms: N_6  and  C_23
    4  A    between atoms: N_7  and  C_30
    5  A    between atoms: C_10  and  C_14
    6  A    between atoms: C_13  and  C_24
    7  A    between atoms: C_13  and  C_28
    8  A    between atoms: C_22  and  C_30
    9  A    between atoms: C_26  and  C_30
                            x       y       z     vdW  Elec       q    Type
                         _______ _______ _______ _____ _____    ______ ____

>  <TORSDO>
F 9

$$$$
