=
 OpenBabel10222419193D

 35 38  0  0  1  0  0  0  0  0999 V2000
  192.2250  176.6500  137.8740 O   0  0  0  0  0  0  0  0  0  0  0  0
  193.0510  175.4980  138.0180 C   0  0  0  0  0  2  0  0  0  0  0  0
  192.2630  174.2870  137.8210 N   0  0  0  0  0  2  0  0  0  0  0  0
  188.9040  177.8890  138.1590 C   0  0  0  0  0  0  0  0  0  0  0  0
  191.1000  176.8440  138.6810 C   0  0  0  0  0  0  0  0  0  0  0  0
  191.9630  173.8560  135.5530 O   0  0  0  0  0  0  0  0  0  0  0  0
  188.5830  178.4370  139.3390 C   0  0  0  0  0  3  0  0  0  0  0  0
  189.9750  174.4300  136.7730 C   0  0  1  0  0  3  0  0  0  0  0  0
  190.1700  177.3970  140.9380 C   0  0  0  0  0  0  0  0  0  0  0  0
  191.2630  177.1450  139.9690 C   0  0  0  0  0  3  0  0  0  0  0  0
  191.4400  174.1300  136.6670 C   0  0  0  0  0  0  0  0  0  0  0  0
  189.0440  177.9790  140.6220 N   0  0  0  0  0  0  0  0  0  0  0  0
  189.8030  176.5420  135.7280 O   0  0  0  0  0  0  0  0  0  0  0  0
  189.7300  176.6340  138.1100 C   0  0  2  0  0  3  0  0  0  0  0  0
  189.7670  175.9180  136.7800 C   0  0  0  0  0  0  0  0  0  0  0  0
  190.4170  177.0960  142.3570 C   0  0  0  0  0  0  0  0  0  0  0  0
  191.5470  176.6150  142.8120 O   0  0  0  0  0  0  0  0  0  0  0  0
  190.1940  176.8560  144.5250 C   0  0  0  0  0  3  0  0  0  0  0  0
  191.4530  176.4560  144.1110 C   0  0  0  0  0  3  0  0  0  0  0  0
  189.5180  177.2720  143.3910 C   0  0  0  0  0  3  0  0  0  0  0  0
  189.2550  173.8280  135.7350 O   0  0  0  0  0  0  0  0  0  0  0  0
  187.9590  173.6900  136.2350 C   0  0  0  0  0  2  0  0  0  0  0  0
  187.8630  172.4100  137.0400 C   0  0  0  0  0  1  0  0  0  0  0  0
  188.4520  178.4700  136.9660 O   0  0  0  0  0  0  0  0  0  0  0  0
  187.0790  178.7100  136.6840 C   0  0  0  0  0  2  0  0  0  0  0  0
  186.3110  177.4060  136.7740 C   0  0  0  0  0  2  0  0  0  0  0  0
  185.1490  177.5470  137.7440 C   0  0  0  0  0  2  0  0  0  0  0  0
  185.1530  178.8680  138.3610 N   0  0  0  0  0  2  0  0  0  0  0  0
  182.7500  179.5070  139.3610 S   0  0  0  0  0  0  0  0  0  0  0  0
  184.3590  179.2300  139.5000 C   0  0  0  0  0  0  0  0  0  0  0  0
  184.9630  179.3220  140.7910 N   0  0  0  0  0  2  0  0  0  0  0  0
  183.9770  178.5560  144.1610 O   0  0  0  0  0  1  0  0  0  0  0  0
  184.7910  179.1460  143.1960 C   0  0  1  0  0  3  0  0  0  0  0  0
  185.8120  178.1360  142.7220 C   0  0  0  0  0  2  0  0  0  0  0  0
  184.5910  178.4300  141.8750 C   0  0  2  0  0  3  0  0  0  0  0  0
  1  2  1  0  0  0  0
  1  5  1  0  0  0  0
  3  2  1  0  0  0  0
  4  7  2  0  0  0  0
  5 10  2  0  0  0  0
  6 11  2  0  0  0  0
  7 12  1  0  0  0  0
  8 21  1  6  0  0  0
  8 15  1  0  0  0  0
  9 16  1  0  0  0  0
 10  9  1  0  0  0  0
 11  8  1  0  0  0  0
 11  3  1  0  0  0  0
 12  9  2  0  0  0  0
 13 15  2  0  0  0  0
 14 15  1  6  0  0  0
 14  4  1  0  0  0  0
 14  5  1  0  0  0  0
 16 17  1  0  0  0  0
 16 20  2  0  0  0  0
 17 19  1  0  0  0  0
 19 18  2  0  0  0  0
 20 18  1  0  0  0  0
 21 22  1  0  0  0  0
 22 23  1  0  0  0  0
 24  4  1  0  0  0  0
 25 26  1  0  0  0  0
 25 24  1  0  0  0  0
 26 27  1  0  0  0  0
 27 28  1  0  0  0  0
 28 30  1  0  0  0  0
 29 30  2  0  0  0  0
 30 31  1  0  0  0  0
 33 32  1  1  0  0  0
 34 33  1  0  0  0  0
 35 31  1  6  0  0  0
 35 34  1  0  0  0  0
 35 33  1  0  0  0  0
M  END
>  <MODEL>
1

>  <REMARK>
 VINA RESULT:      -6.6      0.000      0.000
  Name = 
  11 active torsions:
  status: ('A' for Active; 'I' for Inactive)
    1  A    between atoms: C_1  and  C_20
    2  A    between atoms: C_1  and  C_25
    3  A    between atoms: C_4  and  C_26
    4  A    between atoms: C_9  and  O_14
    5  A    between atoms: N_11  and  C_20
    6  A    between atoms: N_11  and  C_33
    7  A    between atoms: O_14  and  C_23
    8  A    between atoms: C_16  and  O_29
    9  A    between atoms: C_21  and  N_30
   10  A    between atoms: C_25  and  O_29
   11  A    between atoms: N_30  and  C_33
                            x       y       z     vdW  Elec       q    Type
                         _______ _______ _______ _____ _____    ______ ____

>  <TORSDO>
F 11

$$$$
=
 OpenBabel10222419193D

 35 38  0  0  1  0  0  0  0  0999 V2000
  191.0980  177.3250  138.1800 O   0  0  0  0  0  0  0  0  0  0  0  0
  192.0730  176.3060  137.9740 C   0  0  0  0  0  2  0  0  0  0  0  0
  191.4210  175.0090  137.8310 N   0  0  0  0  0  2  0  0  0  0  0  0
  187.8370  178.0090  139.4210 C   0  0  0  0  0  0  0  0  0  0  0  0
  190.2080  177.2740  139.2550 C   0  0  0  0  0  0  0  0  0  0  0  0
  190.5970  174.7330  135.6710 O   0  0  0  0  0  0  0  0  0  0  0  0
  187.7690  178.3980  140.7020 C   0  0  0  0  0  3  0  0  0  0  0  0
  188.9400  174.8880  137.4030 C   0  0  1  0  0  3  0  0  0  0  0  0
  189.8360  177.4820  141.7220 C   0  0  0  0  0  0  0  0  0  0  0  0
  190.6610  177.4850  140.4910 C   0  0  0  0  0  3  0  0  0  0  0  0
  190.3520  174.8270  136.9040 C   0  0  0  0  0  0  0  0  0  0  0  0
  188.6030  177.9090  141.7670 N   0  0  0  0  0  0  0  0  0  0  0  0
  188.2340  177.0300  136.6980 O   0  0  0  0  0  0  0  0  0  0  0  0
  188.7750  176.9060  139.0180 C   0  0  2  0  0  3  0  0  0  0  0  0
  188.5530  176.3200  137.6420 C   0  0  0  0  0  0  0  0  0  0  0  0
  190.4810  177.1020  142.9890 C   0  0  0  0  0  0  0  0  0  0  0  0
  191.1310  175.9800  143.1660 O   0  0  0  0  0  0  0  0  0  0  0  0
  191.2130  177.0950  145.0560 C   0  0  0  0  0  3  0  0  0  0  0  0
  191.5860  175.9360  144.3950 C   0  0  0  0  0  3  0  0  0  0  0  0
  190.4960  177.8540  144.1480 C   0  0  0  0  0  3  0  0  0  0  0  0
  188.0560  174.2740  136.5090 O   0  0  0  0  0  0  0  0  0  0  0  0
  187.8700  172.9880  137.0200 C   0  0  0  0  0  2  0  0  0  0  0  0
  186.4040  172.7790  137.3360 C   0  0  0  0  0  1  0  0  0  0  0  0
  187.0190  178.6140  138.4560 O   0  0  0  0  0  0  0  0  0  0  0  0
  185.6510  178.2770  138.2690 C   0  0  0  0  0  2  0  0  0  0  0  0
  184.7810  179.2710  139.0120 C   0  0  0  0  0  2  0  0  0  0  0  0
  184.0980  178.5940  140.1900 C   0  0  0  0  0  2  0  0  0  0  0  0
  184.5060  179.2130  141.4450 N   0  0  0  0  0  2  0  0  0  0  0  0
  182.6520  179.0060  143.3700 S   0  0  0  0  0  0  0  0  0  0  0  0
  184.1400  178.7250  142.7430 C   0  0  0  0  0  0  0  0  0  0  0  0
  185.0690  177.9490  143.5010 N   0  0  0  0  0  2  0  0  0  0  0  0
  187.6470  177.9420  146.0060 O   0  0  0  0  0  1  0  0  0  0  0  0
  186.3790  177.6440  145.5110 C   0  0  1  0  0  3  0  0  0  0  0  0
  185.4730  178.8370  145.7160 C   0  0  0  0  0  2  0  0  0  0  0  0
  186.0710  178.5700  144.3500 C   0  0  2  0  0  3  0  0  0  0  0  0
  1  5  1  0  0  0  0
  2  1  1  0  0  0  0
  3  2  1  0  0  0  0
  4  7  2  0  0  0  0
  5 10  2  0  0  0  0
  6 11  2  0  0  0  0
  7 12  1  0  0  0  0
  8 21  1  6  0  0  0
  8 15  1  0  0  0  0
  9 12  2  0  0  0  0
  9 16  1  0  0  0  0
 10  9  1  0  0  0  0
 11  8  1  0  0  0  0
 11  3  1  0  0  0  0
 13 15  2  0  0  0  0
 14 15  1  6  0  0  0
 14  5  1  0  0  0  0
 14  4  1  0  0  0  0
 16 17  1  0  0  0  0
 16 20  2  0  0  0  0
 17 19  1  0  0  0  0
 19 18  2  0  0  0  0
 20 18  1  0  0  0  0
 21 22  1  0  0  0  0
 22 23  1  0  0  0  0
 24  4  1  0  0  0  0
 25 24  1  0  0  0  0
 25 26  1  0  0  0  0
 26 27  1  0  0  0  0
 27 28  1  0  0  0  0
 28 30  1  0  0  0  0
 30 29  2  0  0  0  0
 30 31  1  0  0  0  0
 33 34  1  0  0  0  0
 33 32  1  1  0  0  0
 35 31  1  6  0  0  0
 35 33  1  0  0  0  0
 35 34  1  0  0  0  0
M  END
>  <MODEL>
2

>  <REMARK>
 VINA RESULT:      -6.6      1.693      2.127
  Name = 
  11 active torsions:
  status: ('A' for Active; 'I' for Inactive)
    1  A    between atoms: C_1  and  C_20
    2  A    between atoms: C_1  and  C_25
    3  A    between atoms: C_4  and  C_26
    4  A    between atoms: C_9  and  O_14
    5  A    between atoms: N_11  and  C_20
    6  A    between atoms: N_11  and  C_33
    7  A    between atoms: O_14  and  C_23
    8  A    between atoms: C_16  and  O_29
    9  A    between atoms: C_21  and  N_30
   10  A    between atoms: C_25  and  O_29
   11  A    between atoms: N_30  and  C_33
                            x       y       z     vdW  Elec       q    Type
                         _______ _______ _______ _____ _____    ______ ____

>  <TORSDO>
F 11

$$$$
=
 OpenBabel10222419193D

 35 38  0  0  1  0  0  0  0  0999 V2000
  182.2190  179.3740  141.2680 O   0  0  0  0  0  0  0  0  0  0  0  0
  181.6790  179.2870  142.5840 C   0  0  0  0  0  2  0  0  0  0  0  0
  182.6000  178.5670  143.4570 N   0  0  0  0  0  2  0  0  0  0  0  0
  184.3910  177.8230  138.9170 C   0  0  0  0  0  0  0  0  0  0  0  0
  182.5490  178.2270  140.5390 C   0  0  0  0  0  0  0  0  0  0  0  0
  184.3090  179.9670  144.1900 O   0  0  0  0  0  0  0  0  0  0  0  0
  183.8140  176.9560  138.0720 C   0  0  0  0  0  3  0  0  0  0  0  0
  184.9830  178.1820  142.7320 C   0  0  1  0  0  3  0  0  0  0  0  0
  181.7700  176.2180  139.2670 C   0  0  0  0  0  0  0  0  0  0  0  0
  181.5740  177.4480  140.0690 C   0  0  0  0  0  3  0  0  0  0  0  0
  183.9740  178.9410  143.5390 C   0  0  0  0  0  0  0  0  0  0  0  0
  182.7360  176.0640  138.4020 N   0  0  0  0  0  0  0  0  0  0  0  0
  185.4280  179.6570  140.9400 O   0  0  0  0  0  0  0  0  0  0  0  0
  183.9870  177.8450  140.3650 C   0  0  2  0  0  3  0  0  0  0  0  0
  184.9010  178.6100  141.2940 C   0  0  0  0  0  0  0  0  0  0  0  0
  180.7460  175.1640  139.3520 C   0  0  0  0  0  0  0  0  0  0  0  0
  180.1120  174.8540  140.4550 O   0  0  0  0  0  0  0  0  0  0  0  0
  179.3560  173.5390  138.8670 C   0  0  0  0  0  3  0  0  0  0  0  0
  179.2680  173.8810  140.2060 C   0  0  0  0  0  3  0  0  0  0  0  0
  180.3130  174.3690  138.3090 C   0  0  0  0  0  3  0  0  0  0  0  0
  186.2770  178.3600  143.2340 O   0  0  0  0  0  0  0  0  0  0  0  0
  186.5360  177.2000  143.9660 C   0  0  0  0  0  2  0  0  0  0  0  0
  186.8940  177.5710  145.3900 C   0  0  0  0  0  1  0  0  0  0  0  0
  185.3860  178.6970  138.4590 O   0  0  0  0  0  0  0  0  0  0  0  0
  186.2820  178.3780  137.4030 C   0  0  0  0  0  2  0  0  0  0  0  0
  187.7090  178.4860  137.9010 C   0  0  0  0  0  2  0  0  0  0  0  0
  187.9600  177.4690  139.0030 C   0  0  0  0  0  2  0  0  0  0  0  0
  188.4010  178.1330  140.2240 N   0  0  0  0  0  2  0  0  0  0  0  0
  190.8590  177.0660  140.2430 S   0  0  0  0  0  0  0  0  0  0  0  0
  189.5650  177.7570  140.9730 C   0  0  0  0  0  0  0  0  0  0  0  0
  189.6240  178.0130  142.3760 N   0  0  0  0  0  2  0  0  0  0  0  0
  191.6010  177.2970  145.2920 O   0  0  0  0  0  1  0  0  0  0  0  0
  190.5550  177.9120  144.6060 C   0  0  1  0  0  3  0  0  0  0  0  0
  191.0690  179.1670  143.9380 C   0  0  0  0  0  2  0  0  0  0  0  0
  190.8660  177.9070  143.1220 C   0  0  2  0  0  3  0  0  0  0  0  0
  1  2  1  0  0  0  0
  2  3  1  0  0  0  0
  3 11  1  0  0  0  0
  5  1  1  0  0  0  0
  7 12  1  0  0  0  0
  7  4  2  0  0  0  0
  8 21  1  1  0  0  0
  8 11  1  0  0  0  0
  9 16  1  0  0  0  0
  9 10  1  0  0  0  0
 10  5  2  0  0  0  0
 11  6  2  0  0  0  0
 12  9  2  0  0  0  0
 13 15  2  0  0  0  0
 14  4  1  6  0  0  0
 14  5  1  0  0  0  0
 14 15  1  0  0  0  0
 15  8  1  0  0  0  0
 16 17  1  0  0  0  0
 18 19  2  0  0  0  0
 19 17  1  0  0  0  0
 20 18  1  0  0  0  0
 20 16  2  0  0  0  0
 21 22  1  0  0  0  0
 22 23  1  0  0  0  0
 24  4  1  0  0  0  0
 25 26  1  0  0  0  0
 25 24  1  0  0  0  0
 26 27  1  0  0  0  0
 27 28  1  0  0  0  0
 28 30  1  0  0  0  0
 29 30  2  0  0  0  0
 30 31  1  0  0  0  0
 33 32  1  1  0  0  0
 34 33  1  0  0  0  0
 35 31  1  6  0  0  0
 35 34  1  0  0  0  0
 35 33  1  0  0  0  0
M  END
>  <MODEL>
3

>  <REMARK>
 VINA RESULT:      -6.4      3.903      8.587
  Name = 
  11 active torsions:
  status: ('A' for Active; 'I' for Inactive)
    1  A    between atoms: C_1  and  C_20
    2  A    between atoms: C_1  and  C_25
    3  A    between atoms: C_4  and  C_26
    4  A    between atoms: C_9  and  O_14
    5  A    between atoms: N_11  and  C_20
    6  A    between atoms: N_11  and  C_33
    7  A    between atoms: O_14  and  C_23
    8  A    between atoms: C_16  and  O_29
    9  A    between atoms: C_21  and  N_30
   10  A    between atoms: C_25  and  O_29
   11  A    between atoms: N_30  and  C_33
                            x       y       z     vdW  Elec       q    Type
                         _______ _______ _______ _____ _____    ______ ____

>  <TORSDO>
F 11

$$$$
=
 OpenBabel10222419193D

 35 38  0  0  1  0  0  0  0  0999 V2000
  188.8190  178.0680  135.8890 O   0  0  0  0  0  0  0  0  0  0  0  0
  188.7000  177.3930  134.6390 C   0  0  0  0  0  2  0  0  0  0  0  0
  187.8200  176.2380  134.7750 N   0  0  0  0  0  2  0  0  0  0  0  0
  188.6670  177.6760  139.4210 C   0  0  0  0  0  0  0  0  0  0  0  0
  189.2950  177.4120  137.0280 C   0  0  0  0  0  0  0  0  0  0  0  0
  185.5860  176.8880  134.6990 O   0  0  0  0  0  0  0  0  0  0  0  0
  189.8320  177.4170  140.0300 C   0  0  0  0  0  3  0  0  0  0  0  0
  186.3410  176.0110  136.8040 C   0  0  1  0  0  3  0  0  0  0  0  0
  191.2340  176.4070  138.2510 C   0  0  0  0  0  0  0  0  0  0  0  0
  190.5850  177.0840  137.1040 C   0  0  0  0  0  3  0  0  0  0  0  0
  186.5250  176.3690  135.3600 C   0  0  0  0  0  0  0  0  0  0  0  0
  190.8900  176.6030  139.4950 N   0  0  0  0  0  0  0  0  0  0  0  0
  186.2440  178.1260  137.8530 O   0  0  0  0  0  0  0  0  0  0  0  0
  188.3390  177.0140  138.1120 C   0  0  2  0  0  3  0  0  0  0  0  0
  186.8970  177.1080  137.6680 C   0  0  0  0  0  0  0  0  0  0  0  0
  192.4160  175.5710  137.9850 C   0  0  0  0  0  0  0  0  0  0  0  0
  193.6300  175.8870  138.3600 O   0  0  0  0  0  0  0  0  0  0  0  0
  193.7420  173.9590  137.3150 C   0  0  0  0  0  3  0  0  0  0  0  0
  194.4570  174.9450  137.9760 C   0  0  0  0  0  3  0  0  0  0  0  0
  192.4180  174.3610  137.3190 C   0  0  0  0  0  3  0  0  0  0  0  0
  184.9950  175.7720  137.1020 O   0  0  0  0  0  0  0  0  0  0  0  0
  184.7670  174.4590  136.6870 C   0  0  0  0  0  2  0  0  0  0  0  0
  185.6210  173.5150  137.5060 C   0  0  0  0  0  1  0  0  0  0  0  0
  187.7410  178.5480  140.0100 O   0  0  0  0  0  0  0  0  0  0  0  0
  187.3840  178.4950  141.3850 C   0  0  0  0  0  2  0  0  0  0  0  0
  185.9750  179.0270  141.5600 C   0  0  0  0  0  2  0  0  0  0  0  0
  185.3070  178.3630  142.7540 C   0  0  0  0  0  2  0  0  0  0  0  0
  186.2840  177.6210  143.5410 N   0  0  0  0  0  2  0  0  0  0  0  0
  185.5910  178.7530  145.8690 S   0  0  0  0  0  0  0  0  0  0  0  0
  186.6190  177.9190  144.9040 C   0  0  0  0  0  0  0  0  0  0  0  0
  187.8550  177.4580  145.4520 N   0  0  0  0  0  2  0  0  0  0  0  0
  190.8420  177.4940  143.4530 O   0  0  0  0  0  1  0  0  0  0  0  0
  189.9130  176.9060  144.3090 C   0  0  1  0  0  3  0  0  0  0  0  0
  190.2510  177.2720  145.7370 C   0  0  0  0  0  2  0  0  0  0  0  0
  189.1330  177.9960  145.0170 C   0  0  2  0  0  3  0  0  0  0  0  0
  1  5  1  0  0  0  0
  2  3  1  0  0  0  0
  2  1  1  0  0  0  0
  3 11  1  0  0  0  0
  4 24  1  0  0  0  0
  4  7  2  0  0  0  0
  5 10  2  0  0  0  0
  6 11  2  0  0  0  0
  8 21  1  6  0  0  0
  8 15  1  0  0  0  0
  9 12  2  0  0  0  0
 10  9  1  0  0  0  0
 11  8  1  0  0  0  0
 12  7  1  0  0  0  0
 14  5  1  6  0  0  0
 14  4  1  0  0  0  0
 15 13  2  0  0  0  0
 15 14  1  0  0  0  0
 16  9  1  0  0  0  0
 16 17  1  0  0  0  0
 18 20  1  0  0  0  0
 18 19  2  0  0  0  0
 19 17  1  0  0  0  0
 20 16  2  0  0  0  0
 22 21  1  0  0  0  0
 22 23  1  0  0  0  0
 24 25  1  0  0  0  0
 25 26  1  0  0  0  0
 26 27  1  0  0  0  0
 27 28  1  0  0  0  0
 28 30  1  0  0  0  0
 30 31  1  0  0  0  0
 30 29  2  0  0  0  0
 33 32  1  6  0  0  0
 33 35  1  0  0  0  0
 33 34  1  0  0  0  0
 35 31  1  1  0  0  0
 35 34  1  0  0  0  0
M  END
>  <MODEL>
4

>  <REMARK>
 VINA RESULT:      -6.3      2.622      5.047
  Name = 
  11 active torsions:
  status: ('A' for Active; 'I' for Inactive)
    1  A    between atoms: C_1  and  C_20
    2  A    between atoms: C_1  and  C_25
    3  A    between atoms: C_4  and  C_26
    4  A    between atoms: C_9  and  O_14
    5  A    between atoms: N_11  and  C_20
    6  A    between atoms: N_11  and  C_33
    7  A    between atoms: O_14  and  C_23
    8  A    between atoms: C_16  and  O_29
    9  A    between atoms: C_21  and  N_30
   10  A    between atoms: C_25  and  O_29
   11  A    between atoms: N_30  and  C_33
                            x       y       z     vdW  Elec       q    Type
                         _______ _______ _______ _____ _____    ______ ____

>  <TORSDO>
F 11

$$$$
=
 OpenBabel10222419193D

 35 38  0  0  1  0  0  0  0  0999 V2000
  191.6850  176.7640  137.8310 O   0  0  0  0  0  0  0  0  0  0  0  0
  192.6550  175.7210  137.8800 C   0  0  0  0  0  2  0  0  0  0  0  0
  191.9970  174.4200  137.8350 N   0  0  0  0  0  2  0  0  0  0  0  0
  188.3160  177.6240  138.5780 C   0  0  0  0  0  0  0  0  0  0  0  0
  190.6740  176.8630  138.7920 C   0  0  0  0  0  0  0  0  0  0  0  0
  191.4240  173.8590  135.6500 O   0  0  0  0  0  0  0  0  0  0  0  0
  188.1070  178.1830  139.7780 C   0  0  0  0  0  3  0  0  0  0  0  0
  189.5810  174.2540  137.1380 C   0  0  1  0  0  3  0  0  0  0  0  0
  190.0230  177.4030  141.1470 C   0  0  0  0  0  0  0  0  0  0  0  0
  190.9850  177.2360  140.0330 C   0  0  0  0  0  3  0  0  0  0  0  0
  191.0400  174.1200  136.8210 C   0  0  0  0  0  0  0  0  0  0  0  0
  188.8020  177.8380  140.9890 N   0  0  0  0  0  0  0  0  0  0  0  0
  189.0060  176.2850  136.0750 O   0  0  0  0  0  0  0  0  0  0  0  0
  189.2710  176.4720  138.4390 C   0  0  2  0  0  3  0  0  0  0  0  0
  189.1990  175.7070  137.1370 C   0  0  0  0  0  0  0  0  0  0  0  0
  190.5090  177.1950  142.5210 C   0  0  0  0  0  0  0  0  0  0  0  0
  191.1280  176.1110  142.9160 O   0  0  0  0  0  0  0  0  0  0  0  0
  190.9850  177.4580  144.6450 C   0  0  0  0  0  3  0  0  0  0  0  0
  191.4310  176.2290  144.1870 C   0  0  0  0  0  3  0  0  0  0  0  0
  190.3870  178.0870  143.5670 C   0  0  0  0  0  3  0  0  0  0  0  0
  188.7940  173.5290  136.2360 O   0  0  0  0  0  0  0  0  0  0  0  0
  188.1130  172.6010  137.0250 C   0  0  0  0  0  2  0  0  0  0  0  0
  186.6690  173.0330  137.1780 C   0  0  0  0  0  1  0  0  0  0  0  0
  187.6280  178.0970  137.4510 O   0  0  0  0  0  0  0  0  0  0  0  0
  186.2110  178.1670  137.3720 C   0  0  0  0  0  2  0  0  0  0  0  0
  185.6610  176.8100  136.9780 C   0  0  0  0  0  2  0  0  0  0  0  0
  184.1420  176.8170  137.0520 C   0  0  0  0  0  2  0  0  0  0  0  0
  183.6690  175.7980  137.9820 N   0  0  0  0  0  2  0  0  0  0  0  0
  181.1150  175.4060  138.6910 S   0  0  0  0  0  0  0  0  0  0  0  0
  182.6210  176.0020  138.9400 C   0  0  0  0  0  0  0  0  0  0  0  0
  182.8890  176.7080  140.1520 N   0  0  0  0  0  2  0  0  0  0  0  0
  184.8360  179.7290  140.2040 O   0  0  0  0  0  1  0  0  0  0  0  0
  184.4680  178.4670  140.6640 C   0  0  1  0  0  3  0  0  0  0  0  0
  183.2890  178.6040  141.6020 C   0  0  0  0  0  2  0  0  0  0  0  0
  183.0680  178.1500  140.1740 C   0  0  2  0  0  3  0  0  0  0  0  0
  1  2  1  0  0  0  0
  1  5  1  0  0  0  0
  3  2  1  0  0  0  0
  4  7  2  0  0  0  0
  5 10  2  0  0  0  0
  6 11  2  0  0  0  0
  7 12  1  0  0  0  0
  8 21  1  6  0  0  0
  9 16  1  0  0  0  0
 10  9  1  0  0  0  0
 11  8  1  0  0  0  0
 11  3  1  0  0  0  0
 12  9  2  0  0  0  0
 13 15  2  0  0  0  0
 14 15  1  6  0  0  0
 14  4  1  0  0  0  0
 14  5  1  0  0  0  0
 15  8  1  0  0  0  0
 16 17  1  0  0  0  0
 16 20  2  0  0  0  0
 17 19  1  0  0  0  0
 19 18  2  0  0  0  0
 20 18  1  0  0  0  0
 21 22  1  0  0  0  0
 22 23  1  0  0  0  0
 24  4  1  0  0  0  0
 25 24  1  0  0  0  0
 26 27  1  0  0  0  0
 26 25  1  0  0  0  0
 27 28  1  0  0  0  0
 28 30  1  0  0  0  0
 29 30  2  0  0  0  0
 30 31  1  0  0  0  0
 33 32  1  6  0  0  0
 33 34  1  0  0  0  0
 35 31  1  1  0  0  0
 35 33  1  0  0  0  0
 35 34  1  0  0  0  0
M  END
>  <MODEL>
5

>  <REMARK>
 VINA RESULT:      -6.3      1.629      1.791
  Name = 
  11 active torsions:
  status: ('A' for Active; 'I' for Inactive)
    1  A    between atoms: C_1  and  C_20
    2  A    between atoms: C_1  and  C_25
    3  A    between atoms: C_4  and  C_26
    4  A    between atoms: C_9  and  O_14
    5  A    between atoms: N_11  and  C_20
    6  A    between atoms: N_11  and  C_33
    7  A    between atoms: O_14  and  C_23
    8  A    between atoms: C_16  and  O_29
    9  A    between atoms: C_21  and  N_30
   10  A    between atoms: C_25  and  O_29
   11  A    between atoms: N_30  and  C_33
                            x       y       z     vdW  Elec       q    Type
                         _______ _______ _______ _____ _____    ______ ____

>  <TORSDO>
F 11

$$$$
=
 OpenBabel10222419193D

 35 38  0  0  1  0  0  0  0  0999 V2000
  189.2960  178.2170  137.6650 O   0  0  0  0  0  0  0  0  0  0  0  0
  190.1980  177.2660  137.1060 C   0  0  0  0  0  2  0  0  0  0  0  0
  189.5320  175.9780  136.9430 N   0  0  0  0  0  2  0  0  0  0  0  0
  186.4090  178.6280  139.7000 C   0  0  0  0  0  0  0  0  0  0  0  0
  188.6790  177.9980  138.8990 C   0  0  0  0  0  0  0  0  0  0  0  0
  188.2310  175.9600  135.0120 O   0  0  0  0  0  0  0  0  0  0  0  0
  186.6390  178.8440  141.0030 C   0  0  0  0  0  3  0  0  0  0  0  0
  187.0190  175.8340  137.0820 C   0  0  1  0  0  3  0  0  0  0  0  0
  188.8870  177.8690  141.3900 C   0  0  0  0  0  0  0  0  0  0  0  0
  189.4050  178.0600  140.0150 C   0  0  0  0  0  3  0  0  0  0  0  0
  188.2780  175.8840  136.2700 C   0  0  0  0  0  0  0  0  0  0  0  0
  187.6970  178.2460  141.7730 N   0  0  0  0  0  0  0  0  0  0  0  0
  186.1670  178.0260  136.8520 O   0  0  0  0  0  0  0  0  0  0  0  0
  187.2300  177.6170  138.9490 C   0  0  2  0  0  3  0  0  0  0  0  0
  186.6970  177.2090  137.5940 C   0  0  0  0  0  0  0  0  0  0  0  0
  189.8080  177.3480  142.4130 C   0  0  0  0  0  0  0  0  0  0  0  0
  190.4220  178.1020  143.2900 O   0  0  0  0  0  0  0  0  0  0  0  0
  191.0320  176.0250  143.6610 C   0  0  0  0  0  3  0  0  0  0  0  0
  191.1690  177.3450  144.0580 C   0  0  0  0  0  3  0  0  0  0  0  0
  190.1500  176.0230  142.5950 C   0  0  0  0  0  3  0  0  0  0  0  0
  185.9540  175.3140  136.3390 O   0  0  0  0  0  0  0  0  0  0  0  0
  184.9890  174.9770  137.2900 C   0  0  0  0  0  2  0  0  0  0  0  0
  184.8660  173.4700  137.3740 C   0  0  0  0  0  1  0  0  0  0  0  0
  185.3900  179.3270  139.0380 O   0  0  0  0  0  0  0  0  0  0  0  0
  184.0330  179.3180  139.4630 C   0  0  0  0  0  2  0  0  0  0  0  0
  183.4550  177.9300  139.2760 C   0  0  0  0  0  2  0  0  0  0  0  0
  182.7440  177.4820  140.5430 C   0  0  0  0  0  2  0  0  0  0  0  0
  181.5680  178.3080  140.7910 N   0  0  0  0  0  2  0  0  0  0  0  0
  179.6530  178.7230  142.6200 S   0  0  0  0  0  0  0  0  0  0  0  0
  181.1970  178.8190  142.0790 C   0  0  0  0  0  0  0  0  0  0  0  0
  182.1880  179.3960  142.9300 N   0  0  0  0  0  2  0  0  0  0  0  0
  184.1150  179.0000  145.9390 O   0  0  0  0  0  1  0  0  0  0  0  0
  183.8730  179.5010  144.6610 C   0  0  1  0  0  3  0  0  0  0  0  0
  184.3150  178.4810  143.6350 C   0  0  0  0  0  2  0  0  0  0  0  0
  182.8450  178.6250  143.9710 C   0  0  2  0  0  3  0  0  0  0  0  0
  1  5  1  0  0  0  0
  2  1  1  0  0  0  0
  3  2  1  0  0  0  0
  4  7  2  0  0  0  0
  5 14  1  0  0  0  0
  5 10  2  0  0  0  0
  6 11  2  0  0  0  0
  7 12  1  0  0  0  0
  8 21  1  6  0  0  0
  8 15  1  0  0  0  0
  9 12  2  0  0  0  0
  9 16  1  0  0  0  0
 10  9  1  0  0  0  0
 11  3  1  0  0  0  0
 11  8  1  0  0  0  0
 13 15  2  0  0  0  0
 14 15  1  6  0  0  0
 14  4  1  0  0  0  0
 16 20  2  0  0  0  0
 16 17  1  0  0  0  0
 17 19  1  0  0  0  0
 18 19  2  0  0  0  0
 20 18  1  0  0  0  0
 21 22  1  0  0  0  0
 22 23  1  0  0  0  0
 24 25  1  0  0  0  0
 24  4  1  0  0  0  0
 26 25  1  0  0  0  0
 26 27  1  0  0  0  0
 27 28  1  0  0  0  0
 28 30  1  0  0  0  0
 30 29  2  0  0  0  0
 30 31  1  0  0  0  0
 33 32  1  1  0  0  0
 34 35  1  0  0  0  0
 34 33  1  0  0  0  0
 35 31  1  6  0  0  0
 35 33  1  0  0  0  0
M  END
>  <MODEL>
6

>  <REMARK>
 VINA RESULT:      -6.1      2.309      3.104
  Name = 
  11 active torsions:
  status: ('A' for Active; 'I' for Inactive)
    1  A    between atoms: C_1  and  C_20
    2  A    between atoms: C_1  and  C_25
    3  A    between atoms: C_4  and  C_26
    4  A    between atoms: C_9  and  O_14
    5  A    between atoms: N_11  and  C_20
    6  A    between atoms: N_11  and  C_33
    7  A    between atoms: O_14  and  C_23
    8  A    between atoms: C_16  and  O_29
    9  A    between atoms: C_21  and  N_30
   10  A    between atoms: C_25  and  O_29
   11  A    between atoms: N_30  and  C_33
                            x       y       z     vdW  Elec       q    Type
                         _______ _______ _______ _____ _____    ______ ____

>  <TORSDO>
F 11

$$$$
=
 OpenBabel10222419193D

 35 38  0  0  1  0  0  0  0  0999 V2000
  182.6110  177.9990  137.2150 O   0  0  0  0  0  0  0  0  0  0  0  0
  181.3350  177.7840  137.8120 C   0  0  0  0  0  2  0  0  0  0  0  0
  181.4720  177.6660  139.2590 N   0  0  0  0  0  2  0  0  0  0  0  0
  186.1080  177.4600  137.5750 C   0  0  0  0  0  0  0  0  0  0  0  0
  183.6560  177.0860  137.3820 C   0  0  0  0  0  0  0  0  0  0  0  0
  181.6420  179.7680  140.2470 O   0  0  0  0  0  0  0  0  0  0  0  0
  186.5910  176.3530  136.9950 C   0  0  0  0  0  3  0  0  0  0  0  0
  183.6060  178.3940  140.3860 C   0  0  1  0  0  3  0  0  0  0  0  0
  184.6290  174.8430  136.8450 C   0  0  0  0  0  0  0  0  0  0  0  0
  183.5930  175.9000  136.7760 C   0  0  0  0  0  3  0  0  0  0  0  0
  182.1780  178.6530  140.0100 C   0  0  0  0  0  0  0  0  0  0  0  0
  185.9100  175.0900  136.9140 N   0  0  0  0  0  0  0  0  0  0  0  0
  184.7980  179.7380  138.8520 O   0  0  0  0  0  0  0  0  0  0  0  0
  184.7930  177.4170  138.3010 C   0  0  2  0  0  3  0  0  0  0  0  0
  184.4870  178.6030  139.1870 C   0  0  0  0  0  0  0  0  0  0  0  0
  184.2030  173.4430  136.6960 C   0  0  0  0  0  0  0  0  0  0  0  0
  183.0060  173.0100  137.0060 O   0  0  0  0  0  0  0  0  0  0  0  0
  184.1570  171.2940  136.2630 C   0  0  0  0  0  3  0  0  0  0  0  0
  182.9390  171.7230  136.7610 C   0  0  0  0  0  3  0  0  0  0  0  0
  184.9800  172.4060  136.2190 C   0  0  0  0  0  3  0  0  0  0  0  0
  184.0080  179.2070  141.4510 O   0  0  0  0  0  0  0  0  0  0  0  0
  184.1520  178.3330  142.5310 C   0  0  0  0  0  2  0  0  0  0  0  0
  183.7310  179.0340  143.8060 C   0  0  0  0  0  1  0  0  0  0  0  0
  186.8350  178.6580  137.5260 O   0  0  0  0  0  0  0  0  0  0  0  0
  188.1240  178.7660  136.9350 C   0  0  0  0  0  2  0  0  0  0  0  0
  189.1660  178.9220  138.0240 C   0  0  0  0  0  2  0  0  0  0  0  0
  189.8030  177.5780  138.3390 C   0  0  0  0  0  2  0  0  0  0  0  0
  189.1900  176.9850  139.5210 N   0  0  0  0  0  2  0  0  0  0  0  0
  187.7660  178.3320  141.3480 S   0  0  0  0  0  0  0  0  0  0  0  0
  189.1380  177.6170  140.8080 C   0  0  0  0  0  0  0  0  0  0  0  0
  190.2850  177.6010  141.6580 N   0  0  0  0  0  2  0  0  0  0  0  0
  191.6780  176.5690  144.8070 O   0  0  0  0  0  1  0  0  0  0  0  0
  191.5390  176.5210  143.4210 C   0  0  1  0  0  3  0  0  0  0  0  0
  190.3630  175.6370  143.0700 C   0  0  0  0  0  2  0  0  0  0  0  0
  190.2110  177.1440  143.0350 C   0  0  2  0  0  3  0  0  0  0  0  0
  1  5  1  0  0  0  0
  1  2  1  0  0  0  0
  2  3  1  0  0  0  0
  3 11  1  0  0  0  0
  4 14  1  0  0  0  0
  7  4  2  0  0  0  0
  8 21  1  1  0  0  0
  9 12  2  0  0  0  0
 10  9  1  0  0  0  0
 10  5  2  0  0  0  0
 11  6  2  0  0  0  0
 11  8  1  0  0  0  0
 12  7  1  0  0  0  0
 13 15  2  0  0  0  0
 14  5  1  6  0  0  0
 14 15  1  0  0  0  0
 15  8  1  0  0  0  0
 16  9  1  0  0  0  0
 16 17  1  0  0  0  0
 18 19  2  0  0  0  0
 19 17  1  0  0  0  0
 20 18  1  0  0  0  0
 20 16  2  0  0  0  0
 21 22  1  0  0  0  0
 22 23  1  0  0  0  0
 24  4  1  0  0  0  0
 25 24  1  0  0  0  0
 25 26  1  0  0  0  0
 26 27  1  0  0  0  0
 27 28  1  0  0  0  0
 28 30  1  0  0  0  0
 30 29  2  0  0  0  0
 30 31  1  0  0  0  0
 33 32  1  1  0  0  0
 34 33  1  0  0  0  0
 35 31  1  6  0  0  0
 35 34  1  0  0  0  0
 35 33  1  0  0  0  0
M  END
>  <MODEL>
7

>  <REMARK>
 VINA RESULT:      -6.0      3.062      8.011
  Name = 
  11 active torsions:
  status: ('A' for Active; 'I' for Inactive)
    1  A    between atoms: C_1  and  C_20
    2  A    between atoms: C_1  and  C_25
    3  A    between atoms: C_4  and  C_26
    4  A    between atoms: C_9  and  O_14
    5  A    between atoms: N_11  and  C_20
    6  A    between atoms: N_11  and  C_33
    7  A    between atoms: O_14  and  C_23
    8  A    between atoms: C_16  and  O_29
    9  A    between atoms: C_21  and  N_30
   10  A    between atoms: C_25  and  O_29
   11  A    between atoms: N_30  and  C_33
                            x       y       z     vdW  Elec       q    Type
                         _______ _______ _______ _____ _____    ______ ____

>  <TORSDO>
F 11

$$$$
=
 OpenBabel10222419193D

 35 38  0  0  1  0  0  0  0  0999 V2000
  191.4150  174.1240  137.7540 O   0  0  0  0  0  0  0  0  0  0  0  0
  191.6230  173.4870  136.4970 C   0  0  0  0  0  2  0  0  0  0  0  0
  192.3510  174.3750  135.5980 N   0  0  0  0  0  2  0  0  0  0  0  0
  191.0660  177.2610  139.3920 C   0  0  0  0  0  0  0  0  0  0  0  0
  190.7290  175.3380  137.8510 C   0  0  0  0  0  0  0  0  0  0  0  0
  194.6320  174.3300  136.0610 O   0  0  0  0  0  0  0  0  0  0  0  0
  189.8110  177.7090  139.5350 C   0  0  0  0  0  3  0  0  0  0  0  0
  193.5230  176.4100  136.5160 C   0  0  1  0  0  3  0  0  0  0  0  0
  188.5530  176.5680  137.7270 C   0  0  0  0  0  0  0  0  0  0  0  0
  189.4130  175.3650  137.6410 C   0  0  0  0  0  3  0  0  0  0  0  0
  193.5660  174.9990  136.0120 C   0  0  0  0  0  0  0  0  0  0  0  0
  188.7520  177.5390  138.5770 N   0  0  0  0  0  0  0  0  0  0  0  0
  193.7060  176.1310  138.8550 O   0  0  0  0  0  0  0  0  0  0  0  0
  191.4900  176.6030  138.1090 C   0  0  2  0  0  3  0  0  0  0  0  0
  192.9790  176.4270  137.9160 C   0  0  0  0  0  0  0  0  0  0  0  0
  187.3340  176.6110  136.9040 C   0  0  0  0  0  0  0  0  0  0  0  0
  186.7550  175.5460  136.4080 O   0  0  0  0  0  0  0  0  0  0  0  0
  185.5810  177.2920  135.7780 C   0  0  0  0  0  3  0  0  0  0  0  0
  185.6970  175.9130  135.7240 C   0  0  0  0  0  3  0  0  0  0  0  0
  186.6400  177.7480  136.5420 C   0  0  0  0  0  3  0  0  0  0  0  0
  194.7860  177.0100  136.4620 O   0  0  0  0  0  0  0  0  0  0  0  0
  195.0140  177.2350  135.1030 C   0  0  0  0  0  2  0  0  0  0  0  0
  196.1800  178.1880  134.9400 C   0  0  0  0  0  1  0  0  0  0  0  0
  191.9950  177.4220  140.4300 O   0  0  0  0  0  0  0  0  0  0  0  0
  191.7320  177.0540  141.7780 C   0  0  0  0  0  2  0  0  0  0  0  0
  191.3400  178.2860  142.5690 C   0  0  0  0  0  2  0  0  0  0  0  0
  191.3570  177.9810  144.0590 C   0  0  0  0  0  2  0  0  0  0  0  0
  190.0970  177.3760  144.4730 N   0  0  0  0  0  2  0  0  0  0  0  0
  190.8950  176.7530  146.9540 S   0  0  0  0  0  0  0  0  0  0  0  0
  189.7470  177.0890  145.8340 C   0  0  0  0  0  0  0  0  0  0  0  0
  188.3790  177.1270  146.2420 N   0  0  0  0  0  2  0  0  0  0  0  0
  185.6660  179.3760  146.9500 O   0  0  0  0  0  1  0  0  0  0  0  0
  186.2320  178.1200  146.7440 C   0  0  1  0  0  3  0  0  0  0  0  0
  186.2840  177.8370  145.2590 C   0  0  0  0  0  2  0  0  0  0  0  0
  187.5360  178.2820  145.9870 C   0  0  2  0  0  3  0  0  0  0  0  0
  1  5  1  0  0  0  0
  2  1  1  0  0  0  0
  3 11  1  0  0  0  0
  3  2  1  0  0  0  0
  4  7  2  0  0  0  0
  4 24  1  0  0  0  0
  8 21  1  1  0  0  0
  8 15  1  0  0  0  0
  9 12  2  0  0  0  0
 10  9  1  0  0  0  0
 10  5  2  0  0  0  0
 11  6  2  0  0  0  0
 11  8  1  0  0  0  0
 12  7  1  0  0  0  0
 14  5  1  1  0  0  0
 14  4  1  0  0  0  0
 15 14  1  0  0  0  0
 15 13  2  0  0  0  0
 16  9  1  0  0  0  0
 17 16  1  0  0  0  0
 18 20  1  0  0  0  0
 19 18  2  0  0  0  0
 19 17  1  0  0  0  0
 20 16  2  0  0  0  0
 22 21  1  0  0  0  0
 23 22  1  0  0  0  0
 24 25  1  0  0  0  0
 25 26  1  0  0  0  0
 26 27  1  0  0  0  0
 27 28  1  0  0  0  0
 28 30  1  0  0  0  0
 30 31  1  0  0  0  0
 30 29  2  0  0  0  0
 33 32  1  6  0  0  0
 34 35  1  0  0  0  0
 34 33  1  0  0  0  0
 35 31  1  1  0  0  0
 35 33  1  0  0  0  0
M  END
>  <MODEL>
8

>  <REMARK>
 VINA RESULT:      -6.0      3.168      6.083
  Name = 
  11 active torsions:
  status: ('A' for Active; 'I' for Inactive)
    1  A    between atoms: C_1  and  C_20
    2  A    between atoms: C_1  and  C_25
    3  A    between atoms: C_4  and  C_26
    4  A    between atoms: C_9  and  O_14
    5  A    between atoms: N_11  and  C_20
    6  A    between atoms: N_11  and  C_33
    7  A    between atoms: O_14  and  C_23
    8  A    between atoms: C_16  and  O_29
    9  A    between atoms: C_21  and  N_30
   10  A    between atoms: C_25  and  O_29
   11  A    between atoms: N_30  and  C_33
                            x       y       z     vdW  Elec       q    Type
                         _______ _______ _______ _____ _____    ______ ____

>  <TORSDO>
F 11

$$$$
=
 OpenBabel10222419193D

 35 38  0  0  1  0  0  0  0  0999 V2000
  188.7360  178.1010  135.8770 O   0  0  0  0  0  0  0  0  0  0  0  0
  188.6040  177.4770  134.6030 C   0  0  0  0  0  2  0  0  0  0  0  0
  187.6940  176.3410  134.6920 N   0  0  0  0  0  2  0  0  0  0  0  0
  188.5650  177.5810  139.3910 C   0  0  0  0  0  0  0  0  0  0  0  0
  189.1920  177.3900  136.9910 C   0  0  0  0  0  0  0  0  0  0  0  0
  185.4770  177.0510  134.6380 O   0  0  0  0  0  0  0  0  0  0  0  0
  189.7210  177.2690  139.9930 C   0  0  0  0  0  3  0  0  0  0  0  0
  186.2040  176.0770  136.7090 C   0  0  1  0  0  3  0  0  0  0  0  0
  191.1010  176.2900  138.1790 C   0  0  0  0  0  0  0  0  0  0  0  0
  190.4730  177.0260  137.0570 C   0  0  0  0  0  3  0  0  0  0  0  0
  186.4010  176.4840  135.2800 C   0  0  0  0  0  0  0  0  0  0  0  0
  190.7580  176.4470  139.4290 N   0  0  0  0  0  0  0  0  0  0  0  0
  186.1590  178.1520  137.8370 O   0  0  0  0  0  0  0  0  0  0  0  0
  188.2230  176.9770  138.0570 C   0  0  2  0  0  3  0  0  0  0  0  0
  186.7850  177.1250  137.6140 C   0  0  0  0  0  0  0  0  0  0  0  0
  192.2610  175.4340  137.8830 C   0  0  0  0  0  0  0  0  0  0  0  0
  193.4910  175.7370  138.2150 O   0  0  0  0  0  0  0  0  0  0  0  0
  193.5430  173.7960  137.1890 C   0  0  0  0  0  3  0  0  0  0  0  0
  194.2920  174.7780  137.8150 C   0  0  0  0  0  3  0  0  0  0  0  0
  192.2250  174.2170  137.2310 C   0  0  0  0  0  3  0  0  0  0  0  0
  184.8510  175.8610  136.9960 O   0  0  0  0  0  0  0  0  0  0  0  0
  184.6610  174.4920  136.8040 C   0  0  0  0  0  2  0  0  0  0  0  0
  183.3740  174.2640  136.0380 C   0  0  0  0  0  1  0  0  0  0  0  0
  187.6600  178.4540  140.0120 O   0  0  0  0  0  0  0  0  0  0  0  0
  187.7990  178.8980  141.3550 C   0  0  0  0  0  2  0  0  0  0  0  0
  186.7640  178.2090  142.2230 C   0  0  0  0  0  2  0  0  0  0  0  0
  187.4450  177.4610  143.3590 C   0  0  0  0  0  2  0  0  0  0  0  0
  188.8650  177.2860  143.0790 N   0  0  0  0  0  2  0  0  0  0  0  0
  191.2920  176.4140  143.8060 S   0  0  0  0  0  0  0  0  0  0  0  0
  189.8820  177.1990  144.0870 C   0  0  0  0  0  0  0  0  0  0  0  0
  189.6880  177.8320  145.3530 N   0  0  0  0  0  2  0  0  0  0  0  0
  188.4100  177.5610  148.7010 O   0  0  0  0  0  1  0  0  0  0  0  0
  189.3460  177.9460  147.7440 C   0  0  1  0  0  3  0  0  0  0  0  0
  190.2680  176.7820  147.4550 C   0  0  0  0  0  2  0  0  0  0  0  0
  189.1460  177.1130  146.4930 C   0  0  2  0  0  3  0  0  0  0  0  0
  1  5  1  0  0  0  0
  2  3  1  0  0  0  0
  2  1  1  0  0  0  0
  3 11  1  0  0  0  0
  4  7  2  0  0  0  0
  4 24  1  0  0  0  0
  5 10  2  0  0  0  0
  6 11  2  0  0  0  0
  8 21  1  1  0  0  0
  8 15  1  0  0  0  0
  9 12  2  0  0  0  0
 10  9  1  0  0  0  0
 11  8  1  0  0  0  0
 12  7  1  0  0  0  0
 14  5  1  6  0  0  0
 14  4  1  0  0  0  0
 15 13  2  0  0  0  0
 15 14  1  0  0  0  0
 16  9  1  0  0  0  0
 16 17  1  0  0  0  0
 18 20  1  0  0  0  0
 18 19  2  0  0  0  0
 19 17  1  0  0  0  0
 20 16  2  0  0  0  0
 22 21  1  0  0  0  0
 23 22  1  0  0  0  0
 24 25  1  0  0  0  0
 25 26  1  0  0  0  0
 26 27  1  0  0  0  0
 28 27  1  0  0  0  0
 28 30  1  0  0  0  0
 29 30  2  0  0  0  0
 30 31  1  0  0  0  0
 33 32  1  1  0  0  0
 34 33  1  0  0  0  0
 35 31  1  6  0  0  0
 35 34  1  0  0  0  0
 35 33  1  0  0  0  0
M  END
>  <MODEL>
9

>  <REMARK>
 VINA RESULT:      -6.0      3.180      5.526
  Name = 
  11 active torsions:
  status: ('A' for Active; 'I' for Inactive)
    1  A    between atoms: C_1  and  C_20
    2  A    between atoms: C_1  and  C_25
    3  A    between atoms: C_4  and  C_26
    4  A    between atoms: C_9  and  O_14
    5  A    between atoms: N_11  and  C_20
    6  A    between atoms: N_11  and  C_33
    7  A    between atoms: O_14  and  C_23
    8  A    between atoms: C_16  and  O_29
    9  A    between atoms: C_21  and  N_30
   10  A    between atoms: C_25  and  O_29
   11  A    between atoms: N_30  and  C_33
                            x       y       z     vdW  Elec       q    Type
                         _______ _______ _______ _____ _____    ______ ____

>  <TORSDO>
F 11

$$$$
