=
 OpenBabel10222420593D

 38 42  0  0  1  0  0  0  0  0999 V2000
  183.4270  179.0090  145.4840 O   0  0  0  0  0  0  0  0  0  0  0  0
  183.7570  178.5360  143.3280 C   0  0  0  0  0  0  0  0  0  0  0  0
  182.0470  178.5640  141.6640 C   0  0  0  0  0  3  0  0  0  0  0  0
  185.7220  178.6900  146.2360 C   0  0  0  0  0  3  0  0  0  0  0  0
  181.5060  179.1110  143.9940 C   0  0  0  0  0  3  0  0  0  0  0  0
  182.8480  178.9010  144.3010 C   0  0  0  0  0  0  0  0  0  0  0  0
  181.1100  178.9380  142.6540 C   0  0  0  0  0  3  0  0  0  0  0  0
  186.1790  178.0930  143.5300 N   0  0  0  0  0  0  0  0  0  0  0  0
  184.9510  178.4240  143.9880 C   0  0  0  0  0  0  0  0  0  0  0  0
  184.7020  178.7200  145.2990 C   0  0  0  0  0  0  0  0  0  0  0  0
  187.2380  178.0570  144.4000 C   0  0  0  0  0  0  0  0  0  0  0  0
  187.0170  178.3550  145.7900 C   0  0  0  0  0  0  0  0  0  0  0  0
  183.3990  178.3580  141.9960 C   0  0  0  0  0  3  0  0  0  0  0  0
  189.6300  178.5980  143.7920 C   0  0  0  0  0  3  0  0  0  0  0  0
  188.5670  177.6840  143.8500 C   0  0  0  0  0  0  0  0  0  0  0  0
  188.7550  176.3980  143.3190 C   0  0  0  0  0  3  0  0  0  0  0  0
  189.9840  176.0270  142.7660 C   0  0  0  0  0  3  0  0  0  0  0  0
  191.0420  176.9390  142.7250 C   0  0  0  0  0  0  0  0  0  0  0  0
  190.8580  178.2300  143.2390 C   0  0  0  0  0  3  0  0  0  0  0  0
  192.2900  176.5380  142.1560 N   0  0  0  0  0  2  0  0  0  0  0  0
  192.7580  177.0160  140.8650 C   0  0  0  0  0  2  0  0  0  0  0  0
  191.6750  177.7060  140.1830 N   0  0  0  0  0  2  0  0  0  0  0  0
  191.0260  175.8280  138.9550 O   0  0  0  0  0  0  0  0  0  0  0  0
  190.8280  177.0400  139.2470 C   0  0  0  0  0  0  0  0  0  0  0  0
  188.3740  177.5410  139.2830 C   0  0  2  0  0  3  0  0  0  0  0  0
  187.5340  178.7810  137.3300 N   0  0  0  0  0  2  0  0  0  0  0  0
  188.5060  178.2010  136.3940 C   0  0  0  0  0  2  0  0  0  0  0  0
  187.1890  177.7840  138.3410 C   0  0  0  0  0  2  0  0  0  0  0  0
  188.2410  178.4290  140.5060 C   0  0  0  0  0  1  0  0  0  0  0  0
  189.7230  177.8020  138.5920 C   0  0  2  0  0  3  0  0  0  0  0  0
  189.6670  177.4780  137.0990 C   0  0  0  0  0  2  0  0  0  0  0  0
  188.1040  178.2870  146.8170 C   0  0  0  0  0  2  0  0  0  0  0  0
  187.7390  177.5690  149.0550 O   0  0  0  0  0  1  0  0  0  0  0  0
  187.9010  177.1030  147.7500 C   0  0  2  0  0  3  0  0  0  0  0  0
  189.0550  176.2190  147.6910 N   0  0  0  0  0  2  0  0  0  0  0  0
  190.0880  176.9340  147.0730 N   0  0  0  0  0  2  0  0  0  0  0  0
  192.4780  176.0200  147.1090 N   0  0  0  0  0  0  0  0  0  0  0  0
  191.3960  176.4340  147.0920 C   0  0  0  0  0  0  0  0  0  0  0  0
  2  9  1  0  0  0  0
  2  6  2  0  0  0  0
  3 13  2  0  0  0  0
  3  7  1  0  0  0  0
  5  6  1  0  0  0  0
  6  1  1  0  0  0  0
  7  5  2  0  0  0  0
  8  9  2  0  0  0  0
  8 11  1  0  0  0  0
  9 10  1  0  0  0  0
 10  1  1  0  0  0  0
 10  4  2  0  0  0  0
 11 12  2  0  0  0  0
 12  4  1  0  0  0  0
 12 32  1  0  0  0  0
 13  2  1  0  0  0  0
 14 15  1  0  0  0  0
 15 11  1  0  0  0  0
 16 15  2  0  0  0  0
 17 16  1  0  0  0  0
 18 17  2  0  0  0  0
 18 19  1  0  0  0  0
 19 14  2  0  0  0  0
 20 18  1  0  0  0  0
 21 20  1  0  0  0  0
 22 21  1  0  0  0  0
 23 24  2  0  0  0  0
 24 22  1  0  0  0  0
 25 29  1  1  0  0  0
 26 28  1  0  0  0  0
 27 31  1  0  0  0  0
 27 26  1  0  0  0  0
 28 25  1  0  0  0  0
 30 24  1  1  0  0  0
 30 25  1  0  0  0  0
 31 30  1  0  0  0  0
 32 34  1  0  0  0  0
 34 33  1  1  0  0  0
 35 34  1  0  0  0  0
 36 38  1  0  0  0  0
 36 35  1  0  0  0  0
 38 37  3  0  0  0  0
M  END
>  <MODEL>
1

>  <REMARK>
 VINA RESULT:      -9.0      0.000      0.000
  Name = 
  10 active torsions:
  status: ('A' for Active; 'I' for Inactive)
    1  A    between atoms: C_8  and  C_32
    2  A    between atoms: C_18  and  N_25
    3  A    between atoms: C_18  and  C_28
    4  A    between atoms: C_20  and  N_23
    5  A    between atoms: N_21  and  C_22
    6  A    between atoms: N_21  and  N_25
    7  A    between atoms: N_23  and  C_24
    8  A    between atoms: C_24  and  N_27
    9  A    between atoms: C_28  and  C_33
   10  A    between atoms: C_31  and  C_38
                            x       y       z     vdW  Elec       q    Type
                         _______ _______ _______ _____ _____    ______ ____

>  <TORSDO>
F 10

$$$$
=
 OpenBabel10222420593D

 38 42  0  0  1  0  0  0  0  0999 V2000
  184.1280  178.9660  146.0140 O   0  0  0  0  0  0  0  0  0  0  0  0
  185.9240  178.1870  144.9410 C   0  0  0  0  0  0  0  0  0  0  0  0
  188.0200  177.7200  145.9820 C   0  0  0  0  0  3  0  0  0  0  0  0
  182.6320  179.0740  144.0950 C   0  0  0  0  0  3  0  0  0  0  0  0
  186.1470  178.5750  147.3170 C   0  0  0  0  0  3  0  0  0  0  0  0
  185.3890  178.5910  146.1490 C   0  0  0  0  0  0  0  0  0  0  0  0
  187.4800  178.1320  147.2220 C   0  0  0  0  0  3  0  0  0  0  0  0
  184.8690  178.0890  142.7100 N   0  0  0  0  0  0  0  0  0  0  0  0
  184.9060  178.3350  144.0390 C   0  0  0  0  0  0  0  0  0  0  0  0
  183.8310  178.8130  144.7370 C   0  0  0  0  0  0  0  0  0  0  0  0
  183.7080  178.3130  142.0130 C   0  0  0  0  0  0  0  0  0  0  0  0
  182.5580  178.8230  142.7090 C   0  0  0  0  0  0  0  0  0  0  0  0
  187.2360  177.7430  144.8140 C   0  0  0  0  0  3  0  0  0  0  0  0
  183.1460  176.8680  140.0190 C   0  0  0  0  0  3  0  0  0  0  0  0
  183.7180  178.0320  140.5550 C   0  0  0  0  0  0  0  0  0  0  0  0
  184.3670  178.9250  139.6870 C   0  0  0  0  0  3  0  0  0  0  0  0
  184.4210  178.6720  138.3130 C   0  0  0  0  0  3  0  0  0  0  0  0
  183.8350  177.5190  137.7860 C   0  0  0  0  0  0  0  0  0  0  0  0
  183.1990  176.6140  138.6470 C   0  0  0  0  0  3  0  0  0  0  0  0
  183.9010  177.2810  136.3780 N   0  0  0  0  0  2  0  0  0  0  0  0
  185.1580  177.1960  135.6500 C   0  0  0  0  0  2  0  0  0  0  0  0
  186.1910  176.6710  136.5280 N   0  0  0  0  0  2  0  0  0  0  0  0
  187.4840  178.6150  136.4470 O   0  0  0  0  0  0  0  0  0  0  0  0
  187.3260  177.4490  136.9050 C   0  0  0  0  0  0  0  0  0  0  0  0
  188.9530  177.9210  138.7500 C   0  0  2  0  0  3  0  0  0  0  0  0
  190.4780  176.0690  139.2960 N   0  0  0  0  0  2  0  0  0  0  0  0
  190.5210  175.5420  137.9260 C   0  0  0  0  0  2  0  0  0  0  0  0
  190.3480  177.5230  139.2470 C   0  0  0  0  0  2  0  0  0  0  0  0
  188.0380  178.1520  139.9380 C   0  0  0  0  0  1  0  0  0  0  0  0
  188.3450  176.8560  137.8230 C   0  0  2  0  0  3  0  0  0  0  0  0
  189.4200  176.1230  137.0200 C   0  0  0  0  0  2  0  0  0  0  0  0
  181.2690  179.1450  142.0190 C   0  0  0  0  0  2  0  0  0  0  0  0
  179.2240  178.5980  143.1020 O   0  0  0  0  0  1  0  0  0  0  0  0
  180.2080  179.5830  143.0180 C   0  0  2  0  0  3  0  0  0  0  0  0
  179.6060  180.8340  142.5870 N   0  0  0  0  0  2  0  0  0  0  0  0
  179.0110  180.5970  141.3420 N   0  0  0  0  0  2  0  0  0  0  0  0
  179.1190  182.3800  139.5100 N   0  0  0  0  0  0  0  0  0  0  0  0
  179.0700  181.5730  140.3400 C   0  0  0  0  0  0  0  0  0  0  0  0
  1  6  1  0  0  0  0
  2  6  2  0  0  0  0
  3  7  1  0  0  0  0
  4 10  1  0  0  0  0
  6  5  1  0  0  0  0
  7  5  2  0  0  0  0
  8  9  1  0  0  0  0
  9 10  2  0  0  0  0
  9  2  1  0  0  0  0
 10  1  1  0  0  0  0
 11 12  1  0  0  0  0
 11  8  2  0  0  0  0
 12  4  2  0  0  0  0
 13  2  1  0  0  0  0
 13  3  2  0  0  0  0
 14 15  1  0  0  0  0
 15 11  1  0  0  0  0
 16 15  2  0  0  0  0
 17 16  1  0  0  0  0
 18 17  2  0  0  0  0
 18 19  1  0  0  0  0
 19 14  2  0  0  0  0
 20 18  1  0  0  0  0
 21 20  1  0  0  0  0
 21 22  1  0  0  0  0
 22 24  1  0  0  0  0
 23 24  2  0  0  0  0
 25 28  1  0  0  0  0
 25 29  1  1  0  0  0
 27 26  1  0  0  0  0
 28 26  1  0  0  0  0
 30 24  1  6  0  0  0
 30 25  1  0  0  0  0
 31 30  1  0  0  0  0
 31 27  1  0  0  0  0
 32 12  1  0  0  0  0
 32 34  1  0  0  0  0
 34 33  1  6  0  0  0
 35 34  1  0  0  0  0
 36 35  1  0  0  0  0
 37 38  3  0  0  0  0
 38 36  1  0  0  0  0
M  END
>  <MODEL>
2

>  <REMARK>
 VINA RESULT:      -8.6      3.160      7.270
  Name = 
  10 active torsions:
  status: ('A' for Active; 'I' for Inactive)
    1  A    between atoms: C_8  and  C_32
    2  A    between atoms: C_18  and  N_25
    3  A    between atoms: C_18  and  C_28
    4  A    between atoms: C_20  and  N_23
    5  A    between atoms: N_21  and  C_22
    6  A    between atoms: N_21  and  N_25
    7  A    between atoms: N_23  and  C_24
    8  A    between atoms: C_24  and  N_27
    9  A    between atoms: C_28  and  C_33
   10  A    between atoms: C_31  and  C_38
                            x       y       z     vdW  Elec       q    Type
                         _______ _______ _______ _____ _____    ______ ____

>  <TORSDO>
F 10

$$$$
=
 OpenBabel10222420593D

 38 42  0  0  1  0  0  0  0  0999 V2000
  188.8310  177.5070  136.9730 O   0  0  0  0  0  0  0  0  0  0  0  0
  190.8120  176.6030  137.4610 C   0  0  0  0  0  0  0  0  0  0  0  0
  192.3250  175.7160  135.8430 C   0  0  0  0  0  3  0  0  0  0  0  0
  188.1590  178.0530  139.2500 C   0  0  0  0  0  3  0  0  0  0  0  0
  190.1830  176.6750  135.1280 C   0  0  0  0  0  3  0  0  0  0  0  0
  189.9120  176.9370  136.4690 C   0  0  0  0  0  0  0  0  0  0  0  0
  191.4090  176.0550  134.8210 C   0  0  0  0  0  3  0  0  0  0  0  0
  190.6480  176.9260  139.9040 N   0  0  0  0  0  0  0  0  0  0  0  0
  190.2170  177.0060  138.6250 C   0  0  0  0  0  0  0  0  0  0  0  0
  189.0110  177.5510  138.2800 C   0  0  0  0  0  0  0  0  0  0  0  0
  189.8600  177.4170  140.9150 C   0  0  0  0  0  0  0  0  0  0  0  0
  188.5810  177.9910  140.5940 C   0  0  0  0  0  0  0  0  0  0  0  0
  192.0320  175.9910  137.1910 C   0  0  0  0  0  3  0  0  0  0  0  0
  190.5660  178.4280  143.1200 C   0  0  0  0  0  3  0  0  0  0  0  0
  190.3750  177.3020  142.3040 C   0  0  0  0  0  0  0  0  0  0  0  0
  190.7380  176.0410  142.8010 C   0  0  0  0  0  3  0  0  0  0  0  0
  191.2540  175.9040  144.0930 C   0  0  0  0  0  3  0  0  0  0  0  0
  191.4270  177.0280  144.9050 C   0  0  0  0  0  0  0  0  0  0  0  0
  191.0820  178.2940  144.4100 C   0  0  0  0  0  3  0  0  0  0  0  0
  191.9560  176.8650  146.2220 N   0  0  0  0  0  2  0  0  0  0  0  0
  191.1400  176.4600  147.3550 C   0  0  0  0  0  2  0  0  0  0  0  0
  189.7350  176.5390  146.9930 N   0  0  0  0  0  2  0  0  0  0  0  0
  189.3820  178.5500  148.1280 O   0  0  0  0  0  0  0  0  0  0  0  0
  188.9120  177.6320  147.3990 C   0  0  0  0  0  0  0  0  0  0  0  0
  187.3370  177.9990  145.4860 C   0  0  2  0  0  3  0  0  0  0  0  0
  184.9590  178.1430  146.1060 N   0  0  0  0  0  2  0  0  0  0  0  0
  185.2160  178.7370  147.4240 C   0  0  0  0  0  2  0  0  0  0  0  0
  185.9700  178.6150  145.1630 C   0  0  0  0  0  2  0  0  0  0  0  0
  187.5380  176.7460  144.6550 C   0  0  0  0  0  1  0  0  0  0  0  0
  187.4780  177.6620  146.9800 C   0  0  2  0  0  3  0  0  0  0  0  0
  186.6890  178.6340  147.8570 C   0  0  0  0  0  2  0  0  0  0  0  0
  187.6370  178.5000  141.6370 C   0  0  0  0  0  2  0  0  0  0  0  0
  185.8260  179.8270  140.8490 O   0  0  0  0  0  1  0  0  0  0  0  0
  186.2050  178.5120  141.1200 C   0  0  2  0  0  3  0  0  0  0  0  0
  185.3110  177.9460  142.1170 N   0  0  0  0  0  2  0  0  0  0  0  0
  184.0270  178.4310  141.8420 N   0  0  0  0  0  2  0  0  0  0  0  0
  182.4030  178.9160  143.7580 N   0  0  0  0  0  0  0  0  0  0  0  0
  183.1380  178.6970  142.8900 C   0  0  0  0  0  0  0  0  0  0  0  0
  1 10  1  0  0  0  0
  2  9  1  0  0  0  0
  3 13  1  0  0  0  0
  4 12  1  0  0  0  0
  5  6  2  0  0  0  0
  6  1  1  0  0  0  0
  6  2  1  0  0  0  0
  7  5  1  0  0  0  0
  7  3  2  0  0  0  0
  8 11  1  0  0  0  0
  9  8  2  0  0  0  0
 10  9  1  0  0  0  0
 10  4  2  0  0  0  0
 11 15  1  0  0  0  0
 12 11  2  0  0  0  0
 12 32  1  0  0  0  0
 13  2  2  0  0  0  0
 14 19  1  0  0  0  0
 15 16  1  0  0  0  0
 15 14  2  0  0  0  0
 16 17  2  0  0  0  0
 17 18  1  0  0  0  0
 18 20  1  0  0  0  0
 19 18  2  0  0  0  0
 20 21  1  0  0  0  0
 22 21  1  0  0  0  0
 22 24  1  0  0  0  0
 24 23  2  0  0  0  0
 25 29  1  6  0  0  0
 25 30  1  0  0  0  0
 26 27  1  0  0  0  0
 27 31  1  0  0  0  0
 28 25  1  0  0  0  0
 28 26  1  0  0  0  0
 30 24  1  1  0  0  0
 30 31  1  0  0  0  0
 34 33  1  1  0  0  0
 34 32  1  0  0  0  0
 34 35  1  0  0  0  0
 36 35  1  0  0  0  0
 36 38  1  0  0  0  0
 38 37  3  0  0  0  0
M  END
>  <MODEL>
3

>  <REMARK>
 VINA RESULT:      -8.4      1.997      8.053
  Name = 
  10 active torsions:
  status: ('A' for Active; 'I' for Inactive)
    1  A    between atoms: C_8  and  C_32
    2  A    between atoms: C_18  and  N_25
    3  A    between atoms: C_18  and  C_28
    4  A    between atoms: C_20  and  N_23
    5  A    between atoms: N_21  and  C_22
    6  A    between atoms: N_21  and  N_25
    7  A    between atoms: N_23  and  C_24
    8  A    between atoms: C_24  and  N_27
    9  A    between atoms: C_28  and  C_33
   10  A    between atoms: C_31  and  C_38
                            x       y       z     vdW  Elec       q    Type
                         _______ _______ _______ _____ _____    ______ ____

>  <TORSDO>
F 10

$$$$
=
 OpenBabel10222420593D

 38 42  0  0  1  0  0  0  0  0999 V2000
  184.0360  178.8890  146.0280 O   0  0  0  0  0  0  0  0  0  0  0  0
  185.8570  178.1700  144.9560 C   0  0  0  0  0  0  0  0  0  0  0  0
  187.9520  177.7250  146.0060 C   0  0  0  0  0  3  0  0  0  0  0  0
  182.5540  179.0070  144.0980 C   0  0  0  0  0  3  0  0  0  0  0  0
  186.0500  178.5120  147.3410 C   0  0  0  0  0  3  0  0  0  0  0  0
  185.3020  178.5370  146.1660 C   0  0  0  0  0  0  0  0  0  0  0  0
  187.3930  178.0990  147.2500 C   0  0  0  0  0  3  0  0  0  0  0  0
  184.8230  178.0980  142.7130 N   0  0  0  0  0  0  0  0  0  0  0  0
  184.8440  178.3170  144.0480 C   0  0  0  0  0  0  0  0  0  0  0  0
  183.7530  178.7570  144.7450 C   0  0  0  0  0  0  0  0  0  0  0  0
  183.6650  178.3130  142.0110 C   0  0  0  0  0  0  0  0  0  0  0  0
  182.4980  178.7830  142.7070 C   0  0  0  0  0  0  0  0  0  0  0  0
  187.1790  177.7570  144.8310 C   0  0  0  0  0  3  0  0  0  0  0  0
  184.3170  178.9480  139.6540 C   0  0  0  0  0  3  0  0  0  0  0  0
  183.6930  178.0630  140.5460 C   0  0  0  0  0  0  0  0  0  0  0  0
  183.0290  176.9400  140.0270 C   0  0  0  0  0  3  0  0  0  0  0  0
  183.0120  176.6950  138.6510 C   0  0  0  0  0  3  0  0  0  0  0  0
  183.6480  177.5730  137.7710 C   0  0  0  0  0  0  0  0  0  0  0  0
  184.3000  178.7050  138.2790 C   0  0  0  0  0  3  0  0  0  0  0  0
  183.6180  177.3020  136.3680 N   0  0  0  0  0  2  0  0  0  0  0  0
  184.5770  176.4270  135.7130 C   0  0  0  0  0  2  0  0  0  0  0  0
  185.8650  176.5370  136.3780 N   0  0  0  0  0  2  0  0  0  0  0  0
  186.6990  178.1140  134.8710 O   0  0  0  0  0  0  0  0  0  0  0  0
  186.8820  177.4230  135.9110 C   0  0  0  0  0  0  0  0  0  0  0  0
  188.8430  176.1180  136.7640 C   0  0  2  0  0  3  0  0  0  0  0  0
  190.3400  177.3540  138.2760 N   0  0  0  0  0  2  0  0  0  0  0  0
  189.2750  178.1940  138.8370 C   0  0  0  0  0  2  0  0  0  0  0  0
  189.7950  176.0350  137.9630 C   0  0  0  0  0  2  0  0  0  0  0  0
  189.6040  175.8060  135.4880 C   0  0  0  0  0  1  0  0  0  0  0  0
  188.1780  177.5000  136.6490 C   0  0  2  0  0  3  0  0  0  0  0  0
  187.9720  178.1450  138.0200 C   0  0  0  0  0  2  0  0  0  0  0  0
  181.2090  179.0940  142.0110 C   0  0  0  0  0  2  0  0  0  0  0  0
  179.2100  178.7210  143.2460 O   0  0  0  0  0  1  0  0  0  0  0  0
  180.1910  179.6770  142.9810 C   0  0  2  0  0  3  0  0  0  0  0  0
  179.5720  180.8580  142.4010 N   0  0  0  0  0  2  0  0  0  0  0  0
  179.5270  180.6610  141.0160 N   0  0  0  0  0  2  0  0  0  0  0  0
  178.9310  182.6060  139.4630 N   0  0  0  0  0  0  0  0  0  0  0  0
  179.2000  181.7250  140.1660 C   0  0  0  0  0  0  0  0  0  0  0  0
  1  6  1  0  0  0  0
  2  6  2  0  0  0  0
  3  7  1  0  0  0  0
  4 10  1  0  0  0  0
  6  5  1  0  0  0  0
  7  5  2  0  0  0  0
  8  9  1  0  0  0  0
  9 10  2  0  0  0  0
  9  2  1  0  0  0  0
 10  1  1  0  0  0  0
 11 12  1  0  0  0  0
 11  8  2  0  0  0  0
 12  4  2  0  0  0  0
 13  2  1  0  0  0  0
 13  3  2  0  0  0  0
 14 15  1  0  0  0  0
 15 11  1  0  0  0  0
 16 15  2  0  0  0  0
 17 16  1  0  0  0  0
 18 19  1  0  0  0  0
 18 17  2  0  0  0  0
 19 14  2  0  0  0  0
 20 18  1  0  0  0  0
 21 20  1  0  0  0  0
 21 22  1  0  0  0  0
 23 24  2  0  0  0  0
 24 22  1  0  0  0  0
 25 29  1  6  0  0  0
 25 28  1  0  0  0  0
 26 27  1  0  0  0  0
 28 26  1  0  0  0  0
 30 24  1  1  0  0  0
 30 25  1  0  0  0  0
 30 31  1  0  0  0  0
 31 27  1  0  0  0  0
 32 12  1  0  0  0  0
 32 34  1  0  0  0  0
 34 33  1  6  0  0  0
 35 34  1  0  0  0  0
 36 35  1  0  0  0  0
 37 38  3  0  0  0  0
 38 36  1  0  0  0  0
M  END
>  <MODEL>
4

>  <REMARK>
 VINA RESULT:      -8.2      3.279      7.386
  Name = 
  10 active torsions:
  status: ('A' for Active; 'I' for Inactive)
    1  A    between atoms: C_8  and  C_32
    2  A    between atoms: C_18  and  N_25
    3  A    between atoms: C_18  and  C_28
    4  A    between atoms: C_20  and  N_23
    5  A    between atoms: N_21  and  C_22
    6  A    between atoms: N_21  and  N_25
    7  A    between atoms: N_23  and  C_24
    8  A    between atoms: C_24  and  N_27
    9  A    between atoms: C_28  and  C_33
   10  A    between atoms: C_31  and  C_38
                            x       y       z     vdW  Elec       q    Type
                         _______ _______ _______ _____ _____    ______ ____

>  <TORSDO>
F 10

$$$$
=
 OpenBabel10222420593D

 38 42  0  0  1  0  0  0  0  0999 V2000
  183.2020  178.8050  145.2830 O   0  0  0  0  0  0  0  0  0  0  0  0
  183.0820  178.6400  143.0600 C   0  0  0  0  0  0  0  0  0  0  0  0
  181.0780  178.9090  141.7930 C   0  0  0  0  0  3  0  0  0  0  0  0
  185.5890  178.3750  145.5070 C   0  0  0  0  0  3  0  0  0  0  0  0
  181.0270  179.1230  144.2370 C   0  0  0  0  0  3  0  0  0  0  0  0
  182.3960  178.8670  144.2370 C   0  0  0  0  0  0  0  0  0  0  0  0
  180.3670  179.1420  142.9930 C   0  0  0  0  0  3  0  0  0  0  0  0
  185.4810  178.1650  142.7080 N   0  0  0  0  0  0  0  0  0  0  0  0
  184.3780  178.4320  143.4450 C   0  0  0  0  0  0  0  0  0  0  0  0
  184.4050  178.5410  144.8080 C   0  0  0  0  0  0  0  0  0  0  0  0
  186.6900  178.0030  143.3350 C   0  0  0  0  0  0  0  0  0  0  0  0
  186.7580  178.1020  144.7680 C   0  0  0  0  0  0  0  0  0  0  0  0
  182.4610  178.6530  141.8150 C   0  0  0  0  0  3  0  0  0  0  0  0
  188.1740  178.4680  141.3430 C   0  0  0  0  0  3  0  0  0  0  0  0
  187.8710  177.7070  142.4830 C   0  0  0  0  0  0  0  0  0  0  0  0
  188.6790  176.6000  142.7880 C   0  0  0  0  0  3  0  0  0  0  0  0
  189.7780  176.2770  141.9880 C   0  0  0  0  0  3  0  0  0  0  0  0
  190.0820  177.0490  140.8640 C   0  0  0  0  0  0  0  0  0  0  0  0
  189.2710  178.1470  140.5420 C   0  0  0  0  0  3  0  0  0  0  0  0
  191.2120  176.7010  140.0600 N   0  0  0  0  0  2  0  0  0  0  0  0
  191.1130  176.4350  138.6340 C   0  0  0  0  0  2  0  0  0  0  0  0
  191.8880  175.2490  138.3080 N   0  0  0  0  0  2  0  0  0  0  0  0
  193.7200  176.4590  137.5130 O   0  0  0  0  0  0  0  0  0  0  0  0
  193.2040  175.3350  137.7650 C   0  0  0  0  0  0  0  0  0  0  0  0
  195.4710  174.2770  137.6270 C   0  0  2  0  0  3  0  0  0  0  0  0
  195.5170  172.0380  136.6050 N   0  0  0  0  0  2  0  0  0  0  0  0
  194.3890  172.2970  135.7020 C   0  0  0  0  0  2  0  0  0  0  0  0
  196.2750  173.2740  136.7900 C   0  0  0  0  0  2  0  0  0  0  0  0
  195.8560  174.1420  139.0890 C   0  0  0  0  0  1  0  0  0  0  0  0
  193.9540  174.0780  137.4660 C   0  0  2  0  0  3  0  0  0  0  0  0
  193.5950  173.5630  136.0720 C   0  0  0  0  0  2  0  0  0  0  0  0
  188.0240  177.8860  145.5360 C   0  0  0  0  0  2  0  0  0  0  0  0
  187.4230  178.4960  147.7560 O   0  0  0  0  0  1  0  0  0  0  0  0
  187.7310  177.4010  146.9480 C   0  0  2  0  0  3  0  0  0  0  0  0
  188.8920  176.7110  147.4880 N   0  0  0  0  0  2  0  0  0  0  0  0
  189.9830  177.0460  146.6770 N   0  0  0  0  0  2  0  0  0  0  0  0
  192.3170  176.1600  147.2390 N   0  0  0  0  0  0  0  0  0  0  0  0
  191.2600  176.5610  146.9850 C   0  0  0  0  0  0  0  0  0  0  0  0
  2  9  1  0  0  0  0
  2  6  2  0  0  0  0
  3 13  2  0  0  0  0
  3  7  1  0  0  0  0
  6  5  1  0  0  0  0
  6  1  1  0  0  0  0
  7  5  2  0  0  0  0
  8 11  2  0  0  0  0
  8  9  1  0  0  0  0
  9 10  2  0  0  0  0
 10  1  1  0  0  0  0
 10  4  1  0  0  0  0
 11 12  1  0  0  0  0
 12  4  2  0  0  0  0
 12 32  1  0  0  0  0
 13  2  1  0  0  0  0
 14 15  1  0  0  0  0
 15 16  2  0  0  0  0
 15 11  1  0  0  0  0
 17 16  1  0  0  0  0
 18 17  2  0  0  0  0
 19 18  1  0  0  0  0
 19 14  2  0  0  0  0
 20 18  1  0  0  0  0
 21 20  1  0  0  0  0
 22 21  1  0  0  0  0
 23 24  2  0  0  0  0
 24 22  1  0  0  0  0
 25 29  1  1  0  0  0
 26 28  1  0  0  0  0
 27 31  1  0  0  0  0
 27 26  1  0  0  0  0
 28 25  1  0  0  0  0
 30 25  1  0  0  0  0
 30 24  1  6  0  0  0
 31 30  1  0  0  0  0
 32 34  1  0  0  0  0
 34 35  1  0  0  0  0
 34 33  1  1  0  0  0
 36 38  1  0  0  0  0
 36 35  1  0  0  0  0
 38 37  3  0  0  0  0
M  END
>  <MODEL>
5

>  <REMARK>
 VINA RESULT:      -7.9      2.816      3.895
  Name = 
  10 active torsions:
  status: ('A' for Active; 'I' for Inactive)
    1  A    between atoms: C_8  and  C_32
    2  A    between atoms: C_18  and  N_25
    3  A    between atoms: C_18  and  C_28
    4  A    between atoms: C_20  and  N_23
    5  A    between atoms: N_21  and  C_22
    6  A    between atoms: N_21  and  N_25
    7  A    between atoms: N_23  and  C_24
    8  A    between atoms: C_24  and  N_27
    9  A    between atoms: C_28  and  C_33
   10  A    between atoms: C_31  and  C_38
                            x       y       z     vdW  Elec       q    Type
                         _______ _______ _______ _____ _____    ______ ____

>  <TORSDO>
F 10

$$$$
=
 OpenBabel10222420593D

 38 42  0  0  1  0  0  0  0  0999 V2000
  182.8580  178.9540  144.8490 O   0  0  0  0  0  0  0  0  0  0  0  0
  182.9050  178.6780  142.6340 C   0  0  0  0  0  0  0  0  0  0  0  0
  181.0020  178.8770  141.2100 C   0  0  0  0  0  3  0  0  0  0  0  0
  185.2210  178.5430  145.2730 C   0  0  0  0  0  3  0  0  0  0  0  0
  180.7680  179.2140  143.6290 C   0  0  0  0  0  3  0  0  0  0  0  0
  182.1330  178.9620  143.7440 C   0  0  0  0  0  0  0  0  0  0  0  0
  180.2030  179.1690  142.3390 C   0  0  0  0  0  3  0  0  0  0  0  0
  185.3220  178.1920  142.4880 N   0  0  0  0  0  0  0  0  0  0  0  0
  184.1680  178.4920  143.1250 C   0  0  0  0  0  0  0  0  0  0  0  0
  184.0930  178.6700  144.4790 C   0  0  0  0  0  0  0  0  0  0  0  0
  186.4810  178.0640  143.2110 C   0  0  0  0  0  0  0  0  0  0  0  0
  186.4420  178.2360  144.6380 C   0  0  0  0  0  0  0  0  0  0  0  0
  182.3790  178.6260  141.3480 C   0  0  0  0  0  3  0  0  0  0  0  0
  188.0600  178.3650  141.2610 C   0  0  0  0  0  3  0  0  0  0  0  0
  187.7220  177.7290  142.4650 C   0  0  0  0  0  0  0  0  0  0  0  0
  188.5570  176.7080  142.9450 C   0  0  0  0  0  3  0  0  0  0  0  0
  189.7150  176.3480  142.2500 C   0  0  0  0  0  3  0  0  0  0  0  0
  190.0520  176.9960  141.0590 C   0  0  0  0  0  0  0  0  0  0  0  0
  189.2160  178.0060  140.5650 C   0  0  0  0  0  3  0  0  0  0  0  0
  191.2410  176.6120  140.3660 N   0  0  0  0  0  2  0  0  0  0  0  0
  191.3370  176.5920  138.9150 C   0  0  0  0  0  2  0  0  0  0  0  0
  190.3210  175.7040  138.3750 N   0  0  0  0  0  2  0  0  0  0  0  0
  190.0250  176.9520  136.4240 O   0  0  0  0  0  0  0  0  0  0  0  0
  189.7160  175.9340  137.1040 C   0  0  0  0  0  0  0  0  0  0  0  0
  187.3090  175.2500  137.2180 C   0  0  2  0  0  3  0  0  0  0  0  0
  186.7770  173.1160  136.1130 N   0  0  0  0  0  2  0  0  0  0  0  0
  188.0870  172.5110  136.3870 C   0  0  0  0  0  2  0  0  0  0  0  0
  186.4180  174.0020  137.2180 C   0  0  0  0  0  2  0  0  0  0  0  0
  186.6180  176.3670  136.4570 C   0  0  0  0  0  1  0  0  0  0  0  0
  188.6890  174.9740  136.5990 C   0  0  2  0  0  3  0  0  0  0  0  0
  189.1420  173.5340  136.8440 C   0  0  0  0  0  2  0  0  0  0  0  0
  187.6470  178.0630  145.5090 C   0  0  0  0  0  2  0  0  0  0  0  0
  187.1190  178.7630  147.7200 O   0  0  0  0  0  1  0  0  0  0  0  0
  187.2480  177.6320  146.9130 C   0  0  2  0  0  3  0  0  0  0  0  0
  188.2640  176.7530  147.4700 N   0  0  0  0  0  2  0  0  0  0  0  0
  189.3890  177.5420  147.7390 N   0  0  0  0  0  2  0  0  0  0  0  0
  191.7130  176.7510  147.0160 N   0  0  0  0  0  0  0  0  0  0  0  0
  190.6600  177.1090  147.3430 C   0  0  0  0  0  0  0  0  0  0  0  0
  2  9  1  0  0  0  0
  2  6  2  0  0  0  0
  3 13  2  0  0  0  0
  3  7  1  0  0  0  0
  5  6  1  0  0  0  0
  6  1  1  0  0  0  0
  7  5  2  0  0  0  0
  8  9  2  0  0  0  0
  8 11  1  0  0  0  0
  9 10  1  0  0  0  0
 10  1  1  0  0  0  0
 10  4  2  0  0  0  0
 11 12  2  0  0  0  0
 12  4  1  0  0  0  0
 12 32  1  0  0  0  0
 13  2  1  0  0  0  0
 14 15  1  0  0  0  0
 15 16  2  0  0  0  0
 15 11  1  0  0  0  0
 17 16  1  0  0  0  0
 18 17  2  0  0  0  0
 19 18  1  0  0  0  0
 19 14  2  0  0  0  0
 20 18  1  0  0  0  0
 21 20  1  0  0  0  0
 22 21  1  0  0  0  0
 23 24  2  0  0  0  0
 24 22  1  0  0  0  0
 25 29  1  6  0  0  0
 26 27  1  0  0  0  0
 26 28  1  0  0  0  0
 27 31  1  0  0  0  0
 28 25  1  0  0  0  0
 30 31  1  0  0  0  0
 30 24  1  1  0  0  0
 30 25  1  0  0  0  0
 32 34  1  0  0  0  0
 34 35  1  0  0  0  0
 34 33  1  1  0  0  0
 35 36  1  0  0  0  0
 37 38  3  0  0  0  0
 38 36  1  0  0  0  0
M  END
>  <MODEL>
6

>  <REMARK>
 VINA RESULT:      -7.8      2.097      2.485
  Name = 
  10 active torsions:
  status: ('A' for Active; 'I' for Inactive)
    1  A    between atoms: C_8  and  C_32
    2  A    between atoms: C_18  and  N_25
    3  A    between atoms: C_18  and  C_28
    4  A    between atoms: C_20  and  N_23
    5  A    between atoms: N_21  and  C_22
    6  A    between atoms: N_21  and  N_25
    7  A    between atoms: N_23  and  C_24
    8  A    between atoms: C_24  and  N_27
    9  A    between atoms: C_28  and  C_33
   10  A    between atoms: C_31  and  C_38
                            x       y       z     vdW  Elec       q    Type
                         _______ _______ _______ _____ _____    ______ ____

>  <TORSDO>
F 10

$$$$
=
 OpenBabel10222420593D

 38 42  0  0  1  0  0  0  0  0999 V2000
  188.0500  177.5410  145.7860 O   0  0  0  0  0  0  0  0  0  0  0  0
  190.0260  176.9700  144.9190 C   0  0  0  0  0  0  0  0  0  0  0  0
  191.9160  176.2840  146.2050 C   0  0  0  0  0  3  0  0  0  0  0  0
  186.9150  178.0430  143.6910 C   0  0  0  0  0  3  0  0  0  0  0  0
  189.8150  176.8770  147.3260 C   0  0  0  0  0  3  0  0  0  0  0  0
  189.2760  177.1330  146.0670 C   0  0  0  0  0  0  0  0  0  0  0  0
  191.1550  176.4470  147.3850 C   0  0  0  0  0  3  0  0  0  0  0  0
  189.3860  177.3280  142.5610 N   0  0  0  0  0  0  0  0  0  0  0  0
  189.1810  177.3060  143.8970 C   0  0  0  0  0  0  0  0  0  0  0  0
  187.9880  177.6470  144.4720 C   0  0  0  0  0  0  0  0  0  0  0  0
  188.3620  177.6980  141.7260 C   0  0  0  0  0  0  0  0  0  0  0  0
  187.0940  178.0720  142.2920 C   0  0  0  0  0  0  0  0  0  0  0  0
  191.3510  176.5460  144.9430 C   0  0  0  0  0  3  0  0  0  0  0  0
  189.8780  177.3220  139.7410 C   0  0  0  0  0  3  0  0  0  0  0  0
  188.6370  177.7120  140.2660 C   0  0  0  0  0  0  0  0  0  0  0  0
  187.6500  178.1820  139.3850 C   0  0  0  0  0  3  0  0  0  0  0  0
  187.8900  178.2360  138.0090 C   0  0  0  0  0  3  0  0  0  0  0  0
  189.1230  177.8320  137.4920 C   0  0  0  0  0  0  0  0  0  0  0  0
  190.1200  177.3760  138.3670 C   0  0  0  0  0  3  0  0  0  0  0  0
  189.3460  177.8950  136.0820 N   0  0  0  0  0  2  0  0  0  0  0  0
  189.5930  176.7160  135.2690 C   0  0  0  0  0  2  0  0  0  0  0  0
  188.4010  175.8840  135.2480 N   0  0  0  0  0  2  0  0  0  0  0  0
  189.2680  174.3110  136.7410 O   0  0  0  0  0  0  0  0  0  0  0  0
  188.2980  174.6950  136.0310 C   0  0  0  0  0  0  0  0  0  0  0  0
  186.1760  174.1150  137.2300 C   0  0  2  0  0  3  0  0  0  0  0  0
  184.9050  172.2460  136.2570 N   0  0  0  0  0  2  0  0  0  0  0  0
  186.0930  171.5410  135.7600 C   0  0  0  0  0  2  0  0  0  0  0  0
  185.2410  172.9310  137.5030 C   0  0  0  0  0  2  0  0  0  0  0  0
  185.3570  175.3830  137.0720 C   0  0  0  0  0  1  0  0  0  0  0  0
  187.0390  173.8920  135.9770 C   0  0  2  0  0  3  0  0  0  0  0  0
  187.3620  172.4130  135.7670 C   0  0  0  0  0  2  0  0  0  0  0  0
  185.9400  178.5390  141.4600 C   0  0  0  0  0  2  0  0  0  0  0  0
  183.7700  177.6250  141.1260 O   0  0  0  0  0  1  0  0  0  0  0  0
  184.6140  178.1570  142.1010 C   0  0  2  0  0  3  0  0  0  0  0  0
  183.9910  179.3310  142.6920 N   0  0  0  0  0  2  0  0  0  0  0  0
  183.2170  178.8860  143.7710 N   0  0  0  0  0  2  0  0  0  0  0  0
  184.1890  178.9030  146.1380 N   0  0  0  0  0  0  0  0  0  0  0  0
  183.7490  178.8950  145.0670 C   0  0  0  0  0  0  0  0  0  0  0  0
  1  6  1  0  0  0  0
  2 13  1  0  0  0  0
  2  6  2  0  0  0  0
  3  7  1  0  0  0  0
  4 10  1  0  0  0  0
  5  7  2  0  0  0  0
  6  5  1  0  0  0  0
  8  9  1  0  0  0  0
  9 10  2  0  0  0  0
  9  2  1  0  0  0  0
 10  1  1  0  0  0  0
 11 12  1  0  0  0  0
 11  8  2  0  0  0  0
 12  4  2  0  0  0  0
 13  3  2  0  0  0  0
 14 15  1  0  0  0  0
 15 11  1  0  0  0  0
 16 15  2  0  0  0  0
 17 16  1  0  0  0  0
 18 17  2  0  0  0  0
 18 19  1  0  0  0  0
 19 14  2  0  0  0  0
 20 18  1  0  0  0  0
 21 20  1  0  0  0  0
 22 21  1  0  0  0  0
 22 24  1  0  0  0  0
 24 23  2  0  0  0  0
 25 29  1  6  0  0  0
 25 28  1  0  0  0  0
 26 28  1  0  0  0  0
 27 31  1  0  0  0  0
 27 26  1  0  0  0  0
 30 24  1  1  0  0  0
 30 25  1  0  0  0  0
 31 30  1  0  0  0  0
 32 34  1  0  0  0  0
 32 12  1  0  0  0  0
 34 33  1  6  0  0  0
 34 35  1  0  0  0  0
 35 36  1  0  0  0  0
 36 38  1  0  0  0  0
 38 37  3  0  0  0  0
M  END
>  <MODEL>
7

>  <REMARK>
 VINA RESULT:      -7.8      3.061      6.422
  Name = 
  10 active torsions:
  status: ('A' for Active; 'I' for Inactive)
    1  A    between atoms: C_8  and  C_32
    2  A    between atoms: C_18  and  N_25
    3  A    between atoms: C_18  and  C_28
    4  A    between atoms: C_20  and  N_23
    5  A    between atoms: N_21  and  C_22
    6  A    between atoms: N_21  and  N_25
    7  A    between atoms: N_23  and  C_24
    8  A    between atoms: C_24  and  N_27
    9  A    between atoms: C_28  and  C_33
   10  A    between atoms: C_31  and  C_38
                            x       y       z     vdW  Elec       q    Type
                         _______ _______ _______ _____ _____    ______ ____

>  <TORSDO>
F 10

$$$$
=
 OpenBabel10222420593D

 38 42  0  0  1  0  0  0  0  0999 V2000
  187.8380  177.6490  145.8000 O   0  0  0  0  0  0  0  0  0  0  0  0
  189.8110  177.1310  144.8930 C   0  0  0  0  0  0  0  0  0  0  0  0
  191.7270  176.4420  146.1370 C   0  0  0  0  0  3  0  0  0  0  0  0
  186.6670  178.1860  143.7330 C   0  0  0  0  0  3  0  0  0  0  0  0
  189.6340  176.9760  147.2990 C   0  0  0  0  0  3  0  0  0  0  0  0
  189.0730  177.2530  146.0550 C   0  0  0  0  0  0  0  0  0  0  0  0
  190.9800  176.5650  147.3300 C   0  0  0  0  0  3  0  0  0  0  0  0
  189.1330  177.5370  142.5530 N   0  0  0  0  0  0  0  0  0  0  0  0
  188.9470  177.4780  143.8910 C   0  0  0  0  0  0  0  0  0  0  0  0
  187.7570  177.7870  144.4900 C   0  0  0  0  0  0  0  0  0  0  0  0
  188.0920  177.9110  141.7410 C   0  0  0  0  0  0  0  0  0  0  0  0
  186.8270  178.2510  142.3330 C   0  0  0  0  0  0  0  0  0  0  0  0
  191.1420  176.7260  144.8890 C   0  0  0  0  0  3  0  0  0  0  0  0
  187.3040  178.0660  139.3460 C   0  0  0  0  0  3  0  0  0  0  0  0
  188.3470  177.9650  140.2780 C   0  0  0  0  0  0  0  0  0  0  0  0
  189.6650  177.8530  139.8060 C   0  0  0  0  0  3  0  0  0  0  0  0
  189.9340  177.8690  138.4340 C   0  0  0  0  0  3  0  0  0  0  0  0
  188.8900  177.9860  137.5130 C   0  0  0  0  0  0  0  0  0  0  0  0
  187.5700  178.0820  137.9760 C   0  0  0  0  0  3  0  0  0  0  0  0
  189.1890  178.0000  136.1150 N   0  0  0  0  0  2  0  0  0  0  0  0
  189.1790  176.8000  135.2940 C   0  0  0  0  0  2  0  0  0  0  0  0
  190.3610  176.0060  135.5820 N   0  0  0  0  0  2  0  0  0  0  0  0
  189.2330  174.5320  136.9990 O   0  0  0  0  0  0  0  0  0  0  0  0
  190.3130  174.8630  136.4340 C   0  0  0  0  0  0  0  0  0  0  0  0
  192.8100  174.9760  136.6040 C   0  0  2  0  0  3  0  0  0  0  0  0
  193.9480  172.7960  136.7080 N   0  0  0  0  0  2  0  0  0  0  0  0
  192.9510  172.1020  135.8830 C   0  0  0  0  0  2  0  0  0  0  0  0
  194.0710  174.1780  136.2500 C   0  0  0  0  0  2  0  0  0  0  0  0
  193.0130  175.6840  137.9310 C   0  0  0  0  0  1  0  0  0  0  0  0
  191.5620  174.0800  136.6770 C   0  0  2  0  0  3  0  0  0  0  0  0
  191.6500  172.9050  135.7020 C   0  0  0  0  0  2  0  0  0  0  0  0
  185.6550  178.7210  141.5280 C   0  0  0  0  0  2  0  0  0  0  0  0
  183.7290  177.3930  141.0990 O   0  0  0  0  0  1  0  0  0  0  0  0
  184.3520  178.1630  142.0820 C   0  0  2  0  0  3  0  0  0  0  0  0
  183.4720  179.2520  142.4750 N   0  0  0  0  0  2  0  0  0  0  0  0
  182.8060  178.8430  143.6360 N   0  0  0  0  0  2  0  0  0  0  0  0
  183.9770  178.9920  145.9060 N   0  0  0  0  0  0  0  0  0  0  0  0
  183.4470  178.9250  144.8780 C   0  0  0  0  0  0  0  0  0  0  0  0
  1  6  1  0  0  0  0
  2  6  2  0  0  0  0
  3  7  1  0  0  0  0
  4 10  1  0  0  0  0
  5  7  2  0  0  0  0
  6  5  1  0  0  0  0
  8  9  1  0  0  0  0
  9 10  2  0  0  0  0
  9  2  1  0  0  0  0
 10  1  1  0  0  0  0
 11 12  1  0  0  0  0
 11  8  2  0  0  0  0
 12  4  2  0  0  0  0
 13  2  1  0  0  0  0
 13  3  2  0  0  0  0
 14 15  1  0  0  0  0
 15 11  1  0  0  0  0
 16 15  2  0  0  0  0
 17 16  1  0  0  0  0
 18 19  1  0  0  0  0
 18 17  2  0  0  0  0
 19 14  2  0  0  0  0
 20 18  1  0  0  0  0
 21 22  1  0  0  0  0
 21 20  1  0  0  0  0
 22 24  1  0  0  0  0
 24 23  2  0  0  0  0
 25 30  1  0  0  0  0
 25 29  1  1  0  0  0
 27 26  1  0  0  0  0
 28 25  1  0  0  0  0
 28 26  1  0  0  0  0
 30 24  1  6  0  0  0
 31 27  1  0  0  0  0
 31 30  1  0  0  0  0
 32 34  1  0  0  0  0
 32 12  1  0  0  0  0
 34 33  1  6  0  0  0
 34 35  1  0  0  0  0
 35 36  1  0  0  0  0
 36 38  1  0  0  0  0
 38 37  3  0  0  0  0
M  END
>  <MODEL>
8

>  <REMARK>
 VINA RESULT:      -7.7      2.937      6.538
  Name = 
  10 active torsions:
  status: ('A' for Active; 'I' for Inactive)
    1  A    between atoms: C_8  and  C_32
    2  A    between atoms: C_18  and  N_25
    3  A    between atoms: C_18  and  C_28
    4  A    between atoms: C_20  and  N_23
    5  A    between atoms: N_21  and  C_22
    6  A    between atoms: N_21  and  N_25
    7  A    between atoms: N_23  and  C_24
    8  A    between atoms: C_24  and  N_27
    9  A    between atoms: C_28  and  C_33
   10  A    between atoms: C_31  and  C_38
                            x       y       z     vdW  Elec       q    Type
                         _______ _______ _______ _____ _____    ______ ____

>  <TORSDO>
F 10

$$$$
=
 OpenBabel10222420593D

 38 42  0  0  1  0  0  0  0  0999 V2000
  187.1930  178.3150  137.8350 O   0  0  0  0  0  0  0  0  0  0  0  0
  186.1720  178.4620  139.8140 C   0  0  0  0  0  0  0  0  0  0  0  0
  183.8720  179.0260  140.1070 C   0  0  0  0  0  3  0  0  0  0  0  0
  189.4040  177.7140  138.6600 C   0  0  0  0  0  3  0  0  0  0  0  0
  184.8320  178.9100  137.8530 C   0  0  0  0  0  3  0  0  0  0  0  0
  186.0470  178.5710  138.4430 C   0  0  0  0  0  0  0  0  0  0  0  0
  183.7350  179.1390  138.7050 C   0  0  0  0  0  3  0  0  0  0  0  0
  188.1540  177.8840  141.1700 N   0  0  0  0  0  0  0  0  0  0  0  0
  187.4800  178.1200  140.0210 C   0  0  0  0  0  0  0  0  0  0  0  0
  188.0640  178.0410  138.7870 C   0  0  0  0  0  0  0  0  0  0  0  0
  189.4810  177.5420  141.1160 C   0  0  0  0  0  0  0  0  0  0  0  0
  190.1350  177.4560  139.8380 C   0  0  0  0  0  0  0  0  0  0  0  0
  185.1080  178.6810  140.6840 C   0  0  0  0  0  3  0  0  0  0  0  0
  190.5440  176.0070  142.8190 C   0  0  0  0  0  3  0  0  0  0  0  0
  190.1800  177.2970  142.4050 C   0  0  0  0  0  0  0  0  0  0  0  0
  190.4360  178.3780  143.2640 C   0  0  0  0  0  3  0  0  0  0  0  0
  191.0630  178.1760  144.4960 C   0  0  0  0  0  3  0  0  0  0  0  0
  191.4360  176.8900  144.8950 C   0  0  0  0  0  0  0  0  0  0  0  0
  191.1700  175.8030  144.0500 C   0  0  0  0  0  3  0  0  0  0  0  0
  192.0770  176.7070  146.1590 N   0  0  0  0  0  2  0  0  0  0  0  0
  191.3430  176.4130  147.3800 C   0  0  0  0  0  2  0  0  0  0  0  0
  189.9160  176.4800  147.1160 N   0  0  0  0  0  2  0  0  0  0  0  0
  189.6930  178.6520  147.9420 O   0  0  0  0  0  0  0  0  0  0  0  0
  189.1490  177.6470  147.4050 C   0  0  0  0  0  0  0  0  0  0  0  0
  187.4310  177.9610  145.6080 C   0  0  2  0  0  3  0  0  0  0  0  0
  185.1060  178.0990  146.4020 N   0  0  0  0  0  2  0  0  0  0  0  0
  185.4550  178.7230  147.6840 C   0  0  0  0  0  2  0  0  0  0  0  0
  186.0390  178.5590  145.3760 C   0  0  0  0  0  2  0  0  0  0  0  0
  187.5820  176.6920  144.7900 C   0  0  0  0  0  1  0  0  0  0  0  0
  187.6880  177.6570  147.0940 C   0  0  2  0  0  3  0  0  0  0  0  0
  186.9570  178.6410  148.0080 C   0  0  0  0  0  2  0  0  0  0  0  0
  191.5910  177.1420  139.6910 C   0  0  0  0  0  2  0  0  0  0  0  0
  191.5800  175.1370  138.4110 O   0  0  0  0  0  1  0  0  0  0  0  0
  191.8770  176.4980  138.3420 C   0  0  2  0  0  3  0  0  0  0  0  0
  193.2790  176.6720  137.9960 N   0  0  0  0  0  2  0  0  0  0  0  0
  193.7860  175.4040  137.6840 N   0  0  0  0  0  2  0  0  0  0  0  0
  195.3930  175.1160  135.7140 N   0  0  0  0  0  0  0  0  0  0  0  0
  194.6650  175.2460  136.6060 C   0  0  0  0  0  0  0  0  0  0  0  0
  1  6  1  0  0  0  0
  1 10  1  0  0  0  0
  2  9  1  0  0  0  0
  2 13  2  0  0  0  0
  3 13  1  0  0  0  0
  4 10  2  0  0  0  0
  4 12  1  0  0  0  0
  5  6  2  0  0  0  0
  5  7  1  0  0  0  0
  6  2  1  0  0  0  0
  7  3  2  0  0  0  0
  9  8  2  0  0  0  0
 10  9  1  0  0  0  0
 11  8  1  0  0  0  0
 11 15  1  0  0  0  0
 12 11  2  0  0  0  0
 14 19  1  0  0  0  0
 15 14  2  0  0  0  0
 15 16  1  0  0  0  0
 16 17  2  0  0  0  0
 17 18  1  0  0  0  0
 18 20  1  0  0  0  0
 19 18  2  0  0  0  0
 20 21  1  0  0  0  0
 22 21  1  0  0  0  0
 22 24  1  0  0  0  0
 24 23  2  0  0  0  0
 25 29  1  6  0  0  0
 25 30  1  0  0  0  0
 26 27  1  0  0  0  0
 27 31  1  0  0  0  0
 28 25  1  0  0  0  0
 28 26  1  0  0  0  0
 30 24  1  6  0  0  0
 30 31  1  0  0  0  0
 32 12  1  0  0  0  0
 34 33  1  1  0  0  0
 34 32  1  0  0  0  0
 35 34  1  0  0  0  0
 36 35  1  0  0  0  0
 37 38  3  0  0  0  0
 38 36  1  0  0  0  0
M  END
>  <MODEL>
9

>  <REMARK>
 VINA RESULT:      -7.7      2.315      7.393
  Name = 
  10 active torsions:
  status: ('A' for Active; 'I' for Inactive)
    1  A    between atoms: C_8  and  C_32
    2  A    between atoms: C_18  and  N_25
    3  A    between atoms: C_18  and  C_28
    4  A    between atoms: C_20  and  N_23
    5  A    between atoms: N_21  and  C_22
    6  A    between atoms: N_21  and  N_25
    7  A    between atoms: N_23  and  C_24
    8  A    between atoms: C_24  and  N_27
    9  A    between atoms: C_28  and  C_33
   10  A    between atoms: C_31  and  C_38
                            x       y       z     vdW  Elec       q    Type
                         _______ _______ _______ _____ _____    ______ ____

>  <TORSDO>
F 10

$$$$
