=
 OpenBabel10222417113D

 51 56  0  0  1  0  0  0  0  0999 V2000
  187.2990  178.7560  146.7970 C   0  0  0  0  0  3  0  0  0  0  0  0
  187.0790  177.3940  144.7060 C   0  0  0  0  0  0  0  0  0  0  0  0
  187.5810  176.2950  143.8210 C   0  0  0  0  0  1  0  0  0  0  0  0
  187.7720  177.7390  145.8250 C   0  0  0  0  0  0  0  0  0  0  0  0
  184.9050  178.2860  146.4620 C   0  0  0  0  0  2  0  0  0  0  0  0
  185.6880  178.2620  142.8120 N   0  0  0  0  0  2  0  0  0  0  0  0
  186.0300  179.0340  147.0810 C   0  0  0  0  0  3  0  0  0  0  0  0
  184.9100  178.4920  145.0240 N   0  0  0  0  0  0  0  0  0  0  0  0
  185.8590  178.1010  144.2240 C   0  0  0  0  0  0  0  0  0  0  0  0
  190.3370  177.4940  145.5480 C   0  0  2  0  0  0  0  0  0  0  0  0
  189.0430  177.0000  146.2030 C   0  0  2  0  0  3  0  0  0  0  0  0
  189.6450  176.2710  144.9980 C   0  0  0  0  0  2  0  0  0  0  0  0
  191.4970  177.1960  146.2780 O   0  0  0  0  0  0  0  0  0  0  0  0
  191.9490  176.0520  145.7990 O   0  0  0  0  0  1  0  0  0  0  0  0
  190.3770  178.6690  144.5710 C   0  0  0  0  0  2  0  0  0  0  0  0
  191.4720  178.4530  143.5390 C   0  0  0  0  0  2  0  0  0  0  0  0
  189.7500  177.4340  139.7460 C   0  0  0  0  0  0  0  0  0  0  0  0
  190.8820  178.1040  142.2190 C   0  0  0  0  0  0  0  0  0  0  0  0
  189.5120  178.2870  142.0000 C   0  0  0  0  0  3  0  0  0  0  0  0
  191.1270  177.2590  139.9630 C   0  0  0  0  0  3  0  0  0  0  0  0
  188.9470  177.9510  140.7680 C   0  0  0  0  0  3  0  0  0  0  0  0
  191.6910  177.5950  141.1980 C   0  0  0  0  0  3  0  0  0  0  0  0
  189.1090  177.0560  138.4380 C   0  0  2  0  0  3  0  0  0  0  0  0
  190.0100  176.7780  136.1190 C   0  0  0  0  0  2  0  0  0  0  0  0
  189.2360  175.8760  135.3750 O   0  0  0  0  0  0  0  0  0  0  0  0
  189.6010  174.8560  137.3610 C   0  0  0  0  0  2  0  0  0  0  0  0
  190.0700  176.2700  137.5370 C   0  0  2  0  0  3  0  0  0  0  0  0
  189.4680  174.6540  135.9300 N   0  0  0  0  0  2  0  0  0  0  0  0
  188.5800  178.2960  137.7160 C   0  0  0  0  0  2  0  0  0  0  0  0
  186.3420  178.4880  138.5190 O   0  0  0  0  0  0  0  0  0  0  0  0
  187.0990  178.2260  137.5480 C   0  0  0  0  0  0  0  0  0  0  0  0
  186.5420  177.8760  136.2880 N   0  0  0  0  0  1  0  0  0  0  0  0
  184.5430  178.9500  142.2330 C   0  0  0  0  0  2  0  0  0  0  0  0
  184.0030  178.1540  141.0580 C   0  0  0  0  0  2  0  0  0  0  0  0
  183.2920  179.0890  140.0930 C   0  0  0  0  0  2  0  0  0  0  0  0
  182.1860  178.3580  139.3410 C   0  0  0  0  0  2  0  0  0  0  0  0
  180.7670  178.6590  139.8320 C   0  0  0  0  0  0  0  0  0  0  0  0
  180.3570  178.4140  141.2750 C   0  0  0  0  0  2  0  0  0  0  0  0
  180.0230  177.3920  140.1980 C   0  0  0  0  0  2  0  0  0  0  0  0
  179.8920  179.5730  138.9900 C   0  0  0  0  0  2  0  0  0  0  0  0
  180.3310  181.0200  139.1320 C   0  0  2  0  0  3  0  0  0  0  0  0
  179.8770  181.5220  140.3480 O   0  0  0  0  0  1  0  0  0  0  0  0
  179.7550  181.8530  137.9980 C   0  0  0  0  0  2  0  0  0  0  0  0
  180.2070  182.9680  135.9780 C   0  0  2  0  0  3  0  0  0  0  0  0
  180.9360  184.2730  135.7560 C   0  0  0  0  0  2  0  0  0  0  0  0
  181.6170  183.2790  137.8240 C   0  0  0  0  0  2  0  0  0  0  0  0
  180.8270  182.2810  137.1080 N   0  0  0  0  0  0  0  0  0  0  0  0
  181.4790  184.6130  137.1160 C   0  0  0  0  0  2  0  0  0  0  0  0
  180.2130  182.0930  134.7260 C   0  0  0  0  0  2  0  0  0  0  0  0
  179.7530  179.6880  135.0860 C   0  0  0  0  0  1  0  0  0  0  0  0
  180.8430  180.7340  134.9770 C   0  0  0  0  0  2  0  0  0  0  0  0
  1  7  2  0  0  0  0
  2  4  2  0  0  0  0
  3  2  1  0  0  0  0
  4  1  1  0  0  0  0
  5  7  1  0  0  0  0
  6  9  1  0  0  0  0
  8  5  1  0  0  0  0
  9  2  1  0  0  0  0
  9  8  2  0  0  0  0
 10 15  1  6  0  0  0
 10 11  1  0  0  0  0
 10 13  1  0  0  0  0
 11  4  1  6  0  0  0
 12 10  1  0  0  0  0
 12 11  1  0  0  0  0
 14 13  1  0  0  0  0
 16 15  1  0  0  0  0
 17 20  2  0  0  0  0
 17 21  1  0  0  0  0
 18 16  1  0  0  0  0
 19 18  1  0  0  0  0
 20 22  1  0  0  0  0
 21 19  2  0  0  0  0
 22 18  2  0  0  0  0
 23 29  1  6  0  0  0
 23 17  1  0  0  0  0
 24 27  1  0  0  0  0
 25 28  1  0  0  0  0
 25 24  1  0  0  0  0
 26 27  1  0  0  0  0
 27 23  1  1  0  0  0
 28 26  1  0  0  0  0
 31 29  1  0  0  0  0
 31 30  2  0  0  0  0
 32 31  1  0  0  0  0
 33  6  1  0  0  0  0
 34 33  1  0  0  0  0
 35 34  1  0  0  0  0
 36 37  1  0  0  0  0
 36 35  1  0  0  0  0
 37 39  1  0  0  0  0
 37 38  1  0  0  0  0
 39 38  1  0  0  0  0
 40 41  1  0  0  0  0
 40 37  1  0  0  0  0
 41 42  1  1  0  0  0
 43 41  1  0  0  0  0
 44 49  1  6  0  0  0
 44 47  1  0  0  0  0
 45 44  1  0  0  0  0
 45 48  1  0  0  0  0
 47 46  1  0  0  0  0
 47 43  1  0  0  0  0
 48 46  1  0  0  0  0
 49 51  1  0  0  0  0
 51 50  1  0  0  0  0
M  END
>  <MODEL>
1

>  <REMARK>
 VINA RESULT:      -7.7      0.000      0.000
  Name = 
  20 active torsions:
  status: ('A' for Active; 'I' for Inactive)
    1  A    between atoms: C_1  and  C_14
    2  A    between atoms: C_1  and  C_34
    3  A    between atoms: C_2  and  C_14
    4  A    between atoms: C_3  and  C_9
    5  A    between atoms: C_3  and  C_37
    6  A    between atoms: C_5  and  C_16
    7  A    between atoms: C_6  and  C_13
    8  A    between atoms: C_6  and  C_43
    9  A    between atoms: C_7  and  C_37
   10  A    between atoms: C_7  and  C_49
   11  A    between atoms: C_9  and  C_17
   12  A    between atoms: C_12  and  C_17
   13  A    between atoms: C_12  and  N_42
   14  A    between atoms: C_14  and  C_45
   15  A    between atoms: C_16  and  C_39
   16  A    between atoms: C_20  and  O_33
   17  A    between atoms: C_20  and  C_43
   18  A    between atoms: C_21  and  C_28
   19  A    between atoms: N_30  and  C_35
   20  A    between atoms: C_35  and  C_49
                            x       y       z     vdW  Elec       q    Type
                         _______ _______ _______ _____ _____    ______ ____

>  <TORSDO>
F 20

$$$$
=
 OpenBabel10222417113D

 51 56  0  0  1  0  0  0  0  0999 V2000
  187.1450  178.8330  146.5470 C   0  0  0  0  0  3  0  0  0  0  0  0
  186.9520  177.4420  144.4720 C   0  0  0  0  0  0  0  0  0  0  0  0
  187.4530  176.3160  143.6190 C   0  0  0  0  0  1  0  0  0  0  0  0
  187.6210  177.7890  145.6050 C   0  0  0  0  0  0  0  0  0  0  0  0
  184.7510  178.4130  146.1500 C   0  0  0  0  0  2  0  0  0  0  0  0
  185.6360  178.3100  142.5250 N   0  0  0  0  0  2  0  0  0  0  0  0
  185.8750  179.1450  146.7900 C   0  0  0  0  0  3  0  0  0  0  0  0
  184.8010  178.5940  144.7090 N   0  0  0  0  0  0  0  0  0  0  0  0
  185.7630  178.1680  143.9440 C   0  0  0  0  0  0  0  0  0  0  0  0
  190.2000  177.5600  145.5060 C   0  0  2  0  0  0  0  0  0  0  0  0
  188.8630  177.0270  146.0310 C   0  0  2  0  0  3  0  0  0  0  0  0
  189.5570  176.3740  144.8320 C   0  0  0  0  0  2  0  0  0  0  0  0
  191.3040  177.2170  146.3020 O   0  0  0  0  0  0  0  0  0  0  0  0
  191.8050  176.1130  145.7790 O   0  0  0  0  0  1  0  0  0  0  0  0
  190.3090  178.7930  144.6100 C   0  0  0  0  0  2  0  0  0  0  0  0
  191.4100  178.5950  143.5810 C   0  0  0  0  0  2  0  0  0  0  0  0
  189.7240  177.3710  139.8320 C   0  0  0  0  0  0  0  0  0  0  0  0
  190.8340  178.1740  142.2760 C   0  0  0  0  0  0  0  0  0  0  0  0
  189.4980  178.4680  141.9790 C   0  0  0  0  0  3  0  0  0  0  0  0
  191.0680  177.0840  140.1260 C   0  0  0  0  0  3  0  0  0  0  0  0
  188.9450  178.0660  140.7610 C   0  0  0  0  0  3  0  0  0  0  0  0
  191.6210  177.4860  141.3460 C   0  0  0  0  0  3  0  0  0  0  0  0
  189.0950  176.9270  138.5400 C   0  0  2  0  0  3  0  0  0  0  0  0
  190.0110  176.8150  136.2130 C   0  0  0  0  0  2  0  0  0  0  0  0
  189.3080  175.8870  135.4310 O   0  0  0  0  0  0  0  0  0  0  0  0
  189.7520  174.8170  137.3740 C   0  0  0  0  0  2  0  0  0  0  0  0
  190.1120  176.2550  137.6080 C   0  0  2  0  0  3  0  0  0  0  0  0
  189.6330  174.6650  135.9350 N   0  0  0  0  0  2  0  0  0  0  0  0
  188.4120  178.1020  137.8390 C   0  0  0  0  0  2  0  0  0  0  0  0
  186.4410  176.9890  137.0860 O   0  0  0  0  0  0  0  0  0  0  0  0
  186.9320  177.9100  137.7900 C   0  0  0  0  0  0  0  0  0  0  0  0
  186.0790  178.7570  138.5460 N   0  0  0  0  0  1  0  0  0  0  0  0
  184.5250  179.0150  141.9030 C   0  0  0  0  0  2  0  0  0  0  0  0
  183.3450  178.0740  141.7370 C   0  0  0  0  0  2  0  0  0  0  0  0
  183.4310  177.3810  140.3860 C   0  0  0  0  0  2  0  0  0  0  0  0
  182.4980  178.0400  139.3750 C   0  0  0  0  0  2  0  0  0  0  0  0
  181.3300  177.1630  138.9120 C   0  0  0  0  0  0  0  0  0  0  0  0
  180.0700  177.0130  139.7480 C   0  0  0  0  0  2  0  0  0  0  0  0
  181.1580  175.9500  139.8020 C   0  0  0  0  0  2  0  0  0  0  0  0
  181.2620  176.7700  137.4460 C   0  0  0  0  0  2  0  0  0  0  0  0
  182.5510  177.1340  136.7310 C   0  0  2  0  0  3  0  0  0  0  0  0
  182.2760  178.0550  135.7240 O   0  0  0  0  0  1  0  0  0  0  0  0
  183.1750  175.8900  136.1180 C   0  0  0  0  0  2  0  0  0  0  0  0
  182.9270  173.5520  136.1010 C   0  0  2  0  0  3  0  0  0  0  0  0
  183.7840  172.5010  136.7670 C   0  0  0  0  0  2  0  0  0  0  0  0
  184.0080  174.5990  137.8980 C   0  0  0  0  0  2  0  0  0  0  0  0
  182.8970  174.7330  136.9600 N   0  0  0  0  0  0  0  0  0  0  0  0
  184.7390  173.3010  137.6080 C   0  0  0  0  0  2  0  0  0  0  0  0
  181.5160  173.0380  135.8160 C   0  0  0  0  0  2  0  0  0  0  0  0
  180.2340  171.7390  137.4880 C   0  0  0  0  0  1  0  0  0  0  0  0
  180.6130  173.1340  137.0330 C   0  0  0  0  0  2  0  0  0  0  0  0
  1  7  2  0  0  0  0
  2  4  2  0  0  0  0
  3  2  1  0  0  0  0
  4  1  1  0  0  0  0
  5  7  1  0  0  0  0
  6  9  1  0  0  0  0
  8  5  1  0  0  0  0
  9  2  1  0  0  0  0
  9  8  2  0  0  0  0
 10 15  1  6  0  0  0
 10 11  1  0  0  0  0
 10 13  1  0  0  0  0
 11  4  1  6  0  0  0
 12 10  1  0  0  0  0
 12 11  1  0  0  0  0
 14 13  1  0  0  0  0
 16 15  1  0  0  0  0
 17 20  2  0  0  0  0
 17 21  1  0  0  0  0
 18 16  1  0  0  0  0
 19 18  1  0  0  0  0
 20 22  1  0  0  0  0
 21 19  2  0  0  0  0
 22 18  2  0  0  0  0
 23 29  1  6  0  0  0
 23 17  1  0  0  0  0
 24 27  1  0  0  0  0
 25 28  1  0  0  0  0
 25 24  1  0  0  0  0
 26 27  1  0  0  0  0
 27 23  1  1  0  0  0
 28 26  1  0  0  0  0
 30 31  2  0  0  0  0
 31 29  1  0  0  0  0
 31 32  1  0  0  0  0
 33  6  1  0  0  0  0
 34 33  1  0  0  0  0
 35 34  1  0  0  0  0
 36 35  1  0  0  0  0
 37 36  1  0  0  0  0
 37 38  1  0  0  0  0
 37 39  1  0  0  0  0
 38 39  1  0  0  0  0
 40 37  1  0  0  0  0
 41 42  1  6  0  0  0
 41 40  1  0  0  0  0
 43 41  1  0  0  0  0
 43 47  1  0  0  0  0
 44 49  1  1  0  0  0
 44 45  1  0  0  0  0
 44 47  1  0  0  0  0
 45 48  1  0  0  0  0
 47 46  1  0  0  0  0
 48 46  1  0  0  0  0
 49 51  1  0  0  0  0
 51 50  1  0  0  0  0
M  END
>  <MODEL>
2

>  <REMARK>
 VINA RESULT:      -7.6      2.777      4.193
  Name = 
  20 active torsions:
  status: ('A' for Active; 'I' for Inactive)
    1  A    between atoms: C_1  and  C_14
    2  A    between atoms: C_1  and  C_34
    3  A    between atoms: C_2  and  C_14
    4  A    between atoms: C_3  and  C_9
    5  A    between atoms: C_3  and  C_37
    6  A    between atoms: C_5  and  C_16
    7  A    between atoms: C_6  and  C_13
    8  A    between atoms: C_6  and  C_43
    9  A    between atoms: C_7  and  C_37
   10  A    between atoms: C_7  and  C_49
   11  A    between atoms: C_9  and  C_17
   12  A    between atoms: C_12  and  C_17
   13  A    between atoms: C_12  and  N_42
   14  A    between atoms: C_14  and  C_45
   15  A    between atoms: C_16  and  C_39
   16  A    between atoms: C_20  and  O_33
   17  A    between atoms: C_20  and  C_43
   18  A    between atoms: C_21  and  C_28
   19  A    between atoms: N_30  and  C_35
   20  A    between atoms: C_35  and  C_49
                            x       y       z     vdW  Elec       q    Type
                         _______ _______ _______ _____ _____    ______ ____

>  <TORSDO>
F 20

$$$$
=
 OpenBabel10222417113D

 51 56  0  0  1  0  0  0  0  0999 V2000
  189.0270  176.4750  139.6600 C   0  0  0  0  0  3  0  0  0  0  0  0
  191.3410  177.2010  140.2900 C   0  0  0  0  0  0  0  0  0  0  0  0
  192.7910  177.3440  139.9400 C   0  0  0  0  0  1  0  0  0  0  0  0
  190.4890  176.5820  139.4280 C   0  0  0  0  0  0  0  0  0  0  0  0
  188.8370  178.6190  140.8580 C   0  0  0  0  0  2  0  0  0  0  0  0
  191.9040  177.5620  142.7040 N   0  0  0  0  0  2  0  0  0  0  0  0
  188.2740  177.3560  140.3130 C   0  0  0  0  0  3  0  0  0  0  0  0
  189.8350  178.3170  141.8700 N   0  0  0  0  0  0  0  0  0  0  0  0
  190.9540  177.6940  141.6410 C   0  0  0  0  0  0  0  0  0  0  0  0
  190.2660  176.5690  136.8470 C   0  0  2  0  0  0  0  0  0  0  0  0
  190.9900  176.0550  138.0950 C   0  0  2  0  0  3  0  0  0  0  0  0
  189.9250  175.2060  137.3940 C   0  0  0  0  0  2  0  0  0  0  0  0
  191.0400  176.5220  135.6770 O   0  0  0  0  0  0  0  0  0  0  0  0
  190.9810  175.2750  135.2480 O   0  0  0  0  0  1  0  0  0  0  0  0
  189.1070  177.5640  136.9090 C   0  0  0  0  0  2  0  0  0  0  0  0
  188.0780  177.2350  135.8390 C   0  0  0  0  0  2  0  0  0  0  0  0
  184.0970  177.7060  137.3630 C   0  0  0  0  0  0  0  0  0  0  0  0
  186.7000  177.3950  136.3770 C   0  0  0  0  0  0  0  0  0  0  0  0
  185.6080  176.9200  135.6420 C   0  0  0  0  0  3  0  0  0  0  0  0
  185.1940  178.1740  138.1050 C   0  0  0  0  0  3  0  0  0  0  0  0
  184.3100  177.0770  136.1330 C   0  0  0  0  0  3  0  0  0  0  0  0
  186.4930  178.0170  137.6130 C   0  0  0  0  0  3  0  0  0  0  0  0
  182.6860  177.8840  137.8550 C   0  0  2  0  0  3  0  0  0  0  0  0
  180.4580  176.7980  138.2040 C   0  0  0  0  0  2  0  0  0  0  0  0
  180.2960  176.3780  139.5320 O   0  0  0  0  0  0  0  0  0  0  0  0
  182.3480  175.6490  138.9200 C   0  0  0  0  0  2  0  0  0  0  0  0
  181.8980  176.5680  137.8230 C   0  0  2  0  0  3  0  0  0  0  0  0
  181.1600  175.3380  139.6930 N   0  0  0  0  0  2  0  0  0  0  0  0
  181.9660  178.9670  137.0520 C   0  0  0  0  0  2  0  0  0  0  0  0
  180.4720  180.7690  137.5150 O   0  0  0  0  0  0  0  0  0  0  0  0
  181.3540  179.9870  137.9560 C   0  0  0  0  0  0  0  0  0  0  0  0
  181.7580  180.0660  139.3150 N   0  0  0  0  0  1  0  0  0  0  0  0
  191.6260  177.9950  144.0650 C   0  0  0  0  0  2  0  0  0  0  0  0
  190.8280  176.9270  144.7930 C   0  0  0  0  0  2  0  0  0  0  0  0
  190.4270  177.4380  146.1680 C   0  0  0  0  0  2  0  0  0  0  0  0
  189.2520  176.6420  146.7240 C   0  0  0  0  0  2  0  0  0  0  0  0
  188.0500  177.4880  147.1550 C   0  0  0  0  0  0  0  0  0  0  0  0
  188.2020  178.6500  148.1220 C   0  0  0  0  0  2  0  0  0  0  0  0
  187.7290  177.2930  148.6220 C   0  0  0  0  0  2  0  0  0  0  0  0
  186.7850  177.4240  146.3140 C   0  0  0  0  0  2  0  0  0  0  0  0
  185.9790  178.7030  146.4570 C   0  0  2  0  0  3  0  0  0  0  0  0
  184.7680  178.4170  147.0790 O   0  0  0  0  0  1  0  0  0  0  0  0
  185.7110  179.3050  145.0860 C   0  0  0  0  0  2  0  0  0  0  0  0
  183.8460  179.0900  143.6710 C   0  0  2  0  0  3  0  0  0  0  0  0
  183.8060  178.7680  142.1950 C   0  0  0  0  0  2  0  0  0  0  0  0
  185.8280  177.9410  143.1740 C   0  0  0  0  0  2  0  0  0  0  0  0
  184.9590  178.3600  144.2710 N   0  0  0  0  0  0  0  0  0  0  0  0
  185.2320  178.4270  141.8660 C   0  0  0  0  0  2  0  0  0  0  0  0
  182.5260  178.7550  144.3630 C   0  0  0  0  0  2  0  0  0  0  0  0
  180.1100  178.3410  144.0140 C   0  0  0  0  0  1  0  0  0  0  0  0
  181.3230  179.0880  143.4970 C   0  0  0  0  0  2  0  0  0  0  0  0
  1  7  2  0  0  0  0
  2  9  1  0  0  0  0
  3  2  1  0  0  0  0
  4  1  1  0  0  0  0
  4  2  2  0  0  0  0
  5  8  1  0  0  0  0
  6 33  1  0  0  0  0
  7  5  1  0  0  0  0
  9  8  2  0  0  0  0
  9  6  1  0  0  0  0
 10 15  1  1  0  0  0
 10 12  1  0  0  0  0
 10 11  1  0  0  0  0
 11  4  1  1  0  0  0
 12 11  1  0  0  0  0
 13 10  1  0  0  0  0
 14 13  1  0  0  0  0
 16 18  1  0  0  0  0
 16 15  1  0  0  0  0
 17 23  1  0  0  0  0
 17 20  1  0  0  0  0
 18 22  1  0  0  0  0
 19 21  1  0  0  0  0
 19 18  2  0  0  0  0
 21 17  2  0  0  0  0
 22 20  2  0  0  0  0
 23 29  1  6  0  0  0
 24 25  1  0  0  0  0
 25 28  1  0  0  0  0
 26 28  1  0  0  0  0
 27 23  1  1  0  0  0
 27 24  1  0  0  0  0
 27 26  1  0  0  0  0
 29 31  1  0  0  0  0
 30 31  2  0  0  0  0
 31 32  1  0  0  0  0
 33 34  1  0  0  0  0
 34 35  1  0  0  0  0
 35 36  1  0  0  0  0
 36 37  1  0  0  0  0
 37 38  1  0  0  0  0
 37 39  1  0  0  0  0
 38 39  1  0  0  0  0
 40 41  1  0  0  0  0
 40 37  1  0  0  0  0
 41 42  1  6  0  0  0
 43 41  1  0  0  0  0
 44 47  1  0  0  0  0
 44 49  1  1  0  0  0
 45 44  1  0  0  0  0
 46 47  1  0  0  0  0
 47 43  1  0  0  0  0
 48 45  1  0  0  0  0
 48 46  1  0  0  0  0
 51 50  1  0  0  0  0
 51 49  1  0  0  0  0
M  END
>  <MODEL>
3

>  <REMARK>
 VINA RESULT:      -7.6      2.893      8.319
  Name = 
  20 active torsions:
  status: ('A' for Active; 'I' for Inactive)
    1  A    between atoms: C_1  and  C_14
    2  A    between atoms: C_1  and  C_34
    3  A    between atoms: C_2  and  C_14
    4  A    between atoms: C_3  and  C_9
    5  A    between atoms: C_3  and  C_37
    6  A    between atoms: C_5  and  C_16
    7  A    between atoms: C_6  and  C_13
    8  A    between atoms: C_6  and  C_43
    9  A    between atoms: C_7  and  C_37
   10  A    between atoms: C_7  and  C_49
   11  A    between atoms: C_9  and  C_17
   12  A    between atoms: C_12  and  C_17
   13  A    between atoms: C_12  and  N_42
   14  A    between atoms: C_14  and  C_45
   15  A    between atoms: C_16  and  C_39
   16  A    between atoms: C_20  and  O_33
   17  A    between atoms: C_20  and  C_43
   18  A    between atoms: C_21  and  C_28
   19  A    between atoms: N_30  and  C_35
   20  A    between atoms: C_35  and  C_49
                            x       y       z     vdW  Elec       q    Type
                         _______ _______ _______ _____ _____    ______ ____

>  <TORSDO>
F 20

$$$$
=
 OpenBabel10222417113D

 51 56  0  0  1  0  0  0  0  0999 V2000
  180.9790  180.2230  139.6690 C   0  0  0  0  0  3  0  0  0  0  0  0
  179.9250  178.1760  138.6810 C   0  0  0  0  0  0  0  0  0  0  0  0
  178.9460  177.0470  138.7880 C   0  0  0  0  0  1  0  0  0  0  0  0
  180.0940  179.0320  139.7260 C   0  0  0  0  0  0  0  0  0  0  0  0
  180.6210  180.6510  137.2710 C   0  0  0  0  0  2  0  0  0  0  0  0
  181.0810  176.9760  136.8110 N   0  0  0  0  0  2  0  0  0  0  0  0
  181.2470  180.9460  138.5860 C   0  0  0  0  0  3  0  0  0  0  0  0
  181.0230  179.3300  136.8190 N   0  0  0  0  0  0  0  0  0  0  0  0
  180.7220  178.2190  137.4240 C   0  0  0  0  0  0  0  0  0  0  0  0
  180.0630  178.8470  142.3090 C   0  0  2  0  0  0  0  0  0  0  0  0
  179.2770  178.8710  140.9940 C   0  0  2  0  0  3  0  0  0  0  0  0
  179.5950  177.5500  141.7000 C   0  0  0  0  0  2  0  0  0  0  0  0
  179.3150  179.2380  143.4300 O   0  0  0  0  0  0  0  0  0  0  0  0
  179.1970  178.1630  144.1860 O   0  0  0  0  0  1  0  0  0  0  0  0
  181.5840  178.9840  142.3710 C   0  0  0  0  0  2  0  0  0  0  0  0
  182.0310  179.2140  143.8060 C   0  0  0  0  0  2  0  0  0  0  0  0
  186.1730  178.1960  144.2480 C   0  0  0  0  0  0  0  0  0  0  0  0
  183.4690  178.8690  143.9650 C   0  0  0  0  0  0  0  0  0  0  0  0
  184.2280  178.5210  142.8420 C   0  0  0  0  0  3  0  0  0  0  0  0
  185.4130  178.5540  145.3730 C   0  0  0  0  0  3  0  0  0  0  0  0
  185.5760  178.1840  142.9840 C   0  0  0  0  0  3  0  0  0  0  0  0
  184.0630  178.8910  145.2310 C   0  0  0  0  0  3  0  0  0  0  0  0
  187.6200  177.8020  144.3740 C   0  0  2  0  0  3  0  0  0  0  0  0
  188.7780  175.9430  143.1620 C   0  0  0  0  0  2  0  0  0  0  0  0
  190.1720  176.0660  143.2500 O   0  0  0  0  0  0  0  0  0  0  0  0
  189.4260  178.1230  142.6770 C   0  0  0  0  0  2  0  0  0  0  0  0
  188.2030  177.3310  143.0350 C   0  0  2  0  0  3  0  0  0  0  0  0
  190.4910  177.1540  142.4950 N   0  0  0  0  0  2  0  0  0  0  0  0
  187.7980  176.7310  145.4500 C   0  0  0  0  0  2  0  0  0  0  0  0
  188.0990  177.3460  147.7360 O   0  0  0  0  0  0  0  0  0  0  0  0
  188.6120  177.2480  146.5900 C   0  0  0  0  0  0  0  0  0  0  0  0
  189.9680  177.6180  146.3860 N   0  0  0  0  0  1  0  0  0  0  0  0
  181.8720  176.9010  135.5910 C   0  0  0  0  0  2  0  0  0  0  0  0
  183.3010  177.3250  135.8760 C   0  0  0  0  0  2  0  0  0  0  0  0
  183.9780  176.2830  136.7530 C   0  0  0  0  0  2  0  0  0  0  0  0
  184.2170  176.8250  138.1570 C   0  0  0  0  0  2  0  0  0  0  0  0
  185.1900  178.0060  138.2330 C   0  0  0  0  0  0  0  0  0  0  0  0
  185.5890  178.6220  139.5640 C   0  0  0  0  0  2  0  0  0  0  0  0
  184.5020  179.2650  138.7160 C   0  0  0  0  0  2  0  0  0  0  0  0
  186.0630  178.2990  137.0240 C   0  0  0  0  0  2  0  0  0  0  0  0
  187.5340  178.1720  137.3800 C   0  0  2  0  0  3  0  0  0  0  0  0
  188.1560  179.4060  137.2140 O   0  0  0  0  0  1  0  0  0  0  0  0
  188.2010  177.1470  136.4760 C   0  0  0  0  0  2  0  0  0  0  0  0
  189.3360  175.0910  136.3830 C   0  0  2  0  0  3  0  0  0  0  0  0
  190.5520  174.6410  137.1610 C   0  0  0  0  0  2  0  0  0  0  0  0
  189.3990  176.3710  138.3450 C   0  0  0  0  0  2  0  0  0  0  0  0
  188.5340  175.9550  137.2450 N   0  0  0  0  0  0  0  0  0  0  0  0
  190.7680  175.7470  138.1550 C   0  0  0  0  0  2  0  0  0  0  0  0
  188.5190  173.9060  135.8700 C   0  0  0  0  0  2  0  0  0  0  0  0
  186.1300  173.3530  136.2030 C   0  0  0  0  0  1  0  0  0  0  0  0
  187.4830  173.4420  136.8790 C   0  0  0  0  0  2  0  0  0  0  0  0
  1  4  1  0  0  0  0
  2  3  1  0  0  0  0
  2  4  2  0  0  0  0
  5  7  1  0  0  0  0
  6  9  1  0  0  0  0
  7  1  2  0  0  0  0
  8  5  1  0  0  0  0
  8  9  2  0  0  0  0
  9  2  1  0  0  0  0
 10 15  1  6  0  0  0
 10 13  1  0  0  0  0
 11  4  1  6  0  0  0
 11 12  1  0  0  0  0
 11 10  1  0  0  0  0
 12 10  1  0  0  0  0
 13 14  1  0  0  0  0
 15 16  1  0  0  0  0
 16 18  1  0  0  0  0
 17 23  1  0  0  0  0
 17 20  1  0  0  0  0
 18 22  1  0  0  0  0
 19 21  1  0  0  0  0
 19 18  2  0  0  0  0
 21 17  2  0  0  0  0
 22 20  2  0  0  0  0
 23 29  1  1  0  0  0
 24 25  1  0  0  0  0
 26 27  1  0  0  0  0
 27 24  1  0  0  0  0
 27 23  1  1  0  0  0
 28 26  1  0  0  0  0
 28 25  1  0  0  0  0
 29 31  1  0  0  0  0
 31 30  2  0  0  0  0
 32 31  1  0  0  0  0
 33 34  1  0  0  0  0
 33  6  1  0  0  0  0
 34 35  1  0  0  0  0
 35 36  1  0  0  0  0
 36 37  1  0  0  0  0
 37 39  1  0  0  0  0
 37 38  1  0  0  0  0
 39 38  1  0  0  0  0
 40 41  1  0  0  0  0
 40 37  1  0  0  0  0
 41 42  1  6  0  0  0
 43 47  1  0  0  0  0
 43 41  1  0  0  0  0
 44 49  1  1  0  0  0
 44 45  1  0  0  0  0
 44 47  1  0  0  0  0
 45 48  1  0  0  0  0
 47 46  1  0  0  0  0
 48 46  1  0  0  0  0
 49 51  1  0  0  0  0
 50 51  1  0  0  0  0
M  END
>  <MODEL>
4

>  <REMARK>
 VINA RESULT:      -7.4      2.468      8.931
  Name = 
  20 active torsions:
  status: ('A' for Active; 'I' for Inactive)
    1  A    between atoms: C_1  and  C_14
    2  A    between atoms: C_1  and  C_34
    3  A    between atoms: C_2  and  C_14
    4  A    between atoms: C_3  and  C_9
    5  A    between atoms: C_3  and  C_37
    6  A    between atoms: C_5  and  C_16
    7  A    between atoms: C_6  and  C_13
    8  A    between atoms: C_6  and  C_43
    9  A    between atoms: C_7  and  C_37
   10  A    between atoms: C_7  and  C_49
   11  A    between atoms: C_9  and  C_17
   12  A    between atoms: C_12  and  C_17
   13  A    between atoms: C_12  and  N_42
   14  A    between atoms: C_14  and  C_45
   15  A    between atoms: C_16  and  C_39
   16  A    between atoms: C_20  and  O_33
   17  A    between atoms: C_20  and  C_43
   18  A    between atoms: C_21  and  C_28
   19  A    between atoms: N_30  and  C_35
   20  A    between atoms: C_35  and  C_49
                            x       y       z     vdW  Elec       q    Type
                         _______ _______ _______ _____ _____    ______ ____

>  <TORSDO>
F 20

$$$$
=
 OpenBabel10222417113D

 51 56  0  0  1  0  0  0  0  0999 V2000
  186.9240  178.7610  146.7190 C   0  0  0  0  0  3  0  0  0  0  0  0
  186.9100  177.4340  144.5940 C   0  0  0  0  0  0  0  0  0  0  0  0
  187.5050  176.3580  143.7380 C   0  0  0  0  0  1  0  0  0  0  0  0
  187.4970  177.7680  145.7760 C   0  0  0  0  0  0  0  0  0  0  0  0
  184.5770  178.2650  146.1650 C   0  0  0  0  0  2  0  0  0  0  0  0
  185.6790  178.3180  142.5990 N   0  0  0  0  0  2  0  0  0  0  0  0
  185.6310  179.0160  146.8940 C   0  0  0  0  0  3  0  0  0  0  0  0
  184.7060  178.4970  144.7360 N   0  0  0  0  0  0  0  0  0  0  0  0
  185.7270  178.1330  144.0180 C   0  0  0  0  0  0  0  0  0  0  0  0
  190.0820  177.5960  145.7680 C   0  0  2  0  0  0  0  0  0  0  0  0
  188.7390  177.0380  146.2520 C   0  0  2  0  0  3  0  0  0  0  0  0
  189.4890  176.3900  145.0850 C   0  0  0  0  0  2  0  0  0  0  0  0
  191.1650  177.2870  146.6050 O   0  0  0  0  0  0  0  0  0  0  0  0
  192.0050  176.5810  145.8710 O   0  0  0  0  0  1  0  0  0  0  0  0
  190.1930  178.8230  144.8630 C   0  0  0  0  0  2  0  0  0  0  0  0
  191.4120  178.6970  143.9620 C   0  0  0  0  0  2  0  0  0  0  0  0
  190.3010  177.2100  140.0950 C   0  0  0  0  0  0  0  0  0  0  0  0
  191.0180  178.1770  142.6250 C   0  0  0  0  0  0  0  0  0  0  0  0
  191.9620  177.5150  141.8310 C   0  0  0  0  0  3  0  0  0  0  0  0
  189.3520  177.8660  140.8960 C   0  0  0  0  0  3  0  0  0  0  0  0
  191.6050  177.0340  140.5700 C   0  0  0  0  0  3  0  0  0  0  0  0
  189.7100  178.3480  142.1590 C   0  0  0  0  0  3  0  0  0  0  0  0
  189.9520  176.7050  138.7220 C   0  0  2  0  0  3  0  0  0  0  0  0
  191.8560  176.3500  137.1360 C   0  0  0  0  0  2  0  0  0  0  0  0
  191.4050  175.8960  135.8890 O   0  0  0  0  0  0  0  0  0  0  0  0
  190.3380  174.6110  137.4150 C   0  0  0  0  0  2  0  0  0  0  0  0
  190.9950  175.7100  138.1950 C   0  0  2  0  0  3  0  0  0  0  0  0
  190.9590  174.6270  136.1030 N   0  0  0  0  0  2  0  0  0  0  0  0
  189.7710  177.8680  137.7470 C   0  0  0  0  0  2  0  0  0  0  0  0
  187.6540  176.9700  137.1150 O   0  0  0  0  0  0  0  0  0  0  0  0
  188.3440  178.0000  137.3280 C   0  0  0  0  0  0  0  0  0  0  0  0
  187.7620  179.2880  137.1840 N   0  0  0  0  0  1  0  0  0  0  0  0
  184.5800  179.0020  141.9330 C   0  0  0  0  0  2  0  0  0  0  0  0
  184.7920  178.9760  140.4290 C   0  0  0  0  0  2  0  0  0  0  0  0
  183.6760  178.1820  139.7700 C   0  0  0  0  0  2  0  0  0  0  0  0
  183.1490  178.9040  138.5350 C   0  0  0  0  0  2  0  0  0  0  0  0
  181.8630  178.3150  137.9460 C   0  0  0  0  0  0  0  0  0  0  0  0
  181.4320  178.6170  136.5210 C   0  0  0  0  0  2  0  0  0  0  0  0
  180.8270  179.3880  137.6850 C   0  0  0  0  0  2  0  0  0  0  0  0
  181.2350  177.1180  138.6410 C   0  0  0  0  0  2  0  0  0  0  0  0
  181.1210  175.9420  137.6870 C   0  0  2  0  0  3  0  0  0  0  0  0
  179.7950  175.5210  137.6310 O   0  0  0  0  0  1  0  0  0  0  0  0
  181.9930  174.7930  138.1690 C   0  0  0  0  0  2  0  0  0  0  0  0
  184.0570  173.9640  137.4080 C   0  0  2  0  0  3  0  0  0  0  0  0
  184.4380  172.5440  137.0560 C   0  0  0  0  0  2  0  0  0  0  0  0
  182.0730  172.8460  136.8540 C   0  0  0  0  0  2  0  0  0  0  0  0
  182.6610  174.1710  137.0340 N   0  0  0  0  0  0  0  0  0  0  0  0
  183.1360  171.7980  137.1250 C   0  0  0  0  0  2  0  0  0  0  0  0
  184.9700  174.9830  136.7290 C   0  0  0  0  0  2  0  0  0  0  0  0
  184.6550  177.1140  135.5100 C   0  0  0  0  0  1  0  0  0  0  0  0
  184.3080  175.6390  135.5300 C   0  0  0  0  0  2  0  0  0  0  0  0
  1  7  2  0  0  0  0
  2  4  2  0  0  0  0
  3  2  1  0  0  0  0
  4  1  1  0  0  0  0
  5  7  1  0  0  0  0
  6  9  1  0  0  0  0
  8  5  1  0  0  0  0
  9  2  1  0  0  0  0
  9  8  2  0  0  0  0
 10 15  1  6  0  0  0
 10 11  1  0  0  0  0
 10 13  1  0  0  0  0
 11  4  1  6  0  0  0
 12 10  1  0  0  0  0
 12 11  1  0  0  0  0
 14 13  1  0  0  0  0
 16 15  1  0  0  0  0
 17 21  2  0  0  0  0
 17 20  1  0  0  0  0
 18 16  1  0  0  0  0
 19 18  2  0  0  0  0
 20 22  2  0  0  0  0
 21 19  1  0  0  0  0
 22 18  1  0  0  0  0
 23 29  1  6  0  0  0
 23 17  1  0  0  0  0
 24 27  1  0  0  0  0
 25 28  1  0  0  0  0
 25 24  1  0  0  0  0
 26 27  1  0  0  0  0
 27 23  1  6  0  0  0
 28 26  1  0  0  0  0
 30 31  2  0  0  0  0
 31 29  1  0  0  0  0
 32 31  1  0  0  0  0
 33  6  1  0  0  0  0
 34 33  1  0  0  0  0
 35 34  1  0  0  0  0
 36 35  1  0  0  0  0
 37 36  1  0  0  0  0
 37 40  1  0  0  0  0
 38 39  1  0  0  0  0
 38 37  1  0  0  0  0
 39 37  1  0  0  0  0
 41 42  1  1  0  0  0
 41 43  1  0  0  0  0
 41 40  1  0  0  0  0
 44 49  1  6  0  0  0
 45 48  1  0  0  0  0
 45 44  1  0  0  0  0
 46 47  1  0  0  0  0
 46 48  1  0  0  0  0
 47 44  1  0  0  0  0
 47 43  1  0  0  0  0
 50 51  1  0  0  0  0
 51 49  1  0  0  0  0
M  END
>  <MODEL>
5

>  <REMARK>
 VINA RESULT:      -7.3      2.559      4.376
  Name = 
  20 active torsions:
  status: ('A' for Active; 'I' for Inactive)
    1  A    between atoms: C_1  and  C_14
    2  A    between atoms: C_1  and  C_34
    3  A    between atoms: C_2  and  C_14
    4  A    between atoms: C_3  and  C_9
    5  A    between atoms: C_3  and  C_37
    6  A    between atoms: C_5  and  C_16
    7  A    between atoms: C_6  and  C_13
    8  A    between atoms: C_6  and  C_43
    9  A    between atoms: C_7  and  C_37
   10  A    between atoms: C_7  and  C_49
   11  A    between atoms: C_9  and  C_17
   12  A    between atoms: C_12  and  C_17
   13  A    between atoms: C_12  and  N_42
   14  A    between atoms: C_14  and  C_45
   15  A    between atoms: C_16  and  C_39
   16  A    between atoms: C_20  and  O_33
   17  A    between atoms: C_20  and  C_43
   18  A    between atoms: C_21  and  C_28
   19  A    between atoms: N_30  and  C_35
   20  A    between atoms: C_35  and  C_49
                            x       y       z     vdW  Elec       q    Type
                         _______ _______ _______ _____ _____    ______ ____

>  <TORSDO>
F 20

$$$$
=
 OpenBabel10222417113D

 51 56  0  0  1  0  0  0  0  0999 V2000
  189.3840  176.0010  138.5830 C   0  0  0  0  0  3  0  0  0  0  0  0
  191.6350  176.7750  139.3630 C   0  0  0  0  0  0  0  0  0  0  0  0
  193.1100  176.9020  139.1320 C   0  0  0  0  0  1  0  0  0  0  0  0
  190.8610  176.0990  138.4710 C   0  0  0  0  0  0  0  0  0  0  0  0
  189.0930  178.2140  139.6210 C   0  0  0  0  0  2  0  0  0  0  0  0
  191.9870  177.2900  141.7900 N   0  0  0  0  0  2  0  0  0  0  0  0
  188.5780  176.9170  139.1100 C   0  0  0  0  0  3  0  0  0  0  0  0
  189.9990  177.9810  140.7330 N   0  0  0  0  0  0  0  0  0  0  0  0
  191.1330  177.3510  140.6420 C   0  0  0  0  0  0  0  0  0  0  0  0
  190.9310  175.9990  135.8830 C   0  0  2  0  0  0  0  0  0  0  0  0
  191.4750  175.4910  137.2230 C   0  0  2  0  0  3  0  0  0  0  0  0
  190.4450  174.6800  136.4310 C   0  0  0  0  0  2  0  0  0  0  0  0
  191.8280  175.8600  134.8130 O   0  0  0  0  0  0  0  0  0  0  0  0
  193.0360  175.8450  135.3460 O   0  0  0  0  0  1  0  0  0  0  0  0
  189.8380  177.0620  135.7790 C   0  0  0  0  0  2  0  0  0  0  0  0
  188.7580  176.6080  134.8120 C   0  0  0  0  0  2  0  0  0  0  0  0
  184.8890  176.7800  136.6560 C   0  0  0  0  0  0  0  0  0  0  0  0
  187.4190  176.6740  135.4580 C   0  0  0  0  0  0  0  0  0  0  0  0
  186.7520  175.4920  135.7970 C   0  0  0  0  0  3  0  0  0  0  0  0
  185.5640  177.9660  136.3240 C   0  0  0  0  0  3  0  0  0  0  0  0
  185.4900  175.5450  136.3930 C   0  0  0  0  0  3  0  0  0  0  0  0
  186.8270  177.9130  135.7270 C   0  0  0  0  0  3  0  0  0  0  0  0
  183.5180  176.8060  137.2740 C   0  0  2  0  0  3  0  0  0  0  0  0
  182.1950  174.7070  137.6090 C   0  0  0  0  0  2  0  0  0  0  0  0
  181.0180  174.9540  138.3290 O   0  0  0  0  0  0  0  0  0  0  0  0
  182.6560  176.0080  139.4800 C   0  0  0  0  0  2  0  0  0  0  0  0
  183.2750  175.5900  138.1790 C   0  0  2  0  0  3  0  0  0  0  0  0
  181.4210  175.2530  139.5950 N   0  0  0  0  0  2  0  0  0  0  0  0
  182.4400  176.9030  136.1960 C   0  0  0  0  0  2  0  0  0  0  0  0
  180.4140  178.1150  135.8500 O   0  0  0  0  0  0  0  0  0  0  0  0
  181.5040  178.0330  136.4750 C   0  0  0  0  0  0  0  0  0  0  0  0
  181.8370  179.0070  137.4530 N   0  0  0  0  0  1  0  0  0  0  0  0
  191.5910  177.8060  143.0920 C   0  0  0  0  0  2  0  0  0  0  0  0
  191.2510  176.6550  144.0210 C   0  0  0  0  0  2  0  0  0  0  0  0
  191.0850  177.1770  145.4400 C   0  0  0  0  0  2  0  0  0  0  0  0
  189.8460  176.5820  146.0990 C   0  0  0  0  0  2  0  0  0  0  0  0
  188.9380  177.5990  146.7970 C   0  0  0  0  0  0  0  0  0  0  0  0
  189.3460  178.2620  148.1030 C   0  0  0  0  0  2  0  0  0  0  0  0
  188.4100  177.0630  148.1110 C   0  0  0  0  0  2  0  0  0  0  0  0
  187.8230  178.2430  145.9910 C   0  0  0  0  0  2  0  0  0  0  0  0
  187.6030  177.4980  144.6860 C   0  0  2  0  0  3  0  0  0  0  0  0
  188.1630  178.2250  143.6400 O   0  0  0  0  0  1  0  0  0  0  0  0
  186.1140  177.3180  144.4340 C   0  0  0  0  0  2  0  0  0  0  0  0
  184.7530  178.5640  142.9790 C   0  0  2  0  0  3  0  0  0  0  0  0
  183.3630  179.1110  143.2120 C   0  0  0  0  0  2  0  0  0  0  0  0
  184.4930  178.7860  145.2970 C   0  0  0  0  0  2  0  0  0  0  0  0
  185.4860  178.6180  144.2400 N   0  0  0  0  0  0  0  0  0  0  0  0
  183.1140  178.8370  144.6690 C   0  0  0  0  0  2  0  0  0  0  0  0
  185.4860  179.3270  141.8770 C   0  0  0  0  0  2  0  0  0  0  0  0
  184.3210  179.3560  139.6930 C   0  0  0  0  0  1  0  0  0  0  0  0
  185.3670  178.6430  140.5260 C   0  0  0  0  0  2  0  0  0  0  0  0
  1  7  2  0  0  0  0
  2  9  1  0  0  0  0
  3  2  1  0  0  0  0
  4  1  1  0  0  0  0
  4  2  2  0  0  0  0
  5  8  1  0  0  0  0
  6 33  1  0  0  0  0
  7  5  1  0  0  0  0
  9  8  2  0  0  0  0
  9  6  1  0  0  0  0
 10 15  1  1  0  0  0
 10 12  1  0  0  0  0
 10 11  1  0  0  0  0
 11  4  1  1  0  0  0
 12 11  1  0  0  0  0
 13 14  1  0  0  0  0
 13 10  1  0  0  0  0
 16 18  1  0  0  0  0
 16 15  1  0  0  0  0
 17 23  1  0  0  0  0
 18 22  2  0  0  0  0
 18 19  1  0  0  0  0
 19 21  2  0  0  0  0
 20 17  2  0  0  0  0
 21 17  1  0  0  0  0
 22 20  1  0  0  0  0
 23 29  1  6  0  0  0
 24 27  1  0  0  0  0
 24 25  1  0  0  0  0
 25 28  1  0  0  0  0
 26 28  1  0  0  0  0
 27 23  1  6  0  0  0
 27 26  1  0  0  0  0
 29 31  1  0  0  0  0
 30 31  2  0  0  0  0
 31 32  1  0  0  0  0
 33 34  1  0  0  0  0
 34 35  1  0  0  0  0
 35 36  1  0  0  0  0
 36 37  1  0  0  0  0
 37 38  1  0  0  0  0
 37 39  1  0  0  0  0
 38 39  1  0  0  0  0
 40 37  1  0  0  0  0
 41 42  1  6  0  0  0
 41 40  1  0  0  0  0
 43 41  1  0  0  0  0
 44 49  1  6  0  0  0
 44 45  1  0  0  0  0
 44 47  1  0  0  0  0
 45 48  1  0  0  0  0
 47 43  1  0  0  0  0
 47 46  1  0  0  0  0
 48 46  1  0  0  0  0
 50 51  1  0  0  0  0
 51 49  1  0  0  0  0
M  END
>  <MODEL>
6

>  <REMARK>
 VINA RESULT:      -7.3      3.105      8.504
  Name = 
  20 active torsions:
  status: ('A' for Active; 'I' for Inactive)
    1  A    between atoms: C_1  and  C_14
    2  A    between atoms: C_1  and  C_34
    3  A    between atoms: C_2  and  C_14
    4  A    between atoms: C_3  and  C_9
    5  A    between atoms: C_3  and  C_37
    6  A    between atoms: C_5  and  C_16
    7  A    between atoms: C_6  and  C_13
    8  A    between atoms: C_6  and  C_43
    9  A    between atoms: C_7  and  C_37
   10  A    between atoms: C_7  and  C_49
   11  A    between atoms: C_9  and  C_17
   12  A    between atoms: C_12  and  C_17
   13  A    between atoms: C_12  and  N_42
   14  A    between atoms: C_14  and  C_45
   15  A    between atoms: C_16  and  C_39
   16  A    between atoms: C_20  and  O_33
   17  A    between atoms: C_20  and  C_43
   18  A    between atoms: C_21  and  C_28
   19  A    between atoms: N_30  and  C_35
   20  A    between atoms: C_35  and  C_49
                            x       y       z     vdW  Elec       q    Type
                         _______ _______ _______ _____ _____    ______ ____

>  <TORSDO>
F 20

$$$$
=
 OpenBabel10222417113D

 51 56  0  0  1  0  0  0  0  0999 V2000
  189.3070  174.8330  137.2590 C   0  0  0  0  0  3  0  0  0  0  0  0
  186.9520  175.3130  136.5520 C   0  0  0  0  0  0  0  0  0  0  0  0
  185.9220  176.2860  136.0630 C   0  0  0  0  0  1  0  0  0  0  0  0
  188.2080  175.7430  136.8510 C   0  0  0  0  0  0  0  0  0  0  0  0
  188.5320  172.9290  135.9020 C   0  0  0  0  0  2  0  0  0  0  0  0
  185.1240  173.7270  137.2000 N   0  0  0  0  0  2  0  0  0  0  0  0
  189.4610  173.5710  136.8690 C   0  0  0  0  0  3  0  0  0  0  0  0
  187.1940  172.8760  136.4660 N   0  0  0  0  0  0  0  0  0  0  0  0
  186.4720  173.9180  136.7570 C   0  0  0  0  0  0  0  0  0  0  0  0
  188.5530  178.0760  137.9250 C   0  0  2  0  0  0  0  0  0  0  0  0
  188.5880  177.2010  136.6680 C   0  0  2  0  0  3  0  0  0  0  0  0
  187.4020  178.1280  136.9520 C   0  0  0  0  0  2  0  0  0  0  0  0
  189.3870  179.2020  137.8620 O   0  0  0  0  0  0  0  0  0  0  0  0
  188.7010  180.1310  137.2230 O   0  0  0  0  0  1  0  0  0  0  0  0
  188.1690  177.5350  139.3030 C   0  0  0  0  0  2  0  0  0  0  0  0
  189.4000  177.4450  140.1900 C   0  0  0  0  0  2  0  0  0  0  0  0
  188.2740  177.7960  144.3140 C   0  0  0  0  0  0  0  0  0  0  0  0
  189.0170  177.5620  141.6230 C   0  0  0  0  0  0  0  0  0  0  0  0
  187.7000  177.2990  142.0140 C   0  0  0  0  0  3  0  0  0  0  0  0
  189.5990  178.0490  143.9220 C   0  0  0  0  0  3  0  0  0  0  0  0
  187.3290  177.4180  143.3560 C   0  0  0  0  0  3  0  0  0  0  0  0
  189.9700  177.9310  142.5790 C   0  0  0  0  0  3  0  0  0  0  0  0
  187.8400  177.9410  145.7470 C   0  0  2  0  0  3  0  0  0  0  0  0
  188.1080  176.9050  148.0100 C   0  0  0  0  0  2  0  0  0  0  0  0
  188.5200  177.8500  148.9600 O   0  0  0  0  0  0  0  0  0  0  0  0
  189.8770  178.1630  147.1770 C   0  0  0  0  0  2  0  0  0  0  0  0
  188.7990  177.2290  146.7100 C   0  0  2  0  0  3  0  0  0  0  0  0
  189.8020  178.1670  148.6260 N   0  0  0  0  0  2  0  0  0  0  0  0
  186.4100  177.4350  145.9330 C   0  0  0  0  0  2  0  0  0  0  0  0
  185.4350  178.9970  147.4500 O   0  0  0  0  0  0  0  0  0  0  0  0
  185.4840  178.5560  146.2720 C   0  0  0  0  0  0  0  0  0  0  0  0
  184.6690  179.1350  145.2630 N   0  0  0  0  0  1  0  0  0  0  0  0
  184.5570  172.4100  137.4470 C   0  0  0  0  0  2  0  0  0  0  0  0
  183.6080  172.0370  136.3230 C   0  0  0  0  0  2  0  0  0  0  0  0
  182.1720  172.1320  136.8140 C   0  0  0  0  0  2  0  0  0  0  0  0
  181.5180  173.4250  136.3400 C   0  0  0  0  0  2  0  0  0  0  0  0
  180.4090  173.9560  137.2520 C   0  0  0  0  0  0  0  0  0  0  0  0
  179.0950  173.2110  137.4230 C   0  0  0  0  0  2  0  0  0  0  0  0
  179.1920  174.3850  136.4590 C   0  0  0  0  0  2  0  0  0  0  0  0
  180.7710  175.0050  138.2920 C   0  0  0  0  0  2  0  0  0  0  0  0
  182.1500  175.5780  138.0180 C   0  0  2  0  0  3  0  0  0  0  0  0
  182.9200  175.4990  139.1740 O   0  0  0  0  0  1  0  0  0  0  0  0
  182.0330  177.0340  137.5910 C   0  0  0  0  0  2  0  0  0  0  0  0
  183.3380  178.7900  138.4500 C   0  0  2  0  0  3  0  0  0  0  0  0
  182.9250  180.2050  138.7830 C   0  0  0  0  0  2  0  0  0  0  0  0
  181.0290  178.7460  138.8520 C   0  0  0  0  0  2  0  0  0  0  0  0
  182.2170  177.9020  138.7460 N   0  0  0  0  0  0  0  0  0  0  0  0
  181.4320  180.1890  138.6150 C   0  0  0  0  0  2  0  0  0  0  0  0
  184.5940  178.3700  139.2120 C   0  0  0  0  0  2  0  0  0  0  0  0
  184.1730  178.3490  141.6510 C   0  0  0  0  0  1  0  0  0  0  0  0
  184.7670  179.1450  140.5070 C   0  0  0  0  0  2  0  0  0  0  0  0
  2  9  1  0  0  0  0
  2  4  2  0  0  0  0
  3  2  1  0  0  0  0
  4  1  1  0  0  0  0
  5  8  1  0  0  0  0
  5  7  1  0  0  0  0
  6 33  1  0  0  0  0
  7  1  2  0  0  0  0
  8  9  2  0  0  0  0
  9  6  1  0  0  0  0
 10 15  1  1  0  0  0
 11  4  1  1  0  0  0
 11 12  1  0  0  0  0
 11 10  1  0  0  0  0
 12 10  1  0  0  0  0
 13 10  1  0  0  0  0
 14 13  1  0  0  0  0
 15 16  1  0  0  0  0
 16 18  1  0  0  0  0
 17 23  1  0  0  0  0
 18 19  2  0  0  0  0
 18 22  1  0  0  0  0
 19 21  1  0  0  0  0
 20 17  1  0  0  0  0
 21 17  2  0  0  0  0
 22 20  2  0  0  0  0
 23 29  1  6  0  0  0
 24 25  1  0  0  0  0
 26 28  1  0  0  0  0
 27 23  1  6  0  0  0
 27 26  1  0  0  0  0
 27 24  1  0  0  0  0
 28 25  1  0  0  0  0
 29 31  1  0  0  0  0
 31 30  2  0  0  0  0
 32 31  1  0  0  0  0
 34 35  1  0  0  0  0
 34 33  1  0  0  0  0
 36 35  1  0  0  0  0
 36 37  1  0  0  0  0
 37 38  1  0  0  0  0
 37 40  1  0  0  0  0
 39 37  1  0  0  0  0
 39 38  1  0  0  0  0
 41 40  1  0  0  0  0
 41 42  1  1  0  0  0
 43 41  1  0  0  0  0
 43 47  1  0  0  0  0
 44 47  1  0  0  0  0
 44 45  1  0  0  0  0
 44 49  1  1  0  0  0
 47 46  1  0  0  0  0
 48 45  1  0  0  0  0
 48 46  1  0  0  0  0
 49 51  1  0  0  0  0
 51 50  1  0  0  0  0
M  END
>  <MODEL>
7

>  <REMARK>
 VINA RESULT:      -7.3      3.173      7.928
  Name = 
  20 active torsions:
  status: ('A' for Active; 'I' for Inactive)
    1  A    between atoms: C_1  and  C_14
    2  A    between atoms: C_1  and  C_34
    3  A    between atoms: C_2  and  C_14
    4  A    between atoms: C_3  and  C_9
    5  A    between atoms: C_3  and  C_37
    6  A    between atoms: C_5  and  C_16
    7  A    between atoms: C_6  and  C_13
    8  A    between atoms: C_6  and  C_43
    9  A    between atoms: C_7  and  C_37
   10  A    between atoms: C_7  and  C_49
   11  A    between atoms: C_9  and  C_17
   12  A    between atoms: C_12  and  C_17
   13  A    between atoms: C_12  and  N_42
   14  A    between atoms: C_14  and  C_45
   15  A    between atoms: C_16  and  C_39
   16  A    between atoms: C_20  and  O_33
   17  A    between atoms: C_20  and  C_43
   18  A    between atoms: C_21  and  C_28
   19  A    between atoms: N_30  and  C_35
   20  A    between atoms: C_35  and  C_49
                            x       y       z     vdW  Elec       q    Type
                         _______ _______ _______ _____ _____    ______ ____

>  <TORSDO>
F 20

$$$$
=
 OpenBabel10222417113D

 51 56  0  0  1  0  0  0  0  0999 V2000
  182.8520  178.6140  140.7060 C   0  0  0  0  0  3  0  0  0  0  0  0
  181.2760  177.1650  139.4030 C   0  0  0  0  0  0  0  0  0  0  0  0
  179.8880  176.6510  139.1680 C   0  0  0  0  0  1  0  0  0  0  0  0
  181.5270  177.9940  140.4540 C   0  0  0  0  0  0  0  0  0  0  0  0
  183.4720  178.7850  138.3280 C   0  0  0  0  0  2  0  0  0  0  0  0
  182.1880  175.2940  138.0100 N   0  0  0  0  0  2  0  0  0  0  0  0
  183.7440  178.9540  139.7790 C   0  0  0  0  0  3  0  0  0  0  0  0
  183.2890  177.3770  138.0210 N   0  0  0  0  0  0  0  0  0  0  0  0
  182.3210  176.6400  138.4810 C   0  0  0  0  0  0  0  0  0  0  0  0
  180.8260  179.0940  142.6920 C   0  0  2  0  0  0  0  0  0  0  0  0
  180.4040  178.4280  141.3790 C   0  0  2  0  0  3  0  0  0  0  0  0
  180.4260  177.6400  142.6920 C   0  0  0  0  0  2  0  0  0  0  0  0
  179.8520  179.9400  143.2430 O   0  0  0  0  0  0  0  0  0  0  0  0
  179.3990  179.3250  144.3200 O   0  0  0  0  0  1  0  0  0  0  0  0
  182.2880  179.3290  143.0720 C   0  0  0  0  0  2  0  0  0  0  0  0
  182.5520  178.8110  144.4770 C   0  0  0  0  0  2  0  0  0  0  0  0
  186.7490  178.1610  145.0780 C   0  0  0  0  0  0  0  0  0  0  0  0
  184.0080  178.5770  144.6790 C   0  0  0  0  0  0  0  0  0  0  0  0
  184.5490  178.6440  145.9680 C   0  0  0  0  0  3  0  0  0  0  0  0
  186.2030  178.0850  143.7850 C   0  0  0  0  0  3  0  0  0  0  0  0
  185.9160  178.4380  146.1660 C   0  0  0  0  0  3  0  0  0  0  0  0
  184.8350  178.2920  143.5880 C   0  0  0  0  0  3  0  0  0  0  0  0
  188.2220  177.9700  145.3180 C   0  0  2  0  0  3  0  0  0  0  0  0
  189.5430  176.4280  143.8530 C   0  0  0  0  0  2  0  0  0  0  0  0
  190.9070  176.4620  144.1750 O   0  0  0  0  0  0  0  0  0  0  0  0
  190.2700  178.6280  144.0470 C   0  0  0  0  0  2  0  0  0  0  0  0
  189.0020  177.8270  144.0040 C   0  0  2  0  0  3  0  0  0  0  0  0
  191.3440  177.6900  143.7810 N   0  0  0  0  0  2  0  0  0  0  0  0
  188.4700  176.7680  146.2290 C   0  0  0  0  0  2  0  0  0  0  0  0
  188.5880  177.5490  148.4800 O   0  0  0  0  0  0  0  0  0  0  0  0
  189.2170  177.1720  147.4570 C   0  0  0  0  0  0  0  0  0  0  0  0
  190.6360  177.1190  147.4760 N   0  0  0  0  0  1  0  0  0  0  0  0
  183.1590  174.6750  137.1200 C   0  0  0  0  0  2  0  0  0  0  0  0
  183.1330  173.1670  137.2970 C   0  0  0  0  0  2  0  0  0  0  0  0
  184.5560  172.6360  137.3540 C   0  0  0  0  0  2  0  0  0  0  0  0
  185.1700  172.5690  135.9600 C   0  0  0  0  0  2  0  0  0  0  0  0
  186.6550  172.9380  135.8920 C   0  0  0  0  0  0  0  0  0  0  0  0
  187.7410  171.8780  135.9720 C   0  0  0  0  0  2  0  0  0  0  0  0
  187.3540  172.6750  137.2090 C   0  0  0  0  0  2  0  0  0  0  0  0
  187.0330  174.3050  135.3450 C   0  0  0  0  0  2  0  0  0  0  0  0
  187.0020  175.3520  136.4440 C   0  0  2  0  0  3  0  0  0  0  0  0
  185.9680  176.2490  136.1960 O   0  0  0  0  0  1  0  0  0  0  0  0
  188.3240  176.1050  136.4820 C   0  0  0  0  0  2  0  0  0  0  0  0
  190.3820  176.0800  137.6180 C   0  0  2  0  0  3  0  0  0  0  0  0
  190.9070  177.0480  138.6530 C   0  0  0  0  0  2  0  0  0  0  0  0
  188.5140  177.0940  138.6070 C   0  0  0  0  0  2  0  0  0  0  0  0
  188.9370  175.9560  137.7950 N   0  0  0  0  0  0  0  0  0  0  0  0
  189.7300  177.9380  138.9370 C   0  0  0  0  0  2  0  0  0  0  0  0
  191.0710  174.7200  137.7100 C   0  0  0  0  0  2  0  0  0  0  0  0
  191.9930  174.3200  135.4480 C   0  0  0  0  0  1  0  0  0  0  0  0
  190.9180  173.9100  136.4340 C   0  0  0  0  0  2  0  0  0  0  0  0
  2  4  2  0  0  0  0
  3  2  1  0  0  0  0
  4  1  1  0  0  0  0
  5  7  1  0  0  0  0
  6  9  1  0  0  0  0
  7  1  2  0  0  0  0
  8  5  1  0  0  0  0
  8  9  2  0  0  0  0
  9  2  1  0  0  0  0
 10 12  1  0  0  0  0
 10 15  1  1  0  0  0
 10 13  1  0  0  0  0
 11  4  1  6  0  0  0
 11 10  1  0  0  0  0
 11 12  1  0  0  0  0
 13 14  1  0  0  0  0
 15 16  1  0  0  0  0
 16 18  1  0  0  0  0
 17 23  1  0  0  0  0
 17 21  1  0  0  0  0
 18 19  1  0  0  0  0
 19 21  2  0  0  0  0
 20 17  2  0  0  0  0
 22 20  1  0  0  0  0
 22 18  2  0  0  0  0
 23 29  1  1  0  0  0
 24 27  1  0  0  0  0
 24 25  1  0  0  0  0
 27 26  1  0  0  0  0
 27 23  1  1  0  0  0
 28 26  1  0  0  0  0
 28 25  1  0  0  0  0
 29 31  1  0  0  0  0
 31 32  1  0  0  0  0
 31 30  2  0  0  0  0
 33 34  1  0  0  0  0
 33  6  1  0  0  0  0
 34 35  1  0  0  0  0
 36 35  1  0  0  0  0
 37 36  1  0  0  0  0
 37 38  1  0  0  0  0
 37 39  1  0  0  0  0
 38 39  1  0  0  0  0
 40 37  1  0  0  0  0
 40 41  1  0  0  0  0
 41 42  1  6  0  0  0
 41 43  1  0  0  0  0
 43 47  1  0  0  0  0
 44 49  1  1  0  0  0
 44 47  1  0  0  0  0
 44 45  1  0  0  0  0
 45 48  1  0  0  0  0
 46 48  1  0  0  0  0
 47 46  1  0  0  0  0
 50 51  1  0  0  0  0
 51 49  1  0  0  0  0
M  END
>  <MODEL>
8

>  <REMARK>
 VINA RESULT:      -7.3      3.085      9.231
  Name = 
  20 active torsions:
  status: ('A' for Active; 'I' for Inactive)
    1  A    between atoms: C_1  and  C_14
    2  A    between atoms: C_1  and  C_34
    3  A    between atoms: C_2  and  C_14
    4  A    between atoms: C_3  and  C_9
    5  A    between atoms: C_3  and  C_37
    6  A    between atoms: C_5  and  C_16
    7  A    between atoms: C_6  and  C_13
    8  A    between atoms: C_6  and  C_43
    9  A    between atoms: C_7  and  C_37
   10  A    between atoms: C_7  and  C_49
   11  A    between atoms: C_9  and  C_17
   12  A    between atoms: C_12  and  C_17
   13  A    between atoms: C_12  and  N_42
   14  A    between atoms: C_14  and  C_45
   15  A    between atoms: C_16  and  C_39
   16  A    between atoms: C_20  and  O_33
   17  A    between atoms: C_20  and  C_43
   18  A    between atoms: C_21  and  C_28
   19  A    between atoms: N_30  and  C_35
   20  A    between atoms: C_35  and  C_49
                            x       y       z     vdW  Elec       q    Type
                         _______ _______ _______ _____ _____    ______ ____

>  <TORSDO>
F 20

$$$$
=
 OpenBabel10222417113D

 51 56  0  0  1  0  0  0  0  0999 V2000
  188.2200  177.9200  136.4580 C   0  0  0  0  0  3  0  0  0  0  0  0
  187.1460  175.7180  136.9840 C   0  0  0  0  0  0  0  0  0  0  0  0
  187.2310  174.3520  137.5940 C   0  0  0  0  0  1  0  0  0  0  0  0
  188.2420  176.5250  136.9640 C   0  0  0  0  0  0  0  0  0  0  0  0
  185.8980  178.3670  137.1460 C   0  0  0  0  0  2  0  0  0  0  0  0
  185.1030  175.0100  135.7190 N   0  0  0  0  0  2  0  0  0  0  0  0
  187.1830  178.7510  136.5070 C   0  0  0  0  0  3  0  0  0  0  0  0
  185.3100  177.2450  136.4340 N   0  0  0  0  0  0  0  0  0  0  0  0
  185.8410  176.0610  136.3530 C   0  0  0  0  0  0  0  0  0  0  0  0
  190.0240  176.8270  138.8210 C   0  0  2  0  0  0  0  0  0  0  0  0
  189.5500  176.0630  137.5800 C   0  0  2  0  0  3  0  0  0  0  0  0
  190.6300  177.1440  137.4770 C   0  0  0  0  0  2  0  0  0  0  0  0
  190.8760  176.0890  139.6560 O   0  0  0  0  0  0  0  0  0  0  0  0
  192.0300  176.7310  139.6620 O   0  0  0  0  0  1  0  0  0  0  0  0
  189.2390  177.9880  139.4310 C   0  0  0  0  0  2  0  0  0  0  0  0
  188.1620  177.4570  140.3640 C   0  0  0  0  0  2  0  0  0  0  0  0
  189.4130  177.7520  144.4560 C   0  0  0  0  0  0  0  0  0  0  0  0
  188.6050  177.5570  141.7800 C   0  0  0  0  0  0  0  0  0  0  0  0
  187.8940  176.8850  142.7800 C   0  0  0  0  0  3  0  0  0  0  0  0
  190.1320  178.4190  143.4500 C   0  0  0  0  0  3  0  0  0  0  0  0
  188.2960  176.9830  144.1150 C   0  0  0  0  0  3  0  0  0  0  0  0
  189.7290  178.3210  142.1150 C   0  0  0  0  0  3  0  0  0  0  0  0
  189.8070  177.8610  145.9040 C   0  0  2  0  0  3  0  0  0  0  0  0
  191.6800  176.3320  145.2580 C   0  0  0  0  0  2  0  0  0  0  0  0
  191.7100  175.1880  146.0690 O   0  0  0  0  0  0  0  0  0  0  0  0
  191.4910  176.9290  147.4970 C   0  0  0  0  0  2  0  0  0  0  0  0
  191.2810  177.4980  146.1250 C   0  0  2  0  0  3  0  0  0  0  0  0
  192.0960  175.6250  147.2990 N   0  0  0  0  0  2  0  0  0  0  0  0
  188.8990  176.9960  146.7780 C   0  0  0  0  0  2  0  0  0  0  0  0
  188.4570  178.3270  148.7090 O   0  0  0  0  0  0  0  0  0  0  0  0
  188.0150  177.8430  147.6340 C   0  0  0  0  0  0  0  0  0  0  0  0
  186.6800  178.1130  147.2300 N   0  0  0  0  0  1  0  0  0  0  0  0
  183.8260  175.2360  135.0580 C   0  0  0  0  0  2  0  0  0  0  0  0
  182.8790  174.0880  135.3590 C   0  0  0  0  0  2  0  0  0  0  0  0
  181.4490  174.6030  135.4000 C   0  0  0  0  0  2  0  0  0  0  0  0
  181.3080  175.7400  136.4050 C   0  0  0  0  0  2  0  0  0  0  0  0
  180.5270  175.3830  137.6740 C   0  0  0  0  0  0  0  0  0  0  0  0
  180.4880  173.9610  138.2080 C   0  0  0  0  0  2  0  0  0  0  0  0
  179.3390  174.4950  137.3650 C   0  0  0  0  0  2  0  0  0  0  0  0
  180.1280  176.5080  138.6150 C   0  0  0  0  0  2  0  0  0  0  0  0
  180.8900  176.4080  139.9250 C   0  0  2  0  0  3  0  0  0  0  0  0
  180.3180  177.2680  140.8570 O   0  0  0  0  0  1  0  0  0  0  0  0
  182.3460  176.7930  139.7110 C   0  0  0  0  0  2  0  0  0  0  0  0
  184.0240  178.0800  140.7360 C   0  0  2  0  0  3  0  0  0  0  0  0
  184.6370  179.3820  140.2750 C   0  0  0  0  0  2  0  0  0  0  0  0
  182.4520  179.1120  139.3380 C   0  0  0  0  0  2  0  0  0  0  0  0
  182.6160  178.0740  140.3520 N   0  0  0  0  0  0  0  0  0  0  0  0
  183.7950  179.7740  139.0940 C   0  0  0  0  0  2  0  0  0  0  0  0
  184.1900  177.8750  142.2410 C   0  0  0  0  0  2  0  0  0  0  0  0
  184.8040  178.8750  144.4200 C   0  0  0  0  0  1  0  0  0  0  0  0
  184.4970  179.1730  142.9670 C   0  0  0  0  0  2  0  0  0  0  0  0
  1  7  2  0  0  0  0
  1  4  1  0  0  0  0
  2  3  1  0  0  0  0
  4  2  2  0  0  0  0
  6  9  1  0  0  0  0
  7  5  1  0  0  0  0
  8  5  1  0  0  0  0
  9  8  2  0  0  0  0
  9  2  1  0  0  0  0
 10 15  1  1  0  0  0
 10 13  1  0  0  0  0
 11  4  1  6  0  0  0
 11 10  1  0  0  0  0
 12 11  1  0  0  0  0
 12 10  1  0  0  0  0
 13 14  1  0  0  0  0
 15 16  1  0  0  0  0
 16 18  1  0  0  0  0
 17 23  1  0  0  0  0
 18 22  2  0  0  0  0
 18 19  1  0  0  0  0
 19 21  2  0  0  0  0
 20 17  2  0  0  0  0
 21 17  1  0  0  0  0
 22 20  1  0  0  0  0
 23 29  1  1  0  0  0
 24 25  1  0  0  0  0
 24 27  1  0  0  0  0
 25 28  1  0  0  0  0
 27 23  1  1  0  0  0
 27 26  1  0  0  0  0
 28 26  1  0  0  0  0
 29 31  1  0  0  0  0
 31 30  2  0  0  0  0
 32 31  1  0  0  0  0
 33 34  1  0  0  0  0
 33  6  1  0  0  0  0
 34 35  1  0  0  0  0
 35 36  1  0  0  0  0
 36 37  1  0  0  0  0
 37 38  1  0  0  0  0
 37 40  1  0  0  0  0
 39 37  1  0  0  0  0
 39 38  1  0  0  0  0
 40 41  1  0  0  0  0
 41 42  1  1  0  0  0
 43 41  1  0  0  0  0
 43 47  1  0  0  0  0
 44 49  1  1  0  0  0
 45 44  1  0  0  0  0
 46 47  1  0  0  0  0
 47 44  1  0  0  0  0
 48 46  1  0  0  0  0
 48 45  1  0  0  0  0
 49 51  1  0  0  0  0
 51 50  1  0  0  0  0
M  END
>  <MODEL>
9

>  <REMARK>
 VINA RESULT:      -7.2      2.941      7.530
  Name = 
  20 active torsions:
  status: ('A' for Active; 'I' for Inactive)
    1  A    between atoms: C_1  and  C_14
    2  A    between atoms: C_1  and  C_34
    3  A    between atoms: C_2  and  C_14
    4  A    between atoms: C_3  and  C_9
    5  A    between atoms: C_3  and  C_37
    6  A    between atoms: C_5  and  C_16
    7  A    between atoms: C_6  and  C_13
    8  A    between atoms: C_6  and  C_43
    9  A    between atoms: C_7  and  C_37
   10  A    between atoms: C_7  and  C_49
   11  A    between atoms: C_9  and  C_17
   12  A    between atoms: C_12  and  C_17
   13  A    between atoms: C_12  and  N_42
   14  A    between atoms: C_14  and  C_45
   15  A    between atoms: C_16  and  C_39
   16  A    between atoms: C_20  and  O_33
   17  A    between atoms: C_20  and  C_43
   18  A    between atoms: C_21  and  C_28
   19  A    between atoms: N_30  and  C_35
   20  A    between atoms: C_35  and  C_49
                            x       y       z     vdW  Elec       q    Type
                         _______ _______ _______ _____ _____    ______ ____

>  <TORSDO>
F 20

$$$$
