=
 OpenBabel10222416543D

 28 29  0  0  1  0  0  0  0  0999 V2000
  191.6360  177.9520  144.3060 C   0  0  0  0  0  3  0  0  0  0  0  0
  188.8660  177.5340  144.1170 C   0  0  0  0  0  0  0  0  0  0  0  0
  189.5730  178.0680  143.0120 C   0  0  0  0  0  0  0  0  0  0  0  0
  190.9430  177.4180  145.3920 C   0  0  0  0  0  0  0  0  0  0  0  0
  190.9580  178.2700  143.1280 C   0  0  0  0  0  3  0  0  0  0  0  0
  189.5600  177.2100  145.2870 C   0  0  0  0  0  3  0  0  0  0  0  0
  191.6650  177.0960  146.5860 N   0  0  0  0  0  0  0  0  0  0  0  0
  192.7640  175.6350  148.1560 C   0  0  0  0  0  1  0  0  0  0  0  0
  192.0150  175.8890  146.8980 C   0  0  0  0  0  3  0  0  0  0  0  0
  187.4510  177.2890  144.0960 N   0  0  0  0  0  2  0  0  0  0  0  0
  186.0490  177.8160  146.0100 C   0  0  0  0  0  1  0  0  0  0  0  0
  186.4210  178.1930  144.5860 C   0  0  2  0  0  3  0  0  0  0  0  0
  185.2010  178.0930  143.6890 C   0  0  0  0  0  2  0  0  0  0  0  0
  185.5950  178.3150  142.2330 C   0  0  0  0  0  2  0  0  0  0  0  0
  183.2710  178.4020  141.6080 O   0  0  0  0  0  1  0  0  0  0  0  0
  184.5060  179.0340  141.4430 C   0  0  2  0  0  3  0  0  0  0  0  0
  184.3100  180.1620  139.2150 O   0  0  0  0  0  0  0  0  0  0  0  0
  185.6140  178.2950  139.4660 O   0  0  0  0  0  1  0  0  0  0  0  0
  184.8520  179.1460  139.9930 C   0  0  0  0  0  0  0  0  0  0  0  0
  188.8910  178.3540  141.8160 O   0  0  0  0  0  0  0  0  0  0  0  0
  188.8940  178.7010  139.4240 N   0  0  0  0  0  0  0  0  0  0  0  0
  190.0380  177.1950  137.9640 C   0  0  0  0  0  0  0  0  0  0  0  0
  190.4360  176.4430  139.0700 C   0  0  0  0  0  3  0  0  0  0  0  0
  190.0540  176.8360  140.3520 C   0  0  0  0  0  3  0  0  0  0  0  0
  190.4210  176.8030  136.6870 O   0  0  0  0  0  1  0  0  0  0  0  0
  189.2750  177.9840  140.5190 C   0  0  0  0  0  0  0  0  0  0  0  0
  188.8060  179.1680  137.0100 C   0  0  0  0  0  1  0  0  0  0  0  0
  189.2530  178.3400  138.1620 C   0  0  0  0  0  0  0  0  0  0  0  0
  1  4  1  0  0  0  0
  2  6  1  0  0  0  0
  3  5  1  0  0  0  0
  3  2  2  0  0  0  0
  4  7  1  0  0  0  0
  5  1  2  0  0  0  0
  6  4  2  0  0  0  0
  7  9  2  0  0  0  0
  9  8  1  0  0  0  0
 10  2  1  0  0  0  0
 10 12  1  0  0  0  0
 12 11  1  1  0  0  0
 13 12  1  0  0  0  0
 14 13  1  0  0  0  0
 16 15  1  6  0  0  0
 16 14  1  0  0  0  0
 17 19  2  0  0  0  0
 18 19  1  0  0  0  0
 19 16  1  0  0  0  0
 20  3  1  0  0  0  0
 21 26  2  0  0  0  0
 22 28  2  0  0  0  0
 22 23  1  0  0  0  0
 23 24  2  0  0  0  0
 24 26  1  0  0  0  0
 25 22  1  0  0  0  0
 26 20  1  0  0  0  0
 27 28  1  0  0  0  0
 28 21  1  0  0  0  0
M  END
>  <MODEL>
1

>  <REMARK>
 VINA RESULT:      -8.0      0.000      0.000
  Name = 
  9 active torsions:
  status: ('A' for Active; 'I' for Inactive)
    1  A    between atoms: C_6  and  N_10
    2  A    between atoms: C_8  and  C_12
    3  A    between atoms: C_8  and  C_27
    4  A    between atoms: N_9  and  C_23
    5  A    between atoms: N_10  and  C_21
    6  A    between atoms: C_12  and  C_14
    7  A    between atoms: C_14  and  C_21
    8  A    between atoms: C_15  and  O_17
    9  A    between atoms: C_16  and  O_17
                            x       y       z     vdW  Elec       q    Type
                         _______ _______ _______ _____ _____    ______ ____

>  <TORSDO>
F 9

$$$$
=
 OpenBabel10222416543D

 28 29  0  0  1  0  0  0  0  0999 V2000
  189.1720  177.0520  138.5950 C   0  0  0  0  0  3  0  0  0  0  0  0
  189.5340  177.6630  141.3120 C   0  0  0  0  0  0  0  0  0  0  0  0
  188.4350  178.2120  140.6090 C   0  0  0  0  0  0  0  0  0  0  0  0
  190.2510  176.5040  139.2880 C   0  0  0  0  0  0  0  0  0  0  0  0
  188.2730  177.8940  139.2500 C   0  0  0  0  0  3  0  0  0  0  0  0
  190.4220  176.8120  140.6450 C   0  0  0  0  0  3  0  0  0  0  0  0
  191.1560  175.6380  138.5920 N   0  0  0  0  0  0  0  0  0  0  0  0
  191.8020  174.0370  136.9110 C   0  0  0  0  0  1  0  0  0  0  0  0
  190.8040  174.9120  137.5810 C   0  0  0  0  0  3  0  0  0  0  0  0
  189.7840  177.9250  142.7010 N   0  0  0  0  0  2  0  0  0  0  0  0
  188.2000  176.2900  143.5500 C   0  0  0  0  0  1  0  0  0  0  0  0
  189.5090  177.0160  143.8040 C   0  0  2  0  0  3  0  0  0  0  0  0
  189.4180  177.8100  145.0940 C   0  0  0  0  0  2  0  0  0  0  0  0
  188.5070  177.1010  146.0890 C   0  0  0  0  0  2  0  0  0  0  0  0
  187.9040  177.6130  148.3640 O   0  0  0  0  0  1  0  0  0  0  0  0
  187.8290  178.0750  147.0480 C   0  0  2  0  0  3  0  0  0  0  0  0
  185.7040  179.3870  147.2400 O   0  0  0  0  0  1  0  0  0  0  0  0
  185.8400  177.5870  145.8290 O   0  0  0  0  0  0  0  0  0  0  0  0
  186.4100  178.3390  146.6610 C   0  0  0  0  0  0  0  0  0  0  0  0
  187.5120  179.0310  141.2810 O   0  0  0  0  0  0  0  0  0  0  0  0
  185.3600  179.2850  140.2110 N   0  0  0  0  0  0  0  0  0  0  0  0
  183.3460  178.6610  141.3340 C   0  0  0  0  0  0  0  0  0  0  0  0
  184.0990  178.2700  142.4430 C   0  0  0  0  0  3  0  0  0  0  0  0
  185.4870  178.3930  142.4180 C   0  0  0  0  0  3  0  0  0  0  0  0
  181.9620  178.5370  141.3600 O   0  0  0  0  0  1  0  0  0  0  0  0
  186.1150  178.9050  141.2790 C   0  0  0  0  0  0  0  0  0  0  0  0
  183.2370  179.6060  139.0070 C   0  0  0  0  0  1  0  0  0  0  0  0
  184.0030  179.1760  140.2090 C   0  0  0  0  0  0  0  0  0  0  0  0
  1  5  2  0  0  0  0
  1  4  1  0  0  0  0
  2 10  1  0  0  0  0
  3 20  1  0  0  0  0
  3  2  2  0  0  0  0
  4  6  2  0  0  0  0
  5  3  1  0  0  0  0
  6  2  1  0  0  0  0
  7  4  1  0  0  0  0
  8  9  1  0  0  0  0
  9  7  2  0  0  0  0
 10 12  1  0  0  0  0
 12 11  1  6  0  0  0
 12 13  1  0  0  0  0
 13 14  1  0  0  0  0
 14 16  1  0  0  0  0
 16 15  1  1  0  0  0
 18 19  2  0  0  0  0
 19 16  1  0  0  0  0
 19 17  1  0  0  0  0
 21 26  2  0  0  0  0
 22 25  1  0  0  0  0
 22 23  1  0  0  0  0
 24 23  2  0  0  0  0
 26 20  1  0  0  0  0
 26 24  1  0  0  0  0
 27 28  1  0  0  0  0
 28 21  1  0  0  0  0
 28 22  2  0  0  0  0
M  END
>  <MODEL>
2

>  <REMARK>
 VINA RESULT:      -7.9      2.613      6.267
  Name = 
  9 active torsions:
  status: ('A' for Active; 'I' for Inactive)
    1  A    between atoms: C_6  and  N_10
    2  A    between atoms: C_8  and  C_12
    3  A    between atoms: C_8  and  C_27
    4  A    between atoms: N_9  and  C_23
    5  A    between atoms: N_10  and  C_21
    6  A    between atoms: C_12  and  C_14
    7  A    between atoms: C_14  and  C_21
    8  A    between atoms: C_15  and  O_17
    9  A    between atoms: C_16  and  O_17
                            x       y       z     vdW  Elec       q    Type
                         _______ _______ _______ _____ _____    ______ ____

>  <TORSDO>
F 9

$$$$
=
 OpenBabel10222416543D

 28 29  0  0  1  0  0  0  0  0999 V2000
  189.1010  176.9890  138.4400 C   0  0  0  0  0  3  0  0  0  0  0  0
  189.3650  177.6420  141.1580 C   0  0  0  0  0  0  0  0  0  0  0  0
  188.3290  178.2290  140.3910 C   0  0  0  0  0  0  0  0  0  0  0  0
  190.1170  176.4040  139.1940 C   0  0  0  0  0  0  0  0  0  0  0  0
  188.2150  177.8890  139.0330 C   0  0  0  0  0  3  0  0  0  0  0  0
  190.2390  176.7340  140.5520 C   0  0  0  0  0  3  0  0  0  0  0  0
  191.0080  175.4790  138.5600 N   0  0  0  0  0  0  0  0  0  0  0  0
  191.7530  174.0030  136.8070 C   0  0  0  0  0  1  0  0  0  0  0  0
  190.7780  174.9560  137.3990 C   0  0  0  0  0  3  0  0  0  0  0  0
  189.5620  177.9230  142.5520 N   0  0  0  0  0  2  0  0  0  0  0  0
  188.1530  176.0560  143.2120 C   0  0  0  0  0  1  0  0  0  0  0  0
  189.2230  177.0380  143.6570 C   0  0  2  0  0  3  0  0  0  0  0  0
  188.7130  177.8670  144.8210 C   0  0  0  0  0  2  0  0  0  0  0  0
  189.8520  178.1870  145.7820 C   0  0  0  0  0  2  0  0  0  0  0  0
  189.6710  177.5580  148.1000 O   0  0  0  0  0  1  0  0  0  0  0  0
  190.0430  177.0990  146.8350 C   0  0  2  0  0  3  0  0  0  0  0  0
  191.9820  175.9610  145.7300 O   0  0  0  0  0  0  0  0  0  0  0  0
  192.1330  176.6790  147.9010 O   0  0  0  0  0  1  0  0  0  0  0  0
  191.4450  176.5810  146.8520 C   0  0  0  0  0  0  0  0  0  0  0  0
  187.4170  179.1070  141.0020 O   0  0  0  0  0  0  0  0  0  0  0  0
  185.1880  179.3110  140.0910 N   0  0  0  0  0  0  0  0  0  0  0  0
  183.2760  178.6320  141.3530 C   0  0  0  0  0  0  0  0  0  0  0  0
  184.1170  178.2550  142.4020 C   0  0  0  0  0  3  0  0  0  0  0  0
  185.4970  178.4130  142.2780 C   0  0  0  0  0  3  0  0  0  0  0  0
  181.9010  178.4730  141.4780 O   0  0  0  0  0  1  0  0  0  0  0  0
  186.0270  178.9460  141.1000 C   0  0  0  0  0  0  0  0  0  0  0  0
  182.9770  179.5850  139.0460 C   0  0  0  0  0  1  0  0  0  0  0  0
  183.8380  179.1680  140.1870 C   0  0  0  0  0  0  0  0  0  0  0  0
  1  5  2  0  0  0  0
  1  4  1  0  0  0  0
  2 10  1  0  0  0  0
  3 20  1  0  0  0  0
  3  2  2  0  0  0  0
  4  6  2  0  0  0  0
  5  3  1  0  0  0  0
  6  2  1  0  0  0  0
  7  4  1  0  0  0  0
  8  9  1  0  0  0  0
  9  7  2  0  0  0  0
 10 12  1  0  0  0  0
 12 11  1  6  0  0  0
 12 13  1  0  0  0  0
 13 14  1  0  0  0  0
 14 16  1  0  0  0  0
 16 19  1  0  0  0  0
 16 15  1  1  0  0  0
 17 19  2  0  0  0  0
 19 18  1  0  0  0  0
 20 26  1  0  0  0  0
 21 28  1  0  0  0  0
 21 26  2  0  0  0  0
 22 25  1  0  0  0  0
 22 23  1  0  0  0  0
 24 23  2  0  0  0  0
 26 24  1  0  0  0  0
 27 28  1  0  0  0  0
 28 22  2  0  0  0  0
M  END
>  <MODEL>
3

>  <REMARK>
 VINA RESULT:      -7.7      2.723      6.910
  Name = 
  9 active torsions:
  status: ('A' for Active; 'I' for Inactive)
    1  A    between atoms: C_6  and  N_10
    2  A    between atoms: C_8  and  C_12
    3  A    between atoms: C_8  and  C_27
    4  A    between atoms: N_9  and  C_23
    5  A    between atoms: N_10  and  C_21
    6  A    between atoms: C_12  and  C_14
    7  A    between atoms: C_14  and  C_21
    8  A    between atoms: C_15  and  O_17
    9  A    between atoms: C_16  and  O_17
                            x       y       z     vdW  Elec       q    Type
                         _______ _______ _______ _____ _____    ______ ____

>  <TORSDO>
F 9

$$$$
=
 OpenBabel10222416543D

 28 29  0  0  1  0  0  0  0  0999 V2000
  188.1550  177.1860  146.3090 C   0  0  0  0  0  3  0  0  0  0  0  0
  189.0690  177.6520  143.6950 C   0  0  0  0  0  0  0  0  0  0  0  0
  187.6880  177.7730  143.9890 C   0  0  0  0  0  0  0  0  0  0  0  0
  189.5150  177.0740  146.0230 C   0  0  0  0  0  0  0  0  0  0  0  0
  187.2530  177.5350  145.3030 C   0  0  0  0  0  3  0  0  0  0  0  0
  189.9630  177.3110  144.7150 C   0  0  0  0  0  3  0  0  0  0  0  0
  190.4190  176.7200  147.0760 N   0  0  0  0  0  0  0  0  0  0  0  0
  192.4800  175.8890  148.0090 C   0  0  0  0  0  1  0  0  0  0  0  0
  191.5990  176.2330  146.8620 C   0  0  0  0  0  3  0  0  0  0  0  0
  189.6120  177.8770  142.3850 N   0  0  0  0  0  2  0  0  0  0  0  0
  191.9090  177.5460  141.6630 C   0  0  0  0  0  1  0  0  0  0  0  0
  190.5000  176.9780  141.6630 C   0  0  2  0  0  3  0  0  0  0  0  0
  190.0040  176.8250  140.2370 C   0  0  0  0  0  2  0  0  0  0  0  0
  188.7020  177.5930  140.0450 C   0  0  0  0  0  2  0  0  0  0  0  0
  189.0170  179.3010  138.3760 O   0  0  0  0  0  1  0  0  0  0  0  0
  188.4950  178.0240  138.5960 C   0  0  2  0  0  3  0  0  0  0  0  0
  186.1050  178.7210  138.8790 O   0  0  0  0  0  1  0  0  0  0  0  0
  186.6950  177.2090  137.2620 O   0  0  0  0  0  0  0  0  0  0  0  0
  187.0550  177.9680  138.1990 C   0  0  0  0  0  0  0  0  0  0  0  0
  186.7890  178.1590  142.9810 O   0  0  0  0  0  0  0  0  0  0  0  0
  184.5520  178.2870  142.0720 N   0  0  0  0  0  0  0  0  0  0  0  0
  182.6990  178.9000  143.4500 C   0  0  0  0  0  0  0  0  0  0  0  0
  183.5630  179.0210  144.5390 C   0  0  0  0  0  3  0  0  0  0  0  0
  184.9250  178.7690  144.3770 C   0  0  0  0  0  3  0  0  0  0  0  0
  181.3420  179.1490  143.6130 O   0  0  0  0  0  1  0  0  0  0  0  0
  185.4140  178.3950  143.1230 C   0  0  0  0  0  0  0  0  0  0  0  0
  182.3330  178.3880  141.0150 C   0  0  0  0  0  1  0  0  0  0  0  0
  183.2190  178.5270  142.2030 C   0  0  0  0  0  0  0  0  0  0  0  0
  2  3  2  0  0  0  0
  2  6  1  0  0  0  0
  3  5  1  0  0  0  0
  4  1  1  0  0  0  0
  4  7  1  0  0  0  0
  5  1  2  0  0  0  0
  6  4  2  0  0  0  0
  9  7  2  0  0  0  0
  9  8  1  0  0  0  0
 10  2  1  0  0  0  0
 12 11  1  6  0  0  0
 12 10  1  0  0  0  0
 13 12  1  0  0  0  0
 14 13  1  0  0  0  0
 16 15  1  1  0  0  0
 16 14  1  0  0  0  0
 18 19  2  0  0  0  0
 19 16  1  0  0  0  0
 19 17  1  0  0  0  0
 20 26  1  0  0  0  0
 20  3  1  0  0  0  0
 21 28  1  0  0  0  0
 21 26  2  0  0  0  0
 22 25  1  0  0  0  0
 22 23  1  0  0  0  0
 24 23  2  0  0  0  0
 26 24  1  0  0  0  0
 27 28  1  0  0  0  0
 28 22  2  0  0  0  0
M  END
>  <MODEL>
4

>  <REMARK>
 VINA RESULT:      -7.7      1.861      5.327
  Name = 
  9 active torsions:
  status: ('A' for Active; 'I' for Inactive)
    1  A    between atoms: C_6  and  N_10
    2  A    between atoms: C_8  and  C_12
    3  A    between atoms: C_8  and  C_27
    4  A    between atoms: N_9  and  C_23
    5  A    between atoms: N_10  and  C_21
    6  A    between atoms: C_12  and  C_14
    7  A    between atoms: C_14  and  C_21
    8  A    between atoms: C_15  and  O_17
    9  A    between atoms: C_16  and  O_17
                            x       y       z     vdW  Elec       q    Type
                         _______ _______ _______ _____ _____    ______ ____

>  <TORSDO>
F 9

$$$$
=
 OpenBabel10222416543D

 28 29  0  0  1  0  0  0  0  0999 V2000
  184.9690  178.4030  142.3810 C   0  0  0  0  0  3  0  0  0  0  0  0
  187.7490  178.0920  142.1430 C   0  0  0  0  0  0  0  0  0  0  0  0
  187.0640  177.4850  143.2240 C   0  0  0  0  0  0  0  0  0  0  0  0
  185.6400  178.9940  141.3110 C   0  0  0  0  0  0  0  0  0  0  0  0
  185.6730  177.6550  143.3240 C   0  0  0  0  0  3  0  0  0  0  0  0
  187.0280  178.8310  141.1990 C   0  0  0  0  0  3  0  0  0  0  0  0
  184.8910  179.7530  140.3550 N   0  0  0  0  0  0  0  0  0  0  0  0
  183.1660  180.1180  138.7130 C   0  0  0  0  0  1  0  0  0  0  0  0
  183.8940  179.2670  139.6890 C   0  0  0  0  0  3  0  0  0  0  0  0
  189.1670  177.9750  141.9520 N   0  0  0  0  0  2  0  0  0  0  0  0
  190.5040  176.0030  142.4290 C   0  0  0  0  0  1  0  0  0  0  0  0
  189.8560  176.8460  141.3440 C   0  0  2  0  0  3  0  0  0  0  0  0
  190.9160  177.3640  140.3890 C   0  0  0  0  0  2  0  0  0  0  0  0
  190.6710  176.8250  138.9850 C   0  0  0  0  0  2  0  0  0  0  0  0
  188.7900  175.8930  137.8040 O   0  0  0  0  0  1  0  0  0  0  0  0
  189.2200  176.9960  138.5460 C   0  0  2  0  0  3  0  0  0  0  0  0
  188.8230  178.2270  136.4000 O   0  0  0  0  0  0  0  0  0  0  0  0
  189.0520  179.3670  138.3740 O   0  0  0  0  0  1  0  0  0  0  0  0
  189.0160  178.2610  137.7760 C   0  0  0  0  0  0  0  0  0  0  0  0
  187.7720  176.7020  144.1510 O   0  0  0  0  0  0  0  0  0  0  0  0
  189.4650  176.7710  145.8750 N   0  0  0  0  0  0  0  0  0  0  0  0
  189.0640  177.8850  147.9500 C   0  0  0  0  0  0  0  0  0  0  0  0
  187.7860  178.2290  147.5050 C   0  0  0  0  0  3  0  0  0  0  0  0
  187.3630  177.8350  146.2360 C   0  0  0  0  0  3  0  0  0  0  0  0
  189.4850  178.2800  149.2140 O   0  0  0  0  0  1  0  0  0  0  0  0
  188.2240  177.0990  145.4190 C   0  0  0  0  0  0  0  0  0  0  0  0
  191.2720  176.7540  147.5460 C   0  0  0  0  0  1  0  0  0  0  0  0
  189.9040  177.1430  147.1090 C   0  0  0  0  0  0  0  0  0  0  0  0
  1  5  1  0  0  0  0
  2  3  1  0  0  0  0
  3  5  2  0  0  0  0
  3 20  1  0  0  0  0
  4  1  2  0  0  0  0
  6  4  1  0  0  0  0
  6  2  2  0  0  0  0
  7  4  1  0  0  0  0
  8  9  1  0  0  0  0
  9  7  2  0  0  0  0
 10  2  1  0  0  0  0
 12 10  1  0  0  0  0
 12 11  1  1  0  0  0
 13 12  1  0  0  0  0
 14 13  1  0  0  0  0
 16 15  1  6  0  0  0
 16 14  1  0  0  0  0
 17 19  2  0  0  0  0
 19 18  1  0  0  0  0
 19 16  1  0  0  0  0
 20 26  1  0  0  0  0
 21 28  1  0  0  0  0
 22 25  1  0  0  0  0
 23 22  1  0  0  0  0
 24 23  2  0  0  0  0
 26 21  2  0  0  0  0
 26 24  1  0  0  0  0
 28 27  1  0  0  0  0
 28 22  2  0  0  0  0
M  END
>  <MODEL>
5

>  <REMARK>
 VINA RESULT:      -7.6      2.430      7.468
  Name = 
  9 active torsions:
  status: ('A' for Active; 'I' for Inactive)
    1  A    between atoms: C_6  and  N_10
    2  A    between atoms: C_8  and  C_12
    3  A    between atoms: C_8  and  C_27
    4  A    between atoms: N_9  and  C_23
    5  A    between atoms: N_10  and  C_21
    6  A    between atoms: C_12  and  C_14
    7  A    between atoms: C_14  and  C_21
    8  A    between atoms: C_15  and  O_17
    9  A    between atoms: C_16  and  O_17
                            x       y       z     vdW  Elec       q    Type
                         _______ _______ _______ _____ _____    ______ ____

>  <TORSDO>
F 9

$$$$
=
 OpenBabel10222416543D

 28 29  0  0  1  0  0  0  0  0999 V2000
  183.4190  178.6380  140.4340 C   0  0  0  0  0  3  0  0  0  0  0  0
  184.7480  179.0010  142.8800 C   0  0  0  0  0  0  0  0  0  0  0  0
  185.4840  179.0220  141.6710 C   0  0  0  0  0  0  0  0  0  0  0  0
  182.6910  178.6260  141.6230 C   0  0  0  0  0  0  0  0  0  0  0  0
  184.8000  178.8370  140.4580 C   0  0  0  0  0  3  0  0  0  0  0  0
  183.3630  178.8100  142.8400 C   0  0  0  0  0  3  0  0  0  0  0  0
  181.2740  178.4240  141.5680 N   0  0  0  0  0  0  0  0  0  0  0  0
  178.9690  178.9120  142.0760 C   0  0  0  0  0  1  0  0  0  0  0  0
  180.4260  179.1860  142.1810 C   0  0  0  0  0  3  0  0  0  0  0  0
  185.3550  179.1820  144.1690 N   0  0  0  0  0  2  0  0  0  0  0  0
  185.5550  178.7990  146.5610 C   0  0  0  0  0  1  0  0  0  0  0  0
  185.5210  178.1540  145.1860 C   0  0  2  0  0  3  0  0  0  0  0  0
  186.8170  177.4070  144.9340 C   0  0  0  0  0  2  0  0  0  0  0  0
  187.9220  177.9440  145.8350 C   0  0  0  0  0  2  0  0  0  0  0  0
  189.4170  176.6310  147.1930 O   0  0  0  0  0  1  0  0  0  0  0  0
  189.1330  177.0160  145.8810 C   0  0  2  0  0  3  0  0  0  0  0  0
  191.5690  177.0020  145.2960 O   0  0  0  0  0  1  0  0  0  0  0  0
  190.2300  178.7550  144.6750 O   0  0  0  0  0  0  0  0  0  0  0  0
  190.3330  177.6360  145.2400 C   0  0  0  0  0  0  0  0  0  0  0  0
  186.8700  179.2580  141.6980 O   0  0  0  0  0  0  0  0  0  0  0  0
  188.1610  178.5970  139.7650 N   0  0  0  0  0  0  0  0  0  0  0  0
  189.8410  176.9050  139.9280 C   0  0  0  0  0  0  0  0  0  0  0  0
  189.5550  176.7690  141.2880 C   0  0  0  0  0  3  0  0  0  0  0  0
  188.5660  177.5580  141.8730 C   0  0  0  0  0  3  0  0  0  0  0  0
  190.8280  176.1190  139.3470 O   0  0  0  0  0  1  0  0  0  0  0  0
  187.8690  178.4840  141.0910 C   0  0  0  0  0  0  0  0  0  0  0  0
  189.3940  178.0140  137.7170 C   0  0  0  0  0  1  0  0  0  0  0  0
  189.1220  177.8390  139.1690 C   0  0  0  0  0  0  0  0  0  0  0  0
  1  5  2  0  0  0  0
  1  4  1  0  0  0  0
  2 10  1  0  0  0  0
  3 20  1  0  0  0  0
  3  2  2  0  0  0  0
  4  6  2  0  0  0  0
  5  3  1  0  0  0  0
  6  2  1  0  0  0  0
  7  4  1  0  0  0  0
  7  9  2  0  0  0  0
  8  9  1  0  0  0  0
 10 12  1  0  0  0  0
 12 11  1  1  0  0  0
 13 12  1  0  0  0  0
 13 14  1  0  0  0  0
 14 16  1  0  0  0  0
 16 15  1  1  0  0  0
 18 19  2  0  0  0  0
 19 17  1  0  0  0  0
 19 16  1  0  0  0  0
 21 26  2  0  0  0  0
 22 23  1  0  0  0  0
 23 24  2  0  0  0  0
 25 22  1  0  0  0  0
 26 20  1  0  0  0  0
 26 24  1  0  0  0  0
 27 28  1  0  0  0  0
 28 21  1  0  0  0  0
 28 22  2  0  0  0  0
M  END
>  <MODEL>
6

>  <REMARK>
 VINA RESULT:      -7.6      2.717      6.636
  Name = 
  9 active torsions:
  status: ('A' for Active; 'I' for Inactive)
    1  A    between atoms: C_6  and  N_10
    2  A    between atoms: C_8  and  C_12
    3  A    between atoms: C_8  and  C_27
    4  A    between atoms: N_9  and  C_23
    5  A    between atoms: N_10  and  C_21
    6  A    between atoms: C_12  and  C_14
    7  A    between atoms: C_14  and  C_21
    8  A    between atoms: C_15  and  O_17
    9  A    between atoms: C_16  and  O_17
                            x       y       z     vdW  Elec       q    Type
                         _______ _______ _______ _____ _____    ______ ____

>  <TORSDO>
F 9

$$$$
=
 OpenBabel10222416543D

 28 29  0  0  1  0  0  0  0  0999 V2000
  185.1810  179.0440  145.0620 C   0  0  0  0  0  3  0  0  0  0  0  0
  186.7950  177.8800  143.0820 C   0  0  0  0  0  0  0  0  0  0  0  0
  185.6970  178.6910  142.7060 C   0  0  0  0  0  0  0  0  0  0  0  0
  186.2670  178.2520  145.4350 C   0  0  0  0  0  0  0  0  0  0  0  0
  184.9020  179.2630  143.7130 C   0  0  0  0  0  3  0  0  0  0  0  0
  187.0690  177.6770  144.4390 C   0  0  0  0  0  3  0  0  0  0  0  0
  186.5330  178.0490  146.8270 N   0  0  0  0  0  0  0  0  0  0  0  0
  187.9210  177.6900  148.7640 C   0  0  0  0  0  1  0  0  0  0  0  0
  187.7260  177.8980  147.3050 C   0  0  0  0  0  3  0  0  0  0  0  0
  187.6670  177.2530  142.1280 N   0  0  0  0  0  2  0  0  0  0  0  0
  188.7260  178.3580  140.2410 C   0  0  0  0  0  1  0  0  0  0  0  0
  188.9250  177.7950  141.6380 C   0  0  2  0  0  3  0  0  0  0  0  0
  189.9660  176.6920  141.6070 C   0  0  0  0  0  2  0  0  0  0  0  0
  190.0800  176.0330  142.9770 C   0  0  0  0  0  2  0  0  0  0  0  0
  192.0520  175.2580  144.1220 O   0  0  0  0  0  1  0  0  0  0  0  0
  191.3780  176.4020  143.6890 C   0  0  2  0  0  3  0  0  0  0  0  0
  191.7540  177.1220  146.0590 O   0  0  0  0  0  1  0  0  0  0  0  0
  190.3530  178.3090  144.6880 O   0  0  0  0  0  0  0  0  0  0  0  0
  191.1400  177.3370  144.8310 C   0  0  0  0  0  0  0  0  0  0  0  0
  185.4410  178.9380  141.3460 O   0  0  0  0  0  0  0  0  0  0  0  0
  183.7160  179.7530  139.8630 N   0  0  0  0  0  0  0  0  0  0  0  0
  181.7760  178.4400  139.3930 C   0  0  0  0  0  0  0  0  0  0  0  0
  182.2690  177.4340  140.2260 C   0  0  0  0  0  3  0  0  0  0  0  0
  183.4930  177.6040  140.8720 C   0  0  0  0  0  3  0  0  0  0  0  0
  180.5560  178.2680  138.7490 O   0  0  0  0  0  1  0  0  0  0  0  0
  184.2180  178.7820  140.6770 C   0  0  0  0  0  0  0  0  0  0  0  0
  182.0330  180.7090  138.3430 C   0  0  0  0  0  1  0  0  0  0  0  0
  182.5240  179.6120  139.2200 C   0  0  0  0  0  0  0  0  0  0  0  0
  1  4  1  0  0  0  0
  2  6  1  0  0  0  0
  3  2  2  0  0  0  0
  3  5  1  0  0  0  0
  4  7  1  0  0  0  0
  5  1  2  0  0  0  0
  6  4  2  0  0  0  0
  7  9  2  0  0  0  0
  9  8  1  0  0  0  0
 10  2  1  0  0  0  0
 12 11  1  6  0  0  0
 12 10  1  0  0  0  0
 13 12  1  0  0  0  0
 13 14  1  0  0  0  0
 14 16  1  0  0  0  0
 16 15  1  1  0  0  0
 16 19  1  0  0  0  0
 18 19  2  0  0  0  0
 19 17  1  0  0  0  0
 20  3  1  0  0  0  0
 21 26  2  0  0  0  0
 22 23  1  0  0  0  0
 23 24  2  0  0  0  0
 25 22  1  0  0  0  0
 26 24  1  0  0  0  0
 26 20  1  0  0  0  0
 27 28  1  0  0  0  0
 28 22  2  0  0  0  0
 28 21  1  0  0  0  0
M  END
>  <MODEL>
7

>  <REMARK>
 VINA RESULT:      -7.5      2.679      6.431
  Name = 
  9 active torsions:
  status: ('A' for Active; 'I' for Inactive)
    1  A    between atoms: C_6  and  N_10
    2  A    between atoms: C_8  and  C_12
    3  A    between atoms: C_8  and  C_27
    4  A    between atoms: N_9  and  C_23
    5  A    between atoms: N_10  and  C_21
    6  A    between atoms: C_12  and  C_14
    7  A    between atoms: C_14  and  C_21
    8  A    between atoms: C_15  and  O_17
    9  A    between atoms: C_16  and  O_17
                            x       y       z     vdW  Elec       q    Type
                         _______ _______ _______ _____ _____    ______ ____

>  <TORSDO>
F 9

$$$$
=
 OpenBabel10222416543D

 28 29  0  0  1  0  0  0  0  0999 V2000
  190.6790  176.6740  140.2170 C   0  0  0  0  0  3  0  0  0  0  0  0
  188.4630  178.2730  140.8610 C   0  0  0  0  0  0  0  0  0  0  0  0
  189.2380  177.6960  141.8970 C   0  0  0  0  0  0  0  0  0  0  0  0
  189.9220  177.2470  139.1960 C   0  0  0  0  0  0  0  0  0  0  0  0
  190.3420  176.8990  141.5520 C   0  0  0  0  0  3  0  0  0  0  0  0
  188.8190  178.0460  139.5270 C   0  0  0  0  0  3  0  0  0  0  0  0
  190.2940  177.0030  137.8340 N   0  0  0  0  0  0  0  0  0  0  0  0
  191.5380  175.9560  136.0560 C   0  0  0  0  0  1  0  0  0  0  0  0
  191.2080  176.1530  137.4910 C   0  0  0  0  0  3  0  0  0  0  0  0
  187.3190  179.1040  141.1100 N   0  0  0  0  0  2  0  0  0  0  0  0
  185.1140  179.0010  140.0930 C   0  0  0  0  0  1  0  0  0  0  0  0
  185.9540  178.6390  141.3060 C   0  0  2  0  0  3  0  0  0  0  0  0
  185.3770  179.2940  142.5470 C   0  0  0  0  0  2  0  0  0  0  0  0
  184.9560  178.2340  143.5590 C   0  0  0  0  0  2  0  0  0  0  0  0
  186.2560  177.0900  145.2330 O   0  0  0  0  0  1  0  0  0  0  0  0
  185.7430  178.3350  144.8620 C   0  0  2  0  0  3  0  0  0  0  0  0
  185.5170  179.3300  147.1500 O   0  0  0  0  0  1  0  0  0  0  0  0
  183.6710  179.0010  145.8340 O   0  0  0  0  0  0  0  0  0  0  0  0
  184.9190  178.9160  145.9660 C   0  0  0  0  0  0  0  0  0  0  0  0
  188.9160  177.9560  143.2400 O   0  0  0  0  0  0  0  0  0  0  0  0
  189.2130  177.8280  145.6350 N   0  0  0  0  0  0  0  0  0  0  0  0
  191.1950  176.8880  146.5810 C   0  0  0  0  0  0  0  0  0  0  0  0
  191.6800  176.6440  145.2950 C   0  0  0  0  0  3  0  0  0  0  0  0
  190.9140  176.9990  144.1850 C   0  0  0  0  0  3  0  0  0  0  0  0
  191.9590  176.5320  147.6860 O   0  0  0  0  0  1  0  0  0  0  0  0
  189.6640  177.5950  144.3700 C   0  0  0  0  0  0  0  0  0  0  0  0
  189.3880  177.7710  148.0890 C   0  0  0  0  0  1  0  0  0  0  0  0
  189.9400  177.4910  146.7350 C   0  0  0  0  0  0  0  0  0  0  0  0
  1  5  1  0  0  0  0
  2 10  1  0  0  0  0
  2  3  1  0  0  0  0
  3 20  1  0  0  0  0
  4  6  1  0  0  0  0
  4  1  2  0  0  0  0
  5  3  2  0  0  0  0
  6  2  2  0  0  0  0
  7  4  1  0  0  0  0
  8  9  1  0  0  0  0
  9  7  2  0  0  0  0
 10 12  1  0  0  0  0
 12 11  1  6  0  0  0
 12 13  1  0  0  0  0
 13 14  1  0  0  0  0
 14 16  1  0  0  0  0
 16 15  1  1  0  0  0
 16 19  1  0  0  0  0
 18 19  2  0  0  0  0
 19 17  1  0  0  0  0
 20 26  1  0  0  0  0
 21 28  1  0  0  0  0
 22 28  2  0  0  0  0
 22 25  1  0  0  0  0
 23 22  1  0  0  0  0
 24 26  1  0  0  0  0
 24 23  2  0  0  0  0
 26 21  2  0  0  0  0
 28 27  1  0  0  0  0
M  END
>  <MODEL>
8

>  <REMARK>
 VINA RESULT:      -7.4      2.599      6.510
  Name = 
  9 active torsions:
  status: ('A' for Active; 'I' for Inactive)
    1  A    between atoms: C_6  and  N_10
    2  A    between atoms: C_8  and  C_12
    3  A    between atoms: C_8  and  C_27
    4  A    between atoms: N_9  and  C_23
    5  A    between atoms: N_10  and  C_21
    6  A    between atoms: C_12  and  C_14
    7  A    between atoms: C_14  and  C_21
    8  A    between atoms: C_15  and  O_17
    9  A    between atoms: C_16  and  O_17
                            x       y       z     vdW  Elec       q    Type
                         _______ _______ _______ _____ _____    ______ ____

>  <TORSDO>
F 9

$$$$
=
 OpenBabel10222416543D

 28 29  0  0  1  0  0  0  0  0999 V2000
  185.7860  178.7490  142.4420 C   0  0  0  0  0  3  0  0  0  0  0  0
  188.3150  177.5860  142.0800 C   0  0  0  0  0  0  0  0  0  0  0  0
  187.7350  178.3450  141.0340 C   0  0  0  0  0  0  0  0  0  0  0  0
  186.3600  178.0090  143.4760 C   0  0  0  0  0  0  0  0  0  0  0  0
  186.4680  178.9170  141.2370 C   0  0  0  0  0  3  0  0  0  0  0  0
  187.6250  177.4340  143.2860 C   0  0  0  0  0  3  0  0  0  0  0  0
  185.6400  177.8570  144.7040 N   0  0  0  0  0  0  0  0  0  0  0  0
  185.1000  178.3380  147.0030 C   0  0  0  0  0  1  0  0  0  0  0  0
  185.8920  178.5550  145.7640 C   0  0  0  0  0  3  0  0  0  0  0  0
  189.6050  176.9630  141.9710 N   0  0  0  0  0  2  0  0  0  0  0  0
  191.7780  177.5040  141.0270 C   0  0  0  0  0  1  0  0  0  0  0  0
  190.8850  177.5970  142.2520 C   0  0  2  0  0  3  0  0  0  0  0  0
  191.5420  176.8950  143.4250 C   0  0  0  0  0  2  0  0  0  0  0  0
  191.3540  177.7070  144.7010 C   0  0  0  0  0  2  0  0  0  0  0  0
  189.6490  177.6210  146.4010 O   0  0  0  0  0  1  0  0  0  0  0  0
  190.6860  176.8970  145.8080 C   0  0  2  0  0  3  0  0  0  0  0  0
  191.7920  177.1240  148.0440 O   0  0  0  0  0  1  0  0  0  0  0  0
  192.4170  175.4610  146.5980 O   0  0  0  0  0  0  0  0  0  0  0  0
  191.6700  176.4440  146.8380 C   0  0  0  0  0  0  0  0  0  0  0  0
  188.4410  178.5410  139.8350 O   0  0  0  0  0  0  0  0  0  0  0  0
  189.4290  176.8870  138.3750 N   0  0  0  0  0  0  0  0  0  0  0  0
  188.2990  176.1580  136.4010 C   0  0  0  0  0  0  0  0  0  0  0  0
  187.2410  177.0160  136.7030 C   0  0  0  0  0  3  0  0  0  0  0  0
  187.2920  177.8060  137.8510 C   0  0  0  0  0  3  0  0  0  0  0  0
  188.2450  175.3700  135.2570 O   0  0  0  0  0  1  0  0  0  0  0  0
  188.4050  177.7290  138.6930 C   0  0  0  0  0  0  0  0  0  0  0  0
  190.5540  175.2060  136.9750 C   0  0  0  0  0  1  0  0  0  0  0  0
  189.4030  176.1060  137.2620 C   0  0  0  0  0  0  0  0  0  0  0  0
  1  4  1  0  0  0  0
  2  6  1  0  0  0  0
  3  5  1  0  0  0  0
  3  2  2  0  0  0  0
  4  7  1  0  0  0  0
  5  1  2  0  0  0  0
  6  4  2  0  0  0  0
  7  9  2  0  0  0  0
  9  8  1  0  0  0  0
 10  2  1  0  0  0  0
 10 12  1  0  0  0  0
 12 11  1  6  0  0  0
 12 13  1  0  0  0  0
 13 14  1  0  0  0  0
 14 16  1  0  0  0  0
 16 15  1  1  0  0  0
 16 19  1  0  0  0  0
 18 19  2  0  0  0  0
 19 17  1  0  0  0  0
 20  3  1  0  0  0  0
 21 26  2  0  0  0  0
 22 23  1  0  0  0  0
 22 28  2  0  0  0  0
 23 24  2  0  0  0  0
 24 26  1  0  0  0  0
 25 22  1  0  0  0  0
 26 20  1  0  0  0  0
 27 28  1  0  0  0  0
 28 21  1  0  0  0  0
M  END
>  <MODEL>
9

>  <REMARK>
 VINA RESULT:      -7.4      2.635      5.958
  Name = 
  9 active torsions:
  status: ('A' for Active; 'I' for Inactive)
    1  A    between atoms: C_6  and  N_10
    2  A    between atoms: C_8  and  C_12
    3  A    between atoms: C_8  and  C_27
    4  A    between atoms: N_9  and  C_23
    5  A    between atoms: N_10  and  C_21
    6  A    between atoms: C_12  and  C_14
    7  A    between atoms: C_14  and  C_21
    8  A    between atoms: C_15  and  O_17
    9  A    between atoms: C_16  and  O_17
                            x       y       z     vdW  Elec       q    Type
                         _______ _______ _______ _____ _____    ______ ____

>  <TORSDO>
F 9

$$$$
