=
 OpenBabel10222416573D

 28 30  0  0  1  0  0  0  0  0999 V2000
  186.6120  177.1890  144.5350 C   0  0  2  0  0  3  0  0  0  0  0  0
  186.5240  177.4370  146.0500 C   0  0  0  0  0  2  0  0  0  0  0  0
  190.0730  177.8340  143.0280 C   0  0  2  0  0  3  0  0  0  0  0  0
  189.8090  177.6090  145.5120 C   0  0  2  0  0  3  0  0  0  0  0  0
  191.0740  176.6870  143.1350 C   0  0  0  0  0  2  0  0  0  0  0  0
  191.6350  176.6670  144.5550 C   0  0  0  0  0  2  0  0  0  0  0  0
  188.9070  177.5640  146.7510 C   0  0  0  0  0  2  0  0  0  0  0  0
  187.9700  176.7440  143.9700 C   0  0  0  0  0  2  0  0  0  0  0  0
  187.6140  178.3520  146.5980 C   0  0  0  0  0  2  0  0  0  0  0  0
  189.0560  177.8020  144.1770 C   0  0  2  0  0  3  0  0  0  0  0  0
  190.5960  176.4400  145.4740 O   0  0  0  0  0  0  0  0  0  0  0  0
  189.4390  177.8140  141.7840 O   0  0  0  0  0  0  0  0  0  0  0  0
  189.9640  176.6950  141.1350 C   0  0  0  0  0  2  0  0  0  0  0  0
  190.2470  175.5330  137.8990 C   0  0  0  0  0  2  0  0  0  0  0  0
  188.8530  176.9300  138.9310 C   0  0  2  0  0  3  0  0  0  0  0  0
  191.0110  176.0050  139.0500 N   0  0  0  0  0  0  0  0  0  0  0  0
  190.1650  177.0030  139.6630 C   0  0  2  0  0  3  0  0  0  0  0  0
  189.1230  176.3510  137.6870 O   0  0  0  0  0  0  0  0  0  0  0  0
  192.1820  176.7000  138.5370 C   0  0  0  0  0  2  0  0  0  0  0  0
  192.6360  176.0530  137.2420 C   0  0  0  0  0  1  0  0  0  0  0  0
  188.2390  178.2900  138.7600 C   0  0  0  0  0  0  0  0  0  0  0  0
  188.9240  179.2340  138.1950 N   0  0  0  0  0  2  0  0  0  0  0  0
  186.9100  178.5090  139.1370 O   0  0  0  0  0  0  0  0  0  0  0  0
  185.8190  178.2350  138.2700 C   0  0  0  0  0  1  0  0  0  0  0  0
  185.9190  178.1910  143.7190 N   0  0  0  0  0  2  0  0  0  0  0  0
  184.7430  178.7070  144.4090 C   0  0  0  0  0  2  0  0  0  0  0  0
  183.3740  178.8960  143.2340 S   0  0  0  0  0  0  0  0  0  0  0  0
  184.3270  178.1870  141.8620 C   0  0  0  0  0  1  0  0  0  0  0  0
  1 25  1  6  0  0  0
  1  2  1  0  0  0  0
  2  9  1  0  0  0  0
  3 12  1  6  0  0  0
  3  5  1  0  0  0  0
  3 10  1  0  0  0  0
  4  7  1  1  0  0  0
  5  6  1  0  0  0  0
  6 11  1  0  0  0  0
  8  1  1  0  0  0  0
  9  7  1  0  0  0  0
 10  8  1  6  0  0  0
 10  4  1  0  0  0  0
 11  4  1  0  0  0  0
 13 12  1  0  0  0  0
 14 16  1  0  0  0  0
 15 21  1  6  0  0  0
 15 17  1  0  0  0  0
 16 17  1  0  0  0  0
 17 13  1  1  0  0  0
 18 14  1  0  0  0  0
 18 15  1  0  0  0  0
 19 16  1  0  0  0  0
 20 19  1  0  0  0  0
 21 23  1  0  0  0  0
 22 21  2  0  0  0  0
 24 23  1  0  0  0  0
 25 26  1  0  0  0  0
 27 26  1  0  0  0  0
 28 27  1  0  0  0  0
M  END
>  <MODEL>
1

>  <REMARK>
 VINA RESULT:      -7.3      0.000      0.000
  Name = 
  9 active torsions:
  status: ('A' for Active; 'I' for Inactive)
    1  A    between atoms: C_2  and  N_20
    2  A    between atoms: C_4  and  C_7
    3  A    between atoms: O_5  and  C_8
    4  A    between atoms: O_5  and  C_21
    5  A    between atoms: C_6  and  N_22
    6  A    between atoms: C_7  and  O_16
    7  A    between atoms: S_9  and  C_12
    8  A    between atoms: C_12  and  N_20
    9  A    between atoms: C_21  and  C_25
                            x       y       z     vdW  Elec       q    Type
                         _______ _______ _______ _____ _____    ______ ____

>  <TORSDO>
F 9

$$$$
=
 OpenBabel10222416573D

 28 30  0  0  1  0  0  0  0  0999 V2000
  186.6030  177.1980  144.5630 C   0  0  2  0  0  3  0  0  0  0  0  0
  187.0590  177.3680  146.0220 C   0  0  0  0  0  2  0  0  0  0  0  0
  189.3450  177.8270  141.9650 C   0  0  2  0  0  3  0  0  0  0  0  0
  189.9540  177.4790  144.3740 C   0  0  2  0  0  3  0  0  0  0  0  0
  190.2700  176.6490  141.6690 C   0  0  0  0  0  2  0  0  0  0  0  0
  191.2890  176.5400  142.8010 C   0  0  0  0  0  2  0  0  0  0  0  0
  189.5410  177.3940  145.8470 C   0  0  0  0  0  2  0  0  0  0  0  0
  187.6570  176.7470  143.5410 C   0  0  0  0  0  2  0  0  0  0  0  0
  188.3110  178.2230  146.1890 C   0  0  0  0  0  2  0  0  0  0  0  0
  188.7930  177.7630  143.3960 C   0  0  2  0  0  3  0  0  0  0  0  0
  190.6270  176.2930  144.0160 O   0  0  0  0  0  0  0  0  0  0  0  0
  188.3160  177.8900  141.0230 O   0  0  0  0  0  0  0  0  0  0  0  0
  188.9470  178.2570  139.8330 C   0  0  0  0  0  2  0  0  0  0  0  0
  187.6970  178.5730  136.6330 C   0  0  0  0  0  2  0  0  0  0  0  0
  189.2160  177.2510  137.5830 C   0  0  2  0  0  3  0  0  0  0  0  0
  187.3260  178.5710  138.0450 N   0  0  0  0  0  0  0  0  0  0  0  0
  188.2290  177.6220  138.6560 C   0  0  2  0  0  3  0  0  0  0  0  0
  188.5970  177.5280  136.3600 O   0  0  0  0  0  0  0  0  0  0  0  0
  185.9900  178.0060  138.1400 C   0  0  0  0  0  2  0  0  0  0  0  0
  185.2280  178.6760  139.2670 C   0  0  0  0  0  1  0  0  0  0  0  0
  189.6000  175.8010  137.6660 C   0  0  0  0  0  0  0  0  0  0  0  0
  188.8930  174.9150  137.0370 N   0  0  0  0  0  2  0  0  0  0  0  0
  190.7600  175.4230  138.3500 O   0  0  0  0  0  0  0  0  0  0  0  0
  191.9490  176.1990  138.3170 C   0  0  0  0  0  1  0  0  0  0  0  0
  185.7130  178.2600  144.0820 N   0  0  0  0  0  2  0  0  0  0  0  0
  184.8720  178.7680  145.1600 C   0  0  0  0  0  2  0  0  0  0  0  0
  183.1890  179.0520  144.5450 S   0  0  0  0  0  0  0  0  0  0  0  0
  183.6550  178.7030  142.8260 C   0  0  0  0  0  1  0  0  0  0  0  0
  1 25  1  6  0  0  0
  1  2  1  0  0  0  0
  2  9  1  0  0  0  0
  3 12  1  6  0  0  0
  3 10  1  0  0  0  0
  4  7  1  1  0  0  0
  5  3  1  0  0  0  0
  5  6  1  0  0  0  0
  6 11  1  0  0  0  0
  7  9  1  0  0  0  0
  8  1  1  0  0  0  0
 10  8  1  6  0  0  0
 10  4  1  0  0  0  0
 11  4  1  0  0  0  0
 13 12  1  0  0  0  0
 14 16  1  0  0  0  0
 15 21  1  6  0  0  0
 15 17  1  0  0  0  0
 16 19  1  0  0  0  0
 16 17  1  0  0  0  0
 17 13  1  1  0  0  0
 18 14  1  0  0  0  0
 18 15  1  0  0  0  0
 19 20  1  0  0  0  0
 21 23  1  0  0  0  0
 22 21  2  0  0  0  0
 24 23  1  0  0  0  0
 25 26  1  0  0  0  0
 27 26  1  0  0  0  0
 28 27  1  0  0  0  0
M  END
>  <MODEL>
2

>  <REMARK>
 VINA RESULT:      -7.2      1.283      3.143
  Name = 
  9 active torsions:
  status: ('A' for Active; 'I' for Inactive)
    1  A    between atoms: C_2  and  N_20
    2  A    between atoms: C_4  and  C_7
    3  A    between atoms: O_5  and  C_8
    4  A    between atoms: O_5  and  C_21
    5  A    between atoms: C_6  and  N_22
    6  A    between atoms: C_7  and  O_16
    7  A    between atoms: S_9  and  C_12
    8  A    between atoms: C_12  and  N_20
    9  A    between atoms: C_21  and  C_25
                            x       y       z     vdW  Elec       q    Type
                         _______ _______ _______ _____ _____    ______ ____

>  <TORSDO>
F 9

$$$$
=
 OpenBabel10222416573D

 28 30  0  0  1  0  0  0  0  0999 V2000
  186.6340  177.2630  144.5780 C   0  0  2  0  0  3  0  0  0  0  0  0
  186.7260  177.4200  146.1050 C   0  0  0  0  0  2  0  0  0  0  0  0
  189.9310  177.8700  142.7260 C   0  0  2  0  0  3  0  0  0  0  0  0
  189.9350  177.5010  145.2080 C   0  0  2  0  0  3  0  0  0  0  0  0
  190.8860  176.6810  142.6530 C   0  0  0  0  0  2  0  0  0  0  0  0
  191.6000  176.5530  143.9970 C   0  0  0  0  0  2  0  0  0  0  0  0
  189.1760  177.4140  146.5360 C   0  0  0  0  0  2  0  0  0  0  0  0
  187.9000  176.8030  143.8370 C   0  0  0  0  0  2  0  0  0  0  0  0
  187.9100  178.2580  146.5770 C   0  0  0  0  0  2  0  0  0  0  0  0
  189.0480  177.8050  143.9800 C   0  0  2  0  0  3  0  0  0  0  0  0
  190.6600  176.3080  145.0140 O   0  0  0  0  0  0  0  0  0  0  0  0
  189.1620  177.9510  141.5630 O   0  0  0  0  0  0  0  0  0  0  0  0
  189.9840  177.4390  140.5580 C   0  0  0  0  0  2  0  0  0  0  0  0
  188.9280  178.8110  137.5730 C   0  0  0  0  0  2  0  0  0  0  0  0
  190.1110  177.0050  138.1200 C   0  0  2  0  0  3  0  0  0  0  0  0
  188.5200  178.5260  138.9460 N   0  0  0  0  0  0  0  0  0  0  0  0
  189.1880  177.2870  139.2740 C   0  0  2  0  0  3  0  0  0  0  0  0
  189.6020  177.7070  137.0230 O   0  0  0  0  0  0  0  0  0  0  0  0
  187.0940  178.2450  138.9240 C   0  0  0  0  0  2  0  0  0  0  0  0
  186.5830  178.2940  137.4960 C   0  0  0  0  0  1  0  0  0  0  0  0
  190.1850  175.5350  137.8200 C   0  0  0  0  0  0  0  0  0  0  0  0
  189.2530  174.9790  137.1130 N   0  0  0  0  0  2  0  0  0  0  0  0
  191.2970  174.7930  138.2350 O   0  0  0  0  0  0  0  0  0  0  0  0
  192.5450  174.8510  137.5590 C   0  0  0  0  0  1  0  0  0  0  0  0
  185.8990  178.3380  143.9040 N   0  0  0  0  0  2  0  0  0  0  0  0
  185.7330  178.0510  142.4840 C   0  0  0  0  0  2  0  0  0  0  0  0
  184.1070  178.6310  141.9260 S   0  0  0  0  0  0  0  0  0  0  0  0
  183.4850  178.8180  143.6200 C   0  0  0  0  0  1  0  0  0  0  0  0
  1 25  1  6  0  0  0
  1  2  1  0  0  0  0
  2  9  1  0  0  0  0
  3 12  1  6  0  0  0
  3 10  1  0  0  0  0
  4  7  1  1  0  0  0
  5  3  1  0  0  0  0
  5  6  1  0  0  0  0
  6 11  1  0  0  0  0
  7  9  1  0  0  0  0
  8  1  1  0  0  0  0
 10  8  1  6  0  0  0
 10  4  1  0  0  0  0
 11  4  1  0  0  0  0
 13 12  1  0  0  0  0
 14 16  1  0  0  0  0
 15 21  1  6  0  0  0
 15 17  1  0  0  0  0
 16 17  1  0  0  0  0
 17 13  1  1  0  0  0
 18 14  1  0  0  0  0
 18 15  1  0  0  0  0
 19 16  1  0  0  0  0
 20 19  1  0  0  0  0
 21 23  1  0  0  0  0
 22 21  2  0  0  0  0
 24 23  1  0  0  0  0
 26 25  1  0  0  0  0
 27 26  1  0  0  0  0
 27 28  1  0  0  0  0
M  END
>  <MODEL>
3

>  <REMARK>
 VINA RESULT:      -7.0      1.229      2.916
  Name = 
  9 active torsions:
  status: ('A' for Active; 'I' for Inactive)
    1  A    between atoms: C_2  and  N_20
    2  A    between atoms: C_4  and  C_7
    3  A    between atoms: O_5  and  C_8
    4  A    between atoms: O_5  and  C_21
    5  A    between atoms: C_6  and  N_22
    6  A    between atoms: C_7  and  O_16
    7  A    between atoms: S_9  and  C_12
    8  A    between atoms: C_12  and  N_20
    9  A    between atoms: C_21  and  C_25
                            x       y       z     vdW  Elec       q    Type
                         _______ _______ _______ _____ _____    ______ ____

>  <TORSDO>
F 9

$$$$
=
 OpenBabel10222416573D

 28 30  0  0  1  0  0  0  0  0999 V2000
  188.6710  178.2250  139.6160 C   0  0  2  0  0  3  0  0  0  0  0  0
  190.0000  178.0130  138.8720 C   0  0  0  0  0  2  0  0  0  0  0  0
  188.5920  176.7710  143.1580 C   0  0  2  0  0  3  0  0  0  0  0  0
  190.7820  177.0660  141.9710 C   0  0  2  0  0  3  0  0  0  0  0  0
  189.1870  177.6490  144.2550 C   0  0  0  0  0  2  0  0  0  0  0  0
  190.7090  177.5440  144.1850 C   0  0  0  0  0  2  0  0  0  0  0  0
  191.5660  177.3300  140.6800 C   0  0  0  0  0  2  0  0  0  0  0  0
  188.7270  178.3320  141.1470 C   0  0  0  0  0  2  0  0  0  0  0  0
  190.8470  176.8690  139.4200 C   0  0  0  0  0  2  0  0  0  0  0  0
  189.2470  177.0490  141.7980 C   0  0  2  0  0  3  0  0  0  0  0  0
  191.1620  178.0150  142.9410 O   0  0  0  0  0  0  0  0  0  0  0  0
  187.2060  176.9330  143.0990 O   0  0  0  0  0  0  0  0  0  0  0  0
  186.7900  176.9190  144.4320 C   0  0  0  0  0  2  0  0  0  0  0  0
  183.7510  178.5110  144.7940 C   0  0  0  0  0  2  0  0  0  0  0  0
  185.4830  178.1440  146.1450 C   0  0  2  0  0  3  0  0  0  0  0  0
  184.8730  178.3120  143.8810 N   0  0  0  0  0  0  0  0  0  0  0  0
  186.0260  178.1930  144.7440 C   0  0  2  0  0  3  0  0  0  0  0  0
  184.2160  178.7350  146.1010 O   0  0  0  0  0  0  0  0  0  0  0  0
  185.0370  179.5430  143.1230 C   0  0  0  0  0  2  0  0  0  0  0  0
  185.1580  179.2240  141.6450 C   0  0  0  0  0  1  0  0  0  0  0  0
  186.3750  178.8740  147.1090 C   0  0  0  0  0  0  0  0  0  0  0  0
  185.9270  179.9210  147.7270 N   0  0  0  0  0  2  0  0  0  0  0  0
  187.6500  178.3750  147.3930 O   0  0  0  0  0  0  0  0  0  0  0  0
  188.0400  177.9850  148.7020 C   0  0  0  0  0  1  0  0  0  0  0  0
  187.5610  177.4110  139.1090 N   0  0  0  0  0  2  0  0  0  0  0  0
  186.8250  178.1180  138.0670 C   0  0  0  0  0  2  0  0  0  0  0  0
  186.1430  176.9260  136.8810 S   0  0  0  0  0  0  0  0  0  0  0  0
  187.4550  175.7140  137.1970 C   0  0  0  0  0  1  0  0  0  0  0  0
  1 25  1  1  0  0  0
  1  8  1  0  0  0  0
  2  9  1  0  0  0  0
  2  1  1  0  0  0  0
  3 12  1  6  0  0  0
  3  5  1  0  0  0  0
  4  7  1  6  0  0  0
  4 11  1  0  0  0  0
  6  5  1  0  0  0  0
  9  7  1  0  0  0  0
 10  8  1  1  0  0  0
 10  4  1  0  0  0  0
 10  3  1  0  0  0  0
 11  6  1  0  0  0  0
 12 13  1  0  0  0  0
 14 18  1  0  0  0  0
 15 21  1  1  0  0  0
 16 17  1  0  0  0  0
 16 14  1  0  0  0  0
 17 13  1  6  0  0  0
 17 15  1  0  0  0  0
 18 15  1  0  0  0  0
 19 16  1  0  0  0  0
 20 19  1  0  0  0  0
 21 23  1  0  0  0  0
 21 22  2  0  0  0  0
 23 24  1  0  0  0  0
 26 25  1  0  0  0  0
 27 28  1  0  0  0  0
 27 26  1  0  0  0  0
M  END
>  <MODEL>
4

>  <REMARK>
 VINA RESULT:      -6.7      2.613      6.910
  Name = 
  9 active torsions:
  status: ('A' for Active; 'I' for Inactive)
    1  A    between atoms: C_2  and  N_20
    2  A    between atoms: C_4  and  C_7
    3  A    between atoms: O_5  and  C_8
    4  A    between atoms: O_5  and  C_21
    5  A    between atoms: C_6  and  N_22
    6  A    between atoms: C_7  and  O_16
    7  A    between atoms: S_9  and  C_12
    8  A    between atoms: C_12  and  N_20
    9  A    between atoms: C_21  and  C_25
                            x       y       z     vdW  Elec       q    Type
                         _______ _______ _______ _____ _____    ______ ____

>  <TORSDO>
F 9

$$$$
=
 OpenBabel10222416573D

 28 30  0  0  1  0  0  0  0  0999 V2000
  188.0010  176.7520  143.7730 C   0  0  2  0  0  3  0  0  0  0  0  0
  188.6730  177.0710  145.1190 C   0  0  0  0  0  2  0  0  0  0  0  0
  189.9160  178.0200  140.7090 C   0  0  2  0  0  3  0  0  0  0  0  0
  191.0560  177.9020  142.9410 C   0  0  2  0  0  3  0  0  0  0  0  0
  191.0410  177.1200  140.2030 C   0  0  0  0  0  2  0  0  0  0  0  0
  192.2540  177.3100  141.1100 C   0  0  0  0  0  2  0  0  0  0  0  0
  190.9770  177.7450  144.4630 C   0  0  0  0  0  2  0  0  0  0  0  0
  188.9150  176.5710  142.5520 C   0  0  0  0  0  2  0  0  0  0  0  0
  189.6640  178.2290  145.0630 C   0  0  0  0  0  2  0  0  0  0  0  0
  189.6920  177.8460  142.2170 C   0  0  2  0  0  3  0  0  0  0  0  0
  191.9330  176.9270  142.4240 O   0  0  0  0  0  0  0  0  0  0  0  0
  188.7430  177.7870  139.9880 O   0  0  0  0  0  0  0  0  0  0  0  0
  188.8370  178.6240  138.8760 C   0  0  0  0  0  2  0  0  0  0  0  0
  188.3400  175.7620  137.0150 C   0  0  0  0  0  2  0  0  0  0  0  0
  186.9920  177.1570  138.1080 C   0  0  2  0  0  3  0  0  0  0  0  0
  189.0990  177.0070  137.0760 N   0  0  0  0  0  0  0  0  0  0  0  0
  188.1900  177.9570  137.6760 C   0  0  2  0  0  3  0  0  0  0  0  0
  186.9910  175.9930  137.3330 O   0  0  0  0  0  0  0  0  0  0  0  0
  189.3250  177.4440  135.7070 C   0  0  0  0  0  2  0  0  0  0  0  0
  189.5080  176.2370  134.8070 C   0  0  0  0  0  1  0  0  0  0  0  0
  185.7160  177.9250  137.9130 C   0  0  0  0  0  0  0  0  0  0  0  0
  184.8500  177.5150  137.0400 N   0  0  0  0  0  2  0  0  0  0  0  0
  185.4320  179.0260  138.7270 O   0  0  0  0  0  0  0  0  0  0  0  0
  184.1040  179.3990  139.0680 C   0  0  0  0  0  1  0  0  0  0  0  0
  186.7860  177.5300  143.5070 N   0  0  0  0  0  2  0  0  0  0  0  0
  186.0760  177.8330  144.7440 C   0  0  0  0  0  2  0  0  0  0  0  0
  184.6400  178.8820  144.3860 S   0  0  0  0  0  0  0  0  0  0  0  0
  184.5410  178.3250  142.6620 C   0  0  0  0  0  1  0  0  0  0  0  0
  1 25  1  6  0  0  0
  1  2  1  0  0  0  0
  3 12  1  6  0  0  0
  3 10  1  0  0  0  0
  4  7  1  1  0  0  0
  5  3  1  0  0  0  0
  5  6  1  0  0  0  0
  6 11  1  0  0  0  0
  7  9  1  0  0  0  0
  8  1  1  0  0  0  0
  9  2  1  0  0  0  0
 10  8  1  6  0  0  0
 10  4  1  0  0  0  0
 11  4  1  0  0  0  0
 13 12  1  0  0  0  0
 14 16  1  0  0  0  0
 14 18  1  0  0  0  0
 15 21  1  6  0  0  0
 16 17  1  0  0  0  0
 17 15  1  0  0  0  0
 17 13  1  1  0  0  0
 18 15  1  0  0  0  0
 19 16  1  0  0  0  0
 20 19  1  0  0  0  0
 21 23  1  0  0  0  0
 22 21  2  0  0  0  0
 23 24  1  0  0  0  0
 25 26  1  0  0  0  0
 27 26  1  0  0  0  0
 28 27  1  0  0  0  0
M  END
>  <MODEL>
5

>  <REMARK>
 VINA RESULT:      -6.4      1.912      2.661
  Name = 
  9 active torsions:
  status: ('A' for Active; 'I' for Inactive)
    1  A    between atoms: C_2  and  N_20
    2  A    between atoms: C_4  and  C_7
    3  A    between atoms: O_5  and  C_8
    4  A    between atoms: O_5  and  C_21
    5  A    between atoms: C_6  and  N_22
    6  A    between atoms: C_7  and  O_16
    7  A    between atoms: S_9  and  C_12
    8  A    between atoms: C_12  and  N_20
    9  A    between atoms: C_21  and  C_25
                            x       y       z     vdW  Elec       q    Type
                         _______ _______ _______ _____ _____    ______ ____

>  <TORSDO>
F 9

$$$$
=
 OpenBabel10222416573D

 28 30  0  0  1  0  0  0  0  0999 V2000
  185.1340  178.2710  143.2700 C   0  0  2  0  0  3  0  0  0  0  0  0
  184.6440  178.5590  144.6990 C   0  0  0  0  0  2  0  0  0  0  0  0
  188.9450  178.1790  142.8950 C   0  0  2  0  0  3  0  0  0  0  0  0
  187.9040  178.0560  145.1750 C   0  0  2  0  0  3  0  0  0  0  0  0
  189.6200  176.8550  143.2460 C   0  0  0  0  0  2  0  0  0  0  0  0
  189.7100  176.7490  144.7670 C   0  0  0  0  0  2  0  0  0  0  0  0
  186.6810  178.2160  146.0850 C   0  0  0  0  0  2  0  0  0  0  0  0
  186.4830  177.5520  143.1170 C   0  0  0  0  0  2  0  0  0  0  0  0
  185.6770  179.2450  145.5870 C   0  0  0  0  0  2  0  0  0  0  0  0
  187.6430  178.3730  143.6860 C   0  0  2  0  0  3  0  0  0  0  0  0
  188.4190  176.7520  145.3220 O   0  0  0  0  0  0  0  0  0  0  0  0
  188.7240  178.2650  141.5190 O   0  0  0  0  0  0  0  0  0  0  0  0
  189.4790  177.2260  140.9730 C   0  0  0  0  0  2  0  0  0  0  0  0
  189.0530  178.8260  137.9460 C   0  0  0  0  0  2  0  0  0  0  0  0
  190.4860  177.3020  138.7080 C   0  0  2  0  0  3  0  0  0  0  0  0
  188.3400  178.1980  139.0540 N   0  0  0  0  0  0  0  0  0  0  0  0
  189.2090  177.1250  139.4820 C   0  0  2  0  0  3  0  0  0  0  0  0
  190.1620  178.0480  137.5710 O   0  0  0  0  0  0  0  0  0  0  0  0
  187.1440  177.5800  138.5030 C   0  0  0  0  0  2  0  0  0  0  0  0
  186.7760  178.2500  137.1940 C   0  0  0  0  0  1  0  0  0  0  0  0
  191.0840  175.9800  138.3220 C   0  0  0  0  0  0  0  0  0  0  0  0
  190.3070  175.0050  137.9680 N   0  0  0  0  0  2  0  0  0  0  0  0
  192.4750  175.8310  138.2670 O   0  0  0  0  0  0  0  0  0  0  0  0
  193.2580  176.3820  137.2180 C   0  0  0  0  0  1  0  0  0  0  0  0
  184.9310  179.3770  142.3290 N   0  0  0  0  0  2  0  0  0  0  0  0
  185.1790  178.9510  140.9570 C   0  0  0  0  0  2  0  0  0  0  0  0
  183.6480  178.3070  140.2280 S   0  0  0  0  0  0  0  0  0  0  0  0
  183.4730  179.7220  139.1060 C   0  0  0  0  0  1  0  0  0  0  0  0
  1 25  1  6  0  0  0
  1  2  1  0  0  0  0
  2  9  1  0  0  0  0
  3 12  1  6  0  0  0
  3  5  1  0  0  0  0
  3 10  1  0  0  0  0
  4 11  1  0  0  0  0
  4  7  1  1  0  0  0
  5  6  1  0  0  0  0
  6 11  1  0  0  0  0
  8  1  1  0  0  0  0
  9  7  1  0  0  0  0
 10  8  1  6  0  0  0
 10  4  1  0  0  0  0
 13 12  1  0  0  0  0
 14 16  1  0  0  0  0
 15 21  1  6  0  0  0
 15 17  1  0  0  0  0
 16 17  1  0  0  0  0
 17 13  1  1  0  0  0
 18 14  1  0  0  0  0
 18 15  1  0  0  0  0
 19 16  1  0  0  0  0
 20 19  1  0  0  0  0
 22 21  2  0  0  0  0
 23 21  1  0  0  0  0
 24 23  1  0  0  0  0
 26 25  1  0  0  0  0
 27 26  1  0  0  0  0
 28 27  1  0  0  0  0
M  END
>  <MODEL>
6

>  <REMARK>
 VINA RESULT:      -6.4      1.642      3.342
  Name = 
  9 active torsions:
  status: ('A' for Active; 'I' for Inactive)
    1  A    between atoms: C_2  and  N_20
    2  A    between atoms: C_4  and  C_7
    3  A    between atoms: O_5  and  C_8
    4  A    between atoms: O_5  and  C_21
    5  A    between atoms: C_6  and  N_22
    6  A    between atoms: C_7  and  O_16
    7  A    between atoms: S_9  and  C_12
    8  A    between atoms: C_12  and  N_20
    9  A    between atoms: C_21  and  C_25
                            x       y       z     vdW  Elec       q    Type
                         _______ _______ _______ _____ _____    ______ ____

>  <TORSDO>
F 9

$$$$
=
 OpenBabel10222416573D

 28 30  0  0  1  0  0  0  0  0999 V2000
  188.4320  178.0620  145.6980 C   0  0  2  0  0  3  0  0  0  0  0  0
  187.5430  178.0050  146.9520 C   0  0  0  0  0  2  0  0  0  0  0  0
  186.5230  177.7690  142.3910 C   0  0  2  0  0  3  0  0  0  0  0  0
  185.2860  178.2760  144.5140 C   0  0  2  0  0  3  0  0  0  0  0  0
  185.9170  179.0620  141.8510 C   0  0  0  0  0  2  0  0  0  0  0  0
  184.6370  179.3560  142.6300 C   0  0  0  0  0  2  0  0  0  0  0  0
  185.2510  178.3430  146.0450 C   0  0  0  0  0  2  0  0  0  0  0  0
  187.8100  178.6330  144.4150 C   0  0  0  0  0  2  0  0  0  0  0  0
  186.1840  177.3510  146.7240 C   0  0  0  0  0  2  0  0  0  0  0  0
  186.6290  177.7940  143.9220 C   0  0  2  0  0  3  0  0  0  0  0  0
  184.9370  179.5380  143.9910 O   0  0  0  0  0  0  0  0  0  0  0  0
  187.7640  177.5260  141.7970 O   0  0  0  0  0  0  0  0  0  0  0  0
  187.8870  178.5120  140.8170 C   0  0  0  0  0  2  0  0  0  0  0  0
  188.7700  178.9000  137.5050 C   0  0  0  0  0  2  0  0  0  0  0  0
  189.7110  177.8940  139.2550 C   0  0  2  0  0  3  0  0  0  0  0  0
  187.6480  178.6300  138.3980 N   0  0  0  0  0  0  0  0  0  0  0  0
  188.2240  177.8690  139.4840 C   0  0  2  0  0  3  0  0  0  0  0  0
  189.8980  178.1570  137.8940 O   0  0  0  0  0  0  0  0  0  0  0  0
  186.7390  177.7390  137.6930 C   0  0  0  0  0  2  0  0  0  0  0  0
  185.3140  178.0010  138.1420 C   0  0  0  0  0  1  0  0  0  0  0  0
  190.3490  176.5880  139.6340 C   0  0  0  0  0  0  0  0  0  0  0  0
  190.5940  175.7060  138.7170 N   0  0  0  0  0  2  0  0  0  0  0  0
  190.7480  176.3640  140.9560 O   0  0  0  0  0  0  0  0  0  0  0  0
  191.2570  177.4010  141.7830 C   0  0  0  0  0  1  0  0  0  0  0  0
  189.2540  176.8650  145.4880 N   0  0  0  0  0  2  0  0  0  0  0  0
  189.8670  176.4240  146.7350 C   0  0  0  0  0  2  0  0  0  0  0  0
  191.6540  176.7290  146.6830 S   0  0  0  0  0  0  0  0  0  0  0  0
  191.8420  175.9210  145.0690 C   0  0  0  0  0  1  0  0  0  0  0  0
  1 25  1  6  0  0  0
  1  2  1  0  0  0  0
  3 12  1  6  0  0  0
  3 10  1  0  0  0  0
  4  7  1  1  0  0  0
  5  3  1  0  0  0  0
  5  6  1  0  0  0  0
  6 11  1  0  0  0  0
  7  9  1  0  0  0  0
  8  1  1  0  0  0  0
  9  2  1  0  0  0  0
 10  8  1  6  0  0  0
 10  4  1  0  0  0  0
 11  4  1  0  0  0  0
 13 12  1  0  0  0  0
 14 18  1  0  0  0  0
 14 16  1  0  0  0  0
 15 17  1  0  0  0  0
 15 21  1  6  0  0  0
 16 17  1  0  0  0  0
 17 13  1  1  0  0  0
 18 15  1  0  0  0  0
 19 20  1  0  0  0  0
 19 16  1  0  0  0  0
 21 23  1  0  0  0  0
 22 21  2  0  0  0  0
 23 24  1  0  0  0  0
 25 26  1  0  0  0  0
 27 26  1  0  0  0  0
 28 27  1  0  0  0  0
M  END
>  <MODEL>
7

>  <REMARK>
 VINA RESULT:      -6.3      2.565      4.814
  Name = 
  9 active torsions:
  status: ('A' for Active; 'I' for Inactive)
    1  A    between atoms: C_2  and  N_20
    2  A    between atoms: C_4  and  C_7
    3  A    between atoms: O_5  and  C_8
    4  A    between atoms: O_5  and  C_21
    5  A    between atoms: C_6  and  N_22
    6  A    between atoms: C_7  and  O_16
    7  A    between atoms: S_9  and  C_12
    8  A    between atoms: C_12  and  N_20
    9  A    between atoms: C_21  and  C_25
                            x       y       z     vdW  Elec       q    Type
                         _______ _______ _______ _____ _____    ______ ____

>  <TORSDO>
F 9

$$$$
=
 OpenBabel10222416573D

 28 30  0  0  1  0  0  0  0  0999 V2000
  188.0670  176.7390  143.9830 C   0  0  2  0  0  3  0  0  0  0  0  0
  188.8240  177.1300  145.2630 C   0  0  0  0  0  2  0  0  0  0  0  0
  189.6740  178.0060  140.7460 C   0  0  2  0  0  3  0  0  0  0  0  0
  190.9870  178.0090  142.8840 C   0  0  2  0  0  3  0  0  0  0  0  0
  190.8010  177.1460  140.1770 C   0  0  0  0  0  2  0  0  0  0  0  0
  192.0700  177.4210  140.9810 C   0  0  0  0  0  2  0  0  0  0  0  0
  191.0330  177.8950  144.4110 C   0  0  0  0  0  2  0  0  0  0  0  0
  188.8920  176.5660  142.6990 C   0  0  0  0  0  2  0  0  0  0  0  0
  189.7480  178.3330  145.0990 C   0  0  0  0  0  2  0  0  0  0  0  0
  189.5760  177.8660  142.2710 C   0  0  2  0  0  3  0  0  0  0  0  0
  191.8690  177.0620  142.3250 O   0  0  0  0  0  0  0  0  0  0  0  0
  188.4620  177.6950  140.1260 O   0  0  0  0  0  0  0  0  0  0  0  0
  188.8060  176.8250  139.0900 C   0  0  0  0  0  2  0  0  0  0  0  0
  187.5140  179.0230  136.7660 C   0  0  0  0  0  2  0  0  0  0  0  0
  188.7040  177.1450  136.6330 C   0  0  2  0  0  3  0  0  0  0  0  0
  187.2260  178.3360  138.0210 N   0  0  0  0  0  0  0  0  0  0  0  0
  187.8950  177.0610  137.8990 C   0  0  2  0  0  3  0  0  0  0  0  0
  188.1120  178.1410  135.8490 O   0  0  0  0  0  0  0  0  0  0  0  0
  185.7980  178.0630  138.0470 C   0  0  0  0  0  2  0  0  0  0  0  0
  185.1880  178.6390  139.3110 C   0  0  0  0  0  1  0  0  0  0  0  0
  188.7210  175.8340  135.9010 C   0  0  0  0  0  0  0  0  0  0  0  0
  187.6350  175.3990  135.3440 N   0  0  0  0  0  2  0  0  0  0  0  0
  189.9210  175.1310  135.7540 O   0  0  0  0  0  0  0  0  0  0  0  0
  191.1810  175.7010  136.0790 C   0  0  0  0  0  1  0  0  0  0  0  0
  186.7980  177.4500  143.7920 N   0  0  0  0  0  2  0  0  0  0  0  0
  186.2320  177.8630  145.0710 C   0  0  0  0  0  2  0  0  0  0  0  0
  184.6700  178.7450  144.7940 S   0  0  0  0  0  0  0  0  0  0  0  0
  184.9460  178.8700  143.0060 C   0  0  0  0  0  1  0  0  0  0  0  0
  1 25  1  6  0  0  0
  1  2  1  0  0  0  0
  3 12  1  6  0  0  0
  3 10  1  0  0  0  0
  4  7  1  1  0  0  0
  5  3  1  0  0  0  0
  5  6  1  0  0  0  0
  6 11  1  0  0  0  0
  7  9  1  0  0  0  0
  8  1  1  0  0  0  0
  9  2  1  0  0  0  0
 10  8  1  6  0  0  0
 10  4  1  0  0  0  0
 11  4  1  0  0  0  0
 13 12  1  0  0  0  0
 14 16  1  0  0  0  0
 15 21  1  6  0  0  0
 15 17  1  0  0  0  0
 16 19  1  0  0  0  0
 17 16  1  0  0  0  0
 17 13  1  1  0  0  0
 18 15  1  0  0  0  0
 18 14  1  0  0  0  0
 19 20  1  0  0  0  0
 22 21  2  0  0  0  0
 23 21  1  0  0  0  0
 23 24  1  0  0  0  0
 25 26  1  0  0  0  0
 27 26  1  0  0  0  0
 28 27  1  0  0  0  0
M  END
>  <MODEL>
8

>  <REMARK>
 VINA RESULT:      -6.3      1.894      3.701
  Name = 
  9 active torsions:
  status: ('A' for Active; 'I' for Inactive)
    1  A    between atoms: C_2  and  N_20
    2  A    between atoms: C_4  and  C_7
    3  A    between atoms: O_5  and  C_8
    4  A    between atoms: O_5  and  C_21
    5  A    between atoms: C_6  and  N_22
    6  A    between atoms: C_7  and  O_16
    7  A    between atoms: S_9  and  C_12
    8  A    between atoms: C_12  and  N_20
    9  A    between atoms: C_21  and  C_25
                            x       y       z     vdW  Elec       q    Type
                         _______ _______ _______ _____ _____    ______ ____

>  <TORSDO>
F 9

$$$$
=
 OpenBabel10222416573D

 28 30  0  0  1  0  0  0  0  0999 V2000
  187.3900  178.2420  137.4150 C   0  0  2  0  0  3  0  0  0  0  0  0
  186.7360  177.4050  136.3030 C   0  0  0  0  0  2  0  0  0  0  0  0
  190.4160  176.5810  139.0730 C   0  0  2  0  0  3  0  0  0  0  0  0
  189.5420  175.7040  136.8910 C   0  0  2  0  0  3  0  0  0  0  0  0
  191.7510  176.7490  138.3520 C   0  0  0  0  0  2  0  0  0  0  0  0
  191.7890  175.7750  137.1760 C   0  0  0  0  0  2  0  0  0  0  0  0
  188.4370  175.6520  135.8300 C   0  0  0  0  0  2  0  0  0  0  0  0
  188.8960  178.0520  137.6500 C   0  0  0  0  0  2  0  0  0  0  0  0
  187.0430  175.9130  136.3830 C   0  0  0  0  0  2  0  0  0  0  0  0
  189.2370  176.6270  138.0920 C   0  0  2  0  0  3  0  0  0  0  0  0
  190.7540  176.0750  136.2740 O   0  0  0  0  0  0  0  0  0  0  0  0
  190.2810  177.5390  140.0800 O   0  0  0  0  0  0  0  0  0  0  0  0
  190.5890  176.8610  141.2600 C   0  0  0  0  0  2  0  0  0  0  0  0
  187.9260  176.3790  143.4000 C   0  0  0  0  0  2  0  0  0  0  0  0
  190.1080  176.7220  143.6880 C   0  0  2  0  0  3  0  0  0  0  0  0
  188.3410  177.0510  142.1720 N   0  0  0  0  0  0  0  0  0  0  0  0
  189.7290  177.3880  142.3940 C   0  0  2  0  0  3  0  0  0  0  0  0
  188.9160  176.5090  144.3890 O   0  0  0  0  0  0  0  0  0  0  0  0
  187.6080  178.3050  142.0960 C   0  0  0  0  0  2  0  0  0  0  0  0
  186.2930  178.1760  142.8400 C   0  0  0  0  0  1  0  0  0  0  0  0
  191.0500  177.5720  144.4910 C   0  0  0  0  0  0  0  0  0  0  0  0
  191.0960  178.8500  144.2800 N   0  0  0  0  0  2  0  0  0  0  0  0
  191.8110  176.9960  145.5150 O   0  0  0  0  0  0  0  0  0  0  0  0
  191.2830  176.7550  146.8110 C   0  0  0  0  0  1  0  0  0  0  0  0
  186.5960  178.3370  138.6450 N   0  0  0  0  0  2  0  0  0  0  0  0
  185.1680  178.3180  138.3490 C   0  0  0  0  0  2  0  0  0  0  0  0
  184.2410  178.9970  139.7530 S   0  0  0  0  0  0  0  0  0  0  0  0
  183.1560  177.5470  139.8620 C   0  0  0  0  0  1  0  0  0  0  0  0
  1  8  1  0  0  0  0
  1 25  1  1  0  0  0
  2  9  1  0  0  0  0
  2  1  1  0  0  0  0
  3 12  1  1  0  0  0
  4  7  1  6  0  0  0
  4 10  1  0  0  0  0
  5  3  1  0  0  0  0
  6  5  1  0  0  0  0
  7  9  1  0  0  0  0
 10  8  1  6  0  0  0
 10  3  1  0  0  0  0
 11  4  1  0  0  0  0
 11  6  1  0  0  0  0
 12 13  1  0  0  0  0
 14 18  1  0  0  0  0
 15 18  1  0  0  0  0
 15 21  1  1  0  0  0
 16 17  1  0  0  0  0
 16 14  1  0  0  0  0
 17 13  1  6  0  0  0
 17 15  1  0  0  0  0
 19 16  1  0  0  0  0
 19 20  1  0  0  0  0
 21 23  1  0  0  0  0
 22 21  2  0  0  0  0
 23 24  1  0  0  0  0
 26 25  1  0  0  0  0
 26 27  1  0  0  0  0
 27 28  1  0  0  0  0
M  END
>  <MODEL>
9

>  <REMARK>
 VINA RESULT:      -6.1      2.154      6.829
  Name = 
  9 active torsions:
  status: ('A' for Active; 'I' for Inactive)
    1  A    between atoms: C_2  and  N_20
    2  A    between atoms: C_4  and  C_7
    3  A    between atoms: O_5  and  C_8
    4  A    between atoms: O_5  and  C_21
    5  A    between atoms: C_6  and  N_22
    6  A    between atoms: C_7  and  O_16
    7  A    between atoms: S_9  and  C_12
    8  A    between atoms: C_12  and  N_20
    9  A    between atoms: C_21  and  C_25
                            x       y       z     vdW  Elec       q    Type
                         _______ _______ _______ _____ _____    ______ ____

>  <TORSDO>
F 9

$$$$
