=
 OpenBabel10222417213D

 43 48  0  0  1  0  0  0  0  0999 V2000
  184.9310  178.4950  146.6610 N   0  0  0  0  0  2  0  0  0  0  0  0
  183.0590  178.6400  145.2390 N   0  0  0  0  0  0  0  0  0  0  0  0
  183.8200  178.9950  140.7770 C   0  0  0  0  0  0  0  0  0  0  0  0
  183.1650  178.7980  142.8470 C   0  0  0  0  0  0  0  0  0  0  0  0
  185.2930  178.8000  144.1230 C   0  0  2  0  0  3  0  0  0  0  0  0
  181.3160  179.0130  141.3570 C   0  0  0  0  0  3  0  0  0  0  0  0
  182.3930  178.7520  143.9710 C   0  0  0  0  0  0  0  0  0  0  0  0
  184.9380  178.9210  141.5590 N   0  0  0  0  0  0  0  0  0  0  0  0
  182.6900  178.9240  141.5860 C   0  0  0  0  0  0  0  0  0  0  0  0
  185.9830  179.9940  144.2330 F   0  0  0  0  0  0  0  0  0  0  0  0
  180.4630  178.9480  142.4900 C   0  0  0  0  0  3  0  0  0  0  0  0
  184.5090  178.8010  142.8390 C   0  0  0  0  0  0  0  0  0  0  0  0
  180.9980  178.8170  143.8020 C   0  0  0  0  0  3  0  0  0  0  0  0
  184.3710  178.6280  145.3480 C   0  0  0  0  0  0  0  0  0  0  0  0
  186.9020  178.8510  148.1080 O   0  0  0  0  0  0  0  0  0  0  0  0
  188.2350  178.6270  148.4040 N   0  0  0  0  0  2  0  0  0  0  0  0
  186.3080  178.2710  146.9760 C   0  0  0  0  0  0  0  0  0  0  0  0
  189.0300  177.8010  147.5470 C   0  0  0  0  0  3  0  0  0  0  0  0
  188.4670  177.2570  146.4680 C   0  0  0  0  0  3  0  0  0  0  0  0
  187.0460  177.5030  146.1690 C   0  0  0  0  0  3  0  0  0  0  0  0
  186.3200  179.0630  141.1150 C   0  0  0  0  0  2  0  0  0  0  0  0
  187.1550  177.8980  141.6120 C   0  0  0  0  0  1  0  0  0  0  0  0
  183.8300  179.1730  139.2840 C   0  0  0  0  0  2  0  0  0  0  0  0
  183.4480  176.6860  139.4110 C   0  0  0  0  0  1  0  0  0  0  0  0
  183.7570  177.8550  138.4890 C   0  0  2  0  0  0  0  0  0  0  0  0
  185.1050  177.5930  137.8180 C   0  0  0  0  0  2  0  0  0  0  0  0
  185.9690  178.6810  137.9680 O   0  0  0  0  0  0  0  0  0  0  0  0
  187.2240  177.9730  135.7860 O   0  0  0  0  0  0  0  0  0  0  0  0
  187.4310  178.1850  137.2680 P   0  0  0  0  0  0  0  0  0  0  0  0
  188.6080  179.3780  137.5000 O   0  0  0  0  0  1  0  0  0  0  0  0
  187.9490  176.7340  137.9690 O   0  0  0  0  0  1  0  0  0  0  0  0
  182.6640  177.9090  137.4190 C   0  0  0  0  0  2  0  0  0  0  0  0
  181.7290  179.1130  137.5810 C   0  0  1  0  0  3  0  0  0  0  0  0
  180.7680  179.1440  136.4100 C   0  0  1  0  0  3  0  0  0  0  0  0
  180.2440  178.7770  137.7900 C   0  0  1  0  0  3  0  0  0  0  0  0
  180.4090  180.5820  136.1070 C   0  0  0  0  0  1  0  0  0  0  0  0
  179.9050  176.6730  139.1460 C   0  0  0  0  0  3  0  0  0  0  0  0
  179.4460  174.5750  138.0380 C   0  0  0  0  0  3  0  0  0  0  0  0
  179.6530  175.3020  139.2120 C   0  0  0  0  0  0  0  0  0  0  0  0
  179.4970  175.2360  136.8100 C   0  0  0  0  0  3  0  0  0  0  0  0
  179.7400  176.5750  136.7650 N   0  0  0  0  0  0  0  0  0  0  0  0
  179.6180  174.6770  140.4120 F   0  0  0  0  0  0  0  0  0  0  0  0
  179.9280  177.3090  137.8980 C   0  0  0  0  0  0  0  0  0  0  0  0
  1 17  1  0  0  0  0
  2 14  2  0  0  0  0
  3  8  1  0  0  0  0
  3  9  2  0  0  0  0
  4  7  1  0  0  0  0
  5 10  1  1  0  0  0
  5 14  1  0  0  0  0
  6  9  1  0  0  0  0
  6 11  2  0  0  0  0
  7  2  1  0  0  0  0
  8 12  1  0  0  0  0
  9  4  1  0  0  0  0
 11 13  1  0  0  0  0
 12  4  2  0  0  0  0
 12  5  1  0  0  0  0
 13  7  2  0  0  0  0
 14  1  1  0  0  0  0
 15 16  1  0  0  0  0
 17 15  1  0  0  0  0
 18 16  1  0  0  0  0
 19 18  2  0  0  0  0
 20 19  1  0  0  0  0
 20 17  2  0  0  0  0
 21  8  1  0  0  0  0
 21 22  1  0  0  0  0
 23  3  1  0  0  0  0
 25 23  1  0  0  0  0
 25 24  1  1  0  0  0
 26 27  1  0  0  0  0
 26 25  1  0  0  0  0
 28 29  2  0  0  0  0
 29 30  1  0  0  0  0
 29 27  1  0  0  0  0
 29 31  1  0  0  0  0
 32 25  1  0  0  0  0
 33 32  1  6  0  0  0
 33 35  1  0  0  0  0
 34 36  1  1  0  0  0
 34 33  1  0  0  0  0
 34 35  1  0  0  0  0
 35 43  1  6  0  0  0
 37 39  1  0  0  0  0
 38 39  2  0  0  0  0
 39 42  1  0  0  0  0
 40 38  1  0  0  0  0
 41 40  2  0  0  0  0
 41 43  1  0  0  0  0
 43 37  2  0  0  0  0
M  END
>  <MODEL>
1

>  <REMARK>
 VINA RESULT:      -7.6      0.000      0.000
  Name = 
  10 active torsions:
  status: ('A' for Active; 'I' for Inactive)
    1  A    between atoms: C_1  and  C_21
    2  A    between atoms: N_3  and  C_17
    3  A    between atoms: C_6  and  C_38
    4  A    between atoms: C_9  and  O_20
    5  A    between atoms: C_9  and  C_35
    6  A    between atoms: P_15  and  O_20
    7  A    between atoms: N_16  and  C_26
    8  A    between atoms: C_21  and  C_35
    9  A    between atoms: C_29  and  C_41
   10  A    between atoms: C_35  and  C_38
                            x       y       z     vdW  Elec       q    Type
                         _______ _______ _______ _____ _____    ______ ____

>  <TORSDO>
F 10

$$$$
=
 OpenBabel10222417213D

 43 48  0  0  1  0  0  0  0  0999 V2000
  179.3680  182.1030  138.5820 N   0  0  0  0  0  2  0  0  0  0  0  0
  179.6110  180.9220  140.6060 N   0  0  0  0  0  0  0  0  0  0  0  0
  183.4260  178.5360  141.2130 C   0  0  0  0  0  0  0  0  0  0  0  0
  181.5310  179.6140  141.2070 C   0  0  0  0  0  0  0  0  0  0  0  0
  181.4670  180.6450  138.9510 C   0  0  2  0  0  3  0  0  0  0  0  0
  181.8130  178.3450  143.2050 C   0  0  0  0  0  3  0  0  0  0  0  0
  180.2900  180.0710  141.5430 C   0  0  0  0  0  0  0  0  0  0  0  0
  183.3300  179.1960  140.0210 N   0  0  0  0  0  0  0  0  0  0  0  0
  182.2860  178.7900  141.9690 C   0  0  0  0  0  0  0  0  0  0  0  0
  181.2430  179.8180  137.8650 F   0  0  0  0  0  0  0  0  0  0  0  0
  180.5350  178.8060  143.6160 C   0  0  0  0  0  3  0  0  0  0  0  0
  182.1480  179.8580  140.0370 C   0  0  0  0  0  0  0  0  0  0  0  0
  179.7680  179.6710  142.7860 C   0  0  0  0  0  3  0  0  0  0  0  0
  180.1240  181.2310  139.4330 C   0  0  0  0  0  0  0  0  0  0  0  0
  179.7560  182.0240  136.1440 O   0  0  0  0  0  0  0  0  0  0  0  0
  180.1990  182.6170  134.9740 N   0  0  0  0  0  2  0  0  0  0  0  0
  179.8240  182.7060  137.3670 C   0  0  0  0  0  0  0  0  0  0  0  0
  180.7430  183.9410  135.0050 C   0  0  0  0  0  3  0  0  0  0  0  0
  180.8150  184.5850  136.1690 C   0  0  0  0  0  3  0  0  0  0  0  0
  180.3360  183.9400  137.4040 C   0  0  0  0  0  3  0  0  0  0  0  0
  184.2640  179.1120  138.9030 C   0  0  0  0  0  2  0  0  0  0  0  0
  183.9380  177.9120  138.0340 C   0  0  0  0  0  1  0  0  0  0  0  0
  184.5690  177.6420  141.6070 C   0  0  0  0  0  2  0  0  0  0  0  0
  185.3930  179.6910  142.8200 C   0  0  0  0  0  1  0  0  0  0  0  0
  185.8030  178.3910  142.1440 C   0  0  2  0  0  0  0  0  0  0  0  0
  186.7350  178.7310  140.9820 C   0  0  0  0  0  2  0  0  0  0  0  0
  187.9590  178.0660  141.0990 O   0  0  0  0  0  0  0  0  0  0  0  0
  187.3960  177.3280  138.6550 O   0  0  0  0  0  0  0  0  0  0  0  0
  188.5150  177.8770  139.5090 P   0  0  0  0  0  0  0  0  0  0  0  0
  189.0000  179.3760  138.8920 O   0  0  0  0  0  1  0  0  0  0  0  0
  189.8210  176.8010  139.4740 O   0  0  0  0  0  1  0  0  0  0  0  0
  186.5640  177.5500  143.1710 C   0  0  0  0  0  2  0  0  0  0  0  0
  186.6370  178.2140  144.5510 C   0  0  1  0  0  3  0  0  0  0  0  0
  187.0900  177.1840  145.5640 C   0  0  1  0  0  3  0  0  0  0  0  0
  188.0410  178.3040  145.1710 C   0  0  1  0  0  3  0  0  0  0  0  0
  186.4680  177.5060  146.9050 C   0  0  0  0  0  1  0  0  0  0  0  0
  189.3570  176.4350  144.0980 C   0  0  0  0  0  3  0  0  0  0  0  0
  191.3060  176.9340  142.7590 C   0  0  0  0  0  3  0  0  0  0  0  0
  190.4300  176.0020  143.3170 C   0  0  0  0  0  0  0  0  0  0  0  0
  191.0940  178.2930  142.9950 C   0  0  0  0  0  3  0  0  0  0  0  0
  190.0400  178.6980  143.7560 N   0  0  0  0  0  0  0  0  0  0  0  0
  190.6250  174.6780  143.1080 F   0  0  0  0  0  0  0  0  0  0  0  0
  189.1600  177.8080  144.2960 C   0  0  0  0  0  0  0  0  0  0  0  0
  1 14  1  0  0  0  0
  2  7  1  0  0  0  0
  3 23  1  0  0  0  0
  3  9  2  0  0  0  0
  4  7  1  0  0  0  0
  4  9  1  0  0  0  0
  5 10  1  6  0  0  0
  5 14  1  0  0  0  0
  5 12  1  0  0  0  0
  6 11  2  0  0  0  0
  7 13  2  0  0  0  0
  8 12  1  0  0  0  0
  8  3  1  0  0  0  0
  9  6  1  0  0  0  0
 12  4  2  0  0  0  0
 13 11  1  0  0  0  0
 14  2  2  0  0  0  0
 15 17  1  0  0  0  0
 16 18  1  0  0  0  0
 16 15  1  0  0  0  0
 17 20  2  0  0  0  0
 17  1  1  0  0  0  0
 18 19  2  0  0  0  0
 19 20  1  0  0  0  0
 21  8  1  0  0  0  0
 22 21  1  0  0  0  0
 23 25  1  0  0  0  0
 25 24  1  1  0  0  0
 25 32  1  0  0  0  0
 26 27  1  0  0  0  0
 26 25  1  0  0  0  0
 28 29  2  0  0  0  0
 29 27  1  0  0  0  0
 30 29  1  0  0  0  0
 31 29  1  0  0  0  0
 33 32  1  6  0  0  0
 33 35  1  0  0  0  0
 33 34  1  0  0  0  0
 34 36  1  1  0  0  0
 35 43  1  6  0  0  0
 35 34  1  0  0  0  0
 37 43  1  0  0  0  0
 38 40  2  0  0  0  0
 38 39  1  0  0  0  0
 39 37  2  0  0  0  0
 40 41  1  0  0  0  0
 41 43  2  0  0  0  0
 42 39  1  0  0  0  0
M  END
>  <MODEL>
2

>  <REMARK>
 VINA RESULT:      -7.6      3.270      8.762
  Name = 
  10 active torsions:
  status: ('A' for Active; 'I' for Inactive)
    1  A    between atoms: C_1  and  C_21
    2  A    between atoms: N_3  and  C_17
    3  A    between atoms: C_6  and  C_38
    4  A    between atoms: C_9  and  O_20
    5  A    between atoms: C_9  and  C_35
    6  A    between atoms: P_15  and  O_20
    7  A    between atoms: N_16  and  C_26
    8  A    between atoms: C_21  and  C_35
    9  A    between atoms: C_29  and  C_41
   10  A    between atoms: C_35  and  C_38
                            x       y       z     vdW  Elec       q    Type
                         _______ _______ _______ _____ _____    ______ ____

>  <TORSDO>
F 10

$$$$
=
 OpenBabel10222417213D

 43 48  0  0  1  0  0  0  0  0999 V2000
  188.0610  177.3530  146.4530 N   0  0  0  0  0  2  0  0  0  0  0  0
  185.8850  177.9750  145.7980 N   0  0  0  0  0  0  0  0  0  0  0  0
  185.1980  178.9580  141.4190 C   0  0  0  0  0  0  0  0  0  0  0  0
  185.2310  178.5100  143.5530 C   0  0  0  0  0  0  0  0  0  0  0  0
  187.6220  178.0220  143.9980 C   0  0  2  0  0  3  0  0  0  0  0  0
  183.0670  179.2070  142.8350 C   0  0  0  0  0  3  0  0  0  0  0  0
  184.8730  178.3800  144.8630 C   0  0  0  0  0  0  0  0  0  0  0  0
  186.4780  178.6100  141.7490 N   0  0  0  0  0  0  0  0  0  0  0  0
  184.4010  178.9030  142.5590 C   0  0  0  0  0  0  0  0  0  0  0  0
  188.5130  179.0810  143.9920 F   0  0  0  0  0  0  0  0  0  0  0  0
  182.6340  179.0690  144.1790 C   0  0  0  0  0  3  0  0  0  0  0  0
  186.4760  178.3380  143.0760 C   0  0  0  0  0  0  0  0  0  0  0  0
  183.5350  178.6550  145.1990 C   0  0  0  0  0  3  0  0  0  0  0  0
  187.1360  177.7730  145.4410 C   0  0  0  0  0  0  0  0  0  0  0  0
  189.9030  176.6830  144.9500 O   0  0  0  0  0  0  0  0  0  0  0  0
  191.2020  176.2470  144.7560 N   0  0  0  0  0  2  0  0  0  0  0  0
  189.4020  176.9020  146.2410 C   0  0  0  0  0  0  0  0  0  0  0  0
  192.0510  176.0060  145.8830 C   0  0  0  0  0  3  0  0  0  0  0  0
  191.5720  176.2060  147.1100 C   0  0  0  0  0  3  0  0  0  0  0  0
  190.1880  176.6730  147.2980 C   0  0  0  0  0  3  0  0  0  0  0  0
  187.6400  178.6410  140.8690 C   0  0  0  0  0  2  0  0  0  0  0  0
  188.4570  177.3720  141.0310 C   0  0  0  0  0  1  0  0  0  0  0  0
  184.7510  179.3760  140.0460 C   0  0  0  0  0  2  0  0  0  0  0  0
  183.7180  177.0790  140.0980 C   0  0  0  0  0  1  0  0  0  0  0  0
  184.1300  178.2420  139.2090 C   0  0  2  0  0  0  0  0  0  0  0  0
  185.1610  177.7320  138.2020 C   0  0  0  0  0  2  0  0  0  0  0  0
  186.1230  178.7050  137.9200 O   0  0  0  0  0  0  0  0  0  0  0  0
  187.5690  176.5400  137.6810 O   0  0  0  0  0  1  0  0  0  0  0  0
  187.3340  177.8940  137.0550 P   0  0  0  0  0  0  0  0  0  0  0  0
  186.8450  177.6860  135.4480 O   0  0  0  0  0  0  0  0  0  0  0  0
  188.7740  178.7830  137.0970 O   0  0  0  0  0  1  0  0  0  0  0  0
  182.8860  178.7200  138.4570 C   0  0  0  0  0  2  0  0  0  0  0  0
  181.5970  178.0530  138.9520 C   0  0  1  0  0  3  0  0  0  0  0  0
  180.8620  179.0230  139.8540 C   0  0  1  0  0  3  0  0  0  0  0  0
  180.2880  178.7070  138.4810 C   0  0  1  0  0  3  0  0  0  0  0  0
  180.1040  178.2400  140.9030 C   0  0  0  0  0  1  0  0  0  0  0  0
  180.5140  181.1760  137.9990 C   0  0  0  0  0  3  0  0  0  0  0  0
  180.6550  181.9600  135.7170 C   0  0  0  0  0  3  0  0  0  0  0  0
  180.6240  182.2260  137.0870 C   0  0  0  0  0  0  0  0  0  0  0  0
  180.5720  180.6370  135.2790 C   0  0  0  0  0  3  0  0  0  0  0  0
  180.4690  179.6240  136.1830 N   0  0  0  0  0  0  0  0  0  0  0  0
  180.6930  183.5040  137.5300 F   0  0  0  0  0  0  0  0  0  0  0  0
  180.4550  179.8580  137.5260 C   0  0  0  0  0  0  0  0  0  0  0  0
  3  8  1  0  0  0  0
  3  9  2  0  0  0  0
  4  7  1  0  0  0  0
  5 10  1  1  0  0  0
  5 14  1  0  0  0  0
  6 11  2  0  0  0  0
  7 13  2  0  0  0  0
  7  2  1  0  0  0  0
  8 12  1  0  0  0  0
  9  6  1  0  0  0  0
  9  4  1  0  0  0  0
 11 13  1  0  0  0  0
 12  4  2  0  0  0  0
 12  5  1  0  0  0  0
 14  2  2  0  0  0  0
 14  1  1  0  0  0  0
 15 17  1  0  0  0  0
 16 15  1  0  0  0  0
 16 18  1  0  0  0  0
 17  1  1  0  0  0  0
 17 20  2  0  0  0  0
 18 19  2  0  0  0  0
 19 20  1  0  0  0  0
 21 22  1  0  0  0  0
 21  8  1  0  0  0  0
 23  3  1  0  0  0  0
 25 23  1  0  0  0  0
 25 24  1  1  0  0  0
 26 25  1  0  0  0  0
 27 26  1  0  0  0  0
 29 31  1  0  0  0  0
 29 28  1  0  0  0  0
 29 27  1  0  0  0  0
 30 29  2  0  0  0  0
 32 25  1  0  0  0  0
 33 32  1  6  0  0  0
 33 34  1  0  0  0  0
 34 36  1  1  0  0  0
 35 43  1  6  0  0  0
 35 33  1  0  0  0  0
 35 34  1  0  0  0  0
 38 39  1  0  0  0  0
 39 42  1  0  0  0  0
 39 37  2  0  0  0  0
 40 38  2  0  0  0  0
 40 41  1  0  0  0  0
 41 43  2  0  0  0  0
 43 37  1  0  0  0  0
M  END
>  <MODEL>
3

>  <REMARK>
 VINA RESULT:      -7.6      2.330      3.537
  Name = 
  10 active torsions:
  status: ('A' for Active; 'I' for Inactive)
    1  A    between atoms: C_1  and  C_21
    2  A    between atoms: N_3  and  C_17
    3  A    between atoms: C_6  and  C_38
    4  A    between atoms: C_9  and  O_20
    5  A    between atoms: C_9  and  C_35
    6  A    between atoms: P_15  and  O_20
    7  A    between atoms: N_16  and  C_26
    8  A    between atoms: C_21  and  C_35
    9  A    between atoms: C_29  and  C_41
   10  A    between atoms: C_35  and  C_38
                            x       y       z     vdW  Elec       q    Type
                         _______ _______ _______ _____ _____    ______ ____

>  <TORSDO>
F 10

$$$$
=
 OpenBabel10222417213D

 43 48  0  0  1  0  0  0  0  0999 V2000
  187.9500  177.4500  146.4070 N   0  0  0  0  0  2  0  0  0  0  0  0
  185.7820  178.0110  145.6760 N   0  0  0  0  0  0  0  0  0  0  0  0
  185.2070  178.8970  141.2600 C   0  0  0  0  0  0  0  0  0  0  0  0
  185.1840  178.4900  143.4020 C   0  0  0  0  0  0  0  0  0  0  0  0
  187.5710  178.0640  143.9280 C   0  0  2  0  0  3  0  0  0  0  0  0
  183.0290  179.1260  142.6070 C   0  0  0  0  0  3  0  0  0  0  0  0
  184.7900  178.3770  144.7040 C   0  0  0  0  0  0  0  0  0  0  0  0
  186.4830  178.5840  141.6350 N   0  0  0  0  0  0  0  0  0  0  0  0
  184.3770  178.8460  142.3760 C   0  0  0  0  0  0  0  0  0  0  0  0
  188.4390  179.1410  143.9280 F   0  0  0  0  0  0  0  0  0  0  0  0
  182.5580  179.0030  143.9400 C   0  0  0  0  0  3  0  0  0  0  0  0
  186.4470  178.3360  142.9660 C   0  0  0  0  0  0  0  0  0  0  0  0
  183.4370  178.6280  144.9940 C   0  0  0  0  0  3  0  0  0  0  0  0
  187.0470  177.8300  145.3600 C   0  0  0  0  0  0  0  0  0  0  0  0
  189.8650  176.8400  144.9710 O   0  0  0  0  0  0  0  0  0  0  0  0
  191.1780  176.4280  144.8240 N   0  0  0  0  0  2  0  0  0  0  0  0
  189.3060  177.0240  146.2440 C   0  0  0  0  0  0  0  0  0  0  0  0
  191.9830  176.1780  145.9820 C   0  0  0  0  0  3  0  0  0  0  0  0
  191.4490  176.3460  147.1910 C   0  0  0  0  0  3  0  0  0  0  0  0
  190.0500  176.7870  147.3290 C   0  0  0  0  0  3  0  0  0  0  0  0
  187.6710  178.6240  140.7900 C   0  0  0  0  0  2  0  0  0  0  0  0
  188.5400  177.4070  141.0450 C   0  0  0  0  0  1  0  0  0  0  0  0
  184.7930  179.2800  139.8670 C   0  0  0  0  0  2  0  0  0  0  0  0
  183.5100  177.1220  140.0700 C   0  0  0  0  0  1  0  0  0  0  0  0
  184.0280  178.1790  139.1080 C   0  0  2  0  0  0  0  0  0  0  0  0
  184.9700  177.5000  138.1140 C   0  0  0  0  0  2  0  0  0  0  0  0
  186.0190  178.3480  137.7460 O   0  0  0  0  0  0  0  0  0  0  0  0
  188.4500  177.4220  137.4810 O   0  0  0  0  0  1  0  0  0  0  0  0
  187.0790  177.3760  136.8480 P   0  0  0  0  0  0  0  0  0  0  0  0
  186.5220  175.7780  136.8430 O   0  0  0  0  0  1  0  0  0  0  0  0
  187.1820  177.9440  135.2570 O   0  0  0  0  0  0  0  0  0  0  0  0
  182.8270  178.7530  138.3520 C   0  0  0  0  0  2  0  0  0  0  0  0
  182.3760  180.1140  138.8940 C   0  0  1  0  0  3  0  0  0  0  0  0
  181.2490  180.6340  138.0260 C   0  0  1  0  0  3  0  0  0  0  0  0
  180.9420  180.1700  139.4420 C   0  0  1  0  0  3  0  0  0  0  0  0
  181.3060  182.1460  138.0000 C   0  0  0  0  0  1  0  0  0  0  0  0
  180.1810  178.0630  140.6090 C   0  0  0  0  0  3  0  0  0  0  0  0
  178.9370  176.3840  139.3960 C   0  0  0  0  0  3  0  0  0  0  0  0
  179.5330  176.8280  140.5770 C   0  0  0  0  0  0  0  0  0  0  0  0
  179.0030  177.1880  138.2570 C   0  0  0  0  0  3  0  0  0  0  0  0
  179.6360  178.3920  138.3070 N   0  0  0  0  0  0  0  0  0  0  0  0
  179.4880  176.0570  141.6900 F   0  0  0  0  0  0  0  0  0  0  0  0
  180.2100  178.8540  139.4530 C   0  0  0  0  0  0  0  0  0  0  0  0
  3  8  1  0  0  0  0
  3  9  2  0  0  0  0
  4  7  1  0  0  0  0
  5 10  1  1  0  0  0
  5 14  1  0  0  0  0
  6 11  2  0  0  0  0
  7 13  2  0  0  0  0
  7  2  1  0  0  0  0
  8 12  1  0  0  0  0
  9  6  1  0  0  0  0
  9  4  1  0  0  0  0
 11 13  1  0  0  0  0
 12  4  2  0  0  0  0
 12  5  1  0  0  0  0
 14  2  2  0  0  0  0
 14  1  1  0  0  0  0
 15 17  1  0  0  0  0
 16 15  1  0  0  0  0
 16 18  1  0  0  0  0
 17  1  1  0  0  0  0
 17 20  2  0  0  0  0
 18 19  2  0  0  0  0
 19 20  1  0  0  0  0
 21 22  1  0  0  0  0
 21  8  1  0  0  0  0
 23  3  1  0  0  0  0
 25 23  1  0  0  0  0
 25 24  1  1  0  0  0
 26 25  1  0  0  0  0
 27 26  1  0  0  0  0
 29 28  1  0  0  0  0
 29 27  1  0  0  0  0
 30 29  1  0  0  0  0
 31 29  2  0  0  0  0
 32 25  1  0  0  0  0
 33 32  1  6  0  0  0
 33 35  1  0  0  0  0
 34 36  1  1  0  0  0
 34 33  1  0  0  0  0
 34 35  1  0  0  0  0
 35 43  1  6  0  0  0
 38 39  2  0  0  0  0
 39 37  1  0  0  0  0
 39 42  1  0  0  0  0
 40 41  2  0  0  0  0
 40 38  1  0  0  0  0
 41 43  1  0  0  0  0
 43 37  2  0  0  0  0
M  END
>  <MODEL>
4

>  <REMARK>
 VINA RESULT:      -7.5      1.899      2.511
  Name = 
  10 active torsions:
  status: ('A' for Active; 'I' for Inactive)
    1  A    between atoms: C_1  and  C_21
    2  A    between atoms: N_3  and  C_17
    3  A    between atoms: C_6  and  C_38
    4  A    between atoms: C_9  and  O_20
    5  A    between atoms: C_9  and  C_35
    6  A    between atoms: P_15  and  O_20
    7  A    between atoms: N_16  and  C_26
    8  A    between atoms: C_21  and  C_35
    9  A    between atoms: C_29  and  C_41
   10  A    between atoms: C_35  and  C_38
                            x       y       z     vdW  Elec       q    Type
                         _______ _______ _______ _____ _____    ______ ____

>  <TORSDO>
F 10

$$$$
=
 OpenBabel10222417213D

 43 48  0  0  1  0  0  0  0  0999 V2000
  190.5760  176.6880  141.2840 N   0  0  0  0  0  2  0  0  0  0  0  0
  189.3060  176.8860  139.3110 N   0  0  0  0  0  0  0  0  0  0  0  0
  185.3070  179.0200  139.5790 C   0  0  0  0  0  0  0  0  0  0  0  0
  187.1820  177.9920  139.1540 C   0  0  0  0  0  0  0  0  0  0  0  0
  188.2480  177.8000  141.3860 C   0  0  2  0  0  3  0  0  0  0  0  0
  185.8180  178.1720  137.2070 C   0  0  0  0  0  3  0  0  0  0  0  0
  188.1730  177.2940  138.5270 C   0  0  0  0  0  0  0  0  0  0  0  0
  186.0010  178.9240  140.7520 N   0  0  0  0  0  0  0  0  0  0  0  0
  186.0460  178.4260  138.5610 C   0  0  0  0  0  0  0  0  0  0  0  0
  187.7120  176.8960  142.2860 F   0  0  0  0  0  0  0  0  0  0  0  0
  186.8270  177.4680  136.4990 C   0  0  0  0  0  3  0  0  0  0  0  0
  187.1600  178.2830  140.4660 C   0  0  0  0  0  0  0  0  0  0  0  0
  188.0090  177.0260  137.1560 C   0  0  0  0  0  3  0  0  0  0  0  0
  189.3920  177.1230  140.6030 C   0  0  0  0  0  0  0  0  0  0  0  0
  191.3270  178.3120  142.9870 O   0  0  0  0  0  0  0  0  0  0  0  0
  191.6850  178.6130  144.2900 N   0  0  0  0  0  2  0  0  0  0  0  0
  190.9480  177.0100  142.6280 C   0  0  0  0  0  0  0  0  0  0  0  0
  191.6770  177.5890  145.2900 C   0  0  0  0  0  3  0  0  0  0  0  0
  191.3230  176.3510  144.9460 C   0  0  0  0  0  3  0  0  0  0  0  0
  190.9430  176.0480  143.5550 C   0  0  0  0  0  3  0  0  0  0  0  0
  185.5340  179.3280  142.0730 C   0  0  0  0  0  2  0  0  0  0  0  0
  184.8290  178.1730  142.7590 C   0  0  0  0  0  1  0  0  0  0  0  0
  183.9400  179.6320  139.4400 C   0  0  0  0  0  2  0  0  0  0  0  0
  181.7890  178.9340  138.3300 C   0  0  0  0  0  1  0  0  0  0  0  0
  182.7870  178.6110  139.4320 C   0  0  2  0  0  0  0  0  0  0  0  0
  182.0530  178.6640  140.7710 C   0  0  0  0  0  2  0  0  0  0  0  0
  180.8340  179.3390  140.6580 O   0  0  0  0  0  0  0  0  0  0  0  0
  179.7470  180.8730  142.4750 O   0  0  0  0  0  1  0  0  0  0  0  0
  180.2490  179.4670  142.2430 P   0  0  0  0  0  0  0  0  0  0  0  0
  178.9750  178.3770  142.4710 O   0  0  0  0  0  0  0  0  0  0  0  0
  181.4860  179.1290  143.3480 O   0  0  0  0  0  1  0  0  0  0  0  0
  183.3010  177.1890  139.1950 C   0  0  0  0  0  2  0  0  0  0  0  0
  182.3750  176.1150  139.7760 C   0  0  1  0  0  3  0  0  0  0  0  0
  181.1410  176.0130  138.9040 C   0  0  1  0  0  3  0  0  0  0  0  0
  182.1530  174.8790  138.8890 C   0  0  1  0  0  3  0  0  0  0  0  0
  179.9610  175.6170  139.7650 C   0  0  0  0  0  1  0  0  0  0  0  0
  184.2540  174.3420  137.5930 C   0  0  0  0  0  3  0  0  0  0  0  0
  184.4230  174.9320  135.2560 C   0  0  0  0  0  3  0  0  0  0  0  0
  184.9850  174.3740  136.4050 C   0  0  0  0  0  0  0  0  0  0  0  0
  183.1300  175.4540  135.3160 C   0  0  0  0  0  3  0  0  0  0  0  0
  182.4290  175.4110  136.4820 N   0  0  0  0  0  0  0  0  0  0  0  0
  186.2420  173.8720  136.3700 F   0  0  0  0  0  0  0  0  0  0  0  0
  182.9500  174.8560  137.6120 C   0  0  0  0  0  0  0  0  0  0  0  0
  1 17  1  0  0  0  0
  2 14  2  0  0  0  0
  3  8  1  0  0  0  0
  4 12  2  0  0  0  0
  5 10  1  1  0  0  0
  6  9  1  0  0  0  0
  7  4  1  0  0  0  0
  7  2  1  0  0  0  0
  8 21  1  0  0  0  0
  9  4  1  0  0  0  0
  9  3  2  0  0  0  0
 11 13  1  0  0  0  0
 11  6  2  0  0  0  0
 12  8  1  0  0  0  0
 12  5  1  0  0  0  0
 13  7  2  0  0  0  0
 14  1  1  0  0  0  0
 14  5  1  0  0  0  0
 15 16  1  0  0  0  0
 16 18  1  0  0  0  0
 17 15  1  0  0  0  0
 17 20  2  0  0  0  0
 19 18  2  0  0  0  0
 20 19  1  0  0  0  0
 21 22  1  0  0  0  0
 23  3  1  0  0  0  0
 25 24  1  6  0  0  0
 25 23  1  0  0  0  0
 25 26  1  0  0  0  0
 27 26  1  0  0  0  0
 27 29  1  0  0  0  0
 29 30  2  0  0  0  0
 29 28  1  0  0  0  0
 29 31  1  0  0  0  0
 32 25  1  0  0  0  0
 33 32  1  6  0  0  0
 34 36  1  1  0  0  0
 34 33  1  0  0  0  0
 35 43  1  6  0  0  0
 35 34  1  0  0  0  0
 35 33  1  0  0  0  0
 37 43  1  0  0  0  0
 38 40  2  0  0  0  0
 38 39  1  0  0  0  0
 39 37  2  0  0  0  0
 40 41  1  0  0  0  0
 41 43  2  0  0  0  0
 42 39  1  0  0  0  0
M  END
>  <MODEL>
5

>  <REMARK>
 VINA RESULT:      -7.5      3.986      5.871
  Name = 
  10 active torsions:
  status: ('A' for Active; 'I' for Inactive)
    1  A    between atoms: C_1  and  C_21
    2  A    between atoms: N_3  and  C_17
    3  A    between atoms: C_6  and  C_38
    4  A    between atoms: C_9  and  O_20
    5  A    between atoms: C_9  and  C_35
    6  A    between atoms: P_15  and  O_20
    7  A    between atoms: N_16  and  C_26
    8  A    between atoms: C_21  and  C_35
    9  A    between atoms: C_29  and  C_41
   10  A    between atoms: C_35  and  C_38
                            x       y       z     vdW  Elec       q    Type
                         _______ _______ _______ _____ _____    ______ ____

>  <TORSDO>
F 10

$$$$
=
 OpenBabel10222417213D

 43 48  0  0  1  0  0  0  0  0999 V2000
  189.9850  176.8540  144.1990 N   0  0  0  0  0  2  0  0  0  0  0  0
  190.7880  176.8350  141.9860 N   0  0  0  0  0  0  0  0  0  0  0  0
  187.9630  178.1920  138.7010 C   0  0  0  0  0  0  0  0  0  0  0  0
  189.5300  177.5320  140.0650 C   0  0  0  0  0  0  0  0  0  0  0  0
  188.3980  177.5170  142.2730 C   0  0  2  0  0  3  0  0  0  0  0  0
  190.2600  177.4770  137.7960 C   0  0  0  0  0  3  0  0  0  0  0  0
  190.6980  177.0340  140.5660 C   0  0  0  0  0  0  0  0  0  0  0  0
  187.4460  178.2140  139.9660 N   0  0  0  0  0  0  0  0  0  0  0  0
  189.2820  177.7540  138.7540 C   0  0  0  0  0  0  0  0  0  0  0  0
  187.4710  176.5210  142.5210 F   0  0  0  0  0  0  0  0  0  0  0  0
  191.5040  176.9770  138.2630 C   0  0  0  0  0  3  0  0  0  0  0  0
  188.4340  177.8000  140.7960 C   0  0  0  0  0  0  0  0  0  0  0  0
  191.7280  176.7540  139.6500 C   0  0  0  0  0  3  0  0  0  0  0  0
  189.7790  177.0700  142.7980 C   0  0  0  0  0  0  0  0  0  0  0  0
  187.7820  177.6500  144.9870 O   0  0  0  0  0  0  0  0  0  0  0  0
  186.9270  178.0080  146.0140 N   0  0  0  0  0  2  0  0  0  0  0  0
  189.0920  177.2260  145.2540 C   0  0  0  0  0  0  0  0  0  0  0  0
  187.3790  177.9540  147.3720 C   0  0  0  0  0  3  0  0  0  0  0  0
  188.6250  177.5580  147.6250 C   0  0  0  0  0  3  0  0  0  0  0  0
  189.5220  177.1790  146.5190 C   0  0  0  0  0  3  0  0  0  0  0  0
  186.0680  178.5120  140.3370 C   0  0  0  0  0  2  0  0  0  0  0  0
  186.0310  179.3330  141.6120 C   0  0  0  0  0  1  0  0  0  0  0  0
  187.1950  178.5430  137.4570 C   0  0  0  0  0  2  0  0  0  0  0  0
  186.9350  177.3770  135.2390 C   0  0  0  0  0  1  0  0  0  0  0  0
  186.5940  177.3310  136.7200 C   0  0  2  0  0  0  0  0  0  0  0  0
  185.0720  177.3550  136.8610 C   0  0  0  0  0  2  0  0  0  0  0  0
  184.6230  176.3410  137.7110 O   0  0  0  0  0  0  0  0  0  0  0  0
  182.0270  176.0760  137.5400 O   0  0  0  0  0  0  0  0  0  0  0  0
  183.1040  176.8590  138.2550 P   0  0  0  0  0  0  0  0  0  0  0  0
  182.9710  176.5920  139.9200 O   0  0  0  0  0  1  0  0  0  0  0  0
  182.9010  178.5080  137.9290 O   0  0  0  0  0  1  0  0  0  0  0  0
  187.1310  176.0130  137.2830 C   0  0  0  0  0  2  0  0  0  0  0  0
  188.1050  175.3100  136.3310 C   0  0  1  0  0  3  0  0  0  0  0  0
  188.5520  174.0090  136.9650 C   0  0  1  0  0  3  0  0  0  0  0  0
  187.6240  173.9670  135.7610 C   0  0  1  0  0  3  0  0  0  0  0  0
  189.9650  173.7030  136.5160 C   0  0  0  0  0  1  0  0  0  0  0  0
  185.1460  173.8350  135.2910 C   0  0  0  0  0  3  0  0  0  0  0  0
  183.6420  172.9220  136.9470 C   0  0  0  0  0  3  0  0  0  0  0  0
  183.8530  173.4980  135.6940 C   0  0  0  0  0  0  0  0  0  0  0  0
  184.7360  172.6940  137.7840 C   0  0  0  0  0  3  0  0  0  0  0  0
  185.9910  173.0250  137.3730 N   0  0  0  0  0  0  0  0  0  0  0  0
  182.8030  173.7380  134.8720 F   0  0  0  0  0  0  0  0  0  0  0  0
  186.2240  173.5720  136.1460 C   0  0  0  0  0  0  0  0  0  0  0  0
  1 17  1  0  0  0  0
  2 14  2  0  0  0  0
  3  9  2  0  0  0  0
  3  8  1  0  0  0  0
  4  7  1  0  0  0  0
  4 12  2  0  0  0  0
  5 10  1  6  0  0  0
  5 14  1  0  0  0  0
  6 11  2  0  0  0  0
  6  9  1  0  0  0  0
  7  2  1  0  0  0  0
  8 21  1  0  0  0  0
  8 12  1  0  0  0  0
  9  4  1  0  0  0  0
 11 13  1  0  0  0  0
 12  5  1  0  0  0  0
 13  7  2  0  0  0  0
 14  1  1  0  0  0  0
 15 17  1  0  0  0  0
 15 16  1  0  0  0  0
 16 18  1  0  0  0  0
 17 20  2  0  0  0  0
 18 19  2  0  0  0  0
 20 19  1  0  0  0  0
 21 22  1  0  0  0  0
 23  3  1  0  0  0  0
 25 24  1  6  0  0  0
 25 26  1  0  0  0  0
 25 32  1  0  0  0  0
 25 23  1  0  0  0  0
 26 27  1  0  0  0  0
 27 29  1  0  0  0  0
 28 29  2  0  0  0  0
 29 30  1  0  0  0  0
 31 29  1  0  0  0  0
 33 34  1  0  0  0  0
 33 32  1  1  0  0  0
 34 36  1  6  0  0  0
 35 43  1  1  0  0  0
 35 33  1  0  0  0  0
 35 34  1  0  0  0  0
 37 39  2  0  0  0  0
 37 43  1  0  0  0  0
 38 40  2  0  0  0  0
 39 38  1  0  0  0  0
 41 40  1  0  0  0  0
 42 39  1  0  0  0  0
 43 41  2  0  0  0  0
M  END
>  <MODEL>
6

>  <REMARK>
 VINA RESULT:      -7.4      3.917      6.307
  Name = 
  10 active torsions:
  status: ('A' for Active; 'I' for Inactive)
    1  A    between atoms: C_1  and  C_21
    2  A    between atoms: N_3  and  C_17
    3  A    between atoms: C_6  and  C_38
    4  A    between atoms: C_9  and  O_20
    5  A    between atoms: C_9  and  C_35
    6  A    between atoms: P_15  and  O_20
    7  A    between atoms: N_16  and  C_26
    8  A    between atoms: C_21  and  C_35
    9  A    between atoms: C_29  and  C_41
   10  A    between atoms: C_35  and  C_38
                            x       y       z     vdW  Elec       q    Type
                         _______ _______ _______ _____ _____    ______ ____

>  <TORSDO>
F 10

$$$$
=
 OpenBabel10222417213D

 43 48  0  0  1  0  0  0  0  0999 V2000
  188.2090  177.5740  145.1110 N   0  0  0  0  0  2  0  0  0  0  0  0
  186.5400  178.0460  143.5170 N   0  0  0  0  0  0  0  0  0  0  0  0
  187.7840  178.2530  139.1560 C   0  0  0  0  0  0  0  0  0  0  0  0
  186.9050  178.1790  141.1500 C   0  0  0  0  0  0  0  0  0  0  0  0
  188.8650  177.8060  142.6250 C   0  0  2  0  0  3  0  0  0  0  0  0
  185.2780  178.7150  139.4920 C   0  0  0  0  0  3  0  0  0  0  0  0
  186.0310  178.2720  142.1930 C   0  0  0  0  0  0  0  0  0  0  0  0
  188.7900  177.9840  140.0410 N   0  0  0  0  0  0  0  0  0  0  0  0
  186.5860  178.3840  139.8510 C   0  0  0  0  0  0  0  0  0  0  0  0
  189.7410  178.8580  142.8200 F   0  0  0  0  0  0  0  0  0  0  0  0
  184.3200  178.8040  140.5360 C   0  0  0  0  0  3  0  0  0  0  0  0
  188.2230  177.9430  141.2710 C   0  0  0  0  0  0  0  0  0  0  0  0
  184.6930  178.5830  141.8910 C   0  0  0  0  0  3  0  0  0  0  0  0
  187.8120  177.8020  143.7530 C   0  0  0  0  0  0  0  0  0  0  0  0
  190.4410  176.6220  144.6480 O   0  0  0  0  0  0  0  0  0  0  0  0
  191.6760  176.1760  145.0870 N   0  0  0  0  0  2  0  0  0  0  0  0
  189.4880  177.1100  145.5540 C   0  0  0  0  0  0  0  0  0  0  0  0
  191.9910  176.2020  146.4830 C   0  0  0  0  0  3  0  0  0  0  0  0
  191.0820  176.6590  147.3440 C   0  0  0  0  0  3  0  0  0  0  0  0
  189.7740  177.1320  146.8590 C   0  0  0  0  0  3  0  0  0  0  0  0
  190.2110  177.8780  139.7340 C   0  0  0  0  0  2  0  0  0  0  0  0
  190.7030  176.4670  140.0010 C   0  0  0  0  0  1  0  0  0  0  0  0
  187.9710  178.4240  137.6730 C   0  0  0  0  0  2  0  0  0  0  0  0
  187.4610  177.4650  135.4000 C   0  0  0  0  0  1  0  0  0  0  0  0
  187.7560  177.1360  136.8550 C   0  0  2  0  0  0  0  0  0  0  0  0
  186.5630  176.3680  137.4230 C   0  0  0  0  0  2  0  0  0  0  0  0
  185.4580  176.4410  136.5700 O   0  0  0  0  0  0  0  0  0  0  0  0
  185.2280  174.0460  137.5930 O   0  0  0  0  0  1  0  0  0  0  0  0
  184.4110  175.2150  137.0950 P   0  0  0  0  0  0  0  0  0  0  0  0
  183.4430  175.7930  138.3570 O   0  0  0  0  0  1  0  0  0  0  0  0
  183.4280  174.7030  135.8170 O   0  0  0  0  0  0  0  0  0  0  0  0
  188.9950  176.2390  136.8900 C   0  0  0  0  0  2  0  0  0  0  0  0
  188.6520  174.7510  137.0220 C   0  0  1  0  0  3  0  0  0  0  0  0
  188.8370  174.0880  135.6730 C   0  0  1  0  0  3  0  0  0  0  0  0
  189.8190  173.7780  136.7920 C   0  0  1  0  0  3  0  0  0  0  0  0
  187.8490  172.9480  135.5460 C   0  0  0  0  0  1  0  0  0  0  0  0
  192.0970  174.5170  137.5930 C   0  0  0  0  0  3  0  0  0  0  0  0
  193.5730  175.7260  136.1110 C   0  0  0  0  0  3  0  0  0  0  0  0
  193.3120  175.1620  137.3610 C   0  0  0  0  0  0  0  0  0  0  0  0
  192.6060  175.6360  135.1080 C   0  0  0  0  0  3  0  0  0  0  0  0
  191.4270  175.0000  135.3520 N   0  0  0  0  0  0  0  0  0  0  0  0
  194.2340  175.2480  138.3490 F   0  0  0  0  0  0  0  0  0  0  0  0
  191.1570  174.4260  136.5580 C   0  0  0  0  0  0  0  0  0  0  0  0
  1 17  1  0  0  0  0
  2 14  2  0  0  0  0
  3  9  2  0  0  0  0
  3  8  1  0  0  0  0
  4 12  2  0  0  0  0
  4  7  1  0  0  0  0
  5 10  1  1  0  0  0
  5 14  1  0  0  0  0
  6  9  1  0  0  0  0
  6 11  2  0  0  0  0
  7  2  1  0  0  0  0
  8 12  1  0  0  0  0
  9  4  1  0  0  0  0
 11 13  1  0  0  0  0
 12  5  1  0  0  0  0
 13  7  2  0  0  0  0
 14  1  1  0  0  0  0
 15 16  1  0  0  0  0
 15 17  1  0  0  0  0
 16 18  1  0  0  0  0
 17 20  2  0  0  0  0
 18 19  2  0  0  0  0
 20 19  1  0  0  0  0
 21 22  1  0  0  0  0
 21  8  1  0  0  0  0
 23  3  1  0  0  0  0
 25 24  1  6  0  0  0
 25 32  1  0  0  0  0
 25 26  1  0  0  0  0
 25 23  1  0  0  0  0
 27 29  1  0  0  0  0
 27 26  1  0  0  0  0
 29 28  1  0  0  0  0
 29 30  1  0  0  0  0
 31 29  2  0  0  0  0
 33 32  1  6  0  0  0
 34 36  1  1  0  0  0
 34 35  1  0  0  0  0
 34 33  1  0  0  0  0
 35 43  1  6  0  0  0
 35 33  1  0  0  0  0
 38 39  2  0  0  0  0
 39 37  1  0  0  0  0
 39 42  1  0  0  0  0
 40 41  2  0  0  0  0
 40 38  1  0  0  0  0
 41 43  1  0  0  0  0
 43 37  2  0  0  0  0
M  END
>  <MODEL>
7

>  <REMARK>
 VINA RESULT:      -7.2      4.751      7.190
  Name = 
  10 active torsions:
  status: ('A' for Active; 'I' for Inactive)
    1  A    between atoms: C_1  and  C_21
    2  A    between atoms: N_3  and  C_17
    3  A    between atoms: C_6  and  C_38
    4  A    between atoms: C_9  and  O_20
    5  A    between atoms: C_9  and  C_35
    6  A    between atoms: P_15  and  O_20
    7  A    between atoms: N_16  and  C_26
    8  A    between atoms: C_21  and  C_35
    9  A    between atoms: C_29  and  C_41
   10  A    between atoms: C_35  and  C_38
                            x       y       z     vdW  Elec       q    Type
                         _______ _______ _______ _____ _____    ______ ____

>  <TORSDO>
F 10

$$$$
=
 OpenBabel10222417213D

 43 48  0  0  1  0  0  0  0  0999 V2000
  190.3230  173.7190  136.9690 N   0  0  0  0  0  2  0  0  0  0  0  0
  188.0450  173.1260  137.0400 N   0  0  0  0  0  0  0  0  0  0  0  0
  185.0000  176.4770  137.3670 C   0  0  0  0  0  0  0  0  0  0  0  0
  186.2270  174.6850  137.1740 C   0  0  0  0  0  0  0  0  0  0  0  0
  188.5440  175.5680  137.2560 C   0  0  2  0  0  3  0  0  0  0  0  0
  183.9080  174.1510  137.3140 C   0  0  0  0  0  3  0  0  0  0  0  0
  186.6340  173.3840  137.1160 C   0  0  0  0  0  0  0  0  0  0  0  0
  186.3070  176.8730  137.3370 N   0  0  0  0  0  0  0  0  0  0  0  0
  184.9390  175.0910  137.2700 C   0  0  0  0  0  0  0  0  0  0  0  0
  189.0240  176.0210  138.4720 F   0  0  0  0  0  0  0  0  0  0  0  0
  184.2720  172.7810  137.2360 C   0  0  0  0  0  3  0  0  0  0  0  0
  187.0510  175.7470  137.2180 C   0  0  0  0  0  0  0  0  0  0  0  0
  185.6370  172.3920  137.1360 C   0  0  0  0  0  3  0  0  0  0  0  0
  188.9420  174.0890  137.0690 C   0  0  0  0  0  0  0  0  0  0  0  0
  191.7740  175.1010  135.5240 O   0  0  0  0  0  0  0  0  0  0  0  0
  192.8450  175.9630  135.3630 N   0  0  0  0  0  2  0  0  0  0  0  0
  191.4290  174.6100  136.7920 C   0  0  0  0  0  0  0  0  0  0  0  0
  193.6220  176.3590  136.4990 C   0  0  0  0  0  3  0  0  0  0  0  0
  193.2980  175.8860  137.7020 C   0  0  0  0  0  3  0  0  0  0  0  0
  192.1530  174.9710  137.8550 C   0  0  0  0  0  3  0  0  0  0  0  0
  186.8080  178.2310  137.5160 C   0  0  0  0  0  2  0  0  0  0  0  0
  187.2490  178.8090  136.1850 C   0  0  0  0  0  1  0  0  0  0  0  0
  183.8280  177.4050  137.5280 C   0  0  0  0  0  2  0  0  0  0  0  0
  182.7640  176.2010  139.4690 C   0  0  0  0  0  1  0  0  0  0  0  0
  183.3130  177.5310  138.9740 C   0  0  2  0  0  0  0  0  0  0  0  0
  182.1850  178.5610  139.0230 C   0  0  0  0  0  2  0  0  0  0  0  0
  182.1210  179.3040  137.8400 O   0  0  0  0  0  0  0  0  0  0  0  0
  182.7470  181.6850  138.7200 O   0  0  0  0  0  1  0  0  0  0  0  0
  181.5670  180.8350  138.3080 P   0  0  0  0  0  0  0  0  0  0  0  0
  180.7750  181.5770  137.0100 O   0  0  0  0  0  0  0  0  0  0  0  0
  180.5010  180.6940  139.6150 O   0  0  0  0  0  1  0  0  0  0  0  0
  184.4300  177.9600  139.9290 C   0  0  0  0  0  2  0  0  0  0  0  0
  183.9700  179.0030  140.9540 C   0  0  1  0  0  3  0  0  0  0  0  0
  183.8410  178.3320  142.3060 C   0  0  1  0  0  3  0  0  0  0  0  0
  184.9740  179.3200  142.0750 C   0  0  1  0  0  3  0  0  0  0  0  0
  182.7390  179.0130  143.0890 C   0  0  0  0  0  1  0  0  0  0  0  0
  186.6950  177.6640  142.8960 C   0  0  0  0  0  3  0  0  0  0  0  0
  188.8170  177.4530  141.7590 C   0  0  0  0  0  3  0  0  0  0  0  0
  187.9530  177.0700  142.7870 C   0  0  0  0  0  0  0  0  0  0  0  0
  188.4050  178.4310  140.8530 C   0  0  0  0  0  3  0  0  0  0  0  0
  187.1730  178.9970  140.9720 N   0  0  0  0  0  0  0  0  0  0  0  0
  188.3390  176.1300  143.6820 F   0  0  0  0  0  0  0  0  0  0  0  0
  186.3050  178.6270  141.9560 C   0  0  0  0  0  0  0  0  0  0  0  0
  1 14  1  0  0  0  0
  2 14  2  0  0  0  0
  2  7  1  0  0  0  0
  3 23  1  0  0  0  0
  4 12  2  0  0  0  0
  4  9  1  0  0  0  0
  5 10  1  1  0  0  0
  7 13  2  0  0  0  0
  7  4  1  0  0  0  0
  8  3  1  0  0  0  0
  8 21  1  0  0  0  0
  9  6  1  0  0  0  0
  9  3  2  0  0  0  0
 11  6  2  0  0  0  0
 12  5  1  0  0  0  0
 12  8  1  0  0  0  0
 13 11  1  0  0  0  0
 14  5  1  0  0  0  0
 15 17  1  0  0  0  0
 16 15  1  0  0  0  0
 16 18  1  0  0  0  0
 17  1  1  0  0  0  0
 17 20  2  0  0  0  0
 18 19  2  0  0  0  0
 19 20  1  0  0  0  0
 22 21  1  0  0  0  0
 23 25  1  0  0  0  0
 25 26  1  0  0  0  0
 25 24  1  1  0  0  0
 25 32  1  0  0  0  0
 27 29  1  0  0  0  0
 27 26  1  0  0  0  0
 29 28  1  0  0  0  0
 29 31  1  0  0  0  0
 30 29  2  0  0  0  0
 33 32  1  6  0  0  0
 33 35  1  0  0  0  0
 33 34  1  0  0  0  0
 34 36  1  1  0  0  0
 35 43  1  6  0  0  0
 35 34  1  0  0  0  0
 38 39  2  0  0  0  0
 39 37  1  0  0  0  0
 39 42  1  0  0  0  0
 40 41  2  0  0  0  0
 40 38  1  0  0  0  0
 41 43  1  0  0  0  0
 43 37  2  0  0  0  0
M  END
>  <MODEL>
8

>  <REMARK>
 VINA RESULT:      -7.2      4.675      8.306
  Name = 
  10 active torsions:
  status: ('A' for Active; 'I' for Inactive)
    1  A    between atoms: C_1  and  C_21
    2  A    between atoms: N_3  and  C_17
    3  A    between atoms: C_6  and  C_38
    4  A    between atoms: C_9  and  O_20
    5  A    between atoms: C_9  and  C_35
    6  A    between atoms: P_15  and  O_20
    7  A    between atoms: N_16  and  C_26
    8  A    between atoms: C_21  and  C_35
    9  A    between atoms: C_29  and  C_41
   10  A    between atoms: C_35  and  C_38
                            x       y       z     vdW  Elec       q    Type
                         _______ _______ _______ _____ _____    ______ ____

>  <TORSDO>
F 10

$$$$
=
 OpenBabel10222417213D

 43 48  0  0  1  0  0  0  0  0999 V2000
  189.3650  177.2410  144.4460 N   0  0  0  0  0  2  0  0  0  0  0  0
  189.3220  177.4640  142.1020 N   0  0  0  0  0  0  0  0  0  0  0  0
  185.4510  178.8610  140.1850 C   0  0  0  0  0  0  0  0  0  0  0  0
  187.4300  178.2160  140.8320 C   0  0  0  0  0  0  0  0  0  0  0  0
  187.1670  177.9340  143.2830 C   0  0  2  0  0  3  0  0  0  0  0  0
  187.2990  178.4020  138.4590 C   0  0  0  0  0  3  0  0  0  0  0  0
  188.7200  177.7710  140.8340 C   0  0  0  0  0  0  0  0  0  0  0  0
  185.4220  178.7410  141.5460 N   0  0  0  0  0  0  0  0  0  0  0  0
  186.7190  178.5240  139.7230 C   0  0  0  0  0  0  0  0  0  0  0  0
  186.4340  176.8530  143.7380 F   0  0  0  0  0  0  0  0  0  0  0  0
  188.6480  177.9640  138.4020 C   0  0  0  0  0  3  0  0  0  0  0  0
  186.6590  178.3390  141.9260 C   0  0  0  0  0  0  0  0  0  0  0  0
  189.3640  177.6460  139.5900 C   0  0  0  0  0  3  0  0  0  0  0  0
  188.6620  177.5550  143.2380 C   0  0  0  0  0  0  0  0  0  0  0  0
  187.5310  177.6300  146.0550 O   0  0  0  0  0  0  0  0  0  0  0  0
  187.0870  177.8380  147.3490 N   0  0  0  0  0  2  0  0  0  0  0  0
  188.8960  177.4570  145.7810 C   0  0  0  0  0  0  0  0  0  0  0  0
  188.0260  177.8850  148.4290 C   0  0  0  0  0  3  0  0  0  0  0  0
  189.3230  177.7280  148.1660 C   0  0  0  0  0  3  0  0  0  0  0  0
  189.7780  177.5050  146.7830 C   0  0  0  0  0  3  0  0  0  0  0  0
  184.2560  178.9010  142.4080 C   0  0  0  0  0  2  0  0  0  0  0  0
  184.6060  179.7530  143.6140 C   0  0  0  0  0  1  0  0  0  0  0  0
  184.2740  179.2520  139.3350 C   0  0  0  0  0  2  0  0  0  0  0  0
  182.4670  178.5460  137.7280 C   0  0  0  0  0  1  0  0  0  0  0  0
  183.5140  178.0620  138.7200 C   0  0  2  0  0  0  0  0  0  0  0  0
  182.8010  177.2880  139.8280 C   0  0  0  0  0  2  0  0  0  0  0  0
  181.6740  177.9770  140.2870 O   0  0  0  0  0  0  0  0  0  0  0  0
  179.4160  177.2820  139.1670 O   0  0  0  0  0  0  0  0  0  0  0  0
  180.4090  176.8510  140.2210 P   0  0  0  0  0  0  0  0  0  0  0  0
  181.0220  175.3270  139.8150 O   0  0  0  0  0  1  0  0  0  0  0  0
  179.6280  176.7660  141.7200 O   0  0  0  0  0  1  0  0  0  0  0  0
  184.4620  177.1190  137.9760 C   0  0  0  0  0  2  0  0  0  0  0  0
  184.5600  177.4290  136.4780 C   0  0  1  0  0  3  0  0  0  0  0  0
  185.9110  176.9680  135.9720 C   0  0  1  0  0  3  0  0  0  0  0  0
  184.6630  176.2070  135.5520 C   0  0  1  0  0  3  0  0  0  0  0  0
  186.3470  177.8740  134.8410 C   0  0  0  0  0  1  0  0  0  0  0  0
  185.6990  174.2660  136.7920 C   0  0  0  0  0  3  0  0  0  0  0  0
  184.3500  172.3570  137.4040 C   0  0  0  0  0  3  0  0  0  0  0  0
  185.5840  173.0080  137.3840 C   0  0  0  0  0  0  0  0  0  0  0  0
  183.2430  172.9800  136.8250 C   0  0  0  0  0  3  0  0  0  0  0  0
  183.3720  174.2100  136.2550 N   0  0  0  0  0  0  0  0  0  0  0  0
  186.6720  172.4150  137.9310 F   0  0  0  0  0  0  0  0  0  0  0  0
  184.5630  174.8720  136.2390 C   0  0  0  0  0  0  0  0  0  0  0  0
  1 17  1  0  0  0  0
  2 14  2  0  0  0  0
  3  8  1  0  0  0  0
  4  7  1  0  0  0  0
  4 12  2  0  0  0  0
  5 10  1  6  0  0  0
  6  9  1  0  0  0  0
  7  2  1  0  0  0  0
  8 12  1  0  0  0  0
  8 21  1  0  0  0  0
  9  3  2  0  0  0  0
  9  4  1  0  0  0  0
 11  6  2  0  0  0  0
 11 13  1  0  0  0  0
 12  5  1  0  0  0  0
 13  7  2  0  0  0  0
 14  5  1  0  0  0  0
 14  1  1  0  0  0  0
 15 16  1  0  0  0  0
 16 18  1  0  0  0  0
 17 15  1  0  0  0  0
 17 20  2  0  0  0  0
 19 18  2  0  0  0  0
 20 19  1  0  0  0  0
 21 22  1  0  0  0  0
 23  3  1  0  0  0  0
 25 24  1  6  0  0  0
 25 23  1  0  0  0  0
 25 26  1  0  0  0  0
 26 27  1  0  0  0  0
 28 29  2  0  0  0  0
 29 27  1  0  0  0  0
 29 31  1  0  0  0  0
 30 29  1  0  0  0  0
 32 25  1  0  0  0  0
 33 32  1  1  0  0  0
 34 36  1  6  0  0  0
 34 33  1  0  0  0  0
 35 34  1  0  0  0  0
 35 43  1  1  0  0  0
 35 33  1  0  0  0  0
 37 39  1  0  0  0  0
 39 38  2  0  0  0  0
 39 42  1  0  0  0  0
 40 38  1  0  0  0  0
 41 40  2  0  0  0  0
 43 41  1  0  0  0  0
 43 37  2  0  0  0  0
M  END
>  <MODEL>
9

>  <REMARK>
 VINA RESULT:      -7.2      3.512      5.271
  Name = 
  10 active torsions:
  status: ('A' for Active; 'I' for Inactive)
    1  A    between atoms: C_1  and  C_21
    2  A    between atoms: N_3  and  C_17
    3  A    between atoms: C_6  and  C_38
    4  A    between atoms: C_9  and  O_20
    5  A    between atoms: C_9  and  C_35
    6  A    between atoms: P_15  and  O_20
    7  A    between atoms: N_16  and  C_26
    8  A    between atoms: C_21  and  C_35
    9  A    between atoms: C_29  and  C_41
   10  A    between atoms: C_35  and  C_38
                            x       y       z     vdW  Elec       q    Type
                         _______ _______ _______ _____ _____    ______ ____

>  <TORSDO>
F 10

$$$$
