=
 OpenBabel10222420393D

 42 44  0  0  1  0  0  0  0  0999 V2000
  182.6760  179.4090  140.2550 C   0  0  2  0  0  3  0  0  0  0  0  0
  186.6570  178.2350  138.2620 N   0  0  0  0  0  2  0  0  0  0  0  0
  187.5280  177.2460  137.7190 C   0  0  2  0  0  3  0  0  0  0  0  0
  185.6340  176.0830  136.6290 C   0  0  0  0  0  0  0  0  0  0  0  0
  185.2570  178.0750  138.0170 C   0  0  0  0  0  0  0  0  0  0  0  0
  188.6670  177.5100  137.1090 C   0  0  0  0  0  0  0  0  0  0  0  0
  183.5500  179.7440  139.0710 C   0  0  0  0  0  3  0  0  0  0  0  0
  188.0230  175.6150  136.1920 N   0  0  0  0  0  2  0  0  0  0  0  0
  187.0240  175.9390  137.2060 C   0  0  1  0  0  3  0  0  0  0  0  0
  189.3720  178.8220  137.1300 C   0  0  0  0  0  1  0  0  0  0  0  0
  188.9480  176.4880  136.1650 N   0  0  0  0  0  0  0  0  0  0  0  0
  184.7960  177.0310  137.0790 C   0  0  0  0  0  3  0  0  0  0  0  0
  184.4040  178.9110  138.5360 C   0  0  0  0  0  0  0  0  0  0  0  0
  185.1340  175.0830  135.7500 N   0  0  0  0  0  1  0  0  0  0  0  0
  183.2680  178.3510  141.2090 C   0  0  2  0  0  3  0  0  0  0  0  0
  182.7190  176.9630  140.9130 C   0  0  0  0  0  1  0  0  0  0  0  0
  183.0090  178.6930  142.6500 C   0  0  0  0  0  0  0  0  0  0  0  0
  181.6230  179.0580  143.0990 C   0  0  0  0  0  1  0  0  0  0  0  0
  184.0340  178.6490  143.5120 C   0  0  0  0  0  3  0  0  0  0  0  0
  183.9070  178.9630  144.9700 C   0  0  0  0  0  2  0  0  0  0  0  0
  185.2190  178.9640  145.5930 N   0  0  0  0  0  2  0  0  0  0  0  0
  186.0040  177.9510  144.9100 C   0  0  0  0  0  2  0  0  0  0  0  0
  189.6210  177.1100  145.8380 C   0  0  0  0  0  0  0  0  0  0  0  0
  188.4620  177.2650  145.0440 C   0  0  0  0  0  0  0  0  0  0  0  0
  190.8210  176.6840  145.2790 O   0  0  0  0  0  1  0  0  0  0  0  0
  188.3950  177.7810  147.8150 C   0  0  0  0  0  3  0  0  0  0  0  0
  187.2600  177.6850  145.6740 C   0  0  0  0  0  0  0  0  0  0  0  0
  187.2440  177.9430  147.0480 C   0  0  0  0  0  3  0  0  0  0  0  0
  189.5800  177.3660  147.2100 C   0  0  0  0  0  3  0  0  0  0  0  0
  189.0820  177.7540  141.2450 C   0  0  0  0  0  1  0  0  0  0  0  0
  188.0980  175.8910  143.1330 O   0  0  0  0  0  0  0  0  0  0  0  0
  188.5210  176.9910  143.5850 C   0  0  0  0  0  0  0  0  0  0  0  0
  189.0340  177.9750  142.6810 N   0  0  0  0  0  2  0  0  0  0  0  0
  181.4210  179.0050  139.7890 O   0  0  0  0  0  0  0  0  0  0  0  0
  180.9670  180.0690  139.0040 C   0  0  0  0  0  2  0  0  0  0  0  0
  180.0110  180.7960  139.7130 O   0  0  0  0  0  0  0  0  0  0  0  0
  179.9030  182.0020  139.0220 C   0  0  0  0  0  2  0  0  0  0  0  0
  180.9730  182.0660  137.9460 C   0  0  0  0  0  2  0  0  0  0  0  0
  180.5820  183.0090  136.9100 N   0  0  0  0  0  2  0  0  0  0  0  0
  182.2170  184.5960  137.4410 O   0  0  0  0  0  0  0  0  0  0  0  0
  181.2590  184.2500  136.6990 C   0  0  0  0  0  0  0  0  0  0  0  0
  180.8210  185.1480  135.5990 C   0  0  0  0  0  1  0  0  0  0  0  0
  1  7  1  6  0  0  0
  1 15  1  0  0  0  0
  3  6  1  6  0  0  0
  3  2  1  0  0  0  0
  4 12  2  0  0  0  0
  4  9  1  0  0  0  0
  5  2  1  0  0  0  0
  5 13  2  0  0  0  0
  6 10  1  0  0  0  0
  9  8  1  6  0  0  0
  9  3  1  0  0  0  0
 11  8  1  0  0  0  0
 11  6  2  0  0  0  0
 12  5  1  0  0  0  0
 13  7  2  0  0  0  0
 14  4  1  0  0  0  0
 15 16  1  6  0  0  0
 15 17  1  0  0  0  0
 17 18  1  0  0  0  0
 17 19  2  0  0  0  0
 19 20  1  0  0  0  0
 20 21  1  0  0  0  0
 22 21  1  0  0  0  0
 22 27  1  0  0  0  0
 23 29  1  0  0  0  0
 24 27  1  0  0  0  0
 24 23  2  0  0  0  0
 25 23  1  0  0  0  0
 27 28  2  0  0  0  0
 28 26  1  0  0  0  0
 29 26  2  0  0  0  0
 30 33  1  0  0  0  0
 31 32  2  0  0  0  0
 32 24  1  0  0  0  0
 33 32  1  0  0  0  0
 34  1  1  0  0  0  0
 35 36  1  0  0  0  0
 35 34  1  0  0  0  0
 37 36  1  0  0  0  0
 38 37  1  0  0  0  0
 39 38  1  0  0  0  0
 41 39  1  0  0  0  0
 41 40  2  0  0  0  0
 42 41  1  0  0  0  0
M  END
>  <MODEL>
1

>  <REMARK>
 VINA RESULT:      -8.3      0.000      0.000
  Name = 
  14 active torsions:
  status: ('A' for Active; 'I' for Inactive)
    1  A    between atoms: C_2  and  C_22
    2  A    between atoms: C_5  and  C_6
    3  A    between atoms: C_5  and  C_19
    4  A    between atoms: N_11  and  C_34
    5  A    between atoms: N_11  and  C_36
    6  A    between atoms: N_14  and  C_28
    7  A    between atoms: C_16  and  O_23
    8  A    between atoms: C_16  and  C_28
    9  A    between atoms: C_18  and  C_19
   10  A    between atoms: C_19  and  O_41
   11  A    between atoms: O_23  and  C_33
   12  A    between atoms: C_24  and  C_36
   13  A    between atoms: C_26  and  C_34
   14  A    between atoms: C_33  and  O_41
                            x       y       z     vdW  Elec       q    Type
                         _______ _______ _______ _____ _____    ______ ____

>  <TORSDO>
F 14

$$$$
=
 OpenBabel10222420393D

 42 44  0  0  1  0  0  0  0  0999 V2000
  184.1430  178.2910  142.5230 C   0  0  2  0  0  3  0  0  0  0  0  0
  188.7030  177.6610  142.4690 N   0  0  0  0  0  2  0  0  0  0  0  0
  189.8850  177.2080  141.8130 C   0  0  2  0  0  3  0  0  0  0  0  0
  189.1060  178.1080  139.6440 C   0  0  0  0  0  0  0  0  0  0  0  0
  187.7060  178.2840  141.6550 C   0  0  0  0  0  0  0  0  0  0  0  0
  191.1070  177.3820  142.2760 C   0  0  0  0  0  0  0  0  0  0  0  0
  185.4410  179.0350  142.7140 C   0  0  0  0  0  3  0  0  0  0  0  0
  191.3950  177.2880  140.0960 N   0  0  0  0  0  2  0  0  0  0  0  0
  189.9700  177.0750  140.3300 C   0  0  1  0  0  3  0  0  0  0  0  0
  191.4520  177.8120  143.6600 C   0  0  0  0  0  1  0  0  0  0  0  0
  192.0220  177.4340  141.1930 N   0  0  0  0  0  0  0  0  0  0  0  0
  188.0090  178.5980  140.2430 C   0  0  0  0  0  3  0  0  0  0  0  0
  186.5780  178.6660  142.1830 C   0  0  0  0  0  0  0  0  0  0  0  0
  189.3370  178.4170  138.2740 N   0  0  0  0  0  1  0  0  0  0  0  0
  183.2480  178.8410  141.3940 C   0  0  2  0  0  3  0  0  0  0  0  0
  181.7710  178.7330  141.7490 C   0  0  0  0  0  1  0  0  0  0  0  0
  183.5000  178.1370  140.0890 C   0  0  0  0  0  0  0  0  0  0  0  0
  182.8570  176.8090  139.8150 C   0  0  0  0  0  1  0  0  0  0  0  0
  184.2930  178.7300  139.1870 C   0  0  0  0  0  3  0  0  0  0  0  0
  184.6210  178.1370  137.8520 C   0  0  0  0  0  2  0  0  0  0  0  0
  185.9250  177.4990  137.9000 N   0  0  0  0  0  2  0  0  0  0  0  0
  186.0820  176.7790  136.6490 C   0  0  0  0  0  2  0  0  0  0  0  0
  186.7640  173.0390  137.0970 C   0  0  0  0  0  0  0  0  0  0  0  0
  186.9970  174.3970  136.7820 C   0  0  0  0  0  0  0  0  0  0  0  0
  187.7790  172.0950  136.9960 O   0  0  0  0  0  1  0  0  0  0  0  0
  184.4450  173.5230  137.5990 C   0  0  0  0  0  3  0  0  0  0  0  0
  185.9170  175.3130  136.8840 C   0  0  0  0  0  0  0  0  0  0  0  0
  184.6580  174.8660  137.2980 C   0  0  0  0  0  3  0  0  0  0  0  0
  185.4960  172.6130  137.4990 C   0  0  0  0  0  3  0  0  0  0  0  0
  190.7200  175.4790  136.9470 C   0  0  0  0  0  1  0  0  0  0  0  0
  188.5860  175.0670  135.1380 O   0  0  0  0  0  0  0  0  0  0  0  0
  188.3520  174.8370  136.3560 C   0  0  0  0  0  0  0  0  0  0  0  0
  189.3910  175.0250  137.3220 N   0  0  0  0  0  2  0  0  0  0  0  0
  183.4500  178.2750  143.7380 O   0  0  0  0  0  0  0  0  0  0  0  0
  184.0050  179.3190  144.4850 C   0  0  0  0  0  2  0  0  0  0  0  0
  183.7350  179.1160  145.8380 O   0  0  0  0  0  0  0  0  0  0  0  0
  184.7280  178.2350  146.2660 C   0  0  0  0  0  2  0  0  0  0  0  0
  185.9820  179.0160  146.6140 C   0  0  0  0  0  2  0  0  0  0  0  0
  187.1620  178.1970  146.3810 N   0  0  0  0  0  2  0  0  0  0  0  0
  187.7970  178.0960  148.6300 O   0  0  0  0  0  0  0  0  0  0  0  0
  188.0180  177.7560  147.4370 C   0  0  0  0  0  0  0  0  0  0  0  0
  189.1880  176.8950  147.1220 C   0  0  0  0  0  1  0  0  0  0  0  0
  1  7  1  1  0  0  0
  1 34  1  0  0  0  0
  3  6  1  6  0  0  0
  3  2  1  0  0  0  0
  4 12  2  0  0  0  0
  5 13  2  0  0  0  0
  5  2  1  0  0  0  0
  6 10  1  0  0  0  0
  8  9  1  0  0  0  0
  8 11  1  0  0  0  0
  9  4  1  6  0  0  0
  9  3  1  0  0  0  0
 11  6  2  0  0  0  0
 12  5  1  0  0  0  0
 13  7  2  0  0  0  0
 14  4  1  0  0  0  0
 15 16  1  1  0  0  0
 15  1  1  0  0  0  0
 17 15  1  0  0  0  0
 18 17  1  0  0  0  0
 19 17  2  0  0  0  0
 20 21  1  0  0  0  0
 20 19  1  0  0  0  0
 22 27  1  0  0  0  0
 22 21  1  0  0  0  0
 23 29  1  0  0  0  0
 24 27  1  0  0  0  0
 24 23  2  0  0  0  0
 25 23  1  0  0  0  0
 27 28  2  0  0  0  0
 28 26  1  0  0  0  0
 29 26  2  0  0  0  0
 30 33  1  0  0  0  0
 31 32  2  0  0  0  0
 32 24  1  0  0  0  0
 32 33  1  0  0  0  0
 34 35  1  0  0  0  0
 35 36  1  0  0  0  0
 36 37  1  0  0  0  0
 37 38  1  0  0  0  0
 39 38  1  0  0  0  0
 39 41  1  0  0  0  0
 41 40  2  0  0  0  0
 42 41  1  0  0  0  0
M  END
>  <MODEL>
2

>  <REMARK>
 VINA RESULT:      -8.1      3.422      7.962
  Name = 
  14 active torsions:
  status: ('A' for Active; 'I' for Inactive)
    1  A    between atoms: C_2  and  C_22
    2  A    between atoms: C_5  and  C_6
    3  A    between atoms: C_5  and  C_19
    4  A    between atoms: N_11  and  C_34
    5  A    between atoms: N_11  and  C_36
    6  A    between atoms: N_14  and  C_28
    7  A    between atoms: C_16  and  O_23
    8  A    between atoms: C_16  and  C_28
    9  A    between atoms: C_18  and  C_19
   10  A    between atoms: C_19  and  O_41
   11  A    between atoms: O_23  and  C_33
   12  A    between atoms: C_24  and  C_36
   13  A    between atoms: C_26  and  C_34
   14  A    between atoms: C_33  and  O_41
                            x       y       z     vdW  Elec       q    Type
                         _______ _______ _______ _____ _____    ______ ____

>  <TORSDO>
F 14

$$$$
=
 OpenBabel10222420393D

 42 44  0  0  1  0  0  0  0  0999 V2000
  187.8250  177.1900  137.7870 C   0  0  2  0  0  3  0  0  0  0  0  0
  183.6130  178.0150  139.4540 N   0  0  0  0  0  2  0  0  0  0  0  0
  182.7040  178.0810  140.5500 C   0  0  2  0  0  3  0  0  0  0  0  0
  184.4300  179.0940  142.0070 C   0  0  0  0  0  0  0  0  0  0  0  0
  184.9560  178.4440  139.6960 C   0  0  0  0  0  0  0  0  0  0  0  0
  181.4680  178.5310  140.4660 C   0  0  0  0  0  0  0  0  0  0  0  0
  186.7480  178.2470  137.8090 C   0  0  0  0  0  3  0  0  0  0  0  0
  182.0230  178.9470  142.5560 N   0  0  0  0  0  2  0  0  0  0  0  0
  183.1660  178.2650  141.9560 C   0  0  1  0  0  3  0  0  0  0  0  0
  180.7230  178.7740  139.1990 C   0  0  0  0  0  1  0  0  0  0  0  0
  181.0710  179.0660  141.7190 N   0  0  0  0  0  0  0  0  0  0  0  0
  185.2920  179.0990  140.9780 C   0  0  0  0  0  3  0  0  0  0  0  0
  185.8500  178.3540  138.7540 C   0  0  0  0  0  0  0  0  0  0  0  0
  184.8130  179.7130  143.2290 N   0  0  0  0  0  1  0  0  0  0  0  0
  189.2330  177.7020  138.1550 C   0  0  2  0  0  3  0  0  0  0  0  0
  190.3080  177.0340  137.3090 C   0  0  0  0  0  1  0  0  0  0  0  0
  189.5410  177.4890  139.6110 C   0  0  0  0  0  0  0  0  0  0  0  0
  190.6280  176.5370  140.0190 C   0  0  0  0  0  1  0  0  0  0  0  0
  188.8350  178.1750  140.5200 C   0  0  0  0  0  3  0  0  0  0  0  0
  189.0440  178.0560  141.9970 C   0  0  0  0  0  2  0  0  0  0  0  0
  188.1330  177.0690  142.5490 N   0  0  0  0  0  2  0  0  0  0  0  0
  188.7870  176.5040  143.7150 C   0  0  0  0  0  2  0  0  0  0  0  0
  188.2440  177.9210  147.2290 C   0  0  0  0  0  0  0  0  0  0  0  0
  188.9110  177.3420  146.1260 C   0  0  0  0  0  0  0  0  0  0  0  0
  188.9250  178.2180  148.4040 O   0  0  0  0  0  1  0  0  0  0  0  0
  186.1490  177.8970  146.0150 C   0  0  0  0  0  3  0  0  0  0  0  0
  188.1590  177.0440  144.9590 C   0  0  0  0  0  0  0  0  0  0  0  0
  186.7910  177.3300  144.9160 C   0  0  0  0  0  3  0  0  0  0  0  0
  186.8750  178.1910  147.1680 C   0  0  0  0  0  3  0  0  0  0  0  0
  192.2950  175.8160  147.2570 C   0  0  0  0  0  1  0  0  0  0  0  0
  191.1720  177.6940  145.4650 O   0  0  0  0  0  0  0  0  0  0  0  0
  190.3690  177.0630  146.2050 C   0  0  0  0  0  0  0  0  0  0  0  0
  190.8740  176.0970  147.1320 N   0  0  0  0  0  2  0  0  0  0  0  0
  187.8340  176.5830  136.5270 O   0  0  0  0  0  0  0  0  0  0  0  0
  186.6740  175.8040  136.4910 C   0  0  0  0  0  2  0  0  0  0  0  0
  186.7650  174.7900  137.4450 O   0  0  0  0  0  0  0  0  0  0  0  0
  186.3300  173.6440  136.7800 C   0  0  0  0  0  2  0  0  0  0  0  0
  185.3310  172.9030  137.6510 C   0  0  0  0  0  2  0  0  0  0  0  0
  183.9990  172.9970  137.0720 N   0  0  0  0  0  2  0  0  0  0  0  0
  183.4220  174.9690  138.1910 O   0  0  0  0  0  0  0  0  0  0  0  0
  183.1000  174.0680  137.3720 C   0  0  0  0  0  0  0  0  0  0  0  0
  181.7660  174.1110  136.7170 C   0  0  0  0  0  1  0  0  0  0  0  0
  1  7  1  6  0  0  0
  1 15  1  0  0  0  0
  2  5  1  0  0  0  0
  3  2  1  6  0  0  0
  3  9  1  0  0  0  0
  4 14  1  0  0  0  0
  5 12  1  0  0  0  0
  6  3  1  0  0  0  0
  6 11  2  0  0  0  0
  7 13  2  0  0  0  0
  9  4  1  6  0  0  0
  9  8  1  0  0  0  0
 10  6  1  0  0  0  0
 11  8  1  0  0  0  0
 12  4  2  0  0  0  0
 13  5  2  0  0  0  0
 15 16  1  6  0  0  0
 15 17  1  0  0  0  0
 17 18  1  0  0  0  0
 17 19  2  0  0  0  0
 19 20  1  0  0  0  0
 20 21  1  0  0  0  0
 21 22  1  0  0  0  0
 22 27  1  0  0  0  0
 23 25  1  0  0  0  0
 24 32  1  0  0  0  0
 24 23  2  0  0  0  0
 26 29  2  0  0  0  0
 27 24  1  0  0  0  0
 28 27  2  0  0  0  0
 28 26  1  0  0  0  0
 29 23  1  0  0  0  0
 31 32  2  0  0  0  0
 32 33  1  0  0  0  0
 33 30  1  0  0  0  0
 34  1  1  0  0  0  0
 35 34  1  0  0  0  0
 35 36  1  0  0  0  0
 37 36  1  0  0  0  0
 37 38  1  0  0  0  0
 39 41  1  0  0  0  0
 39 38  1  0  0  0  0
 41 40  2  0  0  0  0
 42 41  1  0  0  0  0
M  END
>  <MODEL>
3

>  <REMARK>
 VINA RESULT:      -7.9      3.342      6.876
  Name = 
  14 active torsions:
  status: ('A' for Active; 'I' for Inactive)
    1  A    between atoms: C_2  and  C_22
    2  A    between atoms: C_5  and  C_6
    3  A    between atoms: C_5  and  C_19
    4  A    between atoms: N_11  and  C_34
    5  A    between atoms: N_11  and  C_36
    6  A    between atoms: N_14  and  C_28
    7  A    between atoms: C_16  and  O_23
    8  A    between atoms: C_16  and  C_28
    9  A    between atoms: C_18  and  C_19
   10  A    between atoms: C_19  and  O_41
   11  A    between atoms: O_23  and  C_33
   12  A    between atoms: C_24  and  C_36
   13  A    between atoms: C_26  and  C_34
   14  A    between atoms: C_33  and  O_41
                            x       y       z     vdW  Elec       q    Type
                         _______ _______ _______ _____ _____    ______ ____

>  <TORSDO>
F 14

$$$$
=
 OpenBabel10222420393D

 42 44  0  0  1  0  0  0  0  0999 V2000
  189.7260  177.4350  140.7090 C   0  0  2  0  0  3  0  0  0  0  0  0
  187.6050  177.9690  144.7600 N   0  0  0  0  0  2  0  0  0  0  0  0
  186.5990  178.5830  145.5620 C   0  0  2  0  0  3  0  0  0  0  0  0
  184.9430  178.4140  143.7300 C   0  0  0  0  0  0  0  0  0  0  0  0
  187.2560  177.6480  143.4110 C   0  0  0  0  0  0  0  0  0  0  0  0
  186.3370  178.2510  146.8110 C   0  0  0  0  0  0  0  0  0  0  0  0
  189.0510  176.6450  141.8030 C   0  0  0  0  0  3  0  0  0  0  0  0
  184.4090  179.0120  146.0690 N   0  0  0  0  0  2  0  0  0  0  0  0
  185.3600  179.1680  144.9720 C   0  0  1  0  0  3  0  0  0  0  0  0
  187.2050  177.4070  147.6790 C   0  0  0  0  0  1  0  0  0  0  0  0
  184.9740  178.5230  147.0990 N   0  0  0  0  0  0  0  0  0  0  0  0
  185.8520  177.7820  142.9700 C   0  0  0  0  0  3  0  0  0  0  0  0
  188.1480  177.1400  142.6090 C   0  0  0  0  0  0  0  0  0  0  0  0
  183.6120  178.5420  143.2470 N   0  0  0  0  0  1  0  0  0  0  0  0
  189.5980  176.8170  139.3000 C   0  0  2  0  0  3  0  0  0  0  0  0
  190.9620  176.6130  138.6550 C   0  0  0  0  0  1  0  0  0  0  0  0
  188.7410  177.6600  138.3980 C   0  0  0  0  0  0  0  0  0  0  0  0
  189.2760  178.9470  137.8380 C   0  0  0  0  0  1  0  0  0  0  0  0
  187.5080  177.2270  138.1010 C   0  0  0  0  0  3  0  0  0  0  0  0
  186.5580  177.9700  137.2140 C   0  0  0  0  0  2  0  0  0  0  0  0
  185.5310  177.0690  136.7230 N   0  0  0  0  0  2  0  0  0  0  0  0
  184.2730  177.7890  136.8040 C   0  0  0  0  0  2  0  0  0  0  0  0
  182.0080  177.5030  139.8770 C   0  0  0  0  0  0  0  0  0  0  0  0
  182.8230  178.0960  138.8860 C   0  0  0  0  0  0  0  0  0  0  0  0
  181.3790  178.2770  140.8460 O   0  0  0  0  0  1  0  0  0  0  0  0
  182.4560  175.3020  138.9730 C   0  0  0  0  0  3  0  0  0  0  0  0
  183.4560  177.2530  137.9350 C   0  0  0  0  0  0  0  0  0  0  0  0
  183.2600  175.8690  137.9860 C   0  0  0  0  0  3  0  0  0  0  0  0
  181.8330  176.1180  139.9160 C   0  0  0  0  0  3  0  0  0  0  0  0
  182.0810  181.8660  138.3440 C   0  0  0  0  0  1  0  0  0  0  0  0
  184.0990  180.0810  139.2070 O   0  0  0  0  0  0  0  0  0  0  0  0
  182.9990  179.5710  138.8570 C   0  0  0  0  0  0  0  0  0  0  0  0
  181.9370  180.4210  138.4120 N   0  0  0  0  0  2  0  0  0  0  0  0
  191.0700  177.6160  141.0470 O   0  0  0  0  0  0  0  0  0  0  0  0
  191.1670  177.2040  142.3800 C   0  0  0  0  0  2  0  0  0  0  0  0
  191.9590  178.1060  143.0900 O   0  0  0  0  0  0  0  0  0  0  0  0
  191.4220  178.1060  144.3770 C   0  0  0  0  0  2  0  0  0  0  0  0
  191.0370  176.6900  144.7640 C   0  0  0  0  0  2  0  0  0  0  0  0
  191.9580  176.1800  145.7700 N   0  0  0  0  0  2  0  0  0  0  0  0
  190.6620  176.8470  147.6000 O   0  0  0  0  0  0  0  0  0  0  0  0
  191.7010  176.2750  147.1730 C   0  0  0  0  0  0  0  0  0  0  0  0
  192.6750  175.7030  148.1380 C   0  0  0  0  0  1  0  0  0  0  0  0
  1 34  1  0  0  0  0
  1  7  1  1  0  0  0
  3  2  1  6  0  0  0
  3  6  1  0  0  0  0
  5  2  1  0  0  0  0
  6 11  2  0  0  0  0
  6 10  1  0  0  0  0
  7 13  2  0  0  0  0
  8 11  1  0  0  0  0
  9  4  1  6  0  0  0
  9  3  1  0  0  0  0
  9  8  1  0  0  0  0
 12  5  1  0  0  0  0
 12  4  2  0  0  0  0
 13  5  2  0  0  0  0
 14  4  1  0  0  0  0
 15 16  1  6  0  0  0
 15  1  1  0  0  0  0
 17 15  1  0  0  0  0
 18 17  1  0  0  0  0
 19 17  2  0  0  0  0
 20 19  1  0  0  0  0
 21 22  1  0  0  0  0
 21 20  1  0  0  0  0
 22 27  1  0  0  0  0
 23 29  1  0  0  0  0
 23 25  1  0  0  0  0
 24 23  2  0  0  0  0
 26 29  2  0  0  0  0
 27 28  2  0  0  0  0
 27 24  1  0  0  0  0
 28 26  1  0  0  0  0
 30 33  1  0  0  0  0
 32 24  1  0  0  0  0
 32 31  2  0  0  0  0
 33 32  1  0  0  0  0
 34 35  1  0  0  0  0
 35 36  1  0  0  0  0
 36 37  1  0  0  0  0
 37 38  1  0  0  0  0
 38 39  1  0  0  0  0
 39 41  1  0  0  0  0
 41 40  2  0  0  0  0
 41 42  1  0  0  0  0
M  END
>  <MODEL>
4

>  <REMARK>
 VINA RESULT:      -7.9      2.250     10.176
  Name = 
  14 active torsions:
  status: ('A' for Active; 'I' for Inactive)
    1  A    between atoms: C_2  and  C_22
    2  A    between atoms: C_5  and  C_6
    3  A    between atoms: C_5  and  C_19
    4  A    between atoms: N_11  and  C_34
    5  A    between atoms: N_11  and  C_36
    6  A    between atoms: N_14  and  C_28
    7  A    between atoms: C_16  and  O_23
    8  A    between atoms: C_16  and  C_28
    9  A    between atoms: C_18  and  C_19
   10  A    between atoms: C_19  and  O_41
   11  A    between atoms: O_23  and  C_33
   12  A    between atoms: C_24  and  C_36
   13  A    between atoms: C_26  and  C_34
   14  A    between atoms: C_33  and  O_41
                            x       y       z     vdW  Elec       q    Type
                         _______ _______ _______ _____ _____    ______ ____

>  <TORSDO>
F 14

$$$$
=
 OpenBabel10222420393D

 42 44  0  0  1  0  0  0  0  0999 V2000
  184.2260  178.2990  142.3460 C   0  0  2  0  0  3  0  0  0  0  0  0
  188.7950  177.7310  142.3270 N   0  0  0  0  0  2  0  0  0  0  0  0
  189.9820  177.2470  141.7030 C   0  0  2  0  0  3  0  0  0  0  0  0
  189.1860  177.9730  139.4750 C   0  0  0  0  0  0  0  0  0  0  0  0
  187.7870  178.2780  141.4710 C   0  0  0  0  0  0  0  0  0  0  0  0
  191.2020  177.4730  142.1490 C   0  0  0  0  0  0  0  0  0  0  0  0
  185.5140  179.0730  142.4770 C   0  0  0  0  0  3  0  0  0  0  0  0
  191.4880  177.2210  139.9800 N   0  0  0  0  0  2  0  0  0  0  0  0
  190.0660  177.0060  140.2330 C   0  0  1  0  0  3  0  0  0  0  0  0
  191.5430  178.0090  143.4960 C   0  0  0  0  0  1  0  0  0  0  0  0
  192.1150  177.4560  141.0620 N   0  0  0  0  0  0  0  0  0  0  0  0
  188.0840  178.4900  140.0390 C   0  0  0  0  0  3  0  0  0  0  0  0
  186.6550  178.6820  141.9720 C   0  0  0  0  0  0  0  0  0  0  0  0
  189.4110  178.1820  138.0860 N   0  0  0  0  0  1  0  0  0  0  0  0
  183.3100  178.7670  141.1970 C   0  0  2  0  0  3  0  0  0  0  0  0
  181.8430  178.7290  141.6020 C   0  0  0  0  0  1  0  0  0  0  0  0
  183.5070  177.9430  139.9550 C   0  0  0  0  0  0  0  0  0  0  0  0
  182.8090  176.6210  139.8120 C   0  0  0  0  0  1  0  0  0  0  0  0
  184.3000  178.4240  138.9880 C   0  0  0  0  0  3  0  0  0  0  0  0
  184.5760  177.7030  137.7050 C   0  0  0  0  0  2  0  0  0  0  0  0
  185.9570  177.2560  137.6750 N   0  0  0  0  0  2  0  0  0  0  0  0
  186.1840  176.6990  136.3530 C   0  0  0  0  0  2  0  0  0  0  0  0
  186.3760  172.8770  136.2970 C   0  0  0  0  0  0  0  0  0  0  0  0
  185.8170  174.1730  136.2330 C   0  0  0  0  0  0  0  0  0  0  0  0
  185.5930  171.7470  136.0880 O   0  0  0  0  0  1  0  0  0  0  0  0
  188.5490  173.8060  136.8240 C   0  0  0  0  0  3  0  0  0  0  0  0
  186.6620  175.2890  136.4740 C   0  0  0  0  0  0  0  0  0  0  0  0
  188.0170  175.0910  136.7600 C   0  0  0  0  0  3  0  0  0  0  0  0
  187.7300  172.7020  136.5930 C   0  0  0  0  0  3  0  0  0  0  0  0
  181.9760  174.4890  136.6860 C   0  0  0  0  0  1  0  0  0  0  0  0
  184.0050  174.4630  134.7150 O   0  0  0  0  0  0  0  0  0  0  0  0
  184.3750  174.3440  135.9150 C   0  0  0  0  0  0  0  0  0  0  0  0
  183.3970  174.3520  136.9600 N   0  0  0  0  0  2  0  0  0  0  0  0
  183.5470  178.3430  143.5680 O   0  0  0  0  0  0  0  0  0  0  0  0
  184.1730  179.3610  144.2930 C   0  0  0  0  0  2  0  0  0  0  0  0
  183.8800  179.2140  145.6490 O   0  0  0  0  0  0  0  0  0  0  0  0
  184.8600  178.3430  146.1260 C   0  0  0  0  0  2  0  0  0  0  0  0
  185.9090  179.1310  146.8900 C   0  0  0  0  0  2  0  0  0  0  0  0
  186.8860  178.2260  147.4740 N   0  0  0  0  0  2  0  0  0  0  0  0
  188.2000  178.0590  145.5460 O   0  0  0  0  0  0  0  0  0  0  0  0
  188.0200  177.7410  146.7520 C   0  0  0  0  0  0  0  0  0  0  0  0
  188.9920  176.8420  147.4280 C   0  0  0  0  0  1  0  0  0  0  0  0
  1  7  1  1  0  0  0
  1 34  1  0  0  0  0
  3  6  1  6  0  0  0
  3  2  1  0  0  0  0
  4 12  2  0  0  0  0
  5 13  2  0  0  0  0
  5  2  1  0  0  0  0
  6 10  1  0  0  0  0
  8  9  1  0  0  0  0
  8 11  1  0  0  0  0
  9  4  1  6  0  0  0
  9  3  1  0  0  0  0
 11  6  2  0  0  0  0
 12  5  1  0  0  0  0
 13  7  2  0  0  0  0
 14  4  1  0  0  0  0
 15 16  1  1  0  0  0
 15  1  1  0  0  0  0
 17 15  1  0  0  0  0
 18 17  1  0  0  0  0
 19 17  2  0  0  0  0
 20 19  1  0  0  0  0
 21 20  1  0  0  0  0
 22 27  1  0  0  0  0
 22 21  1  0  0  0  0
 23 29  1  0  0  0  0
 24 23  2  0  0  0  0
 24 27  1  0  0  0  0
 25 23  1  0  0  0  0
 27 28  2  0  0  0  0
 28 26  1  0  0  0  0
 29 26  2  0  0  0  0
 30 33  1  0  0  0  0
 31 32  2  0  0  0  0
 32 24  1  0  0  0  0
 32 33  1  0  0  0  0
 34 35  1  0  0  0  0
 35 36  1  0  0  0  0
 36 37  1  0  0  0  0
 37 38  1  0  0  0  0
 38 39  1  0  0  0  0
 40 41  2  0  0  0  0
 41 42  1  0  0  0  0
 41 39  1  0  0  0  0
M  END
>  <MODEL>
5

>  <REMARK>
 VINA RESULT:      -7.8      3.339      8.234
  Name = 
  14 active torsions:
  status: ('A' for Active; 'I' for Inactive)
    1  A    between atoms: C_2  and  C_22
    2  A    between atoms: C_5  and  C_6
    3  A    between atoms: C_5  and  C_19
    4  A    between atoms: N_11  and  C_34
    5  A    between atoms: N_11  and  C_36
    6  A    between atoms: N_14  and  C_28
    7  A    between atoms: C_16  and  O_23
    8  A    between atoms: C_16  and  C_28
    9  A    between atoms: C_18  and  C_19
   10  A    between atoms: C_19  and  O_41
   11  A    between atoms: O_23  and  C_33
   12  A    between atoms: C_24  and  C_36
   13  A    between atoms: C_26  and  C_34
   14  A    between atoms: C_33  and  O_41
                            x       y       z     vdW  Elec       q    Type
                         _______ _______ _______ _____ _____    ______ ____

>  <TORSDO>
F 14

$$$$
=
 OpenBabel10222420393D

 42 44  0  0  1  0  0  0  0  0999 V2000
  189.8490  176.0060  137.7410 C   0  0  2  0  0  3  0  0  0  0  0  0
  185.7590  173.9360  137.3180 N   0  0  0  0  0  2  0  0  0  0  0  0
  184.3610  173.8820  137.5950 C   0  0  2  0  0  3  0  0  0  0  0  0
  184.1370  176.3260  137.2760 C   0  0  0  0  0  0  0  0  0  0  0  0
  186.3260  175.2290  137.0850 C   0  0  0  0  0  0  0  0  0  0  0  0
  183.5320  173.0010  137.0710 C   0  0  0  0  0  0  0  0  0  0  0  0
  188.8960  175.4740  136.7000 C   0  0  0  0  0  3  0  0  0  0  0  0
  182.2460  174.7440  137.4660 N   0  0  0  0  0  2  0  0  0  0  0  0
  183.5750  175.0980  137.9550 C   0  0  1  0  0  3  0  0  0  0  0  0
  183.9340  171.7640  136.3460 C   0  0  0  0  0  1  0  0  0  0  0  0
  182.2300  173.5610  136.9980 N   0  0  0  0  0  0  0  0  0  0  0  0
  185.4380  176.4020  136.9550 C   0  0  0  0  0  3  0  0  0  0  0  0
  187.6070  175.3520  136.8850 C   0  0  0  0  0  0  0  0  0  0  0  0
  183.3300  177.4920  137.1600 N   0  0  0  0  0  1  0  0  0  0  0  0
  189.2430  177.0660  138.6840 C   0  0  2  0  0  3  0  0  0  0  0  0
  189.2890  178.4560  138.0650 C   0  0  0  0  0  1  0  0  0  0  0  0
  189.9380  177.0900  140.0170 C   0  0  0  0  0  0  0  0  0  0  0  0
  191.4050  177.4050  140.0940 C   0  0  0  0  0  1  0  0  0  0  0  0
  189.2180  176.8390  141.1180 C   0  0  0  0  0  3  0  0  0  0  0  0
  189.7900  176.8350  142.5020 C   0  0  0  0  0  2  0  0  0  0  0  0
  188.7380  176.5860  143.4720 N   0  0  0  0  0  2  0  0  0  0  0  0
  187.5700  177.3150  143.0160 C   0  0  0  0  0  2  0  0  0  0  0  0
  184.8070  178.7790  145.2250 C   0  0  0  0  0  0  0  0  0  0  0  0
  185.5230  178.4380  144.0540 C   0  0  0  0  0  0  0  0  0  0  0  0
  183.5840  179.4370  145.1520 O   0  0  0  0  0  1  0  0  0  0  0  0
  186.5560  177.8320  146.6060 C   0  0  0  0  0  3  0  0  0  0  0  0
  186.7760  177.7850  144.1910 C   0  0  0  0  0  0  0  0  0  0  0  0
  187.2730  177.4840  145.4640 C   0  0  0  0  0  3  0  0  0  0  0  0
  185.3260  178.4770  146.4860 C   0  0  0  0  0  3  0  0  0  0  0  0
  183.4880  178.1420  140.7630 C   0  0  0  0  0  1  0  0  0  0  0  0
  185.3010  179.8270  142.1320 O   0  0  0  0  0  0  0  0  0  0  0  0
  184.9570  178.7640  142.7190 C   0  0  0  0  0  0  0  0  0  0  0  0
  184.0410  177.8700  142.0800 N   0  0  0  0  0  2  0  0  0  0  0  0
  190.9840  176.5110  137.0980 O   0  0  0  0  0  0  0  0  0  0  0  0
  191.4920  175.4360  136.3630 C   0  0  0  0  0  2  0  0  0  0  0  0
  192.6630  175.8280  135.7130 O   0  0  0  0  0  0  0  0  0  0  0  0
  193.5420  176.1600  136.7440 C   0  0  0  0  0  2  0  0  0  0  0  0
  194.1240  174.8910  137.3400 C   0  0  0  0  0  2  0  0  0  0  0  0
  195.5060  175.1140  137.7360 N   0  0  0  0  0  2  0  0  0  0  0  0
  195.6470  173.2140  139.0930 O   0  0  0  0  0  0  0  0  0  0  0  0
  196.2150  174.2260  138.6030 C   0  0  0  0  0  0  0  0  0  0  0  0
  197.6360  174.5060  138.9390 C   0  0  0  0  0  1  0  0  0  0  0  0
  1  7  1  6  0  0  0
  1 15  1  0  0  0  0
  2  3  1  0  0  0  0
  3  6  1  6  0  0  0
  3  9  1  0  0  0  0
  5  2  1  0  0  0  0
  7 13  2  0  0  0  0
  8  9  1  0  0  0  0
  9  4  1  6  0  0  0
 10  6  1  0  0  0  0
 11  6  2  0  0  0  0
 11  8  1  0  0  0  0
 12  5  1  0  0  0  0
 12  4  2  0  0  0  0
 13  5  2  0  0  0  0
 14  4  1  0  0  0  0
 15 16  1  6  0  0  0
 15 17  1  0  0  0  0
 17 18  1  0  0  0  0
 17 19  2  0  0  0  0
 19 20  1  0  0  0  0
 20 21  1  0  0  0  0
 22 21  1  0  0  0  0
 22 27  1  0  0  0  0
 23 29  1  0  0  0  0
 24 27  1  0  0  0  0
 24 23  2  0  0  0  0
 25 23  1  0  0  0  0
 27 28  2  0  0  0  0
 28 26  1  0  0  0  0
 29 26  2  0  0  0  0
 30 33  1  0  0  0  0
 31 32  2  0  0  0  0
 32 24  1  0  0  0  0
 33 32  1  0  0  0  0
 34  1  1  0  0  0  0
 35 34  1  0  0  0  0
 36 35  1  0  0  0  0
 36 37  1  0  0  0  0
 37 38  1  0  0  0  0
 38 39  1  0  0  0  0
 39 41  1  0  0  0  0
 41 42  1  0  0  0  0
 41 40  2  0  0  0  0
M  END
>  <MODEL>
6

>  <REMARK>
 VINA RESULT:      -7.7      4.007      8.823
  Name = 
  14 active torsions:
  status: ('A' for Active; 'I' for Inactive)
    1  A    between atoms: C_2  and  C_22
    2  A    between atoms: C_5  and  C_6
    3  A    between atoms: C_5  and  C_19
    4  A    between atoms: N_11  and  C_34
    5  A    between atoms: N_11  and  C_36
    6  A    between atoms: N_14  and  C_28
    7  A    between atoms: C_16  and  O_23
    8  A    between atoms: C_16  and  C_28
    9  A    between atoms: C_18  and  C_19
   10  A    between atoms: C_19  and  O_41
   11  A    between atoms: O_23  and  C_33
   12  A    between atoms: C_24  and  C_36
   13  A    between atoms: C_26  and  C_34
   14  A    between atoms: C_33  and  O_41
                            x       y       z     vdW  Elec       q    Type
                         _______ _______ _______ _____ _____    ______ ____

>  <TORSDO>
F 14

$$$$
=
 OpenBabel10222420393D

 42 44  0  0  1  0  0  0  0  0999 V2000
  189.3940  176.3150  137.1600 C   0  0  2  0  0  3  0  0  0  0  0  0
  185.4490  173.9440  137.2210 N   0  0  0  0  0  2  0  0  0  0  0  0
  184.0530  173.8660  137.5020 C   0  0  2  0  0  3  0  0  0  0  0  0
  183.6810  176.1510  136.6290 C   0  0  0  0  0  0  0  0  0  0  0  0
  185.9370  175.1820  136.6970 C   0  0  0  0  0  0  0  0  0  0  0  0
  183.2890  172.8360  137.1950 C   0  0  0  0  0  0  0  0  0  0  0  0
  188.4930  175.4980  136.2690 C   0  0  0  0  0  3  0  0  0  0  0  0
  181.8900  174.5360  137.1760 N   0  0  0  0  0  2  0  0  0  0  0  0
  183.1860  175.0780  137.5710 C   0  0  1  0  0  3  0  0  0  0  0  0
  183.7780  171.4940  136.7740 C   0  0  0  0  0  1  0  0  0  0  0  0
  181.9550  173.2790  136.9930 N   0  0  0  0  0  0  0  0  0  0  0  0
  184.9800  176.2350  136.2990 C   0  0  0  0  0  3  0  0  0  0  0  0
  187.2110  175.3390  136.4760 C   0  0  0  0  0  0  0  0  0  0  0  0
  182.8050  177.2050  136.2460 N   0  0  0  0  0  1  0  0  0  0  0  0
  188.6930  177.4850  137.8820 C   0  0  2  0  0  3  0  0  0  0  0  0
  189.0580  178.8250  137.2580 C   0  0  0  0  0  1  0  0  0  0  0  0
  189.0220  177.5120  139.3490 C   0  0  0  0  0  0  0  0  0  0  0  0
  190.2010  176.7420  139.8700 C   0  0  0  0  0  1  0  0  0  0  0  0
  188.2500  178.2460  140.1620 C   0  0  0  0  0  3  0  0  0  0  0  0
  188.4720  178.3580  141.6390 C   0  0  0  0  0  2  0  0  0  0  0  0
  187.2270  178.1220  142.3470 N   0  0  0  0  0  2  0  0  0  0  0  0
  187.5240  177.1790  143.4090 C   0  0  0  0  0  2  0  0  0  0  0  0
  187.0570  178.2990  147.0400 C   0  0  0  0  0  0  0  0  0  0  0  0
  187.6830  177.7610  145.8920 C   0  0  0  0  0  0  0  0  0  0  0  0
  187.7400  178.4040  148.2460 O   0  0  0  0  0  1  0  0  0  0  0  0
  184.9990  178.6180  145.8050 C   0  0  0  0  0  3  0  0  0  0  0  0
  186.9300  177.6600  144.6930 C   0  0  0  0  0  0  0  0  0  0  0  0
  185.6010  178.0950  144.6630 C   0  0  0  0  0  3  0  0  0  0  0  0
  185.7270  178.7190  146.9900 C   0  0  0  0  0  3  0  0  0  0  0  0
  191.4860  177.5160  145.1570 C   0  0  0  0  0  1  0  0  0  0  0  0
  189.4310  176.3770  146.7320 O   0  0  0  0  0  0  0  0  0  0  0  0
  189.1010  177.3190  145.9600 C   0  0  0  0  0  0  0  0  0  0  0  0
  190.0950  177.9380  145.1380 N   0  0  0  0  0  2  0  0  0  0  0  0
  190.4760  176.7790  136.4040 O   0  0  0  0  0  0  0  0  0  0  0  0
  191.2860  175.6580  136.2050 C   0  0  0  0  0  2  0  0  0  0  0  0
  192.5380  175.8810  136.7790 O   0  0  0  0  0  0  0  0  0  0  0  0
  192.9810  174.6140  137.1570 C   0  0  0  0  0  2  0  0  0  0  0  0
  194.4630  174.4850  136.8520 C   0  0  0  0  0  2  0  0  0  0  0  0
  195.2470  175.0400  137.9440 N   0  0  0  0  0  2  0  0  0  0  0  0
  195.4690  173.0150  139.0950 O   0  0  0  0  0  0  0  0  0  0  0  0
  195.7350  174.2440  139.0270 C   0  0  0  0  0  0  0  0  0  0  0  0
  196.5570  174.8780  140.0920 C   0  0  0  0  0  1  0  0  0  0  0  0
  1  7  1  6  0  0  0
  1 15  1  0  0  0  0
  2  3  1  0  0  0  0
  3  6  1  6  0  0  0
  3  9  1  0  0  0  0
  5  2  1  0  0  0  0
  7 13  2  0  0  0  0
  8  9  1  0  0  0  0
  9  4  1  6  0  0  0
 10  6  1  0  0  0  0
 11  8  1  0  0  0  0
 11  6  2  0  0  0  0
 12  4  2  0  0  0  0
 12  5  1  0  0  0  0
 13  5  2  0  0  0  0
 14  4  1  0  0  0  0
 15 16  1  6  0  0  0
 15 17  1  0  0  0  0
 17 18  1  0  0  0  0
 17 19  2  0  0  0  0
 19 20  1  0  0  0  0
 20 21  1  0  0  0  0
 21 22  1  0  0  0  0
 22 27  1  0  0  0  0
 23 25  1  0  0  0  0
 24 32  1  0  0  0  0
 24 23  2  0  0  0  0
 26 29  2  0  0  0  0
 27 24  1  0  0  0  0
 28 27  2  0  0  0  0
 28 26  1  0  0  0  0
 29 23  1  0  0  0  0
 32 31  2  0  0  0  0
 33 30  1  0  0  0  0
 33 32  1  0  0  0  0
 34  1  1  0  0  0  0
 35 34  1  0  0  0  0
 35 36  1  0  0  0  0
 36 37  1  0  0  0  0
 38 37  1  0  0  0  0
 38 39  1  0  0  0  0
 39 41  1  0  0  0  0
 41 40  2  0  0  0  0
 41 42  1  0  0  0  0
M  END
>  <MODEL>
7

>  <REMARK>
 VINA RESULT:      -7.6      4.694      8.557
  Name = 
  14 active torsions:
  status: ('A' for Active; 'I' for Inactive)
    1  A    between atoms: C_2  and  C_22
    2  A    between atoms: C_5  and  C_6
    3  A    between atoms: C_5  and  C_19
    4  A    between atoms: N_11  and  C_34
    5  A    between atoms: N_11  and  C_36
    6  A    between atoms: N_14  and  C_28
    7  A    between atoms: C_16  and  O_23
    8  A    between atoms: C_16  and  C_28
    9  A    between atoms: C_18  and  C_19
   10  A    between atoms: C_19  and  O_41
   11  A    between atoms: O_23  and  C_33
   12  A    between atoms: C_24  and  C_36
   13  A    between atoms: C_26  and  C_34
   14  A    between atoms: C_33  and  O_41
                            x       y       z     vdW  Elec       q    Type
                         _______ _______ _______ _____ _____    ______ ____

>  <TORSDO>
F 14

$$$$
=
 OpenBabel10222420393D

 42 44  0  0  1  0  0  0  0  0999 V2000
  185.2060  177.9410  138.2650 C   0  0  2  0  0  3  0  0  0  0  0  0
  185.3930  173.6490  136.6110 N   0  0  0  0  0  2  0  0  0  0  0  0
  184.9300  172.3000  136.6050 C   0  0  2  0  0  3  0  0  0  0  0  0
  182.5800  173.0370  136.8490 C   0  0  0  0  0  0  0  0  0  0  0  0
  184.4130  174.6720  136.8050 C   0  0  0  0  0  0  0  0  0  0  0  0
  185.3190  171.3840  135.7410 C   0  0  0  0  0  0  0  0  0  0  0  0
  185.1510  177.1700  136.9690 C   0  0  0  0  0  3  0  0  0  0  0  0
  183.2920  170.7330  136.3010 N   0  0  0  0  0  2  0  0  0  0  0  0
  183.5730  171.9240  137.0960 C   0  0  1  0  0  3  0  0  0  0  0  0
  186.4880  171.5020  134.8260 C   0  0  0  0  0  1  0  0  0  0  0  0
  184.2850  170.4270  135.5670 N   0  0  0  0  0  0  0  0  0  0  0  0
  182.9780  174.3180  136.8000 C   0  0  0  0  0  3  0  0  0  0  0  0
  184.7780  175.9200  136.8800 C   0  0  0  0  0  0  0  0  0  0  0  0
  181.1870  172.7490  136.8710 N   0  0  0  0  0  1  0  0  0  0  0  0
  183.8520  178.5200  138.7250 C   0  0  2  0  0  3  0  0  0  0  0  0
  183.8740  180.0420  138.7470 C   0  0  0  0  0  1  0  0  0  0  0  0
  183.4580  178.0070  140.0820 C   0  0  0  0  0  0  0  0  0  0  0  0
  182.6220  176.7650  140.2030 C   0  0  0  0  0  1  0  0  0  0  0  0
  183.8820  178.6730  141.1650 C   0  0  0  0  0  3  0  0  0  0  0  0
  183.5620  178.2650  142.5690 C   0  0  0  0  0  2  0  0  0  0  0  0
  184.4680  178.9220  143.4950 N   0  0  0  0  0  2  0  0  0  0  0  0
  185.7430  178.2380  143.3850 C   0  0  0  0  0  2  0  0  0  0  0  0
  188.1690  177.4960  146.2520 C   0  0  0  0  0  0  0  0  0  0  0  0
  187.6480  177.5390  144.9390 C   0  0  0  0  0  0  0  0  0  0  0  0
  189.4270  176.9620  146.5070 O   0  0  0  0  0  1  0  0  0  0  0  0
  186.1470  178.5050  147.1200 C   0  0  0  0  0  3  0  0  0  0  0  0
  186.3490  178.0780  144.7420 C   0  0  0  0  0  0  0  0  0  0  0  0
  185.6180  178.5600  145.8320 C   0  0  0  0  0  3  0  0  0  0  0  0
  187.4190  177.9750  147.3280 C   0  0  0  0  0  3  0  0  0  0  0  0
  190.3990  177.3020  142.2120 C   0  0  0  0  0  1  0  0  0  0  0  0
  188.1300  175.9530  143.2280 O   0  0  0  0  0  0  0  0  0  0  0  0
  188.4580  177.0270  143.8020 C   0  0  0  0  0  0  0  0  0  0  0  0
  189.5990  177.7560  143.3370 N   0  0  0  0  0  2  0  0  0  0  0  0
  186.1610  178.9560  138.1460 O   0  0  0  0  0  0  0  0  0  0  0  0
  187.2790  178.3370  137.5800 C   0  0  0  0  0  2  0  0  0  0  0  0
  188.4320  179.0250  137.9560 O   0  0  0  0  0  0  0  0  0  0  0  0
  188.9450  178.2910  139.0260 C   0  0  0  0  0  2  0  0  0  0  0  0
  188.8580  176.8090  138.7100 C   0  0  0  0  0  2  0  0  0  0  0  0
  190.1790  176.2040  138.7870 N   0  0  0  0  0  2  0  0  0  0  0  0
  190.7160  176.5800  136.5420 O   0  0  0  0  0  0  0  0  0  0  0  0
  191.0660  176.1380  137.6680 C   0  0  0  0  0  0  0  0  0  0  0  0
  192.4130  175.5310  137.8340 C   0  0  0  0  0  1  0  0  0  0  0  0
  1  7  1  6  0  0  0
  1 15  1  0  0  0  0
  2  5  1  0  0  0  0
  3  6  1  6  0  0  0
  3  2  1  0  0  0  0
  3  9  1  0  0  0  0
  4 14  1  0  0  0  0
  4  9  1  0  0  0  0
  5 13  2  0  0  0  0
  9  8  1  6  0  0  0
 10  6  1  0  0  0  0
 11  6  2  0  0  0  0
 11  8  1  0  0  0  0
 12  5  1  0  0  0  0
 12  4  2  0  0  0  0
 13  7  2  0  0  0  0
 15 16  1  1  0  0  0
 15 17  1  0  0  0  0
 17 18  1  0  0  0  0
 17 19  2  0  0  0  0
 19 20  1  0  0  0  0
 20 21  1  0  0  0  0
 22 21  1  0  0  0  0
 22 27  1  0  0  0  0
 23 25  1  0  0  0  0
 23 29  1  0  0  0  0
 24 23  2  0  0  0  0
 26 29  2  0  0  0  0
 27 24  1  0  0  0  0
 27 28  2  0  0  0  0
 28 26  1  0  0  0  0
 30 33  1  0  0  0  0
 31 32  2  0  0  0  0
 32 24  1  0  0  0  0
 33 32  1  0  0  0  0
 34  1  1  0  0  0  0
 35 36  1  0  0  0  0
 35 34  1  0  0  0  0
 36 37  1  0  0  0  0
 38 39  1  0  0  0  0
 38 37  1  0  0  0  0
 40 41  2  0  0  0  0
 41 42  1  0  0  0  0
 41 39  1  0  0  0  0
M  END
>  <MODEL>
8

>  <REMARK>
 VINA RESULT:      -7.5      3.070      5.997
  Name = 
  14 active torsions:
  status: ('A' for Active; 'I' for Inactive)
    1  A    between atoms: C_2  and  C_22
    2  A    between atoms: C_5  and  C_6
    3  A    between atoms: C_5  and  C_19
    4  A    between atoms: N_11  and  C_34
    5  A    between atoms: N_11  and  C_36
    6  A    between atoms: N_14  and  C_28
    7  A    between atoms: C_16  and  O_23
    8  A    between atoms: C_16  and  C_28
    9  A    between atoms: C_18  and  C_19
   10  A    between atoms: C_19  and  O_41
   11  A    between atoms: O_23  and  C_33
   12  A    between atoms: C_24  and  C_36
   13  A    between atoms: C_26  and  C_34
   14  A    between atoms: C_33  and  O_41
                            x       y       z     vdW  Elec       q    Type
                         _______ _______ _______ _____ _____    ______ ____

>  <TORSDO>
F 14

$$$$
=
 OpenBabel10222420393D

 42 44  0  0  1  0  0  0  0  0999 V2000
  183.0400  179.3660  139.8330 C   0  0  2  0  0  3  0  0  0  0  0  0
  186.9760  177.5850  138.2420 N   0  0  0  0  0  2  0  0  0  0  0  0
  187.6950  176.5200  137.6240 C   0  0  2  0  0  3  0  0  0  0  0  0
  185.8480  176.1110  136.0290 C   0  0  0  0  0  0  0  0  0  0  0  0
  185.6540  177.8420  137.7610 C   0  0  0  0  0  0  0  0  0  0  0  0
  188.9630  176.5870  137.2670 C   0  0  0  0  0  0  0  0  0  0  0  0
  184.1860  179.6750  138.9010 C   0  0  0  0  0  3  0  0  0  0  0  0
  188.1100  175.1270  135.8570 N   0  0  0  0  0  2  0  0  0  0  0  0
  187.0260  175.5060  136.7580 C   0  0  1  0  0  3  0  0  0  0  0  0
  189.9240  177.6430  137.6910 C   0  0  0  0  0  1  0  0  0  0  0  0
  189.1930  175.7180  136.1690 N   0  0  0  0  0  0  0  0  0  0  0  0
  185.1700  177.1450  136.5520 C   0  0  0  0  0  3  0  0  0  0  0  0
  184.9220  178.7610  138.3240 C   0  0  0  0  0  0  0  0  0  0  0  0
  185.3240  175.4550  134.8800 N   0  0  0  0  0  1  0  0  0  0  0  0
  183.3280  178.2470  140.8550 C   0  0  2  0  0  3  0  0  0  0  0  0
  182.6430  176.9450  140.4640 C   0  0  0  0  0  1  0  0  0  0  0  0
  182.9040  178.6360  142.2440 C   0  0  0  0  0  0  0  0  0  0  0  0
  181.4730  178.9950  142.5200 C   0  0  0  0  0  1  0  0  0  0  0  0
  183.8270  178.6400  143.2160 C   0  0  0  0  0  3  0  0  0  0  0  0
  183.5330  179.0050  144.6370 C   0  0  0  0  0  2  0  0  0  0  0  0
  184.7670  179.0510  145.4020 N   0  0  0  0  0  2  0  0  0  0  0  0
  185.7190  178.2020  144.7080 C   0  0  0  0  0  2  0  0  0  0  0  0
  189.1910  177.2540  146.0100 C   0  0  0  0  0  0  0  0  0  0  0  0
  188.1200  177.4250  145.1040 C   0  0  0  0  0  0  0  0  0  0  0  0
  190.4190  176.7600  145.5850 O   0  0  0  0  0  1  0  0  0  0  0  0
  187.8110  178.0460  147.8360 C   0  0  0  0  0  3  0  0  0  0  0  0
  186.8830  177.9150  145.5990 C   0  0  0  0  0  0  0  0  0  0  0  0
  186.7460  178.2250  146.9560 C   0  0  0  0  0  3  0  0  0  0  0  0
  189.0300  177.5620  147.3630 C   0  0  0  0  0  3  0  0  0  0  0  0
  189.0470  177.7760  141.3520 C   0  0  0  0  0  1  0  0  0  0  0  0
  187.9450  175.9680  143.2270 O   0  0  0  0  0  0  0  0  0  0  0  0
  188.3070  177.0940  143.6660 C   0  0  0  0  0  0  0  0  0  0  0  0
  188.8740  178.0530  142.7680 N   0  0  0  0  0  2  0  0  0  0  0  0
  181.9080  179.0590  139.0710 O   0  0  0  0  0  0  0  0  0  0  0  0
  181.6780  180.1960  138.2910 C   0  0  0  0  0  2  0  0  0  0  0  0
  180.8310  179.8690  137.2320 O   0  0  0  0  0  0  0  0  0  0  0  0
  180.2470  178.6610  137.6100 C   0  0  0  0  0  2  0  0  0  0  0  0
  180.4650  177.6300  136.5160 C   0  0  0  0  0  2  0  0  0  0  0  0
  181.6080  176.7910  136.8410 N   0  0  0  0  0  2  0  0  0  0  0  0
  180.3430  174.8780  137.3010 O   0  0  0  0  0  0  0  0  0  0  0  0
  181.4780  175.4160  137.2100 C   0  0  0  0  0  0  0  0  0  0  0  0
  182.6960  174.6150  137.4980 C   0  0  0  0  0  1  0  0  0  0  0  0
  1  7  1  6  0  0  0
  1 15  1  0  0  0  0
  3  6  1  6  0  0  0
  3  2  1  0  0  0  0
  4 12  2  0  0  0  0
  4  9  1  0  0  0  0
  5  2  1  0  0  0  0
  5 13  2  0  0  0  0
  6 10  1  0  0  0  0
  8 11  1  0  0  0  0
  9  8  1  6  0  0  0
  9  3  1  0  0  0  0
 11  6  2  0  0  0  0
 12  5  1  0  0  0  0
 13  7  2  0  0  0  0
 14  4  1  0  0  0  0
 15 16  1  6  0  0  0
 15 17  1  0  0  0  0
 17 18  1  0  0  0  0
 17 19  2  0  0  0  0
 19 20  1  0  0  0  0
 20 21  1  0  0  0  0
 22 21  1  0  0  0  0
 22 27  1  0  0  0  0
 23 29  1  0  0  0  0
 24 27  1  0  0  0  0
 24 23  2  0  0  0  0
 25 23  1  0  0  0  0
 27 28  2  0  0  0  0
 28 26  1  0  0  0  0
 29 26  2  0  0  0  0
 30 33  1  0  0  0  0
 31 32  2  0  0  0  0
 32 24  1  0  0  0  0
 33 32  1  0  0  0  0
 34  1  1  0  0  0  0
 35 34  1  0  0  0  0
 36 37  1  0  0  0  0
 36 35  1  0  0  0  0
 38 39  1  0  0  0  0
 38 37  1  0  0  0  0
 39 41  1  0  0  0  0
 41 40  2  0  0  0  0
 41 42  1  0  0  0  0
M  END
>  <MODEL>
9

>  <REMARK>
 VINA RESULT:      -7.5      1.877      3.052
  Name = 
  14 active torsions:
  status: ('A' for Active; 'I' for Inactive)
    1  A    between atoms: C_2  and  C_22
    2  A    between atoms: C_5  and  C_6
    3  A    between atoms: C_5  and  C_19
    4  A    between atoms: N_11  and  C_34
    5  A    between atoms: N_11  and  C_36
    6  A    between atoms: N_14  and  C_28
    7  A    between atoms: C_16  and  O_23
    8  A    between atoms: C_16  and  C_28
    9  A    between atoms: C_18  and  C_19
   10  A    between atoms: C_19  and  O_41
   11  A    between atoms: O_23  and  C_33
   12  A    between atoms: C_24  and  C_36
   13  A    between atoms: C_26  and  C_34
   14  A    between atoms: C_33  and  O_41
                            x       y       z     vdW  Elec       q    Type
                         _______ _______ _______ _____ _____    ______ ____

>  <TORSDO>
F 14

$$$$
