=
 OpenBabel10222420093D

 48 50  0  0  1  0  0  0  0  0999 V2000
  185.9500  177.5120  145.2110 C   0  0  0  0  0  3  0  0  0  0  0  0
  187.7480  178.0010  143.6700 C   0  0  0  0  0  3  0  0  0  0  0  0
  188.2160  177.7890  146.0510 C   0  0  0  0  0  0  0  0  0  0  0  0
  186.8560  177.5260  146.2740 C   0  0  0  0  0  3  0  0  0  0  0  0
  188.6530  178.0140  144.7370 C   0  0  0  0  0  3  0  0  0  0  0  0
  186.3840  177.7720  143.9060 C   0  0  0  0  0  0  0  0  0  0  0  0
  185.4000  177.6580  142.7670 C   0  0  2  0  0  3  0  0  0  0  0  0
  185.3050  178.9450  141.9300 C   0  0  0  0  0  0  0  0  0  0  0  0
  184.1990  178.4600  142.8680 C   0  0  2  0  0  3  0  0  0  0  0  0
  185.7690  179.7510  141.1410 O   0  0  0  0  0  0  0  0  0  0  0  0
  184.0910  179.4450  144.0300 C   0  0  0  0  0  2  0  0  0  0  0  0
  182.7160  179.3440  144.6630 C   0  0  0  0  0  2  0  0  0  0  0  0
  181.8710  178.5020  143.8890 O   0  0  0  0  0  0  0  0  0  0  0  0
  179.6630  177.8570  144.1450 O   0  0  0  0  0  0  0  0  0  0  0  0
  180.4970  178.7210  143.7580 C   0  0  0  0  0  0  0  0  0  0  0  0
  180.0190  179.9730  143.1120 C   0  0  0  0  0  2  0  0  0  0  0  0
  180.2930  179.9070  141.6220 C   0  0  0  0  0  2  0  0  0  0  0  0
  179.4160  178.9340  140.9840 N   0  0  0  0  0  2  0  0  0  0  0  0
  178.9320  177.3660  139.3470 O   0  0  0  0  0  0  0  0  0  0  0  0
  179.8210  178.0120  139.9630 C   0  0  0  0  0  0  0  0  0  0  0  0
  183.7210  177.8030  137.7650 C   0  0  0  0  0  3  0  0  0  0  0  0
  181.2390  177.8160  139.5960 C   0  0  0  0  0  0  0  0  0  0  0  0
  181.8790  176.5060  139.8560 C   0  0  0  0  0  3  0  0  0  0  0  0
  183.3580  178.8480  138.7650 C   0  0  0  0  0  2  0  0  0  0  0  0
  182.8690  175.9380  139.1530 C   0  0  0  0  0  3  0  0  0  0  0  0
  183.5420  176.4950  137.9530 C   0  0  0  0  0  0  0  0  0  0  0  0
  181.8950  178.8510  139.0600 C   0  0  0  0  0  3  0  0  0  0  0  0
  184.0430  175.6340  136.9740 O   0  0  0  0  0  0  0  0  0  0  0  0
  183.9230  174.2210  137.0570 C   0  0  0  0  0  1  0  0  0  0  0  0
  190.4760  177.1210  147.0760 N   0  0  0  0  0  2  0  0  0  0  0  0
  188.9150  178.3770  148.2320 O   0  0  0  0  0  0  0  0  0  0  0  0
  189.2040  177.7830  147.1570 C   0  0  0  0  0  0  0  0  0  0  0  0
  190.9200  176.2750  145.9860 C   0  0  0  0  0  2  0  0  0  0  0  0
  191.6790  177.1190  144.9790 C   0  0  0  0  0  2  0  0  0  0  0  0
  191.7850  176.4190  143.6340 C   0  0  1  0  0  3  0  0  0  0  0  0
  190.8060  175.4280  143.5640 O   0  0  0  0  0  1  0  0  0  0  0  0
  191.5920  177.4190  142.5000 C   0  0  0  0  0  2  0  0  0  0  0  0
  190.6560  176.9000  141.4190 C   0  0  0  0  0  2  0  0  0  0  0  0
  189.4960  177.8790  139.4170 C   0  0  0  0  0  0  0  0  0  0  0  0
  189.9760  178.0010  140.7550 N   0  0  0  0  0  2  0  0  0  0  0  0
  189.0810  178.9020  138.8150 O   0  0  0  0  0  0  0  0  0  0  0  0
  189.4820  176.5990  138.7710 N   0  0  0  0  0  2  0  0  0  0  0  0
  189.0390  176.3590  137.3990 C   0  0  1  0  0  3  0  0  0  0  0  0
  189.7790  175.1820  136.7760 C   0  0  0  0  0  2  0  0  0  0  0  0
  190.4180  174.4440  137.7710 O   0  0  0  0  0  1  0  0  0  0  0  0
  187.5310  176.1430  137.3500 C   0  0  0  0  0  2  0  0  0  0  0  0
  187.0370  176.5400  136.1050 O   0  0  0  0  0  0  0  0  0  0  0  0
  187.3600  177.8920  136.0070 C   0  0  0  0  0  1  0  0  0  0  0  0
  1  4  1  0  0  0  0
  2  6  1  0  0  0  0
  2  5  2  0  0  0  0
  3  4  2  0  0  0  0
  3 32  1  0  0  0  0
  5  3  1  0  0  0  0
  6  1  2  0  0  0  0
  7  9  1  0  0  0  0
  7  6  1  1  0  0  0
  8  7  1  0  0  0  0
  8  9  1  0  0  0  0
  9 11  1  1  0  0  0
 10  8  2  0  0  0  0
 11 12  1  0  0  0  0
 13 12  1  0  0  0  0
 15 13  1  0  0  0  0
 15 14  2  0  0  0  0
 16 15  1  0  0  0  0
 17 16  1  0  0  0  0
 18 17  1  0  0  0  0
 19 20  2  0  0  0  0
 20 18  1  0  0  0  0
 21 26  2  0  0  0  0
 21 24  1  0  0  0  0
 22 23  1  0  0  0  0
 22 20  1  0  0  0  0
 24 27  1  0  0  0  0
 25 23  2  0  0  0  0
 26 25  1  0  0  0  0
 27 22  2  0  0  0  0
 28 29  1  0  0  0  0
 28 26  1  0  0  0  0
 30 32  1  0  0  0  0
 32 31  2  0  0  0  0
 33 30  1  0  0  0  0
 34 33  1  0  0  0  0
 35 36  1  1  0  0  0
 35 34  1  0  0  0  0
 37 35  1  0  0  0  0
 38 37  1  0  0  0  0
 39 40  1  0  0  0  0
 40 38  1  0  0  0  0
 41 39  2  0  0  0  0
 42 39  1  0  0  0  0
 43 44  1  1  0  0  0
 43 42  1  0  0  0  0
 44 45  1  0  0  0  0
 46 43  1  0  0  0  0
 47 46  1  0  0  0  0
 48 47  1  0  0  0  0
M  END
>  <MODEL>
1

>  <REMARK>
 VINA RESULT:      -7.2      0.000      0.000
  Name = 
  21 active torsions:
  status: ('A' for Active; 'I' for Inactive)
    1  A    between atoms: C_3  and  O_22
    2  A    between atoms: C_3  and  C_37
    3  A    between atoms: C_4  and  C_19
    4  A    between atoms: C_4  and  C_31
    5  A    between atoms: C_5  and  C_48
    6  A    between atoms: C_7  and  C_37
    7  A    between atoms: O_8  and  C_31
    8  A    between atoms: O_8  and  C_39
    9  A    between atoms: C_11  and  C_21
   10  A    between atoms: C_11  and  C_34
   11  A    between atoms: N_12  and  C_18
   12  A    between atoms: N_14  and  C_45
   13  A    between atoms: N_15  and  C_29
   14  A    between atoms: O_16  and  C_46
   15  A    between atoms: C_17  and  C_43
   16  A    between atoms: C_18  and  C_21
   17  A    between atoms: C_24  and  C_29
   18  A    between atoms: C_24  and  C_39
   19  A    between atoms: C_25  and  C_41
   20  A    between atoms: C_34  and  C_45
   21  A    between atoms: C_37  and  N_44
                            x       y       z     vdW  Elec       q    Type
                         _______ _______ _______ _____ _____    ______ ____

>  <TORSDO>
F 21

$$$$
=
 OpenBabel10222420093D

 48 50  0  0  1  0  0  0  0  0999 V2000
  186.0880  177.3690  145.4060 C   0  0  0  0  0  3  0  0  0  0  0  0
  187.8410  178.1200  143.9200 C   0  0  0  0  0  3  0  0  0  0  0  0
  188.3150  177.7900  146.2860 C   0  0  0  0  0  0  0  0  0  0  0  0
  186.9840  177.3920  146.4770 C   0  0  0  0  0  3  0  0  0  0  0  0
  188.7370  178.1410  144.9940 C   0  0  0  0  0  3  0  0  0  0  0  0
  186.5030  177.7540  144.1250 C   0  0  0  0  0  0  0  0  0  0  0  0
  185.5370  177.6300  142.9720 C   0  0  2  0  0  3  0  0  0  0  0  0
  185.4280  178.9220  142.1440 C   0  0  0  0  0  0  0  0  0  0  0  0
  184.3180  178.4050  143.0610 C   0  0  2  0  0  3  0  0  0  0  0  0
  185.8860  179.7450  141.3690 O   0  0  0  0  0  0  0  0  0  0  0  0
  184.1730  179.3770  144.2300 C   0  0  0  0  0  2  0  0  0  0  0  0
  182.7340  179.3890  144.7130 C   0  0  0  0  0  2  0  0  0  0  0  0
  181.9620  178.4290  144.0020 O   0  0  0  0  0  0  0  0  0  0  0  0
  179.6760  178.0660  143.9670 O   0  0  0  0  0  0  0  0  0  0  0  0
  180.6760  178.6950  143.5240 C   0  0  0  0  0  0  0  0  0  0  0  0
  180.4970  179.7040  142.4460 C   0  0  0  0  0  2  0  0  0  0  0  0
  180.6460  179.0310  141.0950 C   0  0  0  0  0  2  0  0  0  0  0  0
  182.0260  179.1130  140.6330 N   0  0  0  0  0  2  0  0  0  0  0  0
  183.6260  179.3980  138.9810 O   0  0  0  0  0  0  0  0  0  0  0  0
  182.4280  179.5660  139.3330 C   0  0  0  0  0  0  0  0  0  0  0  0
  180.2980  180.9770  135.6510 C   0  0  0  0  0  3  0  0  0  0  0  0
  181.4810  180.1980  138.3910 C   0  0  0  0  0  0  0  0  0  0  0  0
  181.1980  181.6470  138.5130 C   0  0  0  0  0  3  0  0  0  0  0  0
  179.8240  179.8830  136.5470 C   0  0  0  0  0  2  0  0  0  0  0  0
  180.8740  182.4910  137.5240 C   0  0  0  0  0  3  0  0  0  0  0  0
  180.7300  182.1630  136.0840 C   0  0  0  0  0  0  0  0  0  0  0  0
  180.8980  179.4190  137.4740 C   0  0  0  0  0  3  0  0  0  0  0  0
  181.0260  183.1250  135.1170 O   0  0  0  0  0  0  0  0  0  0  0  0
  180.5720  184.4690  135.2050 C   0  0  0  0  0  1  0  0  0  0  0  0
  190.5320  177.0670  147.3690 N   0  0  0  0  0  2  0  0  0  0  0  0
  189.0310  178.4670  148.4350 O   0  0  0  0  0  0  0  0  0  0  0  0
  189.2960  177.7970  147.3990 C   0  0  0  0  0  0  0  0  0  0  0  0
  190.9380  176.1370  146.3330 C   0  0  0  0  0  2  0  0  0  0  0  0
  191.6470  176.8990  145.2300 C   0  0  0  0  0  2  0  0  0  0  0  0
  191.9460  176.0030  144.0390 C   0  0  1  0  0  3  0  0  0  0  0  0
  192.1770  174.7070  144.4970 O   0  0  0  0  0  1  0  0  0  0  0  0
  190.7720  176.0080  143.0660 C   0  0  0  0  0  2  0  0  0  0  0  0
  190.7410  177.2570  142.1990 C   0  0  0  0  0  2  0  0  0  0  0  0
  191.8560  177.2020  139.9480 C   0  0  0  0  0  0  0  0  0  0  0  0
  191.9310  177.3370  141.3660 N   0  0  0  0  0  2  0  0  0  0  0  0
  192.9170  177.0920  139.2820 O   0  0  0  0  0  0  0  0  0  0  0  0
  190.5820  177.2010  139.2910 N   0  0  0  0  0  2  0  0  0  0  0  0
  190.3830  177.0450  137.8520 C   0  0  1  0  0  3  0  0  0  0  0  0
  189.9270  175.6330  137.5060 C   0  0  0  0  0  2  0  0  0  0  0  0
  190.7270  174.7030  138.1680 O   0  0  0  0  0  1  0  0  0  0  0  0
  189.3950  178.0810  137.3290 C   0  0  0  0  0  2  0  0  0  0  0  0
  188.9320  177.6990  136.0680 O   0  0  0  0  0  0  0  0  0  0  0  0
  187.6080  178.1320  136.0270 C   0  0  0  0  0  1  0  0  0  0  0  0
  1  4  1  0  0  0  0
  2  6  1  0  0  0  0
  2  5  2  0  0  0  0
  3  4  2  0  0  0  0
  3 32  1  0  0  0  0
  5  3  1  0  0  0  0
  6  1  2  0  0  0  0
  7  9  1  0  0  0  0
  7  6  1  1  0  0  0
  8  7  1  0  0  0  0
  8  9  1  0  0  0  0
  9 11  1  1  0  0  0
 10  8  2  0  0  0  0
 11 12  1  0  0  0  0
 13 12  1  0  0  0  0
 15 14  2  0  0  0  0
 15 13  1  0  0  0  0
 16 15  1  0  0  0  0
 17 16  1  0  0  0  0
 18 17  1  0  0  0  0
 19 20  2  0  0  0  0
 20 18  1  0  0  0  0
 21 26  2  0  0  0  0
 21 24  1  0  0  0  0
 22 23  1  0  0  0  0
 22 20  1  0  0  0  0
 24 27  1  0  0  0  0
 25 23  2  0  0  0  0
 26 25  1  0  0  0  0
 27 22  2  0  0  0  0
 28 29  1  0  0  0  0
 28 26  1  0  0  0  0
 30 32  1  0  0  0  0
 32 31  2  0  0  0  0
 33 30  1  0  0  0  0
 34 33  1  0  0  0  0
 35 36  1  1  0  0  0
 35 34  1  0  0  0  0
 37 35  1  0  0  0  0
 38 37  1  0  0  0  0
 39 40  1  0  0  0  0
 40 38  1  0  0  0  0
 41 39  2  0  0  0  0
 42 39  1  0  0  0  0
 43 46  1  1  0  0  0
 43 42  1  0  0  0  0
 44 43  1  0  0  0  0
 44 45  1  0  0  0  0
 47 46  1  0  0  0  0
 48 47  1  0  0  0  0
M  END
>  <MODEL>
2

>  <REMARK>
 VINA RESULT:      -7.2      2.285      3.117
  Name = 
  21 active torsions:
  status: ('A' for Active; 'I' for Inactive)
    1  A    between atoms: C_3  and  O_22
    2  A    between atoms: C_3  and  C_37
    3  A    between atoms: C_4  and  C_19
    4  A    between atoms: C_4  and  C_31
    5  A    between atoms: C_5  and  C_48
    6  A    between atoms: C_7  and  C_37
    7  A    between atoms: O_8  and  C_31
    8  A    between atoms: O_8  and  C_39
    9  A    between atoms: C_11  and  C_21
   10  A    between atoms: C_11  and  C_34
   11  A    between atoms: N_12  and  C_18
   12  A    between atoms: N_14  and  C_45
   13  A    between atoms: N_15  and  C_29
   14  A    between atoms: O_16  and  C_46
   15  A    between atoms: C_17  and  C_43
   16  A    between atoms: C_18  and  C_21
   17  A    between atoms: C_24  and  C_29
   18  A    between atoms: C_24  and  C_39
   19  A    between atoms: C_25  and  C_41
   20  A    between atoms: C_34  and  C_45
   21  A    between atoms: C_37  and  N_44
                            x       y       z     vdW  Elec       q    Type
                         _______ _______ _______ _____ _____    ______ ____

>  <TORSDO>
F 21

$$$$
=
 OpenBabel10222420093D

 48 50  0  0  1  0  0  0  0  0999 V2000
  185.9170  177.4700  145.2550 C   0  0  0  0  0  3  0  0  0  0  0  0
  187.7000  178.0100  143.7140 C   0  0  0  0  0  3  0  0  0  0  0  0
  188.1740  177.8040  146.0950 C   0  0  0  0  0  0  0  0  0  0  0  0
  186.8230  177.5050  146.3170 C   0  0  0  0  0  3  0  0  0  0  0  0
  188.6050  178.0440  144.7800 C   0  0  0  0  0  3  0  0  0  0  0  0
  186.3430  177.7440  143.9500 C   0  0  0  0  0  0  0  0  0  0  0  0
  185.3610  177.6080  142.8120 C   0  0  2  0  0  3  0  0  0  0  0  0
  185.2580  178.8820  141.9570 C   0  0  0  0  0  0  0  0  0  0  0  0
  184.1540  178.4020  142.9000 C   0  0  2  0  0  3  0  0  0  0  0  0
  185.7170  179.6810  141.1570 O   0  0  0  0  0  0  0  0  0  0  0  0
  184.0370  179.4010  144.0480 C   0  0  0  0  0  2  0  0  0  0  0  0
  182.5780  179.7470  144.2830 C   0  0  0  0  0  2  0  0  0  0  0  0
  181.7680  178.5820  144.1840 O   0  0  0  0  0  0  0  0  0  0  0  0
  179.4850  178.2170  144.3010 O   0  0  0  0  0  0  0  0  0  0  0  0
  180.4840  178.5970  143.6310 C   0  0  0  0  0  0  0  0  0  0  0  0
  180.3080  179.0250  142.2170 C   0  0  0  0  0  2  0  0  0  0  0  0
  179.1260  178.2930  141.6120 C   0  0  0  0  0  2  0  0  0  0  0  0
  179.4480  176.8860  141.4060 N   0  0  0  0  0  2  0  0  0  0  0  0
  180.3380  175.1420  140.1660 O   0  0  0  0  0  0  0  0  0  0  0  0
  180.3010  176.3860  140.3680 C   0  0  0  0  0  0  0  0  0  0  0  0
  183.0710  179.5720  138.8660 C   0  0  0  0  0  3  0  0  0  0  0  0
  181.1140  177.2790  139.5160 C   0  0  0  0  0  0  0  0  0  0  0  0
  180.4630  178.0130  138.4080 C   0  0  0  0  0  3  0  0  0  0  0  0
  183.3930  178.1170  138.9230 C   0  0  0  0  0  2  0  0  0  0  0  0
  180.8140  179.2080  137.9150 C   0  0  0  0  0  3  0  0  0  0  0  0
  181.9340  180.0670  138.3750 C   0  0  0  0  0  0  0  0  0  0  0  0
  182.4230  177.3670  139.7750 C   0  0  0  0  0  3  0  0  0  0  0  0
  181.8310  181.4560  138.2790 O   0  0  0  0  0  0  0  0  0  0  0  0
  180.5960  182.1470  138.4090 C   0  0  0  0  0  1  0  0  0  0  0  0
  190.4750  177.2450  147.0960 N   0  0  0  0  0  2  0  0  0  0  0  0
  188.8390  178.3570  148.2950 O   0  0  0  0  0  0  0  0  0  0  0  0
  189.1640  177.8210  147.1990 C   0  0  0  0  0  0  0  0  0  0  0  0
  190.9700  176.4690  145.9760 C   0  0  0  0  0  2  0  0  0  0  0  0
  191.5530  177.4090  144.9380 C   0  0  0  0  0  2  0  0  0  0  0  0
  191.8460  176.6850  143.6340 C   0  0  1  0  0  3  0  0  0  0  0  0
  191.3680  175.3780  143.7270 O   0  0  0  0  0  1  0  0  0  0  0  0
  191.1730  177.4020  142.4680 C   0  0  0  0  0  2  0  0  0  0  0  0
  190.3090  176.4690  141.6330 C   0  0  0  0  0  2  0  0  0  0  0  0
  190.3370  176.9650  139.1700 C   0  0  0  0  0  0  0  0  0  0  0  0
  189.7800  177.1620  140.4680 N   0  0  0  0  0  2  0  0  0  0  0  0
  189.9780  177.7140  138.2250 O   0  0  0  0  0  0  0  0  0  0  0  0
  191.2890  175.9170  138.9460 N   0  0  0  0  0  2  0  0  0  0  0  0
  191.9420  175.6390  137.6690 C   0  0  1  0  0  3  0  0  0  0  0  0
  193.4590  175.7060  137.7950 C   0  0  0  0  0  2  0  0  0  0  0  0
  193.9420  176.8190  137.1080 O   0  0  0  0  0  1  0  0  0  0  0  0
  191.4990  174.2880  137.1200 C   0  0  0  0  0  2  0  0  0  0  0  0
  190.2870  173.9150  137.7050 O   0  0  0  0  0  0  0  0  0  0  0  0
  189.3880  173.8330  136.6420 C   0  0  0  0  0  1  0  0  0  0  0  0
  1  4  1  0  0  0  0
  2  6  1  0  0  0  0
  2  5  2  0  0  0  0
  3  4  2  0  0  0  0
  3 32  1  0  0  0  0
  5  3  1  0  0  0  0
  6  1  2  0  0  0  0
  7  9  1  0  0  0  0
  7  6  1  1  0  0  0
  8  7  1  0  0  0  0
  8  9  1  0  0  0  0
  9 11  1  1  0  0  0
 10  8  2  0  0  0  0
 11 12  1  0  0  0  0
 13 12  1  0  0  0  0
 15 13  1  0  0  0  0
 15 14  2  0  0  0  0
 16 15  1  0  0  0  0
 17 16  1  0  0  0  0
 18 17  1  0  0  0  0
 19 20  2  0  0  0  0
 20 18  1  0  0  0  0
 21 24  1  0  0  0  0
 22 27  2  0  0  0  0
 22 20  1  0  0  0  0
 23 22  1  0  0  0  0
 24 27  1  0  0  0  0
 25 26  1  0  0  0  0
 25 23  2  0  0  0  0
 26 21  2  0  0  0  0
 28 26  1  0  0  0  0
 28 29  1  0  0  0  0
 30 32  1  0  0  0  0
 32 31  2  0  0  0  0
 33 30  1  0  0  0  0
 34 33  1  0  0  0  0
 35 36  1  1  0  0  0
 35 34  1  0  0  0  0
 37 35  1  0  0  0  0
 38 37  1  0  0  0  0
 39 40  1  0  0  0  0
 40 38  1  0  0  0  0
 41 39  2  0  0  0  0
 42 39  1  0  0  0  0
 43 46  1  1  0  0  0
 43 44  1  0  0  0  0
 43 42  1  0  0  0  0
 45 44  1  0  0  0  0
 46 47  1  0  0  0  0
 48 47  1  0  0  0  0
M  END
>  <MODEL>
3

>  <REMARK>
 VINA RESULT:      -7.1      1.665      2.488
  Name = 
  21 active torsions:
  status: ('A' for Active; 'I' for Inactive)
    1  A    between atoms: C_3  and  O_22
    2  A    between atoms: C_3  and  C_37
    3  A    between atoms: C_4  and  C_19
    4  A    between atoms: C_4  and  C_31
    5  A    between atoms: C_5  and  C_48
    6  A    between atoms: C_7  and  C_37
    7  A    between atoms: O_8  and  C_31
    8  A    between atoms: O_8  and  C_39
    9  A    between atoms: C_11  and  C_21
   10  A    between atoms: C_11  and  C_34
   11  A    between atoms: N_12  and  C_18
   12  A    between atoms: N_14  and  C_45
   13  A    between atoms: N_15  and  C_29
   14  A    between atoms: O_16  and  C_46
   15  A    between atoms: C_17  and  C_43
   16  A    between atoms: C_18  and  C_21
   17  A    between atoms: C_24  and  C_29
   18  A    between atoms: C_24  and  C_39
   19  A    between atoms: C_25  and  C_41
   20  A    between atoms: C_34  and  C_45
   21  A    between atoms: C_37  and  N_44
                            x       y       z     vdW  Elec       q    Type
                         _______ _______ _______ _____ _____    ______ ____

>  <TORSDO>
F 21

$$$$
=
 OpenBabel10222420093D

 48 50  0  0  1  0  0  0  0  0999 V2000
  187.8880  176.5000  143.7920 C   0  0  0  0  0  3  0  0  0  0  0  0
  189.9540  177.4480  144.6150 C   0  0  0  0  0  3  0  0  0  0  0  0
  187.9050  177.6980  145.9080 C   0  0  0  0  0  0  0  0  0  0  0  0
  187.2190  176.9720  144.9230 C   0  0  0  0  0  3  0  0  0  0  0  0
  189.2820  177.9200  145.7470 C   0  0  0  0  0  3  0  0  0  0  0  0
  189.2530  176.7530  143.6180 C   0  0  0  0  0  0  0  0  0  0  0  0
  189.9670  176.1510  142.4320 C   0  0  2  0  0  3  0  0  0  0  0  0
  190.9820  177.1150  141.7940 C   0  0  0  0  0  0  0  0  0  0  0  0
  189.6610  176.7170  141.1350 C   0  0  2  0  0  3  0  0  0  0  0  0
  192.0290  177.7400  141.8120 O   0  0  0  0  0  0  0  0  0  0  0  0
  188.7600  177.9490  141.0880 C   0  0  0  0  0  2  0  0  0  0  0  0
  188.6670  178.4640  139.6630 C   0  0  0  0  0  2  0  0  0  0  0  0
  188.4490  177.3880  138.7580 O   0  0  0  0  0  0  0  0  0  0  0  0
  186.3330  177.4850  137.8250 O   0  0  0  0  0  0  0  0  0  0  0  0
  187.5850  177.4830  137.6640 C   0  0  0  0  0  0  0  0  0  0  0  0
  188.1540  177.5340  136.2910 C   0  0  0  0  0  2  0  0  0  0  0  0
  187.8270  176.2460  135.5610 C   0  0  0  0  0  2  0  0  0  0  0  0
  188.6670  175.1570  136.0440 N   0  0  0  0  0  2  0  0  0  0  0  0
  188.9850  173.1270  137.1150 O   0  0  0  0  0  0  0  0  0  0  0  0
  188.1770  173.9030  136.5380 C   0  0  0  0  0  0  0  0  0  0  0  0
  184.1380  172.0680  137.1710 C   0  0  0  0  0  3  0  0  0  0  0  0
  186.7590  173.5060  136.4140 C   0  0  0  0  0  0  0  0  0  0  0  0
  186.2800  172.9240  135.1400 C   0  0  0  0  0  3  0  0  0  0  0  0
  184.4810  173.4930  137.4420 C   0  0  0  0  0  2  0  0  0  0  0  0
  185.2940  172.0300  134.9820 C   0  0  0  0  0  3  0  0  0  0  0  0
  184.4640  171.4220  136.0510 C   0  0  0  0  0  0  0  0  0  0  0  0
  185.9570  173.7160  137.4630 C   0  0  0  0  0  3  0  0  0  0  0  0
  183.9670  170.1260  135.8940 O   0  0  0  0  0  0  0  0  0  0  0  0
  182.7280  169.8500  135.2540 C   0  0  0  0  0  1  0  0  0  0  0  0
  185.7990  178.2150  147.2890 N   0  0  0  0  0  2  0  0  0  0  0  0
  187.9330  178.6160  148.0870 O   0  0  0  0  0  0  0  0  0  0  0  0
  187.2270  178.1870  147.1330 C   0  0  0  0  0  0  0  0  0  0  0  0
  184.8310  177.9000  146.2570 C   0  0  0  0  0  2  0  0  0  0  0  0
  184.5000  179.1640  145.4850 C   0  0  0  0  0  2  0  0  0  0  0  0
  184.1060  178.8510  144.0500 C   0  0  1  0  0  3  0  0  0  0  0  0
  182.8880  179.4710  143.7730 O   0  0  0  0  0  1  0  0  0  0  0  0
  185.1750  179.3540  143.0870 C   0  0  0  0  0  2  0  0  0  0  0  0
  185.2370  178.5340  141.8070 C   0  0  0  0  0  2  0  0  0  0  0  0
  184.1530  179.5580  139.7840 C   0  0  0  0  0  0  0  0  0  0  0  0
  185.2840  179.4020  140.6410 N   0  0  0  0  0  2  0  0  0  0  0  0
  184.2870  180.1670  138.6920 O   0  0  0  0  0  0  0  0  0  0  0  0
  182.8770  179.0330  140.1730 N   0  0  0  0  0  2  0  0  0  0  0  0
  181.6600  179.1110  139.3690 C   0  0  1  0  0  3  0  0  0  0  0  0
  181.5700  177.9500  138.3860 C   0  0  0  0  0  2  0  0  0  0  0  0
  180.3290  177.9640  137.7510 O   0  0  0  0  0  1  0  0  0  0  0  0
  180.4270  179.1670  140.2630 C   0  0  0  0  0  2  0  0  0  0  0  0
  180.2580  180.4630  140.7540 O   0  0  0  0  0  0  0  0  0  0  0  0
  180.0000  181.2420  139.6270 C   0  0  0  0  0  1  0  0  0  0  0  0
  1  4  1  0  0  0  0
  2  5  2  0  0  0  0
  3 32  1  0  0  0  0
  4  3  2  0  0  0  0
  5  3  1  0  0  0  0
  6  1  2  0  0  0  0
  6  2  1  0  0  0  0
  7  6  1  1  0  0  0
  8 10  2  0  0  0  0
  8  7  1  0  0  0  0
  9 11  1  1  0  0  0
  9  8  1  0  0  0  0
  9  7  1  0  0  0  0
 12 11  1  0  0  0  0
 13 12  1  0  0  0  0
 15 14  2  0  0  0  0
 15 13  1  0  0  0  0
 16 15  1  0  0  0  0
 17 18  1  0  0  0  0
 17 16  1  0  0  0  0
 18 20  1  0  0  0  0
 20 19  2  0  0  0  0
 21 24  1  0  0  0  0
 22 20  1  0  0  0  0
 22 27  2  0  0  0  0
 23 22  1  0  0  0  0
 24 27  1  0  0  0  0
 25 23  2  0  0  0  0
 25 26  1  0  0  0  0
 26 21  2  0  0  0  0
 28 26  1  0  0  0  0
 29 28  1  0  0  0  0
 32 30  1  0  0  0  0
 32 31  2  0  0  0  0
 33 30  1  0  0  0  0
 34 33  1  0  0  0  0
 35 36  1  6  0  0  0
 35 34  1  0  0  0  0
 37 35  1  0  0  0  0
 38 37  1  0  0  0  0
 39 42  1  0  0  0  0
 39 40  1  0  0  0  0
 40 38  1  0  0  0  0
 41 39  2  0  0  0  0
 43 44  1  6  0  0  0
 43 42  1  0  0  0  0
 43 46  1  0  0  0  0
 45 44  1  0  0  0  0
 46 47  1  0  0  0  0
 48 47  1  0  0  0  0
M  END
>  <MODEL>
4

>  <REMARK>
 VINA RESULT:      -7.0      2.390      7.053
  Name = 
  21 active torsions:
  status: ('A' for Active; 'I' for Inactive)
    1  A    between atoms: C_3  and  O_22
    2  A    between atoms: C_3  and  C_37
    3  A    between atoms: C_4  and  C_19
    4  A    between atoms: C_4  and  C_31
    5  A    between atoms: C_5  and  C_48
    6  A    between atoms: C_7  and  C_37
    7  A    between atoms: O_8  and  C_31
    8  A    between atoms: O_8  and  C_39
    9  A    between atoms: C_11  and  C_21
   10  A    between atoms: C_11  and  C_34
   11  A    between atoms: N_12  and  C_18
   12  A    between atoms: N_14  and  C_45
   13  A    between atoms: N_15  and  C_29
   14  A    between atoms: O_16  and  C_46
   15  A    between atoms: C_17  and  C_43
   16  A    between atoms: C_18  and  C_21
   17  A    between atoms: C_24  and  C_29
   18  A    between atoms: C_24  and  C_39
   19  A    between atoms: C_25  and  C_41
   20  A    between atoms: C_34  and  C_45
   21  A    between atoms: C_37  and  N_44
                            x       y       z     vdW  Elec       q    Type
                         _______ _______ _______ _____ _____    ______ ____

>  <TORSDO>
F 21

$$$$
=
 OpenBabel10222420093D

 48 50  0  0  1  0  0  0  0  0999 V2000
  189.4120  178.6310  138.7570 C   0  0  0  0  0  3  0  0  0  0  0  0
  190.1930  176.3480  138.9110 C   0  0  0  0  0  3  0  0  0  0  0  0
  189.3780  177.2100  136.7830 C   0  0  0  0  0  0  0  0  0  0  0  0
  189.1390  178.4470  137.3990 C   0  0  0  0  0  3  0  0  0  0  0  0
  189.9200  176.1660  137.5510 C   0  0  0  0  0  3  0  0  0  0  0  0
  189.9190  177.5780  139.5270 C   0  0  0  0  0  0  0  0  0  0  0  0
  190.2900  177.8340  140.9680 C   0  0  2  0  0  3  0  0  0  0  0  0
  189.7040  176.7860  141.9300 C   0  0  0  0  0  0  0  0  0  0  0  0
  189.2160  178.2330  141.8520 C   0  0  2  0  0  3  0  0  0  0  0  0
  189.6510  175.6570  142.3870 O   0  0  0  0  0  0  0  0  0  0  0  0
  187.7940  178.2290  141.2970 C   0  0  0  0  0  2  0  0  0  0  0  0
  186.8220  177.7910  142.3770 C   0  0  0  0  0  2  0  0  0  0  0  0
  185.8110  178.7740  142.5660 O   0  0  0  0  0  0  0  0  0  0  0  0
  183.8570  177.8240  141.7680 O   0  0  0  0  0  0  0  0  0  0  0  0
  184.4560  178.4540  142.6830 C   0  0  0  0  0  0  0  0  0  0  0  0
  183.7040  178.9050  143.8850 C   0  0  0  0  0  2  0  0  0  0  0  0
  184.3610  178.3440  145.1310 C   0  0  0  0  0  2  0  0  0  0  0  0
  184.7230  179.4190  146.0460 N   0  0  0  0  0  2  0  0  0  0  0  0
  185.9040  180.2750  147.8470 O   0  0  0  0  0  0  0  0  0  0  0  0
  185.8180  179.3730  146.9710 C   0  0  0  0  0  0  0  0  0  0  0  0
  189.5910  176.9860  147.3460 C   0  0  0  0  0  3  0  0  0  0  0  0
  186.8280  178.2960  146.9430 C   0  0  0  0  0  0  0  0  0  0  0  0
  187.0760  177.5690  145.6780 C   0  0  0  0  0  3  0  0  0  0  0  0
  188.4080  176.8610  148.2440 C   0  0  0  0  0  2  0  0  0  0  0  0
  188.2300  177.0150  145.2780 C   0  0  0  0  0  3  0  0  0  0  0  0
  189.5180  177.0120  146.0140 C   0  0  0  0  0  0  0  0  0  0  0  0
  187.4650  178.0070  148.0830 C   0  0  0  0  0  3  0  0  0  0  0  0
  190.7230  177.0110  145.3080 O   0  0  0  0  0  0  0  0  0  0  0  0
  191.9170  176.4380  145.8250 C   0  0  0  0  0  1  0  0  0  0  0  0
  187.8260  177.1120  134.7370 N   0  0  0  0  0  2  0  0  0  0  0  0
  190.0930  176.6780  134.5940 O   0  0  0  0  0  0  0  0  0  0  0  0
  189.1250  176.9940  135.3380 C   0  0  0  0  0  0  0  0  0  0  0  0
  186.5820  177.3250  135.4500 C   0  0  0  0  0  2  0  0  0  0  0  0
  186.1710  176.0320  136.1300 C   0  0  0  0  0  2  0  0  0  0  0  0
  184.6740  175.7920  136.0110 C   0  0  1  0  0  3  0  0  0  0  0  0
  184.4640  174.5540  135.4050 O   0  0  0  0  0  1  0  0  0  0  0  0
  184.0240  175.8130  137.3890 C   0  0  0  0  0  2  0  0  0  0  0  0
  183.1980  177.0680  137.6230 C   0  0  0  0  0  2  0  0  0  0  0  0
  183.4120  179.3260  138.7040 C   0  0  0  0  0  0  0  0  0  0  0  0
  183.9910  178.0910  138.2860 N   0  0  0  0  0  2  0  0  0  0  0  0
  184.1610  180.2540  139.1030 O   0  0  0  0  0  0  0  0  0  0  0  0
  181.9890  179.5010  138.6750 N   0  0  0  0  0  2  0  0  0  0  0  0
  181.2880  180.7260  139.0540 C   0  0  1  0  0  3  0  0  0  0  0  0
  180.7070  181.4310  137.8350 C   0  0  0  0  0  2  0  0  0  0  0  0
  181.1150  180.7790  136.6720 O   0  0  0  0  0  1  0  0  0  0  0  0
  180.2040  180.4300  140.0830 C   0  0  0  0  0  2  0  0  0  0  0  0
  180.5000  179.2410  140.7530 O   0  0  0  0  0  0  0  0  0  0  0  0
  180.5170  179.5860  142.1030 C   0  0  0  0  0  1  0  0  0  0  0  0
  1  6  1  0  0  0  0
  2  6  2  0  0  0  0
  3  4  1  0  0  0  0
  3  5  2  0  0  0  0
  4  1  2  0  0  0  0
  5  2  1  0  0  0  0
  7  6  1  6  0  0  0
  7  9  1  0  0  0  0
  7  8  1  0  0  0  0
  8 10  2  0  0  0  0
  9 11  1  6  0  0  0
  9  8  1  0  0  0  0
 11 12  1  0  0  0  0
 12 13  1  0  0  0  0
 13 15  1  0  0  0  0
 14 15  2  0  0  0  0
 15 16  1  0  0  0  0
 16 17  1  0  0  0  0
 17 18  1  0  0  0  0
 18 20  1  0  0  0  0
 20 19  2  0  0  0  0
 21 24  1  0  0  0  0
 22 20  1  0  0  0  0
 22 27  2  0  0  0  0
 23 22  1  0  0  0  0
 25 23  2  0  0  0  0
 25 26  1  0  0  0  0
 26 21  2  0  0  0  0
 27 24  1  0  0  0  0
 28 29  1  0  0  0  0
 28 26  1  0  0  0  0
 30 32  1  0  0  0  0
 30 33  1  0  0  0  0
 31 32  2  0  0  0  0
 32  3  1  0  0  0  0
 33 34  1  0  0  0  0
 35 36  1  1  0  0  0
 35 34  1  0  0  0  0
 35 37  1  0  0  0  0
 37 38  1  0  0  0  0
 38 40  1  0  0  0  0
 39 41  2  0  0  0  0
 40 39  1  0  0  0  0
 42 39  1  0  0  0  0
 42 43  1  0  0  0  0
 43 44  1  6  0  0  0
 43 46  1  0  0  0  0
 45 44  1  0  0  0  0
 46 47  1  0  0  0  0
 47 48  1  0  0  0  0
M  END
>  <MODEL>
5

>  <REMARK>
 VINA RESULT:      -6.8      2.451      8.735
  Name = 
  21 active torsions:
  status: ('A' for Active; 'I' for Inactive)
    1  A    between atoms: C_3  and  O_22
    2  A    between atoms: C_3  and  C_37
    3  A    between atoms: C_4  and  C_19
    4  A    between atoms: C_4  and  C_31
    5  A    between atoms: C_5  and  C_48
    6  A    between atoms: C_7  and  C_37
    7  A    between atoms: O_8  and  C_31
    8  A    between atoms: O_8  and  C_39
    9  A    between atoms: C_11  and  C_21
   10  A    between atoms: C_11  and  C_34
   11  A    between atoms: N_12  and  C_18
   12  A    between atoms: N_14  and  C_45
   13  A    between atoms: N_15  and  C_29
   14  A    between atoms: O_16  and  C_46
   15  A    between atoms: C_17  and  C_43
   16  A    between atoms: C_18  and  C_21
   17  A    between atoms: C_24  and  C_29
   18  A    between atoms: C_24  and  C_39
   19  A    between atoms: C_25  and  C_41
   20  A    between atoms: C_34  and  C_45
   21  A    between atoms: C_37  and  N_44
                            x       y       z     vdW  Elec       q    Type
                         _______ _______ _______ _____ _____    ______ ____

>  <TORSDO>
F 21

$$$$
=
 OpenBabel10222420093D

 48 50  0  0  1  0  0  0  0  0999 V2000
  187.8270  176.8280  143.4760 C   0  0  0  0  0  3  0  0  0  0  0  0
  188.4090  177.8180  145.6040 C   0  0  0  0  0  3  0  0  0  0  0  0
  186.1600  178.0970  144.7110 C   0  0  0  0  0  0  0  0  0  0  0  0
  186.5310  177.3340  143.5940 C   0  0  0  0  0  3  0  0  0  0  0  0
  187.1100  178.3230  145.7200 C   0  0  0  0  0  3  0  0  0  0  0  0
  188.7820  177.0850  144.4670 C   0  0  0  0  0  0  0  0  0  0  0  0
  190.1460  176.4480  144.3560 C   0  0  2  0  0  3  0  0  0  0  0  0
  191.2820  177.4830  144.2780 C   0  0  0  0  0  0  0  0  0  0  0  0
  190.8390  176.6180  143.0970 C   0  0  2  0  0  3  0  0  0  0  0  0
  191.9830  178.3500  144.7730 O   0  0  0  0  0  0  0  0  0  0  0  0
  190.2050  177.5290  142.0490 C   0  0  0  0  0  2  0  0  0  0  0  0
  190.4280  176.9510  140.6630 C   0  0  0  0  0  2  0  0  0  0  0  0
  189.2250  176.9950  139.9050 O   0  0  0  0  0  0  0  0  0  0  0  0
  187.5020  178.5220  140.1430 O   0  0  0  0  0  0  0  0  0  0  0  0
  188.5800  178.1900  139.5770 C   0  0  0  0  0  0  0  0  0  0  0  0
  189.1530  179.0560  138.5120 C   0  0  0  0  0  2  0  0  0  0  0  0
  189.2290  178.2760  137.2140 C   0  0  0  0  0  2  0  0  0  0  0  0
  187.9040  177.8190  136.8140 N   0  0  0  0  0  2  0  0  0  0  0  0
  186.4800  176.3850  135.6800 O   0  0  0  0  0  0  0  0  0  0  0  0
  187.6310  176.5740  136.1570 C   0  0  0  0  0  0  0  0  0  0  0  0
  191.0630  173.7640  136.7970 C   0  0  0  0  0  3  0  0  0  0  0  0
  188.6580  175.5240  136.0000 C   0  0  0  0  0  0  0  0  0  0  0  0
  189.5370  175.5430  134.8080 C   0  0  0  0  0  3  0  0  0  0  0  0
  189.6230  173.3820  136.8540 C   0  0  0  0  0  2  0  0  0  0  0  0
  190.8000  175.1020  134.7300 C   0  0  0  0  0  3  0  0  0  0  0  0
  191.6020  174.5000  135.8230 C   0  0  0  0  0  0  0  0  0  0  0  0
  188.7330  174.5780  136.9420 C   0  0  0  0  0  3  0  0  0  0  0  0
  192.9880  174.6720  135.8460 O   0  0  0  0  0  0  0  0  0  0  0  0
  193.6020  175.9430  136.0070 C   0  0  0  0  0  1  0  0  0  0  0  0
  183.9830  179.1020  143.7840 N   0  0  0  0  0  2  0  0  0  0  0  0
  184.2860  178.6660  146.0350 O   0  0  0  0  0  0  0  0  0  0  0  0
  184.7830  178.6220  144.8760 C   0  0  0  0  0  0  0  0  0  0  0  0
  184.4330  179.2630  142.4150 C   0  0  0  0  0  2  0  0  0  0  0  0
  183.5780  178.3990  141.5070 C   0  0  0  0  0  2  0  0  0  0  0  0
  183.3540  179.0630  140.1580 C   0  0  1  0  0  3  0  0  0  0  0  0
  184.5260  179.7130  139.7760 O   0  0  0  0  0  1  0  0  0  0  0  0
  182.9740  178.0210  139.1120 C   0  0  0  0  0  2  0  0  0  0  0  0
  182.7940  176.6340  139.7120 C   0  0  0  0  0  2  0  0  0  0  0  0
  181.3660  175.0750  138.3540 C   0  0  0  0  0  0  0  0  0  0  0  0
  181.4960  176.0830  139.3550 N   0  0  0  0  0  2  0  0  0  0  0  0
  180.2200  174.7570  137.9440 O   0  0  0  0  0  0  0  0  0  0  0  0
  182.5320  174.4270  137.8290 N   0  0  0  0  0  2  0  0  0  0  0  0
  182.5230  173.4030  136.7880 C   0  0  1  0  0  3  0  0  0  0  0  0
  182.5260  174.0260  135.3970 C   0  0  0  0  0  2  0  0  0  0  0  0
  183.4300  175.0860  135.3570 O   0  0  0  0  0  1  0  0  0  0  0  0
  183.6980  172.4470  136.9610 C   0  0  0  0  0  2  0  0  0  0  0  0
  183.2340  171.1300  137.0020 O   0  0  0  0  0  0  0  0  0  0  0  0
  183.8130  170.5130  135.8950 C   0  0  0  0  0  1  0  0  0  0  0  0
  1  4  2  0  0  0  0
  1  6  1  0  0  0  0
  2  5  1  0  0  0  0
  3 32  1  0  0  0  0
  3  5  2  0  0  0  0
  4  3  1  0  0  0  0
  6  2  2  0  0  0  0
  7  6  1  6  0  0  0
  8  7  1  0  0  0  0
  8 10  2  0  0  0  0
  9 11  1  6  0  0  0
  9  8  1  0  0  0  0
  9  7  1  0  0  0  0
 12 11  1  0  0  0  0
 13 12  1  0  0  0  0
 15 13  1  0  0  0  0
 15 14  2  0  0  0  0
 16 15  1  0  0  0  0
 17 16  1  0  0  0  0
 18 17  1  0  0  0  0
 19 20  2  0  0  0  0
 20 18  1  0  0  0  0
 21 24  1  0  0  0  0
 22 20  1  0  0  0  0
 22 27  2  0  0  0  0
 23 22  1  0  0  0  0
 24 27  1  0  0  0  0
 25 23  2  0  0  0  0
 25 26  1  0  0  0  0
 26 28  1  0  0  0  0
 26 21  2  0  0  0  0
 28 29  1  0  0  0  0
 30 32  1  0  0  0  0
 32 31  2  0  0  0  0
 33 30  1  0  0  0  0
 34 33  1  0  0  0  0
 35 36  1  6  0  0  0
 35 34  1  0  0  0  0
 37 38  1  0  0  0  0
 37 35  1  0  0  0  0
 39 40  1  0  0  0  0
 40 38  1  0  0  0  0
 41 39  2  0  0  0  0
 42 39  1  0  0  0  0
 43 44  1  6  0  0  0
 43 46  1  0  0  0  0
 43 42  1  0  0  0  0
 45 44  1  0  0  0  0
 46 47  1  0  0  0  0
 48 47  1  0  0  0  0
M  END
>  <MODEL>
6

>  <REMARK>
 VINA RESULT:      -6.5      2.530      7.761
  Name = 
  21 active torsions:
  status: ('A' for Active; 'I' for Inactive)
    1  A    between atoms: C_3  and  O_22
    2  A    between atoms: C_3  and  C_37
    3  A    between atoms: C_4  and  C_19
    4  A    between atoms: C_4  and  C_31
    5  A    between atoms: C_5  and  C_48
    6  A    between atoms: C_7  and  C_37
    7  A    between atoms: O_8  and  C_31
    8  A    between atoms: O_8  and  C_39
    9  A    between atoms: C_11  and  C_21
   10  A    between atoms: C_11  and  C_34
   11  A    between atoms: N_12  and  C_18
   12  A    between atoms: N_14  and  C_45
   13  A    between atoms: N_15  and  C_29
   14  A    between atoms: O_16  and  C_46
   15  A    between atoms: C_17  and  C_43
   16  A    between atoms: C_18  and  C_21
   17  A    between atoms: C_24  and  C_29
   18  A    between atoms: C_24  and  C_39
   19  A    between atoms: C_25  and  C_41
   20  A    between atoms: C_34  and  C_45
   21  A    between atoms: C_37  and  N_44
                            x       y       z     vdW  Elec       q    Type
                         _______ _______ _______ _____ _____    ______ ____

>  <TORSDO>
F 21

$$$$
=
 OpenBabel10222420093D

 48 50  0  0  1  0  0  0  0  0999 V2000
  189.5040  176.9850  141.1910 C   0  0  0  0  0  3  0  0  0  0  0  0
  191.8240  177.2100  140.5480 C   0  0  0  0  0  3  0  0  0  0  0  0
  191.0680  178.0910  142.6890 C   0  0  0  0  0  0  0  0  0  0  0  0
  189.7740  177.6350  142.3970 C   0  0  0  0  0  3  0  0  0  0  0  0
  192.0920  177.8610  141.7570 C   0  0  0  0  0  3  0  0  0  0  0  0
  190.5210  176.7880  140.2480 C   0  0  0  0  0  0  0  0  0  0  0  0
  190.2190  176.0010  138.9960 C   0  0  2  0  0  3  0  0  0  0  0  0
  191.0990  176.4160  137.8040 C   0  0  0  0  0  0  0  0  0  0  0  0
  189.6060  176.7290  137.9060 C   0  0  2  0  0  3  0  0  0  0  0  0
  192.1740  176.4750  137.2300 O   0  0  0  0  0  0  0  0  0  0  0  0
  189.4430  178.2400  138.0570 C   0  0  0  0  0  2  0  0  0  0  0  0
  187.9930  178.6260  137.8290 C   0  0  0  0  0  2  0  0  0  0  0  0
  187.2130  177.4770  137.5220 O   0  0  0  0  0  0  0  0  0  0  0  0
  186.3080  177.7030  135.4040 O   0  0  0  0  0  0  0  0  0  0  0  0
  186.1310  177.5100  136.6380 C   0  0  0  0  0  0  0  0  0  0  0  0
  184.7520  177.3610  137.1740 C   0  0  0  0  0  2  0  0  0  0  0  0
  184.7190  177.8200  138.6190 C   0  0  0  0  0  2  0  0  0  0  0  0
  184.4730  179.2540  138.6940 N   0  0  0  0  0  2  0  0  0  0  0  0
  183.0730  181.1010  138.7170 O   0  0  0  0  0  0  0  0  0  0  0  0
  183.1840  179.8550  138.8730 C   0  0  0  0  0  0  0  0  0  0  0  0
  180.3420  176.8450  140.5900 C   0  0  0  0  0  3  0  0  0  0  0  0
  181.9830  179.0610  139.2090 C   0  0  0  0  0  0  0  0  0  0  0  0
  181.1800  178.4660  138.1170 C   0  0  0  0  0  3  0  0  0  0  0  0
  180.4090  178.2800  140.9860 C   0  0  0  0  0  2  0  0  0  0  0  0
  180.4670  177.3330  138.1660 C   0  0  0  0  0  3  0  0  0  0  0  0
  180.3250  176.4190  139.3250 C   0  0  0  0  0  0  0  0  0  0  0  0
  181.6600  178.9340  140.5000 C   0  0  0  0  0  3  0  0  0  0  0  0
  180.1390  175.0510  139.1150 O   0  0  0  0  0  0  0  0  0  0  0  0
  179.0740  174.3190  139.7080 C   0  0  0  0  0  1  0  0  0  0  0  0
  191.5850  178.0500  145.2070 N   0  0  0  0  0  2  0  0  0  0  0  0
  191.4840  180.0180  143.9950 O   0  0  0  0  0  0  0  0  0  0  0  0
  191.3890  178.7600  143.9740 C   0  0  0  0  0  0  0  0  0  0  0  0
  191.3770  176.6300  145.4060 C   0  0  0  0  0  2  0  0  0  0  0  0
  191.1740  176.3590  146.8850 C   0  0  0  0  0  2  0  0  0  0  0  0
  189.7640  176.7170  147.3270 C   0  0  1  0  0  3  0  0  0  0  0  0
  189.8140  177.8810  148.0930 O   0  0  0  0  0  1  0  0  0  0  0  0
  188.8680  176.9340  146.1120 C   0  0  0  0  0  2  0  0  0  0  0  0
  188.1390  178.2690  146.1580 C   0  0  0  0  0  2  0  0  0  0  0  0
  185.6280  178.1960  146.1410 C   0  0  0  0  0  0  0  0  0  0  0  0
  186.8650  178.1360  146.8480 N   0  0  0  0  0  2  0  0  0  0  0  0
  184.5510  178.2630  146.7870 O   0  0  0  0  0  0  0  0  0  0  0  0
  185.6150  178.1710  144.7070 N   0  0  0  0  0  2  0  0  0  0  0  0
  184.4150  178.2530  143.8790 C   0  0  1  0  0  3  0  0  0  0  0  0
  183.4980  179.3790  144.3400 C   0  0  0  0  0  2  0  0  0  0  0  0
  182.1750  178.9390  144.3480 O   0  0  0  0  0  1  0  0  0  0  0  0
  184.7840  178.4150  142.4090 C   0  0  0  0  0  2  0  0  0  0  0  0
  185.6900  179.4680  142.2630 O   0  0  0  0  0  0  0  0  0  0  0  0
  186.6330  179.0030  141.3480 C   0  0  0  0  0  1  0  0  0  0  0  0
  1  4  1  0  0  0  0
  2  5  2  0  0  0  0
  3 32  1  0  0  0  0
  4  3  2  0  0  0  0
  5  3  1  0  0  0  0
  6  2  1  0  0  0  0
  6  1  2  0  0  0  0
  7  6  1  1  0  0  0
  8  9  1  0  0  0  0
  8  7  1  0  0  0  0
  9 11  1  1  0  0  0
  9  7  1  0  0  0  0
 10  8  2  0  0  0  0
 12 11  1  0  0  0  0
 13 12  1  0  0  0  0
 14 15  2  0  0  0  0
 15 16  1  0  0  0  0
 15 13  1  0  0  0  0
 16 17  1  0  0  0  0
 17 18  1  0  0  0  0
 18 20  1  0  0  0  0
 19 20  2  0  0  0  0
 20 22  1  0  0  0  0
 21 24  1  0  0  0  0
 22 27  2  0  0  0  0
 23 25  2  0  0  0  0
 23 22  1  0  0  0  0
 25 26  1  0  0  0  0
 26 21  2  0  0  0  0
 27 24  1  0  0  0  0
 28 26  1  0  0  0  0
 28 29  1  0  0  0  0
 30 33  1  0  0  0  0
 32 31  2  0  0  0  0
 32 30  1  0  0  0  0
 33 34  1  0  0  0  0
 34 35  1  0  0  0  0
 35 36  1  6  0  0  0
 37 38  1  0  0  0  0
 37 35  1  0  0  0  0
 38 40  1  0  0  0  0
 39 41  2  0  0  0  0
 39 40  1  0  0  0  0
 42 39  1  0  0  0  0
 43 46  1  6  0  0  0
 43 44  1  0  0  0  0
 43 42  1  0  0  0  0
 44 45  1  0  0  0  0
 47 46  1  0  0  0  0
 48 47  1  0  0  0  0
M  END
>  <MODEL>
7

>  <REMARK>
 VINA RESULT:      -6.5      2.270      6.301
  Name = 
  21 active torsions:
  status: ('A' for Active; 'I' for Inactive)
    1  A    between atoms: C_3  and  O_22
    2  A    between atoms: C_3  and  C_37
    3  A    between atoms: C_4  and  C_19
    4  A    between atoms: C_4  and  C_31
    5  A    between atoms: C_5  and  C_48
    6  A    between atoms: C_7  and  C_37
    7  A    between atoms: O_8  and  C_31
    8  A    between atoms: O_8  and  C_39
    9  A    between atoms: C_11  and  C_21
   10  A    between atoms: C_11  and  C_34
   11  A    between atoms: N_12  and  C_18
   12  A    between atoms: N_14  and  C_45
   13  A    between atoms: N_15  and  C_29
   14  A    between atoms: O_16  and  C_46
   15  A    between atoms: C_17  and  C_43
   16  A    between atoms: C_18  and  C_21
   17  A    between atoms: C_24  and  C_29
   18  A    between atoms: C_24  and  C_39
   19  A    between atoms: C_25  and  C_41
   20  A    between atoms: C_34  and  C_45
   21  A    between atoms: C_37  and  N_44
                            x       y       z     vdW  Elec       q    Type
                         _______ _______ _______ _____ _____    ______ ____

>  <TORSDO>
F 21

$$$$
=
 OpenBabel10222420093D

 48 50  0  0  1  0  0  0  0  0999 V2000
  188.4560  176.4020  143.2530 C   0  0  0  0  0  3  0  0  0  0  0  0
  190.5950  177.3480  143.8680 C   0  0  0  0  0  3  0  0  0  0  0  0
  188.7220  177.4740  145.4200 C   0  0  0  0  0  0  0  0  0  0  0  0
  187.9280  176.7920  144.4870 C   0  0  0  0  0  3  0  0  0  0  0  0
  190.0640  177.7370  145.1020 C   0  0  0  0  0  3  0  0  0  0  0  0
  189.7850  176.6960  142.9260 C   0  0  0  0  0  0  0  0  0  0  0  0
  190.3520  176.1810  141.6250 C   0  0  2  0  0  3  0  0  0  0  0  0
  191.2440  177.2130  140.9130 C   0  0  0  0  0  0  0  0  0  0  0  0
  189.8590  176.8000  140.4130 C   0  0  2  0  0  3  0  0  0  0  0  0
  192.2640  177.8760  140.8270 O   0  0  0  0  0  0  0  0  0  0  0  0
  188.9230  177.9980  140.5520 C   0  0  0  0  0  2  0  0  0  0  0  0
  188.6880  178.6270  139.1910 C   0  0  0  0  0  2  0  0  0  0  0  0
  188.8430  177.6580  138.1610 O   0  0  0  0  0  0  0  0  0  0  0  0
  186.8120  178.1140  137.1490 O   0  0  0  0  0  0  0  0  0  0  0  0
  187.8970  177.4710  137.1480 C   0  0  0  0  0  0  0  0  0  0  0  0
  188.1610  176.4650  136.0860 C   0  0  0  0  0  2  0  0  0  0  0  0
  187.1820  175.3160  136.2240 C   0  0  0  0  0  2  0  0  0  0  0  0
  187.8870  174.0770  136.5250 N   0  0  0  0  0  2  0  0  0  0  0  0
  187.9590  171.8780  137.2540 O   0  0  0  0  0  0  0  0  0  0  0  0
  187.2530  172.8230  136.8090 C   0  0  0  0  0  0  0  0  0  0  0  0
  183.0950  172.6650  135.1450 C   0  0  0  0  0  3  0  0  0  0  0  0
  185.8020  172.6120  136.6210 C   0  0  0  0  0  0  0  0  0  0  0  0
  184.8550  173.1710  137.6130 C   0  0  0  0  0  3  0  0  0  0  0  0
  183.9930  171.4870  135.3150 C   0  0  0  0  0  2  0  0  0  0  0  0
  183.6020  173.5880  137.3850 C   0  0  0  0  0  3  0  0  0  0  0  0
  182.8850  173.5860  136.0870 C   0  0  0  0  0  0  0  0  0  0  0  0
  185.4070  171.8970  135.5630 C   0  0  0  0  0  3  0  0  0  0  0  0
  181.9230  174.5630  135.8200 O   0  0  0  0  0  0  0  0  0  0  0  0
  182.2580  175.9150  135.5380 C   0  0  0  0  0  1  0  0  0  0  0  0
  186.7990  177.8650  147.0810 N   0  0  0  0  0  2  0  0  0  0  0  0
  189.0110  178.2590  147.6310 O   0  0  0  0  0  0  0  0  0  0  0  0
  188.1960  177.8750  146.7480 C   0  0  0  0  0  0  0  0  0  0  0  0
  185.7130  177.5950  146.1590 C   0  0  0  0  0  2  0  0  0  0  0  0
  185.1140  178.9100  145.6990 C   0  0  0  0  0  2  0  0  0  0  0  0
  184.3540  178.7470  144.3920 C   0  0  1  0  0  3  0  0  0  0  0  0
  183.0670  179.2590  144.5530 O   0  0  0  0  0  1  0  0  0  0  0  0
  185.0700  179.4880  143.2680 C   0  0  0  0  0  2  0  0  0  0  0  0
  185.4180  178.5770  142.1010 C   0  0  0  0  0  2  0  0  0  0  0  0
  184.3860  179.4250  139.9730 C   0  0  0  0  0  0  0  0  0  0  0  0
  185.4980  179.3340  140.8620 N   0  0  0  0  0  2  0  0  0  0  0  0
  184.5470  179.9290  138.8330 O   0  0  0  0  0  0  0  0  0  0  0  0
  183.0960  178.9510  140.3830 N   0  0  0  0  0  2  0  0  0  0  0  0
  181.8950  178.9690  139.5520 C   0  0  1  0  0  3  0  0  0  0  0  0
  181.9060  180.1470  138.5860 C   0  0  0  0  0  2  0  0  0  0  0  0
  181.1870  181.2110  139.1290 O   0  0  0  0  0  1  0  0  0  0  0  0
  181.7380  177.6510  138.8040 C   0  0  0  0  0  2  0  0  0  0  0  0
  180.7440  176.8790  139.4090 O   0  0  0  0  0  0  0  0  0  0  0  0
  181.2760  175.5920  139.4670 C   0  0  0  0  0  1  0  0  0  0  0  0
  1  4  1  0  0  0  0
  2  5  2  0  0  0  0
  3 32  1  0  0  0  0
  4  3  2  0  0  0  0
  5  3  1  0  0  0  0
  6  1  2  0  0  0  0
  6  2  1  0  0  0  0
  7  6  1  1  0  0  0
  8  7  1  0  0  0  0
  9 11  1  1  0  0  0
  9  8  1  0  0  0  0
  9  7  1  0  0  0  0
 10  8  2  0  0  0  0
 12 11  1  0  0  0  0
 13 12  1  0  0  0  0
 15 14  2  0  0  0  0
 15 13  1  0  0  0  0
 16 17  1  0  0  0  0
 16 15  1  0  0  0  0
 17 18  1  0  0  0  0
 18 20  1  0  0  0  0
 20 19  2  0  0  0  0
 21 24  1  0  0  0  0
 21 26  2  0  0  0  0
 22 20  1  0  0  0  0
 22 23  1  0  0  0  0
 24 27  1  0  0  0  0
 25 23  2  0  0  0  0
 26 25  1  0  0  0  0
 27 22  2  0  0  0  0
 28 26  1  0  0  0  0
 29 28  1  0  0  0  0
 32 30  1  0  0  0  0
 32 31  2  0  0  0  0
 33 30  1  0  0  0  0
 34 33  1  0  0  0  0
 35 36  1  1  0  0  0
 35 34  1  0  0  0  0
 37 35  1  0  0  0  0
 38 37  1  0  0  0  0
 39 42  1  0  0  0  0
 39 40  1  0  0  0  0
 40 38  1  0  0  0  0
 41 39  2  0  0  0  0
 43 44  1  6  0  0  0
 43 42  1  0  0  0  0
 44 45  1  0  0  0  0
 46 47  1  0  0  0  0
 46 43  1  0  0  0  0
 47 48  1  0  0  0  0
M  END
>  <MODEL>
8

>  <REMARK>
 VINA RESULT:      -6.4      2.227      6.888
  Name = 
  21 active torsions:
  status: ('A' for Active; 'I' for Inactive)
    1  A    between atoms: C_3  and  O_22
    2  A    between atoms: C_3  and  C_37
    3  A    between atoms: C_4  and  C_19
    4  A    between atoms: C_4  and  C_31
    5  A    between atoms: C_5  and  C_48
    6  A    between atoms: C_7  and  C_37
    7  A    between atoms: O_8  and  C_31
    8  A    between atoms: O_8  and  C_39
    9  A    between atoms: C_11  and  C_21
   10  A    between atoms: C_11  and  C_34
   11  A    between atoms: N_12  and  C_18
   12  A    between atoms: N_14  and  C_45
   13  A    between atoms: N_15  and  C_29
   14  A    between atoms: O_16  and  C_46
   15  A    between atoms: C_17  and  C_43
   16  A    between atoms: C_18  and  C_21
   17  A    between atoms: C_24  and  C_29
   18  A    between atoms: C_24  and  C_39
   19  A    between atoms: C_25  and  C_41
   20  A    between atoms: C_34  and  C_45
   21  A    between atoms: C_37  and  N_44
                            x       y       z     vdW  Elec       q    Type
                         _______ _______ _______ _____ _____    ______ ____

>  <TORSDO>
F 21

$$$$
=
 OpenBabel10222420093D

 48 50  0  0  1  0  0  0  0  0999 V2000
  181.8780  178.9840  143.3180 C   0  0  0  0  0  3  0  0  0  0  0  0
  183.5700  178.6820  141.6180 C   0  0  0  0  0  3  0  0  0  0  0  0
  184.2050  178.7140  143.9700 C   0  0  0  0  0  0  0  0  0  0  0  0
  182.8570  178.8970  144.3100 C   0  0  0  0  0  3  0  0  0  0  0  0
  184.5490  178.5950  142.6140 C   0  0  0  0  0  3  0  0  0  0  0  0
  182.2290  178.9000  141.9660 C   0  0  0  0  0  0  0  0  0  0  0  0
  181.1380  178.9040  140.9220 C   0  0  2  0  0  3  0  0  0  0  0  0
  180.1210  177.7670  141.1180 C   0  0  0  0  0  0  0  0  0  0  0  0
  181.1410  177.8060  139.9790 C   0  0  2  0  0  3  0  0  0  0  0  0
  179.2120  177.2300  141.7300 O   0  0  0  0  0  0  0  0  0  0  0  0
  182.1460  176.6780  140.1970 C   0  0  0  0  0  2  0  0  0  0  0  0
  182.4980  176.0380  138.8670 C   0  0  0  0  0  2  0  0  0  0  0  0
  183.8110  176.4120  138.4660 O   0  0  0  0  0  0  0  0  0  0  0  0
  184.7530  177.8850  136.9500 O   0  0  0  0  0  0  0  0  0  0  0  0
  184.1200  176.8150  137.1640 C   0  0  0  0  0  0  0  0  0  0  0  0
  183.6520  175.9900  136.0190 C   0  0  0  0  0  2  0  0  0  0  0  0
  184.7960  175.1320  135.5140 C   0  0  0  0  0  2  0  0  0  0  0  0
  185.1100  174.0830  136.4750 N   0  0  0  0  0  2  0  0  0  0  0  0
  186.6000  172.7540  137.6520 O   0  0  0  0  0  0  0  0  0  0  0  0
  186.4210  173.8110  136.9890 C   0  0  0  0  0  0  0  0  0  0  0  0
  190.5270  175.5220  136.4460 C   0  0  0  0  0  3  0  0  0  0  0  0
  187.5660  174.7130  136.7470 C   0  0  0  0  0  0  0  0  0  0  0  0
  187.6890  175.9550  137.5440 C   0  0  0  0  0  3  0  0  0  0  0  0
  189.5630  175.2450  135.3420 C   0  0  0  0  0  2  0  0  0  0  0  0
  188.8220  176.5770  137.8980 C   0  0  0  0  0  3  0  0  0  0  0  0
  190.2080  176.1570  137.5750 C   0  0  0  0  0  0  0  0  0  0  0  0
  188.4380  174.3740  135.7920 C   0  0  0  0  0  3  0  0  0  0  0  0
  191.2480  176.4460  138.4600 O   0  0  0  0  0  0  0  0  0  0  0  0
  191.0440  177.1290  139.6900 C   0  0  0  0  0  1  0  0  0  0  0  0
  186.4940  177.8820  144.7930 N   0  0  0  0  0  2  0  0  0  0  0  0
  185.0730  179.1230  146.1310 O   0  0  0  0  0  0  0  0  0  0  0  0
  185.2630  178.5910  145.0020 C   0  0  0  0  0  0  0  0  0  0  0  0
  186.8250  177.0930  143.6220 C   0  0  0  0  0  2  0  0  0  0  0  0
  188.3070  176.7690  143.6450 C   0  0  0  0  0  2  0  0  0  0  0  0
  189.0900  177.6800  142.7120 C   0  0  1  0  0  3  0  0  0  0  0  0
  188.1910  178.4730  141.9990 O   0  0  0  0  0  1  0  0  0  0  0  0
  190.0410  178.5630  143.5110 C   0  0  0  0  0  2  0  0  0  0  0  0
  191.5020  178.2690  143.2050 C   0  0  0  0  0  2  0  0  0  0  0  0
  191.6480  176.1260  144.5090 C   0  0  0  0  0  0  0  0  0  0  0  0
  191.7660  176.8400  143.2800 N   0  0  0  0  0  2  0  0  0  0  0  0
  192.0600  174.9390  144.5740 O   0  0  0  0  0  0  0  0  0  0  0  0
  191.0560  176.7550  145.6530 N   0  0  0  0  0  2  0  0  0  0  0  0
  190.9060  176.1320  146.9660 C   0  0  1  0  0  3  0  0  0  0  0  0
  192.0520  176.5120  147.8950 C   0  0  0  0  0  2  0  0  0  0  0  0
  193.1190  175.6340  147.7130 O   0  0  0  0  0  1  0  0  0  0  0  0
  189.5600  176.4930  147.5830 C   0  0  0  0  0  2  0  0  0  0  0  0
  189.4660  177.8790  147.7350 O   0  0  0  0  0  0  0  0  0  0  0  0
  188.4080  178.0700  148.6210 C   0  0  0  0  0  1  0  0  0  0  0  0
  1  4  1  0  0  0  0
  2  6  1  0  0  0  0
  2  5  2  0  0  0  0
  3  4  2  0  0  0  0
  3 32  1  0  0  0  0
  5  3  1  0  0  0  0
  6  1  2  0  0  0  0
  7  8  1  0  0  0  0
  7  6  1  1  0  0  0
  8 10  2  0  0  0  0
  9 11  1  1  0  0  0
  9  7  1  0  0  0  0
  9  8  1  0  0  0  0
 12 11  1  0  0  0  0
 13 12  1  0  0  0  0
 14 15  2  0  0  0  0
 15 13  1  0  0  0  0
 16 15  1  0  0  0  0
 17 16  1  0  0  0  0
 17 18  1  0  0  0  0
 18 20  1  0  0  0  0
 20 19  2  0  0  0  0
 21 26  2  0  0  0  0
 22 20  1  0  0  0  0
 22 23  1  0  0  0  0
 23 25  2  0  0  0  0
 24 27  1  0  0  0  0
 24 21  1  0  0  0  0
 26 25  1  0  0  0  0
 26 28  1  0  0  0  0
 27 22  2  0  0  0  0
 28 29  1  0  0  0  0
 30 32  1  0  0  0  0
 32 31  2  0  0  0  0
 33 34  1  0  0  0  0
 33 30  1  0  0  0  0
 35 36  1  1  0  0  0
 35 37  1  0  0  0  0
 35 34  1  0  0  0  0
 38 40  1  0  0  0  0
 38 37  1  0  0  0  0
 39 41  2  0  0  0  0
 39 42  1  0  0  0  0
 40 39  1  0  0  0  0
 42 43  1  0  0  0  0
 43 46  1  1  0  0  0
 43 44  1  0  0  0  0
 45 44  1  0  0  0  0
 46 47  1  0  0  0  0
 47 48  1  0  0  0  0
M  END
>  <MODEL>
9

>  <REMARK>
 VINA RESULT:      -6.3      2.227      7.088
  Name = 
  21 active torsions:
  status: ('A' for Active; 'I' for Inactive)
    1  A    between atoms: C_3  and  O_22
    2  A    between atoms: C_3  and  C_37
    3  A    between atoms: C_4  and  C_19
    4  A    between atoms: C_4  and  C_31
    5  A    between atoms: C_5  and  C_48
    6  A    between atoms: C_7  and  C_37
    7  A    between atoms: O_8  and  C_31
    8  A    between atoms: O_8  and  C_39
    9  A    between atoms: C_11  and  C_21
   10  A    between atoms: C_11  and  C_34
   11  A    between atoms: N_12  and  C_18
   12  A    between atoms: N_14  and  C_45
   13  A    between atoms: N_15  and  C_29
   14  A    between atoms: O_16  and  C_46
   15  A    between atoms: C_17  and  C_43
   16  A    between atoms: C_18  and  C_21
   17  A    between atoms: C_24  and  C_29
   18  A    between atoms: C_24  and  C_39
   19  A    between atoms: C_25  and  C_41
   20  A    between atoms: C_34  and  C_45
   21  A    between atoms: C_37  and  N_44
                            x       y       z     vdW  Elec       q    Type
                         _______ _______ _______ _____ _____    ______ ____

>  <TORSDO>
F 21

$$$$
