=
 OpenBabel10222421093D

 29 32  0  0  1  0  0  0  0  0999 V2000
  190.4350  177.1020  146.8780 C   0  0  0  0  0  0  0  0  0  0  0  0
  189.7690  177.0690  142.2040 C   0  0  0  0  0  2  0  0  0  0  0  0
  189.2080  177.6610  140.9080 C   0  0  0  0  0  0  0  0  0  0  0  0
  189.9240  177.5040  139.6820 N   0  0  0  0  0  2  0  0  0  0  0  0
  188.1620  177.7980  145.4200 C   0  0  0  0  0  0  0  0  0  0  0  0
  187.6580  177.6960  143.2190 C   0  0  1  0  0  3  0  0  0  0  0  0
  190.5090  177.2000  145.4720 C   0  0  0  0  0  3  0  0  0  0  0  0
  189.3450  177.5100  144.7740 C   0  0  0  0  0  0  0  0  0  0  0  0
  187.1080  178.1210  144.5070 N   0  0  0  0  0  0  0  0  0  0  0  0
  187.2760  178.4750  142.0580 N   0  0  0  0  0  2  0  0  0  0  0  0
  188.0640  177.7100  146.8100 C   0  0  0  0  0  3  0  0  0  0  0  0
  188.0630  178.3090  140.8950 N   0  0  0  0  0  0  0  0  0  0  0  0
  189.2130  177.3560  147.5360 C   0  0  0  0  0  3  0  0  0  0  0  0
  189.1510  177.8410  143.3500 C   0  0  1  0  0  3  0  0  0  0  0  0
  191.5540  176.7660  147.6450 O   0  0  0  0  0  0  0  0  0  0  0  0
  192.3790  175.6470  147.3510 C   0  0  0  0  0  1  0  0  0  0  0  0
  191.1940  176.8000  139.6030 C   0  0  0  0  0  2  0  0  0  0  0  0
  192.9130  175.6910  136.4740 O   0  0  0  0  0  0  0  0  0  0  0  0
  190.9720  174.7900  138.3340 O   0  0  0  0  0  0  0  0  0  0  0  0
  191.0860  174.2310  137.0450 C   0  0  0  0  0  2  0  0  0  0  0  0
  192.7980  176.2490  137.7620 C   0  0  0  0  0  2  0  0  0  0  0  0
  191.3410  176.1460  138.2420 C   0  0  2  0  0  3  0  0  0  0  0  0
  192.5390  174.3350  136.5650 C   0  0  0  0  0  2  0  0  0  0  0  0
  185.6960  178.0660  144.8880 C   0  0  2  0  0  3  0  0  0  0  0  0
  184.6920  180.0150  143.9120 O   0  0  0  0  0  1  0  0  0  0  0  0
  184.1120  178.0140  142.9620 O   0  0  0  0  0  0  0  0  0  0  0  0
  184.8130  178.7610  143.8980 C   0  0  0  0  0  0  0  0  0  0  0  0
  184.1860  178.1890  146.7610 F   0  0  0  0  0  0  0  0  0  0  0  0
  185.4550  178.5240  146.3250 C   0  0  0  0  0  2  0  0  0  0  0  0
  1 13  1  0  0  0  0
  1 15  1  0  0  0  0
  3  2  1  0  0  0  0
  4  3  1  0  0  0  0
  5 11  1  0  0  0  0
  6 10  1  6  0  0  0
  6 14  1  0  0  0  0
  6  9  1  0  0  0  0
  7  1  2  0  0  0  0
  8  5  2  0  0  0  0
  8  7  1  0  0  0  0
  9 24  1  0  0  0  0
  9  5  1  0  0  0  0
 11 13  2  0  0  0  0
 12  3  2  0  0  0  0
 12 10  1  0  0  0  0
 14  2  1  6  0  0  0
 14  8  1  0  0  0  0
 16 15  1  0  0  0  0
 17  4  1  0  0  0  0
 18 23  1  0  0  0  0
 18 21  1  0  0  0  0
 20 19  1  0  0  0  0
 21 22  1  0  0  0  0
 22 19  1  0  0  0  0
 22 17  1  1  0  0  0
 23 20  1  0  0  0  0
 24 29  1  1  0  0  0
 26 27  2  0  0  0  0
 27 25  1  0  0  0  0
 27 24  1  0  0  0  0
 29 28  1  0  0  0  0
M  END
>  <MODEL>
1

>  <REMARK>
 VINA RESULT:      -9.1      0.000      0.000
  Name = 
  6 active torsions:
  status: ('A' for Active; 'I' for Inactive)
    1  A    between atoms: C_1  and  N_15
    2  A    between atoms: C_1  and  C_23
    3  A    between atoms: C_2  and  O_6
    4  A    between atoms: C_5  and  C_12
    5  A    between atoms: C_5  and  N_21
    6  A    between atoms: C_5  and  C_24
                            x       y       z     vdW  Elec       q    Type
                         _______ _______ _______ _____ _____    ______ ____

>  <TORSDO>
F 6

$$$$
=
 OpenBabel10222421093D

 29 32  0  0  1  0  0  0  0  0999 V2000
  184.6950  178.6370  145.4580 C   0  0  0  0  0  0  0  0  0  0  0  0
  187.9750  177.9340  142.1360 C   0  0  0  0  0  2  0  0  0  0  0  0
  189.1640  177.1740  141.5400 C   0  0  0  0  0  0  0  0  0  0  0  0
  189.3090  177.0730  140.1230 N   0  0  0  0  0  2  0  0  0  0  0  0
  187.3600  177.8670  145.7510 C   0  0  0  0  0  0  0  0  0  0  0  0
  189.0620  177.6340  144.2820 C   0  0  1  0  0  3  0  0  0  0  0  0
  185.4560  178.3000  144.3180 C   0  0  0  0  0  3  0  0  0  0  0  0
  186.7940  177.9590  144.4980 C   0  0  0  0  0  0  0  0  0  0  0  0
  188.7340  177.4700  145.6990 N   0  0  0  0  0  0  0  0  0  0  0  0
  190.0190  176.7000  143.7220 N   0  0  0  0  0  2  0  0  0  0  0  0
  186.6280  178.1920  146.8950 C   0  0  0  0  0  3  0  0  0  0  0  0
  190.0700  176.6150  142.3120 N   0  0  0  0  0  0  0  0  0  0  0  0
  185.2880  178.5820  146.7370 C   0  0  0  0  0  3  0  0  0  0  0  0
  187.7710  177.4090  143.5410 C   0  0  1  0  0  3  0  0  0  0  0  0
  183.3550  179.0170  145.3540 O   0  0  0  0  0  0  0  0  0  0  0  0
  182.6360  178.9700  144.1300 C   0  0  0  0  0  1  0  0  0  0  0  0
  188.3580  177.6640  139.1950 C   0  0  0  0  0  2  0  0  0  0  0  0
  189.2120  177.5990  135.5550 O   0  0  0  0  0  0  0  0  0  0  0  0
  189.4550  175.9970  137.8830 O   0  0  0  0  0  0  0  0  0  0  0  0
  189.5720  175.4540  136.5880 C   0  0  0  0  0  2  0  0  0  0  0  0
  189.0940  178.1410  136.8500 C   0  0  0  0  0  2  0  0  0  0  0  0
  188.5470  177.0720  137.8100 C   0  0  2  0  0  3  0  0  0  0  0  0
  190.1160  176.5210  135.6290 C   0  0  0  0  0  2  0  0  0  0  0  0
  189.6550  177.6860  146.8160 C   0  0  2  0  0  3  0  0  0  0  0  0
  190.6980  175.6010  147.3880 O   0  0  0  0  0  1  0  0  0  0  0  0
  191.9770  177.0520  146.1610 O   0  0  0  0  0  0  0  0  0  0  0  0
  190.7960  176.7150  146.8070 C   0  0  0  0  0  0  0  0  0  0  0  0
  189.5990  178.5910  149.0480 F   0  0  0  0  0  0  0  0  0  0  0  0
  188.9420  177.7540  148.1640 C   0  0  0  0  0  2  0  0  0  0  0  0
  1 13  1  0  0  0  0
  3  2  1  0  0  0  0
  3 12  2  0  0  0  0
  4  3  1  0  0  0  0
  5 11  1  0  0  0  0
  6 10  1  6  0  0  0
  6  9  1  0  0  0  0
  7  8  1  0  0  0  0
  7  1  2  0  0  0  0
  8  5  2  0  0  0  0
  9  5  1  0  0  0  0
  9 24  1  0  0  0  0
 12 10  1  0  0  0  0
 13 11  2  0  0  0  0
 14  2  1  6  0  0  0
 14  6  1  0  0  0  0
 14  8  1  0  0  0  0
 15  1  1  0  0  0  0
 16 15  1  0  0  0  0
 17  4  1  0  0  0  0
 18 23  1  0  0  0  0
 18 21  1  0  0  0  0
 20 19  1  0  0  0  0
 21 22  1  0  0  0  0
 22 19  1  0  0  0  0
 22 17  1  1  0  0  0
 23 20  1  0  0  0  0
 24 29  1  1  0  0  0
 26 27  2  0  0  0  0
 27 24  1  0  0  0  0
 27 25  1  0  0  0  0
 29 28  1  0  0  0  0
M  END
>  <MODEL>
2

>  <REMARK>
 VINA RESULT:      -9.0      2.205      4.760
  Name = 
  6 active torsions:
  status: ('A' for Active; 'I' for Inactive)
    1  A    between atoms: C_1  and  N_15
    2  A    between atoms: C_1  and  C_23
    3  A    between atoms: C_2  and  O_6
    4  A    between atoms: C_5  and  C_12
    5  A    between atoms: C_5  and  N_21
    6  A    between atoms: C_5  and  C_24
                            x       y       z     vdW  Elec       q    Type
                         _______ _______ _______ _____ _____    ______ ____

>  <TORSDO>
F 6

$$$$
=
 OpenBabel10222421093D

 29 32  0  0  1  0  0  0  0  0999 V2000
  184.8650  178.6300  145.3090 C   0  0  0  0  0  0  0  0  0  0  0  0
  187.7340  178.1140  141.5950 C   0  0  0  0  0  2  0  0  0  0  0  0
  188.8350  177.3830  140.8200 C   0  0  0  0  0  0  0  0  0  0  0  0
  188.8160  177.3750  139.3920 N   0  0  0  0  0  2  0  0  0  0  0  0
  187.5320  177.8160  145.2450 C   0  0  0  0  0  0  0  0  0  0  0  0
  189.0530  177.6630  143.5800 C   0  0  1  0  0  3  0  0  0  0  0  0
  185.4860  178.3610  144.0710 C   0  0  0  0  0  3  0  0  0  0  0  0
  186.8290  177.9960  144.0740 C   0  0  0  0  0  0  0  0  0  0  0  0
  188.8840  177.4090  145.0110 N   0  0  0  0  0  0  0  0  0  0  0  0
  189.9230  176.7590  142.8550 N   0  0  0  0  0  2  0  0  0  0  0  0
  186.9410  178.0730  146.4840 C   0  0  0  0  0  3  0  0  0  0  0  0
  189.8120  176.7660  141.4450 N   0  0  0  0  0  0  0  0  0  0  0  0
  185.5990  178.4860  146.5060 C   0  0  0  0  0  3  0  0  0  0  0  0
  187.6820  177.5000  142.9780 C   0  0  1  0  0  3  0  0  0  0  0  0
  183.5280  179.0300  145.3840 O   0  0  0  0  0  0  0  0  0  0  0  0
  182.6420  178.9560  144.2760 C   0  0  0  0  0  1  0  0  0  0  0  0
  187.7770  178.0350  138.6190 C   0  0  0  0  0  2  0  0  0  0  0  0
  186.8060  176.8510  135.2080 O   0  0  0  0  0  0  0  0  0  0  0  0
  187.9500  175.8760  137.6120 O   0  0  0  0  0  0  0  0  0  0  0  0
  187.3870  175.0130  136.6500 C   0  0  0  0  0  2  0  0  0  0  0  0
  187.3670  177.7120  136.1700 C   0  0  0  0  0  2  0  0  0  0  0  0
  187.2300  177.0860  137.5670 C   0  0  2  0  0  3  0  0  0  0  0  0
  187.5220  175.6380  135.2560 C   0  0  0  0  0  2  0  0  0  0  0  0
  189.9300  177.5430  146.0270 C   0  0  2  0  0  3  0  0  0  0  0  0
  191.7930  176.1080  145.5440 O   0  0  0  0  0  1  0  0  0  0  0  0
  192.0220  178.2920  144.8950 O   0  0  0  0  0  0  0  0  0  0  0  0
  191.2950  177.2630  145.4760 C   0  0  0  0  0  0  0  0  0  0  0  0
  189.5460  177.5680  148.4050 F   0  0  0  0  0  0  0  0  0  0  0  0
  189.6260  176.7470  147.2940 C   0  0  0  0  0  2  0  0  0  0  0  0
  1 15  1  0  0  0  0
  1 13  1  0  0  0  0
  3 12  2  0  0  0  0
  3  2  1  0  0  0  0
  4  3  1  0  0  0  0
  5 11  1  0  0  0  0
  6 10  1  6  0  0  0
  6  9  1  0  0  0  0
  7  8  1  0  0  0  0
  7  1  2  0  0  0  0
  8  5  2  0  0  0  0
  9  5  1  0  0  0  0
  9 24  1  0  0  0  0
 11 13  2  0  0  0  0
 12 10  1  0  0  0  0
 14  2  1  6  0  0  0
 14  6  1  0  0  0  0
 14  8  1  0  0  0  0
 16 15  1  0  0  0  0
 17  4  1  0  0  0  0
 18 23  1  0  0  0  0
 18 21  1  0  0  0  0
 20 19  1  0  0  0  0
 21 22  1  0  0  0  0
 22 19  1  0  0  0  0
 22 17  1  1  0  0  0
 23 20  1  0  0  0  0
 24 29  1  1  0  0  0
 26 27  2  0  0  0  0
 27 25  1  0  0  0  0
 27 24  1  0  0  0  0
 29 28  1  0  0  0  0
M  END
>  <MODEL>
3

>  <REMARK>
 VINA RESULT:      -9.0      2.698      5.002
  Name = 
  6 active torsions:
  status: ('A' for Active; 'I' for Inactive)
    1  A    between atoms: C_1  and  N_15
    2  A    between atoms: C_1  and  C_23
    3  A    between atoms: C_2  and  O_6
    4  A    between atoms: C_5  and  C_12
    5  A    between atoms: C_5  and  N_21
    6  A    between atoms: C_5  and  C_24
                            x       y       z     vdW  Elec       q    Type
                         _______ _______ _______ _____ _____    ______ ____

>  <TORSDO>
F 6

$$$$
=
 OpenBabel10222421093D

 29 32  0  0  1  0  0  0  0  0999 V2000
  188.8030  177.1280  146.2860 C   0  0  0  0  0  0  0  0  0  0  0  0
  189.3300  177.1850  141.5940 C   0  0  0  0  0  2  0  0  0  0  0  0
  189.1490  177.8250  140.2140 C   0  0  0  0  0  0  0  0  0  0  0  0
  190.1390  177.6340  139.2030 N   0  0  0  0  0  2  0  0  0  0  0  0
  187.0140  177.9840  144.3240 C   0  0  0  0  0  0  0  0  0  0  0  0
  187.0730  177.9360  142.0640 C   0  0  1  0  0  3  0  0  0  0  0  0
  189.2320  177.2360  144.9460 C   0  0  0  0  0  3  0  0  0  0  0  0
  188.3020  177.6270  143.9870 C   0  0  0  0  0  0  0  0  0  0  0  0
  186.2450  178.3830  143.1850 N   0  0  0  0  0  0  0  0  0  0  0  0
  187.0420  178.7500  140.8650 N   0  0  0  0  0  2  0  0  0  0  0  0
  186.5650  177.8890  145.6430 C   0  0  0  0  0  3  0  0  0  0  0  0
  188.0850  178.5440  139.9330 N   0  0  0  0  0  0  0  0  0  0  0  0
  187.4720  177.4540  146.6230 C   0  0  0  0  0  3  0  0  0  0  0  0
  188.4910  177.9840  142.5680 C   0  0  1  0  0  3  0  0  0  0  0  0
  189.6710  176.7140  147.2990 O   0  0  0  0  0  0  0  0  0  0  0  0
  191.0780  176.6360  147.1200 C   0  0  0  0  0  1  0  0  0  0  0  0
  191.3430  176.8510  139.4250 C   0  0  0  0  0  2  0  0  0  0  0  0
  193.5730  175.4310  136.7810 O   0  0  0  0  0  0  0  0  0  0  0  0
  191.2370  174.7750  138.2490 O   0  0  0  0  0  0  0  0  0  0  0  0
  191.5680  174.1240  137.0440 C   0  0  0  0  0  2  0  0  0  0  0  0
  193.2410  176.0810  137.9860 C   0  0  0  0  0  2  0  0  0  0  0  0
  191.7140  176.0980  138.1610 C   0  0  2  0  0  3  0  0  0  0  0  0
  193.0920  174.1090  136.8680 C   0  0  0  0  0  2  0  0  0  0  0  0
  184.7810  178.4150  143.2000 C   0  0  2  0  0  3  0  0  0  0  0  0
  183.7040  177.3660  141.3290 O   0  0  0  0  0  1  0  0  0  0  0  0
  184.2150  179.5830  141.0700 O   0  0  0  0  0  0  0  0  0  0  0  0
  184.1990  178.4150  141.8190 C   0  0  0  0  0  0  0  0  0  0  0  0
  182.9940  179.1950  144.6150 F   0  0  0  0  0  0  0  0  0  0  0  0
  184.2250  179.5320  144.0800 C   0  0  0  0  0  2  0  0  0  0  0  0
  1 13  1  0  0  0  0
  1 15  1  0  0  0  0
  3  2  1  0  0  0  0
  4 17  1  0  0  0  0
  4  3  1  0  0  0  0
  5 11  1  0  0  0  0
  6 10  1  6  0  0  0
  6 14  1  0  0  0  0
  6  9  1  0  0  0  0
  7  1  2  0  0  0  0
  8  5  2  0  0  0  0
  8  7  1  0  0  0  0
  9 24  1  0  0  0  0
  9  5  1  0  0  0  0
 11 13  2  0  0  0  0
 12  3  2  0  0  0  0
 12 10  1  0  0  0  0
 14  2  1  6  0  0  0
 14  8  1  0  0  0  0
 16 15  1  0  0  0  0
 18 23  1  0  0  0  0
 18 21  1  0  0  0  0
 20 19  1  0  0  0  0
 21 22  1  0  0  0  0
 22 19  1  0  0  0  0
 22 17  1  1  0  0  0
 23 20  1  0  0  0  0
 24 29  1  6  0  0  0
 25 27  1  0  0  0  0
 26 27  2  0  0  0  0
 27 24  1  0  0  0  0
 29 28  1  0  0  0  0
M  END
>  <MODEL>
4

>  <REMARK>
 VINA RESULT:      -8.6      1.262      1.642
  Name = 
  6 active torsions:
  status: ('A' for Active; 'I' for Inactive)
    1  A    between atoms: C_1  and  N_15
    2  A    between atoms: C_1  and  C_23
    3  A    between atoms: C_2  and  O_6
    4  A    between atoms: C_5  and  C_12
    5  A    between atoms: C_5  and  N_21
    6  A    between atoms: C_5  and  C_24
                            x       y       z     vdW  Elec       q    Type
                         _______ _______ _______ _____ _____    ______ ____

>  <TORSDO>
F 6

$$$$
=
 OpenBabel10222421093D

 29 32  0  0  1  0  0  0  0  0999 V2000
  189.7370  176.6420  141.8330 C   0  0  0  0  0  0  0  0  0  0  0  0
  185.5620  177.9090  143.6390 C   0  0  0  0  0  2  0  0  0  0  0  0
  184.6880  178.7080  144.6100 C   0  0  0  0  0  0  0  0  0  0  0  0
  183.3880  179.1410  144.2100 N   0  0  0  0  0  2  0  0  0  0  0  0
  189.0450  177.1330  144.4900 C   0  0  0  0  0  0  0  0  0  0  0  0
  187.0790  177.5990  145.5050 C   0  0  1  0  0  3  0  0  0  0  0  0
  188.4740  177.1940  142.1370 C   0  0  0  0  0  3  0  0  0  0  0  0
  188.1470  177.3880  143.4760 C   0  0  0  0  0  0  0  0  0  0  0  0
  188.5070  177.4350  145.7810 N   0  0  0  0  0  0  0  0  0  0  0  0
  186.3670  178.5740  146.3080 N   0  0  0  0  0  2  0  0  0  0  0  0
  190.3010  176.5880  144.2160 C   0  0  0  0  0  3  0  0  0  0  0  0
  185.1090  178.9970  145.8220 N   0  0  0  0  0  0  0  0  0  0  0  0
  190.6390  176.3420  142.8750 C   0  0  0  0  0  3  0  0  0  0  0  0
  186.9980  178.0870  144.0830 C   0  0  1  0  0  3  0  0  0  0  0  0
  190.1250  176.3920  140.5140 O   0  0  0  0  0  0  0  0  0  0  0  0
  191.0130  177.2410  139.8010 C   0  0  0  0  0  1  0  0  0  0  0  0
  182.8410  178.8620  142.8920 C   0  0  0  0  0  2  0  0  0  0  0  0
  179.4500  178.2530  144.3430 O   0  0  0  0  0  0  0  0  0  0  0  0
  180.8360  180.1520  142.7580 O   0  0  0  0  0  0  0  0  0  0  0  0
  179.4290  180.0850  142.7820 C   0  0  0  0  0  2  0  0  0  0  0  0
  180.8570  178.3190  144.3180 C   0  0  0  0  0  2  0  0  0  0  0  0
  181.3250  178.8450  142.9510 C   0  0  2  0  0  3  0  0  0  0  0  0
  178.9610  179.5590  144.1450 C   0  0  0  0  0  2  0  0  0  0  0  0
  189.0760  176.8890  147.0150 C   0  0  2  0  0  3  0  0  0  0  0  0
  189.1420  178.7040  148.5860 O   0  0  0  0  0  0  0  0  0  0  0  0
  187.5600  177.0970  148.9850 O   0  0  0  0  0  1  0  0  0  0  0  0
  188.6010  177.6220  148.2330 C   0  0  0  0  0  0  0  0  0  0  0  0
  191.0390  175.6360  147.6320 F   0  0  0  0  0  0  0  0  0  0  0  0
  190.5960  176.7580  146.9550 C   0  0  0  0  0  2  0  0  0  0  0  0
  1  7  2  0  0  0  0
  1 13  1  0  0  0  0
  2  3  1  0  0  0  0
  3 12  2  0  0  0  0
  4  3  1  0  0  0  0
  5  9  1  0  0  0  0
  6  9  1  0  0  0  0
  6 10  1  1  0  0  0
  7  8  1  0  0  0  0
  8 14  1  0  0  0  0
  8  5  2  0  0  0  0
  9 24  1  0  0  0  0
 11  5  1  0  0  0  0
 12 10  1  0  0  0  0
 13 11  2  0  0  0  0
 14  2  1  6  0  0  0
 14  6  1  0  0  0  0
 15  1  1  0  0  0  0
 16 15  1  0  0  0  0
 17  4  1  0  0  0  0
 19 20  1  0  0  0  0
 19 22  1  0  0  0  0
 20 23  1  0  0  0  0
 21 18  1  0  0  0  0
 22 17  1  1  0  0  0
 22 21  1  0  0  0  0
 23 18  1  0  0  0  0
 24 29  1  6  0  0  0
 24 27  1  0  0  0  0
 27 25  2  0  0  0  0
 27 26  1  0  0  0  0
 29 28  1  0  0  0  0
M  END
>  <MODEL>
5

>  <REMARK>
 VINA RESULT:      -8.6      3.129      8.080
  Name = 
  6 active torsions:
  status: ('A' for Active; 'I' for Inactive)
    1  A    between atoms: C_1  and  N_15
    2  A    between atoms: C_1  and  C_23
    3  A    between atoms: C_2  and  O_6
    4  A    between atoms: C_5  and  C_12
    5  A    between atoms: C_5  and  N_21
    6  A    between atoms: C_5  and  C_24
                            x       y       z     vdW  Elec       q    Type
                         _______ _______ _______ _____ _____    ______ ____

>  <TORSDO>
F 6

$$$$
=
 OpenBabel10222421093D

 29 32  0  0  1  0  0  0  0  0999 V2000
  186.4400  177.9220  145.1650 C   0  0  0  0  0  0  0  0  0  0  0  0
  187.8710  178.0680  140.6680 C   0  0  0  0  0  2  0  0  0  0  0  0
  188.6840  177.5370  139.4830 C   0  0  0  0  0  0  0  0  0  0  0  0
  188.1720  177.6570  138.1560 N   0  0  0  0  0  2  0  0  0  0  0  0
  188.9710  177.4170  144.1070 C   0  0  0  0  0  0  0  0  0  0  0  0
  189.8260  177.5870  142.0210 C   0  0  1  0  0  3  0  0  0  0  0  0
  186.6100  177.8370  143.7670 C   0  0  0  0  0  3  0  0  0  0  0  0
  187.8940  177.6250  143.2720 C   0  0  0  0  0  0  0  0  0  0  0  0
  190.1830  177.1870  143.3820 N   0  0  0  0  0  0  0  0  0  0  0  0
  190.4540  176.8540  140.9390 N   0  0  0  0  0  2  0  0  0  0  0  0
  188.8290  177.4930  145.4940 C   0  0  0  0  0  3  0  0  0  0  0  0
  189.8610  176.9770  139.6620 N   0  0  0  0  0  0  0  0  0  0  0  0
  187.5520  177.7510  146.0170 C   0  0  0  0  0  3  0  0  0  0  0  0
  188.3470  177.3290  141.9000 C   0  0  1  0  0  3  0  0  0  0  0  0
  185.1870  178.1630  145.7350 O   0  0  0  0  0  0  0  0  0  0  0  0
  184.2160  179.0030  145.1270 C   0  0  0  0  0  1  0  0  0  0  0  0
  186.8840  178.2650  137.8660 C   0  0  0  0  0  2  0  0  0  0  0  0
  186.1240  175.2610  135.7740 O   0  0  0  0  0  0  0  0  0  0  0  0
  184.8380  177.0800  137.5280 O   0  0  0  0  0  0  0  0  0  0  0  0
  184.1150  176.2820  136.6200 C   0  0  0  0  0  2  0  0  0  0  0  0
  186.8470  176.0600  136.6810 C   0  0  0  0  0  2  0  0  0  0  0  0
  186.0840  177.3700  136.9370 C   0  0  2  0  0  3  0  0  0  0  0  0
  184.8760  174.9750  136.3630 C   0  0  0  0  0  2  0  0  0  0  0  0
  191.5040  177.3420  143.9950 C   0  0  2  0  0  3  0  0  0  0  0  0
  192.0540  175.0310  144.3430 O   0  0  0  0  0  0  0  0  0  0  0  0
  192.0090  176.3390  146.2220 O   0  0  0  0  0  1  0  0  0  0  0  0
  191.8740  176.1700  144.8520 C   0  0  0  0  0  0  0  0  0  0  0  0
  191.2930  179.7400  143.9080 F   0  0  0  0  0  0  0  0  0  0  0  0
  191.6670  178.6790  144.7140 C   0  0  0  0  0  2  0  0  0  0  0  0
  1 15  1  0  0  0  0
  1 13  1  0  0  0  0
  3 12  2  0  0  0  0
  3  2  1  0  0  0  0
  4  3  1  0  0  0  0
  5 11  1  0  0  0  0
  6 10  1  6  0  0  0
  6  9  1  0  0  0  0
  7  1  2  0  0  0  0
  8  7  1  0  0  0  0
  8  5  2  0  0  0  0
  9 24  1  0  0  0  0
  9  5  1  0  0  0  0
 11 13  2  0  0  0  0
 12 10  1  0  0  0  0
 14  2  1  6  0  0  0
 14  6  1  0  0  0  0
 14  8  1  0  0  0  0
 16 15  1  0  0  0  0
 17  4  1  0  0  0  0
 18 23  1  0  0  0  0
 18 21  1  0  0  0  0
 20 19  1  0  0  0  0
 21 22  1  0  0  0  0
 22 19  1  0  0  0  0
 22 17  1  1  0  0  0
 23 20  1  0  0  0  0
 24 29  1  1  0  0  0
 24 27  1  0  0  0  0
 25 27  2  0  0  0  0
 27 26  1  0  0  0  0
 28 29  1  0  0  0  0
M  END
>  <MODEL>
6

>  <REMARK>
 VINA RESULT:      -8.5      3.405      5.511
  Name = 
  6 active torsions:
  status: ('A' for Active; 'I' for Inactive)
    1  A    between atoms: C_1  and  N_15
    2  A    between atoms: C_1  and  C_23
    3  A    between atoms: C_2  and  O_6
    4  A    between atoms: C_5  and  C_12
    5  A    between atoms: C_5  and  N_21
    6  A    between atoms: C_5  and  C_24
                            x       y       z     vdW  Elec       q    Type
                         _______ _______ _______ _____ _____    ______ ____

>  <TORSDO>
F 6

$$$$
=
 OpenBabel10222421093D

 29 32  0  0  1  0  0  0  0  0999 V2000
  185.4110  178.3790  145.1990 C   0  0  0  0  0  0  0  0  0  0  0  0
  187.3180  178.3200  140.8800 C   0  0  0  0  0  2  0  0  0  0  0  0
  188.2320  177.7210  139.8060 C   0  0  0  0  0  0  0  0  0  0  0  0
  187.8700  177.8140  138.4280 N   0  0  0  0  0  2  0  0  0  0  0  0
  188.0190  177.7490  144.4350 C   0  0  0  0  0  0  0  0  0  0  0  0
  189.0970  177.8170  142.4490 C   0  0  1  0  0  3  0  0  0  0  0  0
  185.7260  178.2400  143.8300 C   0  0  0  0  0  3  0  0  0  0  0  0
  187.0460  177.9660  143.4830 C   0  0  0  0  0  0  0  0  0  0  0  0
  189.2920  177.4520  143.8530 N   0  0  0  0  0  0  0  0  0  0  0  0
  189.8080  177.0270  141.4650 N   0  0  0  0  0  2  0  0  0  0  0  0
  187.7330  177.8780  145.7960 C   0  0  0  0  0  3  0  0  0  0  0  0
  189.3600  177.1270  140.1270 N   0  0  0  0  0  0  0  0  0  0  0  0
  186.4180  178.1980  146.1710 C   0  0  0  0  0  3  0  0  0  0  0  0
  187.6310  177.6080  142.1780 C   0  0  1  0  0  3  0  0  0  0  0  0
  184.1150  178.6820  145.6220 O   0  0  0  0  0  0  0  0  0  0  0  0
  183.0670  179.0030  144.7180 C   0  0  0  0  0  1  0  0  0  0  0  0
  186.6440  178.4560  137.9830 C   0  0  0  0  0  2  0  0  0  0  0  0
  185.8220  175.3110  136.1370 O   0  0  0  0  0  0  0  0  0  0  0  0
  184.6540  177.1360  137.9660 O   0  0  0  0  0  0  0  0  0  0  0  0
  183.8750  176.2510  137.1950 C   0  0  0  0  0  2  0  0  0  0  0  0
  186.6010  176.1960  136.9070 C   0  0  0  0  0  2  0  0  0  0  0  0
  185.7930  177.4700  137.2060 C   0  0  2  0  0  3  0  0  0  0  0  0
  184.6820  174.9810  136.8960 C   0  0  0  0  0  2  0  0  0  0  0  0
  190.5450  177.5810  144.5990 C   0  0  2  0  0  3  0  0  0  0  0  0
  191.3040  179.8440  144.3430 O   0  0  0  0  0  1  0  0  0  0  0  0
  192.4300  178.2710  143.1200 O   0  0  0  0  0  0  0  0  0  0  0  0
  191.4430  178.6340  144.0240 C   0  0  0  0  0  0  0  0  0  0  0  0
  192.0430  176.2510  145.9370 F   0  0  0  0  0  0  0  0  0  0  0  0
  191.2510  176.2430  144.8020 C   0  0  0  0  0  2  0  0  0  0  0  0
  1 15  1  0  0  0  0
  1 13  1  0  0  0  0
  3 12  2  0  0  0  0
  3  2  1  0  0  0  0
  4  3  1  0  0  0  0
  5 11  1  0  0  0  0
  6 10  1  6  0  0  0
  6  9  1  0  0  0  0
  7  1  2  0  0  0  0
  8  7  1  0  0  0  0
  8  5  2  0  0  0  0
  9  5  1  0  0  0  0
  9 24  1  0  0  0  0
 11 13  2  0  0  0  0
 12 10  1  0  0  0  0
 14  2  1  6  0  0  0
 14  6  1  0  0  0  0
 14  8  1  0  0  0  0
 16 15  1  0  0  0  0
 17  4  1  0  0  0  0
 18 23  1  0  0  0  0
 18 21  1  0  0  0  0
 20 19  1  0  0  0  0
 21 22  1  0  0  0  0
 22 19  1  0  0  0  0
 22 17  1  1  0  0  0
 23 20  1  0  0  0  0
 24 29  1  6  0  0  0
 26 27  2  0  0  0  0
 27 25  1  0  0  0  0
 27 24  1  0  0  0  0
 29 28  1  0  0  0  0
M  END
>  <MODEL>
7

>  <REMARK>
 VINA RESULT:      -8.2      3.540      5.532
  Name = 
  6 active torsions:
  status: ('A' for Active; 'I' for Inactive)
    1  A    between atoms: C_1  and  N_15
    2  A    between atoms: C_1  and  C_23
    3  A    between atoms: C_2  and  O_6
    4  A    between atoms: C_5  and  C_12
    5  A    between atoms: C_5  and  N_21
    6  A    between atoms: C_5  and  C_24
                            x       y       z     vdW  Elec       q    Type
                         _______ _______ _______ _____ _____    ______ ____

>  <TORSDO>
F 6

$$$$
=
 OpenBabel10222421093D

 29 32  0  0  1  0  0  0  0  0999 V2000
  185.3400  178.6290  139.0490 C   0  0  0  0  0  0  0  0  0  0  0  0
  184.5560  179.2230  143.6670 C   0  0  0  0  0  2  0  0  0  0  0  0
  183.8300  178.8950  144.9750 C   0  0  0  0  0  0  0  0  0  0  0  0
  184.5250  178.9850  146.2200 N   0  0  0  0  0  2  0  0  0  0  0  0
  182.9220  178.6150  140.4400 C   0  0  0  0  0  0  0  0  0  0  0  0
  182.3880  179.0240  142.5980 C   0  0  1  0  0  3  0  0  0  0  0  0
  185.3440  178.6380  140.4600 C   0  0  0  0  0  3  0  0  0  0  0  0
  184.1190  178.6720  141.1210 C   0  0  0  0  0  0  0  0  0  0  0  0
  181.7940  178.6290  141.3210 N   0  0  0  0  0  0  0  0  0  0  0  0
  181.7960  178.4600  143.7950 N   0  0  0  0  0  2  0  0  0  0  0  0
  182.8910  178.6020  139.0440 C   0  0  0  0  0  3  0  0  0  0  0  0
  182.5640  178.5380  144.9800 N   0  0  0  0  0  0  0  0  0  0  0  0
  184.1130  178.6130  138.3520 C   0  0  0  0  0  3  0  0  0  0  0  0
  183.8070  178.5220  142.5550 C   0  0  1  0  0  3  0  0  0  0  0  0
  186.5290  178.6240  138.3160 O   0  0  0  0  0  0  0  0  0  0  0  0
  186.7070  177.8390  137.1460 C   0  0  0  0  0  1  0  0  0  0  0  0
  185.9220  179.3760  146.3090 C   0  0  0  0  0  2  0  0  0  0  0  0
  188.5170  176.7780  145.6040 O   0  0  0  0  0  0  0  0  0  0  0  0
  187.5210  178.3420  147.7500 O   0  0  0  0  0  0  0  0  0  0  0  0
  188.2790  177.1740  147.9670 C   0  0  0  0  0  2  0  0  0  0  0  0
  187.7580  177.9440  145.3880 C   0  0  0  0  0  2  0  0  0  0  0  0
  186.7870  178.1550  146.5610 C   0  0  2  0  0  3  0  0  0  0  0  0
  189.2470  176.9620  146.7950 C   0  0  0  0  0  2  0  0  0  0  0  0
  180.4480  178.9810  140.8650 C   0  0  2  0  0  3  0  0  0  0  0  0
  180.3090  181.2610  140.1250 O   0  0  0  0  0  0  0  0  0  0  0  0
  179.6840  180.8770  142.2940 O   0  0  0  0  0  1  0  0  0  0  0  0
  180.1430  180.4350  141.0620 C   0  0  0  0  0  0  0  0  0  0  0  0
  179.7450  176.7340  141.3740 F   0  0  0  0  0  0  0  0  0  0  0  0
  179.3720  178.0640  141.4420 C   0  0  0  0  0  2  0  0  0  0  0  0
  1  7  1  0  0  0  0
  2  3  1  0  0  0  0
  3 12  2  0  0  0  0
  3  4  1  0  0  0  0
  4 17  1  0  0  0  0
  5  8  1  0  0  0  0
  5  9  1  0  0  0  0
  6 10  1  1  0  0  0
  7  8  2  0  0  0  0
  8 14  1  0  0  0  0
  9  6  1  0  0  0  0
 10 12  1  0  0  0  0
 11  5  2  0  0  0  0
 13 11  1  0  0  0  0
 13  1  2  0  0  0  0
 14  6  1  0  0  0  0
 14  2  1  1  0  0  0
 15  1  1  0  0  0  0
 16 15  1  0  0  0  0
 18 23  1  0  0  0  0
 19 20  1  0  0  0  0
 21 18  1  0  0  0  0
 21 22  1  0  0  0  0
 22 17  1  6  0  0  0
 22 19  1  0  0  0  0
 23 20  1  0  0  0  0
 24 27  1  0  0  0  0
 24  9  1  0  0  0  0
 24 29  1  1  0  0  0
 25 27  2  0  0  0  0
 27 26  1  0  0  0  0
 28 29  1  0  0  0  0
M  END
>  <MODEL>
8

>  <REMARK>
 VINA RESULT:      -8.2      4.514      8.337
  Name = 
  6 active torsions:
  status: ('A' for Active; 'I' for Inactive)
    1  A    between atoms: C_1  and  N_15
    2  A    between atoms: C_1  and  C_23
    3  A    between atoms: C_2  and  O_6
    4  A    between atoms: C_5  and  C_12
    5  A    between atoms: C_5  and  N_21
    6  A    between atoms: C_5  and  C_24
                            x       y       z     vdW  Elec       q    Type
                         _______ _______ _______ _____ _____    ______ ____

>  <TORSDO>
F 6

$$$$
=
 OpenBabel10222421093D

 29 32  0  0  1  0  0  0  0  0999 V2000
  184.7340  178.6350  145.1520 C   0  0  0  0  0  0  0  0  0  0  0  0
  187.8020  177.5030  141.7470 C   0  0  0  0  0  2  0  0  0  0  0  0
  188.5090  177.7640  140.4130 C   0  0  0  0  0  0  0  0  0  0  0  0
  189.8620  177.3450  140.2270 N   0  0  0  0  0  2  0  0  0  0  0  0
  184.4790  178.9160  142.3880 C   0  0  0  0  0  0  0  0  0  0  0  0
  185.7880  178.2940  140.6530 C   0  0  1  0  0  3  0  0  0  0  0  0
  185.8500  178.4070  144.3190 C   0  0  0  0  0  3  0  0  0  0  0  0
  185.6760  178.5170  142.9420 C   0  0  0  0  0  0  0  0  0  0  0  0
  184.5390  178.9910  140.9610 N   0  0  0  0  0  0  0  0  0  0  0  0
  186.5380  178.7730  139.5100 N   0  0  0  0  0  2  0  0  0  0  0  0
  183.3600  179.1500  143.1910 C   0  0  0  0  0  3  0  0  0  0  0  0
  187.8880  178.3610  139.4190 N   0  0  0  0  0  0  0  0  0  0  0  0
  183.4970  179.0030  144.5800 C   0  0  0  0  0  3  0  0  0  0  0  0
  186.6720  178.5030  141.8540 C   0  0  1  0  0  3  0  0  0  0  0  0
  184.8240  178.5140  146.5410 O   0  0  0  0  0  0  0  0  0  0  0  0
  186.0530  178.6280  147.2430 C   0  0  0  0  0  1  0  0  0  0  0  0
  190.6230  176.6750  141.2690 C   0  0  0  0  0  2  0  0  0  0  0  0
  190.2270  177.0970  144.9620 O   0  0  0  0  0  0  0  0  0  0  0  0
  191.5440  178.2990  142.7570 O   0  0  0  0  0  0  0  0  0  0  0  0
  191.3370  178.9890  143.9690 C   0  0  0  0  0  2  0  0  0  0  0  0
  190.4330  176.4090  143.7510 C   0  0  0  0  0  2  0  0  0  0  0  0
  190.4630  177.4120  142.5850 C   0  0  2  0  0  3  0  0  0  0  0  0
  191.3050  177.9890  145.1320 C   0  0  0  0  0  2  0  0  0  0  0  0
  183.3360  178.9900  140.1250 C   0  0  2  0  0  3  0  0  0  0  0  0
  182.5920  176.7100  140.2190 O   0  0  0  0  0  1  0  0  0  0  0  0
  183.3510  177.4280  138.1810 O   0  0  0  0  0  0  0  0  0  0  0  0
  183.0660  177.6460  139.5210 C   0  0  0  0  0  0  0  0  0  0  0  0
  182.0500  180.5410  138.8050 F   0  0  0  0  0  0  0  0  0  0  0  0
  183.3340  180.1170  139.0940 C   0  0  0  0  0  2  0  0  0  0  0  0
  1 15  1  0  0  0  0
  3  2  1  0  0  0  0
  4  3  1  0  0  0  0
  4 17  1  0  0  0  0
  5  8  2  0  0  0  0
  5 11  1  0  0  0  0
  6 10  1  6  0  0  0
  6  9  1  0  0  0  0
  6 14  1  0  0  0  0
  7  1  2  0  0  0  0
  8  7  1  0  0  0  0
  9  5  1  0  0  0  0
 11 13  2  0  0  0  0
 12 10  1  0  0  0  0
 12  3  2  0  0  0  0
 13  1  1  0  0  0  0
 14  2  1  1  0  0  0
 14  8  1  0  0  0  0
 15 16  1  0  0  0  0
 18 23  1  0  0  0  0
 19 20  1  0  0  0  0
 20 23  1  0  0  0  0
 21 18  1  0  0  0  0
 22 17  1  6  0  0  0
 22 19  1  0  0  0  0
 22 21  1  0  0  0  0
 24 29  1  6  0  0  0
 24  9  1  0  0  0  0
 26 27  2  0  0  0  0
 27 24  1  0  0  0  0
 27 25  1  0  0  0  0
 28 29  1  0  0  0  0
M  END
>  <MODEL>
9

>  <REMARK>
 VINA RESULT:      -8.1      3.482      5.614
  Name = 
  6 active torsions:
  status: ('A' for Active; 'I' for Inactive)
    1  A    between atoms: C_1  and  N_15
    2  A    between atoms: C_1  and  C_23
    3  A    between atoms: C_2  and  O_6
    4  A    between atoms: C_5  and  C_12
    5  A    between atoms: C_5  and  N_21
    6  A    between atoms: C_5  and  C_24
                            x       y       z     vdW  Elec       q    Type
                         _______ _______ _______ _____ _____    ______ ____

>  <TORSDO>
F 6

$$$$
