=
 OpenBabel10222417273D

 60 62  0  0  1  0  0  0  0  0999 V2000
  184.0100  177.8660  139.1650 C   0  0  0  0  0  3  0  0  0  0  0  0
  185.0970  178.5260  139.7360 C   0  0  0  0  0  0  0  0  0  0  0  0
  185.3350  177.3510  137.1860 C   0  0  0  0  0  0  0  0  0  0  0  0
  186.3080  178.5870  139.0380 C   0  0  0  0  0  3  0  0  0  0  0  0
  186.4360  178.0180  137.7640 C   0  0  0  0  0  0  0  0  0  0  0  0
  184.1110  177.2800  137.8930 C   0  0  0  0  0  0  0  0  0  0  0  0
  182.9610  176.5600  137.3140 C   0  0  0  0  0  2  0  0  0  0  0  0
  181.8330  175.8240  138.2030 S   0  0  0  0  0  0  0  0  0  0  0  0
  179.2640  173.9070  136.0860 C   0  0  0  0  0  2  0  0  0  0  0  0
  179.6900  174.3800  137.2730 N   0  0  0  0  0  0  0  0  0  0  0  0
  180.8450  175.0010  136.9850 C   0  0  0  0  0  0  0  0  0  0  0  0
  181.1760  174.9520  135.6850 N   0  0  0  0  0  0  0  0  0  0  0  0
  180.1750  174.2570  135.1120 C   0  0  0  0  0  3  0  0  0  0  0  0
  187.5130  178.1950  135.5250 C   0  0  0  0  0  1  0  0  0  0  0  0
  187.7460  178.1400  137.0280 C   0  0  2  0  0  3  0  0  0  0  0  0
  188.5840  177.0690  137.3440 O   0  0  0  0  0  0  0  0  0  0  0  0
  189.4190  176.9170  136.2370 C   0  0  0  0  0  2  0  0  0  0  0  0
  189.9410  175.4890  136.1660 C   0  0  0  0  0  2  0  0  0  0  0  0
  190.4990  175.0180  137.5020 C   0  0  0  0  0  2  0  0  0  0  0  0
  191.9040  174.4530  137.3470 C   0  0  1  0  0  3  0  0  0  0  0  0
  192.0440  173.8900  136.0910 F   0  0  0  0  0  0  0  0  0  0  0  0
  194.4920  175.1840  138.3440 O   0  0  0  0  0  1  0  0  0  0  0  0
  193.5740  176.3510  136.0160 O   0  0  0  0  0  0  0  0  0  0  0  0
  193.1240  175.7800  137.5430 P   0  0  0  0  0  0  0  0  0  0  0  0
  192.5230  176.9100  138.3450 O   0  0  0  0  0  1  0  0  0  0  0  0
  185.4760  176.6880  135.8420 C   0  0  0  0  0  2  0  0  0  0  0  0
  186.3980  174.6540  137.1900 C   0  0  0  0  0  2  0  0  0  0  0  0
  186.9030  173.2090  136.9380 C   0  0  0  0  0  2  0  0  0  0  0  0
  184.3520  173.2360  135.1350 C   0  0  0  0  0  3  0  0  0  0  0  0
  184.7550  172.1100  136.0070 C   0  0  0  0  0  0  0  0  0  0  0  0
  185.8270  172.1310  136.8340 C   0  0  0  0  0  3  0  0  0  0  0  0
  183.8990  170.8930  136.0080 C   0  0  0  0  0  1  0  0  0  0  0  0
  184.9120  174.3670  135.4080 C   0  0  0  0  0  0  0  0  0  0  0  0
  185.6800  175.2200  135.9980 C   0  0  0  0  0  0  0  0  0  0  0  0
  184.9780  179.0470  141.1330 C   0  0  0  0  0  2  0  0  0  0  0  0
  184.1590  178.1350  142.0460 C   0  0  0  0  0  2  0  0  0  0  0  0
  181.8180  178.9130  142.4610 C   0  0  0  0  0  0  0  0  0  0  0  0
  183.2000  178.9040  142.8370 N   0  0  0  0  0  0  0  0  0  0  0  0
  181.3870  178.1810  141.3590 O   0  0  0  0  0  0  0  0  0  0  0  0
  180.9810  179.5900  143.1170 O   0  0  0  0  0  1  0  0  0  0  0  0
  183.6560  179.6520  144.0080 C   0  0  0  0  0  2  0  0  0  0  0  0
  184.2630  178.7520  145.0830 C   0  0  2  0  0  3  0  0  0  0  0  0
  183.4560  178.6980  146.2260 O   0  0  0  0  0  1  0  0  0  0  0  0
  185.7900  179.7310  146.6800 O   0  0  0  0  0  1  0  0  0  0  0  0
  185.7080  179.1310  145.4220 C   0  0  1  0  0  3  0  0  0  0  0  0
  186.6410  177.9260  145.3490 C   0  0  2  0  0  3  0  0  0  0  0  0
  186.5880  177.2090  146.5460 O   0  0  0  0  0  1  0  0  0  0  0  0
  187.9550  178.3330  145.0900 O   0  0  0  0  0  0  0  0  0  0  0  0
  188.2700  178.4470  142.2500 C   0  0  0  0  0  1  0  0  0  0  0  0
  188.4830  177.4450  143.7430 P   0  0  2  0  0  0  0  0  0  0  0  0
  187.6320  176.2060  143.6170 O   0  0  0  0  0  0  0  0  0  0  0  0
  190.2490  176.9720  143.9020 C   0  0  1  0  0  3  0  0  0  0  0  0
  190.9630  176.6540  142.6150 C   0  0  0  0  0  0  0  0  0  0  0  0
  190.5410  175.7470  141.8520 O   0  0  0  0  0  0  0  0  0  0  0  0
  192.0740  177.4030  142.2460 O   0  0  0  0  0  1  0  0  0  0  0  0
  190.9820  177.7250  144.8490 O   0  0  0  0  0  0  0  0  0  0  0  0
  192.0480  175.3730  145.7690 O   0  0  0  0  0  0  0  0  0  0  0  0
  191.4880  176.7280  146.1380 P   0  0  2  0  0  4  0  0  0  0  0  0
  190.0880  176.4490  147.0930 O   0  0  0  0  0  1  0  0  0  0  0  0
  191.0190  177.0040  147.7630 O   0  0  0  0  0  0  0  0  0  0  0  0
  1  2  1  0  0  0  0
  2 35  1  0  0  0  0
  3  5  2  0  0  0  0
  3  6  1  0  0  0  0
  4  2  2  0  0  0  0
  5  4  1  0  0  0  0
  6  1  2  0  0  0  0
  7  6  1  0  0  0  0
  7  8  1  0  0  0  0
  9 10  1  0  0  0  0
 11 10  2  0  0  0  0
 11  8  1  0  0  0  0
 12 11  1  0  0  0  0
 13 12  2  0  0  0  0
 13  9  1  0  0  0  0
 15 14  1  6  0  0  0
 15 16  1  0  0  0  0
 15  5  1  0  0  0  0
 17 16  1  0  0  0  0
 18 17  1  0  0  0  0
 18 19  1  0  0  0  0
 20 21  1  6  0  0  0
 20 19  1  0  0  0  0
 20 24  1  0  0  0  0
 23 24  2  0  0  0  0
 24 22  1  0  0  0  0
 24 25  1  0  0  0  0
 26 34  1  0  0  0  0
 26  3  1  0  0  0  0
 28 27  1  0  0  0  0
 29 33  2  0  0  0  0
 29 30  1  0  0  0  0
 30 32  1  0  0  0  0
 30 31  2  0  0  0  0
 31 28  1  0  0  0  0
 33 34  2  0  0  0  0
 34 27  1  0  0  0  0
 35 36  1  0  0  0  0
 36 38  1  0  0  0  0
 37 38  1  0  0  0  0
 37 40  1  0  0  0  0
 38 41  1  0  0  0  0
 39 37  2  0  0  0  0
 41 42  1  0  0  0  0
 42 45  1  0  0  0  0
 42 43  1  1  0  0  0
 45 44  1  1  0  0  0
 46 45  1  0  0  0  0
 46 47  1  1  0  0  0
 48 46  1  0  0  0  0
 50 49  1  6  0  0  0
 50 52  1  0  0  0  0
 50 48  1  0  0  0  0
 51 50  2  0  0  0  0
 52 53  1  6  0  0  0
 52 56  1  0  0  0  0
 54 53  2  0  0  0  0
 55 53  1  0  0  0  0
 56 58  1  0  0  0  0
 58 57  2  6  0  0  0
 58 60  1  0  0  0  0
 59 60  1  0  0  0  0
M  END
>  <MODEL>
1

>  <REMARK>
 VINA RESULT:      -6.6      0.000      0.000
  Name = 
  24 active torsions:
  status: ('A' for Active; 'I' for Inactive)
    1  A    between atoms: C_4  and  C_10
    2  A    between atoms: C_4  and  C_29
    3  A    between atoms: C_6  and  C_56
    4  A    between atoms: O_8  and  C_33
    5  A    between atoms: O_8  and  P_51
    6  A    between atoms: C_10  and  C_48
    7  A    between atoms: C_12  and  N_35
    8  A    between atoms: C_12  and  C_60
    9  A    between atoms: C_13  and  S_22
   10  A    between atoms: C_14  and  C_45
   11  A    between atoms: C_19  and  C_30
   12  A    between atoms: C_19  and  C_53
   13  A    between atoms: C_20  and  C_60
   14  A    between atoms: P_24  and  O_25
   15  A    between atoms: O_25  and  C_56
   16  A    between atoms: C_26  and  C_32
   17  A    between atoms: C_26  and  O_47
   18  A    between atoms: C_27  and  C_40
   19  A    between atoms: C_29  and  P_38
   20  A    between atoms: C_30  and  C_33
   21  A    between atoms: N_35  and  C_53
   22  A    between atoms: C_40  and  C_55
   23  A    between atoms: O_47  and  C_48
   24  A    between atoms: P_51  and  C_56
                            x       y       z     vdW  Elec       q    Type
                         _______ _______ _______ _____ _____    ______ ____

>  <TORSDO>
F 24

$$$$
=
 OpenBabel10222417273D

 60 62  0  0  1  0  0  0  0  0999 V2000
  185.3920  175.8940  136.2390 C   0  0  0  0  0  3  0  0  0  0  0  0
  186.1980  176.9580  136.6410 C   0  0  0  0  0  0  0  0  0  0  0  0
  183.6620  176.5830  137.8100 C   0  0  0  0  0  0  0  0  0  0  0  0
  185.7300  177.8440  137.6180 C   0  0  0  0  0  3  0  0  0  0  0  0
  184.4770  177.6610  138.2170 C   0  0  0  0  0  0  0  0  0  0  0  0
  184.1280  175.6900  136.8160 C   0  0  0  0  0  0  0  0  0  0  0  0
  183.2750  174.5770  136.3610 C   0  0  0  0  0  2  0  0  0  0  0  0
  183.6070  173.0240  136.6530 S   0  0  0  0  0  0  0  0  0  0  0  0
  180.5850  171.7870  134.6310 C   0  0  0  0  0  2  0  0  0  0  0  0
  181.2400  172.7650  135.2860 N   0  0  0  0  0  0  0  0  0  0  0  0
  182.3620  172.1730  135.7260 C   0  0  0  0  0  0  0  0  0  0  0  0
  182.4580  170.8770  135.3880 N   0  0  0  0  0  0  0  0  0  0  0  0
  181.3310  170.6290  134.6940 C   0  0  0  0  0  3  0  0  0  0  0  0
  183.8410  180.0140  138.7300 C   0  0  0  0  0  1  0  0  0  0  0  0
  184.0260  178.6140  139.2950 C   0  0  2  0  0  3  0  0  0  0  0  0
  184.9500  178.6370  140.3420 O   0  0  0  0  0  0  0  0  0  0  0  0
  184.2300  179.0670  141.4570 C   0  0  0  0  0  2  0  0  0  0  0  0
  184.4340  178.1030  142.6170 C   0  0  0  0  0  2  0  0  0  0  0  0
  184.0920  178.7430  143.9570 C   0  0  0  0  0  2  0  0  0  0  0  0
  185.3390  179.2640  144.6540 C   0  0  1  0  0  3  0  0  0  0  0  0
  185.3060  180.6460  144.7000 F   0  0  0  0  0  0  0  0  0  0  0  0
  183.8800  178.0730  146.8180 O   0  0  0  0  0  1  0  0  0  0  0  0
  186.5040  177.3230  146.3980 O   0  0  0  0  0  0  0  0  0  0  0  0
  185.4130  178.6150  146.3460 P   0  0  0  0  0  0  0  0  0  0  0  0
  185.8760  179.7010  147.2880 O   0  0  0  0  0  1  0  0  0  0  0  0
  182.2900  176.4080  138.4070 C   0  0  0  0  0  2  0  0  0  0  0  0
  180.7510  178.4840  138.7570 C   0  0  0  0  0  2  0  0  0  0  0  0
  179.4840  179.1260  138.1320 C   0  0  0  0  0  2  0  0  0  0  0  0
  181.0910  178.4230  135.5480 C   0  0  0  0  0  3  0  0  0  0  0  0
  180.3540  179.6890  135.7620 C   0  0  0  0  0  0  0  0  0  0  0  0
  179.7140  180.0130  136.9110 C   0  0  0  0  0  3  0  0  0  0  0  0
  180.3580  180.6880  134.6610 C   0  0  0  0  0  1  0  0  0  0  0  0
  181.3410  177.7470  136.6180 C   0  0  0  0  0  0  0  0  0  0  0  0
  181.3490  177.4300  137.8690 C   0  0  0  0  0  0  0  0  0  0  0  0
  187.4910  177.1980  135.9290 C   0  0  0  0  0  2  0  0  0  0  0  0
  188.3880  175.9620  135.8780 C   0  0  0  0  0  2  0  0  0  0  0  0
  190.8510  175.6130  135.6120 C   0  0  0  0  0  0  0  0  0  0  0  0
  189.7630  176.2920  136.2500 N   0  0  0  0  0  0  0  0  0  0  0  0
  190.6030  174.6580  134.6330 O   0  0  0  0  0  0  0  0  0  0  0  0
  192.0430  175.8670  135.9390 O   0  0  0  0  0  1  0  0  0  0  0  0
  190.0170  177.3140  137.2650 C   0  0  0  0  0  2  0  0  0  0  0  0
  190.0910  176.7360  138.6770 C   0  0  2  0  0  3  0  0  0  0  0  0
  189.5200  175.4590  138.7440 O   0  0  0  0  0  1  0  0  0  0  0  0
  188.1860  177.3330  140.0390 O   0  0  0  0  0  1  0  0  0  0  0  0
  189.5030  177.6790  139.7310 C   0  0  1  0  0  3  0  0  0  0  0  0
  190.3520  177.7100  140.9990 C   0  0  2  0  0  3  0  0  0  0  0  0
  191.7070  177.7370  140.6640 O   0  0  0  0  0  1  0  0  0  0  0  0
  190.0780  176.5990  141.8050 O   0  0  0  0  0  0  0  0  0  0  0  0
  187.6990  176.0700  143.3010 C   0  0  0  0  0  1  0  0  0  0  0  0
  189.1330  177.1580  143.0990 P   0  0  2  0  0  0  0  0  0  0  0  0
  188.6410  178.5470  142.7740 O   0  0  0  0  0  0  0  0  0  0  0  0
  190.0890  177.1880  144.6650 C   0  0  1  0  0  3  0  0  0  0  0  0
  191.5870  177.1410  144.5220 C   0  0  0  0  0  0  0  0  0  0  0  0
  192.1780  176.0540  144.2940 O   0  0  0  0  0  0  0  0  0  0  0  0
  192.3190  178.3200  144.5980 O   0  0  0  0  0  1  0  0  0  0  0  0
  189.5870  178.0720  145.6500 O   0  0  0  0  0  0  0  0  0  0  0  0
  189.0840  178.1350  148.3440 O   0  0  0  0  0  0  0  0  0  0  0  0
  189.6830  177.3560  147.1960 P   0  0  2  0  0  4  0  0  0  0  0  0
  191.3590  177.1800  147.5270 O   0  0  0  0  0  1  0  0  0  0  0  0
  190.7490  176.0620  147.5530 O   0  0  0  0  0  0  0  0  0  0  0  0
  1  2  2  0  0  0  0
  1  6  1  0  0  0  0
  2  4  1  0  0  0  0
  3  5  1  0  0  0  0
  3 26  1  0  0  0  0
  4  5  2  0  0  0  0
  5 15  1  0  0  0  0
  6  3  2  0  0  0  0
  7  8  1  0  0  0  0
  7  6  1  0  0  0  0
  9 13  1  0  0  0  0
  9 10  1  0  0  0  0
 10 11  2  0  0  0  0
 11  8  1  0  0  0  0
 12 11  1  0  0  0  0
 13 12  2  0  0  0  0
 15 14  1  6  0  0  0
 15 16  1  0  0  0  0
 16 17  1  0  0  0  0
 17 18  1  0  0  0  0
 18 19  1  0  0  0  0
 19 20  1  0  0  0  0
 20 21  1  1  0  0  0
 20 24  1  0  0  0  0
 24 23  2  0  0  0  0
 24 22  1  0  0  0  0
 24 25  1  0  0  0  0
 28 27  1  0  0  0  0
 29 30  1  0  0  0  0
 29 33  2  0  0  0  0
 30 31  2  0  0  0  0
 31 28  1  0  0  0  0
 32 30  1  0  0  0  0
 33 34  2  0  0  0  0
 34 26  1  0  0  0  0
 34 27  1  0  0  0  0
 35  2  1  0  0  0  0
 36 35  1  0  0  0  0
 36 38  1  0  0  0  0
 37 40  1  0  0  0  0
 37 38  1  0  0  0  0
 38 41  1  0  0  0  0
 39 37  2  0  0  0  0
 41 42  1  0  0  0  0
 42 43  1  6  0  0  0
 42 45  1  0  0  0  0
 45 44  1  1  0  0  0
 45 46  1  0  0  0  0
 46 47  1  6  0  0  0
 46 48  1  0  0  0  0
 48 50  1  0  0  0  0
 50 49  1  1  0  0  0
 50 52  1  0  0  0  0
 51 50  2  0  0  0  0
 52 53  1  6  0  0  0
 52 56  1  0  0  0  0
 53 55  1  0  0  0  0
 54 53  2  0  0  0  0
 56 58  1  0  0  0  0
 58 60  1  0  0  0  0
 58 57  2  1  0  0  0
 59 60  1  0  0  0  0
M  END
>  <MODEL>
2

>  <REMARK>
 VINA RESULT:      -5.5      3.057      7.183
  Name = 
  24 active torsions:
  status: ('A' for Active; 'I' for Inactive)
    1  A    between atoms: C_4  and  C_10
    2  A    between atoms: C_4  and  C_29
    3  A    between atoms: C_6  and  C_56
    4  A    between atoms: O_8  and  C_33
    5  A    between atoms: O_8  and  P_51
    6  A    between atoms: C_10  and  C_48
    7  A    between atoms: C_12  and  N_35
    8  A    between atoms: C_12  and  C_60
    9  A    between atoms: C_13  and  S_22
   10  A    between atoms: C_14  and  C_45
   11  A    between atoms: C_19  and  C_30
   12  A    between atoms: C_19  and  C_53
   13  A    between atoms: C_20  and  C_60
   14  A    between atoms: P_24  and  O_25
   15  A    between atoms: O_25  and  C_56
   16  A    between atoms: C_26  and  C_32
   17  A    between atoms: C_26  and  O_47
   18  A    between atoms: C_27  and  C_40
   19  A    between atoms: C_29  and  P_38
   20  A    between atoms: C_30  and  C_33
   21  A    between atoms: N_35  and  C_53
   22  A    between atoms: C_40  and  C_55
   23  A    between atoms: O_47  and  C_48
   24  A    between atoms: P_51  and  C_56
                            x       y       z     vdW  Elec       q    Type
                         _______ _______ _______ _____ _____    ______ ____

>  <TORSDO>
F 24

$$$$
=
 OpenBabel10222417273D

 60 62  0  0  1  0  0  0  0  0999 V2000
  187.2700  177.6430  138.3560 C   0  0  0  0  0  3  0  0  0  0  0  0
  188.6320  177.3780  138.4790 C   0  0  0  0  0  0  0  0  0  0  0  0
  187.1500  176.2160  136.3840 C   0  0  0  0  0  0  0  0  0  0  0  0
  189.2520  176.5200  137.5640 C   0  0  0  0  0  3  0  0  0  0  0  0
  188.5300  175.9470  136.5100 C   0  0  0  0  0  0  0  0  0  0  0  0
  186.5180  177.0750  137.3140 C   0  0  0  0  0  0  0  0  0  0  0  0
  185.0710  177.3420  137.2120 C   0  0  0  0  0  2  0  0  0  0  0  0
  184.2710  178.3120  138.2250 S   0  0  0  0  0  0  0  0  0  0  0  0
  180.5940  178.5320  137.1370 C   0  0  0  0  0  2  0  0  0  0  0  0
  181.7520  179.1220  137.4900 N   0  0  0  0  0  0  0  0  0  0  0  0
  182.5850  178.0960  137.7300 C   0  0  0  0  0  0  0  0  0  0  0  0
  182.0240  176.8900  137.5480 N   0  0  0  0  0  0  0  0  0  0  0  0
  180.7600  177.1630  137.1720 C   0  0  0  0  0  3  0  0  0  0  0  0
  189.6800  173.7610  136.1820 C   0  0  0  0  0  1  0  0  0  0  0  0
  189.2430  175.0600  135.5210 C   0  0  2  0  0  3  0  0  0  0  0  0
  190.3500  175.7210  134.9840 O   0  0  0  0  0  0  0  0  0  0  0  0
  191.4600  175.0350  135.4770 C   0  0  0  0  0  2  0  0  0  0  0  0
  192.5180  176.0220  135.9520 C   0  0  0  0  0  2  0  0  0  0  0  0
  193.8050  175.3220  136.3690 C   0  0  0  0  0  2  0  0  0  0  0  0
  193.6880  174.7390  137.7690 C   0  0  1  0  0  3  0  0  0  0  0  0
  192.8410  173.6460  137.7510 F   0  0  0  0  0  0  0  0  0  0  0  0
  195.8600  175.2650  139.5670 O   0  0  0  0  0  1  0  0  0  0  0  0
  195.2120  172.6470  138.9780 O   0  0  0  0  0  1  0  0  0  0  0  0
  195.3230  174.2140  138.3530 P   0  0  0  0  0  0  0  0  0  0  0  0
  196.3030  174.2280  137.2040 O   0  0  0  0  0  0  0  0  0  0  0  0
  186.3510  175.5610  135.2890 C   0  0  0  0  0  2  0  0  0  0  0  0
  184.5930  174.1040  136.5510 C   0  0  0  0  0  2  0  0  0  0  0  0
  184.5060  172.7370  137.2780 C   0  0  0  0  0  2  0  0  0  0  0  0
  186.1090  171.9140  134.7260 C   0  0  0  0  0  3  0  0  0  0  0  0
  185.0090  171.1230  135.3200 C   0  0  0  0  0  0  0  0  0  0  0  0
  184.2760  171.5170  136.3880 C   0  0  0  0  0  3  0  0  0  0  0  0
  184.6560  169.8310  134.6720 C   0  0  0  0  0  1  0  0  0  0  0  0
  186.1590  173.1490  135.1000 C   0  0  0  0  0  0  0  0  0  0  0  0
  185.8450  174.2300  135.7300 C   0  0  0  0  0  0  0  0  0  0  0  0
  189.3720  177.9200  139.6620 C   0  0  0  0  0  2  0  0  0  0  0  0
  189.1280  177.1220  140.9410 C   0  0  0  0  0  2  0  0  0  0  0  0
  191.6290  177.1320  140.9790 C   0  0  0  0  0  0  0  0  0  0  0  0
  190.3880  176.7000  141.5490 N   0  0  0  0  0  0  0  0  0  0  0  0
  191.6350  177.9620  139.8630 O   0  0  0  0  0  0  0  0  0  0  0  0
  192.7270  176.7580  141.4750 O   0  0  0  0  0  1  0  0  0  0  0  0
  190.3740  175.8450  142.7350 C   0  0  0  0  0  2  0  0  0  0  0  0
  191.4000  176.2740  143.7830 C   0  0  2  0  0  3  0  0  0  0  0  0
  192.1350  175.1840  144.2630 O   0  0  0  0  0  1  0  0  0  0  0  0
  191.7560  177.6470  145.7400 O   0  0  0  0  0  1  0  0  0  0  0  0
  190.7740  177.0850  144.9220 C   0  0  1  0  0  3  0  0  0  0  0  0
  189.8380  178.1700  144.3970 C   0  0  2  0  0  3  0  0  0  0  0  0
  190.5820  179.2020  143.8220 O   0  0  0  0  0  1  0  0  0  0  0  0
  189.0360  178.6730  145.4280 O   0  0  0  0  0  0  0  0  0  0  0  0
  187.9250  176.7700  147.2500 C   0  0  0  0  0  1  0  0  0  0  0  0
  187.7620  177.5710  145.6340 P   0  0  2  0  0  0  0  0  0  0  0  0
  187.8570  176.5150  144.5610 O   0  0  0  0  0  0  0  0  0  0  0  0
  186.1310  178.4060  145.5400 C   0  0  1  0  0  3  0  0  0  0  0  0
  185.5280  178.8220  146.8560 C   0  0  0  0  0  0  0  0  0  0  0  0
  184.5930  178.1580  147.3730 O   0  0  0  0  0  0  0  0  0  0  0  0
  186.0420  179.9250  147.5260 O   0  0  0  0  0  1  0  0  0  0  0  0
  185.9980  179.3310  144.4770 O   0  0  0  0  0  0  0  0  0  0  0  0
  184.7550  179.2660  142.0350 O   0  0  0  0  0  0  0  0  0  0  0  0
  184.6540  178.9300  143.5060 P   0  0  2  0  0  4  0  0  0  0  0  0
  183.3340  179.8300  144.1370 O   0  0  0  0  0  1  0  0  0  0  0  0
  183.1100  178.5760  144.1590 O   0  0  0  0  0  0  0  0  0  0  0  0
  1  2  1  0  0  0  0
  2 35  1  0  0  0  0
  3  5  2  0  0  0  0
  3  6  1  0  0  0  0
  4  2  2  0  0  0  0
  5  4  1  0  0  0  0
  6  1  2  0  0  0  0
  7  6  1  0  0  0  0
  7  8  1  0  0  0  0
  9 13  1  0  0  0  0
  9 10  1  0  0  0  0
 10 11  2  0  0  0  0
 11  8  1  0  0  0  0
 12 11  1  0  0  0  0
 13 12  2  0  0  0  0
 15 14  1  1  0  0  0
 15  5  1  0  0  0  0
 16 17  1  0  0  0  0
 16 15  1  0  0  0  0
 17 18  1  0  0  0  0
 18 19  1  0  0  0  0
 19 20  1  0  0  0  0
 20 21  1  6  0  0  0
 20 24  1  0  0  0  0
 24 23  1  0  0  0  0
 24 22  1  0  0  0  0
 25 24  2  0  0  0  0
 26 34  1  0  0  0  0
 26  3  1  0  0  0  0
 27 28  1  0  0  0  0
 29 33  2  0  0  0  0
 29 30  1  0  0  0  0
 30 31  2  0  0  0  0
 31 28  1  0  0  0  0
 32 30  1  0  0  0  0
 33 34  2  0  0  0  0
 34 27  1  0  0  0  0
 35 36  1  0  0  0  0
 36 38  1  0  0  0  0
 37 40  1  0  0  0  0
 37 38  1  0  0  0  0
 38 41  1  0  0  0  0
 39 37  2  0  0  0  0
 41 42  1  0  0  0  0
 42 43  1  1  0  0  0
 42 45  1  0  0  0  0
 45 44  1  6  0  0  0
 46 47  1  1  0  0  0
 46 45  1  0  0  0  0
 46 48  1  0  0  0  0
 48 50  1  0  0  0  0
 50 49  1  1  0  0  0
 51 50  2  0  0  0  0
 52 56  1  6  0  0  0
 52 50  1  0  0  0  0
 52 53  1  0  0  0  0
 53 54  2  0  0  0  0
 53 55  1  0  0  0  0
 58 57  2  6  0  0  0
 58 60  1  0  0  0  0
 58 56  1  0  0  0  0
 59 60  1  0  0  0  0
M  END
>  <MODEL>
3

>  <REMARK>
 VINA RESULT:      -5.5      2.366      5.304
  Name = 
  24 active torsions:
  status: ('A' for Active; 'I' for Inactive)
    1  A    between atoms: C_4  and  C_10
    2  A    between atoms: C_4  and  C_29
    3  A    between atoms: C_6  and  C_56
    4  A    between atoms: O_8  and  C_33
    5  A    between atoms: O_8  and  P_51
    6  A    between atoms: C_10  and  C_48
    7  A    between atoms: C_12  and  N_35
    8  A    between atoms: C_12  and  C_60
    9  A    between atoms: C_13  and  S_22
   10  A    between atoms: C_14  and  C_45
   11  A    between atoms: C_19  and  C_30
   12  A    between atoms: C_19  and  C_53
   13  A    between atoms: C_20  and  C_60
   14  A    between atoms: P_24  and  O_25
   15  A    between atoms: O_25  and  C_56
   16  A    between atoms: C_26  and  C_32
   17  A    between atoms: C_26  and  O_47
   18  A    between atoms: C_27  and  C_40
   19  A    between atoms: C_29  and  P_38
   20  A    between atoms: C_30  and  C_33
   21  A    between atoms: N_35  and  C_53
   22  A    between atoms: C_40  and  C_55
   23  A    between atoms: O_47  and  C_48
   24  A    between atoms: P_51  and  C_56
                            x       y       z     vdW  Elec       q    Type
                         _______ _______ _______ _____ _____    ______ ____

>  <TORSDO>
F 24

$$$$
=
 OpenBabel10222417273D

 60 62  0  0  1  0  0  0  0  0999 V2000
  188.8090  176.7400  139.8400 C   0  0  0  0  0  3  0  0  0  0  0  0
  189.6720  176.3700  138.8110 C   0  0  0  0  0  0  0  0  0  0  0  0
  190.7010  177.4440  141.2040 C   0  0  0  0  0  0  0  0  0  0  0  0
  191.0500  176.5500  138.9710 C   0  0  0  0  0  3  0  0  0  0  0  0
  191.5760  177.0690  140.1610 C   0  0  0  0  0  0  0  0  0  0  0  0
  189.3050  177.2720  141.0410 C   0  0  0  0  0  0  0  0  0  0  0  0
  188.3780  177.6850  142.1100 C   0  0  0  0  0  2  0  0  0  0  0  0
  187.8680  176.6950  143.2780 S   0  0  0  0  0  0  0  0  0  0  0  0
  185.6050  178.6460  145.6920 C   0  0  0  0  0  2  0  0  0  0  0  0
  186.6560  177.8360  145.4620 N   0  0  0  0  0  0  0  0  0  0  0  0
  186.6640  177.6740  144.1290 C   0  0  0  0  0  0  0  0  0  0  0  0
  185.6790  178.3360  143.4990 N   0  0  0  0  0  0  0  0  0  0  0  0
  185.0050  178.9530  144.4880 C   0  0  0  0  0  3  0  0  0  0  0  0
  193.5950  178.3290  139.4250 C   0  0  0  0  0  1  0  0  0  0  0  0
  193.0690  177.2100  140.3120 C   0  0  2  0  0  3  0  0  0  0  0  0
  193.7050  176.0080  139.9940 O   0  0  0  0  0  0  0  0  0  0  0  0
  194.2240  176.1950  138.7120 C   0  0  0  0  0  2  0  0  0  0  0  0
  193.9000  174.9940  137.8350 C   0  0  0  0  0  2  0  0  0  0  0  0
  195.1550  174.3630  137.2460 C   0  0  0  0  0  2  0  0  0  0  0  0
  196.1560  174.0030  138.3330 C   0  0  1  0  0  3  0  0  0  0  0  0
  196.2380  172.6280  138.4560 F   0  0  0  0  0  0  0  0  0  0  0  0
  197.6670  175.6580  136.5430 O   0  0  0  0  0  0  0  0  0  0  0  0
  198.3840  175.5630  139.2080 O   0  0  0  0  0  1  0  0  0  0  0  0
  197.7910  174.6610  137.9060 P   0  0  0  0  0  0  0  0  0  0  0  0
  198.7370  173.5210  137.6120 O   0  0  0  0  0  1  0  0  0  0  0  0
  191.2490  178.0550  142.4660 C   0  0  0  0  0  2  0  0  0  0  0  0
  192.0830  175.7330  143.3130 C   0  0  0  0  0  2  0  0  0  0  0  0
  191.6900  174.6520  144.3530 C   0  0  0  0  0  2  0  0  0  0  0  0
  191.3440  177.2380  146.0710 C   0  0  0  0  0  3  0  0  0  0  0  0
  191.9670  175.9840  146.5530 C   0  0  0  0  0  0  0  0  0  0  0  0
  192.1720  174.8900  145.7820 C   0  0  0  0  0  3  0  0  0  0  0  0
  192.4410  175.9430  147.9620 C   0  0  0  0  0  1  0  0  0  0  0  0
  191.2570  177.3480  144.7880 C   0  0  0  0  0  0  0  0  0  0  0  0
  191.3600  177.0290  143.5420 C   0  0  0  0  0  0  0  0  0  0  0  0
  189.0950  175.9050  137.5110 C   0  0  0  0  0  2  0  0  0  0  0  0
  189.2170  176.9400  136.3940 C   0  0  0  0  0  2  0  0  0  0  0  0
  187.9710  179.0710  136.8010 C   0  0  0  0  0  0  0  0  0  0  0  0
  187.9970  177.7370  136.2780 N   0  0  0  0  0  0  0  0  0  0  0  0
  189.1030  179.6100  137.4010 O   0  0  0  0  0  1  0  0  0  0  0  0
  186.9190  179.7640  136.7320 O   0  0  0  0  0  0  0  0  0  0  0  0
  186.8170  177.1710  135.6260 C   0  0  0  0  0  2  0  0  0  0  0  0
  185.8580  176.5110  136.6150 C   0  0  2  0  0  3  0  0  0  0  0  0
  185.8310  175.1200  136.4580 O   0  0  0  0  0  1  0  0  0  0  0  0
  183.5360  176.2220  136.0090 O   0  0  0  0  0  1  0  0  0  0  0  0
  184.4520  177.1170  136.5660 C   0  0  1  0  0  3  0  0  0  0  0  0
  183.9810  177.5660  137.9460 C   0  0  2  0  0  3  0  0  0  0  0  0
  185.0550  178.0890  138.6680 O   0  0  0  0  0  1  0  0  0  0  0  0
  183.4060  176.4980  138.6440 O   0  0  0  0  0  0  0  0  0  0  0  0
  182.3680  178.1290  140.7510 C   0  0  0  0  0  1  0  0  0  0  0  0
  181.9670  177.0830  139.3290 P   0  0  2  0  0  0  0  0  0  0  0  0
  181.1490  175.9090  139.8090 O   0  0  0  0  0  0  0  0  0  0  0  0
  180.9970  178.0620  138.1180 C   0  0  1  0  0  3  0  0  0  0  0  0
  180.0610  177.2770  137.2380 C   0  0  0  0  0  0  0  0  0  0  0  0
  178.9840  177.7840  136.8300 O   0  0  0  0  0  0  0  0  0  0  0  0
  180.4140  175.9950  136.8350 O   0  0  0  0  0  1  0  0  0  0  0  0
  180.5010  179.2920  138.6110 O   0  0  0  0  0  0  0  0  0  0  0  0
  181.7110  181.7500  138.5480 O   0  0  0  0  0  0  0  0  0  0  0  0
  181.1690  180.5960  137.7370 P   0  0  2  0  0  4  0  0  0  0  0  0
  179.8930  181.2160  136.7700 O   0  0  0  0  0  1  0  0  0  0  0  0
  180.8820  180.8350  136.0640 O   0  0  0  0  0  0  0  0  0  0  0  0
  1  6  1  0  0  0  0
  2  4  1  0  0  0  0
  2  1  2  0  0  0  0
  3 26  1  0  0  0  0
  4  5  2  0  0  0  0
  5 15  1  0  0  0  0
  5  3  1  0  0  0  0
  6  3  2  0  0  0  0
  6  7  1  0  0  0  0
  7  8  1  0  0  0  0
  8 11  1  0  0  0  0
 10  9  1  0  0  0  0
 11 10  2  0  0  0  0
 12 11  1  0  0  0  0
 12 13  2  0  0  0  0
 13  9  1  0  0  0  0
 15 14  1  6  0  0  0
 16 15  1  0  0  0  0
 17 16  1  0  0  0  0
 18 17  1  0  0  0  0
 19 18  1  0  0  0  0
 19 20  1  0  0  0  0
 20 21  1  6  0  0  0
 22 24  2  0  0  0  0
 24 20  1  0  0  0  0
 24 23  1  0  0  0  0
 25 24  1  0  0  0  0
 26 34  1  0  0  0  0
 27 34  1  0  0  0  0
 27 28  1  0  0  0  0
 28 31  1  0  0  0  0
 29 30  1  0  0  0  0
 30 32  1  0  0  0  0
 31 30  2  0  0  0  0
 33 29  2  0  0  0  0
 34 33  2  0  0  0  0
 35  2  1  0  0  0  0
 36 35  1  0  0  0  0
 37 39  1  0  0  0  0
 38 36  1  0  0  0  0
 38 37  1  0  0  0  0
 40 37  2  0  0  0  0
 41 38  1  0  0  0  0
 41 42  1  0  0  0  0
 42 43  1  6  0  0  0
 45 44  1  1  0  0  0
 45 42  1  0  0  0  0
 45 46  1  0  0  0  0
 46 48  1  0  0  0  0
 46 47  1  1  0  0  0
 48 50  1  0  0  0  0
 50 51  2  0  0  0  0
 50 49  1  1  0  0  0
 52 53  1  1  0  0  0
 52 56  1  0  0  0  0
 52 50  1  0  0  0  0
 54 53  2  0  0  0  0
 55 53  1  0  0  0  0
 58 57  2  1  0  0  0
 58 56  1  0  0  0  0
 60 59  1  0  0  0  0
 60 58  1  0  0  0  0
M  END
>  <MODEL>
4

>  <REMARK>
 VINA RESULT:      -5.2      4.462      9.422
  Name = 
  24 active torsions:
  status: ('A' for Active; 'I' for Inactive)
    1  A    between atoms: C_4  and  C_10
    2  A    between atoms: C_4  and  C_29
    3  A    between atoms: C_6  and  C_56
    4  A    between atoms: O_8  and  C_33
    5  A    between atoms: O_8  and  P_51
    6  A    between atoms: C_10  and  C_48
    7  A    between atoms: C_12  and  N_35
    8  A    between atoms: C_12  and  C_60
    9  A    between atoms: C_13  and  S_22
   10  A    between atoms: C_14  and  C_45
   11  A    between atoms: C_19  and  C_30
   12  A    between atoms: C_19  and  C_53
   13  A    between atoms: C_20  and  C_60
   14  A    between atoms: P_24  and  O_25
   15  A    between atoms: O_25  and  C_56
   16  A    between atoms: C_26  and  C_32
   17  A    between atoms: C_26  and  O_47
   18  A    between atoms: C_27  and  C_40
   19  A    between atoms: C_29  and  P_38
   20  A    between atoms: C_30  and  C_33
   21  A    between atoms: N_35  and  C_53
   22  A    between atoms: C_40  and  C_55
   23  A    between atoms: O_47  and  C_48
   24  A    between atoms: P_51  and  C_56
                            x       y       z     vdW  Elec       q    Type
                         _______ _______ _______ _____ _____    ______ ____

>  <TORSDO>
F 24

$$$$
=
 OpenBabel10222417273D

 60 62  0  0  1  0  0  0  0  0999 V2000
  183.2110  177.3410  138.7730 C   0  0  0  0  0  3  0  0  0  0  0  0
  184.1910  178.2060  139.2540 C   0  0  0  0  0  0  0  0  0  0  0  0
  184.4900  176.9910  136.7290 C   0  0  0  0  0  0  0  0  0  0  0  0
  185.3300  178.4540  138.4790 C   0  0  0  0  0  3  0  0  0  0  0  0
  185.4840  177.8670  137.2160 C   0  0  0  0  0  0  0  0  0  0  0  0
  183.3420  176.7310  137.5140 C   0  0  0  0  0  0  0  0  0  0  0  0
  182.3100  175.7960  137.0310 C   0  0  0  0  0  2  0  0  0  0  0  0
  182.0000  174.3740  137.7300 S   0  0  0  0  0  0  0  0  0  0  0  0
  179.6240  173.2950  134.9120 C   0  0  0  0  0  2  0  0  0  0  0  0
  180.5360  174.1470  135.4180 N   0  0  0  0  0  0  0  0  0  0  0  0
  180.8270  173.6380  136.6260 C   0  0  0  0  0  0  0  0  0  0  0  0
  180.1560  172.5120  136.9150 N   0  0  0  0  0  0  0  0  0  0  0  0
  179.3910  172.2920  135.8290 C   0  0  0  0  0  3  0  0  0  0  0  0
  187.4430  176.9190  136.0050 C   0  0  0  0  0  1  0  0  0  0  0  0
  186.7060  178.1910  136.3940 C   0  0  2  0  0  3  0  0  0  0  0  0
  187.5570  179.0420  137.1020 O   0  0  0  0  0  0  0  0  0  0  0  0
  188.8290  178.4840  136.9660 C   0  0  0  0  0  2  0  0  0  0  0  0
  189.3320  177.9880  138.3150 C   0  0  0  0  0  2  0  0  0  0  0  0
  190.8150  177.6470  138.2810 C   0  0  0  0  0  2  0  0  0  0  0  0
  191.0640  176.3290  137.5650 C   0  0  1  0  0  3  0  0  0  0  0  0
  190.7230  176.4510  136.2290 F   0  0  0  0  0  0  0  0  0  0  0  0
  193.6270  176.3380  136.2770 O   0  0  0  0  0  0  0  0  0  0  0  0
  193.5010  176.6860  139.0130 O   0  0  0  0  0  1  0  0  0  0  0  0
  192.8170  175.8820  137.6920 P   0  0  0  0  0  0  0  0  0  0  0  0
  192.9490  174.3900  137.8900 O   0  0  0  0  0  1  0  0  0  0  0  0
  184.6710  176.3110  135.3980 C   0  0  0  0  0  2  0  0  0  0  0  0
  184.2960  173.8580  134.5940 C   0  0  0  0  0  2  0  0  0  0  0  0
  184.1930  172.4300  135.1890 C   0  0  0  0  0  2  0  0  0  0  0  0
  186.6710  173.5110  136.7520 C   0  0  0  0  0  3  0  0  0  0  0  0
  186.5670  172.1510  136.1770 C   0  0  0  0  0  0  0  0  0  0  0  0
  185.5150  171.7120  135.4450 C   0  0  0  0  0  3  0  0  0  0  0  0
  187.7120  171.2230  136.3780 C   0  0  0  0  0  1  0  0  0  0  0  0
  185.8300  174.3700  136.2820 C   0  0  0  0  0  0  0  0  0  0  0  0
  184.8580  174.8430  135.5790 C   0  0  0  0  0  0  0  0  0  0  0  0
  184.0610  178.7520  140.6410 C   0  0  0  0  0  2  0  0  0  0  0  0
  183.0340  178.0030  141.4880 C   0  0  0  0  0  2  0  0  0  0  0  0
  180.9850  179.4380  141.5080 C   0  0  0  0  0  0  0  0  0  0  0  0
  182.1430  178.9320  142.1810 N   0  0  0  0  0  0  0  0  0  0  0  0
  180.6990  179.0360  140.2070 O   0  0  0  0  0  0  0  0  0  0  0  0
  180.2190  180.2600  142.0820 O   0  0  0  0  0  1  0  0  0  0  0  0
  182.4380  179.3330  143.5560 C   0  0  0  0  0  2  0  0  0  0  0  0
  183.6260  178.5770  144.1490 C   0  0  2  0  0  3  0  0  0  0  0  0
  183.5340  178.4810  145.5420 O   0  0  0  0  0  1  0  0  0  0  0  0
  185.1340  180.4650  144.1630 O   0  0  0  0  0  1  0  0  0  0  0  0
  184.9730  179.1560  143.7050 C   0  0  1  0  0  3  0  0  0  0  0  0
  186.1410  178.2870  144.1630 C   0  0  2  0  0  3  0  0  0  0  0  0
  186.3500  178.4550  145.5330 O   0  0  0  0  0  1  0  0  0  0  0  0
  187.3050  178.6100  143.4560 O   0  0  0  0  0  0  0  0  0  0  0  0
  188.9500  177.0130  141.7470 C   0  0  0  0  0  1  0  0  0  0  0  0
  188.2510  177.2020  143.4070 P   0  0  2  0  0  0  0  0  0  0  0  0
  187.3660  176.0150  143.6960 O   0  0  0  0  0  0  0  0  0  0  0  0
  189.6180  177.2700  144.6290 C   0  0  1  0  0  3  0  0  0  0  0  0
  191.0080  177.1120  144.0710 C   0  0  0  0  0  0  0  0  0  0  0  0
  191.4250  175.9880  143.6890 O   0  0  0  0  0  0  0  0  0  0  0  0
  191.8210  178.2310  143.9350 O   0  0  0  0  0  1  0  0  0  0  0  0
  189.4630  178.2480  145.6400 O   0  0  0  0  0  0  0  0  0  0  0  0
  189.0950  178.4050  148.3520 O   0  0  0  0  0  0  0  0  0  0  0  0
  189.4250  177.5110  147.1790 P   0  0  2  0  0  4  0  0  0  0  0  0
  191.0070  176.8970  147.4440 O   0  0  0  0  0  1  0  0  0  0  0  0
  190.1260  175.9780  147.4900 O   0  0  0  0  0  0  0  0  0  0  0  0
  1  2  1  0  0  0  0
  2 35  1  0  0  0  0
  3  5  2  0  0  0  0
  3  6  1  0  0  0  0
  4  2  2  0  0  0  0
  5  4  1  0  0  0  0
  6  1  2  0  0  0  0
  7  6  1  0  0  0  0
  7  8  1  0  0  0  0
  9 10  1  0  0  0  0
  9 13  1  0  0  0  0
 10 11  2  0  0  0  0
 11 12  1  0  0  0  0
 11  8  1  0  0  0  0
 13 12  2  0  0  0  0
 15 14  1  1  0  0  0
 15 16  1  0  0  0  0
 15  5  1  0  0  0  0
 17 16  1  0  0  0  0
 17 18  1  0  0  0  0
 19 18  1  0  0  0  0
 20 21  1  6  0  0  0
 20 24  1  0  0  0  0
 20 19  1  0  0  0  0
 22 24  2  0  0  0  0
 24 25  1  0  0  0  0
 24 23  1  0  0  0  0
 26 34  1  0  0  0  0
 26  3  1  0  0  0  0
 27 28  1  0  0  0  0
 27 34  1  0  0  0  0
 28 31  1  0  0  0  0
 30 32  1  0  0  0  0
 30 29  1  0  0  0  0
 31 30  2  0  0  0  0
 33 29  2  0  0  0  0
 34 33  2  0  0  0  0
 35 36  1  0  0  0  0
 36 38  1  0  0  0  0
 37 40  1  0  0  0  0
 37 38  1  0  0  0  0
 38 41  1  0  0  0  0
 39 37  2  0  0  0  0
 41 42  1  0  0  0  0
 42 43  1  1  0  0  0
 45 42  1  0  0  0  0
 45 46  1  0  0  0  0
 45 44  1  1  0  0  0
 46 47  1  1  0  0  0
 48 46  1  0  0  0  0
 50 49  1  6  0  0  0
 50 48  1  0  0  0  0
 50 51  2  0  0  0  0
 50 52  1  0  0  0  0
 52 53  1  6  0  0  0
 52 56  1  0  0  0  0
 54 53  2  0  0  0  0
 55 53  1  0  0  0  0
 56 58  1  0  0  0  0
 58 60  1  0  0  0  0
 58 57  2  1  0  0  0
 59 60  1  0  0  0  0
M  END
>  <MODEL>
5

>  <REMARK>
 VINA RESULT:      -4.9      1.422      1.983
  Name = 
  24 active torsions:
  status: ('A' for Active; 'I' for Inactive)
    1  A    between atoms: C_4  and  C_10
    2  A    between atoms: C_4  and  C_29
    3  A    between atoms: C_6  and  C_56
    4  A    between atoms: O_8  and  C_33
    5  A    between atoms: O_8  and  P_51
    6  A    between atoms: C_10  and  C_48
    7  A    between atoms: C_12  and  N_35
    8  A    between atoms: C_12  and  C_60
    9  A    between atoms: C_13  and  S_22
   10  A    between atoms: C_14  and  C_45
   11  A    between atoms: C_19  and  C_30
   12  A    between atoms: C_19  and  C_53
   13  A    between atoms: C_20  and  C_60
   14  A    between atoms: P_24  and  O_25
   15  A    between atoms: O_25  and  C_56
   16  A    between atoms: C_26  and  C_32
   17  A    between atoms: C_26  and  O_47
   18  A    between atoms: C_27  and  C_40
   19  A    between atoms: C_29  and  P_38
   20  A    between atoms: C_30  and  C_33
   21  A    between atoms: N_35  and  C_53
   22  A    between atoms: C_40  and  C_55
   23  A    between atoms: O_47  and  C_48
   24  A    between atoms: P_51  and  C_56
                            x       y       z     vdW  Elec       q    Type
                         _______ _______ _______ _____ _____    ______ ____

>  <TORSDO>
F 24

$$$$
=
 OpenBabel10222417273D

 60 62  0  0  1  0  0  0  0  0999 V2000
  187.9900  177.5510  138.7750 C   0  0  0  0  0  3  0  0  0  0  0  0
  186.6670  177.8980  139.0390 C   0  0  0  0  0  0  0  0  0  0  0  0
  187.3570  176.7220  136.5740 C   0  0  0  0  0  0  0  0  0  0  0  0
  185.6890  177.6700  138.0650 C   0  0  0  0  0  3  0  0  0  0  0  0
  186.0160  177.0730  136.8400 C   0  0  0  0  0  0  0  0  0  0  0  0
  188.3500  176.9590  137.5530 C   0  0  0  0  0  0  0  0  0  0  0  0
  189.7590  176.6240  137.2770 C   0  0  0  0  0  2  0  0  0  0  0  0
  190.5520  175.4290  138.0200 S   0  0  0  0  0  0  0  0  0  0  0  0
  193.8560  176.2340  136.2350 C   0  0  0  0  0  2  0  0  0  0  0  0
  192.5150  176.3220  136.3200 N   0  0  0  0  0  0  0  0  0  0  0  0
  192.2080  175.6260  137.4270 C   0  0  0  0  0  0  0  0  0  0  0  0
  193.2770  175.1030  138.0500 N   0  0  0  0  0  0  0  0  0  0  0  0
  194.3240  175.4870  137.2960 C   0  0  0  0  0  3  0  0  0  0  0  0
  185.1200  177.6690  134.5940 C   0  0  0  0  0  1  0  0  0  0  0  0
  184.9280  176.8070  135.8320 C   0  0  2  0  0  3  0  0  0  0  0  0
  183.6730  177.0500  136.3950 O   0  0  0  0  0  0  0  0  0  0  0  0
  182.7840  177.0570  135.3200 C   0  0  0  0  0  2  0  0  0  0  0  0
  181.5020  177.7830  135.7030 C   0  0  0  0  0  2  0  0  0  0  0  0
  181.7760  179.0120  136.5600 C   0  0  0  0  0  2  0  0  0  0  0  0
  180.5070  179.5100  137.2350 C   0  0  1  0  0  3  0  0  0  0  0  0
  180.0620  178.5680  138.1460 F   0  0  0  0  0  0  0  0  0  0  0  0
  180.4920  182.3740  137.0910 O   0  0  0  0  0  0  0  0  0  0  0  0
  179.8740  181.1500  139.4870 O   0  0  0  0  0  1  0  0  0  0  0  0
  180.8440  181.0650  138.1050 P   0  0  0  0  0  0  0  0  0  0  0  0
  182.2990  181.1170  138.5090 O   0  0  0  0  0  1  0  0  0  0  0  0
  187.7310  176.1310  135.2400 C   0  0  0  0  0  2  0  0  0  0  0  0
  188.2420  173.7380  136.1450 C   0  0  0  0  0  2  0  0  0  0  0  0
  188.1880  172.2640  135.6630 C   0  0  0  0  0  2  0  0  0  0  0  0
  185.4370  173.3000  134.6070 C   0  0  0  0  0  3  0  0  0  0  0  0
  185.6490  171.9870  135.2560 C   0  0  0  0  0  0  0  0  0  0  0  0
  186.8320  171.5720  135.7700 C   0  0  0  0  0  3  0  0  0  0  0  0
  184.4750  171.0850  135.3950 C   0  0  0  0  0  1  0  0  0  0  0  0
  186.3750  174.1660  134.8030 C   0  0  0  0  0  0  0  0  0  0  0  0
  187.4870  174.6600  135.2300 C   0  0  0  0  0  0  0  0  0  0  0  0
  186.3450  178.6190  140.3100 C   0  0  0  0  0  2  0  0  0  0  0  0
  185.0710  178.1100  140.9840 C   0  0  0  0  0  2  0  0  0  0  0  0
  183.4230  179.0820  142.5960 C   0  0  0  0  0  0  0  0  0  0  0  0
  184.7840  178.8620  142.2040 N   0  0  0  0  0  0  0  0  0  0  0  0
  182.3820  178.5690  141.8300 O   0  0  0  0  0  0  0  0  0  0  0  0
  183.1560  179.7500  143.6320 O   0  0  0  0  0  1  0  0  0  0  0  0
  185.8840  179.3790  143.0160 C   0  0  0  0  0  2  0  0  0  0  0  0
  186.3850  178.3650  144.0440 C   0  0  2  0  0  3  0  0  0  0  0  0
  186.1290  177.0500  143.6380 O   0  0  0  0  0  1  0  0  0  0  0  0
  184.6470  177.9700  145.6760 O   0  0  0  0  0  1  0  0  0  0  0  0
  185.8510  178.6410  145.4520 C   0  0  1  0  0  3  0  0  0  0  0  0
  186.8700  178.2710  146.5270 C   0  0  2  0  0  3  0  0  0  0  0  0
  186.6570  179.0430  147.6700 O   0  0  0  0  0  1  0  0  0  0  0  0
  188.1740  178.4580  146.0560 O   0  0  0  0  0  0  0  0  0  0  0  0
  188.3210  176.0810  147.6390 C   0  0  0  0  0  1  0  0  0  0  0  0
  189.1930  177.5660  147.0790 P   0  0  2  0  0  0  0  0  0  0  0  0
  189.5290  178.4110  148.2830 O   0  0  0  0  0  0  0  0  0  0  0  0
  190.7370  177.0680  146.2220 C   0  0  1  0  0  3  0  0  0  0  0  0
  191.7640  176.3680  147.0710 C   0  0  0  0  0  0  0  0  0  0  0  0
  192.2010  175.2330  146.7480 O   0  0  0  0  0  0  0  0  0  0  0  0
  192.2670  177.0030  148.2000 O   0  0  0  0  0  1  0  0  0  0  0  0
  190.5500  176.5490  144.9180 O   0  0  0  0  0  0  0  0  0  0  0  0
  191.8110  178.8940  144.2670 O   0  0  0  0  0  0  0  0  0  0  0  0
  191.2660  177.5780  143.7610 P   0  0  2  0  0  4  0  0  0  0  0  0
  190.0250  177.9490  142.6330 O   0  0  0  0  0  1  0  0  0  0  0  0
  191.0230  177.3880  142.0750 O   0  0  0  0  0  0  0  0  0  0  0  0
  1  2  1  0  0  0  0
  2 35  1  0  0  0  0
  3  5  2  0  0  0  0
  3  6  1  0  0  0  0
  4  2  2  0  0  0  0
  5  4  1  0  0  0  0
  6  1  2  0  0  0  0
  7  6  1  0  0  0  0
  7  8  1  0  0  0  0
  9 10  1  0  0  0  0
  9 13  1  0  0  0  0
 10 11  2  0  0  0  0
 11  8  1  0  0  0  0
 11 12  1  0  0  0  0
 13 12  2  0  0  0  0
 15 14  1  6  0  0  0
 15 16  1  0  0  0  0
 15  5  1  0  0  0  0
 17 18  1  0  0  0  0
 17 16  1  0  0  0  0
 18 19  1  0  0  0  0
 19 20  1  0  0  0  0
 20 24  1  0  0  0  0
 20 21  1  1  0  0  0
 22 24  2  0  0  0  0
 24 25  1  0  0  0  0
 24 23  1  0  0  0  0
 26  3  1  0  0  0  0
 28 31  1  0  0  0  0
 28 27  1  0  0  0  0
 29 33  2  0  0  0  0
 29 30  1  0  0  0  0
 30 32  1  0  0  0  0
 30 31  2  0  0  0  0
 33 34  2  0  0  0  0
 34 26  1  0  0  0  0
 34 27  1  0  0  0  0
 35 36  1  0  0  0  0
 36 38  1  0  0  0  0
 37 40  1  0  0  0  0
 38 37  1  0  0  0  0
 38 41  1  0  0  0  0
 39 37  2  0  0  0  0
 41 42  1  0  0  0  0
 42 43  1  6  0  0  0
 42 45  1  0  0  0  0
 45 44  1  1  0  0  0
 45 46  1  0  0  0  0
 46 47  1  1  0  0  0
 48 46  1  0  0  0  0
 48 50  1  0  0  0  0
 50 49  1  1  0  0  0
 50 51  2  0  0  0  0
 52 56  1  6  0  0  0
 52 53  1  0  0  0  0
 52 50  1  0  0  0  0
 53 55  1  0  0  0  0
 54 53  2  0  0  0  0
 58 57  2  1  0  0  0
 58 56  1  0  0  0  0
 60 59  1  0  0  0  0
 60 58  1  0  0  0  0
M  END
>  <MODEL>
6

>  <REMARK>
 VINA RESULT:      -4.7      3.853      6.744
  Name = 
  24 active torsions:
  status: ('A' for Active; 'I' for Inactive)
    1  A    between atoms: C_4  and  C_10
    2  A    between atoms: C_4  and  C_29
    3  A    between atoms: C_6  and  C_56
    4  A    between atoms: O_8  and  C_33
    5  A    between atoms: O_8  and  P_51
    6  A    between atoms: C_10  and  C_48
    7  A    between atoms: C_12  and  N_35
    8  A    between atoms: C_12  and  C_60
    9  A    between atoms: C_13  and  S_22
   10  A    between atoms: C_14  and  C_45
   11  A    between atoms: C_19  and  C_30
   12  A    between atoms: C_19  and  C_53
   13  A    between atoms: C_20  and  C_60
   14  A    between atoms: P_24  and  O_25
   15  A    between atoms: O_25  and  C_56
   16  A    between atoms: C_26  and  C_32
   17  A    between atoms: C_26  and  O_47
   18  A    between atoms: C_27  and  C_40
   19  A    between atoms: C_29  and  P_38
   20  A    between atoms: C_30  and  C_33
   21  A    between atoms: N_35  and  C_53
   22  A    between atoms: C_40  and  C_55
   23  A    between atoms: O_47  and  C_48
   24  A    between atoms: P_51  and  C_56
                            x       y       z     vdW  Elec       q    Type
                         _______ _______ _______ _____ _____    ______ ____

>  <TORSDO>
F 24

$$$$
=
 OpenBabel10222417273D

 60 62  0  0  1  0  0  0  0  0999 V2000
  188.2220  177.3320  138.4120 C   0  0  0  0  0  3  0  0  0  0  0  0
  189.4960  177.2030  138.9590 C   0  0  0  0  0  0  0  0  0  0  0  0
  188.9080  176.0510  136.4560 C   0  0  0  0  0  0  0  0  0  0  0  0
  190.4740  176.4840  138.2630 C   0  0  0  0  0  3  0  0  0  0  0  0
  190.1990  175.9190  137.0110 C   0  0  0  0  0  0  0  0  0  0  0  0
  187.9130  176.7690  137.1620 C   0  0  0  0  0  0  0  0  0  0  0  0
  186.5520  176.8900  136.6090 C   0  0  0  0  0  2  0  0  0  0  0  0
  185.2490  177.1960  137.5100 S   0  0  0  0  0  0  0  0  0  0  0  0
  182.6560  177.4110  134.6840 C   0  0  0  0  0  2  0  0  0  0  0  0
  183.7550  177.8760  135.3080 N   0  0  0  0  0  0  0  0  0  0  0  0
  183.9210  177.0440  136.3490 C   0  0  0  0  0  0  0  0  0  0  0  0
  182.9920  176.0760  136.4200 N   0  0  0  0  0  0  0  0  0  0  0  0
  182.1880  176.3070  135.3660 C   0  0  0  0  0  3  0  0  0  0  0  0
  191.5100  173.8050  136.8700 C   0  0  0  0  0  1  0  0  0  0  0  0
  191.2910  175.1870  136.2730 C   0  0  2  0  0  3  0  0  0  0  0  0
  192.4800  175.9200  136.3120 O   0  0  0  0  0  0  0  0  0  0  0  0
  193.4460  175.0790  135.7580 C   0  0  0  0  0  2  0  0  0  0  0  0
  194.8350  175.5070  136.2110 C   0  0  0  0  0  2  0  0  0  0  0  0
  195.9340  174.7910  135.4370 C   0  0  0  0  0  2  0  0  0  0  0  0
  197.3140  175.2180  135.9120 C   0  0  1  0  0  3  0  0  0  0  0  0
  197.3660  176.5970  136.0160 F   0  0  0  0  0  0  0  0  0  0  0  0
  198.6880  173.1540  137.3540 O   0  0  0  0  0  0  0  0  0  0  0  0
  198.4060  175.6420  138.5180 O   0  0  0  0  0  1  0  0  0  0  0  0
  197.6590  174.4860  137.5350 P   0  0  0  0  0  0  0  0  0  0  0  0
  196.3660  174.0400  138.1770 O   0  0  0  0  0  1  0  0  0  0  0  0
  188.5830  175.4000  135.1380 C   0  0  0  0  0  2  0  0  0  0  0  0
  188.0640  173.1750  136.3970 C   0  0  0  0  0  2  0  0  0  0  0  0
  187.3620  171.8170  136.1390 C   0  0  0  0  0  2  0  0  0  0  0  0
  185.2700  173.7740  134.8950 C   0  0  0  0  0  3  0  0  0  0  0  0
  184.9320  172.6050  135.7360 C   0  0  0  0  0  0  0  0  0  0  0  0
  185.8470  171.7990  136.3250 C   0  0  0  0  0  3  0  0  0  0  0  0
  183.4930  172.3250  135.9880 C   0  0  0  0  0  1  0  0  0  0  0  0
  186.4970  174.1700  134.9760 C   0  0  0  0  0  0  0  0  0  0  0  0
  187.7330  174.1930  135.3420 C   0  0  0  0  0  0  0  0  0  0  0  0
  189.7520  177.7290  140.3360 C   0  0  0  0  0  2  0  0  0  0  0  0
  190.4450  176.7170  141.2480 C   0  0  0  0  0  2  0  0  0  0  0  0
  191.1090  176.4350  143.6430 C   0  0  0  0  0  0  0  0  0  0  0  0
  190.3120  177.0950  142.6530 N   0  0  0  0  0  0  0  0  0  0  0  0
  192.0170  175.4510  143.2680 O   0  0  0  0  0  0  0  0  0  0  0  0
  190.9890  176.7310  144.8630 O   0  0  0  0  0  1  0  0  0  0  0  0
  189.3710  178.1470  143.0380 C   0  0  0  0  0  2  0  0  0  0  0  0
  188.0400  177.5910  143.5430 C   0  0  2  0  0  3  0  0  0  0  0  0
  187.9310  176.2160  143.3030 O   0  0  0  0  0  1  0  0  0  0  0  0
  186.3470  177.7740  141.8280 O   0  0  0  0  0  1  0  0  0  0  0  0
  186.8350  178.3620  142.9970 C   0  0  1  0  0  3  0  0  0  0  0  0
  185.7220  178.4810  144.0340 C   0  0  2  0  0  3  0  0  0  0  0  0
  186.1260  177.8950  145.2350 O   0  0  0  0  0  1  0  0  0  0  0  0
  184.5490  177.8720  143.5730 O   0  0  0  0  0  0  0  0  0  0  0  0
  183.8720  180.6220  143.9620 C   0  0  0  0  0  1  0  0  0  0  0  0
  183.2700  178.9140  143.9710 P   0  0  2  0  0  0  0  0  0  0  0  0
  182.7890  178.5800  145.3610 O   0  0  0  0  0  0  0  0  0  0  0  0
  181.8830  178.7600  142.7800 C   0  0  1  0  0  3  0  0  0  0  0  0
  180.5600  179.3150  143.2360 C   0  0  0  0  0  0  0  0  0  0  0  0
  179.8090  178.6470  143.9940 O   0  0  0  0  0  1  0  0  0  0  0  0
  180.1850  180.5960  142.8510 O   0  0  0  0  0  0  0  0  0  0  0  0
  182.2290  179.0110  141.4310 O   0  0  0  0  0  0  0  0  0  0  0  0
  182.6610  176.8280  139.8310 O   0  0  0  0  0  0  0  0  0  0  0  0
  181.6360  177.7670  140.4240 P   0  0  2  0  0  4  0  0  0  0  0  0
  180.8590  178.5560  139.1120 O   0  0  0  0  0  1  0  0  0  0  0  0
  180.0620  177.7920  139.7480 O   0  0  0  0  0  0  0  0  0  0  0  0
  1  2  1  0  0  0  0
  2 35  1  0  0  0  0
  3  5  2  0  0  0  0
  3  6  1  0  0  0  0
  4  2  2  0  0  0  0
  5  4  1  0  0  0  0
  6  1  2  0  0  0  0
  7  6  1  0  0  0  0
  7  8  1  0  0  0  0
  9 10  1  0  0  0  0
  9 13  1  0  0  0  0
 10 11  2  0  0  0  0
 11 12  1  0  0  0  0
 11  8  1  0  0  0  0
 13 12  2  0  0  0  0
 15 16  1  0  0  0  0
 15 14  1  1  0  0  0
 15  5  1  0  0  0  0
 17 18  1  0  0  0  0
 17 16  1  0  0  0  0
 19 20  1  0  0  0  0
 19 18  1  0  0  0  0
 20 21  1  1  0  0  0
 20 24  1  0  0  0  0
 22 24  2  0  0  0  0
 24 25  1  0  0  0  0
 24 23  1  0  0  0  0
 26 34  1  0  0  0  0
 26  3  1  0  0  0  0
 28 31  1  0  0  0  0
 28 27  1  0  0  0  0
 29 33  2  0  0  0  0
 29 30  1  0  0  0  0
 30 32  1  0  0  0  0
 30 31  2  0  0  0  0
 33 34  2  0  0  0  0
 34 27  1  0  0  0  0
 35 36  1  0  0  0  0
 36 38  1  0  0  0  0
 37 40  1  0  0  0  0
 38 41  1  0  0  0  0
 38 37  1  0  0  0  0
 39 37  2  0  0  0  0
 41 42  1  0  0  0  0
 42 43  1  6  0  0  0
 45 44  1  6  0  0  0
 45 42  1  0  0  0  0
 45 46  1  0  0  0  0
 46 47  1  1  0  0  0
 48 50  1  0  0  0  0
 48 46  1  0  0  0  0
 50 49  1  6  0  0  0
 50 51  2  0  0  0  0
 52 56  1  6  0  0  0
 52 53  1  0  0  0  0
 52 50  1  0  0  0  0
 53 54  1  0  0  0  0
 55 53  2  0  0  0  0
 58 57  2  6  0  0  0
 58 56  1  0  0  0  0
 59 60  1  0  0  0  0
 60 58  1  0  0  0  0
M  END
>  <MODEL>
7

>  <REMARK>
 VINA RESULT:      -4.7      2.796      6.344
  Name = 
  24 active torsions:
  status: ('A' for Active; 'I' for Inactive)
    1  A    between atoms: C_4  and  C_10
    2  A    between atoms: C_4  and  C_29
    3  A    between atoms: C_6  and  C_56
    4  A    between atoms: O_8  and  C_33
    5  A    between atoms: O_8  and  P_51
    6  A    between atoms: C_10  and  C_48
    7  A    between atoms: C_12  and  N_35
    8  A    between atoms: C_12  and  C_60
    9  A    between atoms: C_13  and  S_22
   10  A    between atoms: C_14  and  C_45
   11  A    between atoms: C_19  and  C_30
   12  A    between atoms: C_19  and  C_53
   13  A    between atoms: C_20  and  C_60
   14  A    between atoms: P_24  and  O_25
   15  A    between atoms: O_25  and  C_56
   16  A    between atoms: C_26  and  C_32
   17  A    between atoms: C_26  and  O_47
   18  A    between atoms: C_27  and  C_40
   19  A    between atoms: C_29  and  P_38
   20  A    between atoms: C_30  and  C_33
   21  A    between atoms: N_35  and  C_53
   22  A    between atoms: C_40  and  C_55
   23  A    between atoms: O_47  and  C_48
   24  A    between atoms: P_51  and  C_56
                            x       y       z     vdW  Elec       q    Type
                         _______ _______ _______ _____ _____    ______ ____

>  <TORSDO>
F 24

$$$$
=
 OpenBabel10222417273D

 60 62  0  0  1  0  0  0  0  0999 V2000
  184.5660  177.6290  138.2110 C   0  0  0  0  0  3  0  0  0  0  0  0
  185.6370  178.2580  138.8430 C   0  0  0  0  0  0  0  0  0  0  0  0
  186.0440  176.8380  136.4430 C   0  0  0  0  0  0  0  0  0  0  0  0
  186.9160  178.1640  138.2830 C   0  0  0  0  0  3  0  0  0  0  0  0
  187.1300  177.4740  137.0840 C   0  0  0  0  0  0  0  0  0  0  0  0
  184.7510  176.9220  137.0120 C   0  0  0  0  0  0  0  0  0  0  0  0
  183.6130  176.2390  136.3700 C   0  0  0  0  0  2  0  0  0  0  0  0
  182.0700  176.6180  136.6560 S   0  0  0  0  0  0  0  0  0  0  0  0
  179.6350  174.3660  134.7190 C   0  0  0  0  0  2  0  0  0  0  0  0
  179.9180  175.5230  135.3480 N   0  0  0  0  0  0  0  0  0  0  0  0
  181.1850  175.3690  135.7680 C   0  0  0  0  0  0  0  0  0  0  0  0
  181.7210  174.1820  135.4410 N   0  0  0  0  0  0  0  0  0  0  0  0
  180.7400  173.5440  134.7760 C   0  0  0  0  0  3  0  0  0  0  0  0
  188.4550  177.5550  134.9760 C   0  0  0  0  0  1  0  0  0  0  0  0
  188.5150  177.4310  136.4910 C   0  0  2  0  0  3  0  0  0  0  0  0
  189.1610  176.2460  136.8490 O   0  0  0  0  0  0  0  0  0  0  0  0
  190.4910  176.4220  136.4650 C   0  0  0  0  0  2  0  0  0  0  0  0
  191.3940  176.4360  137.6900 C   0  0  0  0  0  2  0  0  0  0  0  0
  192.8370  176.0960  137.3400 C   0  0  0  0  0  2  0  0  0  0  0  0
  193.1820  174.6700  137.7410 C   0  0  1  0  0  3  0  0  0  0  0  0
  192.6020  173.7810  136.8530 F   0  0  0  0  0  0  0  0  0  0  0  0
  195.3510  172.8350  137.3390 O   0  0  0  0  0  1  0  0  0  0  0  0
  195.6540  175.4630  136.5480 O   0  0  0  0  0  0  0  0  0  0  0  0
  194.9810  174.4440  137.7180 P   0  0  0  0  0  0  0  0  0  0  0  0
  195.5550  174.7870  139.0720 O   0  0  0  0  0  1  0  0  0  0  0  0
  186.2700  176.0460  135.1830 C   0  0  0  0  0  2  0  0  0  0  0  0
  185.1800  173.6750  135.1790 C   0  0  0  0  0  2  0  0  0  0  0  0
  185.2600  172.3450  135.9710 C   0  0  0  0  0  2  0  0  0  0  0  0
  188.2990  172.9890  135.6460 C   0  0  0  0  0  3  0  0  0  0  0  0
  187.7020  171.6450  135.4810 C   0  0  0  0  0  0  0  0  0  0  0  0
  186.3750  171.3850  135.5600 C   0  0  0  0  0  3  0  0  0  0  0  0
  188.6150  170.5140  135.1630 C   0  0  0  0  0  1  0  0  0  0  0  0
  187.4630  173.9710  135.5880 C   0  0  0  0  0  0  0  0  0  0  0  0
  186.3340  174.5870  135.4840 C   0  0  0  0  0  0  0  0  0  0  0  0
  185.4150  178.9120  140.1700 C   0  0  0  0  0  2  0  0  0  0  0  0
  184.0180  179.5120  140.3180 C   0  0  0  0  0  2  0  0  0  0  0  0
  181.7650  178.4660  140.6110 C   0  0  0  0  0  0  0  0  0  0  0  0
  183.1260  178.6040  141.0360 N   0  0  0  0  0  0  0  0  0  0  0  0
  181.2980  179.1790  139.5120 O   0  0  0  0  0  0  0  0  0  0  0  0
  180.9750  177.7050  141.2340 O   0  0  0  0  0  1  0  0  0  0  0  0
  183.6300  177.8400  142.1770 C   0  0  0  0  0  2  0  0  0  0  0  0
  183.5470  178.6180  143.4890 C   0  0  2  0  0  3  0  0  0  0  0  0
  182.6100  179.6560  143.4160 O   0  0  0  0  0  1  0  0  0  0  0  0
  184.9960  180.5100  143.8940 O   0  0  0  0  0  1  0  0  0  0  0  0
  184.9150  179.1180  143.9650 C   0  0  1  0  0  3  0  0  0  0  0  0
  185.2310  178.6400  145.3800 C   0  0  2  0  0  3  0  0  0  0  0  0
  184.1790  178.9650  146.2380 O   0  0  0  0  0  1  0  0  0  0  0  0
  186.4210  179.2140  145.8400 O   0  0  0  0  0  0  0  0  0  0  0  0
  186.8030  176.3830  145.7180 C   0  0  0  0  0  1  0  0  0  0  0  0
  187.3740  177.9430  146.4380 P   0  0  2  0  0  0  0  0  0  0  0  0
  187.2030  177.8730  147.9360 O   0  0  0  0  0  0  0  0  0  0  0  0
  189.1460  178.1810  146.0270 C   0  0  1  0  0  3  0  0  0  0  0  0
  190.0900  177.1330  146.5530 C   0  0  0  0  0  0  0  0  0  0  0  0
  191.3260  177.2100  146.3330 O   0  0  0  0  0  0  0  0  0  0  0  0
  189.5930  176.0920  147.3290 O   0  0  0  0  0  1  0  0  0  0  0  0
  189.3940  178.6340  144.7090 O   0  0  0  0  0  0  0  0  0  0  0  0
  190.4660  176.5580  143.2760 O   0  0  0  0  0  0  0  0  0  0  0  0
  189.2200  177.3510  143.5980 P   0  0  2  0  0  4  0  0  0  0  0  0
  188.6880  178.0690  142.1320 O   0  0  0  0  0  1  0  0  0  0  0  0
  187.8640  177.1990  142.5620 O   0  0  0  0  0  0  0  0  0  0  0  0
  1  2  1  0  0  0  0
  2 35  1  0  0  0  0
  3  6  1  0  0  0  0
  3  5  2  0  0  0  0
  4  2  2  0  0  0  0
  5  4  1  0  0  0  0
  6  1  2  0  0  0  0
  7  8  1  0  0  0  0
  7  6  1  0  0  0  0
  9 13  1  0  0  0  0
  9 10  1  0  0  0  0
 10 11  2  0  0  0  0
 11  8  1  0  0  0  0
 12 11  1  0  0  0  0
 13 12  2  0  0  0  0
 15 14  1  6  0  0  0
 15 16  1  0  0  0  0
 15  5  1  0  0  0  0
 17 16  1  0  0  0  0
 17 18  1  0  0  0  0
 19 18  1  0  0  0  0
 19 20  1  0  0  0  0
 20 21  1  6  0  0  0
 22 24  1  0  0  0  0
 23 24  2  0  0  0  0
 24 20  1  0  0  0  0
 24 25  1  0  0  0  0
 26 34  1  0  0  0  0
 26  3  1  0  0  0  0
 27 34  1  0  0  0  0
 27 28  1  0  0  0  0
 30 31  2  0  0  0  0
 30 29  1  0  0  0  0
 31 28  1  0  0  0  0
 32 30  1  0  0  0  0
 33 29  2  0  0  0  0
 34 33  2  0  0  0  0
 35 36  1  0  0  0  0
 36 38  1  0  0  0  0
 37 38  1  0  0  0  0
 37 40  1  0  0  0  0
 38 41  1  0  0  0  0
 39 37  2  0  0  0  0
 41 42  1  0  0  0  0
 42 43  1  6  0  0  0
 42 45  1  0  0  0  0
 45 44  1  1  0  0  0
 45 46  1  0  0  0  0
 46 48  1  0  0  0  0
 46 47  1  1  0  0  0
 48 50  1  0  0  0  0
 50 49  1  6  0  0  0
 50 51  2  0  0  0  0
 52 56  1  6  0  0  0
 52 50  1  0  0  0  0
 52 53  1  0  0  0  0
 53 55  1  0  0  0  0
 54 53  2  0  0  0  0
 58 57  2  6  0  0  0
 58 56  1  0  0  0  0
 59 60  1  0  0  0  0
 60 58  1  0  0  0  0
M  END
>  <MODEL>
8

>  <REMARK>
 VINA RESULT:      -4.4      1.646      2.701
  Name = 
  24 active torsions:
  status: ('A' for Active; 'I' for Inactive)
    1  A    between atoms: C_4  and  C_10
    2  A    between atoms: C_4  and  C_29
    3  A    between atoms: C_6  and  C_56
    4  A    between atoms: O_8  and  C_33
    5  A    between atoms: O_8  and  P_51
    6  A    between atoms: C_10  and  C_48
    7  A    between atoms: C_12  and  N_35
    8  A    between atoms: C_12  and  C_60
    9  A    between atoms: C_13  and  S_22
   10  A    between atoms: C_14  and  C_45
   11  A    between atoms: C_19  and  C_30
   12  A    between atoms: C_19  and  C_53
   13  A    between atoms: C_20  and  C_60
   14  A    between atoms: P_24  and  O_25
   15  A    between atoms: O_25  and  C_56
   16  A    between atoms: C_26  and  C_32
   17  A    between atoms: C_26  and  O_47
   18  A    between atoms: C_27  and  C_40
   19  A    between atoms: C_29  and  P_38
   20  A    between atoms: C_30  and  C_33
   21  A    between atoms: N_35  and  C_53
   22  A    between atoms: C_40  and  C_55
   23  A    between atoms: O_47  and  C_48
   24  A    between atoms: P_51  and  C_56
                            x       y       z     vdW  Elec       q    Type
                         _______ _______ _______ _____ _____    ______ ____

>  <TORSDO>
F 24

$$$$
=
 OpenBabel10222417273D

 60 62  0  0  1  0  0  0  0  0999 V2000
  187.3680  177.8350  138.8890 C   0  0  0  0  0  3  0  0  0  0  0  0
  186.0150  178.1600  138.9670 C   0  0  0  0  0  0  0  0  0  0  0  0
  187.0390  176.9110  136.6580 C   0  0  0  0  0  0  0  0  0  0  0  0
  185.1760  177.8740  137.8850 C   0  0  0  0  0  3  0  0  0  0  0  0
  185.6690  177.2410  136.7370 C   0  0  0  0  0  0  0  0  0  0  0  0
  187.8930  177.2070  137.7470 C   0  0  0  0  0  0  0  0  0  0  0  0
  189.3320  176.8940  137.6670 C   0  0  0  0  0  2  0  0  0  0  0  0
  190.2870  176.7590  138.9620 S   0  0  0  0  0  0  0  0  0  0  0  0
  193.4410  176.3420  136.8100 C   0  0  0  0  0  3  0  0  0  0  0  0
  192.1050  176.4600  136.9250 N   0  0  0  0  0  0  0  0  0  0  0  0
  191.8950  176.5660  138.2480 C   0  0  0  0  0  0  0  0  0  0  0  0
  193.0210  176.5250  138.9780 N   0  0  0  0  0  2  0  0  0  0  0  0
  194.0040  176.3820  138.0690 C   0  0  0  0  0  3  0  0  0  0  0  0
  184.6870  178.0450  134.5940 C   0  0  0  0  0  1  0  0  0  0  0  0
  184.7240  176.9130  135.6090 C   0  0  2  0  0  3  0  0  0  0  0  0
  183.4410  176.6710  136.1040 O   0  0  0  0  0  0  0  0  0  0  0  0
  182.9120  175.6760  135.2810 C   0  0  0  0  0  2  0  0  0  0  0  0
  182.3570  174.5370  136.1240 C   0  0  0  0  0  2  0  0  0  0  0  0
  180.8550  174.6660  136.3410 C   0  0  0  0  0  2  0  0  0  0  0  0
  180.4090  173.9120  137.5840 C   0  0  1  0  0  3  0  0  0  0  0  0
  181.3930  173.0190  137.9670 F   0  0  0  0  0  0  0  0  0  0  0  0
  181.5620  175.8270  139.3810 O   0  0  0  0  0  1  0  0  0  0  0  0
  179.0100  176.2590  138.4190 O   0  0  0  0  0  0  0  0  0  0  0  0
  180.1080  175.0820  138.9370 P   0  0  0  0  0  0  0  0  0  0  0  0
  179.5340  174.3480  140.1260 O   0  0  0  0  0  1  0  0  0  0  0  0
  187.5920  176.2810  135.4080 C   0  0  0  0  0  2  0  0  0  0  0  0
  188.1490  173.9300  136.3930 C   0  0  0  0  0  2  0  0  0  0  0  0
  188.1550  172.4430  135.9510 C   0  0  0  0  0  2  0  0  0  0  0  0
  185.4060  173.3630  134.7880 C   0  0  0  0  0  3  0  0  0  0  0  0
  185.6380  172.0760  135.4800 C   0  0  0  0  0  0  0  0  0  0  0  0
  186.8170  171.7120  136.0380 C   0  0  0  0  0  3  0  0  0  0  0  0
  184.4880  171.1410  135.6100 C   0  0  0  0  0  1  0  0  0  0  0  0
  186.3100  174.2630  134.9870 C   0  0  0  0  0  0  0  0  0  0  0  0
  187.3940  174.8040  135.4320 C   0  0  0  0  0  0  0  0  0  0  0  0
  185.5190  178.9190  140.1570 C   0  0  0  0  0  2  0  0  0  0  0  0
  184.2420  178.3320  140.7550 C   0  0  0  0  0  2  0  0  0  0  0  0
  182.5360  179.0390  142.4430 C   0  0  0  0  0  0  0  0  0  0  0  0
  183.9030  178.9830  142.0190 N   0  0  0  0  0  0  0  0  0  0  0  0
  181.5370  178.4620  141.6650 O   0  0  0  0  0  0  0  0  0  0  0  0
  182.2230  179.6180  143.5190 O   0  0  0  0  0  1  0  0  0  0  0  0
  184.9610  179.5670  142.8430 C   0  0  0  0  0  2  0  0  0  0  0  0
  185.5590  178.5670  143.8300 C   0  0  2  0  0  3  0  0  0  0  0  0
  184.9870  177.2970  143.6890 O   0  0  0  0  0  1  0  0  0  0  0  0
  184.2180  178.9050  145.8120 O   0  0  0  0  0  1  0  0  0  0  0  0
  185.4990  179.0610  145.2790 C   0  0  1  0  0  3  0  0  0  0  0  0
  186.5280  178.3580  146.1600 C   0  0  2  0  0  3  0  0  0  0  0  0
  186.3640  178.7510  147.4890 O   0  0  0  0  0  1  0  0  0  0  0  0
  187.8280  178.6470  145.7300 O   0  0  0  0  0  0  0  0  0  0  0  0
  187.9640  176.3470  147.4230 C   0  0  0  0  0  1  0  0  0  0  0  0
  188.8770  177.7360  146.7040 P   0  0  2  0  0  0  0  0  0  0  0  0
  189.3800  178.6130  147.8240 O   0  0  0  0  0  0  0  0  0  0  0  0
  190.2950  177.0870  145.7380 C   0  0  1  0  0  3  0  0  0  0  0  0
  191.4390  176.5290  146.5440 C   0  0  0  0  0  0  0  0  0  0  0  0
  192.3290  175.8280  145.9970 O   0  0  0  0  0  0  0  0  0  0  0  0
  191.5340  176.8300  147.8970 O   0  0  0  0  0  1  0  0  0  0  0  0
  189.9400  176.3580  144.5780 O   0  0  0  0  0  0  0  0  0  0  0  0
  192.0260  177.2010  143.0130 O   0  0  0  0  0  0  0  0  0  0  0  0
  190.5250  177.1440  143.1810 P   0  0  2  0  0  4  0  0  0  0  0  0
  189.9680  178.7640  143.2870 O   0  0  0  0  0  1  0  0  0  0  0  0
  189.5550  178.1870  142.2290 O   0  0  0  0  0  0  0  0  0  0  0  0
  1  2  1  0  0  0  0
  2 35  1  0  0  0  0
  3  5  2  0  0  0  0
  3  6  1  0  0  0  0
  4  2  2  0  0  0  0
  5  4  1  0  0  0  0
  6  1  2  0  0  0  0
  7  6  1  0  0  0  0
  7  8  1  0  0  0  0
  9 10  1  0  0  0  0
  9 13  2  0  0  0  0
 10 11  2  0  0  0  0
 11  8  1  0  0  0  0
 11 12  1  0  0  0  0
 13 12  1  0  0  0  0
 15 14  1  6  0  0  0
 15 16  1  0  0  0  0
 15  5  1  0  0  0  0
 17 16  1  0  0  0  0
 17 18  1  0  0  0  0
 18 19  1  0  0  0  0
 19 20  1  0  0  0  0
 20 21  1  1  0  0  0
 20 24  1  0  0  0  0
 23 24  2  0  0  0  0
 24 22  1  0  0  0  0
 24 25  1  0  0  0  0
 26 34  1  0  0  0  0
 26  3  1  0  0  0  0
 28 31  1  0  0  0  0
 28 27  1  0  0  0  0
 29 33  2  0  0  0  0
 29 30  1  0  0  0  0
 30 32  1  0  0  0  0
 30 31  2  0  0  0  0
 33 34  2  0  0  0  0
 34 27  1  0  0  0  0
 35 36  1  0  0  0  0
 36 38  1  0  0  0  0
 37 40  1  0  0  0  0
 38 37  1  0  0  0  0
 38 41  1  0  0  0  0
 39 37  2  0  0  0  0
 41 42  1  0  0  0  0
 42 43  1  1  0  0  0
 42 45  1  0  0  0  0
 45 44  1  1  0  0  0
 45 46  1  0  0  0  0
 46 47  1  1  0  0  0
 48 46  1  0  0  0  0
 48 50  1  0  0  0  0
 50 49  1  1  0  0  0
 50 51  2  0  0  0  0
 52 56  1  6  0  0  0
 52 53  1  0  0  0  0
 52 50  1  0  0  0  0
 53 55  1  0  0  0  0
 54 53  2  0  0  0  0
 58 57  2  1  0  0  0
 58 56  1  0  0  0  0
 60 58  1  0  0  0  0
 60 59  1  0  0  0  0
M  END
>  <MODEL>
9

>  <REMARK>
 VINA RESULT:      -4.4      3.519      6.463
  Name = 
  24 active torsions:
  status: ('A' for Active; 'I' for Inactive)
    1  A    between atoms: C_4  and  C_10
    2  A    between atoms: C_4  and  C_29
    3  A    between atoms: C_6  and  C_56
    4  A    between atoms: O_8  and  C_33
    5  A    between atoms: O_8  and  P_51
    6  A    between atoms: C_10  and  C_48
    7  A    between atoms: C_12  and  N_35
    8  A    between atoms: C_12  and  C_60
    9  A    between atoms: C_13  and  S_22
   10  A    between atoms: C_14  and  C_45
   11  A    between atoms: C_19  and  C_30
   12  A    between atoms: C_19  and  C_53
   13  A    between atoms: C_20  and  C_60
   14  A    between atoms: P_24  and  O_25
   15  A    between atoms: O_25  and  C_56
   16  A    between atoms: C_26  and  C_32
   17  A    between atoms: C_26  and  O_47
   18  A    between atoms: C_27  and  C_40
   19  A    between atoms: C_29  and  P_38
   20  A    between atoms: C_30  and  C_33
   21  A    between atoms: N_35  and  C_53
   22  A    between atoms: C_40  and  C_55
   23  A    between atoms: O_47  and  C_48
   24  A    between atoms: P_51  and  C_56
                            x       y       z     vdW  Elec       q    Type
                         _______ _______ _______ _____ _____    ______ ____

>  <TORSDO>
F 24

$$$$
