=
 OpenBabel10222417153D

 56 63  0  0  1  0  0  0  0  0999 V2000
  184.6120  178.9840  139.1460 C   0  0  2  0  0  3  0  0  0  0  0  0
  181.4970  179.0830  142.4390 O   0  0  0  0  0  0  0  0  0  0  0  0
  185.7550  178.5130  141.3350 C   0  0  0  0  0  2  0  0  0  0  0  0
  182.7080  178.7360  142.4170 C   0  0  0  0  0  0  0  0  0  0  0  0
  183.0890  179.5690  144.5900 O   0  0  0  0  0  0  0  0  0  0  0  0
  184.4650  178.9740  140.6690 C   0  0  2  0  0  3  0  0  0  0  0  0
  183.5390  178.8970  143.6240 C   0  0  0  0  0  0  0  0  0  0  0  0
  183.2680  178.1600  141.1550 C   0  0  0  0  0  2  0  0  0  0  0  0
  185.8660  179.0400  142.7600 C   0  0  0  0  0  2  0  0  0  0  0  0
  184.9210  178.2960  143.6910 C   0  0  1  0  0  3  0  0  0  0  0  0
  185.4970  178.3250  145.1000 C   0  0  0  0  0  2  0  0  0  0  0  0
  186.8890  177.8980  145.0840 N   0  0  0  0  0  2  0  0  0  0  0  0
  187.5020  178.4040  146.3060 C   0  0  1  0  0  3  0  0  0  0  0  0
  186.4180  178.6800  147.3360 C   0  0  0  0  0  1  0  0  0  0  0  0
  188.6110  177.4640  146.8320 C   0  0  0  0  0  0  0  0  0  0  0  0
  187.9700  176.4220  147.7330 C   0  0  0  0  0  1  0  0  0  0  0  0
  189.6180  178.2260  147.6960 C   0  0  0  0  0  1  0  0  0  0  0  0
  189.2080  176.7300  145.7000 N   0  0  0  0  0  2  0  0  0  0  0  0
  191.8160  177.2430  145.7180 O   0  0  0  0  0  0  0  0  0  0  0  0
  190.3630  178.9610  144.7420 O   0  0  0  0  0  0  0  0  0  0  0  0
  190.5740  177.4810  144.9080 S   0  0  0  0  0  0  0  0  0  0  0  0
  189.5460  176.6690  142.6390 O   0  0  0  0  0  0  0  0  0  0  0  0
  189.8060  176.8990  141.2740 C   0  0  0  0  0  2  0  0  0  0  0  0
  191.2600  177.2740  141.0830 C   0  0  0  0  0  2  0  0  0  0  0  0
  190.7850  176.7360  143.3030 C   0  0  1  0  0  3  0  0  0  0  0  0
  191.7290  177.5570  142.4690 C   0  0  0  0  0  2  0  0  0  0  0  0
  183.0100  178.7300  138.3020 S   0  0  0  0  0  0  0  0  0  0  0  0
  183.4150  177.0530  137.6830 C   0  0  2  0  0  3  0  0  0  0  0  0
  182.0620  171.0420  136.2370 C   0  0  0  0  0  2  0  0  0  0  0  0
  182.8760  176.8230  136.2950 C   0  0  0  0  0  0  0  0  0  0  0  0
  182.8960  177.7540  135.4430 O   0  0  0  0  0  0  0  0  0  0  0  0
  182.2820  172.4580  135.7730 C   0  0  2  0  0  3  0  0  0  0  0  0
  183.5540  170.9070  136.4190 C   0  0  0  0  0  2  0  0  0  0  0  0
  184.3560  172.6800  137.4120 C   0  0  0  0  0  2  0  0  0  0  0  0
  182.5870  174.8590  138.2750 C   0  0  0  0  0  3  0  0  0  0  0  0
  184.0410  173.7930  136.5400 C   0  0  1  0  0  3  0  0  0  0  0  0
  183.7930  172.3590  136.0030 C   0  0  2  0  0  0  0  0  0  0  0  0
  181.8680  175.3000  134.5940 C   0  0  0  0  0  1  0  0  0  0  0  0
  182.4030  175.5170  135.9340 N   0  0  0  0  0  0  0  0  0  0  0  0
  181.6980  173.3770  136.6590 O   0  0  0  0  0  0  0  0  0  0  0  0
  182.6610  174.3830  136.8410 C   0  0  2  0  0  0  0  0  0  0  0  0
  182.9300  176.0550  138.6190 N   0  0  0  0  0  0  0  0  0  0  0  0
  185.7030  178.0610  138.6080 C   0  0  0  0  0  2  0  0  0  0  0  0
  186.7660  178.7920  138.0710 O   0  0  0  0  0  0  0  0  0  0  0  0
  186.9590  178.2480  136.7990 C   0  0  0  0  0  2  0  0  0  0  0  0
  191.2230  176.7400  137.3780 C   0  0  0  0  0  2  0  0  0  0  0  0
  189.8760  177.4510  137.5870 C   0  0  0  0  0  2  0  0  0  0  0  0
  187.7170  174.6440  136.7460 N   0  0  0  0  0  0  0  0  0  0  0  0
  188.7750  176.5650  137.2230 N   0  0  0  0  0  0  0  0  0  0  0  0
  190.0790  174.5490  137.4110 N   0  0  0  0  0  2  0  0  0  0  0  0
  187.5120  176.8580  136.8870 C   0  0  0  0  0  0  0  0  0  0  0  0
  188.8560  175.2340  137.1550 C   0  0  0  0  0  0  0  0  0  0  0  0
  186.8540  175.6740  136.5770 C   0  0  0  0  0  3  0  0  0  0  0  0
  191.2000  175.3140  137.9570 C   0  0  1  0  0  3  0  0  0  0  0  0
  193.5780  175.4770  137.7760 O   0  0  0  0  0  1  0  0  0  0  0  0
  192.5000  174.5950  137.6490 C   0  0  0  0  0  2  0  0  0  0  0  0
  1 43  1  1  0  0  0
  3  9  1  0  0  0  0
  4  2  2  0  0  0  0
  4  7  1  0  0  0  0
  6  1  1  6  0  0  0
  6  8  1  0  0  0  0
  6  3  1  0  0  0  0
  7 10  1  0  0  0  0
  7  5  2  0  0  0  0
  8  4  1  0  0  0  0
  9 10  1  0  0  0  0
 10 11  1  1  0  0  0
 12 11  1  0  0  0  0
 12 13  1  0  0  0  0
 13 15  1  0  0  0  0
 13 14  1  1  0  0  0
 15 17  1  0  0  0  0
 15 16  1  0  0  0  0
 18 15  1  0  0  0  0
 20 21  2  0  0  0  0
 21 18  1  0  0  0  0
 21 19  2  0  0  0  0
 22 25  1  0  0  0  0
 23 22  1  0  0  0  0
 24 23  1  0  0  0  0
 24 26  1  0  0  0  0
 25 21  1  1  0  0  0
 26 25  1  0  0  0  0
 27  1  1  0  0  0  0
 28 27  1  1  0  0  0
 28 42  1  0  0  0  0
 29 33  1  0  0  0  0
 30 28  1  0  0  0  0
 31 30  2  0  0  0  0
 32 37  1  0  0  0  0
 32 29  1  1  0  0  0
 32 40  1  0  0  0  0
 35 42  2  0  0  0  0
 36 41  1  0  0  0  0
 36 34  1  1  0  0  0
 37 33  1  6  0  0  0
 37 36  1  0  0  0  0
 37 34  1  0  0  0  0
 38 39  1  0  0  0  0
 39 30  1  0  0  0  0
 39 41  1  0  0  0  0
 40 41  1  0  0  0  0
 41 35  1  1  0  0  0
 44 43  1  0  0  0  0
 45 51  1  0  0  0  0
 45 44  1  0  0  0  0
 46 47  1  0  0  0  0
 46 54  1  0  0  0  0
 48 52  2  0  0  0  0
 49 47  1  0  0  0  0
 50 54  1  0  0  0  0
 51 49  1  0  0  0  0
 52 49  1  0  0  0  0
 52 50  1  0  0  0  0
 53 48  1  0  0  0  0
 53 51  2  0  0  0  0
 54 56  1  6  0  0  0
 56 55  1  0  0  0  0
M  END
>  <MODEL>
1

>  <REMARK>
 VINA RESULT:      -8.2      0.000      0.000
  Name = 
  15 active torsions:
  status: ('A' for Active; 'I' for Inactive)
    1  A    between atoms: C_2  and  C_11
    2  A    between atoms: C_2  and  N_25
    3  A    between atoms: N_3  and  C_11
    4  A    between atoms: N_3  and  S_47
    5  A    between atoms: C_5  and  S_19
    6  A    between atoms: S_19  and  C_35
    7  A    between atoms: C_21  and  C_35
    8  A    between atoms: C_24  and  C_35
    9  A    between atoms: C_24  and  O_52
   10  A    between atoms: N_25  and  C_27
   11  A    between atoms: C_27  and  C_49
   12  A    between atoms: C_28  and  S_47
   13  A    between atoms: C_32  and  CA_53
   14  A    between atoms: C_40  and  C_51
   15  A    between atoms: C_51  and  O_52
                            x       y       z     vdW  Elec       q    Type
                         _______ _______ _______ _____ _____    ______ ____

>  <TORSDO>
F 15

$$$$
=
 OpenBabel10222417153D

 56 63  0  0  1  0  0  0  0  0999 V2000
  189.8360  175.4940  137.0200 C   0  0  2  0  0  3  0  0  0  0  0  0
  187.1020  178.1770  134.5940 O   0  0  0  0  0  0  0  0  0  0  0  0
  187.5420  174.4660  136.9830 C   0  0  0  0  0  2  0  0  0  0  0  0
  186.9570  177.0240  135.0810 C   0  0  0  0  0  0  0  0  0  0  0  0
  184.6830  177.4100  135.5740 O   0  0  0  0  0  0  0  0  0  0  0  0
  188.3640  175.7050  136.6550 C   0  0  2  0  0  3  0  0  0  0  0  0
  185.6210  176.5700  135.5060 C   0  0  0  0  0  0  0  0  0  0  0  0
  188.1580  176.1410  135.2060 C   0  0  0  0  0  2  0  0  0  0  0  0
  186.0750  174.8120  137.2050 C   0  0  0  0  0  2  0  0  0  0  0  0
  185.3850  175.1300  135.8880 C   0  0  1  0  0  3  0  0  0  0  0  0
  183.9030  174.8020  136.0200 C   0  0  0  0  0  2  0  0  0  0  0  0
  183.4650  174.9970  137.3940 N   0  0  0  0  0  2  0  0  0  0  0  0
  182.2020  175.7240  137.3390 C   0  0  1  0  0  3  0  0  0  0  0  0
  181.0510  174.7300  137.2910 C   0  0  0  0  0  1  0  0  0  0  0  0
  182.0690  176.7480  138.4880 C   0  0  0  0  0  0  0  0  0  0  0  0
  181.6480  176.0070  139.7460 C   0  0  0  0  0  1  0  0  0  0  0  0
  180.9670  177.7690  138.1960 C   0  0  0  0  0  1  0  0  0  0  0  0
  183.3910  177.3390  138.7720 N   0  0  0  0  0  2  0  0  0  0  0  0
  182.0370  179.3960  139.7710 O   0  0  0  0  0  0  0  0  0  0  0  0
  184.3890  179.7980  139.2050 O   0  0  0  0  0  0  0  0  0  0  0  0
  183.4110  178.7910  139.7460 S   0  0  0  0  0  0  0  0  0  0  0  0
  185.0010  179.1050  141.8050 O   0  0  0  0  0  0  0  0  0  0  0  0
  184.8340  179.3950  143.1730 C   0  0  0  0  0  2  0  0  0  0  0  0
  183.4700  178.9310  143.6340 C   0  0  0  0  0  2  0  0  0  0  0  0
  183.8770  178.3570  141.4100 C   0  0  1  0  0  3  0  0  0  0  0  0
  182.7490  178.6530  142.3600 C   0  0  0  0  0  2  0  0  0  0  0  0
  190.6400  177.0500  137.5410 S   0  0  0  0  0  0  0  0  0  0  0  0
  190.5460  176.6910  139.3360 C   0  0  2  0  0  3  0  0  0  0  0  0
  191.1470  178.1390  145.4680 C   0  0  0  0  0  2  0  0  0  0  0  0
  189.3420  177.3350  139.9740 C   0  0  0  0  0  0  0  0  0  0  0  0
  188.2440  177.3830  139.3540 O   0  0  0  0  0  0  0  0  0  0  0  0
  190.2500  177.9580  144.2710 C   0  0  2  0  0  3  0  0  0  0  0  0
  191.2500  176.6370  145.5730 C   0  0  0  0  0  2  0  0  0  0  0  0
  191.5800  175.7650  143.5970 C   0  0  0  0  0  2  0  0  0  0  0  0
  191.8500  177.4660  141.2190 C   0  0  0  0  0  3  0  0  0  0  0  0
  190.4300  176.1490  142.8030 C   0  0  1  0  0  3  0  0  0  0  0  0
  190.3870  176.4340  144.3270 C   0  0  2  0  0  0  0  0  0  0  0  0
  188.2790  178.4680  141.9280 C   0  0  0  0  0  1  0  0  0  0  0  0
  189.4420  177.8320  141.3170 N   0  0  0  0  0  0  0  0  0  0  0  0
  190.8470  178.4740  143.1100 O   0  0  0  0  0  0  0  0  0  0  0  0
  190.6340  177.5020  142.1180 C   0  0  2  0  0  0  0  0  0  0  0  0
  191.7790  177.1000  139.9840 N   0  0  0  0  0  0  0  0  0  0  0  0
  190.6490  174.7450  135.9670 C   0  0  0  0  0  2  0  0  0  0  0  0
  191.9210  175.3030  135.8170 O   0  0  0  0  0  0  0  0  0  0  0  0
  192.7890  174.2090  135.8330 C   0  0  0  0  0  2  0  0  0  0  0  0
  196.1680  174.2030  138.8960 C   0  0  0  0  0  2  0  0  0  0  0  0
  195.0380  173.7520  137.9540 C   0  0  0  0  0  2  0  0  0  0  0  0
  196.0870  175.6300  135.0160 N   0  0  0  0  0  0  0  0  0  0  0  0
  195.1460  174.4410  136.6720 N   0  0  0  0  0  0  0  0  0  0  0  0
  197.4650  175.0250  136.9580 N   0  0  0  0  0  2  0  0  0  0  0  0
  194.2160  174.6540  135.7310 C   0  0  0  0  0  0  0  0  0  0  0  0
  196.2570  175.0130  136.2020 C   0  0  0  0  0  0  0  0  0  0  0  0
  194.7880  175.4020  134.7090 C   0  0  0  0  0  3  0  0  0  0  0  0
  197.5280  174.2150  138.1740 C   0  0  1  0  0  3  0  0  0  0  0  0
  198.4230  176.1310  139.2870 O   0  0  0  0  0  1  0  0  0  0  0  0
  198.6090  174.7600  139.0890 C   0  0  0  0  0  2  0  0  0  0  0  0
  1 43  1  6  0  0  0
  1 27  1  0  0  0  0
  2  4  2  0  0  0  0
  3  9  1  0  0  0  0
  4  8  1  0  0  0  0
  4  7  1  0  0  0  0
  6  3  1  0  0  0  0
  6  1  1  6  0  0  0
  7  5  2  0  0  0  0
  7 10  1  0  0  0  0
  8  6  1  0  0  0  0
 10 11  1  1  0  0  0
 10  9  1  0  0  0  0
 11 12  1  0  0  0  0
 13 14  1  1  0  0  0
 13 12  1  0  0  0  0
 13 15  1  0  0  0  0
 15 18  1  0  0  0  0
 15 16  1  0  0  0  0
 17 15  1  0  0  0  0
 18 21  1  0  0  0  0
 20 21  2  0  0  0  0
 21 19  2  0  0  0  0
 22 23  1  0  0  0  0
 23 24  1  0  0  0  0
 25 21  1  6  0  0  0
 25 22  1  0  0  0  0
 25 26  1  0  0  0  0
 26 24  1  0  0  0  0
 28 27  1  6  0  0  0
 28 30  1  0  0  0  0
 28 42  1  0  0  0  0
 29 33  1  0  0  0  0
 30 39  1  0  0  0  0
 31 30  2  0  0  0  0
 32 37  1  0  0  0  0
 32 29  1  1  0  0  0
 36 34  1  1  0  0  0
 36 37  1  0  0  0  0
 37 34  1  6  0  0  0
 37 33  1  0  0  0  0
 39 38  1  0  0  0  0
 39 41  1  0  0  0  0
 40 32  1  0  0  0  0
 41 35  1  6  0  0  0
 41 36  1  0  0  0  0
 41 40  1  0  0  0  0
 42 35  2  0  0  0  0
 44 45  1  0  0  0  0
 44 43  1  0  0  0  0
 47 46  1  0  0  0  0
 48 52  2  0  0  0  0
 49 47  1  0  0  0  0
 50 54  1  0  0  0  0
 51 45  1  0  0  0  0
 51 49  1  0  0  0  0
 52 49  1  0  0  0  0
 52 50  1  0  0  0  0
 53 48  1  0  0  0  0
 53 51  2  0  0  0  0
 54 46  1  0  0  0  0
 54 56  1  1  0  0  0
 56 55  1  0  0  0  0
M  END
>  <MODEL>
2

>  <REMARK>
 VINA RESULT:      -7.4      3.020      8.936
  Name = 
  15 active torsions:
  status: ('A' for Active; 'I' for Inactive)
    1  A    between atoms: C_2  and  C_11
    2  A    between atoms: C_2  and  N_25
    3  A    between atoms: N_3  and  C_11
    4  A    between atoms: N_3  and  S_47
    5  A    between atoms: C_5  and  S_19
    6  A    between atoms: S_19  and  C_35
    7  A    between atoms: C_21  and  C_35
    8  A    between atoms: C_24  and  C_35
    9  A    between atoms: C_24  and  O_52
   10  A    between atoms: N_25  and  C_27
   11  A    between atoms: C_27  and  C_49
   12  A    between atoms: C_28  and  S_47
   13  A    between atoms: C_32  and  CA_53
   14  A    between atoms: C_40  and  C_51
   15  A    between atoms: C_51  and  O_52
                            x       y       z     vdW  Elec       q    Type
                         _______ _______ _______ _____ _____    ______ ____

>  <TORSDO>
F 15

$$$$
=
 OpenBabel10222417153D

 56 63  0  0  1  0  0  0  0  0999 V2000
  184.4590  177.7910  138.3850 C   0  0  2  0  0  3  0  0  0  0  0  0
  181.6850  178.7050  134.9160 O   0  0  0  0  0  0  0  0  0  0  0  0
  182.9870  175.7900  137.9970 C   0  0  0  0  0  2  0  0  0  0  0  0
  181.9280  177.6510  135.5640 C   0  0  0  0  0  0  0  0  0  0  0  0
  179.6870  176.9290  135.4200 O   0  0  0  0  0  0  0  0  0  0  0  0
  183.2310  177.2520  137.6460 C   0  0  2  0  0  3  0  0  0  0  0  0
  180.8720  176.6370  135.7370 C   0  0  0  0  0  0  0  0  0  0  0  0
  183.2960  177.4580  136.1350 C   0  0  0  0  0  2  0  0  0  0  0  0
  181.5270  175.4050  137.7950 C   0  0  0  0  0  2  0  0  0  0  0  0
  181.1950  175.2820  136.3150 C   0  0  1  0  0  3  0  0  0  0  0  0
  180.0490  174.2940  136.1510 C   0  0  0  0  0  2  0  0  0  0  0  0
  180.5140  173.0900  135.4780 N   0  0  0  0  0  2  0  0  0  0  0  0
  181.3910  172.3930  136.4120 C   0  0  1  0  0  3  0  0  0  0  0  0
  180.5620  171.8330  137.5580 C   0  0  0  0  0  1  0  0  0  0  0  0
  182.2540  171.3200  135.7090 C   0  0  0  0  0  0  0  0  0  0  0  0
  181.3270  170.3350  135.0180 C   0  0  0  0  0  1  0  0  0  0  0  0
  183.0680  170.5130  136.7230 C   0  0  0  0  0  1  0  0  0  0  0  0
  183.0570  171.9560  134.6470 N   0  0  0  0  0  2  0  0  0  0  0  0
  184.3100  173.1540  136.6630 O   0  0  0  0  0  0  0  0  0  0  0  0
  184.0390  174.4590  134.6040 O   0  0  0  0  0  0  0  0  0  0  0  0
  184.2890  173.0850  135.1630 S   0  0  0  0  0  0  0  0  0  0  0  0
  186.8130  173.5460  134.6360 O   0  0  0  0  0  0  0  0  0  0  0  0
  188.0440  172.9700  135.0080 C   0  0  0  0  0  2  0  0  0  0  0  0
  187.8430  171.5120  135.3600 C   0  0  0  0  0  2  0  0  0  0  0  0
  185.8730  172.5010  134.5940 C   0  0  1  0  0  3  0  0  0  0  0  0
  186.3620  171.3840  135.4750 C   0  0  0  0  0  2  0  0  0  0  0  0
  184.0890  179.3330  139.2930 S   0  0  0  0  0  0  0  0  0  0  0  0
  184.6360  178.6980  140.9240 C   0  0  2  0  0  3  0  0  0  0  0  0
  186.0410  179.2610  147.0690 C   0  0  0  0  0  2  0  0  0  0  0  0
  183.4800  178.5240  141.8740 C   0  0  0  0  0  0  0  0  0  0  0  0
  182.3690  178.1000  141.4520 O   0  0  0  0  0  0  0  0  0  0  0  0
  185.0600  178.8390  146.0080 C   0  0  2  0  0  3  0  0  0  0  0  0
  186.8560  178.0300  146.7560 C   0  0  0  0  0  2  0  0  0  0  0  0
  187.0350  177.7740  144.5940 C   0  0  0  0  0  2  0  0  0  0  0  0
  185.8620  179.7240  142.7380 C   0  0  0  0  0  3  0  0  0  0  0  0
  185.6800  177.6340  144.1030 C   0  0  1  0  0  3  0  0  0  0  0  0
  185.9000  177.6130  145.6380 C   0  0  2  0  0  0  0  0  0  0  0  0
  182.5520  178.6280  144.1890 C   0  0  0  0  0  1  0  0  0  0  0  0
  183.6770  178.7830  143.2720 N   0  0  0  0  0  0  0  0  0  0  0  0
  185.0270  179.7620  144.9510 O   0  0  0  0  0  0  0  0  0  0  0  0
  185.0460  178.9900  143.7790 C   0  0  2  0  0  0  0  0  0  0  0  0
  185.6560  179.5730  141.4740 N   0  0  0  0  0  0  0  0  0  0  0  0
  185.7140  177.9120  137.5220 C   0  0  0  0  0  2  0  0  0  0  0  0
  186.7140  178.6320  138.1810 O   0  0  0  0  0  0  0  0  0  0  0  0
  187.8070  178.5880  137.3130 C   0  0  0  0  0  2  0  0  0  0  0  0
  189.2830  178.0420  141.5940 C   0  0  0  0  0  2  0  0  0  0  0  0
  188.3930  178.0740  140.3390 C   0  0  0  0  0  2  0  0  0  0  0  0
  190.7300  176.4710  138.0540 N   0  0  0  0  0  0  0  0  0  0  0  0
  189.1250  177.5570  139.1880 N   0  0  0  0  0  0  0  0  0  0  0  0
  190.7650  176.3870  140.5080 N   0  0  0  0  0  2  0  0  0  0  0  0
  188.9090  177.7430  137.8790 C   0  0  0  0  0  0  0  0  0  0  0  0
  190.2030  176.7730  139.2570 C   0  0  0  0  0  0  0  0  0  0  0  0
  189.9060  177.0850  137.1700 C   0  0  0  0  0  3  0  0  0  0  0  0
  190.0160  176.6950  141.7270 C   0  0  1  0  0  3  0  0  0  0  0  0
  191.3900  178.0320  143.1540 O   0  0  0  0  0  1  0  0  0  0  0  0
  190.9650  176.7220  142.9100 C   0  0  0  0  0  2  0  0  0  0  0  0
  1 43  1  6  0  0  0
  1 27  1  0  0  0  0
  2  4  2  0  0  0  0
  4  7  1  0  0  0  0
  4  8  1  0  0  0  0
  5  7  2  0  0  0  0
  6  3  1  0  0  0  0
  6  1  1  1  0  0  0
  7 10  1  0  0  0  0
  8  6  1  0  0  0  0
  9  3  1  0  0  0  0
 10 11  1  1  0  0  0
 10  9  1  0  0  0  0
 12 11  1  0  0  0  0
 12 13  1  0  0  0  0
 13 14  1  1  0  0  0
 15 13  1  0  0  0  0
 15 17  1  0  0  0  0
 16 15  1  0  0  0  0
 18 21  1  0  0  0  0
 18 15  1  0  0  0  0
 20 21  2  0  0  0  0
 21 19  2  0  0  0  0
 22 23  1  0  0  0  0
 23 24  1  0  0  0  0
 24 26  1  0  0  0  0
 25 22  1  0  0  0  0
 25 21  1  1  0  0  0
 25 26  1  0  0  0  0
 28 27  1  6  0  0  0
 28 42  1  0  0  0  0
 28 30  1  0  0  0  0
 30 39  1  0  0  0  0
 31 30  2  0  0  0  0
 32 29  1  1  0  0  0
 33 29  1  0  0  0  0
 36 34  1  6  0  0  0
 36 37  1  0  0  0  0
 37 34  1  6  0  0  0
 37 32  1  0  0  0  0
 37 33  1  0  0  0  0
 39 41  1  0  0  0  0
 39 38  1  0  0  0  0
 40 32  1  0  0  0  0
 41 35  1  6  0  0  0
 41 36  1  0  0  0  0
 41 40  1  0  0  0  0
 42 35  2  0  0  0  0
 43 44  1  0  0  0  0
 45 51  1  0  0  0  0
 45 44  1  0  0  0  0
 46 54  1  0  0  0  0
 47 46  1  0  0  0  0
 48 52  2  0  0  0  0
 49 52  1  0  0  0  0
 49 47  1  0  0  0  0
 50 54  1  0  0  0  0
 51 49  1  0  0  0  0
 52 50  1  0  0  0  0
 53 51  2  0  0  0  0
 53 48  1  0  0  0  0
 54 56  1  1  0  0  0
 56 55  1  0  0  0  0
M  END
>  <MODEL>
3

>  <REMARK>
 VINA RESULT:      -7.3      2.501      8.878
  Name = 
  15 active torsions:
  status: ('A' for Active; 'I' for Inactive)
    1  A    between atoms: C_2  and  C_11
    2  A    between atoms: C_2  and  N_25
    3  A    between atoms: N_3  and  C_11
    4  A    between atoms: N_3  and  S_47
    5  A    between atoms: C_5  and  S_19
    6  A    between atoms: S_19  and  C_35
    7  A    between atoms: C_21  and  C_35
    8  A    between atoms: C_24  and  C_35
    9  A    between atoms: C_24  and  O_52
   10  A    between atoms: N_25  and  C_27
   11  A    between atoms: C_27  and  C_49
   12  A    between atoms: C_28  and  S_47
   13  A    between atoms: C_32  and  CA_53
   14  A    between atoms: C_40  and  C_51
   15  A    between atoms: C_51  and  O_52
                            x       y       z     vdW  Elec       q    Type
                         _______ _______ _______ _____ _____    ______ ____

>  <TORSDO>
F 15

$$$$
=
 OpenBabel10222417153D

 56 63  0  0  1  0  0  0  0  0999 V2000
  190.2640  175.9750  137.1210 C   0  0  2  0  0  3  0  0  0  0  0  0
  187.3220  179.4240  137.0530 O   0  0  0  0  0  0  0  0  0  0  0  0
  188.0150  175.0870  136.4310 C   0  0  0  0  0  2  0  0  0  0  0  0
  187.2460  178.2270  136.6680 C   0  0  0  0  0  0  0  0  0  0  0  0
  184.9800  178.0630  137.3050 O   0  0  0  0  0  0  0  0  0  0  0  0
  188.7700  176.2860  136.9890 C   0  0  2  0  0  3  0  0  0  0  0  0
  185.9480  177.5280  136.6990 C   0  0  0  0  0  0  0  0  0  0  0  0
  188.4860  177.5490  136.1790 C   0  0  0  0  0  2  0  0  0  0  0  0
  186.5460  175.1180  136.8330 C   0  0  0  0  0  2  0  0  0  0  0  0
  185.7880  176.1770  136.0480 C   0  0  1  0  0  3  0  0  0  0  0  0
  184.3280  175.7560  135.9400 C   0  0  0  0  0  2  0  0  0  0  0  0
  183.8490  175.2660  137.2240 N   0  0  0  0  0  2  0  0  0  0  0  0
  182.3920  175.2750  137.1660 C   0  0  1  0  0  3  0  0  0  0  0  0
  181.8800  173.8430  137.1990 C   0  0  0  0  0  1  0  0  0  0  0  0
  181.7710  176.1650  138.2650 C   0  0  0  0  0  0  0  0  0  0  0  0
  180.6380  175.3960  138.9230 C   0  0  0  0  0  1  0  0  0  0  0  0
  181.1490  177.4300  137.6690 C   0  0  0  0  0  1  0  0  0  0  0  0
  182.7750  176.4150  139.3180 N   0  0  0  0  0  2  0  0  0  0  0  0
  181.2740  177.8420  140.9830 O   0  0  0  0  0  0  0  0  0  0  0  0
  182.6330  179.0990  139.3750 O   0  0  0  0  0  0  0  0  0  0  0  0
  182.5860  177.8790  140.2540 S   0  0  0  0  0  0  0  0  0  0  0  0
  184.9700  178.7260  140.9330 O   0  0  0  0  0  0  0  0  0  0  0  0
  185.5150  179.4470  142.0140 C   0  0  0  0  0  2  0  0  0  0  0  0
  184.6620  179.2470  143.2480 C   0  0  0  0  0  2  0  0  0  0  0  0
  183.9040  177.9670  141.4490 C   0  0  1  0  0  3  0  0  0  0  0  0
  183.4170  178.6260  142.7120 C   0  0  0  0  0  2  0  0  0  0  0  0
  190.5730  174.1850  137.3240 S   0  0  0  0  0  0  0  0  0  0  0  0
  192.2830  174.2380  136.6640 C   0  0  2  0  0  3  0  0  0  0  0  0
  198.3860  172.5680  136.5340 C   0  0  0  0  0  2  0  0  0  0  0  0
  192.6060  173.0160  135.8440 C   0  0  0  0  0  0  0  0  0  0  0  0
  191.7300  172.5070  135.0910 O   0  0  0  0  0  0  0  0  0  0  0  0
  197.0010  172.4230  135.9620 C   0  0  2  0  0  3  0  0  0  0  0  0
  198.4960  173.9030  135.8370 C   0  0  0  0  0  2  0  0  0  0  0  0
  196.6550  175.0480  136.1110 C   0  0  0  0  0  2  0  0  0  0  0  0
  194.4420  173.9920  137.7250 C   0  0  0  0  0  3  0  0  0  0  0  0
  195.6030  174.2440  135.5230 C   0  0  1  0  0  3  0  0  0  0  0  0
  197.0710  173.7990  135.2920 C   0  0  2  0  0  0  0  0  0  0  0  0
  194.2430  171.2870  135.0970 C   0  0  0  0  0  1  0  0  0  0  0  0
  193.9370  172.4800  135.8810 N   0  0  0  0  0  0  0  0  0  0  0  0
  196.0320  172.4070  136.9780 O   0  0  0  0  0  0  0  0  0  0  0  0
  195.0080  173.2570  136.5300 C   0  0  2  0  0  0  0  0  0  0  0  0
  193.2240  174.4170  137.7550 N   0  0  0  0  0  0  0  0  0  0  0  0
  190.9960  176.8130  138.1670 C   0  0  0  0  0  2  0  0  0  0  0  0
  190.1380  177.1940  139.2020 O   0  0  0  0  0  0  0  0  0  0  0  0
  190.7710  176.7470  140.3640 C   0  0  0  0  0  2  0  0  0  0  0  0
  191.6600  176.2680  144.8110 C   0  0  0  0  0  2  0  0  0  0  0  0
  191.7320  176.7030  143.3370 C   0  0  0  0  0  2  0  0  0  0  0  0
  188.2050  177.4920  142.9000 N   0  0  0  0  0  0  0  0  0  0  0  0
  190.3950  177.0050  142.8350 N   0  0  0  0  0  0  0  0  0  0  0  0
  189.4330  177.3200  145.0200 N   0  0  0  0  0  2  0  0  0  0  0  0
  189.9400  177.0440  141.5760 C   0  0  0  0  0  0  0  0  0  0  0  0
  189.3410  177.3030  143.5980 C   0  0  0  0  0  0  0  0  0  0  0  0
  188.5810  177.3310  141.6080 C   0  0  0  0  0  3  0  0  0  0  0  0
  190.7580  177.2100  145.6290 C   0  0  1  0  0  3  0  0  0  0  0  0
  191.7850  176.9780  147.7750 O   0  0  0  0  0  1  0  0  0  0  0  0
  190.6190  176.7050  147.0540 C   0  0  0  0  0  2  0  0  0  0  0  0
  1 27  1  0  0  0  0
  1 43  1  1  0  0  0
  3  9  1  0  0  0  0
  3  6  1  0  0  0  0
  4  7  1  0  0  0  0
  4  2  2  0  0  0  0
  6  1  1  6  0  0  0
  7  5  2  0  0  0  0
  8  4  1  0  0  0  0
  8  6  1  0  0  0  0
 10 11  1  1  0  0  0
 10  7  1  0  0  0  0
 10  9  1  0  0  0  0
 11 12  1  0  0  0  0
 13 14  1  1  0  0  0
 13 12  1  0  0  0  0
 13 15  1  0  0  0  0
 15 16  1  0  0  0  0
 15 18  1  0  0  0  0
 17 15  1  0  0  0  0
 18 21  1  0  0  0  0
 20 21  2  0  0  0  0
 21 19  2  0  0  0  0
 22 25  1  0  0  0  0
 22 23  1  0  0  0  0
 23 24  1  0  0  0  0
 25 21  1  6  0  0  0
 25 26  1  0  0  0  0
 26 24  1  0  0  0  0
 28 27  1  1  0  0  0
 28 42  1  0  0  0  0
 30 39  1  0  0  0  0
 30 28  1  0  0  0  0
 31 30  2  0  0  0  0
 32 29  1  1  0  0  0
 32 40  1  0  0  0  0
 33 29  1  0  0  0  0
 35 42  2  0  0  0  0
 36 34  1  1  0  0  0
 36 41  1  0  0  0  0
 37 36  1  0  0  0  0
 37 33  1  6  0  0  0
 37 32  1  0  0  0  0
 37 34  1  0  0  0  0
 38 39  1  0  0  0  0
 39 41  1  0  0  0  0
 41 40  1  0  0  0  0
 41 35  1  1  0  0  0
 43 44  1  0  0  0  0
 44 45  1  0  0  0  0
 45 51  1  0  0  0  0
 46 54  1  0  0  0  0
 47 46  1  0  0  0  0
 48 52  2  0  0  0  0
 49 47  1  0  0  0  0
 49 52  1  0  0  0  0
 50 54  1  0  0  0  0
 51 53  2  0  0  0  0
 51 49  1  0  0  0  0
 52 50  1  0  0  0  0
 53 48  1  0  0  0  0
 54 56  1  1  0  0  0
 56 55  1  0  0  0  0
M  END
>  <MODEL>
4

>  <REMARK>
 VINA RESULT:      -7.0      2.896      9.621
  Name = 
  15 active torsions:
  status: ('A' for Active; 'I' for Inactive)
    1  A    between atoms: C_2  and  C_11
    2  A    between atoms: C_2  and  N_25
    3  A    between atoms: N_3  and  C_11
    4  A    between atoms: N_3  and  S_47
    5  A    between atoms: C_5  and  S_19
    6  A    between atoms: S_19  and  C_35
    7  A    between atoms: C_21  and  C_35
    8  A    between atoms: C_24  and  C_35
    9  A    between atoms: C_24  and  O_52
   10  A    between atoms: N_25  and  C_27
   11  A    between atoms: C_27  and  C_49
   12  A    between atoms: C_28  and  S_47
   13  A    between atoms: C_32  and  CA_53
   14  A    between atoms: C_40  and  C_51
   15  A    between atoms: C_51  and  O_52
                            x       y       z     vdW  Elec       q    Type
                         _______ _______ _______ _____ _____    ______ ____

>  <TORSDO>
F 15

$$$$
=
 OpenBabel10222417153D

 56 63  0  0  1  0  0  0  0  0999 V2000
  184.0710  177.6660  138.6630 C   0  0  2  0  0  3  0  0  0  0  0  0
  180.8060  179.0410  135.8330 O   0  0  0  0  0  0  0  0  0  0  0  0
  182.6880  175.6680  138.0160 C   0  0  0  0  0  2  0  0  0  0  0  0
  181.1980  177.9000  136.1970 C   0  0  0  0  0  0  0  0  0  0  0  0
  179.0080  177.0250  136.1600 O   0  0  0  0  0  0  0  0  0  0  0  0
  182.7910  177.1870  137.9720 C   0  0  2  0  0  3  0  0  0  0  0  0
  180.2410  176.7810  136.2630 C   0  0  0  0  0  0  0  0  0  0  0  0
  182.6400  177.7140  136.5470 C   0  0  0  0  0  2  0  0  0  0  0  0
  181.2410  175.2050  137.9060 C   0  0  0  0  0  2  0  0  0  0  0  0
  180.7230  175.3700  136.4850 C   0  0  1  0  0  3  0  0  0  0  0  0
  179.6290  174.3390  136.2400 C   0  0  0  0  0  2  0  0  0  0  0  0
  180.1630  173.2020  135.5040 N   0  0  0  0  0  2  0  0  0  0  0  0
  180.9820  172.4380  136.4360 C   0  0  1  0  0  3  0  0  0  0  0  0
  180.0860  171.5330  137.2680 C   0  0  0  0  0  1  0  0  0  0  0  0
  182.1170  171.6720  135.7200 C   0  0  0  0  0  0  0  0  0  0  0  0
  181.5090  170.8550  134.5940 C   0  0  0  0  0  1  0  0  0  0  0  0
  182.7940  170.6750  136.6640 C   0  0  0  0  0  1  0  0  0  0  0  0
  183.0380  172.6380  135.0890 N   0  0  0  0  0  2  0  0  0  0  0  0
  185.2980  171.2570  135.3080 O   0  0  0  0  0  0  0  0  0  0  0  0
  184.8110  172.8620  137.0980 O   0  0  0  0  0  0  0  0  0  0  0  0
  184.7030  172.6000  135.6200 S   0  0  0  0  0  0  0  0  0  0  0  0
  184.8270  175.0080  134.5960 O   0  0  0  0  0  0  0  0  0  0  0  0
  185.7010  176.1070  134.7050 C   0  0  0  0  0  2  0  0  0  0  0  0
  187.0870  175.6270  135.0760 C   0  0  0  0  0  2  0  0  0  0  0  0
  185.6130  173.8500  134.7360 C   0  0  1  0  0  3  0  0  0  0  0  0
  186.8650  174.2120  135.4880 C   0  0  0  0  0  2  0  0  0  0  0  0
  183.8120  179.2260  139.5780 S   0  0  0  0  0  0  0  0  0  0  0  0
  184.4570  178.5910  141.1720 C   0  0  2  0  0  3  0  0  0  0  0  0
  186.4330  179.1890  147.1550 C   0  0  0  0  0  2  0  0  0  0  0  0
  183.3800  178.5170  142.2230 C   0  0  0  0  0  0  0  0  0  0  0  0
  182.2110  178.1600  141.9110 O   0  0  0  0  0  0  0  0  0  0  0  0
  185.3360  178.8110  146.1950 C   0  0  2  0  0  3  0  0  0  0  0  0
  187.1330  177.8980  146.8070 C   0  0  0  0  0  2  0  0  0  0  0  0
  187.1040  177.5840  144.6450 C   0  0  0  0  0  2  0  0  0  0  0  0
  185.9040  179.5690  142.8450 C   0  0  0  0  0  3  0  0  0  0  0  0
  185.7040  177.5270  144.2770 C   0  0  1  0  0  3  0  0  0  0  0  0
  186.0570  177.5230  145.7870 C   0  0  2  0  0  0  0  0  0  0  0  0
  182.6700  178.7340  144.6060 C   0  0  0  0  0  1  0  0  0  0  0  0
  183.7170  178.7920  143.5910 N   0  0  0  0  0  0  0  0  0  0  0  0
  185.2710  179.7120  145.1200 O   0  0  0  0  0  0  0  0  0  0  0  0
  185.1350  178.9150  143.9720 C   0  0  2  0  0  0  0  0  0  0  0  0
  185.5770  179.4060  141.6080 N   0  0  0  0  0  0  0  0  0  0  0  0
  185.2970  177.7230  137.7550 C   0  0  0  0  0  2  0  0  0  0  0  0
  186.2190  178.6710  138.2060 O   0  0  0  0  0  0  0  0  0  0  0  0
  187.3860  178.3950  137.4900 C   0  0  0  0  0  2  0  0  0  0  0  0
  191.1960  176.0430  136.6230 C   0  0  0  0  0  2  0  0  0  0  0  0
  190.1110  177.1340  136.6240 C   0  0  0  0  0  2  0  0  0  0  0  0
  189.5940  177.2920  140.2240 N   0  0  0  0  0  0  0  0  0  0  0  0
  189.6210  177.3570  137.9800 N   0  0  0  0  0  0  0  0  0  0  0  0
  191.5490  176.3850  139.0460 N   0  0  0  0  0  2  0  0  0  0  0  0
  188.4690  177.8980  138.3980 C   0  0  0  0  0  0  0  0  0  0  0  0
  190.2800  177.0300  139.0940 C   0  0  0  0  0  0  0  0  0  0  0  0
  188.4390  177.8490  139.7870 C   0  0  0  0  0  3  0  0  0  0  0  0
  192.2190  176.2710  137.7510 C   0  0  1  0  0  3  0  0  0  0  0  0
  194.5190  175.6280  137.6640 O   0  0  0  0  0  1  0  0  0  0  0  0
  193.2200  175.1310  137.7970 C   0  0  0  0  0  2  0  0  0  0  0  0
  1 43  1  6  0  0  0
  1 27  1  0  0  0  0
  2  4  2  0  0  0  0
  4  7  1  0  0  0  0
  4  8  1  0  0  0  0
  5  7  2  0  0  0  0
  6  3  1  0  0  0  0
  6  1  1  6  0  0  0
  7 10  1  0  0  0  0
  8  6  1  0  0  0  0
  9  3  1  0  0  0  0
 10 11  1  1  0  0  0
 10  9  1  0  0  0  0
 12 11  1  0  0  0  0
 12 13  1  0  0  0  0
 13 14  1  6  0  0  0
 15 13  1  0  0  0  0
 15 17  1  0  0  0  0
 16 15  1  0  0  0  0
 18 21  1  0  0  0  0
 18 15  1  0  0  0  0
 19 21  2  0  0  0  0
 21 20  2  0  0  0  0
 22 23  1  0  0  0  0
 22 25  1  0  0  0  0
 23 24  1  0  0  0  0
 24 26  1  0  0  0  0
 25 26  1  0  0  0  0
 25 21  1  1  0  0  0
 28 27  1  6  0  0  0
 28 42  1  0  0  0  0
 28 30  1  0  0  0  0
 30 39  1  0  0  0  0
 31 30  2  0  0  0  0
 32 29  1  1  0  0  0
 33 29  1  0  0  0  0
 36 34  1  6  0  0  0
 36 37  1  0  0  0  0
 37 34  1  6  0  0  0
 37 32  1  0  0  0  0
 37 33  1  0  0  0  0
 39 41  1  0  0  0  0
 39 38  1  0  0  0  0
 40 32  1  0  0  0  0
 41 35  1  6  0  0  0
 41 36  1  0  0  0  0
 41 40  1  0  0  0  0
 42 35  2  0  0  0  0
 43 44  1  0  0  0  0
 45 44  1  0  0  0  0
 45 51  1  0  0  0  0
 46 47  1  0  0  0  0
 46 54  1  0  0  0  0
 47 49  1  0  0  0  0
 49 51  1  0  0  0  0
 49 52  1  0  0  0  0
 50 52  1  0  0  0  0
 51 53  2  0  0  0  0
 52 48  2  0  0  0  0
 53 48  1  0  0  0  0
 54 56  1  1  0  0  0
 54 50  1  0  0  0  0
 55 56  1  0  0  0  0
M  END
>  <MODEL>
5

>  <REMARK>
 VINA RESULT:      -6.8      2.747      8.723
  Name = 
  15 active torsions:
  status: ('A' for Active; 'I' for Inactive)
    1  A    between atoms: C_2  and  C_11
    2  A    between atoms: C_2  and  N_25
    3  A    between atoms: N_3  and  C_11
    4  A    between atoms: N_3  and  S_47
    5  A    between atoms: C_5  and  S_19
    6  A    between atoms: S_19  and  C_35
    7  A    between atoms: C_21  and  C_35
    8  A    between atoms: C_24  and  C_35
    9  A    between atoms: C_24  and  O_52
   10  A    between atoms: N_25  and  C_27
   11  A    between atoms: C_27  and  C_49
   12  A    between atoms: C_28  and  S_47
   13  A    between atoms: C_32  and  CA_53
   14  A    between atoms: C_40  and  C_51
   15  A    between atoms: C_51  and  O_52
                            x       y       z     vdW  Elec       q    Type
                         _______ _______ _______ _____ _____    ______ ____

>  <TORSDO>
F 15

$$$$
=
 OpenBabel10222417153D

 56 63  0  0  1  0  0  0  0  0999 V2000
  189.7760  175.4290  136.8870 C   0  0  2  0  0  3  0  0  0  0  0  0
  186.7660  178.1790  134.9020 O   0  0  0  0  0  0  0  0  0  0  0  0
  187.6650  174.1280  136.4700 C   0  0  0  0  0  2  0  0  0  0  0  0
  186.7780  176.9380  135.1210 C   0  0  0  0  0  0  0  0  0  0  0  0
  184.4540  176.8880  135.5240 O   0  0  0  0  0  0  0  0  0  0  0  0
  188.3040  175.5100  136.4720 C   0  0  2  0  0  3  0  0  0  0  0  0
  185.5090  176.2210  135.3450 C   0  0  0  0  0  0  0  0  0  0  0  0
  188.0910  176.2230  135.1390 C   0  0  0  0  0  2  0  0  0  0  0  0
  186.1560  174.2110  136.6580 C   0  0  0  0  0  2  0  0  0  0  0  0
  185.4760  174.7140  135.3940 C   0  0  1  0  0  3  0  0  0  0  0  0
  184.0570  174.1640  135.3490 C   0  0  0  0  0  2  0  0  0  0  0  0
  183.6160  173.7970  136.6860 N   0  0  0  0  0  2  0  0  0  0  0  0
  182.1590  173.8210  136.6750 C   0  0  1  0  0  3  0  0  0  0  0  0
  181.6300  172.4300  136.9920 C   0  0  0  0  0  1  0  0  0  0  0  0
  181.5870  174.9120  137.6090 C   0  0  0  0  0  0  0  0  0  0  0  0
  182.6800  175.3400  138.5730 C   0  0  0  0  0  1  0  0  0  0  0  0
  180.4420  174.3650  138.4640 C   0  0  0  0  0  1  0  0  0  0  0  0
  181.2390  176.1050  136.8120 N   0  0  0  0  0  2  0  0  0  0  0  0
  180.4250  177.1090  139.1340 O   0  0  0  0  0  0  0  0  0  0  0  0
  179.1200  177.7240  137.1520 O   0  0  0  0  0  0  0  0  0  0  0  0
  180.5020  177.4370  137.6710 S   0  0  0  0  0  0  0  0  0  0  0  0
  180.7070  180.0280  137.3420 O   0  0  0  0  0  0  0  0  0  0  0  0
  181.3870  181.0770  137.9910 C   0  0  0  0  0  2  0  0  0  0  0  0
  182.6220  180.5400  138.6810 C   0  0  0  0  0  2  0  0  0  0  0  0
  181.5180  178.8850  137.4610 C   0  0  1  0  0  3  0  0  0  0  0  0
  182.4210  179.0630  138.6510 C   0  0  0  0  0  2  0  0  0  0  0  0
  190.4170  177.0440  137.4520 S   0  0  0  0  0  0  0  0  0  0  0  0
  190.1370  176.7190  139.2340 C   0  0  2  0  0  3  0  0  0  0  0  0
  190.1130  178.2750  145.3680 C   0  0  0  0  0  2  0  0  0  0  0  0
  188.8770  177.3790  139.7330 C   0  0  0  0  0  0  0  0  0  0  0  0
  187.8490  177.4200  139.0020 O   0  0  0  0  0  0  0  0  0  0  0  0
  189.3430  178.0770  144.0890 C   0  0  2  0  0  3  0  0  0  0  0  0
  190.1960  176.7750  145.5100 C   0  0  0  0  0  2  0  0  0  0  0  0
  190.7220  175.8660  143.5940 C   0  0  0  0  0  2  0  0  0  0  0  0
  191.2450  177.5220  141.2270 C   0  0  0  0  0  3  0  0  0  0  0  0
  189.6620  176.2400  142.6800 C   0  0  1  0  0  3  0  0  0  0  0  0
  189.4640  176.5530  144.1850 C   0  0  2  0  0  0  0  0  0  0  0  0
  187.6270  178.5520  141.5460 C   0  0  0  0  0  1  0  0  0  0  0  0
  188.8420  177.9000  141.0700 N   0  0  0  0  0  0  0  0  0  0  0  0
  190.0590  178.5690  142.9860 O   0  0  0  0  0  0  0  0  0  0  0  0
  189.9440  177.5800  141.9950 C   0  0  2  0  0  0  0  0  0  0  0  0
  191.2990  177.1340  139.9980 N   0  0  0  0  0  0  0  0  0  0  0  0
  190.6890  174.7710  135.8550 C   0  0  0  0  0  2  0  0  0  0  0  0
  191.8610  175.5090  135.6710 O   0  0  0  0  0  0  0  0  0  0  0  0
  192.8720  174.5490  135.5920 C   0  0  0  0  0  2  0  0  0  0  0  0
  196.5090  173.8720  138.2590 C   0  0  0  0  0  2  0  0  0  0  0  0
  195.3510  173.6520  137.2710 C   0  0  0  0  0  2  0  0  0  0  0  0
  195.9010  176.6120  135.2240 N   0  0  0  0  0  0  0  0  0  0  0  0
  195.2590  174.7750  136.3440 N   0  0  0  0  0  0  0  0  0  0  0  0
  197.5170  175.5250  136.7210 N   0  0  0  0  0  2  0  0  0  0  0  0
  194.2260  175.1920  135.6000 C   0  0  0  0  0  0  0  0  0  0  0  0
  196.2500  175.6280  136.0760 C   0  0  0  0  0  0  0  0  0  0  0  0
  194.6110  176.3370  134.9130 C   0  0  0  0  0  3  0  0  0  0  0  0
  197.7840  174.3380  137.5330 C   0  0  1  0  0  3  0  0  0  0  0  0
  198.4970  175.7140  139.3520 O   0  0  0  0  0  1  0  0  0  0  0  0
  198.8810  174.6480  138.5350 C   0  0  0  0  0  2  0  0  0  0  0  0
  1 43  1  6  0  0  0
  1 27  1  0  0  0  0
  2  4  2  0  0  0  0
  3  6  1  0  0  0  0
  3  9  1  0  0  0  0
  4  8  1  0  0  0  0
  4  7  1  0  0  0  0
  6  1  1  6  0  0  0
  7 10  1  0  0  0  0
  7  5  2  0  0  0  0
  8  6  1  0  0  0  0
 10 11  1  1  0  0  0
 10  9  1  0  0  0  0
 11 12  1  0  0  0  0
 13 12  1  0  0  0  0
 13 14  1  1  0  0  0
 13 15  1  0  0  0  0
 15 17  1  0  0  0  0
 15 16  1  0  0  0  0
 18 15  1  0  0  0  0
 18 21  1  0  0  0  0
 20 21  2  0  0  0  0
 21 19  2  0  0  0  0
 22 25  1  0  0  0  0
 22 23  1  0  0  0  0
 23 24  1  0  0  0  0
 25 21  1  1  0  0  0
 25 26  1  0  0  0  0
 26 24  1  0  0  0  0
 28 27  1  6  0  0  0
 28 30  1  0  0  0  0
 28 42  1  0  0  0  0
 29 33  1  0  0  0  0
 30 39  1  0  0  0  0
 31 30  2  0  0  0  0
 32 37  1  0  0  0  0
 32 29  1  1  0  0  0
 36 34  1  1  0  0  0
 36 37  1  0  0  0  0
 37 34  1  6  0  0  0
 37 33  1  0  0  0  0
 39 38  1  0  0  0  0
 39 41  1  0  0  0  0
 40 32  1  0  0  0  0
 41 35  1  6  0  0  0
 41 36  1  0  0  0  0
 41 40  1  0  0  0  0
 42 35  2  0  0  0  0
 44 43  1  0  0  0  0
 45 51  1  0  0  0  0
 45 44  1  0  0  0  0
 47 46  1  0  0  0  0
 48 52  2  0  0  0  0
 49 47  1  0  0  0  0
 50 54  1  0  0  0  0
 51 49  1  0  0  0  0
 52 49  1  0  0  0  0
 52 50  1  0  0  0  0
 53 48  1  0  0  0  0
 53 51  2  0  0  0  0
 54 46  1  0  0  0  0
 54 56  1  1  0  0  0
 56 55  1  0  0  0  0
M  END
>  <MODEL>
6

>  <REMARK>
 VINA RESULT:      -6.7      3.208      9.486
  Name = 
  15 active torsions:
  status: ('A' for Active; 'I' for Inactive)
    1  A    between atoms: C_2  and  C_11
    2  A    between atoms: C_2  and  N_25
    3  A    between atoms: N_3  and  C_11
    4  A    between atoms: N_3  and  S_47
    5  A    between atoms: C_5  and  S_19
    6  A    between atoms: S_19  and  C_35
    7  A    between atoms: C_21  and  C_35
    8  A    between atoms: C_24  and  C_35
    9  A    between atoms: C_24  and  O_52
   10  A    between atoms: N_25  and  C_27
   11  A    between atoms: C_27  and  C_49
   12  A    between atoms: C_28  and  S_47
   13  A    between atoms: C_32  and  CA_53
   14  A    between atoms: C_40  and  C_51
   15  A    between atoms: C_51  and  O_52
                            x       y       z     vdW  Elec       q    Type
                         _______ _______ _______ _____ _____    ______ ____

>  <TORSDO>
F 15

$$$$
=
 OpenBabel10222417153D

 56 63  0  0  1  0  0  0  0  0999 V2000
  186.7350  178.4490  142.4920 C   0  0  2  0  0  3  0  0  0  0  0  0
  182.4590  178.5360  143.9960 O   0  0  0  0  0  0  0  0  0  0  0  0
  185.2250  179.0030  140.5600 C   0  0  0  0  0  2  0  0  0  0  0  0
  182.9880  178.8660  142.9010 C   0  0  0  0  0  0  0  0  0  0  0  0
  181.1220  178.1270  141.6620 O   0  0  0  0  0  0  0  0  0  0  0  0
  185.2860  178.5290  142.0060 C   0  0  2  0  0  3  0  0  0  0  0  0
  182.2180  178.7500  141.6490 C   0  0  0  0  0  0  0  0  0  0  0  0
  184.3930  179.3790  142.9070 C   0  0  0  0  0  2  0  0  0  0  0  0
  183.9470  178.5400  139.8750 C   0  0  0  0  0  2  0  0  0  0  0  0
  182.7470  179.3360  140.3640 C   0  0  1  0  0  3  0  0  0  0  0  0
  181.6950  179.3620  139.2640 C   0  0  0  0  0  2  0  0  0  0  0  0
  182.1680  178.6330  138.0960 N   0  0  0  0  0  2  0  0  0  0  0  0
  181.2390  177.5310  137.8790 C   0  0  1  0  0  3  0  0  0  0  0  0
  179.8580  177.9310  138.3790 C   0  0  0  0  0  1  0  0  0  0  0  0
  181.2340  177.0560  136.4080 C   0  0  0  0  0  0  0  0  0  0  0  0
  182.2570  177.8710  135.6360 C   0  0  0  0  0  1  0  0  0  0  0  0
  179.8790  177.3170  135.7450 C   0  0  0  0  0  1  0  0  0  0  0  0
  181.6840  175.6510  136.3460 N   0  0  0  0  0  2  0  0  0  0  0  0
  182.8150  175.2540  138.7180 O   0  0  0  0  0  0  0  0  0  0  0  0
  184.2360  176.2200  136.9690 O   0  0  0  0  0  0  0  0  0  0  0  0
  183.1250  175.2460  137.2490 S   0  0  0  0  0  0  0  0  0  0  0  0
  184.0040  173.5880  135.4210 O   0  0  0  0  0  0  0  0  0  0  0  0
  185.0960  172.7060  135.3000 C   0  0  0  0  0  2  0  0  0  0  0  0
  185.5490  172.2570  136.6720 C   0  0  0  0  0  2  0  0  0  0  0  0
  183.6500  173.6090  136.7830 C   0  0  1  0  0  3  0  0  0  0  0  0
  184.8490  173.1970  137.5930 C   0  0  0  0  0  2  0  0  0  0  0  0
  187.8740  179.3780  141.4050 S   0  0  0  0  0  0  0  0  0  0  0  0
  188.0850  178.0210  140.1910 C   0  0  2  0  0  3  0  0  0  0  0  0
  189.9190  175.5820  134.6460 C   0  0  0  0  0  2  0  0  0  0  0  0
  189.5120  177.5390  140.1320 C   0  0  0  0  0  0  0  0  0  0  0  0
  190.1990  177.4590  141.1870 O   0  0  0  0  0  0  0  0  0  0  0  0
  190.1870  175.7830  136.1140 C   0  0  2  0  0  3  0  0  0  0  0  0
  188.8700  174.5600  135.0140 C   0  0  0  0  0  2  0  0  0  0  0  0
  187.6350  175.3060  136.6540 C   0  0  0  0  0  2  0  0  0  0  0  0
  188.0640  177.9860  137.7730 C   0  0  0  0  0  3  0  0  0  0  0  0
  188.5450  175.5310  137.7580 C   0  0  1  0  0  3  0  0  0  0  0  0
  189.0900  174.7900  136.5100 C   0  0  2  0  0  0  0  0  0  0  0  0
  191.4410  176.6590  138.8160 C   0  0  0  0  0  1  0  0  0  0  0  0
  190.0550  177.1110  138.8740 N   0  0  0  0  0  0  0  0  0  0  0  0
  189.8540  177.0860  136.5160 O   0  0  0  0  0  0  0  0  0  0  0  0
  189.1520  176.9360  137.7220 C   0  0  2  0  0  0  0  0  0  0  0  0
  187.6100  178.4500  138.8880 N   0  0  0  0  0  0  0  0  0  0  0  0
  187.2310  177.0320  142.7760 C   0  0  0  0  0  2  0  0  0  0  0  0
  187.0180  176.6780  144.1100 O   0  0  0  0  0  0  0  0  0  0  0  0
  187.1190  177.8800  144.8130 C   0  0  0  0  0  2  0  0  0  0  0  0
  191.2100  176.0380  145.6320 C   0  0  0  0  0  2  0  0  0  0  0  0
  190.0860  176.9380  145.0900 C   0  0  0  0  0  2  0  0  0  0  0  0
  188.3890  177.5400  148.2540 N   0  0  0  0  0  0  0  0  0  0  0  0
  189.1540  177.2800  146.1600 N   0  0  0  0  0  0  0  0  0  0  0  0
  190.7030  176.7800  147.9350 N   0  0  0  0  0  2  0  0  0  0  0  0
  187.8820  177.6940  146.0900 C   0  0  0  0  0  0  0  0  0  0  0  0
  189.4330  177.2240  147.4640 C   0  0  0  0  0  0  0  0  0  0  0  0
  187.3960  177.8440  147.3830 C   0  0  0  0  0  3  0  0  0  0  0  0
  191.7730  176.5820  146.9580 C   0  0  1  0  0  3  0  0  0  0  0  0
  193.1800  176.0360  148.8100 O   0  0  0  0  0  1  0  0  0  0  0  0
  192.8060  175.6280  147.5260 C   0  0  0  0  0  2  0  0  0  0  0  0
  1 43  1  6  0  0  0
  3  6  1  0  0  0  0
  4  8  1  0  0  0  0
  4  2  2  0  0  0  0
  6  1  1  1  0  0  0
  6  8  1  0  0  0  0
  7  5  2  0  0  0  0
  7  4  1  0  0  0  0
  9 10  1  0  0  0  0
  9  3  1  0  0  0  0
 10 11  1  6  0  0  0
 10  7  1  0  0  0  0
 12 11  1  0  0  0  0
 13 12  1  0  0  0  0
 13 14  1  6  0  0  0
 15 13  1  0  0  0  0
 16 15  1  0  0  0  0
 17 15  1  0  0  0  0
 18 15  1  0  0  0  0
 18 21  1  0  0  0  0
 20 21  2  0  0  0  0
 21 19  2  0  0  0  0
 22 25  1  0  0  0  0
 23 22  1  0  0  0  0
 23 24  1  0  0  0  0
 24 26  1  0  0  0  0
 25 21  1  1  0  0  0
 25 26  1  0  0  0  0
 27  1  1  0  0  0  0
 28 27  1  1  0  0  0
 29 33  1  0  0  0  0
 30 28  1  0  0  0  0
 30 31  2  0  0  0  0
 32 29  1  6  0  0  0
 32 37  1  0  0  0  0
 32 40  1  0  0  0  0
 35 42  2  0  0  0  0
 36 34  1  6  0  0  0
 37 33  1  1  0  0  0
 37 34  1  0  0  0  0
 37 36  1  0  0  0  0
 38 39  1  0  0  0  0
 39 30  1  0  0  0  0
 40 41  1  0  0  0  0
 41 36  1  0  0  0  0
 41 35  1  1  0  0  0
 41 39  1  0  0  0  0
 42 28  1  0  0  0  0
 43 44  1  0  0  0  0
 44 45  1  0  0  0  0
 45 51  1  0  0  0  0
 46 54  1  0  0  0  0
 47 46  1  0  0  0  0
 47 49  1  0  0  0  0
 49 52  1  0  0  0  0
 51 49  1  0  0  0  0
 51 53  2  0  0  0  0
 52 50  1  0  0  0  0
 52 48  2  0  0  0  0
 53 48  1  0  0  0  0
 54 56  1  1  0  0  0
 54 50  1  0  0  0  0
 56 55  1  0  0  0  0
M  END
>  <MODEL>
7

>  <REMARK>
 VINA RESULT:      -6.6      2.190      8.491
  Name = 
  15 active torsions:
  status: ('A' for Active; 'I' for Inactive)
    1  A    between atoms: C_2  and  C_11
    2  A    between atoms: C_2  and  N_25
    3  A    between atoms: N_3  and  C_11
    4  A    between atoms: N_3  and  S_47
    5  A    between atoms: C_5  and  S_19
    6  A    between atoms: S_19  and  C_35
    7  A    between atoms: C_21  and  C_35
    8  A    between atoms: C_24  and  C_35
    9  A    between atoms: C_24  and  O_52
   10  A    between atoms: N_25  and  C_27
   11  A    between atoms: C_27  and  C_49
   12  A    between atoms: C_28  and  S_47
   13  A    between atoms: C_32  and  CA_53
   14  A    between atoms: C_40  and  C_51
   15  A    between atoms: C_51  and  O_52
                            x       y       z     vdW  Elec       q    Type
                         _______ _______ _______ _____ _____    ______ ____

>  <TORSDO>
F 15

$$$$
=
 OpenBabel10222417153D

 56 63  0  0  1  0  0  0  0  0999 V2000
  188.1560  178.3500  139.8670 C   0  0  2  0  0  3  0  0  0  0  0  0
  184.5460  178.0280  142.5900 O   0  0  0  0  0  0  0  0  0  0  0  0
  186.0830  178.6290  138.4730 C   0  0  0  0  0  2  0  0  0  0  0  0
  184.6790  178.3590  141.3820 C   0  0  0  0  0  0  0  0  0  0  0  0
  182.6360  177.3500  140.7760 O   0  0  0  0  0  0  0  0  0  0  0  0
  186.6300  178.2400  139.8400 C   0  0  2  0  0  3  0  0  0  0  0  0
  183.5920  178.0920  140.4230 C   0  0  0  0  0  0  0  0  0  0  0  0
  185.9470  179.0270  140.9560 C   0  0  0  0  0  2  0  0  0  0  0  0
  184.7250  177.9890  138.2120 C   0  0  0  0  0  2  0  0  0  0  0  0
  183.6370  178.6680  139.0300 C   0  0  1  0  0  3  0  0  0  0  0  0
  182.3100  178.5180  138.2980 C   0  0  0  0  0  2  0  0  0  0  0  0
  182.5060  177.8170  137.0380 N   0  0  0  0  0  2  0  0  0  0  0  0
  181.6090  176.6670  137.0470 C   0  0  1  0  0  3  0  0  0  0  0  0
  180.3260  177.0360  137.7750 C   0  0  0  0  0  1  0  0  0  0  0  0
  181.3600  176.1120  135.6270 C   0  0  0  0  0  0  0  0  0  0  0  0
  181.3940  177.2700  134.6450 C   0  0  0  0  0  1  0  0  0  0  0  0
  179.9680  175.4860  135.5130 C   0  0  0  0  0  1  0  0  0  0  0  0
  182.4680  175.2110  135.2520 N   0  0  0  0  0  2  0  0  0  0  0  0
  181.7640  172.6520  135.3860 O   0  0  0  0  0  0  0  0  0  0  0  0
  182.0610  173.8240  137.5190 O   0  0  0  0  0  0  0  0  0  0  0  0
  182.5700  173.6920  136.1100 S   0  0  0  0  0  0  0  0  0  0  0  0
  185.1120  174.2470  135.8060 O   0  0  0  0  0  0  0  0  0  0  0  0
  186.2740  174.1230  136.5940 C   0  0  0  0  0  2  0  0  0  0  0  0
  186.1020  172.9950  137.5880 C   0  0  0  0  0  2  0  0  0  0  0  0
  184.2740  173.1710  136.1490 C   0  0  1  0  0  3  0  0  0  0  0  0
  184.6420  172.7000  137.5290 C   0  0  0  0  0  2  0  0  0  0  0  0
  188.8380  178.7950  138.2310 S   0  0  0  0  0  0  0  0  0  0  0  0
  189.5880  177.1530  137.9120 C   0  0  2  0  0  3  0  0  0  0  0  0
  193.0930  173.0400  134.6190 C   0  0  0  0  0  2  0  0  0  0  0  0
  191.0550  177.1310  138.2520 C   0  0  0  0  0  0  0  0  0  0  0  0
  191.4830  177.7550  139.2620 O   0  0  0  0  0  0  0  0  0  0  0  0
  192.9720  173.9730  135.7950 C   0  0  2  0  0  3  0  0  0  0  0  0
  192.2110  172.0580  135.3520 C   0  0  0  0  0  2  0  0  0  0  0  0
  190.5090  173.0970  136.2440 C   0  0  0  0  0  2  0  0  0  0  0  0
  190.1310  175.9840  135.8660 C   0  0  0  0  0  3  0  0  0  0  0  0
  191.0770  174.0640  137.1610 C   0  0  1  0  0  3  0  0  0  0  0  0
  192.0300  173.0150  136.5310 C   0  0  2  0  0  0  0  0  0  0  0  0
  193.3710  176.3310  137.7750 C   0  0  0  0  0  1  0  0  0  0  0  0
  191.9470  176.3390  137.4530 N   0  0  0  0  0  0  0  0  0  0  0  0
  192.3050  175.1550  135.4360 O   0  0  0  0  0  0  0  0  0  0  0  0
  191.3860  175.3940  136.4710 C   0  0  2  0  0  0  0  0  0  0  0  0
  189.3500  176.7640  136.5340 N   0  0  0  0  0  0  0  0  0  0  0  0
  188.8670  177.1480  140.4840 C   0  0  0  0  0  2  0  0  0  0  0  0
  189.6440  177.5260  141.5820 O   0  0  0  0  0  0  0  0  0  0  0  0
  189.9970  176.3210  142.1930 C   0  0  0  0  0  2  0  0  0  0  0  0
  187.4560  177.9050  145.6330 C   0  0  0  0  0  2  0  0  0  0  0  0
  187.9730  177.0590  144.4570 C   0  0  0  0  0  2  0  0  0  0  0  0
  191.4320  176.7730  145.5560 N   0  0  0  0  0  0  0  0  0  0  0  0
  189.4120  176.8510  144.5790 N   0  0  0  0  0  0  0  0  0  0  0  0
  189.4800  177.3410  146.9360 N   0  0  0  0  0  2  0  0  0  0  0  0
  190.3150  176.5270  143.6440 C   0  0  0  0  0  0  0  0  0  0  0  0
  190.1070  176.9640  145.7130 C   0  0  0  0  0  0  0  0  0  0  0  0
  191.5700  176.4900  144.2380 C   0  0  0  0  0  3  0  0  0  0  0  0
  188.0190  177.4010  146.9750 C   0  0  1  0  0  3  0  0  0  0  0  0
  187.9310  177.7450  149.3380 O   0  0  0  0  0  1  0  0  0  0  0  0
  187.5810  178.3100  148.1090 C   0  0  0  0  0  2  0  0  0  0  0  0
  1 43  1  6  0  0  0
  3  6  1  0  0  0  0
  4  2  2  0  0  0  0
  6  1  1  6  0  0  0
  6  8  1  0  0  0  0
  7  5  2  0  0  0  0
  7  4  1  0  0  0  0
  8  4  1  0  0  0  0
  9  3  1  0  0  0  0
  9 10  1  0  0  0  0
 10 11  1  6  0  0  0
 10  7  1  0  0  0  0
 12 13  1  0  0  0  0
 12 11  1  0  0  0  0
 13 14  1  6  0  0  0
 15 13  1  0  0  0  0
 16 15  1  0  0  0  0
 17 15  1  0  0  0  0
 18 15  1  0  0  0  0
 18 21  1  0  0  0  0
 19 21  2  0  0  0  0
 21 20  2  0  0  0  0
 22 25  1  0  0  0  0
 22 23  1  0  0  0  0
 23 24  1  0  0  0  0
 25 21  1  1  0  0  0
 25 26  1  0  0  0  0
 26 24  1  0  0  0  0
 27  1  1  0  0  0  0
 28 27  1  6  0  0  0
 28 30  1  0  0  0  0
 29 33  1  0  0  0  0
 30 31  2  0  0  0  0
 32 29  1  6  0  0  0
 32 37  1  0  0  0  0
 34 37  1  0  0  0  0
 35 42  2  0  0  0  0
 36 34  1  6  0  0  0
 37 33  1  1  0  0  0
 37 36  1  0  0  0  0
 39 38  1  0  0  0  0
 39 30  1  0  0  0  0
 40 32  1  0  0  0  0
 40 41  1  0  0  0  0
 41 35  1  6  0  0  0
 41 36  1  0  0  0  0
 41 39  1  0  0  0  0
 42 28  1  0  0  0  0
 43 44  1  0  0  0  0
 44 45  1  0  0  0  0
 45 51  1  0  0  0  0
 46 54  1  0  0  0  0
 47 49  1  0  0  0  0
 47 46  1  0  0  0  0
 48 52  2  0  0  0  0
 49 52  1  0  0  0  0
 50 54  1  0  0  0  0
 51 53  2  0  0  0  0
 51 49  1  0  0  0  0
 52 50  1  0  0  0  0
 53 48  1  0  0  0  0
 54 56  1  1  0  0  0
 56 55  1  0  0  0  0
M  END
>  <MODEL>
8

>  <REMARK>
 VINA RESULT:      -6.6      2.375      9.040
  Name = 
  15 active torsions:
  status: ('A' for Active; 'I' for Inactive)
    1  A    between atoms: C_2  and  C_11
    2  A    between atoms: C_2  and  N_25
    3  A    between atoms: N_3  and  C_11
    4  A    between atoms: N_3  and  S_47
    5  A    between atoms: C_5  and  S_19
    6  A    between atoms: S_19  and  C_35
    7  A    between atoms: C_21  and  C_35
    8  A    between atoms: C_24  and  C_35
    9  A    between atoms: C_24  and  O_52
   10  A    between atoms: N_25  and  C_27
   11  A    between atoms: C_27  and  C_49
   12  A    between atoms: C_28  and  S_47
   13  A    between atoms: C_32  and  CA_53
   14  A    between atoms: C_40  and  C_51
   15  A    between atoms: C_51  and  O_52
                            x       y       z     vdW  Elec       q    Type
                         _______ _______ _______ _____ _____    ______ ____

>  <TORSDO>
F 15

$$$$
=
 OpenBabel10222417153D

 56 63  0  0  1  0  0  0  0  0999 V2000
  189.3620  177.5510  139.4080 C   0  0  2  0  0  3  0  0  0  0  0  0
  191.9840  175.3900  136.4050 O   0  0  0  0  0  0  0  0  0  0  0  0
  187.9230  175.9610  138.0960 C   0  0  0  0  0  2  0  0  0  0  0  0
  190.7870  175.2310  136.7680 C   0  0  0  0  0  0  0  0  0  0  0  0
  190.1050  174.6230  134.5940 O   0  0  0  0  0  0  0  0  0  0  0  0
  189.2940  176.6170  138.1970 C   0  0  2  0  0  3  0  0  0  0  0  0
  189.7950  174.7050  135.8130 C   0  0  0  0  0  0  0  0  0  0  0  0
  190.4110  175.5760  138.1730 C   0  0  0  0  0  2  0  0  0  0  0  0
  187.6120  175.5350  136.6670 C   0  0  0  0  0  2  0  0  0  0  0  0
  188.4180  174.3050  136.2790 C   0  0  1  0  0  3  0  0  0  0  0  0
  187.6480  173.5320  135.2150 C   0  0  0  0  0  2  0  0  0  0  0  0
  186.9140  172.4320  135.8230 N   0  0  0  0  0  2  0  0  0  0  0  0
  185.5820  172.4320  135.2310 C   0  0  1  0  0  3  0  0  0  0  0  0
  185.3150  171.0770  134.5940 C   0  0  0  0  0  1  0  0  0  0  0  0
  184.4930  172.8470  136.2470 C   0  0  0  0  0  0  0  0  0  0  0  0
  185.1460  173.0190  137.6070 C   0  0  0  0  0  1  0  0  0  0  0  0
  183.4370  171.7510  136.4060 C   0  0  0  0  0  1  0  0  0  0  0  0
  183.9520  174.1680  135.8710 N   0  0  0  0  0  2  0  0  0  0  0  0
  182.1870  174.5030  137.8300 O   0  0  0  0  0  0  0  0  0  0  0  0
  181.3560  173.4750  135.7650 O   0  0  0  0  0  0  0  0  0  0  0  0
  182.2990  174.5000  136.3320 S   0  0  0  0  0  0  0  0  0  0  0  0
  180.5080  176.3910  136.0450 O   0  0  0  0  0  0  0  0  0  0  0  0
  180.4380  177.7670  136.3340 C   0  0  0  0  0  2  0  0  0  0  0  0
  181.8290  178.3630  136.3350 C   0  0  0  0  0  2  0  0  0  0  0  0
  181.8480  176.1120  135.7220 C   0  0  1  0  0  3  0  0  0  0  0  0
  182.7190  177.1670  136.3480 C   0  0  0  0  0  2  0  0  0  0  0  0
  190.8150  177.2020  140.4600 S   0  0  0  0  0  0  0  0  0  0  0  0
  189.9780  177.6140  142.0380 C   0  0  2  0  0  3  0  0  0  0  0  0
  188.2220  176.4850  148.0130 C   0  0  0  0  0  2  0  0  0  0  0  0
  190.9600  178.0450  143.0970 C   0  0  0  0  0  0  0  0  0  0  0  0
  191.9560  178.7560  142.7880 O   0  0  0  0  0  0  0  0  0  0  0  0
  189.1520  177.1850  147.0560 C   0  0  2  0  0  3  0  0  0  0  0  0
  187.1480  177.4770  147.6380 C   0  0  0  0  0  2  0  0  0  0  0  0
  187.1030  177.7560  145.4720 C   0  0  0  0  0  2  0  0  0  0  0  0
  188.9030  176.2430  143.7140 C   0  0  0  0  0  3  0  0  0  0  0  0
  188.4140  178.2580  145.1150 C   0  0  1  0  0  3  0  0  0  0  0  0
  188.0590  178.1660  146.6220 C   0  0  2  0  0  0  0  0  0  0  0  0
  191.6710  178.0990  145.4890 C   0  0  0  0  0  1  0  0  0  0  0  0
  190.7120  177.6930  144.4660 N   0  0  0  0  0  0  0  0  0  0  0  0
  189.5170  176.3400  145.9960 O   0  0  0  0  0  0  0  0  0  0  0  0
  189.4040  177.1230  144.8370 C   0  0  2  0  0  0  0  0  0  0  0  0
  189.1760  176.4880  142.4770 N   0  0  0  0  0  0  0  0  0  0  0  0
  188.0690  177.6390  140.2150 C   0  0  0  0  0  2  0  0  0  0  0  0
  187.3570  178.8010  139.9080 O   0  0  0  0  0  0  0  0  0  0  0  0
  186.6260  179.0800  141.0650 C   0  0  0  0  0  2  0  0  0  0  0  0
  183.1400  178.5890  143.9640 C   0  0  0  0  0  2  0  0  0  0  0  0
  184.3660  179.1480  143.2220 C   0  0  0  0  0  2  0  0  0  0  0  0
  183.2000  178.5230  139.8310 N   0  0  0  0  0  0  0  0  0  0  0  0
  184.2220  178.9450  141.7850 N   0  0  0  0  0  0  0  0  0  0  0  0
  181.8330  178.6570  141.8670 N   0  0  0  0  0  2  0  0  0  0  0  0
  185.1560  178.9150  140.8240 C   0  0  0  0  0  0  0  0  0  0  0  0
  183.0650  178.7340  141.1550 C   0  0  0  0  0  0  0  0  0  0  0  0
  184.5320  178.6410  139.6130 C   0  0  0  0  0  3  0  0  0  0  0  0
  181.8290  179.0210  143.2840 C   0  0  1  0  0  3  0  0  0  0  0  0
  179.6910  177.9880  143.0170 O   0  0  0  0  0  1  0  0  0  0  0  0
  180.6380  178.3760  143.9680 C   0  0  0  0  0  2  0  0  0  0  0  0
  1 43  1  1  0  0  0
  1 27  1  0  0  0  0
  2  4  2  0  0  0  0
  3  6  1  0  0  0  0
  4  8  1  0  0  0  0
  5  7  2  0  0  0  0
  6  1  1  1  0  0  0
  7 10  1  0  0  0  0
  7  4  1  0  0  0  0
  8  6  1  0  0  0  0
  9  3  1  0  0  0  0
 10 11  1  6  0  0  0
 10  9  1  0  0  0  0
 11 12  1  0  0  0  0
 13 14  1  1  0  0  0
 13 12  1  0  0  0  0
 13 15  1  0  0  0  0
 15 17  1  0  0  0  0
 15 16  1  0  0  0  0
 18 15  1  0  0  0  0
 18 21  1  0  0  0  0
 20 21  2  0  0  0  0
 21 19  2  0  0  0  0
 22 23  1  0  0  0  0
 23 24  1  0  0  0  0
 24 26  1  0  0  0  0
 25 22  1  0  0  0  0
 25 21  1  1  0  0  0
 25 26  1  0  0  0  0
 28 27  1  6  0  0  0
 28 42  1  0  0  0  0
 28 30  1  0  0  0  0
 30 39  1  0  0  0  0
 31 30  2  0  0  0  0
 32 29  1  1  0  0  0
 33 29  1  0  0  0  0
 36 34  1  6  0  0  0
 36 37  1  0  0  0  0
 37 34  1  6  0  0  0
 37 32  1  0  0  0  0
 37 33  1  0  0  0  0
 39 41  1  0  0  0  0
 39 38  1  0  0  0  0
 40 32  1  0  0  0  0
 41 35  1  6  0  0  0
 41 36  1  0  0  0  0
 41 40  1  0  0  0  0
 42 35  2  0  0  0  0
 44 43  1  0  0  0  0
 44 45  1  0  0  0  0
 47 46  1  0  0  0  0
 48 52  2  0  0  0  0
 49 47  1  0  0  0  0
 50 54  1  0  0  0  0
 51 45  1  0  0  0  0
 51 49  1  0  0  0  0
 52 49  1  0  0  0  0
 52 50  1  0  0  0  0
 53 48  1  0  0  0  0
 53 51  2  0  0  0  0
 54 46  1  0  0  0  0
 54 56  1  1  0  0  0
 55 56  1  0  0  0  0
M  END
>  <MODEL>
9

>  <REMARK>
 VINA RESULT:      -6.3      2.159     10.664
  Name = 
  15 active torsions:
  status: ('A' for Active; 'I' for Inactive)
    1  A    between atoms: C_2  and  C_11
    2  A    between atoms: C_2  and  N_25
    3  A    between atoms: N_3  and  C_11
    4  A    between atoms: N_3  and  S_47
    5  A    between atoms: C_5  and  S_19
    6  A    between atoms: S_19  and  C_35
    7  A    between atoms: C_21  and  C_35
    8  A    between atoms: C_24  and  C_35
    9  A    between atoms: C_24  and  O_52
   10  A    between atoms: N_25  and  C_27
   11  A    between atoms: C_27  and  C_49
   12  A    between atoms: C_28  and  S_47
   13  A    between atoms: C_32  and  CA_53
   14  A    between atoms: C_40  and  C_51
   15  A    between atoms: C_51  and  O_52
                            x       y       z     vdW  Elec       q    Type
                         _______ _______ _______ _____ _____    ______ ____

>  <TORSDO>
F 15

$$$$
