=
 OpenBabel10222418103D

 25 27  0  0  0  0  0  0  0  0999 V2000
  188.7700  178.0200  143.5080 C   0  0  0  0  0  0  0  0  0  0  0  0
  188.5480  177.8480  144.7900 C   0  0  0  0  0  0  0  0  0  0  0  0
  188.9830  178.1950  142.2350 C   0  0  0  0  0  3  0  0  0  0  0  0
  185.3940  178.5020  146.7780 C   0  0  0  0  0  3  0  0  0  0  0  0
  183.5070  178.7470  143.6540 C   0  0  0  0  0  0  0  0  0  0  0  0
  187.1940  178.1370  145.3390 C   0  0  0  0  0  0  0  0  0  0  0  0
  183.7190  178.7470  145.0420 C   0  0  0  0  0  3  0  0  0  0  0  0
  185.8760  178.3160  143.2690 C   0  0  0  0  0  3  0  0  0  0  0  0
  182.1420  178.9750  143.1150 C   0  0  0  0  0  1  0  0  0  0  0  0
  185.0130  178.5280  145.5130 C   0  0  0  0  0  0  0  0  0  0  0  0
  186.8710  178.2390  146.8040 C   0  0  0  0  0  2  0  0  0  0  0  0
  184.5820  178.5330  142.7710 C   0  0  0  0  0  3  0  0  0  0  0  0
  186.0660  178.3130  144.6550 C   0  0  0  0  0  0  0  0  0  0  0  0
  192.7520  175.8440  148.0730 N   0  0  0  0  0  1  0  0  0  0  0  0
  189.6330  177.3090  145.6530 C   0  0  0  0  0  0  0  0  0  0  0  0
  189.3590  176.8260  146.9400 C   0  0  0  0  0  3  0  0  0  0  0  0
  190.3860  176.3380  147.7480 C   0  0  0  0  0  3  0  0  0  0  0  0
  191.6930  176.3390  147.2630 C   0  0  0  0  0  0  0  0  0  0  0  0
  190.9690  177.2950  145.2150 C   0  0  0  0  0  3  0  0  0  0  0  0
  191.9560  176.8150  146.0160 N   0  0  0  0  0  0  0  0  0  0  0  0
  187.9730  177.7300  141.2450 C   0  0  0  0  0  2  0  0  0  0  0  0
  188.9460  178.4920  139.0380 C   0  0  0  0  0  0  0  0  0  0  0  0
  189.8620  177.6290  139.1020 O   0  0  0  0  0  1  0  0  0  0  0  0
  188.8810  179.3450  137.9460 O   0  0  0  0  0  0  0  0  0  0  0  0
  187.9760  178.6040  140.0810 N   0  0  0  0  0  2  0  0  0  0  0  0
  1  2  2  0  0  0  0
  2  6  1  0  0  0  0
  2 15  1  0  0  0  0
  3  1  2  0  0  0  0
  4 11  1  0  0  0  0
  5  7  2  0  0  0  0
  6 11  1  0  0  0  0
  7 10  1  0  0  0  0
  8 13  1  0  0  0  0
  9  5  1  0  0  0  0
 10  4  2  0  0  0  0
 12  8  2  0  0  0  0
 12  5  1  0  0  0  0
 13  6  2  0  0  0  0
 13 10  1  0  0  0  0
 15 16  1  0  0  0  0
 16 17  2  0  0  0  0
 18 17  1  0  0  0  0
 18 14  1  0  0  0  0
 19 15  2  0  0  0  0
 19 20  1  0  0  0  0
 20 18  2  0  0  0  0
 21  3  1  0  0  0  0
 22 23  1  0  0  0  0
 22 25  1  0  0  0  0
 24 22  2  0  0  0  0
 25 21  1  0  0  0  0
M  END
>  <MODEL>
1

>  <REMARK>
 VINA RESULT:     -10.8      0.000      0.000
  Name = 
  4 active torsions:
  status: ('A' for Active; 'I' for Inactive)
    1  A    between atoms: C_3  and  N_19
    2  A    between atoms: C_3  and  C_24
    3  A    between atoms: C_7  and  C_12
    4  A    between atoms: C_9  and  C_12
                            x       y       z     vdW  Elec       q    Type
                         _______ _______ _______ _____ _____    ______ ____

>  <TORSDO>
F 4

$$$$
=
 OpenBabel10222418103D

 25 27  0  0  0  0  0  0  0  0999 V2000
  185.8870  178.2390  142.3420 C   0  0  0  0  0  0  0  0  0  0  0  0
  185.0390  178.3760  143.3350 C   0  0  0  0  0  0  0  0  0  0  0  0
  186.7340  178.1010  141.3620 C   0  0  0  0  0  3  0  0  0  0  0  0
  185.7750  178.6770  147.0350 C   0  0  0  0  0  3  0  0  0  0  0  0
  189.0580  177.1640  146.4790 C   0  0  0  0  0  0  0  0  0  0  0  0
  185.5500  178.3690  144.7340 C   0  0  0  0  0  0  0  0  0  0  0  0
  188.0080  177.7480  147.2050 C   0  0  0  0  0  3  0  0  0  0  0  0
  187.7690  177.3520  144.4180 C   0  0  0  0  0  2  0  0  0  0  0  0
  190.3010  176.7520  147.1800 C   0  0  0  0  0  1  0  0  0  0  0  0
  186.8560  178.1240  146.5150 C   0  0  0  0  0  0  0  0  0  0  0  0
  184.7960  178.9020  145.9200 C   0  0  0  0  0  3  0  0  0  0  0  0
  188.9380  176.9660  145.0910 C   0  0  0  0  0  3  0  0  0  0  0  0
  186.7360  177.9390  145.1580 C   0  0  0  0  0  0  0  0  0  0  0  0
  179.5240  179.1680  142.1440 N   0  0  0  0  0  1  0  0  0  0  0  0
  183.5990  178.5970  143.0390 C   0  0  0  0  0  0  0  0  0  0  0  0
  182.6610  178.7290  144.0730 C   0  0  0  0  0  3  0  0  0  0  0  0
  181.3090  178.9190  143.7860 C   0  0  0  0  0  3  0  0  0  0  0  0
  180.8970  178.9730  142.4550 C   0  0  0  0  0  0  0  0  0  0  0  0
  183.1290  178.6520  141.7140 C   0  0  0  0  0  3  0  0  0  0  0  0
  181.8080  178.8390  141.4540 N   0  0  0  0  0  0  0  0  0  0  0  0
  188.0230  178.8450  141.3870 C   0  0  0  0  0  2  0  0  0  0  0  0
  189.4480  178.1990  139.4010 C   0  0  0  0  0  0  0  0  0  0  0  0
  188.8570  179.0290  138.6600 O   0  0  0  0  0  0  0  0  0  0  0  0
  190.4710  177.4190  138.8800 O   0  0  0  0  0  1  0  0  0  0  0  0
  189.0720  178.0480  140.7710 N   0  0  0  0  0  2  0  0  0  0  0  0
  1  2  2  0  0  0  0
  2  6  1  0  0  0  0
  3 21  1  0  0  0  0
  3  1  2  0  0  0  0
  5  9  1  0  0  0  0
  5  7  1  0  0  0  0
  6 13  2  0  0  0  0
  6 11  1  0  0  0  0
  8 12  1  0  0  0  0
  8 13  1  0  0  0  0
 10  4  1  0  0  0  0
 10  7  2  0  0  0  0
 11  4  2  0  0  0  0
 12  5  2  0  0  0  0
 13 10  1  0  0  0  0
 14 18  1  0  0  0  0
 15  2  1  0  0  0  0
 15 16  1  0  0  0  0
 17 16  2  0  0  0  0
 18 17  1  0  0  0  0
 19 15  2  0  0  0  0
 20 19  1  0  0  0  0
 20 18  2  0  0  0  0
 22 25  1  0  0  0  0
 23 22  2  0  0  0  0
 24 22  1  0  0  0  0
 25 21  1  0  0  0  0
M  END
>  <MODEL>
2

>  <REMARK>
 VINA RESULT:     -10.4      2.342      6.394
  Name = 
  4 active torsions:
  status: ('A' for Active; 'I' for Inactive)
    1  A    between atoms: C_3  and  N_19
    2  A    between atoms: C_3  and  C_24
    3  A    between atoms: C_7  and  C_12
    4  A    between atoms: C_9  and  C_12
                            x       y       z     vdW  Elec       q    Type
                         _______ _______ _______ _____ _____    ______ ____

>  <TORSDO>
F 4

$$$$
=
 OpenBabel10222418103D

 25 27  0  0  0  0  0  0  0  0999 V2000
  187.3380  177.6150  143.0580 C   0  0  0  0  0  0  0  0  0  0  0  0
  186.5510  177.9100  144.0660 C   0  0  0  0  0  0  0  0  0  0  0  0
  188.1250  177.3190  142.0630 C   0  0  0  0  0  3  0  0  0  0  0  0
  187.3980  178.2100  147.7430 C   0  0  0  0  0  3  0  0  0  0  0  0
  190.7020  176.7950  147.0710 C   0  0  0  0  0  0  0  0  0  0  0  0
  187.1070  177.9090  145.4480 C   0  0  0  0  0  0  0  0  0  0  0  0
  189.6610  177.3450  147.8340 C   0  0  0  0  0  3  0  0  0  0  0  0
  189.3420  176.9590  145.0540 C   0  0  0  0  0  2  0  0  0  0  0  0
  191.9790  176.4140  147.7280 C   0  0  0  0  0  1  0  0  0  0  0  0
  188.4760  177.6920  147.1840 C   0  0  0  0  0  0  0  0  0  0  0  0
  186.3770  178.4140  146.6620 C   0  0  0  0  0  3  0  0  0  0  0  0
  190.5430  176.6020  145.6860 C   0  0  0  0  0  3  0  0  0  0  0  0
  188.3180  177.5110  145.8310 C   0  0  0  0  0  0  0  0  0  0  0  0
  181.1390  179.3390  142.9990 N   0  0  0  0  0  1  0  0  0  0  0  0
  185.1400  178.2990  143.8010 C   0  0  0  0  0  0  0  0  0  0  0  0
  184.2850  178.6720  144.8470 C   0  0  0  0  0  3  0  0  0  0  0  0
  182.9580  179.0200  144.5910 C   0  0  0  0  0  3  0  0  0  0  0  0
  182.4880  178.9870  143.2790 C   0  0  0  0  0  0  0  0  0  0  0  0
  184.6130  178.2750  142.4970 C   0  0  0  0  0  3  0  0  0  0  0  0
  183.3180  178.6170  142.2670 N   0  0  0  0  0  0  0  0  0  0  0  0
  189.4970  177.8930  142.0090 C   0  0  0  0  0  2  0  0  0  0  0  0
  190.4470  177.2080  139.7680 C   0  0  0  0  0  0  0  0  0  0  0  0
  189.7570  178.0760  139.1690 O   0  0  0  0  0  1  0  0  0  0  0  0
  191.3000  176.3880  139.0420 O   0  0  0  0  0  0  0  0  0  0  0  0
  190.3560  177.0560  141.1850 N   0  0  0  0  0  2  0  0  0  0  0  0
  1  2  2  0  0  0  0
  2  6  1  0  0  0  0
  3  1  2  0  0  0  0
  5  9  1  0  0  0  0
  5  7  1  0  0  0  0
  6 13  2  0  0  0  0
  6 11  1  0  0  0  0
  8 12  1  0  0  0  0
  8 13  1  0  0  0  0
 10  4  1  0  0  0  0
 10  7  2  0  0  0  0
 11  4  2  0  0  0  0
 12  5  2  0  0  0  0
 13 10  1  0  0  0  0
 14 18  1  0  0  0  0
 15  2  1  0  0  0  0
 15 16  1  0  0  0  0
 17 16  2  0  0  0  0
 18 17  1  0  0  0  0
 19 15  2  0  0  0  0
 20 19  1  0  0  0  0
 20 18  2  0  0  0  0
 21  3  1  0  0  0  0
 22 25  1  0  0  0  0
 23 22  1  0  0  0  0
 24 22  2  0  0  0  0
 25 21  1  0  0  0  0
M  END
>  <MODEL>
3

>  <REMARK>
 VINA RESULT:     -10.3      2.141      6.074
  Name = 
  4 active torsions:
  status: ('A' for Active; 'I' for Inactive)
    1  A    between atoms: C_3  and  N_19
    2  A    between atoms: C_3  and  C_24
    3  A    between atoms: C_7  and  C_12
    4  A    between atoms: C_9  and  C_12
                            x       y       z     vdW  Elec       q    Type
                         _______ _______ _______ _____ _____    ______ ____

>  <TORSDO>
F 4

$$$$
=
 OpenBabel10222418103D

 25 27  0  0  0  0  0  0  0  0999 V2000
  187.3680  178.4730  141.7520 C   0  0  0  0  0  0  0  0  0  0  0  0
  188.6340  178.1270  141.7410 C   0  0  0  0  0  0  0  0  0  0  0  0
  186.1120  178.8180  141.7720 C   0  0  0  0  0  3  0  0  0  0  0  0
  191.1070  178.2070  144.6060 C   0  0  0  0  0  3  0  0  0  0  0  0
  188.3970  177.4200  146.9330 C   0  0  0  0  0  0  0  0  0  0  0  0
  189.3980  178.1200  143.0200 C   0  0  0  0  0  0  0  0  0  0  0  0
  189.7090  177.7020  146.5210 C   0  0  0  0  0  3  0  0  0  0  0  0
  187.6130  177.5960  144.6310 C   0  0  0  0  0  2  0  0  0  0  0  0
  188.1090  177.1770  148.3700 C   0  0  0  0  0  1  0  0  0  0  0  0
  189.9440  177.9240  145.1650 C   0  0  0  0  0  0  0  0  0  0  0  0
  190.8770  178.3650  143.1310 C   0  0  0  0  0  3  0  0  0  0  0  0
  187.3530  177.3680  145.9910 C   0  0  0  0  0  3  0  0  0  0  0  0
  188.9290  177.8690  144.2390 C   0  0  0  0  0  0  0  0  0  0  0  0
  191.0170  176.3780  136.8690 N   0  0  0  0  0  1  0  0  0  0  0  0
  189.2600  177.6900  140.4650 C   0  0  0  0  0  0  0  0  0  0  0  0
  188.9900  178.3590  139.2630 C   0  0  0  0  0  3  0  0  0  0  0  0
  189.5680  177.9320  138.0670 C   0  0  0  0  0  3  0  0  0  0  0  0
  190.4170  176.8270  138.0780 C   0  0  0  0  0  0  0  0  0  0  0  0
  190.1170  176.5770  140.4200 C   0  0  0  0  0  3  0  0  0  0  0  0
  190.6720  176.1760  139.2450 N   0  0  0  0  0  0  0  0  0  0  0  0
  185.2180  178.2980  142.8430 C   0  0  0  0  0  2  0  0  0  0  0  0
  182.9130  179.0140  143.5990 C   0  0  0  0  0  0  0  0  0  0  0  0
  183.2610  178.9830  144.8100 O   0  0  0  0  0  1  0  0  0  0  0  0
  181.6170  179.3800  143.2660 O   0  0  0  0  0  0  0  0  0  0  0  0
  183.8390  178.6720  142.5660 N   0  0  0  0  0  2  0  0  0  0  0  0
  1  3  2  0  0  0  0
  2  1  2  0  0  0  0
  2  6  1  0  0  0  0
  3 21  1  0  0  0  0
  4 10  1  0  0  0  0
  5  9  1  0  0  0  0
  6 11  1  0  0  0  0
  6 13  2  0  0  0  0
  7  5  1  0  0  0  0
  8 12  1  0  0  0  0
 10  7  2  0  0  0  0
 11  4  2  0  0  0  0
 12  5  2  0  0  0  0
 13  8  1  0  0  0  0
 13 10  1  0  0  0  0
 14 18  1  0  0  0  0
 15  2  1  0  0  0  0
 16 15  2  0  0  0  0
 17 18  2  0  0  0  0
 17 16  1  0  0  0  0
 18 20  1  0  0  0  0
 19 15  1  0  0  0  0
 20 19  2  0  0  0  0
 22 23  1  0  0  0  0
 24 22  2  0  0  0  0
 25 21  1  0  0  0  0
 25 22  1  0  0  0  0
M  END
>  <MODEL>
4

>  <REMARK>
 VINA RESULT:     -10.0      3.687      6.400
  Name = 
  4 active torsions:
  status: ('A' for Active; 'I' for Inactive)
    1  A    between atoms: C_3  and  N_19
    2  A    between atoms: C_3  and  C_24
    3  A    between atoms: C_7  and  C_12
    4  A    between atoms: C_9  and  C_12
                            x       y       z     vdW  Elec       q    Type
                         _______ _______ _______ _____ _____    ______ ____

>  <TORSDO>
F 4

$$$$
=
 OpenBabel10222418103D

 25 27  0  0  0  0  0  0  0  0999 V2000
  187.0630  177.6270  142.3180 C   0  0  0  0  0  0  0  0  0  0  0  0
  185.8900  178.1220  142.6370 C   0  0  0  0  0  0  0  0  0  0  0  0
  188.2290  177.1350  142.0090 C   0  0  0  0  0  3  0  0  0  0  0  0
  184.4360  178.8250  146.0610 C   0  0  0  0  0  3  0  0  0  0  0  0
  187.6690  178.0190  147.5700 C   0  0  0  0  0  0  0  0  0  0  0  0
  185.5500  178.3200  144.0740 C   0  0  0  0  0  0  0  0  0  0  0  0
  186.3220  178.4120  147.5280 C   0  0  0  0  0  3  0  0  0  0  0  0
  187.7010  177.7860  145.1430 C   0  0  0  0  0  2  0  0  0  0  0  0
  188.3730  177.9330  148.8750 C   0  0  0  0  0  1  0  0  0  0  0  0
  185.6920  178.4830  146.2850 C   0  0  0  0  0  0  0  0  0  0  0  0
  184.2040  178.7570  144.5790 C   0  0  0  0  0  3  0  0  0  0  0  0
  188.3550  177.7070  146.3820 C   0  0  0  0  0  3  0  0  0  0  0  0
  186.3600  178.1850  145.1210 C   0  0  0  0  0  0  0  0  0  0  0  0
  182.3550  179.6720  138.4460 N   0  0  0  0  0  1  0  0  0  0  0  0
  184.9530  178.5310  141.5570 C   0  0  0  0  0  0  0  0  0  0  0  0
  183.6050  178.1490  141.5890 C   0  0  0  0  0  3  0  0  0  0  0  0
  182.7360  178.5230  140.5630 C   0  0  0  0  0  3  0  0  0  0  0  0
  183.2250  179.2800  139.4990 C   0  0  0  0  0  0  0  0  0  0  0  0
  185.3970  179.2880  140.4590 C   0  0  0  0  0  3  0  0  0  0  0  0
  184.5360  179.6440  139.4690 N   0  0  0  0  0  0  0  0  0  0  0  0
  189.4480  177.6240  142.7100 C   0  0  0  0  0  2  0  0  0  0  0  0
  191.3090  176.5880  144.0740 C   0  0  0  0  0  0  0  0  0  0  0  0
  191.5040  177.6670  144.6950 O   0  0  0  0  0  1  0  0  0  0  0  0
  192.0810  175.4750  144.3730 O   0  0  0  0  0  0  0  0  0  0  0  0
  190.3050  176.5020  143.0610 N   0  0  0  0  0  2  0  0  0  0  0  0
  1  2  2  0  0  0  0
  2  6  1  0  0  0  0
  3  1  2  0  0  0  0
  3 21  1  0  0  0  0
  4 10  1  0  0  0  0
  5  9  1  0  0  0  0
  6 11  1  0  0  0  0
  6 13  2  0  0  0  0
  7  5  1  0  0  0  0
  8 12  1  0  0  0  0
 10  7  2  0  0  0  0
 11  4  2  0  0  0  0
 12  5  2  0  0  0  0
 13  8  1  0  0  0  0
 13 10  1  0  0  0  0
 14 18  1  0  0  0  0
 15 16  1  0  0  0  0
 15  2  1  0  0  0  0
 17 16  2  0  0  0  0
 18 17  1  0  0  0  0
 19 15  2  0  0  0  0
 20 18  2  0  0  0  0
 20 19  1  0  0  0  0
 21 25  1  0  0  0  0
 22 24  2  0  0  0  0
 22 23  1  0  0  0  0
 25 22  1  0  0  0  0
M  END
>  <MODEL>
5

>  <REMARK>
 VINA RESULT:     -10.0      2.806      6.598
  Name = 
  4 active torsions:
  status: ('A' for Active; 'I' for Inactive)
    1  A    between atoms: C_3  and  N_19
    2  A    between atoms: C_3  and  C_24
    3  A    between atoms: C_7  and  C_12
    4  A    between atoms: C_9  and  C_12
                            x       y       z     vdW  Elec       q    Type
                         _______ _______ _______ _____ _____    ______ ____

>  <TORSDO>
F 4

$$$$
=
 OpenBabel10222418103D

 25 27  0  0  0  0  0  0  0  0999 V2000
  189.9520  176.8700  144.0270 C   0  0  0  0  0  0  0  0  0  0  0  0
  188.8520  177.4070  143.5520 C   0  0  0  0  0  0  0  0  0  0  0  0
  191.0390  176.3370  144.5070 C   0  0  0  0  0  3  0  0  0  0  0  0
  186.5200  178.2430  146.4140 C   0  0  0  0  0  3  0  0  0  0  0  0
  183.7680  178.6000  144.0320 C   0  0  0  0  0  0  0  0  0  0  0  0
  187.7570  177.7750  144.4920 C   0  0  0  0  0  0  0  0  0  0  0  0
  184.4030  178.5870  145.2840 C   0  0  0  0  0  3  0  0  0  0  0  0
  185.8690  178.0320  142.9340 C   0  0  0  0  0  3  0  0  0  0  0  0
  182.3180  178.9080  143.9430 C   0  0  0  0  0  1  0  0  0  0  0  0
  185.7660  178.2930  145.3310 C   0  0  0  0  0  0  0  0  0  0  0  0
  187.9150  177.8940  145.9820 C   0  0  0  0  0  2  0  0  0  0  0  0
  184.4990  178.3250  142.8620 C   0  0  0  0  0  3  0  0  0  0  0  0
  186.4830  178.0170  144.1910 C   0  0  0  0  0  0  0  0  0  0  0  0
  188.4850  178.5800  137.9880 N   0  0  0  0  0  1  0  0  0  0  0  0
  188.7510  177.6940  142.0960 C   0  0  0  0  0  0  0  0  0  0  0  0
  189.2440  176.7890  141.1470 C   0  0  0  0  0  3  0  0  0  0  0  0
  189.1600  177.0740  139.7830 C   0  0  0  0  0  3  0  0  0  0  0  0
  188.5810  178.2740  139.3730 C   0  0  0  0  0  0  0  0  0  0  0  0
  188.1830  178.8930  141.6300 C   0  0  0  0  0  3  0  0  0  0  0  0
  188.1090  179.1530  140.2980 N   0  0  0  0  0  0  0  0  0  0  0  0
  191.6560  176.8960  145.7410 C   0  0  0  0  0  2  0  0  0  0  0  0
  192.4350  176.0210  147.9830 C   0  0  0  0  0  0  0  0  0  0  0  0
  192.3700  177.1700  148.4950 O   0  0  0  0  0  0  0  0  0  0  0  0
  192.8370  174.9440  148.7600 O   0  0  0  0  0  1  0  0  0  0  0  0
  192.1030  175.8160  146.6080 N   0  0  0  0  0  2  0  0  0  0  0  0
  1  3  2  0  0  0  0
  2  1  2  0  0  0  0
  2  6  1  0  0  0  0
  3 21  1  0  0  0  0
  5  7  2  0  0  0  0
  6 11  1  0  0  0  0
  7 10  1  0  0  0  0
  8 13  1  0  0  0  0
  9  5  1  0  0  0  0
 10  4  2  0  0  0  0
 11  4  1  0  0  0  0
 12  8  2  0  0  0  0
 12  5  1  0  0  0  0
 13  6  2  0  0  0  0
 13 10  1  0  0  0  0
 14 18  1  0  0  0  0
 15  2  1  0  0  0  0
 16 15  2  0  0  0  0
 17 16  1  0  0  0  0
 18 17  2  0  0  0  0
 18 20  1  0  0  0  0
 19 15  1  0  0  0  0
 20 19  2  0  0  0  0
 21 25  1  0  0  0  0
 22 23  2  0  0  0  0
 22 24  1  0  0  0  0
 25 22  1  0  0  0  0
M  END
>  <MODEL>
6

>  <REMARK>
 VINA RESULT:      -9.7      3.157      5.878
  Name = 
  4 active torsions:
  status: ('A' for Active; 'I' for Inactive)
    1  A    between atoms: C_3  and  N_19
    2  A    between atoms: C_3  and  C_24
    3  A    between atoms: C_7  and  C_12
    4  A    between atoms: C_9  and  C_12
                            x       y       z     vdW  Elec       q    Type
                         _______ _______ _______ _____ _____    ______ ____

>  <TORSDO>
F 4

$$$$
=
 OpenBabel10222418103D

 25 27  0  0  0  0  0  0  0  0999 V2000
  184.9380  178.4780  141.9580 C   0  0  0  0  0  0  0  0  0  0  0  0
  185.9080  178.2490  142.8130 C   0  0  0  0  0  0  0  0  0  0  0  0
  183.9710  178.7090  141.1170 C   0  0  0  0  0  3  0  0  0  0  0  0
  184.5930  178.6860  146.3360 C   0  0  0  0  0  3  0  0  0  0  0  0
  187.9630  178.1120  147.6360 C   0  0  0  0  0  0  0  0  0  0  0  0
  185.6330  178.3600  144.2730 C   0  0  0  0  0  0  0  0  0  0  0  0
  186.5870  178.3840  147.6820 C   0  0  0  0  0  3  0  0  0  0  0  0
  187.8790  177.9770  145.2030 C   0  0  0  0  0  2  0  0  0  0  0  0
  188.7440  178.0370  148.8980 C   0  0  0  0  0  1  0  0  0  0  0  0
  185.8840  178.4480  146.4790 C   0  0  0  0  0  0  0  0  0  0  0  0
  184.2850  178.6560  144.8670 C   0  0  0  0  0  3  0  0  0  0  0  0
  188.6060  177.9080  146.4010 C   0  0  0  0  0  3  0  0  0  0  0  0
  186.5090  178.2560  145.2690 C   0  0  0  0  0  0  0  0  0  0  0  0
  191.0370  176.6950  140.8770 N   0  0  0  0  0  1  0  0  0  0  0  0
  187.2400  177.8230  142.3080 C   0  0  0  0  0  0  0  0  0  0  0  0
  187.8750  176.6820  142.8170 C   0  0  0  0  0  3  0  0  0  0  0  0
  189.1330  176.3000  142.3480 C   0  0  0  0  0  3  0  0  0  0  0  0
  189.7560  177.0700  141.3680 C   0  0  0  0  0  0  0  0  0  0  0  0
  187.9160  178.5690  141.3250 C   0  0  0  0  0  3  0  0  0  0  0  0
  189.1410  178.1810  140.8800 N   0  0  0  0  0  0  0  0  0  0  0  0
  182.6160  178.1510  141.3760 C   0  0  0  0  0  2  0  0  0  0  0  0
  180.9040  179.4540  142.7060 C   0  0  0  0  0  0  0  0  0  0  0  0
  181.0480  178.6970  143.7030 O   0  0  0  0  0  1  0  0  0  0  0  0
  180.0100  180.5130  142.7710 O   0  0  0  0  0  0  0  0  0  0  0  0
  181.6490  179.2290  141.5070 N   0  0  0  0  0  2  0  0  0  0  0  0
  1  2  2  0  0  0  0
  2  6  1  0  0  0  0
  3 21  1  0  0  0  0
  3  1  2  0  0  0  0
  4 10  1  0  0  0  0
  5  7  1  0  0  0  0
  5  9  1  0  0  0  0
  6 11  1  0  0  0  0
  6 13  2  0  0  0  0
  8 13  1  0  0  0  0
  8 12  1  0  0  0  0
 10  7  2  0  0  0  0
 11  4  2  0  0  0  0
 12  5  2  0  0  0  0
 13 10  1  0  0  0  0
 14 18  1  0  0  0  0
 15  2  1  0  0  0  0
 15 16  1  0  0  0  0
 17 16  2  0  0  0  0
 18 17  1  0  0  0  0
 19 15  2  0  0  0  0
 20 19  1  0  0  0  0
 20 18  2  0  0  0  0
 21 25  1  0  0  0  0
 22 24  2  0  0  0  0
 22 23  1  0  0  0  0
 25 22  1  0  0  0  0
M  END
>  <MODEL>
7

>  <REMARK>
 VINA RESULT:      -9.6      3.644      5.716
  Name = 
  4 active torsions:
  status: ('A' for Active; 'I' for Inactive)
    1  A    between atoms: C_3  and  N_19
    2  A    between atoms: C_3  and  C_24
    3  A    between atoms: C_7  and  C_12
    4  A    between atoms: C_9  and  C_12
                            x       y       z     vdW  Elec       q    Type
                         _______ _______ _______ _____ _____    ______ ____

>  <TORSDO>
F 4

$$$$
=
 OpenBabel10222418103D

 25 27  0  0  1  0  0  0  0  0999 V2000
  190.0340  177.0370  142.6800 C   0  0  0  0  0  0  0  0  0  0  0  0
  189.2040  177.3230  141.7040 C   0  0  0  0  0  0  0  0  0  0  0  0
  190.8520  176.7560  143.6540 C   0  0  0  0  0  3  0  0  0  0  0  0
  185.8390  179.0440  141.9040 C   0  0  0  0  0  3  0  0  0  0  0  0
  185.6180  178.1430  145.4420 C   0  0  0  0  0  0  0  0  0  0  0  0
  187.8750  177.9110  142.0280 C   0  0  0  0  0  0  0  0  0  0  0  0
  185.2170  178.7150  144.2240 C   0  0  0  0  0  3  0  0  0  0  0  0
  187.6710  177.3290  144.4100 C   0  0  0  0  0  3  0  0  0  0  0  0
  184.7470  178.2680  146.6390 C   0  0  0  0  0  1  0  0  0  0  0  0
  186.0590  178.5790  143.1200 C   0  0  1  0  0  3  0  0  0  0  0  0
  187.0110  178.6580  141.0500 C   0  0  0  0  0  3  0  0  0  0  0  0
  186.8400  177.4520  145.5340 C   0  0  0  0  0  3  0  0  0  0  0  0
  187.2570  177.9100  143.2070 C   0  0  0  0  0  0  0  0  0  0  0  0
  190.8980  176.4510  136.3340 N   0  0  0  0  0  1  0  0  0  0  0  0
  189.6330  177.1100  140.2960 C   0  0  0  0  0  0  0  0  0  0  0  0
  188.6960  177.0720  139.2540 C   0  0  0  0  0  3  0  0  0  0  0  0
  189.1060  176.8550  137.9380 C   0  0  0  0  0  3  0  0  0  0  0  0
  190.4620  176.6720  137.6690 C   0  0  0  0  0  0  0  0  0  0  0  0
  190.9870  176.9120  139.9710 C   0  0  0  0  0  3  0  0  0  0  0  0
  191.3680  176.7030  138.6830 N   0  0  0  0  0  0  0  0  0  0  0  0
  191.0340  177.7240  144.7700 C   0  0  0  0  0  2  0  0  0  0  0  0
  191.2950  176.5730  147.0070 C   0  0  0  0  0  0  0  0  0  0  0  0
  190.0510  176.5950  147.2050 O   0  0  0  0  0  0  0  0  0  0  0  0
  192.1320  176.0060  147.9580 O   0  0  0  0  0  1  0  0  0  0  0  0
  191.8530  177.1310  145.8160 N   0  0  0  0  0  2  0  0  0  0  0  0
  1  3  2  0  0  0  0
  2  6  1  0  0  0  0
  2  1  2  0  0  0  0
  3 21  1  0  0  0  0
  5 12  1  0  0  0  0
  5  9  1  0  0  0  0
  6 13  2  0  0  0  0
  7  5  2  0  0  0  0
  8 12  2  0  0  0  0
 10  4  1  6  0  0  0
 10 13  1  0  0  0  0
 10  7  1  0  0  0  0
 11  4  2  0  0  0  0
 11  6  1  0  0  0  0
 13  8  1  0  0  0  0
 14 18  1  0  0  0  0
 15  2  1  0  0  0  0
 16 15  2  0  0  0  0
 17 16  1  0  0  0  0
 18 17  2  0  0  0  0
 18 20  1  0  0  0  0
 19 15  1  0  0  0  0
 20 19  2  0  0  0  0
 21 25  1  0  0  0  0
 22 23  2  0  0  0  0
 22 24  1  0  0  0  0
 25 22  1  0  0  0  0
M  END
>  <MODEL>
8

>  <REMARK>
 VINA RESULT:      -9.5      3.102      6.285
  Name = 
  4 active torsions:
  status: ('A' for Active; 'I' for Inactive)
    1  A    between atoms: C_3  and  N_19
    2  A    between atoms: C_3  and  C_24
    3  A    between atoms: C_7  and  C_12
    4  A    between atoms: C_9  and  C_12
                            x       y       z     vdW  Elec       q    Type
                         _______ _______ _______ _____ _____    ______ ____

>  <TORSDO>
F 4

$$$$
=
 OpenBabel10222418103D

 25 27  0  0  0  0  0  0  0  0999 V2000
  187.7370  178.0300  146.0100 C   0  0  0  0  0  0  0  0  0  0  0  0
  187.3060  177.8560  144.7830 C   0  0  0  0  0  0  0  0  0  0  0  0
  188.1740  178.2000  147.2260 C   0  0  0  0  0  3  0  0  0  0  0  0
  189.8450  175.9680  142.7060 C   0  0  0  0  0  3  0  0  0  0  0  0
  188.9990  178.0540  139.8230 C   0  0  0  0  0  0  0  0  0  0  0  0
  188.2180  177.2600  143.7680 C   0  0  0  0  0  0  0  0  0  0  0  0
  189.6670  177.0520  140.5450 C   0  0  0  0  0  3  0  0  0  0  0  0
  187.6860  178.6310  141.7950 C   0  0  0  0  0  3  0  0  0  0  0  0
  189.3360  178.2850  138.3950 C   0  0  0  0  0  1  0  0  0  0  0  0
  189.3270  176.8630  141.8840 C   0  0  0  0  0  0  0  0  0  0  0  0
  189.1740  176.1310  144.0380 C   0  0  0  0  0  2  0  0  0  0  0  0
  188.0120  178.8390  140.4460 C   0  0  0  0  0  3  0  0  0  0  0  0
  188.3670  177.6320  142.4990 C   0  0  0  0  0  0  0  0  0  0  0  0
  181.9220  179.2500  143.5390 N   0  0  0  0  0  1  0  0  0  0  0  0
  185.8980  178.2020  144.4490 C   0  0  0  0  0  0  0  0  0  0  0  0
  185.3600  177.9010  143.1900 C   0  0  0  0  0  3  0  0  0  0  0  0
  184.0430  178.2440  142.8800 C   0  0  0  0  0  3  0  0  0  0  0  0
  183.2660  178.8950  143.8370 C   0  0  0  0  0  0  0  0  0  0  0  0
  185.0740  178.8650  145.3750 C   0  0  0  0  0  3  0  0  0  0  0  0
  183.7930  179.1910  145.0550 N   0  0  0  0  0  0  0  0  0  0  0  0
  188.9600  177.1230  147.8870 C   0  0  0  0  0  2  0  0  0  0  0  0
  191.3200  176.5970  147.1470 C   0  0  0  0  0  0  0  0  0  0  0  0
  191.8050  177.1730  148.1570 O   0  0  0  0  0  1  0  0  0  0  0  0
  192.1680  176.0100  146.2180 O   0  0  0  0  0  0  0  0  0  0  0  0
  189.9070  176.5460  146.9450 N   0  0  0  0  0  2  0  0  0  0  0  0
  1  3  2  0  0  0  0
  2  1  2  0  0  0  0
  3 21  1  0  0  0  0
  4 11  1  0  0  0  0
  5 12  1  0  0  0  0
  5  7  2  0  0  0  0
  6 11  1  0  0  0  0
  6  2  1  0  0  0  0
  7 10  1  0  0  0  0
  8 13  1  0  0  0  0
  9  5  1  0  0  0  0
 10 13  1  0  0  0  0
 10  4  2  0  0  0  0
 12  8  2  0  0  0  0
 13  6  2  0  0  0  0
 14 18  1  0  0  0  0
 15  2  1  0  0  0  0
 15 19  1  0  0  0  0
 16 15  2  0  0  0  0
 17 16  1  0  0  0  0
 17 18  2  0  0  0  0
 18 20  1  0  0  0  0
 20 19  2  0  0  0  0
 22 23  1  0  0  0  0
 24 22  2  0  0  0  0
 25 22  1  0  0  0  0
 25 21  1  0  0  0  0
M  END
>  <MODEL>
9

>  <REMARK>
 VINA RESULT:      -9.5      3.278      6.815
  Name = 
  4 active torsions:
  status: ('A' for Active; 'I' for Inactive)
    1  A    between atoms: C_3  and  N_19
    2  A    between atoms: C_3  and  C_24
    3  A    between atoms: C_7  and  C_12
    4  A    between atoms: C_9  and  C_12
                            x       y       z     vdW  Elec       q    Type
                         _______ _______ _______ _____ _____    ______ ____

>  <TORSDO>
F 4

$$$$
