=
 OpenBabel10222417103D

 25 28  0  0  1  0  0  0  0  0999 V2000
  190.7730  178.2890  145.6650 C   0  0  0  0  0  2  0  0  0  0  0  0
  184.2620  178.6280  145.4430 C   0  0  0  0  0  0  0  0  0  0  0  0
  188.2700  177.6230  142.7440 N   0  0  0  0  0  2  0  0  0  0  0  0
  186.9640  177.8530  145.4280 C   0  0  0  0  0  0  0  0  0  0  0  0
  186.9780  178.1110  142.9300 N   0  0  0  0  0  0  0  0  0  0  0  0
  190.9390  175.9150  142.2230 C   0  0  0  0  0  3  0  0  0  0  0  0
  187.6130  178.3530  139.4590 C   0  0  0  0  0  0  0  0  0  0  0  0
  187.6990  178.9300  140.8230 C   0  0  2  0  0  3  0  0  0  0  0  0
  186.3040  178.1480  144.2030 C   0  0  0  0  0  0  0  0  0  0  0  0
  182.9580  178.9980  145.4500 F   0  0  0  0  0  0  0  0  0  0  0  0
  188.4160  177.4630  145.4850 C   0  0  1  0  0  3  0  0  0  0  0  0
  186.2560  177.9750  146.6340 C   0  0  0  0  0  3  0  0  0  0  0  0
  191.5050  178.8960  144.4710 C   0  0  0  0  0  2  0  0  0  0  0  0
  186.6030  178.3870  138.7740 O   0  0  0  0  0  0  0  0  0  0  0  0
  189.1240  177.5530  138.9290 S   0  0  0  0  0  0  0  0  0  0  0  0
  189.3030  178.6850  145.6970 C   0  0  0  0  0  2  0  0  0  0  0  0
  188.6950  178.0470  141.4680 C   0  0  2  0  0  3  0  0  0  0  0  0
  188.6370  176.5120  146.4850 O   0  0  0  0  0  1  0  0  0  0  0  0
  191.1170  178.2400  143.1520 C   0  0  0  0  0  2  0  0  0  0  0  0
  189.4920  177.3310  140.6730 C   0  0  1  0  0  3  0  0  0  0  0  0
  190.2290  176.1270  141.1040 C   0  0  0  0  0  3  0  0  0  0  0  0
  184.9140  178.3560  146.6430 C   0  0  0  0  0  3  0  0  0  0  0  0
  184.9540  178.5320  144.2360 C   0  0  0  0  0  3  0  0  0  0  0  0
  191.2450  176.8280  143.2440 O   0  0  0  0  0  0  0  0  0  0  0  0
  186.4610  178.7310  141.7090 C   0  0  0  0  0  2  0  0  0  0  0  0
  1 16  1  0  0  0  0
  2 10  1  0  0  0  0
  2 22  1  0  0  0  0
  3  5  1  0  0  0  0
  4 11  1  0  0  0  0
  4 12  1  0  0  0  0
  5  9  1  0  0  0  0
  6 24  1  0  0  0  0
  7  8  1  0  0  0  0
  8 17  1  0  0  0  0
  8 25  1  1  0  0  0
  9 23  1  0  0  0  0
  9  4  2  0  0  0  0
 11 16  1  0  0  0  0
 11 18  1  1  0  0  0
 12 22  2  0  0  0  0
 13  1  1  0  0  0  0
 14  7  2  0  0  0  0
 15  7  1  0  0  0  0
 15 20  1  0  0  0  0
 17  3  1  1  0  0  0
 19 24  1  0  0  0  0
 19 13  1  0  0  0  0
 20 21  1  1  0  0  0
 20 17  1  0  0  0  0
 21  6  2  0  0  0  0
 23  2  2  0  0  0  0
 25  5  1  0  0  0  0
M  END
>  <MODEL>
1

>  <REMARK>
 VINA RESULT:      -7.9      0.000      0.000
  Name = 
  0 active torsions:
  status: ('A' for Active; 'I' for Inactive)
                            x       y       z     vdW  Elec       q    Type
                         _______ _______ _______ _____ _____    ______ ____

>  <TORSDO>
F 0

$$$$
=
 OpenBabel10222417103D

 25 28  0  0  1  0  0  0  0  0999 V2000
  184.5540  177.7930  137.7850 C   0  0  0  0  0  2  0  0  0  0  0  0
  184.6460  178.6890  144.2460 C   0  0  0  0  0  0  0  0  0  0  0  0
  187.5310  178.2860  140.2620 N   0  0  0  0  0  2  0  0  0  0  0  0
  184.8530  178.9010  141.4500 C   0  0  0  0  0  0  0  0  0  0  0  0
  187.2320  178.1110  141.6110 N   0  0  0  0  0  0  0  0  0  0  0  0
  188.4380  179.2880  137.3490 C   0  0  0  0  0  3  0  0  0  0  0  0
  190.5670  177.0060  141.2100 C   0  0  0  0  0  0  0  0  0  0  0  0
  189.1090  176.7320  141.1650 C   0  0  2  0  0  3  0  0  0  0  0  0
  185.9770  178.4820  142.2150 C   0  0  0  0  0  0  0  0  0  0  0  0
  184.5470  178.5910  145.5940 F   0  0  0  0  0  0  0  0  0  0  0  0
  184.8950  179.0040  139.9500 C   0  0  1  0  0  3  0  0  0  0  0  0
  183.6440  179.1830  142.1070 C   0  0  0  0  0  3  0  0  0  0  0  0
  185.5900  176.8120  137.2410 C   0  0  0  0  0  2  0  0  0  0  0  0
  191.2190  177.0220  142.2410 O   0  0  0  0  0  0  0  0  0  0  0  0
  191.2730  177.3620  139.6040 S   0  0  0  0  0  0  0  0  0  0  0  0
  184.4240  177.7070  139.3000 C   0  0  0  0  0  2  0  0  0  0  0  0
  188.6850  177.5220  139.9900 C   0  0  2  0  0  3  0  0  0  0  0  0
  184.1330  180.0870  139.5030 O   0  0  0  0  0  1  0  0  0  0  0  0
  187.0180  177.2300  137.5650 C   0  0  0  0  0  2  0  0  0  0  0  0
  189.6250  177.8800  139.1130 C   0  0  1  0  0  3  0  0  0  0  0  0
  189.4770  178.9810  138.1420 C   0  0  0  0  0  3  0  0  0  0  0  0
  183.5410  179.0830  143.4940 C   0  0  0  0  0  3  0  0  0  0  0  0
  185.8490  178.3860  143.6110 C   0  0  0  0  0  3  0  0  0  0  0  0
  187.2430  178.5750  137.1690 O   0  0  0  0  0  0  0  0  0  0  0  0
  188.2810  177.3560  142.2970 C   0  0  0  0  0  2  0  0  0  0  0  0
  1 16  1  0  0  0  0
  2 10  1  0  0  0  0
  3  5  1  0  0  0  0
  4 12  2  0  0  0  0
  4  9  1  0  0  0  0
  5  9  1  0  0  0  0
  5 25  1  0  0  0  0
  6 21  2  0  0  0  0
  7 14  2  0  0  0  0
  8  7  1  0  0  0  0
  8 25  1  1  0  0  0
  9 23  2  0  0  0  0
 11 18  1  6  0  0  0
 11  4  1  0  0  0  0
 12 22  1  0  0  0  0
 13 19  1  0  0  0  0
 13  1  1  0  0  0  0
 15  7  1  0  0  0  0
 16 11  1  0  0  0  0
 17  3  1  1  0  0  0
 17  8  1  0  0  0  0
 20 21  1  1  0  0  0
 20 15  1  0  0  0  0
 20 17  1  0  0  0  0
 22  2  2  0  0  0  0
 23  2  1  0  0  0  0
 24  6  1  0  0  0  0
 24 19  1  0  0  0  0
M  END
>  <MODEL>
2

>  <REMARK>
 VINA RESULT:      -7.9      2.353      5.300
  Name = 
  0 active torsions:
  status: ('A' for Active; 'I' for Inactive)
                            x       y       z     vdW  Elec       q    Type
                         _______ _______ _______ _____ _____    ______ ____

>  <TORSDO>
F 0

$$$$
=
 OpenBabel10222417103D

 25 28  0  0  1  0  0  0  0  0999 V2000
  189.7690  176.9430  140.7100 C   0  0  0  0  0  2  0  0  0  0  0  0
  183.8580  178.6280  142.8950 C   0  0  0  0  0  0  0  0  0  0  0  0
  188.5620  178.0240  144.2610 N   0  0  0  0  0  2  0  0  0  0  0  0
  186.5510  178.5150  142.0980 C   0  0  0  0  0  0  0  0  0  0  0  0
  187.1850  177.9860  144.4710 N   0  0  0  0  0  0  0  0  0  0  0  0
  191.6770  178.7450  143.9680 C   0  0  0  0  0  3  0  0  0  0  0  0
  188.6570  177.1710  147.5810 C   0  0  0  0  0  0  0  0  0  0  0  0
  188.1580  176.7530  146.2470 C   0  0  2  0  0  3  0  0  0  0  0  0
  186.2060  178.3050  143.4620 C   0  0  0  0  0  0  0  0  0  0  0  0
  182.5600  178.6860  143.2800 F   0  0  0  0  0  0  0  0  0  0  0  0
  187.9720  178.4370  141.6080 C   0  0  1  0  0  3  0  0  0  0  0  0
  185.5330  178.7560  141.1630 C   0  0  0  0  0  3  0  0  0  0  0  0
  190.5650  176.0080  141.6170 C   0  0  0  0  0  2  0  0  0  0  0  0
  187.9310  177.3770  148.5400 O   0  0  0  0  0  0  0  0  0  0  0  0
  190.4320  177.3950  147.6370 S   0  0  0  0  0  0  0  0  0  0  0  0
  188.3050  177.0310  141.1210 C   0  0  0  0  0  2  0  0  0  0  0  0
  189.1640  177.3480  145.3420 C   0  0  2  0  0  3  0  0  0  0  0  0
  188.2030  179.3780  140.6000 O   0  0  0  0  0  1  0  0  0  0  0  0
  190.8050  176.6000  142.9990 C   0  0  0  0  0  2  0  0  0  0  0  0
  190.3440  177.6860  145.8670 C   0  0  1  0  0  3  0  0  0  0  0  0
  191.2840  178.6400  145.2480 C   0  0  0  0  0  3  0  0  0  0  0  0
  184.1960  178.8170  141.5570 C   0  0  0  0  0  3  0  0  0  0  0  0
  184.8530  178.3680  143.8360 C   0  0  0  0  0  3  0  0  0  0  0  0
  191.3620  177.9020  142.8910 O   0  0  0  0  0  0  0  0  0  0  0  0
  186.8590  177.4270  145.7830 C   0  0  0  0  0  2  0  0  0  0  0  0
  1 16  1  0  0  0  0
  1 13  1  0  0  0  0
  2 10  1  0  0  0  0
  2 23  1  0  0  0  0
  3  5  1  0  0  0  0
  4  9  1  0  0  0  0
  5 25  1  0  0  0  0
  6 21  2  0  0  0  0
  7 15  1  0  0  0  0
  7 14  2  0  0  0  0
  8 25  1  6  0  0  0
  8  7  1  0  0  0  0
  9 23  2  0  0  0  0
  9  5  1  0  0  0  0
 11 18  1  6  0  0  0
 11  4  1  0  0  0  0
 12 22  1  0  0  0  0
 12  4  2  0  0  0  0
 13 19  1  0  0  0  0
 16 11  1  0  0  0  0
 17  3  1  1  0  0  0
 17 20  1  0  0  0  0
 17  8  1  0  0  0  0
 20 21  1  1  0  0  0
 20 15  1  0  0  0  0
 22  2  2  0  0  0  0
 24 19  1  0  0  0  0
 24  6  1  0  0  0  0
M  END
>  <MODEL>
3

>  <REMARK>
 VINA RESULT:      -7.3      2.230      4.884
  Name = 
  0 active torsions:
  status: ('A' for Active; 'I' for Inactive)
                            x       y       z     vdW  Elec       q    Type
                         _______ _______ _______ _____ _____    ______ ____

>  <TORSDO>
F 0

$$$$
=
 OpenBabel10222417103D

 25 28  0  0  1  0  0  0  0  0999 V2000
  190.1970  176.9740  140.1320 C   0  0  0  0  0  2  0  0  0  0  0  0
  183.9390  178.6410  140.9160 C   0  0  0  0  0  0  0  0  0  0  0  0
  188.2490  178.2100  143.2820 N   0  0  0  0  0  2  0  0  0  0  0  0
  186.7410  178.5460  140.7170 C   0  0  0  0  0  0  0  0  0  0  0  0
  186.8600  178.1540  143.1960 N   0  0  0  0  0  0  0  0  0  0  0  0
  191.3480  178.9820  143.6180 C   0  0  0  0  0  3  0  0  0  0  0  0
  187.6430  177.5320  146.5870 C   0  0  0  0  0  0  0  0  0  0  0  0
  187.4440  177.0340  145.2030 C   0  0  2  0  0  3  0  0  0  0  0  0
  186.1150  178.3980  141.9860 C   0  0  0  0  0  0  0  0  0  0  0  0
  182.5880  178.6900  141.0130 F   0  0  0  0  0  0  0  0  0  0  0  0
  188.2350  178.4730  140.5450 C   0  0  1  0  0  3  0  0  0  0  0  0
  185.9430  178.7160  139.5750 C   0  0  0  0  0  3  0  0  0  0  0  0
  190.7910  176.1050  141.2370 C   0  0  0  0  0  2  0  0  0  0  0  0
  186.7270  177.7700  147.3570 O   0  0  0  0  0  0  0  0  0  0  0  0
  189.3630  177.7960  147.0070 S   0  0  0  0  0  0  0  0  0  0  0  0
  188.6780  177.0520  140.2180 C   0  0  0  0  0  2  0  0  0  0  0  0
  188.6140  177.6030  144.5020 C   0  0  2  0  0  3  0  0  0  0  0  0
  188.6660  179.3660  139.5590 O   0  0  0  0  0  1  0  0  0  0  0  0
  190.7250  176.7720  142.6050 C   0  0  0  0  0  2  0  0  0  0  0  0
  189.6510  177.9940  145.2450 C   0  0  1  0  0  3  0  0  0  0  0  0
  190.6920  178.9350  144.7890 C   0  0  0  0  0  3  0  0  0  0  0  0
  184.5530  178.7680  139.6720 C   0  0  0  0  0  3  0  0  0  0  0  0
  184.7130  178.4510  142.0600 C   0  0  0  0  0  3  0  0  0  0  0  0
  191.2780  178.0790  142.5470 O   0  0  0  0  0  0  0  0  0  0  0  0
  186.2670  177.6550  144.4370 C   0  0  0  0  0  2  0  0  0  0  0  0
  1 16  1  0  0  0  0
  1 13  1  0  0  0  0
  2 10  1  0  0  0  0
  2 23  1  0  0  0  0
  4  9  1  0  0  0  0
  5  3  1  0  0  0  0
  5 25  1  0  0  0  0
  6 21  2  0  0  0  0
  7 15  1  0  0  0  0
  7 14  2  0  0  0  0
  8 25  1  6  0  0  0
  8  7  1  0  0  0  0
  9 23  2  0  0  0  0
  9  5  1  0  0  0  0
 11 18  1  6  0  0  0
 11  4  1  0  0  0  0
 12 22  1  0  0  0  0
 12  4  2  0  0  0  0
 13 19  1  0  0  0  0
 16 11  1  0  0  0  0
 17  3  1  1  0  0  0
 17  8  1  0  0  0  0
 17 20  1  0  0  0  0
 20 21  1  1  0  0  0
 20 15  1  0  0  0  0
 22  2  2  0  0  0  0
 24 19  1  0  0  0  0
 24  6  1  0  0  0  0
M  END
>  <MODEL>
4

>  <REMARK>
 VINA RESULT:      -7.2      2.301      5.021
  Name = 
  0 active torsions:
  status: ('A' for Active; 'I' for Inactive)
                            x       y       z     vdW  Elec       q    Type
                         _______ _______ _______ _____ _____    ______ ____

>  <TORSDO>
F 0

$$$$
=
 OpenBabel10222417103D

 25 28  0  0  1  0  0  0  0  0999 V2000
  191.7290  176.0850  146.4740 C   0  0  0  0  0  2  0  0  0  0  0  0
  189.9930  177.6350  140.3800 C   0  0  0  0  0  0  0  0  0  0  0  0
  188.5500  177.8810  145.0930 N   0  0  0  0  0  2  0  0  0  0  0  0
  190.7540  177.6090  143.0860 C   0  0  0  0  0  0  0  0  0  0  0  0
  188.3290  177.7540  143.7240 N   0  0  0  0  0  0  0  0  0  0  0  0
  189.0330  178.8270  148.1240 C   0  0  0  0  0  3  0  0  0  0  0  0
  185.1240  177.8930  145.2100 C   0  0  0  0  0  0  0  0  0  0  0  0
  186.3080  177.1070  144.7830 C   0  0  2  0  0  3  0  0  0  0  0  0
  189.3790  177.7090  142.7370 C   0  0  0  0  0  0  0  0  0  0  0  0
  189.6260  177.6510  139.0750 F   0  0  0  0  0  0  0  0  0  0  0  0
  191.2190  177.5600  144.5160 C   0  0  1  0  0  3  0  0  0  0  0  0
  191.7140  177.5030  142.0660 C   0  0  0  0  0  3  0  0  0  0  0  0
  190.6240  175.4920  147.3430 C   0  0  0  0  0  2  0  0  0  0  0  0
  184.2410  178.2530  144.4480 O   0  0  0  0  0  0  0  0  0  0  0  0
  185.1360  178.3070  146.9510 S   0  0  0  0  0  0  0  0  0  0  0  0
  191.3430  176.1200  145.0010 C   0  0  0  0  0  2  0  0  0  0  0  0
  187.3390  177.5610  145.7410 C   0  0  2  0  0  3  0  0  0  0  0  0
  192.4310  178.2400  144.6700 O   0  0  0  0  0  1  0  0  0  0  0  0
  189.4330  176.4300  147.4950 C   0  0  0  0  0  2  0  0  0  0  0  0
  186.9230  178.1390  146.8690 C   0  0  1  0  0  3  0  0  0  0  0  0
  187.7650  179.0030  147.7190 C   0  0  0  0  0  3  0  0  0  0  0  0
  191.3380  177.5200  140.7230 C   0  0  0  0  0  3  0  0  0  0  0  0
  189.0240  177.7210  141.3780 C   0  0  0  0  0  3  0  0  0  0  0  0
  189.8650  177.7160  147.9180 O   0  0  0  0  0  0  0  0  0  0  0  0
  186.9170  177.5060  143.4310 C   0  0  0  0  0  2  0  0  0  0  0  0
  1 13  1  0  0  0  0
  2 22  2  0  0  0  0
  2 23  1  0  0  0  0
  4 11  1  0  0  0  0
  5  3  1  0  0  0  0
  7 15  1  0  0  0  0
  8 25  1  6  0  0  0
  8  7  1  0  0  0  0
  8 17  1  0  0  0  0
  9  4  1  0  0  0  0
  9  5  1  0  0  0  0
 10  2  1  0  0  0  0
 11 18  1  6  0  0  0
 11 16  1  0  0  0  0
 12  4  2  0  0  0  0
 13 19  1  0  0  0  0
 14  7  2  0  0  0  0
 16  1  1  0  0  0  0
 17  3  1  6  0  0  0
 17 20  1  0  0  0  0
 19 24  1  0  0  0  0
 20 15  1  0  0  0  0
 20 21  1  6  0  0  0
 21  6  2  0  0  0  0
 22 12  1  0  0  0  0
 23  9  2  0  0  0  0
 24  6  1  0  0  0  0
 25  5  1  0  0  0  0
M  END
>  <MODEL>
5

>  <REMARK>
 VINA RESULT:      -7.2      3.263      5.698
  Name = 
  0 active torsions:
  status: ('A' for Active; 'I' for Inactive)
                            x       y       z     vdW  Elec       q    Type
                         _______ _______ _______ _____ _____    ______ ____

>  <TORSDO>
F 0

$$$$
=
 OpenBabel10222417103D

 25 28  0  0  1  0  0  0  0  0999 V2000
  192.4830  177.1010  141.5390 C   0  0  0  0  0  2  0  0  0  0  0  0
  186.7440  177.8860  144.5410 C   0  0  0  0  0  0  0  0  0  0  0  0
  188.8310  176.9520  140.1670 N   0  0  0  0  0  2  0  0  0  0  0  0
  189.0020  176.9440  143.1560 C   0  0  0  0  0  0  0  0  0  0  0  0
  187.8510  177.4970  140.9930 N   0  0  0  0  0  0  0  0  0  0  0  0
  190.7120  175.1490  138.2900 C   0  0  0  0  0  3  0  0  0  0  0  0
  186.7740  178.1090  137.6810 C   0  0  0  0  0  0  0  0  0  0  0  0
  187.5660  178.5130  138.8690 C   0  0  2  0  0  3  0  0  0  0  0  0
  187.8760  177.4260  142.4320 C   0  0  0  0  0  0  0  0  0  0  0  0
  185.6540  178.3360  145.2080 F   0  0  0  0  0  0  0  0  0  0  0  0
  190.2500  176.4570  142.4700 C   0  0  1  0  0  3  0  0  0  0  0  0
  188.9760  176.9670  144.5590 C   0  0  0  0  0  3  0  0  0  0  0  0
  192.6200  177.7970  140.1880 C   0  0  0  0  0  2  0  0  0  0  0  0
  185.5710  178.2900  137.5790 O   0  0  0  0  0  0  0  0  0  0  0  0
  187.7450  177.2820  136.4250 S   0  0  0  0  0  0  0  0  0  0  0  0
  191.2630  177.5850  142.3120 C   0  0  0  0  0  2  0  0  0  0  0  0
  188.6400  177.4970  138.8800 C   0  0  2  0  0  3  0  0  0  0  0  0
  190.8110  175.3810  143.1640 O   0  0  0  0  0  1  0  0  0  0  0  0
  191.5770  177.3300  139.1810 C   0  0  0  0  0  2  0  0  0  0  0  0
  188.8730  176.8300  137.7480 C   0  0  1  0  0  3  0  0  0  0  0  0
  189.5830  175.5380  137.6760 C   0  0  0  0  0  3  0  0  0  0  0  0
  187.8550  177.4300  145.2480 C   0  0  0  0  0  3  0  0  0  0  0  0
  186.7590  177.8900  143.1470 C   0  0  0  0  0  3  0  0  0  0  0  0
  191.5710  175.9120  139.0950 O   0  0  0  0  0  0  0  0  0  0  0  0
  186.8880  178.2900  140.2280 C   0  0  0  0  0  2  0  0  0  0  0  0
  1 16  1  0  0  0  0
  2 10  1  0  0  0  0
  2 22  1  0  0  0  0
  3  5  1  0  0  0  0
  4 12  1  0  0  0  0
  5  9  1  0  0  0  0
  6 24  1  0  0  0  0
  7  8  1  0  0  0  0
  8 17  1  0  0  0  0
  8 25  1  1  0  0  0
  9 23  1  0  0  0  0
  9  4  2  0  0  0  0
 11  4  1  0  0  0  0
 11 18  1  1  0  0  0
 12 22  2  0  0  0  0
 13  1  1  0  0  0  0
 14  7  2  0  0  0  0
 15  7  1  0  0  0  0
 15 20  1  0  0  0  0
 16 11  1  0  0  0  0
 17  3  1  1  0  0  0
 19 13  1  0  0  0  0
 20 21  1  1  0  0  0
 20 17  1  0  0  0  0
 21  6  2  0  0  0  0
 23  2  2  0  0  0  0
 24 19  1  0  0  0  0
 25  5  1  0  0  0  0
M  END
>  <MODEL>
6

>  <REMARK>
 VINA RESULT:      -6.5      2.165      3.244
  Name = 
  0 active torsions:
  status: ('A' for Active; 'I' for Inactive)
                            x       y       z     vdW  Elec       q    Type
                         _______ _______ _______ _____ _____    ______ ____

>  <TORSDO>
F 0

$$$$
=
 OpenBabel10222417103D

 25 28  0  0  1  0  0  0  0  0999 V2000
  189.3300  176.3270  137.1120 C   0  0  0  0  0  2  0  0  0  0  0  0
  184.4180  179.0250  140.4520 C   0  0  0  0  0  0  0  0  0  0  0  0
  189.1170  177.5590  140.8100 N   0  0  0  0  0  2  0  0  0  0  0  0
  186.8170  178.4370  139.1080 C   0  0  0  0  0  0  0  0  0  0  0  0
  187.8320  177.7690  141.3060 N   0  0  0  0  0  0  0  0  0  0  0  0
  192.1780  177.7080  139.8490 C   0  0  0  0  0  3  0  0  0  0  0  0
  189.7590  176.6570  144.0550 C   0  0  0  0  0  0  0  0  0  0  0  0
  188.9210  176.3550  142.8680 C   0  0  2  0  0  3  0  0  0  0  0  0
  186.7360  178.2740  140.5190 C   0  0  0  0  0  0  0  0  0  0  0  0
  183.2630  179.3120  141.1010 F   0  0  0  0  0  0  0  0  0  0  0  0
  188.0630  178.1100  138.3320 C   0  0  1  0  0  3  0  0  0  0  0  0
  185.6830  178.8720  138.4030 C   0  0  0  0  0  3  0  0  0  0  0  0
  190.1180  175.2510  137.8540 C   0  0  0  0  0  2  0  0  0  0  0  0
  189.3010  176.9770  145.1400 O   0  0  0  0  0  0  0  0  0  0  0  0
  191.5160  176.5550  143.7310 S   0  0  0  0  0  0  0  0  0  0  0  0
  188.0270  176.6740  137.8200 C   0  0  0  0  0  2  0  0  0  0  0  0
  189.8040  176.7700  141.7570 C   0  0  2  0  0  3  0  0  0  0  0  0
  188.2410  179.0070  137.2750 O   0  0  0  0  0  1  0  0  0  0  0  0
  190.7490  175.7710  139.1400 C   0  0  0  0  0  2  0  0  0  0  0  0
  191.1090  176.8820  142.0120 C   0  0  1  0  0  3  0  0  0  0  0  0
  192.0530  177.6580  141.1850 C   0  0  0  0  0  3  0  0  0  0  0  0
  184.4940  179.1680  139.0680 C   0  0  0  0  0  3  0  0  0  0  0  0
  185.5270  178.5750  141.1680 C   0  0  0  0  0  3  0  0  0  0  0  0
  191.4950  176.9510  138.8840 O   0  0  0  0  0  0  0  0  0  0  0  0
  187.6970  177.2590  142.6710 C   0  0  0  0  0  2  0  0  0  0  0  0
  1 16  1  0  0  0  0
  1 13  1  0  0  0  0
  2 10  1  0  0  0  0
  2 23  1  0  0  0  0
  3  5  1  0  0  0  0
  4  9  1  0  0  0  0
  5 25  1  0  0  0  0
  6 21  2  0  0  0  0
  7 14  2  0  0  0  0
  8 25  1  1  0  0  0
  8  7  1  0  0  0  0
  9 23  2  0  0  0  0
  9  5  1  0  0  0  0
 11 18  1  6  0  0  0
 11  4  1  0  0  0  0
 12 22  1  0  0  0  0
 12  4  2  0  0  0  0
 13 19  1  0  0  0  0
 15  7  1  0  0  0  0
 16 11  1  0  0  0  0
 17  3  1  1  0  0  0
 17 20  1  0  0  0  0
 17  8  1  0  0  0  0
 20 21  1  1  0  0  0
 20 15  1  0  0  0  0
 22  2  2  0  0  0  0
 24 19  1  0  0  0  0
 24  6  1  0  0  0  0
M  END
>  <MODEL>
7

>  <REMARK>
 VINA RESULT:      -6.4      2.794      5.592
  Name = 
  0 active torsions:
  status: ('A' for Active; 'I' for Inactive)
                            x       y       z     vdW  Elec       q    Type
                         _______ _______ _______ _____ _____    ______ ____

>  <TORSDO>
F 0

$$$$
=
 OpenBabel10222417103D

 25 28  0  0  1  0  0  0  0  0999 V2000
  188.4280  176.9490  143.9650 C   0  0  0  0  0  2  0  0  0  0  0  0
  187.8840  178.2330  137.5930 C   0  0  0  0  0  0  0  0  0  0  0  0
  185.5660  178.6540  141.9300 N   0  0  0  0  0  2  0  0  0  0  0  0
  188.1140  178.3250  140.3930 C   0  0  0  0  0  0  0  0  0  0  0  0
  185.6110  178.4700  140.5500 N   0  0  0  0  0  0  0  0  0  0  0  0
  185.4590  179.7270  144.9550 C   0  0  0  0  0  3  0  0  0  0  0  0
  182.1810  178.6350  141.3910 C   0  0  0  0  0  0  0  0  0  0  0  0
  183.4270  177.8450  141.2300 C   0  0  2  0  0  3  0  0  0  0  0  0
  186.8300  178.3960  139.7840 C   0  0  0  0  0  0  0  0  0  0  0  0
  187.7730  178.1930  136.2430 F   0  0  0  0  0  0  0  0  0  0  0  0
  188.2970  178.3390  141.8870 C   0  0  1  0  0  3  0  0  0  0  0  0
  189.2510  178.1880  139.5810 C   0  0  0  0  0  3  0  0  0  0  0  0
  187.1780  176.3810  144.6320 C   0  0  0  0  0  2  0  0  0  0  0  0
  181.4590  178.9540  140.4590 O   0  0  0  0  0  0  0  0  0  0  0  0
  181.8590  179.1190  143.0830 S   0  0  0  0  0  0  0  0  0  0  0  0
  188.3300  176.9210  142.4460 C   0  0  0  0  0  2  0  0  0  0  0  0
  184.2540  178.3480  142.3470 C   0  0  2  0  0  3  0  0  0  0  0  0
  189.4550  179.0370  142.2400 O   0  0  0  0  0  1  0  0  0  0  0  0
  185.9780  177.3120  144.5140 C   0  0  0  0  0  2  0  0  0  0  0  0
  183.6290  178.9670  143.3500 C   0  0  1  0  0  3  0  0  0  0  0  0
  184.2910  179.8730  144.3080 C   0  0  0  0  0  3  0  0  0  0  0  0
  189.1390  178.1470  138.1910 C   0  0  0  0  0  3  0  0  0  0  0  0
  186.7410  178.3490  138.3830 C   0  0  0  0  0  3  0  0  0  0  0  0
  186.3180  178.6170  144.9580 O   0  0  0  0  0  0  0  0  0  0  0  0
  184.2820  178.1950  140.0030 C   0  0  0  0  0  2  0  0  0  0  0  0
  1 13  1  0  0  0  0
  2 22  2  0  0  0  0
  2 23  1  0  0  0  0
  4 11  1  0  0  0  0
  5  3  1  0  0  0  0
  6 24  1  0  0  0  0
  7 15  1  0  0  0  0
  8 25  1  6  0  0  0
  8  7  1  0  0  0  0
  8 17  1  0  0  0  0
  9  4  1  0  0  0  0
  9  5  1  0  0  0  0
 10  2  1  0  0  0  0
 11 18  1  6  0  0  0
 11 16  1  0  0  0  0
 12  4  2  0  0  0  0
 14  7  2  0  0  0  0
 15 20  1  0  0  0  0
 16  1  1  0  0  0  0
 17  3  1  6  0  0  0
 17 20  1  0  0  0  0
 19 13  1  0  0  0  0
 19 24  1  0  0  0  0
 20 21  1  6  0  0  0
 21  6  2  0  0  0  0
 22 12  1  0  0  0  0
 23  9  2  0  0  0  0
 25  5  1  0  0  0  0
M  END
>  <MODEL>
8

>  <REMARK>
 VINA RESULT:      -6.1      3.562      6.067
  Name = 
  0 active torsions:
  status: ('A' for Active; 'I' for Inactive)
                            x       y       z     vdW  Elec       q    Type
                         _______ _______ _______ _____ _____    ______ ____

>  <TORSDO>
F 0

$$$$
=
 OpenBabel10222417103D

 25 28  0  0  1  0  0  0  0  0999 V2000
  189.4310  178.2450  137.1260 C   0  0  0  0  0  2  0  0  0  0  0  0
  189.3410  178.0130  143.6450 C   0  0  0  0  0  0  0  0  0  0  0  0
  186.4700  177.8240  139.6350 N   0  0  0  0  0  2  0  0  0  0  0  0
  189.1700  177.5020  140.8850 C   0  0  0  0  0  0  0  0  0  0  0  0
  186.7460  178.1550  140.9600 N   0  0  0  0  0  0  0  0  0  0  0  0
  185.6500  176.4740  136.8390 C   0  0  0  0  0  3  0  0  0  0  0  0
  183.3530  179.0030  140.4400 C   0  0  0  0  0  0  0  0  0  0  0  0
  184.7910  179.3620  140.3700 C   0  0  2  0  0  3  0  0  0  0  0  0
  188.0160  177.9270  141.6010 C   0  0  0  0  0  0  0  0  0  0  0  0
  189.4220  178.2550  144.9760 F   0  0  0  0  0  0  0  0  0  0  0  0
  189.1470  177.2440  139.4030 C   0  0  1  0  0  3  0  0  0  0  0  0
  190.3890  177.3650  141.5700 C   0  0  0  0  0  3  0  0  0  0  0  0
  188.3420  179.0990  136.4820 C   0  0  0  0  0  2  0  0  0  0  0  0
  182.6940  179.0530  141.4660 O   0  0  0  0  0  0  0  0  0  0  0  0
  182.6830  178.4410  138.8780 S   0  0  0  0  0  0  0  0  0  0  0  0
  189.5430  178.4930  138.6250 C   0  0  0  0  0  2  0  0  0  0  0  0
  185.2730  178.4830  139.2830 C   0  0  2  0  0  3  0  0  0  0  0  0
  189.9790  176.1700  139.0720 O   0  0  0  0  0  1  0  0  0  0  0  0
  186.9390  178.6280  136.8450 C   0  0  0  0  0  2  0  0  0  0  0  0
  184.3640  177.9790  138.4460 C   0  0  1  0  0  3  0  0  0  0  0  0
  184.5880  176.7950  137.5940 C   0  0  0  0  0  3  0  0  0  0  0  0
  190.4740  177.6140  142.9390 C   0  0  0  0  0  3  0  0  0  0  0  0
  188.1270  178.1740  142.9790 C   0  0  0  0  0  3  0  0  0  0  0  0
  186.8010  177.2380  136.5880 O   0  0  0  0  0  0  0  0  0  0  0  0
  185.6470  178.9100  141.5620 C   0  0  0  0  0  2  0  0  0  0  0  0
  1 16  1  0  0  0  0
  2 10  1  0  0  0  0
  3  5  1  0  0  0  0
  4 12  2  0  0  0  0
  4  9  1  0  0  0  0
  5 25  1  0  0  0  0
  5  9  1  0  0  0  0
  6 21  2  0  0  0  0
  7 14  2  0  0  0  0
  8  7  1  0  0  0  0
  8 25  1  1  0  0  0
  9 23  2  0  0  0  0
 11 18  1  1  0  0  0
 11  4  1  0  0  0  0
 12 22  1  0  0  0  0
 13 19  1  0  0  0  0
 13  1  1  0  0  0  0
 15  7  1  0  0  0  0
 16 11  1  0  0  0  0
 17  3  1  1  0  0  0
 17  8  1  0  0  0  0
 20 21  1  1  0  0  0
 20 15  1  0  0  0  0
 20 17  1  0  0  0  0
 22  2  2  0  0  0  0
 23  2  1  0  0  0  0
 24  6  1  0  0  0  0
 24 19  1  0  0  0  0
M  END
>  <MODEL>
9

>  <REMARK>
 VINA RESULT:      -6.1      3.391      5.945
  Name = 
  0 active torsions:
  status: ('A' for Active; 'I' for Inactive)
                            x       y       z     vdW  Elec       q    Type
                         _______ _______ _______ _____ _____    ______ ____

>  <TORSDO>
F 0

$$$$
