=
 OpenBabel10222420503D

 68 78  0  0  1  0  0  0  0  0999 V2000
  185.3640  175.7210  137.0310 C   0  0  0  0  0  3  0  0  0  0  0  0
  188.2780  178.1750  141.1410 C   0  0  0  0  0  2  0  0  0  0  0  0
  191.8930  178.2770  140.4940 C   0  0  0  0  0  3  0  0  0  0  0  0
  186.0680  178.3300  140.0070 C   0  0  2  0  0  3  0  0  0  0  0  0
  185.4180  178.4320  142.3720 F   0  0  0  0  0  0  0  0  0  0  0  0
  192.3570  175.8780  135.6970 C   0  0  0  0  0  0  0  0  0  0  0  0
  189.3750  178.9690  141.8250 C   0  0  0  0  0  2  0  0  0  0  0  0
  192.3250  176.3730  137.0720 C   0  0  0  0  0  3  0  0  0  0  0  0
  189.1500  177.0060  135.7280 C   0  0  0  0  0  0  0  0  0  0  0  0
  183.6110  177.3740  138.4380 N   0  0  0  0  0  0  0  0  0  0  0  0
  194.1880  174.3500  136.2340 C   0  0  1  0  0  3  0  0  0  0  0  0
  194.3490  172.8520  135.9110 C   0  0  2  0  0  3  0  0  0  0  0  0
  183.1490  177.2700  142.0540 F   0  0  0  0  0  0  0  0  0  0  0  0
  187.8710  176.6080  136.1470 C   0  0  0  0  0  0  0  0  0  0  0  0
  190.0600  177.4900  143.6630 N   0  0  0  0  0  0  0  0  0  0  0  0
  193.4500  173.4250  138.4990 C   0  0  0  0  0  2  0  0  0  0  0  0
  188.3210  174.4030  135.3490 N   0  0  0  0  0  2  0  0  0  0  0  0
  190.3530  178.0280  142.4480 C   0  0  0  0  0  0  0  0  0  0  0  0
  186.9990  177.4960  136.7930 C   0  0  0  0  0  3  0  0  0  0  0  0
  187.4710  175.2720  135.9450 C   0  0  0  0  0  0  0  0  0  0  0  0
  185.4620  179.0390  138.8140 C   0  0  1  0  0  3  0  0  0  0  0  0
  183.2250  177.0770  139.6510 C   0  0  0  0  0  0  0  0  0  0  0  0
  195.1050  172.1290  137.0240 C   0  0  0  0  0  2  0  0  0  0  0  0
  184.7890  178.0430  137.8820 C   0  0  1  0  0  3  0  0  0  0  0  0
  195.0890  172.6730  134.5940 C   0  0  0  0  0  1  0  0  0  0  0  0
  192.8590  176.2870  139.4530 C   0  0  0  0  0  2  0  0  0  0  0  0
  193.1540  174.9190  135.3600 N   0  0  0  0  0  0  0  0  0  0  0  0
  192.0020  176.1080  143.5940 C   0  0  0  0  0  3  0  0  0  0  0  0
  193.9960  174.6610  137.7590 C   0  0  1  0  0  0  0  0  0  0  0  0
  192.5100  177.6990  139.5080 N   0  0  0  0  0  0  0  0  0  0  0  0
  183.8780  177.4990  140.9300 C   0  0  0  0  0  0  0  0  0  0  0  0
  189.5620  178.1860  135.9270 O   0  0  0  0  0  0  0  0  0  0  0  0
  185.0720  178.0820  141.1030 C   0  0  0  0  0  0  0  0  0  0  0  0
  190.8570  176.5620  144.2580 C   0  0  0  0  0  0  0  0  0  0  0  0
  187.2830  179.1150  140.4960 C   0  0  0  0  0  2  0  0  0  0  0  0
  185.7460  177.0560  137.2530 C   0  0  0  0  0  0  0  0  0  0  0  0
  191.5120  177.6210  141.7620 C   0  0  0  0  0  0  0  0  0  0  0  0
  189.5320  174.7860  134.9380 N   0  0  0  0  0  0  0  0  0  0  0  0
  192.3300  176.6480  142.3520 C   0  0  0  0  0  3  0  0  0  0  0  0
  194.3320  172.1740  138.3480 C   0  0  0  0  0  2  0  0  0  0  0  0
  186.2240  174.8340  136.3840 C   0  0  0  0  0  3  0  0  0  0  0  0
  195.3690  175.0210  138.3200 C   0  0  0  0  0  1  0  0  0  0  0  0
  189.9770  176.0600  135.1010 C   0  0  0  0  0  0  0  0  0  0  0  0
  191.3770  176.4010  134.7030 C   0  0  0  0  0  2  0  0  0  0  0  0
  193.0780  175.8370  138.0330 C   0  0  0  0  0  0  0  0  0  0  0  0
  190.4480  175.9980  145.5860 C   0  0  2  0  0  3  0  0  0  0  0  0
  189.4370  176.8790  146.3000 C   0  0  0  0  0  1  0  0  0  0  0  0
  191.6160  175.7890  146.4310 N   0  0  0  0  0  1  0  0  0  0  0  0
  183.6430  180.1110  138.1580 C   0  0  0  0  0  1  0  0  0  0  0  0
  184.5940  180.0770  139.1790 O   0  0  0  0  0  0  0  0  0  0  0  0
  182.0580  176.3140  139.8020 O   0  0  0  0  0  0  0  0  0  0  0  0
  181.6200  175.3680  138.8300 C   0  0  0  0  0  2  0  0  0  0  0  0
  180.1180  177.9490  136.5150 C   0  0  0  0  0  0  0  0  0  0  0  0
  179.9970  177.1410  135.2500 C   0  0  0  0  0  2  0  0  0  0  0  0
  181.2720  176.0660  137.5600 C   0  0  0  0  0  0  0  0  0  0  0  0
  180.6670  177.4120  137.6090 C   0  0  0  0  0  3  0  0  0  0  0  0
  181.4630  175.4540  136.3860 C   0  0  0  0  0  3  0  0  0  0  0  0
  181.1750  176.1740  135.0950 C   0  0  0  0  0  2  0  0  0  0  0  0
  179.1600  180.5600  135.9750 C   0  0  1  0  0  3  0  0  0  0  0  0
  180.0070  181.1380  138.0870 C   0  0  0  0  0  2  0  0  0  0  0  0
  180.3910  181.4390  135.8110 C   0  0  2  0  0  3  0  0  0  0  0  0
  180.9420  181.7200  137.1340 N   0  0  1  0  0  0  0  0  0  0  0  0
  180.8600  183.1530  137.2740 C   0  0  1  0  0  3  0  0  0  0  0  0
  180.0300  182.6340  135.1560 O   0  0  0  0  0  0  0  0  0  0  0  0
  182.0720  183.6500  137.7520 O   0  0  0  0  0  1  0  0  0  0  0  0
  180.6120  183.6720  135.8910 C   0  0  0  0  0  2  0  0  0  0  0  0
  179.5440  179.2500  136.5780 N   0  0  0  0  0  0  0  0  0  0  0  0
  178.9310  180.3910  137.3230 C   0  0  2  0  0  3  0  0  0  0  0  0
  1 36  1  0  0  0  0
  2  7  1  0  0  0  0
  3 37  1  0  0  0  0
  4 35  1  1  0  0  0
  4 33  1  0  0  0  0
  6  8  1  0  0  0  0
  7 18  1  0  0  0  0
  8 45  2  0  0  0  0
  9 32  2  0  0  0  0
  9 14  1  0  0  0  0
 10 22  2  0  0  0  0
 11 27  1  6  0  0  0
 11 29  1  0  0  0  0
 12 25  1  6  0  0  0
 12 11  1  0  0  0  0
 12 23  1  0  0  0  0
 14 19  1  0  0  0  0
 15 34  1  0  0  0  0
 17 20  1  0  0  0  0
 18 15  2  0  0  0  0
 19 36  2  0  0  0  0
 20 14  2  0  0  0  0
 20 41  1  0  0  0  0
 21 50  1  1  0  0  0
 21  4  1  0  0  0  0
 22 51  1  0  0  0  0
 22 31  1  0  0  0  0
 23 40  1  0  0  0  0
 24 36  1  1  0  0  0
 24 10  1  0  0  0  0
 24 21  1  0  0  0  0
 26 30  1  0  0  0  0
 27  6  2  0  0  0  0
 28 34  2  0  0  0  0
 29 45  1  0  0  0  0
 29 42  1  1  0  0  0
 29 16  1  0  0  0  0
 30  3  2  0  0  0  0
 31 33  2  0  0  0  0
 31 13  1  0  0  0  0
 33  5  1  0  0  0  0
 34 46  1  0  0  0  0
 35  2  1  0  0  0  0
 37 39  2  0  0  0  0
 37 18  1  0  0  0  0
 38 43  2  0  0  0  0
 38 17  1  0  0  0  0
 39 28  1  0  0  0  0
 40 16  1  0  0  0  0
 41  1  2  0  0  0  0
 43  9  1  0  0  0  0
 44 43  1  0  0  0  0
 44  6  1  0  0  0  0
 45 26  1  0  0  0  0
 46 47  1  1  0  0  0
 46 48  1  0  0  0  0
 49 50  1  0  0  0  0
 52 51  1  0  0  0  0
 53 67  1  0  0  0  0
 53 56  2  0  0  0  0
 54 53  1  0  0  0  0
 55 56  1  0  0  0  0
 55 52  1  0  0  0  0
 57 55  2  0  0  0  0
 58 54  1  0  0  0  0
 58 57  1  0  0  0  0
 59 67  1  6  0  0  0
 59 68  1  0  0  0  0
 61 64  1  1  0  0  0
 61 59  1  0  0  0  0
 61 62  1  0  0  0  0
 62 63  1  0  0  0  0
 62 60  1  1  0  0  0
 63 65  1  6  0  0  0
 64 66  1  0  0  0  0
 66 63  1  0  0  0  0
 67 68  1  0  0  0  0
 68 60  1  1  0  0  0
M  END
>  <MODEL>
1

>  <REMARK>
 VINA RESULT:      -0.8      0.000      0.000
  Name = 
  6 active torsions:
  status: ('A' for Active; 'I' for Inactive)
    1  A    between atoms: C_10  and  N_57
    2  A    between atoms: C_17  and  C_25
    3  A    between atoms: C_17  and  O_30
    4  A    between atoms: C_20  and  C_54
    5  A    between atoms: O_24  and  C_35
    6  A    between atoms: O_30  and  C_36
                            x       y       z     vdW  Elec       q    Type
                         _______ _______ _______ _____ _____    ______ ____

>  <TORSDO>
F 6

$$$$
=
 OpenBabel10222420503D

 68 78  0  0  1  0  0  0  0  0999 V2000
  186.9110  177.1670  143.7430 C   0  0  0  0  0  3  0  0  0  0  0  0
  189.6880  176.8010  138.8890 C   0  0  0  0  0  2  0  0  0  0  0  0
  187.6040  177.5780  135.9640 C   0  0  0  0  0  3  0  0  0  0  0  0
  190.0650  177.4370  141.2650 C   0  0  2  0  0  3  0  0  0  0  0  0
  192.0110  176.0080  140.8220 F   0  0  0  0  0  0  0  0  0  0  0  0
  182.8020  178.6880  138.1300 C   0  0  0  0  0  0  0  0  0  0  0  0
  190.0820  177.0920  137.4530 C   0  0  0  0  0  2  0  0  0  0  0  0
  184.0200  178.2270  137.4660 C   0  0  0  0  0  3  0  0  0  0  0  0
  184.9870  179.2880  140.6640 C   0  0  0  0  0  0  0  0  0  0  0  0
  189.6300  177.4510  144.3020 N   0  0  0  0  0  0  0  0  0  0  0  0
  181.4170  177.3110  136.6610 C   0  0  1  0  0  3  0  0  0  0  0  0
  180.2640  176.3490  137.0080 C   0  0  2  0  0  3  0  0  0  0  0  0
  192.2040  175.1060  143.2200 F   0  0  0  0  0  0  0  0  0  0  0  0
  185.6450  178.6130  141.7040 C   0  0  0  0  0  0  0  0  0  0  0  0
  190.1360  174.8590  136.4330 N   0  0  0  0  0  0  0  0  0  0  0  0
  182.7470  175.1310  136.5790 C   0  0  0  0  0  2  0  0  0  0  0  0
  183.6320  177.4130  142.1640 N   0  0  0  0  0  2  0  0  0  0  0  0
  189.4940  176.0520  136.5570 C   0  0  0  0  0  0  0  0  0  0  0  0
  186.9990  178.8390  141.9900 C   0  0  0  0  0  3  0  0  0  0  0  0
  184.9310  177.6570  142.4550 C   0  0  0  0  0  0  0  0  0  0  0  0
  189.9620  178.6780  142.1280 C   0  0  1  0  0  3  0  0  0  0  0  0
  190.4530  176.4400  144.2030 C   0  0  0  0  0  0  0  0  0  0  0  0
  180.2350  175.1600  136.0500 C   0  0  0  0  0  2  0  0  0  0  0  0
  189.0860  178.4150  143.3430 C   0  0  1  0  0  3  0  0  0  0  0  0
  178.9310  177.0810  136.9520 C   0  0  0  0  0  1  0  0  0  0  0  0
  185.3090  176.7380  136.0220 C   0  0  0  0  0  2  0  0  0  0  0  0
  181.6490  178.2100  137.7980 N   0  0  0  0  0  0  0  0  0  0  0  0
  188.3760  173.9780  135.0840 C   0  0  0  0  0  3  0  0  0  0  0  0
  182.7040  176.6000  136.1170 C   0  0  1  0  0  0  0  0  0  0  0  0
  186.3220  177.7820  135.9720 N   0  0  0  0  0  0  0  0  0  0  0  0
  191.2400  176.0370  142.9960 C   0  0  0  0  0  0  0  0  0  0  0  0
  185.6040  180.1250  139.9410 O   0  0  0  0  0  0  0  0  0  0  0  0
  191.1260  176.4870  141.7390 C   0  0  0  0  0  0  0  0  0  0  0  0
  189.6230  173.8310  135.7040 C   0  0  0  0  0  0  0  0  0  0  0  0
  190.2680  177.8520  139.8100 C   0  0  0  0  0  2  0  0  0  0  0  0
  187.6460  178.1070  143.0000 C   0  0  0  0  0  0  0  0  0  0  0  0
  188.2540  176.2510  135.9230 C   0  0  0  0  0  0  0  0  0  0  0  0
  183.0040  178.0660  141.1830 N   0  0  0  0  0  0  0  0  0  0  0  0
  187.7020  175.1930  135.1890 C   0  0  0  0  0  3  0  0  0  0  0  0
  181.5100  174.3160  136.1640 C   0  0  0  0  0  2  0  0  0  0  0  0
  185.5630  176.9410  143.4680 C   0  0  0  0  0  3  0  0  0  0  0  0
  182.6370  176.6500  134.5940 C   0  0  0  0  0  1  0  0  0  0  0  0
  183.6350  179.0010  140.4240 C   0  0  0  0  0  0  0  0  0  0  0  0
  182.9020  179.6290  139.2820 C   0  0  0  0  0  2  0  0  0  0  0  0
  183.9980  177.2780  136.5310 C   0  0  0  0  0  0  0  0  0  0  0  0
  190.3790  172.5370  135.6400 C   0  0  2  0  0  3  0  0  0  0  0  0
  191.7990  172.7240  135.1310 C   0  0  0  0  0  1  0  0  0  0  0  0
  189.6710  171.5740  134.8080 N   0  0  0  0  0  1  0  0  0  0  0  0
  191.0050  179.7530  143.7540 C   0  0  0  0  0  1  0  0  0  0  0  0
  191.2130  179.1950  142.4920 O   0  0  0  0  0  0  0  0  0  0  0  0
  190.6670  175.6520  145.3440 O   0  0  0  0  0  0  0  0  0  0  0  0
  191.7330  175.8880  146.2590 C   0  0  0  0  0  2  0  0  0  0  0  0
  189.3880  177.9390  148.3970 C   0  0  0  0  0  0  0  0  0  0  0  0
  190.3800  178.7220  149.2150 C   0  0  0  0  0  2  0  0  0  0  0  0
  191.2410  176.6840  147.4200 C   0  0  0  0  0  0  0  0  0  0  0  0
  189.8090  177.0260  147.5160 C   0  0  0  0  0  3  0  0  0  0  0  0
  192.1050  177.1250  148.3420 C   0  0  0  0  0  3  0  0  0  0  0  0
  191.6120  177.8750  149.5520 C   0  0  0  0  0  2  0  0  0  0  0  0
  186.5540  177.9090  148.3510 C   0  0  1  0  0  3  0  0  0  0  0  0
  186.7020  180.0780  147.4640 C   0  0  0  0  0  2  0  0  0  0  0  0
  186.1540  177.8920  146.8830 C   0  0  2  0  0  3  0  0  0  0  0  0
  186.3280  179.2350  146.3370 N   0  0  1  0  0  0  0  0  0  0  0  0
  185.0080  179.6410  145.9190 C   0  0  1  0  0  3  0  0  0  0  0  0
  184.8110  177.4770  146.7680 O   0  0  0  0  0  0  0  0  0  0  0  0
  185.0670  180.1840  144.6360 O   0  0  0  0  0  1  0  0  0  0  0  0
  184.1970  178.3830  145.8980 C   0  0  0  0  0  2  0  0  0  0  0  0
  188.0010  178.2520  148.4810 N   0  0  0  0  0  0  0  0  0  0  0  0
  186.8700  179.2060  148.6930 C   0  0  2  0  0  3  0  0  0  0  0  0
  2 35  1  0  0  0  0
  3 30  2  0  0  0  0
  4 35  1  6  0  0  0
  4 33  1  0  0  0  0
  4 21  1  0  0  0  0
  5 33  1  0  0  0  0
  6 44  1  0  0  0  0
  7  2  1  0  0  0  0
  8  6  1  0  0  0  0
  9 14  1  0  0  0  0
 11 12  1  0  0  0  0
 11 27  1  1  0  0  0
 12 25  1  6  0  0  0
 14 19  2  0  0  0  0
 14 20  1  0  0  0  0
 15 18  1  0  0  0  0
 17 20  1  0  0  0  0
 18  7  1  0  0  0  0
 19 36  1  0  0  0  0
 20 41  2  0  0  0  0
 21 50  1  1  0  0  0
 21 24  1  0  0  0  0
 22 10  2  0  0  0  0
 22 51  1  0  0  0  0
 23 40  1  0  0  0  0
 23 12  1  0  0  0  0
 24 36  1  6  0  0  0
 24 10  1  0  0  0  0
 26 45  1  0  0  0  0
 27  6  2  0  0  0  0
 28 39  2  0  0  0  0
 28 34  1  0  0  0  0
 29 42  1  6  0  0  0
 29 45  1  0  0  0  0
 29 16  1  0  0  0  0
 29 11  1  0  0  0  0
 30 26  1  0  0  0  0
 31 13  1  0  0  0  0
 31 22  1  0  0  0  0
 32  9  2  0  0  0  0
 33 31  2  0  0  0  0
 34 15  2  0  0  0  0
 36  1  2  0  0  0  0
 37  3  1  0  0  0  0
 37 18  2  0  0  0  0
 38 17  1  0  0  0  0
 39 37  1  0  0  0  0
 40 16  1  0  0  0  0
 41  1  1  0  0  0  0
 43  9  1  0  0  0  0
 43 38  2  0  0  0  0
 44 43  1  0  0  0  0
 45  8  2  0  0  0  0
 46 47  1  6  0  0  0
 46 34  1  0  0  0  0
 48 46  1  0  0  0  0
 50 49  1  0  0  0  0
 51 52  1  0  0  0  0
 52 55  1  0  0  0  0
 53 67  1  0  0  0  0
 53 54  1  0  0  0  0
 54 58  1  0  0  0  0
 55 56  1  0  0  0  0
 55 57  2  0  0  0  0
 56 53  2  0  0  0  0
 57 58  1  0  0  0  0
 59 67  1  6  0  0  0
 59 68  1  0  0  0  0
 61 64  1  1  0  0  0
 61 59  1  0  0  0  0
 62 61  1  0  0  0  0
 62 60  1  1  0  0  0
 63 65  1  6  0  0  0
 63 62  1  0  0  0  0
 66 63  1  0  0  0  0
 66 64  1  0  0  0  0
 67 68  1  0  0  0  0
 68 60  1  6  0  0  0
M  END
>  <MODEL>
2

>  <REMARK>
 VINA RESULT:       1.8      3.265     10.537
  Name = 
  6 active torsions:
  status: ('A' for Active; 'I' for Inactive)
    1  A    between atoms: C_10  and  N_57
    2  A    between atoms: C_17  and  C_25
    3  A    between atoms: C_17  and  O_30
    4  A    between atoms: C_20  and  C_54
    5  A    between atoms: O_24  and  C_35
    6  A    between atoms: O_30  and  C_36
                            x       y       z     vdW  Elec       q    Type
                         _______ _______ _______ _____ _____    ______ ____

>  <TORSDO>
F 6

$$$$
=
 OpenBabel10222420503D

 68 78  0  0  1  0  0  0  0  0999 V2000
  189.0380  177.0870  139.4340 C   0  0  0  0  0  3  0  0  0  0  0  0
  185.7160  174.7070  135.5990 C   0  0  0  0  0  2  0  0  0  0  0  0
  182.2650  175.9650  135.6890 C   0  0  0  0  0  3  0  0  0  0  0  0
  188.0810  175.4180  135.9050 C   0  0  2  0  0  3  0  0  0  0  0  0
  188.3590  173.1730  134.9500 F   0  0  0  0  0  0  0  0  0  0  0  0
  182.3720  179.5820  139.6750 C   0  0  0  0  0  0  0  0  0  0  0  0
  184.5900  174.5550  134.5930 C   0  0  0  0  0  2  0  0  0  0  0  0
  182.2270  178.4940  138.7100 C   0  0  0  0  0  3  0  0  0  0  0  0
  185.6130  179.4020  138.6620 C   0  0  0  0  0  0  0  0  0  0  0  0
  190.6720  176.0850  137.4060 N   0  0  0  0  0  0  0  0  0  0  0  0
  180.3680  178.8580  140.8720 C   0  0  1  0  0  3  0  0  0  0  0  0
  180.1440  178.6440  142.3810 C   0  0  2  0  0  3  0  0  0  0  0  0
  190.5530  172.6530  136.1810 F   0  0  0  0  0  0  0  0  0  0  0  0
  186.7760  178.6510  138.8970 C   0  0  0  0  0  0  0  0  0  0  0  0
  183.5140  172.4580  135.2840 N   0  0  0  0  0  0  0  0  0  0  0  0
  180.6690  176.3210  140.9110 C   0  0  0  0  0  2  0  0  0  0  0  0
  186.2870  178.6700  141.2330 N   0  0  0  0  0  2  0  0  0  0  0  0
  183.4560  173.8160  135.2260 C   0  0  0  0  0  0  0  0  0  0  0  0
  187.6030  178.2270  137.8460 C   0  0  0  0  0  3  0  0  0  0  0  0
  187.0980  178.2880  140.2190 C   0  0  0  0  0  0  0  0  0  0  0  0
  188.9190  176.6610  135.6910 C   0  0  1  0  0  3  0  0  0  0  0  0
  190.8390  174.8000  137.2420 C   0  0  0  0  0  0  0  0  0  0  0  0
  179.1690  177.4950  142.6340 C   0  0  0  0  0  2  0  0  0  0  0  0
  189.6500  177.0410  136.9700 C   0  0  1  0  0  3  0  0  0  0  0  0
  179.6070  179.9170  143.0210 C   0  0  0  0  0  1  0  0  0  0  0  0
  181.3220  176.3720  137.9070 C   0  0  0  0  0  2  0  0  0  0  0  0
  181.5660  179.6850  140.6790 N   0  0  0  0  0  0  0  0  0  0  0  0
  181.5050  172.3620  136.5670 C   0  0  0  0  0  3  0  0  0  0  0  0
  180.3420  177.5390  140.0260 C   0  0  1  0  0  0  0  0  0  0  0  0
  181.7670  176.7680  136.5790 N   0  0  0  0  0  0  0  0  0  0  0  0
  190.0290  173.8930  136.3710 C   0  0  0  0  0  0  0  0  0  0  0  0
  185.2670  179.7140  137.4850 O   0  0  0  0  0  0  0  0  0  0  0  0
  188.8710  174.1510  135.7470 C   0  0  0  0  0  0  0  0  0  0  0  0
  182.5640  171.7170  135.9170 C   0  0  0  0  0  0  0  0  0  0  0  0
  186.8690  175.4620  134.9770 C   0  0  0  0  0  2  0  0  0  0  0  0
  188.7300  177.4290  138.1050 C   0  0  0  0  0  0  0  0  0  0  0  0
  182.3910  174.5000  135.8390 C   0  0  0  0  0  0  0  0  0  0  0  0
  185.1880  179.3950  141.0110 N   0  0  0  0  0  0  0  0  0  0  0  0
  181.4180  173.7520  136.5150 C   0  0  0  0  0  3  0  0  0  0  0  0
  179.7270  176.1640  142.1170 C   0  0  0  0  0  2  0  0  0  0  0  0
  188.2230  177.5110  140.4830 C   0  0  0  0  0  3  0  0  0  0  0  0
  178.9310  177.3920  139.4640 C   0  0  0  0  0  1  0  0  0  0  0  0
  184.8230  179.7800  139.7590 C   0  0  0  0  0  0  0  0  0  0  0  0
  183.5330  180.5110  139.5680 C   0  0  0  0  0  2  0  0  0  0  0  0
  181.2940  177.5510  138.8440 C   0  0  0  0  0  0  0  0  0  0  0  0
  182.7150  170.2260  135.9600 C   0  0  2  0  0  3  0  0  0  0  0  0
  184.1320  169.8000  136.3050 C   0  0  0  0  0  1  0  0  0  0  0  0
  182.3090  169.6370  134.6910 N   0  0  0  0  0  1  0  0  0  0  0  0
  190.6470  177.6480  134.7290 C   0  0  0  0  0  1  0  0  0  0  0  0
  189.7970  176.5490  134.6050 O   0  0  0  0  0  0  0  0  0  0  0  0
  191.9050  174.1850  137.9140 O   0  0  0  0  0  0  0  0  0  0  0  0
  193.2300  174.7090  137.9090 C   0  0  0  0  0  2  0  0  0  0  0  0
  192.3280  176.9240  140.8350 C   0  0  0  0  0  0  0  0  0  0  0  0
  193.1400  178.1490  140.5080 C   0  0  0  0  0  2  0  0  0  0  0  0
  193.3560  175.7850  138.9340 C   0  0  0  0  0  0  0  0  0  0  0  0
  192.3970  175.8410  140.0540 C   0  0  0  0  0  3  0  0  0  0  0  0
  194.3050  176.7190  138.8090 C   0  0  0  0  0  3  0  0  0  0  0  0
  194.4810  177.7730  139.8720 C   0  0  0  0  0  2  0  0  0  0  0  0
  190.7590  177.6190  143.0900 C   0  0  1  0  0  3  0  0  0  0  0  0
  191.0460  175.3930  143.7790 C   0  0  0  0  0  2  0  0  0  0  0  0
  191.6940  177.5690  144.2890 C   0  0  2  0  0  3  0  0  0  0  0  0
  191.9160  176.1710  144.6490 N   0  0  1  0  0  0  0  0  0  0  0  0
  191.4020  176.0470  145.9910 C   0  0  1  0  0  3  0  0  0  0  0  0
  191.1150  178.2760  145.3630 O   0  0  0  0  0  0  0  0  0  0  0  0
  192.3240  175.3680  146.7870 O   0  0  0  0  0  1  0  0  0  0  0  0
  191.2450  177.4510  146.4860 C   0  0  0  0  0  2  0  0  0  0  0  0
  191.4010  176.9590  141.9150 N   0  0  0  0  0  0  0  0  0  0  0  0
  190.3710  176.3300  142.7960 C   0  0  2  0  0  3  0  0  0  0  0  0
  1 41  1  0  0  0  0
  3 37  1  0  0  0  0
  3 30  2  0  0  0  0
  4 35  1  6  0  0  0
  5 33  1  0  0  0  0
  6 27  2  0  0  0  0
  7 18  1  0  0  0  0
  7  2  1  0  0  0  0
  8 45  2  0  0  0  0
  8  6  1  0  0  0  0
  9 14  1  0  0  0  0
  9 43  1  0  0  0  0
 11 27  1  1  0  0  0
 11 12  1  0  0  0  0
 12 23  1  0  0  0  0
 12 25  1  6  0  0  0
 13 31  1  0  0  0  0
 14 20  1  0  0  0  0
 15 34  1  0  0  0  0
 16 40  1  0  0  0  0
 18 15  2  0  0  0  0
 18 37  1  0  0  0  0
 19 36  1  0  0  0  0
 19 14  2  0  0  0  0
 20 41  2  0  0  0  0
 20 17  1  0  0  0  0
 21 50  1  6  0  0  0
 21  4  1  0  0  0  0
 21 24  1  0  0  0  0
 22 10  2  0  0  0  0
 22 51  1  0  0  0  0
 24 10  1  1  0  0  0
 24 36  1  0  0  0  0
 26 45  1  0  0  0  0
 29 42  1  6  0  0  0
 29 11  1  0  0  0  0
 29 16  1  0  0  0  0
 30 26  1  0  0  0  0
 31 22  1  0  0  0  0
 32  9  2  0  0  0  0
 33  4  1  0  0  0  0
 33 31  2  0  0  0  0
 34 46  1  0  0  0  0
 34 28  2  0  0  0  0
 35  2  1  0  0  0  0
 36  1  2  0  0  0  0
 37 39  2  0  0  0  0
 38 17  1  0  0  0  0
 39 28  1  0  0  0  0
 40 23  1  0  0  0  0
 43 38  2  0  0  0  0
 44  6  1  0  0  0  0
 44 43  1  0  0  0  0
 45 29  1  0  0  0  0
 46 47  1  6  0  0  0
 48 46  1  0  0  0  0
 50 49  1  0  0  0  0
 52 51  1  0  0  0  0
 52 55  1  0  0  0  0
 53 67  1  0  0  0  0
 54 53  1  0  0  0  0
 55 56  1  0  0  0  0
 56 53  2  0  0  0  0
 57 55  2  0  0  0  0
 57 58  1  0  0  0  0
 58 54  1  0  0  0  0
 59 67  1  6  0  0  0
 59 61  1  0  0  0  0
 61 62  1  0  0  0  0
 61 64  1  1  0  0  0
 62 60  1  6  0  0  0
 62 63  1  0  0  0  0
 63 66  1  0  0  0  0
 63 65  1  1  0  0  0
 64 66  1  0  0  0  0
 67 68  1  0  0  0  0
 68 59  1  0  0  0  0
 68 60  1  1  0  0  0
M  END
>  <MODEL>
3

>  <REMARK>
 VINA RESULT:       1.9      3.617     11.681
  Name = 
  6 active torsions:
  status: ('A' for Active; 'I' for Inactive)
    1  A    between atoms: C_10  and  N_57
    2  A    between atoms: C_17  and  C_25
    3  A    between atoms: C_17  and  O_30
    4  A    between atoms: C_20  and  C_54
    5  A    between atoms: O_24  and  C_35
    6  A    between atoms: O_30  and  C_36
                            x       y       z     vdW  Elec       q    Type
                         _______ _______ _______ _____ _____    ______ ____

>  <TORSDO>
F 6

$$$$
=
 OpenBabel10222420503D

 68 78  0  0  1  0  0  0  0  0999 V2000
  186.2880  174.3940  135.8270 C   0  0  0  0  0  3  0  0  0  0  0  0
  187.9110  177.7110  140.0430 C   0  0  0  0  0  2  0  0  0  0  0  0
  191.5300  178.3480  140.0760 C   0  0  0  0  0  3  0  0  0  0  0  0
  185.9830  177.3760  138.5060 C   0  0  2  0  0  3  0  0  0  0  0  0
  184.8520  177.6120  140.6720 F   0  0  0  0  0  0  0  0  0  0  0  0
  193.3090  175.5790  135.8160 C   0  0  0  0  0  0  0  0  0  0  0  0
  188.7190  178.7430  140.8080 C   0  0  0  0  0  2  0  0  0  0  0  0
  192.9250  176.2010  137.0810 C   0  0  0  0  0  3  0  0  0  0  0  0
  190.0370  176.1520  135.0950 C   0  0  0  0  0  0  0  0  0  0  0  0
  184.0640  175.8670  136.6480 N   0  0  0  0  0  0  0  0  0  0  0  0
  195.1900  174.4420  136.8860 C   0  0  1  0  0  3  0  0  0  0  0  0
  195.6270  172.9670  136.8020 C   0  0  2  0  0  3  0  0  0  0  0  0
  182.8880  176.0610  140.0940 F   0  0  0  0  0  0  0  0  0  0  0  0
  188.7690  175.5920  135.3170 C   0  0  0  0  0  0  0  0  0  0  0  0
  189.2160  177.5960  142.9220 N   0  0  0  0  0  0  0  0  0  0  0  0
  194.1420  173.6450  139.0760 C   0  0  0  0  0  2  0  0  0  0  0  0
  189.6850  173.4230  134.9200 N   0  0  0  0  0  2  0  0  0  0  0  0
  189.6730  178.0470  141.7230 C   0  0  0  0  0  0  0  0  0  0  0  0
  187.6650  176.3840  135.6630 C   0  0  0  0  0  3  0  0  0  0  0  0
  188.6150  174.1940  135.2250 C   0  0  0  0  0  0  0  0  0  0  0  0
  185.5400  177.8480  137.1360 C   0  0  1  0  0  3  0  0  0  0  0  0
  183.4840  175.6370  137.7950 C   0  0  0  0  0  0  0  0  0  0  0  0
  196.2340  172.4990  138.1240 C   0  0  0  0  0  2  0  0  0  0  0  0
  185.2230  176.6630  136.2370 C   0  0  1  0  0  3  0  0  0  0  0  0
  196.6400  172.7790  135.6830 C   0  0  0  0  0  1  0  0  0  0  0  0
  192.9640  176.4510  139.5110 C   0  0  0  0  0  2  0  0  0  0  0  0
  194.2880  174.7370  135.7650 N   0  0  0  0  0  0  0  0  0  0  0  0
  191.3080  176.5580  143.4040 C   0  0  0  0  0  3  0  0  0  0  0  0
  194.6470  174.8720  138.2920 C   0  0  1  0  0  0  0  0  0  0  0  0
  192.4130  177.7830  139.3090 N   0  0  0  0  0  0  0  0  0  0  0  0
  183.7920  176.2910  139.1050 C   0  0  0  0  0  0  0  0  0  0  0  0
  190.2250  177.3990  135.2080 O   0  0  0  0  0  0  0  0  0  0  0  0
  184.8290  177.0800  139.4190 C   0  0  0  0  0  0  0  0  0  0  0  0
  189.9980  176.8810  143.7750 C   0  0  0  0  0  0  0  0  0  0  0  0
  186.9460  178.4000  139.1040 C   0  0  0  0  0  2  0  0  0  0  0  0
  186.4200  175.7900  135.9360 C   0  0  0  0  0  0  0  0  0  0  0  0
  190.9940  177.7710  141.3270 C   0  0  0  0  0  0  0  0  0  0  0  0
  190.8870  173.9580  134.6950 N   0  0  0  0  0  0  0  0  0  0  0  0
  191.8040  177.0150  142.1840 C   0  0  0  0  0  3  0  0  0  0  0  0
  195.2060  172.5500  139.2610 C   0  0  0  0  0  2  0  0  0  0  0  0
  187.3810  173.6020  135.4780 C   0  0  0  0  0  3  0  0  0  0  0  0
  195.8080  175.5120  139.0470 C   0  0  0  0  0  1  0  0  0  0  0  0
  191.1020  175.2990  134.7670 C   0  0  0  0  0  0  0  0  0  0  0  0
  192.4910  175.8260  134.5950 C   0  0  0  0  0  2  0  0  0  0  0  0
  193.5320  175.9000  138.2290 C   0  0  0  0  0  0  0  0  0  0  0  0
  189.4100  176.3960  145.0660 C   0  0  2  0  0  3  0  0  0  0  0  0
  188.0470  177.0080  145.3450 C   0  0  0  0  0  1  0  0  0  0  0  0
  190.3170  176.6680  146.1730 N   0  0  0  0  0  1  0  0  0  0  0  0
  183.7550  178.5210  136.0190 C   0  0  0  0  0  1  0  0  0  0  0  0
  184.4760  178.7580  137.1900 O   0  0  0  0  0  0  0  0  0  0  0  0
  182.4330  174.7090  137.8260 O   0  0  0  0  0  0  0  0  0  0  0  0
  181.2610  174.8380  137.0250 C   0  0  0  0  0  2  0  0  0  0  0  0
  180.1980  178.2780  138.1680 C   0  0  0  0  0  0  0  0  0  0  0  0
  179.4690  178.7590  136.9420 C   0  0  0  0  0  2  0  0  0  0  0  0
  180.8540  176.2700  136.9430 C   0  0  0  0  0  0  0  0  0  0  0  0
  180.7950  177.0830  138.1740 C   0  0  0  0  0  3  0  0  0  0  0  0
  180.4980  176.7970  135.7670 C   0  0  0  0  0  3  0  0  0  0  0  0
  180.1460  178.2580  135.6620 C   0  0  0  0  0  2  0  0  0  0  0  0
  180.8020  179.7560  140.5100 C   0  0  1  0  0  3  0  0  0  0  0  0
  178.9500  178.6820  141.4760 C   0  0  0  0  0  2  0  0  0  0  0  0
  181.2760  178.7420  141.5410 C   0  0  2  0  0  3  0  0  0  0  0  0
  180.1120  178.0360  142.0700 N   0  0  1  0  0  0  0  0  0  0  0  0
  180.0990  178.3430  143.4790 C   0  0  1  0  0  3  0  0  0  0  0  0
  181.9650  179.4110  142.5730 O   0  0  0  0  0  0  0  0  0  0  0  0
  179.9050  177.1730  144.2140 O   0  0  0  0  0  1  0  0  0  0  0  0
  181.4550  178.9050  143.7730 C   0  0  0  0  0  2  0  0  0  0  0  0
  180.1560  179.0520  139.3630 N   0  0  0  0  0  0  0  0  0  0  0  0
  179.4240  179.7230  140.4800 C   0  0  2  0  0  3  0  0  0  0  0  0
  1 36  1  0  0  0  0
  2  7  1  0  0  0  0
  3 37  1  0  0  0  0
  4 35  1  1  0  0  0
  4 33  1  0  0  0  0
  6  8  1  0  0  0  0
  7 18  1  0  0  0  0
  8 45  2  0  0  0  0
  9 32  2  0  0  0  0
  9 14  1  0  0  0  0
 10 22  2  0  0  0  0
 11 27  1  6  0  0  0
 11 29  1  0  0  0  0
 12 25  1  6  0  0  0
 12 11  1  0  0  0  0
 12 23  1  0  0  0  0
 14 19  1  0  0  0  0
 15 34  1  0  0  0  0
 16 40  1  0  0  0  0
 17 20  1  0  0  0  0
 18 15  2  0  0  0  0
 19 36  2  0  0  0  0
 20 14  2  0  0  0  0
 20 41  1  0  0  0  0
 21 50  1  1  0  0  0
 21  4  1  0  0  0  0
 22 51  1  0  0  0  0
 22 31  1  0  0  0  0
 23 40  1  0  0  0  0
 24 36  1  1  0  0  0
 24 10  1  0  0  0  0
 24 21  1  0  0  0  0
 27  6  2  0  0  0  0
 28 34  2  0  0  0  0
 29 42  1  1  0  0  0
 29 16  1  0  0  0  0
 30 26  1  0  0  0  0
 30  3  2  0  0  0  0
 31 33  2  0  0  0  0
 31 13  1  0  0  0  0
 33  5  1  0  0  0  0
 34 46  1  0  0  0  0
 35  2  1  0  0  0  0
 37 18  1  0  0  0  0
 37 39  2  0  0  0  0
 38 43  2  0  0  0  0
 38 17  1  0  0  0  0
 39 28  1  0  0  0  0
 41  1  2  0  0  0  0
 43  9  1  0  0  0  0
 44 43  1  0  0  0  0
 44  6  1  0  0  0  0
 45 29  1  0  0  0  0
 45 26  1  0  0  0  0
 46 47  1  1  0  0  0
 46 48  1  0  0  0  0
 49 50  1  0  0  0  0
 52 51  1  0  0  0  0
 53 56  2  0  0  0  0
 53 67  1  0  0  0  0
 54 53  1  0  0  0  0
 55 52  1  0  0  0  0
 55 56  1  0  0  0  0
 57 55  2  0  0  0  0
 58 57  1  0  0  0  0
 58 54  1  0  0  0  0
 59 67  1  6  0  0  0
 59 61  1  0  0  0  0
 61 62  1  0  0  0  0
 61 64  1  1  0  0  0
 62 60  1  6  0  0  0
 62 63  1  0  0  0  0
 63 66  1  0  0  0  0
 63 65  1  1  0  0  0
 64 66  1  0  0  0  0
 67 68  1  0  0  0  0
 68 59  1  0  0  0  0
 68 60  1  1  0  0  0
M  END
>  <MODEL>
4

>  <REMARK>
 VINA RESULT:       2.1      1.973      2.964
  Name = 
  6 active torsions:
  status: ('A' for Active; 'I' for Inactive)
    1  A    between atoms: C_10  and  N_57
    2  A    between atoms: C_17  and  C_25
    3  A    between atoms: C_17  and  O_30
    4  A    between atoms: C_20  and  C_54
    5  A    between atoms: O_24  and  C_35
    6  A    between atoms: O_30  and  C_36
                            x       y       z     vdW  Elec       q    Type
                         _______ _______ _______ _____ _____    ______ ____

>  <TORSDO>
F 6

$$$$
