=
 OpenBabel10222420373D

 41 44  0  0  1  0  0  0  0  0999 V2000
  190.8430  177.4440  141.8470 C   0  0  0  0  0  0  0  0  0  0  0  0
  190.3670  177.3440  139.4220 C   0  0  0  0  0  3  0  0  0  0  0  0
  189.5990  177.9070  142.3230 C   0  0  0  0  0  0  0  0  0  0  0  0
  189.2890  177.7530  143.6740 C   0  0  0  0  0  3  0  0  0  0  0  0
  191.7310  176.8920  142.7170 N   0  0  0  0  0  0  0  0  0  0  0  0
  190.1990  177.1410  144.5390 C   0  0  0  0  0  0  0  0  0  0  0  0
  191.2200  177.5650  140.4260 C   0  0  0  0  0  3  0  0  0  0  0  0
  188.0380  177.8780  140.3140 C   0  0  2  0  0  3  0  0  0  0  0  0
  188.6730  178.6940  141.4450 C   0  0  0  0  0  2  0  0  0  0  0  0
  191.4410  176.7340  144.0360 C   0  0  0  0  0  3  0  0  0  0  0  0
  188.9660  176.8510  139.6490 C   0  0  0  0  0  2  0  0  0  0  0  0
  189.8570  177.0200  146.0010 C   0  0  1  0  0  3  0  0  0  0  0  0
  190.9610  176.5350  146.8540 C   0  0  0  0  0  0  0  0  0  0  0  0
  191.8590  176.1350  147.5510 C   0  0  0  0  0  3  0  0  0  0  0  0
  189.1890  178.1500  146.5280 O   0  0  0  0  0  0  0  0  0  0  0  0
  188.1410  177.7270  147.3650 C   0  0  0  0  0  2  0  0  0  0  0  0
  186.9060  177.4130  146.5340 C   0  0  0  0  0  2  0  0  0  0  0  0
  185.9720  178.6140  146.4520 C   0  0  0  0  0  2  0  0  0  0  0  0
  183.8820  179.0330  145.1310 C   0  0  0  0  0  3  0  0  0  0  0  0
  183.1790  179.0430  143.9210 C   0  0  0  0  0  3  0  0  0  0  0  0
  185.8590  178.2370  143.9750 C   0  0  0  0  0  3  0  0  0  0  0  0
  183.8150  178.6500  142.7380 C   0  0  0  0  0  3  0  0  0  0  0  0
  185.1550  178.2460  142.7650 C   0  0  0  0  0  3  0  0  0  0  0  0
  185.2250  178.6340  145.1590 C   0  0  0  0  0  0  0  0  0  0  0  0
  187.5320  178.7520  139.3470 O   0  0  0  0  0  0  0  0  0  0  0  0
  186.5900  178.0050  138.6250 C   0  0  1  0  0  3  0  0  0  0  0  0
  185.1120  179.6630  139.5280 O   0  0  0  0  0  1  0  0  0  0  0  0
  185.1700  178.3380  139.0880 C   0  0  1  0  0  3  0  0  0  0  0  0
  184.1740  178.1370  137.9540 C   0  0  0  0  0  2  0  0  0  0  0  0
  182.7980  177.7830  138.4960 C   0  0  0  0  0  2  0  0  0  0  0  0
  182.9190  176.7690  139.6210 C   0  0  0  0  0  2  0  0  0  0  0  0
  181.7840  175.7640  139.5480 C   0  0  0  0  0  2  0  0  0  0  0  0
  181.4340  175.5360  138.2160 O   0  0  0  0  0  1  0  0  0  0  0  0
  186.7620  178.2460  137.1190 C   0  0  0  0  0  2  0  0  0  0  0  0
  187.3630  175.9230  136.3740 C   0  0  0  0  0  3  0  0  0  0  0  0
  188.2390  175.0260  135.7550 C   0  0  0  0  0  0  0  0  0  0  0  0
  188.9280  177.7270  135.9670 C   0  0  0  0  0  3  0  0  0  0  0  0
  187.8950  173.6860  135.6450 O   0  0  0  0  0  1  0  0  0  0  0  0
  189.8040  176.8300  135.3500 C   0  0  0  0  0  3  0  0  0  0  0  0
  187.7080  177.2760  136.4830 C   0  0  0  0  0  0  0  0  0  0  0  0
  189.4580  175.4790  135.2430 C   0  0  0  0  0  3  0  0  0  0  0  0
  1  3  2  0  0  0  0
  1  5  1  0  0  0  0
  2 11  1  0  0  0  0
  2  7  2  0  0  0  0
  3  4  1  0  0  0  0
  4  6  2  0  0  0  0
  5 10  2  0  0  0  0
  6 12  1  0  0  0  0
  7  1  1  0  0  0  0
  8 25  1  6  0  0  0
  8  9  1  0  0  0  0
  9  3  1  0  0  0  0
 10  6  1  0  0  0  0
 11  8  1  0  0  0  0
 12 15  1  0  0  0  0
 12 13  1  1  0  0  0
 13 14  3  0  0  0  0
 15 16  1  0  0  0  0
 17 16  1  0  0  0  0
 18 17  1  0  0  0  0
 19 24  1  0  0  0  0
 20 19  2  0  0  0  0
 21 24  2  0  0  0  0
 22 23  2  0  0  0  0
 22 20  1  0  0  0  0
 23 21  1  0  0  0  0
 24 18  1  0  0  0  0
 26 34  1  6  0  0  0
 26 28  1  0  0  0  0
 26 25  1  0  0  0  0
 28 27  1  6  0  0  0
 29 30  1  0  0  0  0
 29 28  1  0  0  0  0
 30 31  1  0  0  0  0
 32 31  1  0  0  0  0
 33 32  1  0  0  0  0
 35 40  1  0  0  0  0
 36 35  2  0  0  0  0
 37 40  2  0  0  0  0
 38 36  1  0  0  0  0
 39 37  1  0  0  0  0
 40 34  1  0  0  0  0
 41 39  2  0  0  0  0
 41 36  1  0  0  0  0
M  END
>  <MODEL>
1

>  <REMARK>
 VINA RESULT:      -8.2      0.000      0.000
  Name = 
  16 active torsions:
  status: ('A' for Active; 'I' for Inactive)
    1  A    between atoms: C_5  and  C_28
    2  A    between atoms: C_5  and  C_35
    3  A    between atoms: C_7  and  C_11
    4  A    between atoms: C_7  and  C_37
    5  A    between atoms: O_9  and  C_11
    6  A    between atoms: O_9  and  C_31
    7  A    between atoms: C_10  and  O_12
    8  A    between atoms: C_10  and  C_28
    9  A    between atoms: C_11  and  C_39
   10  A    between atoms: O_12  and  C_23
   11  A    between atoms: C_15  and  C_17
   12  A    between atoms: C_15  and  C_39
   13  A    between atoms: C_17  and  C_30
   14  A    between atoms: C_21  and  C_23
   15  A    between atoms: C_23  and  C_26
   16  A    between atoms: C_29  and  C_30
                            x       y       z     vdW  Elec       q    Type
                         _______ _______ _______ _____ _____    ______ ____

>  <TORSDO>
F 16

$$$$
=
 OpenBabel10222420373D

 41 44  0  0  1  0  0  0  0  0999 V2000
  190.6530  177.6250  143.5360 C   0  0  0  0  0  0  0  0  0  0  0  0
  191.5310  177.4360  141.2310 C   0  0  0  0  0  3  0  0  0  0  0  0
  189.2870  177.8420  143.2610 C   0  0  0  0  0  0  0  0  0  0  0  0
  188.3490  177.6320  144.2720 C   0  0  0  0  0  3  0  0  0  0  0  0
  191.0340  177.2510  144.7870 N   0  0  0  0  0  0  0  0  0  0  0  0
  188.7610  177.2040  145.5360 C   0  0  0  0  0  0  0  0  0  0  0  0
  191.6880  177.8150  142.5020 C   0  0  0  0  0  3  0  0  0  0  0  0
  189.0270  177.5180  140.7510 C   0  0  2  0  0  3  0  0  0  0  0  0
  188.8400  178.4400  141.9600 C   0  0  0  0  0  2  0  0  0  0  0  0
  190.1310  177.0410  145.7800 C   0  0  0  0  0  3  0  0  0  0  0  0
  190.3180  176.6860  140.7580 C   0  0  0  0  0  2  0  0  0  0  0  0
  187.7340  177.0210  146.6210 C   0  0  1  0  0  3  0  0  0  0  0  0
  188.0690  177.6720  147.9040 C   0  0  0  0  0  0  0  0  0  0  0  0
  188.3390  178.2060  148.9510 C   0  0  0  0  0  3  0  0  0  0  0  0
  186.4050  177.2550  146.1980 O   0  0  0  0  0  0  0  0  0  0  0  0
  185.9260  178.4370  146.7920 C   0  0  0  0  0  2  0  0  0  0  0  0
  185.3440  179.3550  145.7270 C   0  0  0  0  0  2  0  0  0  0  0  0
  183.9260  178.9400  145.3530 C   0  0  0  0  0  2  0  0  0  0  0  0
  184.9160  178.4350  143.1050 C   0  0  0  0  0  3  0  0  0  0  0  0
  184.7890  178.2560  141.7220 C   0  0  0  0  0  3  0  0  0  0  0  0
  182.5360  178.8720  143.2660 C   0  0  0  0  0  3  0  0  0  0  0  0
  183.5360  178.3850  141.1110 C   0  0  0  0  0  3  0  0  0  0  0  0
  182.4100  178.6940  141.8840 C   0  0  0  0  0  3  0  0  0  0  0  0
  183.7890  178.7400  143.8790 C   0  0  0  0  0  0  0  0  0  0  0  0
  188.9640  178.2800  139.5800 O   0  0  0  0  0  0  0  0  0  0  0  0
  188.6520  177.3710  138.5590 C   0  0  1  0  0  3  0  0  0  0  0  0
  186.6520  178.6840  138.7170 O   0  0  0  0  0  1  0  0  0  0  0  0
  187.2140  177.5740  138.0790 C   0  0  1  0  0  3  0  0  0  0  0  0
  187.1760  177.7850  136.5710 C   0  0  0  0  0  2  0  0  0  0  0  0
  186.1620  176.8580  135.9180 C   0  0  0  0  0  2  0  0  0  0  0  0
  186.8540  175.6230  135.3670 C   0  0  0  0  0  2  0  0  0  0  0  0
  186.2420  174.3680  135.9590 C   0  0  0  0  0  2  0  0  0  0  0  0
  186.6930  174.1890  137.2690 O   0  0  0  0  0  1  0  0  0  0  0  0
  189.6550  177.5030  137.4050 C   0  0  0  0  0  2  0  0  0  0  0  0
  191.9870  176.5780  137.5500 C   0  0  0  0  0  3  0  0  0  0  0  0
  192.8800  175.5020  137.5170 C   0  0  0  0  0  0  0  0  0  0  0  0
  190.1490  175.0620  137.1090 C   0  0  0  0  0  3  0  0  0  0  0  0
  194.2340  175.7190  137.7240 O   0  0  0  0  0  1  0  0  0  0  0  0
  191.0420  173.9880  137.0750 C   0  0  0  0  0  3  0  0  0  0  0  0
  190.6190  176.3600  137.3430 C   0  0  0  0  0  0  0  0  0  0  0  0
  192.4080  174.2080  137.2800 C   0  0  0  0  0  3  0  0  0  0  0  0
  1  5  1  0  0  0  0
  2  7  2  0  0  0  0
  3  1  2  0  0  0  0
  3  4  1  0  0  0  0
  4  6  2  0  0  0  0
  5 10  2  0  0  0  0
  6 10  1  0  0  0  0
  6 12  1  0  0  0  0
  7  1  1  0  0  0  0
  8 25  1  6  0  0  0
  8 11  1  0  0  0  0
  8  9  1  0  0  0  0
  9  3  1  0  0  0  0
 11  2  1  0  0  0  0
 12 13  1  1  0  0  0
 13 14  3  0  0  0  0
 15 12  1  0  0  0  0
 15 16  1  0  0  0  0
 17 16  1  0  0  0  0
 18 17  1  0  0  0  0
 19 24  1  0  0  0  0
 20 19  2  0  0  0  0
 21 24  2  0  0  0  0
 22 20  1  0  0  0  0
 22 23  2  0  0  0  0
 23 21  1  0  0  0  0
 24 18  1  0  0  0  0
 26 34  1  6  0  0  0
 26 25  1  0  0  0  0
 28 26  1  0  0  0  0
 28 27  1  1  0  0  0
 29 28  1  0  0  0  0
 30 29  1  0  0  0  0
 31 30  1  0  0  0  0
 31 32  1  0  0  0  0
 32 33  1  0  0  0  0
 36 35  1  0  0  0  0
 36 38  1  0  0  0  0
 37 40  1  0  0  0  0
 39 37  2  0  0  0  0
 39 41  1  0  0  0  0
 40 34  1  0  0  0  0
 40 35  2  0  0  0  0
 41 36  2  0  0  0  0
M  END
>  <MODEL>
2

>  <REMARK>
 VINA RESULT:      -8.1      1.964      3.249
  Name = 
  16 active torsions:
  status: ('A' for Active; 'I' for Inactive)
    1  A    between atoms: C_5  and  C_28
    2  A    between atoms: C_5  and  C_35
    3  A    between atoms: C_7  and  C_11
    4  A    between atoms: C_7  and  C_37
    5  A    between atoms: O_9  and  C_11
    6  A    between atoms: O_9  and  C_31
    7  A    between atoms: C_10  and  O_12
    8  A    between atoms: C_10  and  C_28
    9  A    between atoms: C_11  and  C_39
   10  A    between atoms: O_12  and  C_23
   11  A    between atoms: C_15  and  C_17
   12  A    between atoms: C_15  and  C_39
   13  A    between atoms: C_17  and  C_30
   14  A    between atoms: C_21  and  C_23
   15  A    between atoms: C_23  and  C_26
   16  A    between atoms: C_29  and  C_30
                            x       y       z     vdW  Elec       q    Type
                         _______ _______ _______ _____ _____    ______ ____

>  <TORSDO>
F 16

$$$$
=
 OpenBabel10222420373D

 41 44  0  0  1  0  0  0  0  0999 V2000
  190.9200  177.3950  141.7680 C   0  0  0  0  0  0  0  0  0  0  0  0
  190.3480  177.3190  139.3630 C   0  0  0  0  0  3  0  0  0  0  0  0
  189.6950  177.8470  142.2990 C   0  0  0  0  0  0  0  0  0  0  0  0
  189.4390  177.6770  143.6600 C   0  0  0  0  0  3  0  0  0  0  0  0
  191.8440  176.8360  142.5960 N   0  0  0  0  0  0  0  0  0  0  0  0
  190.3840  177.0590  144.4810 C   0  0  0  0  0  0  0  0  0  0  0  0
  191.2400  177.5320  140.3350 C   0  0  0  0  0  3  0  0  0  0  0  0
  188.0540  177.8340  140.3540 C   0  0  2  0  0  3  0  0  0  0  0  0
  188.7320  178.6410  141.4670 C   0  0  0  0  0  2  0  0  0  0  0  0
  191.6070  176.6620  143.9240 C   0  0  0  0  0  3  0  0  0  0  0  0
  188.9590  176.8180  139.6410 C   0  0  0  0  0  2  0  0  0  0  0  0
  190.1020  176.9210  145.9530 C   0  0  1  0  0  3  0  0  0  0  0  0
  191.2320  176.4050  146.7520 C   0  0  0  0  0  0  0  0  0  0  0  0
  192.1550  175.9880  147.4060 C   0  0  0  0  0  3  0  0  0  0  0  0
  189.4750  178.0530  146.5240 O   0  0  0  0  0  0  0  0  0  0  0  0
  188.9480  177.7110  147.7840 C   0  0  0  0  0  2  0  0  0  0  0  0
  187.4570  177.4300  147.6640 C   0  0  0  0  0  2  0  0  0  0  0  0
  186.6680  178.7120  147.4270 C   0  0  0  0  0  2  0  0  0  0  0  0
  186.4120  178.2600  144.9730 C   0  0  0  0  0  3  0  0  0  0  0  0
  185.6260  178.1750  143.8180 C   0  0  0  0  0  3  0  0  0  0  0  0
  184.4560  178.8880  146.2590 C   0  0  0  0  0  3  0  0  0  0  0  0
  184.2550  178.4480  143.8840 C   0  0  0  0  0  3  0  0  0  0  0  0
  183.6700  178.8050  145.1050 C   0  0  0  0  0  3  0  0  0  0  0  0
  185.8280  178.6130  146.1960 C   0  0  0  0  0  0  0  0  0  0  0  0
  187.5070  178.7170  139.4170 O   0  0  0  0  0  0  0  0  0  0  0  0
  186.2160  178.2340  139.1580 C   0  0  1  0  0  3  0  0  0  0  0  0
  184.6110  180.0160  139.1590 O   0  0  0  0  0  1  0  0  0  0  0  0
  185.1780  179.0210  139.9600 C   0  0  1  0  0  3  0  0  0  0  0  0
  184.0800  178.0960  140.4700 C   0  0  0  0  0  2  0  0  0  0  0  0
  182.8470  178.1760  139.5810 C   0  0  0  0  0  2  0  0  0  0  0  0
  181.6270  178.5500  140.4050 C   0  0  0  0  0  2  0  0  0  0  0  0
  181.0140  179.8360  139.8840 C   0  0  0  0  0  2  0  0  0  0  0  0
  179.9330  180.2090  140.6860 O   0  0  0  0  0  1  0  0  0  0  0  0
  185.9220  178.2850  137.6530 C   0  0  0  0  0  2  0  0  0  0  0  0
  184.7110  176.2400  136.8360 C   0  0  0  0  0  3  0  0  0  0  0  0
  184.7080  174.9850  136.2200 C   0  0  0  0  0  0  0  0  0  0  0  0
  187.1170  176.3570  136.5830 C   0  0  0  0  0  3  0  0  0  0  0  0
  183.5130  174.3060  136.0360 O   0  0  0  0  0  1  0  0  0  0  0  0
  187.1140  175.1020  135.9680 C   0  0  0  0  0  3  0  0  0  0  0  0
  185.9170  176.9280  137.0200 C   0  0  0  0  0  0  0  0  0  0  0  0
  185.9090  174.4160  135.7860 C   0  0  0  0  0  3  0  0  0  0  0  0
  1  3  2  0  0  0  0
  1  5  1  0  0  0  0
  2 11  1  0  0  0  0
  2  7  2  0  0  0  0
  3  4  1  0  0  0  0
  4  6  2  0  0  0  0
  5 10  2  0  0  0  0
  6 12  1  0  0  0  0
  7  1  1  0  0  0  0
  8 25  1  6  0  0  0
  8  9  1  0  0  0  0
  9  3  1  0  0  0  0
 10  6  1  0  0  0  0
 11  8  1  0  0  0  0
 12 15  1  0  0  0  0
 12 13  1  1  0  0  0
 13 14  3  0  0  0  0
 15 16  1  0  0  0  0
 17 16  1  0  0  0  0
 18 17  1  0  0  0  0
 19 24  1  0  0  0  0
 20 22  1  0  0  0  0
 20 19  2  0  0  0  0
 22 23  2  0  0  0  0
 23 21  1  0  0  0  0
 24 21  2  0  0  0  0
 24 18  1  0  0  0  0
 26 34  1  6  0  0  0
 26 25  1  0  0  0  0
 26 28  1  0  0  0  0
 28 27  1  6  0  0  0
 28 29  1  0  0  0  0
 30 31  1  0  0  0  0
 30 29  1  0  0  0  0
 32 31  1  0  0  0  0
 32 33  1  0  0  0  0
 35 40  1  0  0  0  0
 36 35  2  0  0  0  0
 37 40  2  0  0  0  0
 38 36  1  0  0  0  0
 39 37  1  0  0  0  0
 40 34  1  0  0  0  0
 41 39  2  0  0  0  0
 41 36  1  0  0  0  0
M  END
>  <MODEL>
3

>  <REMARK>
 VINA RESULT:      -7.6      1.492      2.061
  Name = 
  16 active torsions:
  status: ('A' for Active; 'I' for Inactive)
    1  A    between atoms: C_5  and  C_28
    2  A    between atoms: C_5  and  C_35
    3  A    between atoms: C_7  and  C_11
    4  A    between atoms: C_7  and  C_37
    5  A    between atoms: O_9  and  C_11
    6  A    between atoms: O_9  and  C_31
    7  A    between atoms: C_10  and  O_12
    8  A    between atoms: C_10  and  C_28
    9  A    between atoms: C_11  and  C_39
   10  A    between atoms: O_12  and  C_23
   11  A    between atoms: C_15  and  C_17
   12  A    between atoms: C_15  and  C_39
   13  A    between atoms: C_17  and  C_30
   14  A    between atoms: C_21  and  C_23
   15  A    between atoms: C_23  and  C_26
   16  A    between atoms: C_29  and  C_30
                            x       y       z     vdW  Elec       q    Type
                         _______ _______ _______ _____ _____    ______ ____

>  <TORSDO>
F 16

$$$$
=
 OpenBabel10222420373D

 41 44  0  0  1  0  0  0  0  0999 V2000
  190.5940  176.9440  141.8430 C   0  0  0  0  0  0  0  0  0  0  0  0
  190.6350  177.0020  144.3150 C   0  0  0  0  0  3  0  0  0  0  0  0
  189.2120  177.1050  141.6160 C   0  0  0  0  0  0  0  0  0  0  0  0
  188.7730  177.5070  140.3540 C   0  0  0  0  0  3  0  0  0  0  0  0
  191.4700  177.1460  140.8210 N   0  0  0  0  0  0  0  0  0  0  0  0
  189.6940  177.7530  139.3340 C   0  0  0  0  0  0  0  0  0  0  0  0
  191.1190  176.5370  143.1600 C   0  0  0  0  0  3  0  0  0  0  0  0
  188.1920  177.6030  143.8940 C   0  0  2  0  0  3  0  0  0  0  0  0
  188.2010  176.7070  142.6500 C   0  0  0  0  0  2  0  0  0  0  0  0
  191.0560  177.5400  139.5880 C   0  0  0  0  0  3  0  0  0  0  0  0
  189.5760  178.0660  144.3740 C   0  0  0  0  0  2  0  0  0  0  0  0
  189.1940  178.1490  137.9700 C   0  0  1  0  0  3  0  0  0  0  0  0
  189.7040  177.3170  136.8620 C   0  0  0  0  0  0  0  0  0  0  0  0
  190.1160  176.6390  135.9540 C   0  0  0  0  0  3  0  0  0  0  0  0
  187.7980  178.3720  137.9150 O   0  0  0  0  0  0  0  0  0  0  0  0
  187.4360  178.7550  136.6110 C   0  0  0  0  0  2  0  0  0  0  0  0
  186.3560  177.8260  136.0770 C   0  0  0  0  0  2  0  0  0  0  0  0
  185.4760  177.2950  137.2020 C   0  0  0  0  0  2  0  0  0  0  0  0
  186.7030  175.1130  137.0510 C   0  0  0  0  0  3  0  0  0  0  0  0
  186.7250  173.7140  137.0900 C   0  0  0  0  0  3  0  0  0  0  0  0
  184.3190  175.0890  137.4870 C   0  0  0  0  0  3  0  0  0  0  0  0
  185.5430  173.0020  137.3270 C   0  0  0  0  0  3  0  0  0  0  0  0
  184.3400  173.6900  137.5240 C   0  0  0  0  0  3  0  0  0  0  0  0
  185.5010  175.8030  137.2530 C   0  0  0  0  0  0  0  0  0  0  0  0
  187.5300  176.9400  144.9310 O   0  0  0  0  0  0  0  0  0  0  0  0
  186.4150  177.7360  145.2320 C   0  0  1  0  0  3  0  0  0  0  0  0
  185.2790  178.5140  147.1950 O   0  0  0  0  0  1  0  0  0  0  0  0
  186.5460  178.3350  146.6330 C   0  0  1  0  0  3  0  0  0  0  0  0
  187.3730  177.4250  147.5310 C   0  0  0  0  0  2  0  0  0  0  0  0
  188.0910  178.2280  148.6060 C   0  0  0  0  0  2  0  0  0  0  0  0
  189.5680  178.3550  148.2720 C   0  0  0  0  0  2  0  0  0  0  0  0
  190.0970  177.0440  147.7200 C   0  0  0  0  0  2  0  0  0  0  0  0
  191.4930  177.0420  147.7530 O   0  0  0  0  0  1  0  0  0  0  0  0
  186.2380  178.8260  144.1670 C   0  0  0  0  0  2  0  0  0  0  0  0
  184.8060  178.3070  142.1690 C   0  0  0  0  0  3  0  0  0  0  0  0
  183.5550  178.2220  141.5490 C   0  0  0  0  0  0  0  0  0  0  0  0
  183.7480  179.1260  144.1890 C   0  0  0  0  0  3  0  0  0  0  0  0
  183.4580  177.7700  140.2420 O   0  0  0  0  0  1  0  0  0  0  0  0
  182.4980  179.0430  143.5690 C   0  0  0  0  0  3  0  0  0  0  0  0
  184.9050  178.7610  143.4900 C   0  0  0  0  0  0  0  0  0  0  0  0
  182.4020  178.5900  142.2490 C   0  0  0  0  0  3  0  0  0  0  0  0
  1  7  1  0  0  0  0
  2 11  1  0  0  0  0
  3  1  1  0  0  0  0
  3  9  1  0  0  0  0
  4  3  2  0  0  0  0
  5  1  2  0  0  0  0
  6 10  2  0  0  0  0
  6  4  1  0  0  0  0
  7  2  2  0  0  0  0
  8 11  1  0  0  0  0
  8 25  1  1  0  0  0
  9  8  1  0  0  0  0
 10  5  1  0  0  0  0
 12 13  1  6  0  0  0
 12  6  1  0  0  0  0
 14 13  3  0  0  0  0
 15 12  1  0  0  0  0
 16 15  1  0  0  0  0
 17 16  1  0  0  0  0
 17 18  1  0  0  0  0
 18 24  1  0  0  0  0
 19 20  2  0  0  0  0
 19 24  1  0  0  0  0
 20 22  1  0  0  0  0
 21 23  1  0  0  0  0
 22 23  2  0  0  0  0
 24 21  2  0  0  0  0
 25 26  1  0  0  0  0
 26 34  1  6  0  0  0
 26 28  1  0  0  0  0
 28 27  1  1  0  0  0
 28 29  1  0  0  0  0
 29 30  1  0  0  0  0
 31 30  1  0  0  0  0
 32 33  1  0  0  0  0
 32 31  1  0  0  0  0
 35 40  1  0  0  0  0
 36 35  2  0  0  0  0
 36 41  1  0  0  0  0
 38 36  1  0  0  0  0
 39 37  1  0  0  0  0
 40 34  1  0  0  0  0
 40 37  2  0  0  0  0
 41 39  2  0  0  0  0
M  END
>  <MODEL>
4

>  <REMARK>
 VINA RESULT:      -7.6      1.825      8.181
  Name = 
  16 active torsions:
  status: ('A' for Active; 'I' for Inactive)
    1  A    between atoms: C_5  and  C_28
    2  A    between atoms: C_5  and  C_35
    3  A    between atoms: C_7  and  C_11
    4  A    between atoms: C_7  and  C_37
    5  A    between atoms: O_9  and  C_11
    6  A    between atoms: O_9  and  C_31
    7  A    between atoms: C_10  and  O_12
    8  A    between atoms: C_10  and  C_28
    9  A    between atoms: C_11  and  C_39
   10  A    between atoms: O_12  and  C_23
   11  A    between atoms: C_15  and  C_17
   12  A    between atoms: C_15  and  C_39
   13  A    between atoms: C_17  and  C_30
   14  A    between atoms: C_21  and  C_23
   15  A    between atoms: C_23  and  C_26
   16  A    between atoms: C_29  and  C_30
                            x       y       z     vdW  Elec       q    Type
                         _______ _______ _______ _____ _____    ______ ____

>  <TORSDO>
F 16

$$$$
=
 OpenBabel10222420373D

 41 44  0  0  1  0  0  0  0  0999 V2000
  184.2990  178.7690  144.2830 C   0  0  0  0  0  0  0  0  0  0  0  0
  185.8750  178.1800  146.0950 C   0  0  0  0  0  3  0  0  0  0  0  0
  185.1510  178.6480  143.1670 C   0  0  0  0  0  0  0  0  0  0  0  0
  184.5920  178.5240  141.8950 C   0  0  0  0  0  3  0  0  0  0  0  0
  182.9510  178.7990  144.0970 N   0  0  0  0  0  0  0  0  0  0  0  0
  183.2050  178.5110  141.7340 C   0  0  0  0  0  0  0  0  0  0  0  0
  184.8320  178.8870  145.6530 C   0  0  0  0  0  3  0  0  0  0  0  0
  187.3210  177.6630  144.0590 C   0  0  2  0  0  3  0  0  0  0  0  0
  186.6370  178.8060  143.3010 C   0  0  0  0  0  2  0  0  0  0  0  0
  182.3930  178.6770  142.8640 C   0  0  0  0  0  3  0  0  0  0  0  0
  186.5400  177.1200  145.2640 C   0  0  0  0  0  2  0  0  0  0  0  0
  182.6250  178.4140  140.3480 C   0  0  1  0  0  3  0  0  0  0  0  0
  182.5500  177.0420  139.8070 C   0  0  0  0  0  0  0  0  0  0  0  0
  182.4850  175.9210  139.3660 C   0  0  0  0  0  3  0  0  0  0  0  0
  181.4360  179.1580  140.1720 O   0  0  0  0  0  0  0  0  0  0  0  0
  181.1300  179.2360  138.8000 C   0  0  0  0  0  2  0  0  0  0  0  0
  181.7250  180.5040  138.2060 C   0  0  0  0  0  2  0  0  0  0  0  0
  180.8530  181.7170  138.5040 C   0  0  0  0  0  2  0  0  0  0  0  0
  180.4120  182.1920  136.0810 C   0  0  0  0  0  3  0  0  0  0  0  0
  180.3810  183.0680  134.9900 C   0  0  0  0  0  3  0  0  0  0  0  0
  181.1870  183.9940  137.5060 C   0  0  0  0  0  3  0  0  0  0  0  0
  180.7530  184.4070  135.1560 C   0  0  0  0  0  3  0  0  0  0  0  0
  181.1570  184.8690  136.4150 C   0  0  0  0  0  3  0  0  0  0  0  0
  180.8110  182.6540  137.3420 C   0  0  0  0  0  0  0  0  0  0  0  0
  188.5900  178.0820  144.4690 O   0  0  0  0  0  0  0  0  0  0  0  0
  189.4240  177.8920  143.3580 C   0  0  1  0  0  3  0  0  0  0  0  0
  191.5450  178.5810  144.2410 O   0  0  0  0  0  1  0  0  0  0  0  0
  190.8240  177.4660  143.8040 C   0  0  1  0  0  3  0  0  0  0  0  0
  190.7410  176.4450  144.9310 C   0  0  0  0  0  2  0  0  0  0  0  0
  191.7770  176.7370  146.0060 C   0  0  0  0  0  2  0  0  0  0  0  0
  191.1450  176.6520  147.3850 C   0  0  0  0  0  2  0  0  0  0  0  0
  189.6540  176.9190  147.2970 C   0  0  0  0  0  2  0  0  0  0  0  0
  189.2920  177.9100  148.2130 O   0  0  0  0  0  1  0  0  0  0  0  0
  188.8040  176.8700  142.3970 C   0  0  0  0  0  2  0  0  0  0  0  0
  188.2960  177.9020  140.1630 C   0  0  0  0  0  3  0  0  0  0  0  0
  188.6380  178.1720  138.8340 C   0  0  0  0  0  0  0  0  0  0  0  0
  190.3510  176.6480  140.4350 C   0  0  0  0  0  3  0  0  0  0  0  0
  187.7910  178.9320  138.0410 O   0  0  0  0  0  1  0  0  0  0  0  0
  190.6910  176.9170  139.1070 C   0  0  0  0  0  3  0  0  0  0  0  0
  189.1520  177.1370  140.9660 C   0  0  0  0  0  0  0  0  0  0  0  0
  189.8350  177.6790  138.3070 C   0  0  0  0  0  3  0  0  0  0  0  0
  1  7  1  0  0  0  0
  3  9  1  0  0  0  0
  3  1  2  0  0  0  0
  4  3  1  0  0  0  0
  5  1  1  0  0  0  0
  6  4  2  0  0  0  0
  6 10  1  0  0  0  0
  7  2  2  0  0  0  0
  8 25  1  1  0  0  0
  8 11  1  0  0  0  0
  9  8  1  0  0  0  0
 10  5  2  0  0  0  0
 11  2  1  0  0  0  0
 12 13  1  1  0  0  0
 12  6  1  0  0  0  0
 14 13  3  0  0  0  0
 15 12  1  0  0  0  0
 16 15  1  0  0  0  0
 17 18  1  0  0  0  0
 17 16  1  0  0  0  0
 19 24  1  0  0  0  0
 20 22  1  0  0  0  0
 20 19  2  0  0  0  0
 22 23  2  0  0  0  0
 23 21  1  0  0  0  0
 24 21  2  0  0  0  0
 24 18  1  0  0  0  0
 26 34  1  6  0  0  0
 26 28  1  0  0  0  0
 26 25  1  0  0  0  0
 28 27  1  1  0  0  0
 28 29  1  0  0  0  0
 29 30  1  0  0  0  0
 30 31  1  0  0  0  0
 32 31  1  0  0  0  0
 32 33  1  0  0  0  0
 35 40  1  0  0  0  0
 36 35  2  0  0  0  0
 37 40  2  0  0  0  0
 38 36  1  0  0  0  0
 39 37  1  0  0  0  0
 40 34  1  0  0  0  0
 41 36  1  0  0  0  0
 41 39  2  0  0  0  0
M  END
>  <MODEL>
5

>  <REMARK>
 VINA RESULT:      -7.5      3.296      8.446
  Name = 
  16 active torsions:
  status: ('A' for Active; 'I' for Inactive)
    1  A    between atoms: C_5  and  C_28
    2  A    between atoms: C_5  and  C_35
    3  A    between atoms: C_7  and  C_11
    4  A    between atoms: C_7  and  C_37
    5  A    between atoms: O_9  and  C_11
    6  A    between atoms: O_9  and  C_31
    7  A    between atoms: C_10  and  O_12
    8  A    between atoms: C_10  and  C_28
    9  A    between atoms: C_11  and  C_39
   10  A    between atoms: O_12  and  C_23
   11  A    between atoms: C_15  and  C_17
   12  A    between atoms: C_15  and  C_39
   13  A    between atoms: C_17  and  C_30
   14  A    between atoms: C_21  and  C_23
   15  A    between atoms: C_23  and  C_26
   16  A    between atoms: C_29  and  C_30
                            x       y       z     vdW  Elec       q    Type
                         _______ _______ _______ _____ _____    ______ ____

>  <TORSDO>
F 16

$$$$
=
 OpenBabel10222420373D

 41 44  0  0  1  0  0  0  0  0999 V2000
  184.4740  178.8130  144.5370 C   0  0  0  0  0  0  0  0  0  0  0  0
  186.0910  178.0710  146.2560 C   0  0  0  0  0  3  0  0  0  0  0  0
  185.2240  178.5620  143.3700 C   0  0  0  0  0  0  0  0  0  0  0  0
  184.5650  178.4800  142.1430 C   0  0  0  0  0  3  0  0  0  0  0  0
  183.1310  179.0070  144.4420 N   0  0  0  0  0  0  0  0  0  0  0  0
  183.1790  178.6380  142.0770 C   0  0  0  0  0  0  0  0  0  0  0  0
  185.1140  178.8930  145.8640 C   0  0  0  0  0  3  0  0  0  0  0  0
  187.3140  177.3330  144.1430 C   0  0  2  0  0  3  0  0  0  0  0  0
  186.7240  178.5350  143.3980 C   0  0  0  0  0  2  0  0  0  0  0  0
  182.4760  178.9280  143.2540 C   0  0  0  0  0  3  0  0  0  0  0  0
  186.5590  176.9180  145.4140 C   0  0  0  0  0  2  0  0  0  0  0  0
  182.4950  178.5830  140.7370 C   0  0  1  0  0  3  0  0  0  0  0  0
  181.2220  179.3290  140.6640 C   0  0  0  0  0  0  0  0  0  0  0  0
  180.1850  179.9410  140.6040 C   0  0  0  0  0  3  0  0  0  0  0  0
  183.3580  178.8290  139.6440 O   0  0  0  0  0  0  0  0  0  0  0  0
  182.7940  178.2910  138.4720 C   0  0  0  0  0  2  0  0  0  0  0  0
  183.7910  177.3630  137.7940 C   0  0  0  0  0  2  0  0  0  0  0  0
  185.2240  177.8360  138.0080 C   0  0  0  0  0  2  0  0  0  0  0  0
  186.4950  177.8930  135.8470 C   0  0  0  0  0  3  0  0  0  0  0  0
  187.3610  177.3030  134.9190 C   0  0  0  0  0  3  0  0  0  0  0  0
  186.6780  175.9340  137.2630 C   0  0  0  0  0  3  0  0  0  0  0  0
  187.8860  176.0290  135.1630 C   0  0  0  0  0  3  0  0  0  0  0  0
  187.5430  175.3440  136.3350 C   0  0  0  0  0  3  0  0  0  0  0  0
  186.1550  177.2110  137.0220 C   0  0  0  0  0  0  0  0  0  0  0  0
  188.6510  177.5990  144.4540 O   0  0  0  0  0  0  0  0  0  0  0  0
  189.2710  177.8810  143.2280 C   0  0  1  0  0  3  0  0  0  0  0  0
  191.0100  179.3000  144.0710 O   0  0  0  0  0  1  0  0  0  0  0  0
  190.7740  178.0850  143.4210 C   0  0  1  0  0  3  0  0  0  0  0  0
  191.3700  176.9490  144.2410 C   0  0  0  0  0  2  0  0  0  0  0  0
  191.7060  177.4150  145.6500 C   0  0  0  0  0  2  0  0  0  0  0  0
  191.0320  176.5200  146.6770 C   0  0  0  0  0  2  0  0  0  0  0  0
  192.0540  175.6100  147.3330 C   0  0  0  0  0  2  0  0  0  0  0  0
  192.7210  176.2970  148.3500 O   0  0  0  0  0  1  0  0  0  0  0  0
  188.9790  176.7640  142.2160 C   0  0  0  0  0  2  0  0  0  0  0  0
  190.3260  176.5400  140.1060 C   0  0  0  0  0  3  0  0  0  0  0  0
  190.5930  176.9010  138.7820 C   0  0  0  0  0  0  0  0  0  0  0  0
  188.5180  178.1510  140.1780 C   0  0  0  0  0  3  0  0  0  0  0  0
  191.6200  176.2780  138.0870 O   0  0  0  0  0  1  0  0  0  0  0  0
  188.7860  178.5120  138.8550 C   0  0  0  0  0  3  0  0  0  0  0  0
  189.2880  177.1670  140.8080 C   0  0  0  0  0  0  0  0  0  0  0  0
  189.8240  177.8860  138.1570 C   0  0  0  0  0  3  0  0  0  0  0  0
  1  7  1  0  0  0  0
  3  9  1  0  0  0  0
  3  1  2  0  0  0  0
  4  3  1  0  0  0  0
  5  1  1  0  0  0  0
  6  4  2  0  0  0  0
  6 10  1  0  0  0  0
  7  2  2  0  0  0  0
  8 25  1  1  0  0  0
  8 11  1  0  0  0  0
  9  8  1  0  0  0  0
 10  5  2  0  0  0  0
 11  2  1  0  0  0  0
 12 13  1  1  0  0  0
 12  6  1  0  0  0  0
 14 13  3  0  0  0  0
 15 12  1  0  0  0  0
 16 15  1  0  0  0  0
 17 18  1  0  0  0  0
 17 16  1  0  0  0  0
 19 24  1  0  0  0  0
 20 22  1  0  0  0  0
 20 19  2  0  0  0  0
 22 23  2  0  0  0  0
 23 21  1  0  0  0  0
 24 21  2  0  0  0  0
 24 18  1  0  0  0  0
 26 34  1  6  0  0  0
 26 28  1  0  0  0  0
 26 25  1  0  0  0  0
 28 27  1  1  0  0  0
 28 29  1  0  0  0  0
 29 30  1  0  0  0  0
 30 31  1  0  0  0  0
 31 32  1  0  0  0  0
 32 33  1  0  0  0  0
 35 40  1  0  0  0  0
 36 35  2  0  0  0  0
 37 40  2  0  0  0  0
 38 36  1  0  0  0  0
 39 37  1  0  0  0  0
 40 34  1  0  0  0  0
 41 36  1  0  0  0  0
 41 39  2  0  0  0  0
M  END
>  <MODEL>
6

>  <REMARK>
 VINA RESULT:      -7.4      2.278      8.280
  Name = 
  16 active torsions:
  status: ('A' for Active; 'I' for Inactive)
    1  A    between atoms: C_5  and  C_28
    2  A    between atoms: C_5  and  C_35
    3  A    between atoms: C_7  and  C_11
    4  A    between atoms: C_7  and  C_37
    5  A    between atoms: O_9  and  C_11
    6  A    between atoms: O_9  and  C_31
    7  A    between atoms: C_10  and  O_12
    8  A    between atoms: C_10  and  C_28
    9  A    between atoms: C_11  and  C_39
   10  A    between atoms: O_12  and  C_23
   11  A    between atoms: C_15  and  C_17
   12  A    between atoms: C_15  and  C_39
   13  A    between atoms: C_17  and  C_30
   14  A    between atoms: C_21  and  C_23
   15  A    between atoms: C_23  and  C_26
   16  A    between atoms: C_29  and  C_30
                            x       y       z     vdW  Elec       q    Type
                         _______ _______ _______ _____ _____    ______ ____

>  <TORSDO>
F 16

$$$$
=
 OpenBabel10222420373D

 41 44  0  0  1  0  0  0  0  0999 V2000
  184.4990  178.6530  143.1150 C   0  0  0  0  0  0  0  0  0  0  0  0
  186.0690  177.9230  144.8820 C   0  0  0  0  0  3  0  0  0  0  0  0
  185.3830  178.7360  142.0200 C   0  0  0  0  0  0  0  0  0  0  0  0
  184.8620  178.7490  140.7260 C   0  0  0  0  0  3  0  0  0  0  0  0
  183.1570  178.6250  142.8930 N   0  0  0  0  0  0  0  0  0  0  0  0
  183.4830  178.6730  140.5220 C   0  0  0  0  0  0  0  0  0  0  0  0
  184.9920  178.6180  144.5050 C   0  0  0  0  0  3  0  0  0  0  0  0
  187.5920  177.7750  142.8410 C   0  0  2  0  0  3  0  0  0  0  0  0
  186.8520  178.9650  142.2200 C   0  0  0  0  0  2  0  0  0  0  0  0
  182.6370  178.6350  141.6380 C   0  0  0  0  0  3  0  0  0  0  0  0
  186.8200  177.0270  143.9390 C   0  0  0  0  0  2  0  0  0  0  0  0
  182.9430  178.7280  139.1180 C   0  0  1  0  0  3  0  0  0  0  0  0
  182.3790  180.0350  138.7250 C   0  0  0  0  0  0  0  0  0  0  0  0
  181.9170  181.1000  138.4000 C   0  0  0  0  0  3  0  0  0  0  0  0
  183.8100  178.1710  138.1490 O   0  0  0  0  0  0  0  0  0  0  0  0
  183.1410  177.1450  137.4560 C   0  0  0  0  0  2  0  0  0  0  0  0
  184.0110  175.8980  137.4080 C   0  0  0  0  0  2  0  0  0  0  0  0
  185.4750  176.2510  137.1760 C   0  0  0  0  0  2  0  0  0  0  0  0
  185.7660  173.7650  137.3270 C   0  0  0  0  0  3  0  0  0  0  0  0
  186.5580  172.6160  137.2230 C   0  0  0  0  0  3  0  0  0  0  0  0
  187.6660  175.1310  136.6910 C   0  0  0  0  0  3  0  0  0  0  0  0
  187.9040  172.7240  136.8540 C   0  0  0  0  0  3  0  0  0  0  0  0
  188.4580  173.9820  136.5880 C   0  0  0  0  0  3  0  0  0  0  0  0
  186.3180  175.0240  137.0570 C   0  0  0  0  0  0  0  0  0  0  0  0
  188.8210  178.2120  143.3440 O   0  0  0  0  0  0  0  0  0  0  0  0
  189.7310  178.0620  142.2870 C   0  0  1  0  0  3  0  0  0  0  0  0
  191.4790  178.9820  143.6460 O   0  0  0  0  0  1  0  0  0  0  0  0
  191.1550  177.9000  142.8220 C   0  0  1  0  0  3  0  0  0  0  0  0
  191.2860  176.6060  143.6130 C   0  0  0  0  0  2  0  0  0  0  0  0
  191.5890  176.8910  145.0770 C   0  0  0  0  0  2  0  0  0  0  0  0
  190.3280  176.7550  145.9130 C   0  0  0  0  0  2  0  0  0  0  0  0
  190.6690  176.7920  147.3910 C   0  0  0  0  0  2  0  0  0  0  0  0
  192.0530  176.7150  147.5620 O   0  0  0  0  0  1  0  0  0  0  0  0
  189.3250  176.8780  141.4000 C   0  0  0  0  0  2  0  0  0  0  0  0
  188.8230  178.1320  139.2800 C   0  0  0  0  0  3  0  0  0  0  0  0
  189.0620  178.3910  137.9270 C   0  0  0  0  0  0  0  0  0  0  0  0
  190.5320  176.4150  139.2510 C   0  0  0  0  0  3  0  0  0  0  0  0
  188.3360  179.3750  137.2710 O   0  0  0  0  0  1  0  0  0  0  0  0
  190.7700  176.6740  137.8980 C   0  0  0  0  0  3  0  0  0  0  0  0
  189.5570  177.1410  139.9440 C   0  0  0  0  0  0  0  0  0  0  0  0
  190.0350  177.6630  137.2370 C   0  0  0  0  0  3  0  0  0  0  0  0
  1  7  1  0  0  0  0
  3  9  1  0  0  0  0
  3  1  2  0  0  0  0
  4  3  1  0  0  0  0
  5  1  1  0  0  0  0
  6  4  2  0  0  0  0
  6 10  1  0  0  0  0
  7  2  2  0  0  0  0
  8 25  1  1  0  0  0
  8 11  1  0  0  0  0
  9  8  1  0  0  0  0
 10  5  2  0  0  0  0
 11  2  1  0  0  0  0
 12 13  1  6  0  0  0
 12  6  1  0  0  0  0
 14 13  3  0  0  0  0
 15 12  1  0  0  0  0
 16 15  1  0  0  0  0
 17 16  1  0  0  0  0
 18 17  1  0  0  0  0
 20 19  1  0  0  0  0
 21 24  1  0  0  0  0
 22 20  2  0  0  0  0
 23 21  2  0  0  0  0
 23 22  1  0  0  0  0
 24 18  1  0  0  0  0
 24 19  2  0  0  0  0
 26 34  1  1  0  0  0
 26 28  1  0  0  0  0
 26 25  1  0  0  0  0
 28 29  1  0  0  0  0
 28 27  1  1  0  0  0
 29 30  1  0  0  0  0
 30 31  1  0  0  0  0
 31 32  1  0  0  0  0
 32 33  1  0  0  0  0
 35 40  1  0  0  0  0
 36 35  2  0  0  0  0
 37 40  2  0  0  0  0
 38 36  1  0  0  0  0
 39 37  1  0  0  0  0
 40 34  1  0  0  0  0
 41 39  2  0  0  0  0
 41 36  1  0  0  0  0
M  END
>  <MODEL>
7

>  <REMARK>
 VINA RESULT:      -7.2      2.381      8.184
  Name = 
  16 active torsions:
  status: ('A' for Active; 'I' for Inactive)
    1  A    between atoms: C_5  and  C_28
    2  A    between atoms: C_5  and  C_35
    3  A    between atoms: C_7  and  C_11
    4  A    between atoms: C_7  and  C_37
    5  A    between atoms: O_9  and  C_11
    6  A    between atoms: O_9  and  C_31
    7  A    between atoms: C_10  and  O_12
    8  A    between atoms: C_10  and  C_28
    9  A    between atoms: C_11  and  C_39
   10  A    between atoms: O_12  and  C_23
   11  A    between atoms: C_15  and  C_17
   12  A    between atoms: C_15  and  C_39
   13  A    between atoms: C_17  and  C_30
   14  A    between atoms: C_21  and  C_23
   15  A    between atoms: C_23  and  C_26
   16  A    between atoms: C_29  and  C_30
                            x       y       z     vdW  Elec       q    Type
                         _______ _______ _______ _____ _____    ______ ____

>  <TORSDO>
F 16

$$$$
=
 OpenBabel10222420373D

 41 44  0  0  1  0  0  0  0  0999 V2000
  183.9000  178.8970  144.1200 C   0  0  0  0  0  0  0  0  0  0  0  0
  186.1110  178.4360  145.1280 C   0  0  0  0  0  3  0  0  0  0  0  0
  184.2580  178.9530  142.7570 C   0  0  0  0  0  0  0  0  0  0  0  0
  183.2640  178.8200  141.7880 C   0  0  0  0  0  3  0  0  0  0  0  0
  182.5920  178.7510  144.4640 N   0  0  0  0  0  0  0  0  0  0  0  0
  181.9340  178.6250  142.1660 C   0  0  0  0  0  0  0  0  0  0  0  0
  184.9090  179.0160  145.1890 C   0  0  0  0  0  3  0  0  0  0  0  0
  186.6960  178.2310  142.6540 C   0  0  2  0  0  3  0  0  0  0  0  0
  185.6520  179.3070  142.3320 C   0  0  0  0  0  2  0  0  0  0  0  0
  181.6140  178.6180  143.5300 C   0  0  0  0  0  3  0  0  0  0  0  0
  186.5080  177.5230  144.0030 C   0  0  0  0  0  2  0  0  0  0  0  0
  180.8740  178.5210  141.1020 C   0  0  1  0  0  3  0  0  0  0  0  0
  180.7860  179.6900  140.2030 C   0  0  0  0  0  0  0  0  0  0  0  0
  180.7110  180.6440  139.4690 C   0  0  0  0  0  3  0  0  0  0  0  0
  180.8660  177.2820  140.4200 O   0  0  0  0  0  0  0  0  0  0  0  0
  180.3230  177.4580  139.1340 C   0  0  0  0  0  2  0  0  0  0  0  0
  181.1930  176.7570  138.1020 C   0  0  0  0  0  2  0  0  0  0  0  0
  181.8590  177.7590  137.1660 C   0  0  0  0  0  2  0  0  0  0  0  0
  183.8830  178.5330  138.4270 C   0  0  0  0  0  3  0  0  0  0  0  0
  185.2690  178.5730  138.6140 C   0  0  0  0  0  3  0  0  0  0  0  0
  184.1840  177.1010  136.4940 C   0  0  0  0  0  3  0  0  0  0  0  0
  186.1130  177.8770  137.7400 C   0  0  0  0  0  3  0  0  0  0  0  0
  185.5700  177.1420  136.6800 C   0  0  0  0  0  3  0  0  0  0  0  0
  183.3370  177.7940  137.3700 C   0  0  0  0  0  0  0  0  0  0  0  0
  187.9720  178.7990  142.5920 O   0  0  0  0  0  0  0  0  0  0  0  0
  188.8640  177.7180  142.6380 C   0  0  1  0  0  3  0  0  0  0  0  0
  188.6790  178.0530  140.2710 O   0  0  0  0  0  1  0  0  0  0  0  0
  189.0630  177.1240  141.2420 C   0  0  1  0  0  3  0  0  0  0  0  0
  190.5200  176.7390  141.0260 C   0  0  0  0  0  2  0  0  0  0  0  0
  191.0240  177.2520  139.6850 C   0  0  0  0  0  2  0  0  0  0  0  0
  190.8960  176.1710  138.6250 C   0  0  0  0  0  2  0  0  0  0  0  0
  192.2700  175.7270  138.1570 C   0  0  0  0  0  2  0  0  0  0  0  0
  193.1880  176.7670  138.3190 O   0  0  0  0  0  1  0  0  0  0  0  0
  190.1970  178.1560  143.2590 C   0  0  0  0  0  2  0  0  0  0  0  0
  189.5010  177.8890  145.6580 C   0  0  0  0  0  3  0  0  0  0  0  0
  189.6870  177.3430  146.9320 C   0  0  0  0  0  0  0  0  0  0  0  0
  191.4960  176.7540  144.8830 C   0  0  0  0  0  3  0  0  0  0  0  0
  188.7870  177.6310  147.9480 O   0  0  0  0  0  1  0  0  0  0  0  0
  191.6820  176.2090  146.1570 C   0  0  0  0  0  3  0  0  0  0  0  0
  190.4070  177.5970  144.6320 C   0  0  0  0  0  0  0  0  0  0  0  0
  190.7760  176.5030  147.1810 C   0  0  0  0  0  3  0  0  0  0  0  0
  1  5  1  0  0  0  0
  1  7  1  0  0  0  0
  2  7  2  0  0  0  0
  3  1  2  0  0  0  0
  4  6  2  0  0  0  0
  4  3  1  0  0  0  0
  6 10  1  0  0  0  0
  8 25  1  1  0  0  0
  8 11  1  0  0  0  0
  9  8  1  0  0  0  0
  9  3  1  0  0  0  0
 10  5  2  0  0  0  0
 11  2  1  0  0  0  0
 12 13  1  6  0  0  0
 12  6  1  0  0  0  0
 14 13  3  0  0  0  0
 15 12  1  0  0  0  0
 16 15  1  0  0  0  0
 17 16  1  0  0  0  0
 18 24  1  0  0  0  0
 18 17  1  0  0  0  0
 19 20  1  0  0  0  0
 21 23  2  0  0  0  0
 21 24  1  0  0  0  0
 22 20  2  0  0  0  0
 23 22  1  0  0  0  0
 24 19  2  0  0  0  0
 25 26  1  0  0  0  0
 26 34  1  6  0  0  0
 28 27  1  6  0  0  0
 28 26  1  0  0  0  0
 29 28  1  0  0  0  0
 30 29  1  0  0  0  0
 31 30  1  0  0  0  0
 32 33  1  0  0  0  0
 32 31  1  0  0  0  0
 34 40  1  0  0  0  0
 35 36  1  0  0  0  0
 36 41  2  0  0  0  0
 36 38  1  0  0  0  0
 37 39  2  0  0  0  0
 39 41  1  0  0  0  0
 40 37  1  0  0  0  0
 40 35  2  0  0  0  0
M  END
>  <MODEL>
8

>  <REMARK>
 VINA RESULT:      -7.2      2.520      8.725
  Name = 
  16 active torsions:
  status: ('A' for Active; 'I' for Inactive)
    1  A    between atoms: C_5  and  C_28
    2  A    between atoms: C_5  and  C_35
    3  A    between atoms: C_7  and  C_11
    4  A    between atoms: C_7  and  C_37
    5  A    between atoms: O_9  and  C_11
    6  A    between atoms: O_9  and  C_31
    7  A    between atoms: C_10  and  O_12
    8  A    between atoms: C_10  and  C_28
    9  A    between atoms: C_11  and  C_39
   10  A    between atoms: O_12  and  C_23
   11  A    between atoms: C_15  and  C_17
   12  A    between atoms: C_15  and  C_39
   13  A    between atoms: C_17  and  C_30
   14  A    between atoms: C_21  and  C_23
   15  A    between atoms: C_23  and  C_26
   16  A    between atoms: C_29  and  C_30
                            x       y       z     vdW  Elec       q    Type
                         _______ _______ _______ _____ _____    ______ ____

>  <TORSDO>
F 16

$$$$
=
 OpenBabel10222420373D

 41 44  0  0  1  0  0  0  0  0999 V2000
  186.6350  177.9420  146.1490 C   0  0  0  0  0  0  0  0  0  0  0  0
  184.4180  178.8340  145.5140 C   0  0  0  0  0  3  0  0  0  0  0  0
  187.0950  177.5060  144.8890 C   0  0  0  0  0  0  0  0  0  0  0  0
  188.4580  177.2740  144.7070 C   0  0  0  0  0  3  0  0  0  0  0  0
  187.5210  178.0930  147.1710 N   0  0  0  0  0  0  0  0  0  0  0  0
  189.3540  177.4810  145.7580 C   0  0  0  0  0  0  0  0  0  0  0  0
  185.2080  178.2180  146.3980 C   0  0  0  0  0  3  0  0  0  0  0  0
  185.3760  178.3310  143.2050 C   0  0  2  0  0  3  0  0  0  0  0  0
  186.1370  177.1390  143.7950 C   0  0  0  0  0  2  0  0  0  0  0  0
  188.8520  177.8730  147.0050 C   0  0  0  0  0  3  0  0  0  0  0  0
  184.9390  179.3950  144.2220 C   0  0  0  0  0  2  0  0  0  0  0  0
  190.8160  177.1880  145.5470 C   0  0  1  0  0  3  0  0  0  0  0  0
  191.4410  176.3730  146.6090 C   0  0  0  0  0  0  0  0  0  0  0  0
  191.9470  175.7090  147.4780 C   0  0  0  0  0  3  0  0  0  0  0  0
  191.1290  176.7490  144.2390 O   0  0  0  0  0  0  0  0  0  0  0  0
  191.6930  177.8130  143.5110 C   0  0  0  0  0  2  0  0  0  0  0  0
  191.6090  177.5240  142.0190 C   0  0  0  0  0  2  0  0  0  0  0  0
  190.3550  176.7270  141.6790 C   0  0  0  0  0  2  0  0  0  0  0  0
  188.4560  177.8090  140.4500 C   0  0  0  0  0  3  0  0  0  0  0  0
  187.8620  178.2610  139.2670 C   0  0  0  0  0  3  0  0  0  0  0  0
  190.3950  177.0740  139.1960 C   0  0  0  0  0  3  0  0  0  0  0  0
  188.5340  178.1200  138.0470 C   0  0  0  0  0  3  0  0  0  0  0  0
  189.8010  177.5250  138.0120 C   0  0  0  0  0  3  0  0  0  0  0  0
  189.7250  177.2180  140.4170 C   0  0  0  0  0  0  0  0  0  0  0  0
  184.2600  177.8610  142.5050 O   0  0  0  0  0  0  0  0  0  0  0  0
  183.6870  178.9940  141.9100 C   0  0  1  0  0  3  0  0  0  0  0  0
  184.8860  179.7560  139.9780 O   0  0  0  0  0  1  0  0  0  0  0  0
  183.8330  178.9330  140.3890 C   0  0  1  0  0  3  0  0  0  0  0  0
  184.0990  177.5050  139.9320 C   0  0  0  0  0  2  0  0  0  0  0  0
  183.4620  177.2410  138.5750 C   0  0  0  0  0  2  0  0  0  0  0  0
  182.7930  175.8770  138.5630 C   0  0  0  0  0  2  0  0  0  0  0  0
  183.5690  174.9190  137.6790 C   0  0  0  0  0  2  0  0  0  0  0  0
  184.5580  175.6110  136.9770 O   0  0  0  0  0  1  0  0  0  0  0  0
  182.2170  179.1290  142.3300 C   0  0  0  0  0  2  0  0  0  0  0  0
  181.0300  179.8860  140.2490 C   0  0  0  0  0  3  0  0  0  0  0  0
  180.1640  179.6440  139.1790 C   0  0  0  0  0  0  0  0  0  0  0  0
  180.6410  177.6400  141.0700 C   0  0  0  0  0  3  0  0  0  0  0  0
  179.9300  180.6360  138.2380 O   0  0  0  0  0  1  0  0  0  0  0  0
  179.7730  177.3990  140.0000 C   0  0  0  0  0  3  0  0  0  0  0  0
  181.2690  178.8850  141.1980 C   0  0  0  0  0  0  0  0  0  0  0  0
  179.5360  178.4020  139.0550 C   0  0  0  0  0  3  0  0  0  0  0  0
  1  7  1  0  0  0  0
  1  5  1  0  0  0  0
  2  7  2  0  0  0  0
  3  1  2  0  0  0  0
  4  3  1  0  0  0  0
  4  6  2  0  0  0  0
  6 10  1  0  0  0  0
  8 25  1  1  0  0  0
  8  9  1  0  0  0  0
  8 11  1  0  0  0  0
  9  3  1  0  0  0  0
 10  5  2  0  0  0  0
 11  2  1  0  0  0  0
 12  6  1  0  0  0  0
 12 13  1  1  0  0  0
 13 14  3  0  0  0  0
 15 12  1  0  0  0  0
 16 15  1  0  0  0  0
 17 16  1  0  0  0  0
 18 17  1  0  0  0  0
 20 19  2  0  0  0  0
 21 24  2  0  0  0  0
 22 20  1  0  0  0  0
 23 22  2  0  0  0  0
 23 21  1  0  0  0  0
 24 19  1  0  0  0  0
 24 18  1  0  0  0  0
 26 34  1  6  0  0  0
 26 25  1  0  0  0  0
 28 27  1  1  0  0  0
 28 26  1  0  0  0  0
 29 28  1  0  0  0  0
 30 29  1  0  0  0  0
 31 30  1  0  0  0  0
 32 31  1  0  0  0  0
 33 32  1  0  0  0  0
 35 40  1  0  0  0  0
 36 35  2  0  0  0  0
 37 40  2  0  0  0  0
 38 36  1  0  0  0  0
 39 37  1  0  0  0  0
 40 34  1  0  0  0  0
 41 36  1  0  0  0  0
 41 39  2  0  0  0  0
M  END
>  <MODEL>
9

>  <REMARK>
 VINA RESULT:      -7.2      2.223      6.125
  Name = 
  16 active torsions:
  status: ('A' for Active; 'I' for Inactive)
    1  A    between atoms: C_5  and  C_28
    2  A    between atoms: C_5  and  C_35
    3  A    between atoms: C_7  and  C_11
    4  A    between atoms: C_7  and  C_37
    5  A    between atoms: O_9  and  C_11
    6  A    between atoms: O_9  and  C_31
    7  A    between atoms: C_10  and  O_12
    8  A    between atoms: C_10  and  C_28
    9  A    between atoms: C_11  and  C_39
   10  A    between atoms: O_12  and  C_23
   11  A    between atoms: C_15  and  C_17
   12  A    between atoms: C_15  and  C_39
   13  A    between atoms: C_17  and  C_30
   14  A    between atoms: C_21  and  C_23
   15  A    between atoms: C_23  and  C_26
   16  A    between atoms: C_29  and  C_30
                            x       y       z     vdW  Elec       q    Type
                         _______ _______ _______ _____ _____    ______ ____

>  <TORSDO>
F 16

$$$$
