=
 OpenBabel10222419513D

 50 55  0  0  1  0  0  0  0  0999 V2000
  188.7410  177.6260  141.4890 C   0  0  0  0  0  0  0  0  0  0  0  0
  191.1990  176.0560  139.3590 N   0  0  0  0  0  0  0  0  0  0  0  0
  188.6040  178.0610  140.2480 C   0  0  0  0  0  3  0  0  0  0  0  0
  190.6020  176.1320  138.2160 C   0  0  0  0  0  0  0  0  0  0  0  0
  188.8380  175.2640  137.2820 C   0  0  1  0  0  3  0  0  0  0  0  0
  190.0590  174.9730  137.5990 N   0  0  0  0  0  2  0  0  0  0  0  0
  188.4660  176.6350  137.6620 C   0  0  0  0  0  0  0  0  0  0  0  0
  186.4260  177.9140  136.6660 C   0  0  0  0  0  3  0  0  0  0  0  0
  187.4460  177.2770  137.1620 C   0  0  0  0  0  0  0  0  0  0  0  0
  190.3050  176.7930  141.8060 S   0  0  0  0  0  0  0  0  0  0  0  0
  189.7260  177.3180  138.0820 C   0  0  1  0  0  3  0  0  0  0  0  0
  190.8780  177.2470  140.1320 C   0  0  2  0  0  3  0  0  0  0  0  0
  189.7500  177.8440  139.4370 N   0  0  0  0  0  0  0  0  0  0  0  0
  186.9330  173.6200  137.2570 O   0  0  0  0  0  1  0  0  0  0  0  0
  188.5160  173.5650  135.5510 O   0  0  0  0  0  0  0  0  0  0  0  0
  187.9560  174.2840  136.5760 C   0  0  0  0  0  0  0  0  0  0  0  0
  187.6670  174.5730  135.2660 O   0  0  0  0  0  0  0  0  0  0  0  0
  187.6600  176.9430  143.6350 C   0  0  0  0  0  0  0  0  0  0  0  0
  187.7360  177.8270  142.5060 N   0  0  0  0  0  0  0  0  0  0  0  0
  187.7030  175.6950  143.4660 O   0  0  0  0  0  0  0  0  0  0  0  0
  186.7100  178.8610  142.3460 C   0  0  0  0  0  2  0  0  0  0  0  0
  184.8940  178.0500  143.6820 F   0  0  0  0  0  0  0  0  0  0  0  0
  185.2960  178.2860  142.3840 C   0  0  0  0  0  3  0  0  0  0  0  0
  184.3920  179.1260  141.7580 F   0  0  0  0  0  0  0  0  0  0  0  0
  187.5990  177.4800  145.0230 C   0  0  0  0  0  2  0  0  0  0  0  0
  189.6660  176.7690  146.0670 C   0  0  1  0  0  3  0  0  0  0  0  0
  189.0730  177.8340  146.9890 C   0  0  0  0  0  0  0  0  0  0  0  0
  188.9960  177.8750  145.4630 C   0  0  2  0  0  3  0  0  0  0  0  0
  188.8430  178.2990  148.0920 O   0  0  0  0  0  0  0  0  0  0  0  0
  191.1670  176.9640  145.9710 C   0  0  0  0  0  2  0  0  0  0  0  0
  191.8560  176.4350  147.2180 C   0  0  0  0  0  2  0  0  0  0  0  0
  192.4630  175.2100  146.9420 O   0  0  0  0  0  1  0  0  0  0  0  0
  185.0550  177.6210  137.1600 C   0  0  2  0  0  3  0  0  0  0  0  0
  184.9860  177.9560  138.6450 C   0  0  0  0  0  2  0  0  0  0  0  0
  183.6090  178.1530  139.0670 N   0  0  0  0  0  2  0  0  0  0  0  0
  183.2250  179.5030  138.6760 C   0  0  0  0  0  2  0  0  0  0  0  0
  181.0170  178.2950  138.6190 C   0  0  0  0  0  2  0  0  0  0  0  0
  180.2540  180.6010  139.9060 C   0  0  0  0  0  2  0  0  0  0  0  0
  181.7800  179.5460  138.1890 C   0  0  1  0  0  3  0  0  0  0  0  0
  179.3180  179.4620  139.8160 N   0  0  0  0  0  0  0  0  0  0  0  0
  179.5860  178.6000  138.7190 N   0  0  0  0  0  2  0  0  0  0  0  0
  181.0670  180.8260  138.6270 C   0  0  0  0  0  2  0  0  0  0  0  0
  179.4250  178.6870  141.0470 C   0  0  0  0  0  2  0  0  0  0  0  0
  180.3600  179.3810  142.0260 C   0  0  0  0  0  2  0  0  0  0  0  0
  180.4830  178.5600  143.2970 C   0  0  0  0  0  3  0  0  0  0  0  0
  181.8290  178.8270  143.9420 C   0  0  0  0  0  1  0  0  0  0  0  0
  179.3820  178.9300  144.2740 C   0  0  0  0  0  1  0  0  0  0  0  0
  184.7390  176.1550  136.9190 C   0  0  0  0  0  2  0  0  0  0  0  0
  182.5440  175.1340  136.8110 N   0  0  0  0  0  1  0  0  0  0  0  0
  183.4590  176.0180  136.1160 C   0  0  0  0  0  2  0  0  0  0  0  0
  1 10  1  0  0  0  0
  1 19  1  0  0  0  0
  3  1  2  0  0  0  0
  4  2  2  0  0  0  0
  5 16  1  6  0  0  0
  5  6  1  0  0  0  0
  5  7  1  0  0  0  0
  6  4  1  0  0  0  0
  8  9  2  0  0  0  0
  9  7  2  0  0  0  0
 11  7  1  1  0  0  0
 11  4  1  0  0  0  0
 11 13  1  0  0  0  0
 12  2  1  6  0  0  0
 12 10  1  0  0  0  0
 13 12  1  0  0  0  0
 13  3  1  0  0  0  0
 15 16  1  0  0  0  0
 16 14  1  0  0  0  0
 17 15  1  0  0  0  0
 17 16  1  0  0  0  0
 18 25  1  0  0  0  0
 19 18  1  0  0  0  0
 20 18  2  0  0  0  0
 21 23  1  0  0  0  0
 21 19  1  0  0  0  0
 23 22  1  0  0  0  0
 24 23  1  0  0  0  0
 26 30  1  6  0  0  0
 26 27  1  0  0  0  0
 27 29  2  0  0  0  0
 28 25  1  1  0  0  0
 28 26  1  0  0  0  0
 28 27  1  0  0  0  0
 30 31  1  0  0  0  0
 32 31  1  0  0  0  0
 33  8  1  1  0  0  0
 33 34  1  0  0  0  0
 34 35  1  0  0  0  0
 36 35  1  0  0  0  0
 37 41  1  0  0  0  0
 39 37  1  0  0  0  0
 39 42  1  0  0  0  0
 39 36  1  1  0  0  0
 40 38  1  0  0  0  0
 40 43  1  0  0  0  0
 41 40  1  0  0  0  0
 42 38  1  0  0  0  0
 43 44  1  0  0  0  0
 44 45  1  0  0  0  0
 45 46  1  0  0  0  0
 45 47  1  0  0  0  0
 48 33  1  0  0  0  0
 50 49  1  0  0  0  0
 50 48  1  0  0  0  0
M  END
>  <MODEL>
1

>  <REMARK>
 VINA RESULT:      -7.5      0.000      0.000
  Name = 
  18 active torsions:
  status: ('A' for Active; 'I' for Inactive)
    1  A    between atoms: C_1  and  C_47
    2  A    between atoms: C_3  and  C_47
    3  A    between atoms: C_4  and  C_21
    4  A    between atoms: C_6  and  C_31
    5  A    between atoms: C_6  and  C_35
    6  A    between atoms: C_7  and  C_21
    7  A    between atoms: C_12  and  N_32
    8  A    between atoms: C_17  and  C_30
    9  A    between atoms: C_18  and  C_36
   10  A    between atoms: C_22  and  C_33
   11  A    between atoms: N_23  and  C_25
   12  A    between atoms: C_24  and  C_31
   13  A    between atoms: C_25  and  C_48
   14  A    between atoms: N_26  and  C_30
   15  A    between atoms: N_26  and  C_50
   16  A    between atoms: C_31  and  C_50
   17  A    between atoms: N_32  and  C_33
   18  A    between atoms: C_38  and  C_48
                            x       y       z     vdW  Elec       q    Type
                         _______ _______ _______ _____ _____    ______ ____

>  <TORSDO>
F 18

$$$$
=
 OpenBabel10222419513D

 50 55  0  0  1  0  0  0  0  0999 V2000
  188.7330  177.6200  141.3750 C   0  0  0  0  0  0  0  0  0  0  0  0
  191.2450  176.0870  139.2830 N   0  0  0  0  0  0  0  0  0  0  0  0
  188.5830  178.0220  140.1240 C   0  0  0  0  0  3  0  0  0  0  0  0
  190.6480  176.1160  138.1380 C   0  0  0  0  0  0  0  0  0  0  0  0
  188.9170  175.1670  137.2230 C   0  0  1  0  0  3  0  0  0  0  0  0
  190.1460  174.9260  137.5470 N   0  0  0  0  0  2  0  0  0  0  0  0
  188.4980  176.5340  137.5710 C   0  0  0  0  0  0  0  0  0  0  0  0
  186.4160  177.7190  136.5440 C   0  0  0  0  0  3  0  0  0  0  0  0
  187.4560  177.1290  137.0560 C   0  0  0  0  0  0  0  0  0  0  0  0
  190.3240  176.8490  141.7120 S   0  0  0  0  0  0  0  0  0  0  0  0
  189.7330  177.2690  137.9760 C   0  0  1  0  0  3  0  0  0  0  0  0
  190.8830  177.2840  140.0290 C   0  0  2  0  0  3  0  0  0  0  0  0
  189.7360  177.8260  139.3200 N   0  0  0  0  0  0  0  0  0  0  0  0
  187.6460  174.3250  135.2220 O   0  0  0  0  0  1  0  0  0  0  0  0
  187.1990  173.4280  137.3230 O   0  0  0  0  0  0  0  0  0  0  0  0
  188.0700  174.1420  136.5390 C   0  0  0  0  0  0  0  0  0  0  0  0
  188.3230  172.8350  136.8740 O   0  0  0  0  0  0  0  0  0  0  0  0
  187.6590  176.9370  143.5250 C   0  0  0  0  0  0  0  0  0  0  0  0
  187.7200  177.8100  142.3860 N   0  0  0  0  0  0  0  0  0  0  0  0
  187.7310  175.6890  143.3710 O   0  0  0  0  0  0  0  0  0  0  0  0
  186.6710  178.8190  142.2110 C   0  0  0  0  0  2  0  0  0  0  0  0
  184.8120  178.1580  143.5720 F   0  0  0  0  0  0  0  0  0  0  0  0
  185.2690  178.2160  142.2720 C   0  0  0  0  0  3  0  0  0  0  0  0
  184.3780  178.9300  141.4920 F   0  0  0  0  0  0  0  0  0  0  0  0
  187.5810  177.4890  144.9060 C   0  0  0  0  0  2  0  0  0  0  0  0
  189.6440  176.7680  145.9530 C   0  0  1  0  0  3  0  0  0  0  0  0
  189.0400  177.8160  146.8880 C   0  0  0  0  0  0  0  0  0  0  0  0
  188.9730  177.8820  145.3620 C   0  0  2  0  0  3  0  0  0  0  0  0
  188.8010  178.2630  147.9970 O   0  0  0  0  0  0  0  0  0  0  0  0
  191.1450  176.9710  145.8700 C   0  0  0  0  0  2  0  0  0  0  0  0
  191.8010  176.6540  147.2040 C   0  0  0  0  0  2  0  0  0  0  0  0
  191.6390  175.3020  147.5040 O   0  0  0  0  0  1  0  0  0  0  0  0
  185.0560  177.3910  137.0440 C   0  0  2  0  0  3  0  0  0  0  0  0
  184.7860  178.2030  138.3050 C   0  0  0  0  0  2  0  0  0  0  0  0
  183.3720  178.1780  138.6430 N   0  0  0  0  0  2  0  0  0  0  0  0
  182.9200  179.5600  138.7190 C   0  0  0  0  0  2  0  0  0  0  0  0
  180.9390  181.1080  138.5820 C   0  0  0  0  0  2  0  0  0  0  0  0
  180.8290  179.9890  136.0750 C   0  0  0  0  0  2  0  0  0  0  0  0
  181.4110  179.6590  138.5120 C   0  0  1  0  0  3  0  0  0  0  0  0
  179.9650  181.1390  136.4080 N   0  0  0  0  0  0  0  0  0  0  0  0
  179.7090  181.2660  137.7990 N   0  0  0  0  0  2  0  0  0  0  0  0
  180.9670  178.9770  137.2170 C   0  0  0  0  0  2  0  0  0  0  0  0
  180.6280  182.3540  135.9480 C   0  0  0  0  0  2  0  0  0  0  0  0
  179.6650  183.5320  136.0020 C   0  0  0  0  0  2  0  0  0  0  0  0
  180.4230  184.8060  136.3270 C   0  0  0  0  0  3  0  0  0  0  0  0
  179.4950  185.7800  137.0280 C   0  0  0  0  0  1  0  0  0  0  0  0
  181.6020  184.5030  137.2340 C   0  0  0  0  0  1  0  0  0  0  0  0
  184.9730  175.9020  137.3300 C   0  0  0  0  0  2  0  0  0  0  0  0
  183.2950  176.2640  135.6200 N   0  0  0  0  0  1  0  0  0  0  0  0
  183.9230  175.2530  136.4480 C   0  0  0  0  0  2  0  0  0  0  0  0
  1 10  1  0  0  0  0
  1 19  1  0  0  0  0
  3  1  2  0  0  0  0
  4  2  2  0  0  0  0
  5 16  1  6  0  0  0
  5  6  1  0  0  0  0
  5  7  1  0  0  0  0
  6  4  1  0  0  0  0
  8  9  2  0  0  0  0
  9  7  2  0  0  0  0
 11  7  1  1  0  0  0
 11  4  1  0  0  0  0
 11 13  1  0  0  0  0
 12  2  1  6  0  0  0
 12 10  1  0  0  0  0
 13 12  1  0  0  0  0
 13  3  1  0  0  0  0
 14 16  1  0  0  0  0
 16 17  1  0  0  0  0
 16 15  1  0  0  0  0
 17 15  1  0  0  0  0
 18 25  1  0  0  0  0
 19 18  1  0  0  0  0
 20 18  2  0  0  0  0
 21 23  1  0  0  0  0
 21 19  1  0  0  0  0
 23 22  1  0  0  0  0
 24 23  1  0  0  0  0
 26 30  1  6  0  0  0
 26 27  1  0  0  0  0
 27 29  2  0  0  0  0
 28 25  1  1  0  0  0
 28 26  1  0  0  0  0
 28 27  1  0  0  0  0
 30 31  1  0  0  0  0
 31 32  1  0  0  0  0
 33  8  1  1  0  0  0
 33 48  1  0  0  0  0
 33 34  1  0  0  0  0
 34 35  1  0  0  0  0
 35 36  1  0  0  0  0
 38 40  1  0  0  0  0
 38 42  1  0  0  0  0
 39 37  1  0  0  0  0
 39 36  1  6  0  0  0
 40 41  1  0  0  0  0
 41 37  1  0  0  0  0
 42 39  1  0  0  0  0
 43 44  1  0  0  0  0
 43 40  1  0  0  0  0
 44 45  1  0  0  0  0
 45 46  1  0  0  0  0
 45 47  1  0  0  0  0
 49 50  1  0  0  0  0
 50 48  1  0  0  0  0
M  END
>  <MODEL>
2

>  <REMARK>
 VINA RESULT:      -7.3      1.615      2.981
  Name = 
  18 active torsions:
  status: ('A' for Active; 'I' for Inactive)
    1  A    between atoms: C_1  and  C_47
    2  A    between atoms: C_3  and  C_47
    3  A    between atoms: C_4  and  C_21
    4  A    between atoms: C_6  and  C_31
    5  A    between atoms: C_6  and  C_35
    6  A    between atoms: C_7  and  C_21
    7  A    between atoms: C_12  and  N_32
    8  A    between atoms: C_17  and  C_30
    9  A    between atoms: C_18  and  C_36
   10  A    between atoms: C_22  and  C_33
   11  A    between atoms: N_23  and  C_25
   12  A    between atoms: C_24  and  C_31
   13  A    between atoms: C_25  and  C_48
   14  A    between atoms: N_26  and  C_30
   15  A    between atoms: N_26  and  C_50
   16  A    between atoms: C_31  and  C_50
   17  A    between atoms: N_32  and  C_33
   18  A    between atoms: C_38  and  C_48
                            x       y       z     vdW  Elec       q    Type
                         _______ _______ _______ _____ _____    ______ ____

>  <TORSDO>
F 18

$$$$
=
 OpenBabel10222419513D

 50 55  0  0  1  0  0  0  0  0999 V2000
  188.5780  177.6630  141.0990 C   0  0  0  0  0  0  0  0  0  0  0  0
  190.6460  176.2060  138.5220 N   0  0  0  0  0  0  0  0  0  0  0  0
  188.1310  178.0220  139.9080 C   0  0  0  0  0  3  0  0  0  0  0  0
  189.8090  176.1720  137.5390 C   0  0  0  0  0  0  0  0  0  0  0  0
  187.9740  175.1090  137.0490 C   0  0  1  0  0  3  0  0  0  0  0  0
  189.2560  174.9410  137.0940 N   0  0  0  0  0  2  0  0  0  0  0  0
  187.5660  176.4610  137.4610 C   0  0  0  0  0  0  0  0  0  0  0  0
  185.2440  177.5070  136.9070 C   0  0  0  0  0  3  0  0  0  0  0  0
  186.4040  176.9860  137.1830 C   0  0  0  0  0  0  0  0  0  0  0  0
  190.2460  176.9860  141.0830 S   0  0  0  0  0  0  0  0  0  0  0  0
  188.8160  177.2710  137.5680 C   0  0  1  0  0  3  0  0  0  0  0  0
  190.3910  177.4030  139.3110 C   0  0  2  0  0  3  0  0  0  0  0  0
  189.0860  177.8640  138.8680 N   0  0  0  0  0  0  0  0  0  0  0  0
  186.0720  173.5080  137.4340 O   0  0  0  0  0  1  0  0  0  0  0  0
  187.5610  173.1190  135.6870 O   0  0  0  0  0  0  0  0  0  0  0  0
  187.0560  174.0220  136.5880 C   0  0  0  0  0  0  0  0  0  0  0  0
  186.6970  174.0630  135.2630 O   0  0  0  0  0  0  0  0  0  0  0  0
  188.0010  176.9400  143.4190 C   0  0  0  0  0  0  0  0  0  0  0  0
  187.8060  177.8270  142.3080 N   0  0  0  0  0  0  0  0  0  0  0  0
  188.0500  175.6940  143.2340 O   0  0  0  0  0  0  0  0  0  0  0  0
  186.7350  178.8260  142.3790 C   0  0  0  0  0  2  0  0  0  0  0  0
  184.8340  179.1480  143.8010 F   0  0  0  0  0  0  0  0  0  0  0  0
  185.4420  178.2490  142.9500 C   0  0  0  0  0  3  0  0  0  0  0  0
  184.5630  177.8870  141.9450 F   0  0  0  0  0  0  0  0  0  0  0  0
  188.2190  177.4720  144.7930 C   0  0  0  0  0  2  0  0  0  0  0  0
  189.9650  177.6090  146.4670 C   0  0  1  0  0  3  0  0  0  0  0  0
  190.6670  177.7260  145.1150 C   0  0  0  0  0  0  0  0  0  0  0  0
  189.4600  176.8290  145.3830 C   0  0  2  0  0  3  0  0  0  0  0  0
  191.5310  178.1790  144.3840 O   0  0  0  0  0  0  0  0  0  0  0  0
  190.7900  176.7310  147.3900 C   0  0  0  0  0  2  0  0  0  0  0  0
  191.8980  176.0360  146.6170 C   0  0  0  0  0  2  0  0  0  0  0  0
  192.8970  175.6160  147.4950 O   0  0  0  0  0  1  0  0  0  0  0  0
  184.0500  177.1220  137.7030 C   0  0  2  0  0  3  0  0  0  0  0  0
  183.4000  175.9040  137.0580 C   0  0  0  0  0  2  0  0  0  0  0  0
  182.5090  175.2360  137.9930 N   0  0  0  0  0  2  0  0  0  0  0  0
  181.3600  174.7630  137.2330 C   0  0  0  0  0  2  0  0  0  0  0  0
  180.4080  174.8240  139.5630 C   0  0  0  0  0  2  0  0  0  0  0  0
  179.4150  177.1960  138.5920 C   0  0  0  0  0  2  0  0  0  0  0  0
  180.0860  174.8150  138.0710 C   0  0  1  0  0  3  0  0  0  0  0  0
  179.2890  176.8760  140.0280 N   0  0  0  0  0  0  0  0  0  0  0  0
  179.3240  175.4820  140.2990 N   0  0  0  0  0  2  0  0  0  0  0  0
  179.1890  175.9890  137.6760 C   0  0  0  0  0  2  0  0  0  0  0  0
  180.3970  177.5100  140.7340 C   0  0  0  0  0  2  0  0  0  0  0  0
  179.9420  177.9920  142.1040 C   0  0  0  0  0  2  0  0  0  0  0  0
  180.7020  179.2470  142.4920 C   0  0  0  0  0  3  0  0  0  0  0  0
  179.7190  180.3690  142.7630 C   0  0  0  0  0  1  0  0  0  0  0  0
  181.5300  178.9990  143.7400 C   0  0  0  0  0  1  0  0  0  0  0  0
  183.0820  178.2910  137.7510 C   0  0  0  0  0  2  0  0  0  0  0  0
  184.4620  179.7600  139.0960 N   0  0  0  0  0  1  0  0  0  0  0  0
  183.2110  179.0290  139.0700 C   0  0  0  0  0  2  0  0  0  0  0  0
  1 19  1  0  0  0  0
  3  1  2  0  0  0  0
  4 11  1  0  0  0  0
  4  2  2  0  0  0  0
  5 16  1  6  0  0  0
  5  6  1  0  0  0  0
  5  7  1  0  0  0  0
  6  4  1  0  0  0  0
  8  9  2  0  0  0  0
  9  7  2  0  0  0  0
 10  1  1  0  0  0  0
 11  7  1  1  0  0  0
 11 13  1  0  0  0  0
 12  2  1  6  0  0  0
 12 10  1  0  0  0  0
 13 12  1  0  0  0  0
 13  3  1  0  0  0  0
 15 16  1  0  0  0  0
 16 14  1  0  0  0  0
 17 15  1  0  0  0  0
 17 16  1  0  0  0  0
 18 25  1  0  0  0  0
 19 21  1  0  0  0  0
 19 18  1  0  0  0  0
 20 18  2  0  0  0  0
 21 23  1  0  0  0  0
 23 22  1  0  0  0  0
 24 23  1  0  0  0  0
 26 30  1  1  0  0  0
 27 28  1  0  0  0  0
 27 26  1  0  0  0  0
 28 25  1  6  0  0  0
 28 26  1  0  0  0  0
 29 27  2  0  0  0  0
 31 30  1  0  0  0  0
 31 32  1  0  0  0  0
 33  8  1  6  0  0  0
 33 48  1  0  0  0  0
 34 33  1  0  0  0  0
 34 35  1  0  0  0  0
 36 35  1  0  0  0  0
 37 41  1  0  0  0  0
 38 40  1  0  0  0  0
 39 36  1  6  0  0  0
 39 37  1  0  0  0  0
 40 41  1  0  0  0  0
 40 43  1  0  0  0  0
 42 39  1  0  0  0  0
 42 38  1  0  0  0  0
 43 44  1  0  0  0  0
 44 45  1  0  0  0  0
 45 46  1  0  0  0  0
 45 47  1  0  0  0  0
 48 50  1  0  0  0  0
 50 49  1  0  0  0  0
M  END
>  <MODEL>
3

>  <REMARK>
 VINA RESULT:      -7.2      1.547      2.350
  Name = 
  18 active torsions:
  status: ('A' for Active; 'I' for Inactive)
    1  A    between atoms: C_1  and  C_47
    2  A    between atoms: C_3  and  C_47
    3  A    between atoms: C_4  and  C_21
    4  A    between atoms: C_6  and  C_31
    5  A    between atoms: C_6  and  C_35
    6  A    between atoms: C_7  and  C_21
    7  A    between atoms: C_12  and  N_32
    8  A    between atoms: C_17  and  C_30
    9  A    between atoms: C_18  and  C_36
   10  A    between atoms: C_22  and  C_33
   11  A    between atoms: N_23  and  C_25
   12  A    between atoms: C_24  and  C_31
   13  A    between atoms: C_25  and  C_48
   14  A    between atoms: N_26  and  C_30
   15  A    between atoms: N_26  and  C_50
   16  A    between atoms: C_31  and  C_50
   17  A    between atoms: N_32  and  C_33
   18  A    between atoms: C_38  and  C_48
                            x       y       z     vdW  Elec       q    Type
                         _______ _______ _______ _____ _____    ______ ____

>  <TORSDO>
F 18

$$$$
=
 OpenBabel10222419513D

 50 55  0  0  1  0  0  0  0  0999 V2000
  188.7970  177.5970  141.2500 C   0  0  0  0  0  0  0  0  0  0  0  0
  191.2240  175.9020  139.1820 N   0  0  0  0  0  0  0  0  0  0  0  0
  188.6560  177.9730  139.9910 C   0  0  0  0  0  3  0  0  0  0  0  0
  190.6210  175.9280  138.0410 C   0  0  0  0  0  0  0  0  0  0  0  0
  188.8420  175.0350  137.1610 C   0  0  1  0  0  3  0  0  0  0  0  0
  190.0620  174.7470  137.4830 N   0  0  0  0  0  2  0  0  0  0  0  0
  188.4870  176.4270  137.4760 C   0  0  0  0  0  0  0  0  0  0  0  0
  186.4530  177.6770  136.4320 C   0  0  0  0  0  3  0  0  0  0  0  0
  187.4690  177.0550  136.9530 C   0  0  0  0  0  0  0  0  0  0  0  0
  190.3550  176.7640  141.5970 S   0  0  0  0  0  0  0  0  0  0  0  0
  189.7560  177.1160  137.8550 C   0  0  1  0  0  3  0  0  0  0  0  0
  190.9210  177.1320  139.9000 C   0  0  2  0  0  3  0  0  0  0  0  0
  189.7940  177.7060  139.1840 N   0  0  0  0  0  0  0  0  0  0  0  0
  186.9480  173.3810  137.2360 O   0  0  0  0  0  1  0  0  0  0  0  0
  188.4800  173.2880  135.4860 O   0  0  0  0  0  0  0  0  0  0  0  0
  187.9460  174.0320  136.5080 C   0  0  0  0  0  0  0  0  0  0  0  0
  187.6160  174.2830  135.2000 O   0  0  0  0  0  0  0  0  0  0  0  0
  187.7340  177.0400  143.4410 C   0  0  0  0  0  0  0  0  0  0  0  0
  187.8010  177.8570  142.2620 N   0  0  0  0  0  0  0  0  0  0  0  0
  187.7760  175.7840  143.3440 O   0  0  0  0  0  0  0  0  0  0  0  0
  186.7730  178.8810  142.0520 C   0  0  0  0  0  2  0  0  0  0  0  0
  184.7620  179.6820  143.0770 F   0  0  0  0  0  0  0  0  0  0  0  0
  185.4610  178.5390  142.7540 C   0  0  0  0  0  3  0  0  0  0  0  0
  184.6730  177.7100  141.9750 F   0  0  0  0  0  0  0  0  0  0  0  0
  187.6850  177.6560  144.7960 C   0  0  0  0  0  2  0  0  0  0  0  0
  189.7390  176.8350  145.7850 C   0  0  1  0  0  3  0  0  0  0  0  0
  189.1860  177.8730  146.7610 C   0  0  0  0  0  0  0  0  0  0  0  0
  189.0970  177.9890  145.2400 C   0  0  2  0  0  3  0  0  0  0  0  0
  188.9790  178.2920  147.8870 O   0  0  0  0  0  0  0  0  0  0  0  0
  191.2450  176.9910  145.6830 C   0  0  0  0  0  2  0  0  0  0  0  0
  191.9430  176.1010  146.6980 C   0  0  0  0  0  2  0  0  0  0  0  0
  192.1310  176.7990  147.8910 O   0  0  0  0  0  1  0  0  0  0  0  0
  185.0830  177.4230  136.9480 C   0  0  2  0  0  3  0  0  0  0  0  0
  184.9480  178.0640  138.3240 C   0  0  0  0  0  2  0  0  0  0  0  0
  183.6180  177.8490  138.8680 N   0  0  0  0  0  2  0  0  0  0  0  0
  183.1880  179.1030  139.4710 C   0  0  0  0  0  2  0  0  0  0  0  0
  180.8880  180.0350  139.8960 C   0  0  0  0  0  2  0  0  0  0  0  0
  180.2140  177.5540  138.9240 C   0  0  0  0  0  2  0  0  0  0  0  0
  181.8800  178.9270  140.2380 C   0  0  1  0  0  3  0  0  0  0  0  0
  179.1660  178.5750  139.1320 N   0  0  0  0  0  0  0  0  0  0  0  0
  179.5180  179.5520  140.1010 N   0  0  0  0  0  2  0  0  0  0  0  0
  181.2770  177.5370  140.0260 C   0  0  0  0  0  2  0  0  0  0  0  0
  178.9310  179.2510  137.8610 C   0  0  0  0  0  2  0  0  0  0  0  0
  179.3630  178.3610  136.7040 C   0  0  0  0  0  2  0  0  0  0  0  0
  180.3120  179.1190  135.7940 C   0  0  0  0  0  3  0  0  0  0  0  0
  180.5280  180.5160  136.3410 C   0  0  0  0  0  1  0  0  0  0  0  0
  181.6500  178.4050  135.7140 C   0  0  0  0  0  1  0  0  0  0  0  0
  184.8460  175.9250  137.0230 C   0  0  0  0  0  2  0  0  0  0  0  0
  183.8240  174.0290  135.9110 N   0  0  0  0  0  1  0  0  0  0  0  0
  183.9960  175.4670  135.8520 C   0  0  0  0  0  2  0  0  0  0  0  0
  1 10  1  0  0  0  0
  1 19  1  0  0  0  0
  3  1  2  0  0  0  0
  4  2  2  0  0  0  0
  5 16  1  6  0  0  0
  5  7  1  0  0  0  0
  5  6  1  0  0  0  0
  6  4  1  0  0  0  0
  8  9  2  0  0  0  0
  9  7  2  0  0  0  0
 11  7  1  1  0  0  0
 11  4  1  0  0  0  0
 11 13  1  0  0  0  0
 12  2  1  6  0  0  0
 12 10  1  0  0  0  0
 13 12  1  0  0  0  0
 13  3  1  0  0  0  0
 15 16  1  0  0  0  0
 16 14  1  0  0  0  0
 17 15  1  0  0  0  0
 17 16  1  0  0  0  0
 18 25  1  0  0  0  0
 19 18  1  0  0  0  0
 20 18  2  0  0  0  0
 21 19  1  0  0  0  0
 21 23  1  0  0  0  0
 23 22  1  0  0  0  0
 24 23  1  0  0  0  0
 26 30  1  6  0  0  0
 26 27  1  0  0  0  0
 27 29  2  0  0  0  0
 28 25  1  1  0  0  0
 28 26  1  0  0  0  0
 28 27  1  0  0  0  0
 30 31  1  0  0  0  0
 31 32  1  0  0  0  0
 33  8  1  1  0  0  0
 33 48  1  0  0  0  0
 33 34  1  0  0  0  0
 34 35  1  0  0  0  0
 35 36  1  0  0  0  0
 37 41  1  0  0  0  0
 37 39  1  0  0  0  0
 38 40  1  0  0  0  0
 38 42  1  0  0  0  0
 39 36  1  6  0  0  0
 40 41  1  0  0  0  0
 42 39  1  0  0  0  0
 43 40  1  0  0  0  0
 44 43  1  0  0  0  0
 45 46  1  0  0  0  0
 45 44  1  0  0  0  0
 47 45  1  0  0  0  0
 50 49  1  0  0  0  0
 50 48  1  0  0  0  0
M  END
>  <MODEL>
4

>  <REMARK>
 VINA RESULT:      -7.2      1.293      2.417
  Name = 
  18 active torsions:
  status: ('A' for Active; 'I' for Inactive)
    1  A    between atoms: C_1  and  C_47
    2  A    between atoms: C_3  and  C_47
    3  A    between atoms: C_4  and  C_21
    4  A    between atoms: C_6  and  C_31
    5  A    between atoms: C_6  and  C_35
    6  A    between atoms: C_7  and  C_21
    7  A    between atoms: C_12  and  N_32
    8  A    between atoms: C_17  and  C_30
    9  A    between atoms: C_18  and  C_36
   10  A    between atoms: C_22  and  C_33
   11  A    between atoms: N_23  and  C_25
   12  A    between atoms: C_24  and  C_31
   13  A    between atoms: C_25  and  C_48
   14  A    between atoms: N_26  and  C_30
   15  A    between atoms: N_26  and  C_50
   16  A    between atoms: C_31  and  C_50
   17  A    between atoms: N_32  and  C_33
   18  A    between atoms: C_38  and  C_48
                            x       y       z     vdW  Elec       q    Type
                         _______ _______ _______ _____ _____    ______ ____

>  <TORSDO>
F 18

$$$$
=
 OpenBabel10222419513D

 50 55  0  0  1  0  0  0  0  0999 V2000
  188.9040  177.4930  140.4950 C   0  0  0  0  0  0  0  0  0  0  0  0
  190.6520  175.5090  138.0350 N   0  0  0  0  0  0  0  0  0  0  0  0
  188.4210  177.7430  139.2900 C   0  0  0  0  0  3  0  0  0  0  0  0
  189.7550  175.4390  137.1080 C   0  0  0  0  0  0  0  0  0  0  0  0
  187.7970  174.5240  136.8550 C   0  0  1  0  0  3  0  0  0  0  0  0
  189.0570  174.2280  136.8590 N   0  0  0  0  0  2  0  0  0  0  0  0
  187.5510  175.9530  137.1040 C   0  0  0  0  0  0  0  0  0  0  0  0
  185.3140  177.1600  136.5310 C   0  0  0  0  0  3  0  0  0  0  0  0
  186.4320  176.5590  136.8160 C   0  0  0  0  0  0  0  0  0  0  0  0
  190.4920  176.6460  140.4870 S   0  0  0  0  0  0  0  0  0  0  0  0
  188.8800  176.6320  137.0400 C   0  0  1  0  0  3  0  0  0  0  0  0
  190.5670  176.8160  138.6700 C   0  0  2  0  0  3  0  0  0  0  0  0
  189.2880  177.3530  138.2350 N   0  0  0  0  0  0  0  0  0  0  0  0
  185.9910  173.5240  135.4170 O   0  0  0  0  0  1  0  0  0  0  0  0
  186.0920  172.9720  137.6760 O   0  0  0  0  0  0  0  0  0  0  0  0
  186.7490  173.4910  136.5890 C   0  0  0  0  0  0  0  0  0  0  0  0
  187.0230  172.2260  137.0470 O   0  0  0  0  0  0  0  0  0  0  0  0
  188.4080  177.1380  142.9170 C   0  0  0  0  0  0  0  0  0  0  0  0
  188.2300  177.8910  141.7070 N   0  0  0  0  0  0  0  0  0  0  0  0
  188.3230  175.8810  142.8980 O   0  0  0  0  0  0  0  0  0  0  0  0
  187.2680  178.9970  141.6980 C   0  0  0  0  0  2  0  0  0  0  0  0
  185.6270  178.2690  143.2850 F   0  0  0  0  0  0  0  0  0  0  0  0
  185.8380  178.5240  141.9460 C   0  0  0  0  0  3  0  0  0  0  0  0
  184.9140  179.4490  141.4940 F   0  0  0  0  0  0  0  0  0  0  0  0
  188.7630  177.8160  144.1940 C   0  0  0  0  0  2  0  0  0  0  0  0
  187.4610  178.1390  146.2120 C   0  0  1  0  0  3  0  0  0  0  0  0
  188.7420  177.4290  146.6460 C   0  0  0  0  0  0  0  0  0  0  0  0
  188.0100  177.1560  145.3330 C   0  0  2  0  0  3  0  0  0  0  0  0
  189.6490  177.2270  147.4350 O   0  0  0  0  0  0  0  0  0  0  0  0
  186.2800  177.5530  146.9620 C   0  0  0  0  0  2  0  0  0  0  0  0
  185.0550  178.4380  146.8060 C   0  0  0  0  0  2  0  0  0  0  0  0
  185.3930  179.5970  146.1070 O   0  0  0  0  0  1  0  0  0  0  0  0
  184.1400  177.0090  137.4290 C   0  0  2  0  0  3  0  0  0  0  0  0
  184.3500  177.8780  138.6640 C   0  0  0  0  0  2  0  0  0  0  0  0
  183.0880  178.4230  139.1340 N   0  0  0  0  0  2  0  0  0  0  0  0
  182.5880  179.3160  138.0960 C   0  0  0  0  0  2  0  0  0  0  0  0
  180.4600  178.0830  138.6300 C   0  0  0  0  0  2  0  0  0  0  0  0
  180.2050  180.2170  140.3430 C   0  0  0  0  0  2  0  0  0  0  0  0
  181.0640  179.3870  138.1160 C   0  0  1  0  0  3  0  0  0  0  0  0
  179.2680  179.0790  140.4380 N   0  0  0  0  0  0  0  0  0  0  0  0
  179.1460  178.3490  139.2260 N   0  0  0  0  0  2  0  0  0  0  0  0
  180.5600  180.5970  138.9030 C   0  0  0  0  0  2  0  0  0  0  0  0
  179.7560  178.1740  141.4730 C   0  0  0  0  0  2  0  0  0  0  0  0
  181.0220  178.7320  142.1070 C   0  0  0  0  0  2  0  0  0  0  0  0
  181.0840  178.3420  143.5730 C   0  0  0  0  0  3  0  0  0  0  0  0
  182.3310  178.9330  144.2000 C   0  0  0  0  0  1  0  0  0  0  0  0
  179.8620  178.8630  144.3090 C   0  0  0  0  0  1  0  0  0  0  0  0
  183.9880  175.5480  137.8140 C   0  0  0  0  0  2  0  0  0  0  0  0
  182.6920  173.8800  136.6250 N   0  0  0  0  0  1  0  0  0  0  0  0
  182.5950  175.0550  137.4690 C   0  0  0  0  0  2  0  0  0  0  0  0
  1 19  1  0  0  0  0
  3  1  2  0  0  0  0
  4  2  2  0  0  0  0
  5 16  1  6  0  0  0
  5  6  1  0  0  0  0
  5  7  1  0  0  0  0
  6  4  1  0  0  0  0
  8  9  2  0  0  0  0
  9  7  2  0  0  0  0
 10  1  1  0  0  0  0
 11  7  1  1  0  0  0
 11  4  1  0  0  0  0
 11 13  1  0  0  0  0
 12  2  1  6  0  0  0
 12 10  1  0  0  0  0
 13 12  1  0  0  0  0
 13  3  1  0  0  0  0
 14 16  1  0  0  0  0
 16 17  1  0  0  0  0
 16 15  1  0  0  0  0
 17 15  1  0  0  0  0
 18 25  1  0  0  0  0
 19 18  1  0  0  0  0
 20 18  2  0  0  0  0
 21 19  1  0  0  0  0
 21 23  1  0  0  0  0
 23 22  1  0  0  0  0
 24 23  1  0  0  0  0
 26 27  1  0  0  0  0
 26 30  1  1  0  0  0
 27 29  2  0  0  0  0
 28 25  1  6  0  0  0
 28 26  1  0  0  0  0
 28 27  1  0  0  0  0
 31 30  1  0  0  0  0
 32 31  1  0  0  0  0
 33  8  1  6  0  0  0
 33 48  1  0  0  0  0
 33 34  1  0  0  0  0
 34 35  1  0  0  0  0
 36 35  1  0  0  0  0
 37 41  1  0  0  0  0
 38 40  1  0  0  0  0
 39 36  1  1  0  0  0
 39 37  1  0  0  0  0
 39 42  1  0  0  0  0
 40 43  1  0  0  0  0
 41 40  1  0  0  0  0
 42 38  1  0  0  0  0
 43 44  1  0  0  0  0
 44 45  1  0  0  0  0
 45 46  1  0  0  0  0
 45 47  1  0  0  0  0
 49 50  1  0  0  0  0
 50 48  1  0  0  0  0
M  END
>  <MODEL>
5

>  <REMARK>
 VINA RESULT:      -7.2      1.296      2.141
  Name = 
  18 active torsions:
  status: ('A' for Active; 'I' for Inactive)
    1  A    between atoms: C_1  and  C_47
    2  A    between atoms: C_3  and  C_47
    3  A    between atoms: C_4  and  C_21
    4  A    between atoms: C_6  and  C_31
    5  A    between atoms: C_6  and  C_35
    6  A    between atoms: C_7  and  C_21
    7  A    between atoms: C_12  and  N_32
    8  A    between atoms: C_17  and  C_30
    9  A    between atoms: C_18  and  C_36
   10  A    between atoms: C_22  and  C_33
   11  A    between atoms: N_23  and  C_25
   12  A    between atoms: C_24  and  C_31
   13  A    between atoms: C_25  and  C_48
   14  A    between atoms: N_26  and  C_30
   15  A    between atoms: N_26  and  C_50
   16  A    between atoms: C_31  and  C_50
   17  A    between atoms: N_32  and  C_33
   18  A    between atoms: C_38  and  C_48
                            x       y       z     vdW  Elec       q    Type
                         _______ _______ _______ _____ _____    ______ ____

>  <TORSDO>
F 18

$$$$
=
 OpenBabel10222419513D

 50 55  0  0  1  0  0  0  0  0999 V2000
  188.1820  177.9800  140.3120 C   0  0  0  0  0  0  0  0  0  0  0  0
  189.4670  176.5120  137.2730 N   0  0  0  0  0  0  0  0  0  0  0  0
  187.3880  178.2770  139.2980 C   0  0  0  0  0  3  0  0  0  0  0  0
  188.3800  176.4090  136.5830 C   0  0  0  0  0  0  0  0  0  0  0  0
  186.5360  175.2580  136.6820 C   0  0  1  0  0  3  0  0  0  0  0  0
  187.7810  175.1420  136.3500 N   0  0  0  0  0  2  0  0  0  0  0  0
  186.2020  176.6070  137.1650 C   0  0  0  0  0  0  0  0  0  0  0  0
  183.7730  177.5400  137.2990 C   0  0  0  0  0  3  0  0  0  0  0  0
  184.9860  177.0760  137.2310 C   0  0  0  0  0  0  0  0  0  0  0  0
  189.8020  177.3680  139.8190 S   0  0  0  0  0  0  0  0  0  0  0  0
  187.3890  177.4680  136.8790 C   0  0  1  0  0  3  0  0  0  0  0  0
  189.3990  177.7250  138.0740 C   0  0  2  0  0  3  0  0  0  0  0  0
  188.0010  178.1180  138.0270 N   0  0  0  0  0  0  0  0  0  0  0  0
  185.1910  173.3630  137.6470 O   0  0  0  0  0  1  0  0  0  0  0  0
  185.6050  173.4240  135.3570 O   0  0  0  0  0  0  0  0  0  0  0  0
  185.5770  174.1200  136.5390 C   0  0  0  0  0  0  0  0  0  0  0  0
  184.5920  174.2810  135.5960 O   0  0  0  0  0  0  0  0  0  0  0  0
  186.5060  178.7030  142.0160 C   0  0  0  0  0  0  0  0  0  0  0  0
  187.7930  178.1580  141.6900 N   0  0  0  0  0  0  0  0  0  0  0  0
  186.0880  179.7360  141.4280 O   0  0  0  0  0  0  0  0  0  0  0  0
  188.7440  177.8930  142.7740 C   0  0  0  0  0  2  0  0  0  0  0  0
  189.5580  175.6400  142.8050 F   0  0  0  0  0  0  0  0  0  0  0  0
  188.6040  176.4810  143.3380 C   0  0  0  0  0  3  0  0  0  0  0  0
  188.6930  176.4770  144.7180 F   0  0  0  0  0  0  0  0  0  0  0  0
  185.6150  178.0250  142.9980 C   0  0  0  0  0  2  0  0  0  0  0  0
  185.3070  178.2710  145.3890 C   0  0  1  0  0  3  0  0  0  0  0  0
  183.9660  178.6340  144.7510 C   0  0  0  0  0  0  0  0  0  0  0  0
  185.3270  178.9740  144.1460 C   0  0  2  0  0  3  0  0  0  0  0  0
  182.7470  178.6490  144.7370 O   0  0  0  0  0  0  0  0  0  0  0  0
  185.6010  179.2310  146.5260 C   0  0  0  0  0  2  0  0  0  0  0  0
  186.5540  178.5990  147.5260 C   0  0  0  0  0  2  0  0  0  0  0  0
  187.2080  177.5160  146.9390 O   0  0  0  0  0  1  0  0  0  0  0  0
  182.8860  177.1390  138.4210 C   0  0  2  0  0  3  0  0  0  0  0  0
  183.3950  177.7830  139.7050 C   0  0  0  0  0  2  0  0  0  0  0  0
  182.4910  178.8290  140.1530 N   0  0  0  0  0  2  0  0  0  0  0  0
  181.2630  178.1800  140.5950 C   0  0  0  0  0  2  0  0  0  0  0  0
  180.3400  180.5000  140.2710 C   0  0  0  0  0  2  0  0  0  0  0  0
  179.9780  179.4960  137.7390 C   0  0  0  0  0  2  0  0  0  0  0  0
  180.0370  179.0050  140.2170 C   0  0  1  0  0  3  0  0  0  0  0  0
  179.7650  180.9340  138.0000 N   0  0  0  0  0  0  0  0  0  0  0  0
  179.4490  181.2180  139.3550 N   0  0  0  0  0  2  0  0  0  0  0  0
  179.4650  178.5890  138.8610 C   0  0  0  0  0  2  0  0  0  0  0  0
  180.9910  181.6450  137.6540 C   0  0  0  0  0  2  0  0  0  0  0  0
  180.8060  182.4120  136.3520 C   0  0  0  0  0  2  0  0  0  0  0  0
  180.7130  183.9000  136.6360 C   0  0  0  0  0  3  0  0  0  0  0  0
  181.8600  184.3140  137.5370 C   0  0  0  0  0  1  0  0  0  0  0  0
  180.7880  184.6900  135.3420 C   0  0  0  0  0  1  0  0  0  0  0  0
  182.8820  175.6240  138.5390 C   0  0  0  0  0  2  0  0  0  0  0  0
  181.0570  175.5120  136.9480 N   0  0  0  0  0  1  0  0  0  0  0  0
  181.4940  175.0790  138.2600 C   0  0  0  0  0  2  0  0  0  0  0  0
  1 19  1  0  0  0  0
  3  1  2  0  0  0  0
  4  2  2  0  0  0  0
  5 16  1  6  0  0  0
  5  7  1  0  0  0  0
  6  4  1  0  0  0  0
  6  5  1  0  0  0  0
  7  9  2  0  0  0  0
  9  8  2  0  0  0  0
 10  1  1  0  0  0  0
 11  4  1  1  0  0  0
 11  7  1  0  0  0  0
 11 13  1  0  0  0  0
 12  2  1  6  0  0  0
 12 10  1  0  0  0  0
 13 12  1  0  0  0  0
 13  3  1  0  0  0  0
 15 17  1  0  0  0  0
 15 16  1  0  0  0  0
 16 14  1  0  0  0  0
 17 16  1  0  0  0  0
 18 25  1  0  0  0  0
 19 18  1  0  0  0  0
 19 21  1  0  0  0  0
 20 18  2  0  0  0  0
 21 23  1  0  0  0  0
 22 23  1  0  0  0  0
 23 24  1  0  0  0  0
 26 30  1  1  0  0  0
 27 26  1  0  0  0  0
 28 25  1  6  0  0  0
 28 27  1  0  0  0  0
 28 26  1  0  0  0  0
 29 27  2  0  0  0  0
 30 31  1  0  0  0  0
 32 31  1  0  0  0  0
 33  8  1  6  0  0  0
 33 48  1  0  0  0  0
 33 34  1  0  0  0  0
 34 35  1  0  0  0  0
 35 36  1  0  0  0  0
 38 40  1  0  0  0  0
 38 42  1  0  0  0  0
 39 37  1  0  0  0  0
 39 36  1  6  0  0  0
 40 41  1  0  0  0  0
 41 37  1  0  0  0  0
 42 39  1  0  0  0  0
 43 40  1  0  0  0  0
 44 45  1  0  0  0  0
 44 43  1  0  0  0  0
 45 46  1  0  0  0  0
 47 45  1  0  0  0  0
 49 50  1  0  0  0  0
 50 48  1  0  0  0  0
M  END
>  <MODEL>
6

>  <REMARK>
 VINA RESULT:      -7.1      2.489      4.123
  Name = 
  18 active torsions:
  status: ('A' for Active; 'I' for Inactive)
    1  A    between atoms: C_1  and  C_47
    2  A    between atoms: C_3  and  C_47
    3  A    between atoms: C_4  and  C_21
    4  A    between atoms: C_6  and  C_31
    5  A    between atoms: C_6  and  C_35
    6  A    between atoms: C_7  and  C_21
    7  A    between atoms: C_12  and  N_32
    8  A    between atoms: C_17  and  C_30
    9  A    between atoms: C_18  and  C_36
   10  A    between atoms: C_22  and  C_33
   11  A    between atoms: N_23  and  C_25
   12  A    between atoms: C_24  and  C_31
   13  A    between atoms: C_25  and  C_48
   14  A    between atoms: N_26  and  C_30
   15  A    between atoms: N_26  and  C_50
   16  A    between atoms: C_31  and  C_50
   17  A    between atoms: N_32  and  C_33
   18  A    between atoms: C_38  and  C_48
                            x       y       z     vdW  Elec       q    Type
                         _______ _______ _______ _____ _____    ______ ____

>  <TORSDO>
F 18

$$$$
=
 OpenBabel10222419513D

 50 55  0  0  1  0  0  0  0  0999 V2000
  188.9670  177.5980  140.0220 C   0  0  0  0  0  0  0  0  0  0  0  0
  190.2190  175.6850  137.2270 N   0  0  0  0  0  0  0  0  0  0  0  0
  188.2610  177.8700  138.9380 C   0  0  0  0  0  3  0  0  0  0  0  0
  189.1610  175.6280  136.4870 C   0  0  0  0  0  0  0  0  0  0  0  0
  187.1950  174.7020  136.5920 C   0  0  1  0  0  3  0  0  0  0  0  0
  188.4330  174.4170  136.3470 N   0  0  0  0  0  2  0  0  0  0  0  0
  186.9950  176.1230  136.9170 C   0  0  0  0  0  0  0  0  0  0  0  0
  184.6850  177.3230  136.8130 C   0  0  0  0  0  3  0  0  0  0  0  0
  185.8390  176.7250  136.8640 C   0  0  0  0  0  0  0  0  0  0  0  0
  190.5280  176.7650  139.6900 S   0  0  0  0  0  0  0  0  0  0  0  0
  188.2840  176.8140  136.6170 C   0  0  1  0  0  3  0  0  0  0  0  0
  190.2520  176.9770  137.8970 C   0  0  2  0  0  3  0  0  0  0  0  0
  188.9110  177.5120  137.7280 N   0  0  0  0  0  0  0  0  0  0  0  0
  185.1340  173.7360  135.5210 O   0  0  0  0  0  1  0  0  0  0  0  0
  185.7070  173.0960  137.6840 O   0  0  0  0  0  0  0  0  0  0  0  0
  186.1200  173.6660  136.5070 C   0  0  0  0  0  0  0  0  0  0  0  0
  186.4900  172.3880  136.8450 O   0  0  0  0  0  0  0  0  0  0  0  0
  188.9980  177.2220  142.4920 C   0  0  0  0  0  0  0  0  0  0  0  0
  188.5360  177.9620  141.3510 N   0  0  0  0  0  0  0  0  0  0  0  0
  188.9760  175.9610  142.4800 O   0  0  0  0  0  0  0  0  0  0  0  0
  187.5370  179.0150  141.5490 C   0  0  0  0  0  2  0  0  0  0  0  0
  186.3040  177.6900  143.1190 F   0  0  0  0  0  0  0  0  0  0  0  0
  186.1820  178.4570  141.9790 C   0  0  0  0  0  3  0  0  0  0  0  0
  185.2630  179.4690  142.1900 F   0  0  0  0  0  0  0  0  0  0  0  0
  189.5720  177.9210  143.6750 C   0  0  0  0  0  2  0  0  0  0  0  0
  189.1320  177.8750  146.0570 C   0  0  1  0  0  3  0  0  0  0  0  0
  190.5280  177.2810  145.8750 C   0  0  0  0  0  0  0  0  0  0  0  0
  189.3650  177.0600  144.9070 C   0  0  2  0  0  3  0  0  0  0  0  0
  191.6810  177.1070  146.2290 O   0  0  0  0  0  0  0  0  0  0  0  0
  188.3770  177.0780  147.1040 C   0  0  0  0  0  2  0  0  0  0  0  0
  188.4280  177.7810  148.4500 C   0  0  0  0  0  2  0  0  0  0  0  0
  187.5260  178.8460  148.4630 O   0  0  0  0  0  1  0  0  0  0  0  0
  183.7050  177.1410  137.9160 C   0  0  2  0  0  3  0  0  0  0  0  0
  184.1750  177.9380  139.1270 C   0  0  0  0  0  2  0  0  0  0  0  0
  183.0480  178.3340  139.9550 N   0  0  0  0  0  2  0  0  0  0  0  0
  182.5770  179.6210  139.4600 C   0  0  0  0  0  2  0  0  0  0  0  0
  180.2500  180.5620  139.6400 C   0  0  0  0  0  2  0  0  0  0  0  0
  180.7460  181.0500  136.9820 C   0  0  0  0  0  2  0  0  0  0  0  0
  181.1400  179.5260  138.9590 C   0  0  1  0  0  3  0  0  0  0  0  0
  179.5460  181.6220  137.6250 N   0  0  0  0  0  0  0  0  0  0  0  0
  179.1190  180.8930  138.7670 N   0  0  0  0  0  2  0  0  0  0  0  0
  181.0590  179.6210  137.4350 C   0  0  0  0  0  2  0  0  0  0  0  0
  179.8580  182.9850  138.0410 C   0  0  0  0  0  2  0  0  0  0  0  0
  181.1940  183.4210  137.4540 C   0  0  0  0  0  2  0  0  0  0  0  0
  181.0570  184.7910  136.8160 C   0  0  0  0  0  3  0  0  0  0  0  0
  180.7930  184.6320  135.3320 C   0  0  0  0  0  1  0  0  0  0  0  0
  179.9070  185.5550  137.4470 C   0  0  0  0  0  1  0  0  0  0  0  0
  183.5940  175.6640  138.2490 C   0  0  0  0  0  2  0  0  0  0  0  0
  182.0060  174.0990  137.2990 N   0  0  0  0  0  1  0  0  0  0  0  0
  182.1430  175.2220  138.2040 C   0  0  0  0  0  2  0  0  0  0  0  0
  1 19  1  0  0  0  0
  3  1  2  0  0  0  0
  4  2  2  0  0  0  0
  5 16  1  6  0  0  0
  5  7  1  0  0  0  0
  6  4  1  0  0  0  0
  6  5  1  0  0  0  0
  8  9  2  0  0  0  0
  9  7  2  0  0  0  0
 10  1  1  0  0  0  0
 11  4  1  1  0  0  0
 11  7  1  0  0  0  0
 11 13  1  0  0  0  0
 12  2  1  6  0  0  0
 12 10  1  0  0  0  0
 13 12  1  0  0  0  0
 13  3  1  0  0  0  0
 14 16  1  0  0  0  0
 16 17  1  0  0  0  0
 16 15  1  0  0  0  0
 17 15  1  0  0  0  0
 18 25  1  0  0  0  0
 19 21  1  0  0  0  0
 19 18  1  0  0  0  0
 20 18  2  0  0  0  0
 21 23  1  0  0  0  0
 23 24  1  0  0  0  0
 23 22  1  0  0  0  0
 26 30  1  1  0  0  0
 27 26  1  0  0  0  0
 27 29  2  0  0  0  0
 28 25  1  6  0  0  0
 28 27  1  0  0  0  0
 28 26  1  0  0  0  0
 30 31  1  0  0  0  0
 31 32  1  0  0  0  0
 33  8  1  6  0  0  0
 33 48  1  0  0  0  0
 33 34  1  0  0  0  0
 34 35  1  0  0  0  0
 36 35  1  0  0  0  0
 38 42  1  0  0  0  0
 38 40  1  0  0  0  0
 39 36  1  1  0  0  0
 39 37  1  0  0  0  0
 40 43  1  0  0  0  0
 40 41  1  0  0  0  0
 41 37  1  0  0  0  0
 42 39  1  0  0  0  0
 44 43  1  0  0  0  0
 45 47  1  0  0  0  0
 45 44  1  0  0  0  0
 46 45  1  0  0  0  0
 49 50  1  0  0  0  0
 50 48  1  0  0  0  0
M  END
>  <MODEL>
7

>  <REMARK>
 VINA RESULT:      -6.9      1.912      3.415
  Name = 
  18 active torsions:
  status: ('A' for Active; 'I' for Inactive)
    1  A    between atoms: C_1  and  C_47
    2  A    between atoms: C_3  and  C_47
    3  A    between atoms: C_4  and  C_21
    4  A    between atoms: C_6  and  C_31
    5  A    between atoms: C_6  and  C_35
    6  A    between atoms: C_7  and  C_21
    7  A    between atoms: C_12  and  N_32
    8  A    between atoms: C_17  and  C_30
    9  A    between atoms: C_18  and  C_36
   10  A    between atoms: C_22  and  C_33
   11  A    between atoms: N_23  and  C_25
   12  A    between atoms: C_24  and  C_31
   13  A    between atoms: C_25  and  C_48
   14  A    between atoms: N_26  and  C_30
   15  A    between atoms: N_26  and  C_50
   16  A    between atoms: C_31  and  C_50
   17  A    between atoms: N_32  and  C_33
   18  A    between atoms: C_38  and  C_48
                            x       y       z     vdW  Elec       q    Type
                         _______ _______ _______ _____ _____    ______ ____

>  <TORSDO>
F 18

$$$$
=
 OpenBabel10222419513D

 50 55  0  0  1  0  0  0  0  0999 V2000
  188.7250  177.6570  140.8510 C   0  0  0  0  0  0  0  0  0  0  0  0
  190.8600  175.7500  138.6510 N   0  0  0  0  0  0  0  0  0  0  0  0
  188.4640  177.9660  139.5920 C   0  0  0  0  0  3  0  0  0  0  0  0
  190.1400  175.7350  137.5790 C   0  0  0  0  0  0  0  0  0  0  0  0
  188.2500  174.8650  136.9440 C   0  0  1  0  0  3  0  0  0  0  0  0
  189.4860  174.5470  137.1560 N   0  0  0  0  0  2  0  0  0  0  0  0
  187.9770  176.2860  137.2090 C   0  0  0  0  0  0  0  0  0  0  0  0
  185.8880  177.5560  136.3070 C   0  0  0  0  0  3  0  0  0  0  0  0
  186.9320  176.9230  136.7560 C   0  0  0  0  0  0  0  0  0  0  0  0
  190.2810  176.7840  141.0850 S   0  0  0  0  0  0  0  0  0  0  0  0
  189.3020  176.9440  137.4110 C   0  0  1  0  0  3  0  0  0  0  0  0
  190.6770  177.0300  139.3190 C   0  0  2  0  0  3  0  0  0  0  0  0
  189.5010  177.6070  138.6900 N   0  0  0  0  0  0  0  0  0  0  0  0
  186.7240  173.9530  135.1630 O   0  0  0  0  0  1  0  0  0  0  0  0
  186.4050  173.3180  137.3800 O   0  0  0  0  0  0  0  0  0  0  0  0
  187.2550  173.8630  136.4510 C   0  0  0  0  0  0  0  0  0  0  0  0
  187.4250  172.5770  136.9020 O   0  0  0  0  0  0  0  0  0  0  0  0
  187.8760  177.2660  143.1680 C   0  0  0  0  0  0  0  0  0  0  0  0
  187.8510  178.0150  141.9430 N   0  0  0  0  0  0  0  0  0  0  0  0
  187.8580  176.0060  143.1400 O   0  0  0  0  0  0  0  0  0  0  0  0
  186.8470  179.0710  141.7810 C   0  0  0  0  0  2  0  0  0  0  0  0
  184.4700  179.3530  141.6710 F   0  0  0  0  0  0  0  0  0  0  0  0
  185.5080  178.5280  141.2890 C   0  0  0  0  0  3  0  0  0  0  0  0
  185.5000  178.3710  139.9140 F   0  0  0  0  0  0  0  0  0  0  0  0
  187.9930  177.9550  144.4830 C   0  0  0  0  0  2  0  0  0  0  0  0
  186.2500  178.5650  146.0510 C   0  0  1  0  0  3  0  0  0  0  0  0
  187.2720  177.7570  146.8500 C   0  0  0  0  0  0  0  0  0  0  0  0
  186.8880  177.4660  145.3990 C   0  0  2  0  0  3  0  0  0  0  0  0
  187.9030  177.5180  147.8650 O   0  0  0  0  0  0  0  0  0  0  0  0
  184.8490  178.1670  146.4750 C   0  0  0  0  0  2  0  0  0  0  0  0
  183.8110  178.9560  145.6950 C   0  0  0  0  0  2  0  0  0  0  0  0
  183.9060  178.6530  144.3370 O   0  0  0  0  0  1  0  0  0  0  0  0
  184.5720  177.3870  136.9760 C   0  0  2  0  0  3  0  0  0  0  0  0
  184.5380  176.0230  137.6560 C   0  0  0  0  0  2  0  0  0  0  0  0
  183.3670  175.9000  138.5090 N   0  0  0  0  0  2  0  0  0  0  0  0
  182.5570  174.8120  137.9790 C   0  0  0  0  0  2  0  0  0  0  0  0
  181.0430  175.8060  139.7270 C   0  0  0  0  0  2  0  0  0  0  0  0
  179.7940  176.7190  137.4560 C   0  0  0  0  0  2  0  0  0  0  0  0
  181.1350  174.8650  138.5290 C   0  0  1  0  0  3  0  0  0  0  0  0
  179.3770  177.2230  138.7800 N   0  0  0  0  0  0  0  0  0  0  0  0
  179.6780  176.3280  139.8420 N   0  0  0  0  0  2  0  0  0  0  0  0
  180.1160  175.2210  137.4460 C   0  0  0  0  0  2  0  0  0  0  0  0
  180.0730  178.4810  139.0280 C   0  0  0  0  0  2  0  0  0  0  0  0
  180.6750  179.0130  137.7350 C   0  0  0  0  0  2  0  0  0  0  0  0
  181.4720  180.2740  138.0150 C   0  0  0  0  0  3  0  0  0  0  0  0
  180.5700  181.3080  138.6580 C   0  0  0  0  0  1  0  0  0  0  0  0
  182.6280  179.9710  138.9520 C   0  0  0  0  0  1  0  0  0  0  0  0
  183.4660  177.5060  135.9430 C   0  0  0  0  0  2  0  0  0  0  0  0
  182.3810  175.7970  134.6100 N   0  0  0  0  0  1  0  0  0  0  0  0
  183.6450  176.4630  134.8570 C   0  0  0  0  0  2  0  0  0  0  0  0
  1 10  1  0  0  0  0
  1 19  1  0  0  0  0
  3  1  2  0  0  0  0
  4  2  2  0  0  0  0
  5 16  1  6  0  0  0
  5  6  1  0  0  0  0
  5  7  1  0  0  0  0
  6  4  1  0  0  0  0
  8  9  2  0  0  0  0
  8 33  1  0  0  0  0
  9  7  2  0  0  0  0
 11  7  1  1  0  0  0
 11  4  1  0  0  0  0
 11 13  1  0  0  0  0
 12  2  1  6  0  0  0
 12 10  1  0  0  0  0
 13 12  1  0  0  0  0
 13  3  1  0  0  0  0
 14 16  1  0  0  0  0
 16 17  1  0  0  0  0
 16 15  1  0  0  0  0
 17 15  1  0  0  0  0
 18 25  1  0  0  0  0
 19 18  1  0  0  0  0
 20 18  2  0  0  0  0
 21 19  1  0  0  0  0
 23 22  1  0  0  0  0
 23 21  1  0  0  0  0
 24 23  1  0  0  0  0
 26 30  1  1  0  0  0
 26 27  1  0  0  0  0
 27 29  2  0  0  0  0
 28 25  1  6  0  0  0
 28 26  1  0  0  0  0
 28 27  1  0  0  0  0
 31 30  1  0  0  0  0
 32 31  1  0  0  0  0
 33 48  1  6  0  0  0
 33 34  1  0  0  0  0
 34 35  1  0  0  0  0
 36 35  1  0  0  0  0
 37 41  1  0  0  0  0
 38 40  1  0  0  0  0
 39 36  1  6  0  0  0
 39 37  1  0  0  0  0
 40 43  1  0  0  0  0
 40 41  1  0  0  0  0
 42 38  1  0  0  0  0
 42 39  1  0  0  0  0
 44 45  1  0  0  0  0
 44 43  1  0  0  0  0
 45 46  1  0  0  0  0
 45 47  1  0  0  0  0
 49 50  1  0  0  0  0
 50 48  1  0  0  0  0
M  END
>  <MODEL>
8

>  <REMARK>
 VINA RESULT:      -6.6      1.941      3.307
  Name = 
  18 active torsions:
  status: ('A' for Active; 'I' for Inactive)
    1  A    between atoms: C_1  and  C_47
    2  A    between atoms: C_3  and  C_47
    3  A    between atoms: C_4  and  C_21
    4  A    between atoms: C_6  and  C_31
    5  A    between atoms: C_6  and  C_35
    6  A    between atoms: C_7  and  C_21
    7  A    between atoms: C_12  and  N_32
    8  A    between atoms: C_17  and  C_30
    9  A    between atoms: C_18  and  C_36
   10  A    between atoms: C_22  and  C_33
   11  A    between atoms: N_23  and  C_25
   12  A    between atoms: C_24  and  C_31
   13  A    between atoms: C_25  and  C_48
   14  A    between atoms: N_26  and  C_30
   15  A    between atoms: N_26  and  C_50
   16  A    between atoms: C_31  and  C_50
   17  A    between atoms: N_32  and  C_33
   18  A    between atoms: C_38  and  C_48
                            x       y       z     vdW  Elec       q    Type
                         _______ _______ _______ _____ _____    ______ ____

>  <TORSDO>
F 18

$$$$
=
 OpenBabel10222419513D

 50 55  0  0  1  0  0  0  0  0999 V2000
  189.3350  177.4450  140.9270 C   0  0  0  0  0  0  0  0  0  0  0  0
  189.8940  177.1840  137.3690 N   0  0  0  0  0  0  0  0  0  0  0  0
  188.4840  178.2220  140.2810 C   0  0  0  0  0  3  0  0  0  0  0  0
  188.7240  177.5040  136.9230 C   0  0  0  0  0  0  0  0  0  0  0  0
  186.7240  176.6480  136.9480 C   0  0  1  0  0  3  0  0  0  0  0  0
  187.8670  176.5240  136.3550 N   0  0  0  0  0  2  0  0  0  0  0  0
  186.7230  177.7160  137.9590 C   0  0  0  0  0  0  0  0  0  0  0  0
  184.5590  178.8070  138.9170 C   0  0  0  0  0  3  0  0  0  0  0  0
  185.6400  178.2650  138.4380 C   0  0  0  0  0  0  0  0  0  0  0  0
  190.7260  176.8900  139.9280 S   0  0  0  0  0  0  0  0  0  0  0  0
  188.0030  178.4670  137.7880 C   0  0  1  0  0  3  0  0  0  0  0  0
  190.1680  177.9690  138.5650 C   0  0  2  0  0  3  0  0  0  0  0  0
  188.8780  178.5160  138.9490 N   0  0  0  0  0  0  0  0  0  0  0  0
  184.7410  176.1170  135.4940 O   0  0  0  0  0  1  0  0  0  0  0  0
  184.9020  175.1520  137.6060 O   0  0  0  0  0  0  0  0  0  0  0  0
  185.5530  175.7930  136.5820 C   0  0  0  0  0  0  0  0  0  0  0  0
  185.7070  174.4440  136.7880 O   0  0  0  0  0  0  0  0  0  0  0  0
  190.3090  177.1080  143.2030 C   0  0  0  0  0  0  0  0  0  0  0  0
  189.1770  177.0960  142.3190 N   0  0  0  0  0  0  0  0  0  0  0  0
  191.3900  176.5610  142.8550 O   0  0  0  0  0  0  0  0  0  0  0  0
  187.8880  176.6170  142.8270 C   0  0  0  0  0  2  0  0  0  0  0  0
  185.9490  178.0250  142.8530 F   0  0  0  0  0  0  0  0  0  0  0  0
  187.1030  177.7140  143.5430 C   0  0  0  0  0  3  0  0  0  0  0  0
  186.7900  177.3470  144.8390 F   0  0  0  0  0  0  0  0  0  0  0  0
  190.2510  177.8200  144.5100 C   0  0  0  0  0  2  0  0  0  0  0  0
  189.7190  177.4930  146.8500 C   0  0  1  0  0  3  0  0  0  0  0  0
  191.0500  176.7800  146.6170 C   0  0  0  0  0  0  0  0  0  0  0  0
  189.9080  176.8260  145.6020 C   0  0  2  0  0  3  0  0  0  0  0  0
  192.1650  176.4340  146.9700 O   0  0  0  0  0  0  0  0  0  0  0  0
  188.8450  176.6470  147.7570 C   0  0  0  0  0  2  0  0  0  0  0  0
  187.8090  177.5090  148.4580 C   0  0  0  0  0  2  0  0  0  0  0  0
  187.1220  178.2800  147.5200 O   0  0  0  0  0  1  0  0  0  0  0  0
  183.7710  178.0980  139.9580 C   0  0  2  0  0  3  0  0  0  0  0  0
  182.3220  178.0010  139.4960 C   0  0  0  0  0  2  0  0  0  0  0  0
  182.0220  176.6640  139.0110 N   0  0  0  0  0  2  0  0  0  0  0  0
  181.8970  176.7480  137.5620 C   0  0  0  0  0  2  0  0  0  0  0  0
  180.9750  175.3710  135.6670 C   0  0  0  0  0  2  0  0  0  0  0  0
  180.9490  173.4870  137.6680 C   0  0  0  0  0  2  0  0  0  0  0  0
  180.7100  175.9290  137.0630 C   0  0  1  0  0  3  0  0  0  0  0  0
  180.6770  173.0850  136.2730 N   0  0  0  0  0  0  0  0  0  0  0  0
  180.1900  174.1480  135.4670 N   0  0  0  0  0  2  0  0  0  0  0  0
  180.3190  174.8290  138.0510 C   0  0  0  0  0  2  0  0  0  0  0  0
  181.9220  172.5980  135.6890 C   0  0  0  0  0  2  0  0  0  0  0  0
  182.9100  172.2290  136.7860 C   0  0  0  0  0  2  0  0  0  0  0  0
  183.6010  170.9220  136.4440 C   0  0  0  0  0  3  0  0  0  0  0  0
  182.6650  170.0570  135.6220 C   0  0  0  0  0  1  0  0  0  0  0  0
  184.8640  171.1860  135.6450 C   0  0  0  0  0  1  0  0  0  0  0  0
  183.8730  178.8600  141.2680 C   0  0  0  0  0  2  0  0  0  0  0  0
  182.8550  179.1420  143.4490 N   0  0  0  0  0  1  0  0  0  0  0  0
  182.6380  178.6160  142.1160 C   0  0  0  0  0  2  0  0  0  0  0  0
  1 19  1  0  0  0  0
  3  1  2  0  0  0  0
  4  2  2  0  0  0  0
  5 16  1  6  0  0  0
  5  7  1  0  0  0  0
  6  4  1  0  0  0  0
  6  5  1  0  0  0  0
  7  9  2  0  0  0  0
  9  8  2  0  0  0  0
 10  1  1  0  0  0  0
 11  4  1  6  0  0  0
 11  7  1  0  0  0  0
 11 13  1  0  0  0  0
 12  2  1  6  0  0  0
 12 13  1  0  0  0  0
 12 10  1  0  0  0  0
 13  3  1  0  0  0  0
 14 16  1  0  0  0  0
 16 17  1  0  0  0  0
 16 15  1  0  0  0  0
 17 15  1  0  0  0  0
 18 25  1  0  0  0  0
 19 21  1  0  0  0  0
 19 18  1  0  0  0  0
 20 18  2  0  0  0  0
 21 23  1  0  0  0  0
 22 23  1  0  0  0  0
 23 24  1  0  0  0  0
 26 30  1  1  0  0  0
 27 26  1  0  0  0  0
 27 29  2  0  0  0  0
 28 25  1  6  0  0  0
 28 27  1  0  0  0  0
 28 26  1  0  0  0  0
 30 31  1  0  0  0  0
 32 31  1  0  0  0  0
 33  8  1  6  0  0  0
 33 48  1  0  0  0  0
 34 33  1  0  0  0  0
 35 34  1  0  0  0  0
 36 35  1  0  0  0  0
 37 39  1  0  0  0  0
 38 42  1  0  0  0  0
 39 36  1  1  0  0  0
 39 42  1  0  0  0  0
 40 38  1  0  0  0  0
 41 37  1  0  0  0  0
 41 40  1  0  0  0  0
 43 40  1  0  0  0  0
 43 44  1  0  0  0  0
 45 44  1  0  0  0  0
 46 45  1  0  0  0  0
 47 45  1  0  0  0  0
 48 50  1  0  0  0  0
 50 49  1  0  0  0  0
M  END
>  <MODEL>
9

>  <REMARK>
 VINA RESULT:      -6.5      2.487      4.946
  Name = 
  18 active torsions:
  status: ('A' for Active; 'I' for Inactive)
    1  A    between atoms: C_1  and  C_47
    2  A    between atoms: C_3  and  C_47
    3  A    between atoms: C_4  and  C_21
    4  A    between atoms: C_6  and  C_31
    5  A    between atoms: C_6  and  C_35
    6  A    between atoms: C_7  and  C_21
    7  A    between atoms: C_12  and  N_32
    8  A    between atoms: C_17  and  C_30
    9  A    between atoms: C_18  and  C_36
   10  A    between atoms: C_22  and  C_33
   11  A    between atoms: N_23  and  C_25
   12  A    between atoms: C_24  and  C_31
   13  A    between atoms: C_25  and  C_48
   14  A    between atoms: N_26  and  C_30
   15  A    between atoms: N_26  and  C_50
   16  A    between atoms: C_31  and  C_50
   17  A    between atoms: N_32  and  C_33
   18  A    between atoms: C_38  and  C_48
                            x       y       z     vdW  Elec       q    Type
                         _______ _______ _______ _____ _____    ______ ____

>  <TORSDO>
F 18

$$$$
