=
 OpenBabel10222415293D

 31 34  0  0  0  0  0  0  0  0999 V2000
  182.6670  178.8110  143.2220 C   0  0  0  0  0  0  0  0  0  0  0  0
  180.2990  178.4820  143.6010 C   0  0  0  0  0  0  0  0  0  0  0  0
  181.5870  178.6870  144.1000 C   0  0  0  0  0  3  0  0  0  0  0  0
  183.5560  178.8490  140.9470 C   0  0  0  0  0  0  0  0  0  0  0  0
  185.0350  179.1210  142.8550 C   0  0  0  0  0  3  0  0  0  0  0  0
  181.1610  178.5270  141.3370 C   0  0  0  0  0  3  0  0  0  0  0  0
  183.9520  179.0080  143.7270 C   0  0  0  0  0  3  0  0  0  0  0  0
  180.0860  178.4040  142.2210 C   0  0  0  0  0  3  0  0  0  0  0  0
  184.8490  179.0400  141.4660 C   0  0  0  0  0  0  0  0  0  0  0  0
  182.4600  178.7310  141.8250 C   0  0  0  0  0  0  0  0  0  0  0  0
  179.2300  178.3530  144.4760 O   0  0  0  0  0  1  0  0  0  0  0  0
  183.3620  178.7750  139.5260 N   0  0  0  0  0  0  0  0  0  0  0  0
  182.9460  176.3690  139.1110 C   0  0  0  0  0  3  0  0  0  0  0  0
  184.5760  177.5410  137.7600 C   0  0  0  0  0  3  0  0  0  0  0  0
  184.8350  176.3630  137.0540 C   0  0  0  0  0  3  0  0  0  0  0  0
  184.1500  175.1890  137.3780 C   0  0  0  0  0  3  0  0  0  0  0  0
  183.2060  175.1920  138.4060 C   0  0  0  0  0  3  0  0  0  0  0  0
  183.6310  177.5580  138.7990 C   0  0  0  0  0  0  0  0  0  0  0  0
  184.0130  180.8990  138.8000 O   0  0  0  0  0  1  0  0  0  0  0  0
  182.9510  179.9920  138.8320 C   0  0  0  0  0  2  0  0  0  0  0  0
  185.9340  179.1460  140.5840 O   0  0  0  0  0  0  0  0  0  0  0  0
  186.9800  178.1850  140.5110 C   0  0  0  0  0  2  0  0  0  0  0  0
  188.1940  178.6690  141.2870 C   0  0  0  0  0  2  0  0  0  0  0  0
  188.7670  177.5960  142.0270 O   0  0  0  0  0  0  0  0  0  0  0  0
  190.0740  177.5090  145.5100 C   0  0  0  0  0  3  0  0  0  0  0  0
  187.6280  177.5990  144.1530 C   0  0  0  0  0  3  0  0  0  0  0  0
  188.8750  177.5300  146.2290 C   0  0  0  0  0  3  0  0  0  0  0  0
  188.8240  177.5740  143.4250 C   0  0  0  0  0  0  0  0  0  0  0  0
  190.0480  177.5300  144.1130 C   0  0  0  0  0  3  0  0  0  0  0  0
  186.3790  177.5810  146.3170 C   0  0  0  0  0  1  0  0  0  0  0  0
  187.6530  177.5750  145.5510 C   0  0  0  0  0  0  0  0  0  0  0  0
  1  7  1  0  0  0  0
  1  3  2  0  0  0  0
  2  3  1  0  0  0  0
  2 11  1  0  0  0  0
  4  9  2  0  0  0  0
  4 10  1  0  0  0  0
  5  7  2  0  0  0  0
  6 10  2  0  0  0  0
  6  8  1  0  0  0  0
  8  2  2  0  0  0  0
  9  5  1  0  0  0  0
 10  1  1  0  0  0  0
 12  4  1  0  0  0  0
 14 18  2  0  0  0  0
 15 16  2  0  0  0  0
 15 14  1  0  0  0  0
 16 17  1  0  0  0  0
 17 13  2  0  0  0  0
 18 13  1  0  0  0  0
 18 12  1  0  0  0  0
 19 20  1  0  0  0  0
 20 12  1  0  0  0  0
 21  9  1  0  0  0  0
 22 21  1  0  0  0  0
 22 23  1  0  0  0  0
 23 24  1  0  0  0  0
 24 28  1  0  0  0  0
 25 27  1  0  0  0  0
 26 31  1  0  0  0  0
 28 29  1  0  0  0  0
 28 26  2  0  0  0  0
 29 25  2  0  0  0  0
 31 27  2  0  0  0  0
 31 30  1  0  0  0  0
M  END
>  <MODEL>
1

>  <REMARK>
 VINA RESULT:      -8.2      0.000      0.000
  Name = 
  8 active torsions:
  status: ('A' for Active; 'I' for Inactive)
    1  A    between atoms: C_10  and  N_28
    2  A    between atoms: C_16  and  O_23
    3  A    between atoms: C_18  and  C_22
    4  A    between atoms: C_18  and  O_23
    5  A    between atoms: C_19  and  O_29
    6  A    between atoms: C_22  and  O_29
    7  A    between atoms: C_24  and  N_28
    8  A    between atoms: N_28  and  C_30
                            x       y       z     vdW  Elec       q    Type
                         _______ _______ _______ _____ _____    ______ ____

>  <TORSDO>
F 8

$$$$
=
 OpenBabel10222415293D

 31 34  0  0  0  0  0  0  0  0999 V2000
  185.9150  178.6950  140.5250 C   0  0  0  0  0  0  0  0  0  0  0  0
  183.7170  178.9480  139.5430 C   0  0  0  0  0  0  0  0  0  0  0  0
  184.5610  179.0140  140.6540 C   0  0  0  0  0  3  0  0  0  0  0  0
  187.8020  177.9760  139.1500 C   0  0  0  0  0  0  0  0  0  0  0  0
  188.1010  178.4260  141.5180 C   0  0  0  0  0  3  0  0  0  0  0  0
  185.5780  178.2450  138.1610 C   0  0  0  0  0  3  0  0  0  0  0  0
  186.7510  178.7550  141.6390 C   0  0  0  0  0  3  0  0  0  0  0  0
  184.2250  178.5650  138.2980 C   0  0  0  0  0  3  0  0  0  0  0  0
  188.6350  178.0330  140.2810 C   0  0  0  0  0  0  0  0  0  0  0  0
  186.4360  178.3050  139.2690 C   0  0  0  0  0  0  0  0  0  0  0  0
  182.3710  179.2600  139.6760 O   0  0  0  0  0  1  0  0  0  0  0  0
  188.3480  177.5830  137.8810 N   0  0  0  0  0  0  0  0  0  0  0  0
  189.7560  175.5790  137.5200 C   0  0  0  0  0  3  0  0  0  0  0  0
  187.3640  175.4200  137.1970 C   0  0  0  0  0  3  0  0  0  0  0  0
  187.5010  174.0710  136.8590 C   0  0  0  0  0  3  0  0  0  0  0  0
  188.7660  173.4780  136.8500 C   0  0  0  0  0  3  0  0  0  0  0  0
  189.8930  174.2310  137.1800 C   0  0  0  0  0  3  0  0  0  0  0  0
  188.4900  176.1910  137.5290 C   0  0  0  0  0  0  0  0  0  0  0  0
  188.9530  179.8330  137.6990 O   0  0  0  0  0  1  0  0  0  0  0  0
  188.8190  178.6370  136.9880 C   0  0  0  0  0  2  0  0  0  0  0  0
  189.9900  177.6950  140.1540 O   0  0  0  0  0  0  0  0  0  0  0  0
  190.6520  176.7800  141.0180 C   0  0  0  0  0  2  0  0  0  0  0  0
  191.4120  177.5330  142.0980 C   0  0  0  0  0  2  0  0  0  0  0  0
  191.6630  176.6810  143.2100 O   0  0  0  0  0  0  0  0  0  0  0  0
  190.9590  176.6790  146.8640 C   0  0  0  0  0  3  0  0  0  0  0  0
  189.6570  177.2020  144.4430 C   0  0  0  0  0  3  0  0  0  0  0  0
  189.6170  177.0710  146.8620 C   0  0  0  0  0  3  0  0  0  0  0  0
  191.0000  176.8060  144.4360 C   0  0  0  0  0  0  0  0  0  0  0  0
  191.6480  176.5450  145.6560 C   0  0  0  0  0  3  0  0  0  0  0  0
  187.5350  177.7330  145.6510 C   0  0  0  0  0  1  0  0  0  0  0  0
  188.9670  177.3320  145.6520 C   0  0  0  0  0  0  0  0  0  0  0  0
  1  3  2  0  0  0  0
  1  7  1  0  0  0  0
  2 11  1  0  0  0  0
  2  3  1  0  0  0  0
  4 10  1  0  0  0  0
  4  9  2  0  0  0  0
  5  7  2  0  0  0  0
  6  8  1  0  0  0  0
  6 10  2  0  0  0  0
  8  2  2  0  0  0  0
  9  5  1  0  0  0  0
 10  1  1  0  0  0  0
 12  4  1  0  0  0  0
 13 18  1  0  0  0  0
 14 18  2  0  0  0  0
 15 14  1  0  0  0  0
 16 15  2  0  0  0  0
 16 17  1  0  0  0  0
 17 13  2  0  0  0  0
 18 12  1  0  0  0  0
 20 19  1  0  0  0  0
 20 12  1  0  0  0  0
 21  9  1  0  0  0  0
 21 22  1  0  0  0  0
 22 23  1  0  0  0  0
 23 24  1  0  0  0  0
 24 28  1  0  0  0  0
 26 31  1  0  0  0  0
 27 25  1  0  0  0  0
 28 26  2  0  0  0  0
 28 29  1  0  0  0  0
 29 25  2  0  0  0  0
 30 31  1  0  0  0  0
 31 27  2  0  0  0  0
M  END
>  <MODEL>
2

>  <REMARK>
 VINA RESULT:      -7.9      2.830      4.396
  Name = 
  8 active torsions:
  status: ('A' for Active; 'I' for Inactive)
    1  A    between atoms: C_10  and  N_28
    2  A    between atoms: C_16  and  O_23
    3  A    between atoms: C_18  and  C_22
    4  A    between atoms: C_18  and  O_23
    5  A    between atoms: C_19  and  O_29
    6  A    between atoms: C_22  and  O_29
    7  A    between atoms: C_24  and  N_28
    8  A    between atoms: N_28  and  C_30
                            x       y       z     vdW  Elec       q    Type
                         _______ _______ _______ _____ _____    ______ ____

>  <TORSDO>
F 8

$$$$
=
 OpenBabel10222415293D

 31 34  0  0  0  0  0  0  0  0999 V2000
  182.6050  178.8590  143.0100 C   0  0  0  0  0  0  0  0  0  0  0  0
  180.2810  178.4450  143.5480 C   0  0  0  0  0  0  0  0  0  0  0  0
  181.5790  178.7640  143.9540 C   0  0  0  0  0  3  0  0  0  0  0  0
  183.3750  178.7250  140.6960 C   0  0  0  0  0  0  0  0  0  0  0  0
  184.9300  179.2550  142.4860 C   0  0  0  0  0  3  0  0  0  0  0  0
  181.0250  178.3180  141.2460 C   0  0  0  0  0  3  0  0  0  0  0  0
  183.9000  179.1700  143.4230 C   0  0  0  0  0  3  0  0  0  0  0  0
  180.0040  178.2240  142.1960 C   0  0  0  0  0  3  0  0  0  0  0  0
  184.6800  179.0310  141.1230 C   0  0  0  0  0  0  0  0  0  0  0  0
  182.3330  178.6340  141.6410 C   0  0  0  0  0  0  0  0  0  0  0  0
  179.2660  178.3450  144.4890 O   0  0  0  0  0  1  0  0  0  0  0  0
  183.1150  178.5040  139.3010 N   0  0  0  0  0  0  0  0  0  0  0  0
  181.5650  179.0170  137.4390 C   0  0  0  0  0  3  0  0  0  0  0  0
  182.3560  180.8150  138.8530 C   0  0  0  0  0  3  0  0  0  0  0  0
  181.6090  181.7290  138.1050 C   0  0  0  0  0  3  0  0  0  0  0  0
  180.8410  181.2860  137.0240 C   0  0  0  0  0  3  0  0  0  0  0  0
  180.8190  179.9310  136.6920 C   0  0  0  0  0  3  0  0  0  0  0  0
  182.3450  179.4490  138.5280 C   0  0  0  0  0  0  0  0  0  0  0  0
  182.9570  176.1730  139.3150 O   0  0  0  0  0  1  0  0  0  0  0  0
  183.5940  177.2590  138.7090 C   0  0  0  0  0  2  0  0  0  0  0  0
  185.7120  179.1080  140.1770 O   0  0  0  0  0  0  0  0  0  0  0  0
  186.7990  178.1930  140.1290 C   0  0  0  0  0  2  0  0  0  0  0  0
  187.8490  178.5700  141.1620 C   0  0  0  0  0  2  0  0  0  0  0  0
  188.2500  177.4200  141.8990 O   0  0  0  0  0  0  0  0  0  0  0  0
  189.7350  177.2030  145.3050 C   0  0  0  0  0  3  0  0  0  0  0  0
  187.2520  177.6210  144.0850 C   0  0  0  0  0  3  0  0  0  0  0  0
  188.5970  177.4080  146.0890 C   0  0  0  0  0  3  0  0  0  0  0  0
  188.3860  177.4130  143.2920 C   0  0  0  0  0  0  0  0  0  0  0  0
  189.6310  177.2050  143.9110 C   0  0  0  0  0  3  0  0  0  0  0  0
  186.1430  177.8170  146.3160 C   0  0  0  0  0  1  0  0  0  0  0  0
  187.3560  177.6160  145.4800 C   0  0  0  0  0  0  0  0  0  0  0  0
  1  7  1  0  0  0  0
  1  3  2  0  0  0  0
  2  3  1  0  0  0  0
  2 11  1  0  0  0  0
  4  9  2  0  0  0  0
  4 10  1  0  0  0  0
  5  7  2  0  0  0  0
  6 10  2  0  0  0  0
  6  8  1  0  0  0  0
  8  2  2  0  0  0  0
  9  5  1  0  0  0  0
 10  1  1  0  0  0  0
 12  4  1  0  0  0  0
 13 18  1  0  0  0  0
 15 14  1  0  0  0  0
 16 15  2  0  0  0  0
 17 16  1  0  0  0  0
 17 13  2  0  0  0  0
 18 14  2  0  0  0  0
 18 12  1  0  0  0  0
 20 12  1  0  0  0  0
 20 19  1  0  0  0  0
 21  9  1  0  0  0  0
 22 21  1  0  0  0  0
 22 23  1  0  0  0  0
 23 24  1  0  0  0  0
 24 28  1  0  0  0  0
 25 27  1  0  0  0  0
 26 31  1  0  0  0  0
 28 29  1  0  0  0  0
 28 26  2  0  0  0  0
 29 25  2  0  0  0  0
 31 27  2  0  0  0  0
 31 30  1  0  0  0  0
M  END
>  <MODEL>
3

>  <REMARK>
 VINA RESULT:      -7.8      1.307      2.464
  Name = 
  8 active torsions:
  status: ('A' for Active; 'I' for Inactive)
    1  A    between atoms: C_10  and  N_28
    2  A    between atoms: C_16  and  O_23
    3  A    between atoms: C_18  and  C_22
    4  A    between atoms: C_18  and  O_23
    5  A    between atoms: C_19  and  O_29
    6  A    between atoms: C_22  and  O_29
    7  A    between atoms: C_24  and  N_28
    8  A    between atoms: N_28  and  C_30
                            x       y       z     vdW  Elec       q    Type
                         _______ _______ _______ _____ _____    ______ ____

>  <TORSDO>
F 8

$$$$
=
 OpenBabel10222415293D

 31 34  0  0  0  0  0  0  0  0999 V2000
  186.6280  177.9460  144.1250 C   0  0  0  0  0  0  0  0  0  0  0  0
  185.7200  178.1350  146.3600 C   0  0  0  0  0  0  0  0  0  0  0  0
  185.5280  177.9880  144.9850 C   0  0  0  0  0  3  0  0  0  0  0  0
  189.0430  178.0170  143.7660 C   0  0  0  0  0  0  0  0  0  0  0  0
  187.5230  177.7760  141.8870 C   0  0  0  0  0  3  0  0  0  0  0  0
  188.1180  178.1970  146.0260 C   0  0  0  0  0  3  0  0  0  0  0  0
  186.4290  177.8070  142.7510 C   0  0  0  0  0  3  0  0  0  0  0  0
  187.0130  178.2390  146.8810 C   0  0  0  0  0  3  0  0  0  0  0  0
  188.8320  177.8840  142.3820 C   0  0  0  0  0  0  0  0  0  0  0  0
  187.9390  178.0520  144.6430 C   0  0  0  0  0  0  0  0  0  0  0  0
  184.6250  178.1820  147.2120 O   0  0  0  0  0  1  0  0  0  0  0  0
  190.3810  178.1190  144.2770 N   0  0  0  0  0  0  0  0  0  0  0  0
  191.3290  176.8890  146.2060 C   0  0  0  0  0  3  0  0  0  0  0  0
  191.4530  175.9080  143.9980 C   0  0  0  0  0  3  0  0  0  0  0  0
  192.1070  174.7940  144.5310 C   0  0  0  0  0  3  0  0  0  0  0  0
  192.3720  174.7290  145.9020 C   0  0  0  0  0  3  0  0  0  0  0  0
  191.9840  175.7760  146.7390 C   0  0  0  0  0  3  0  0  0  0  0  0
  191.0590  176.9700  144.8280 C   0  0  0  0  0  0  0  0  0  0  0  0
  192.3960  179.3010  144.2230 O   0  0  0  0  0  1  0  0  0  0  0  0
  191.0070  179.4370  144.2850 C   0  0  0  0  0  2  0  0  0  0  0  0
  189.9360  177.8610  141.5180 O   0  0  0  0  0  0  0  0  0  0  0  0
  190.3340  176.7060  140.7900 C   0  0  0  0  0  2  0  0  0  0  0  0
  190.5840  177.0630  139.3340 C   0  0  0  0  0  2  0  0  0  0  0  0
  189.7660  178.1630  138.9490 O   0  0  0  0  0  0  0  0  0  0  0  0
  187.9970  177.9150  135.6840 C   0  0  0  0  0  3  0  0  0  0  0  0
  187.4180  178.0070  138.4200 C   0  0  0  0  0  3  0  0  0  0  0  0
  186.6700  177.8640  136.1210 C   0  0  0  0  0  3  0  0  0  0  0  0
  188.7490  178.0630  137.9920 C   0  0  0  0  0  0  0  0  0  0  0  0
  189.0330  178.0150  136.6160 C   0  0  0  0  0  3  0  0  0  0  0  0
  184.9680  177.8730  137.9490 C   0  0  0  0  0  1  0  0  0  0  0  0
  186.3800  177.9100  137.4880 C   0  0  0  0  0  0  0  0  0  0  0  0
  1 10  1  0  0  0  0
  1  3  1  0  0  0  0
  2  8  1  0  0  0  0
  2 11  1  0  0  0  0
  3  2  2  0  0  0  0
  4 12  1  0  0  0  0
  4 10  2  0  0  0  0
  5  9  2  0  0  0  0
  5  7  1  0  0  0  0
  6  8  2  0  0  0  0
  7  1  2  0  0  0  0
  9  4  1  0  0  0  0
 10  6  1  0  0  0  0
 12 20  1  0  0  0  0
 12 18  1  0  0  0  0
 13 17  1  0  0  0  0
 14 15  2  0  0  0  0
 14 18  1  0  0  0  0
 15 16  1  0  0  0  0
 16 17  2  0  0  0  0
 18 13  2  0  0  0  0
 19 20  1  0  0  0  0
 21  9  1  0  0  0  0
 22 21  1  0  0  0  0
 23 22  1  0  0  0  0
 24 23  1  0  0  0  0
 25 27  2  0  0  0  0
 25 29  1  0  0  0  0
 27 31  1  0  0  0  0
 28 26  1  0  0  0  0
 28 24  1  0  0  0  0
 29 28  2  0  0  0  0
 31 30  1  0  0  0  0
 31 26  2  0  0  0  0
M  END
>  <MODEL>
4

>  <REMARK>
 VINA RESULT:      -7.8      3.537      7.731
  Name = 
  8 active torsions:
  status: ('A' for Active; 'I' for Inactive)
    1  A    between atoms: C_10  and  N_28
    2  A    between atoms: C_16  and  O_23
    3  A    between atoms: C_18  and  C_22
    4  A    between atoms: C_18  and  O_23
    5  A    between atoms: C_19  and  O_29
    6  A    between atoms: C_22  and  O_29
    7  A    between atoms: C_24  and  N_28
    8  A    between atoms: N_28  and  C_30
                            x       y       z     vdW  Elec       q    Type
                         _______ _______ _______ _____ _____    ______ ____

>  <TORSDO>
F 8

$$$$
=
 OpenBabel10222415293D

 31 34  0  0  0  0  0  0  0  0999 V2000
  190.1650  177.5020  139.8680 C   0  0  0  0  0  0  0  0  0  0  0  0
  192.1250  176.7020  138.6950 C   0  0  0  0  0  0  0  0  0  0  0  0
  191.5210  177.1650  139.8660 C   0  0  0  0  0  3  0  0  0  0  0  0
  188.0340  177.7250  138.6950 C   0  0  0  0  0  0  0  0  0  0  0  0
  188.2180  178.3200  141.0430 C   0  0  0  0  0  3  0  0  0  0  0  0
  190.0180  176.9060  137.5180 C   0  0  0  0  0  3  0  0  0  0  0  0
  189.5690  177.9710  141.0390 C   0  0  0  0  0  3  0  0  0  0  0  0
  191.3750  176.5710  137.5230 C   0  0  0  0  0  3  0  0  0  0  0  0
  187.4440  178.2050  139.8780 C   0  0  0  0  0  0  0  0  0  0  0  0
  189.3990  177.3740  138.6860 C   0  0  0  0  0  0  0  0  0  0  0  0
  193.4730  176.3730  138.6950 O   0  0  0  0  0  1  0  0  0  0  0  0
  187.2420  177.5970  137.5040 N   0  0  0  0  0  0  0  0  0  0  0  0
  186.9730  175.1590  137.1590 C   0  0  0  0  0  3  0  0  0  0  0  0
  185.0110  176.5740  137.2000 C   0  0  0  0  0  3  0  0  0  0  0  0
  184.2020  175.4540  136.9900 C   0  0  0  0  0  3  0  0  0  0  0  0
  184.7800  174.1880  136.8640 C   0  0  0  0  0  3  0  0  0  0  0  0
  186.1650  174.0400  136.9480 C   0  0  0  0  0  3  0  0  0  0  0  0
  186.4060  176.4410  137.2850 C   0  0  0  0  0  0  0  0  0  0  0  0
  187.5890  178.0610  135.2400 O   0  0  0  0  0  1  0  0  0  0  0  0
  187.3640  178.6410  136.4920 C   0  0  0  0  0  2  0  0  0  0  0  0
  186.0870  178.5590  139.8740 O   0  0  0  0  0  0  0  0  0  0  0  0
  185.4400  179.1890  140.9740 C   0  0  0  0  0  2  0  0  0  0  0  0
  184.6660  178.1630  141.7840 C   0  0  0  0  0  2  0  0  0  0  0  0
  184.3150  178.7010  143.0550 O   0  0  0  0  0  0  0  0  0  0  0  0
  185.3000  178.4960  146.6380 C   0  0  0  0  0  3  0  0  0  0  0  0
  186.3450  177.9310  144.1050 C   0  0  0  0  0  3  0  0  0  0  0  0
  186.5880  177.9680  146.5150 C   0  0  0  0  0  3  0  0  0  0  0  0
  185.0560  178.4630  144.2180 C   0  0  0  0  0  0  0  0  0  0  0  0
  184.5360  178.7440  145.4940 C   0  0  0  0  0  3  0  0  0  0  0  0
  188.4870  177.1390  145.1190 C   0  0  0  0  0  1  0  0  0  0  0  0
  187.1100  177.6850  145.2490 C   0  0  0  0  0  0  0  0  0  0  0  0
  1  7  1  0  0  0  0
  2 11  1  0  0  0  0
  2  3  1  0  0  0  0
  3  1  2  0  0  0  0
  4  9  2  0  0  0  0
  6  8  1  0  0  0  0
  6 10  2  0  0  0  0
  7  5  2  0  0  0  0
  8  2  2  0  0  0  0
  9  5  1  0  0  0  0
 10  4  1  0  0  0  0
 10  1  1  0  0  0  0
 12  4  1  0  0  0  0
 13 18  1  0  0  0  0
 14 18  2  0  0  0  0
 15 14  1  0  0  0  0
 16 17  1  0  0  0  0
 16 15  2  0  0  0  0
 17 13  2  0  0  0  0
 18 12  1  0  0  0  0
 19 20  1  0  0  0  0
 20 12  1  0  0  0  0
 21  9  1  0  0  0  0
 21 22  1  0  0  0  0
 22 23  1  0  0  0  0
 23 24  1  0  0  0  0
 24 28  1  0  0  0  0
 26 28  2  0  0  0  0
 26 31  1  0  0  0  0
 27 25  1  0  0  0  0
 28 29  1  0  0  0  0
 29 25  2  0  0  0  0
 30 31  1  0  0  0  0
 31 27  2  0  0  0  0
M  END
>  <MODEL>
5

>  <REMARK>
 VINA RESULT:      -7.8      2.848      6.355
  Name = 
  8 active torsions:
  status: ('A' for Active; 'I' for Inactive)
    1  A    between atoms: C_10  and  N_28
    2  A    between atoms: C_16  and  O_23
    3  A    between atoms: C_18  and  C_22
    4  A    between atoms: C_18  and  O_23
    5  A    between atoms: C_19  and  O_29
    6  A    between atoms: C_22  and  O_29
    7  A    between atoms: C_24  and  N_28
    8  A    between atoms: N_28  and  C_30
                            x       y       z     vdW  Elec       q    Type
                         _______ _______ _______ _____ _____    ______ ____

>  <TORSDO>
F 8

$$$$
=
 OpenBabel10222415293D

 31 34  0  0  0  0  0  0  0  0999 V2000
  186.6940  174.6590  136.7320 C   0  0  0  0  0  0  0  0  0  0  0  0
  188.2280  172.8840  136.1350 C   0  0  0  0  0  0  0  0  0  0  0  0
  186.9240  173.3740  136.2320 C   0  0  0  0  0  3  0  0  0  0  0  0
  187.5390  176.7580  137.6520 C   0  0  0  0  0  0  0  0  0  0  0  0
  185.1540  176.4170  137.3430 C   0  0  0  0  0  3  0  0  0  0  0  0
  189.0850  174.9620  137.0360 C   0  0  0  0  0  3  0  0  0  0  0  0
  185.3890  175.1400  136.8330 C   0  0  0  0  0  3  0  0  0  0  0  0
  189.3070  173.6770  136.5350 C   0  0  0  0  0  3  0  0  0  0  0  0
  186.2190  177.2320  137.7570 C   0  0  0  0  0  0  0  0  0  0  0  0
  187.7810  175.4670  137.1400 C   0  0  0  0  0  0  0  0  0  0  0  0
  188.4520  171.6050  135.6430 O   0  0  0  0  0  1  0  0  0  0  0  0
  188.6310  177.5930  138.0660 N   0  0  0  0  0  0  0  0  0  0  0  0
  190.4760  177.1760  139.6650 C   0  0  0  0  0  3  0  0  0  0  0  0
  188.3120  177.8590  140.5040 C   0  0  0  0  0  3  0  0  0  0  0  0
  188.8060  177.8100  141.8110 C   0  0  0  0  0  3  0  0  0  0  0  0
  190.1340  177.4430  142.0430 C   0  0  0  0  0  3  0  0  0  0  0  0
  190.9690  177.1260  140.9710 C   0  0  0  0  0  3  0  0  0  0  0  0
  189.1400  177.5400  139.4160 C   0  0  0  0  0  0  0  0  0  0  0  0
  188.6830  179.8270  137.3830 O   0  0  0  0  0  1  0  0  0  0  0  0
  189.1630  178.5460  137.0980 C   0  0  0  0  0  2  0  0  0  0  0  0
  185.9890  178.5140  138.2760 O   0  0  0  0  0  0  0  0  0  0  0  0
  184.8350  178.8550  139.0350 C   0  0  0  0  0  2  0  0  0  0  0  0
  185.2170  179.1180  140.4820 C   0  0  0  0  0  2  0  0  0  0  0  0
  184.2110  178.6170  141.3560 O   0  0  0  0  0  0  0  0  0  0  0  0
  183.4190  179.0020  144.9720 C   0  0  0  0  0  3  0  0  0  0  0  0
  185.5530  178.2500  143.3260 C   0  0  0  0  0  3  0  0  0  0  0  0
  184.6410  178.6290  145.5380 C   0  0  0  0  0  3  0  0  0  0  0  0
  184.3340  178.6270  142.7510 C   0  0  0  0  0  0  0  0  0  0  0  0
  183.2660  179.0020  143.5830 C   0  0  0  0  0  3  0  0  0  0  0  0
  187.0120  177.8730  145.3200 C   0  0  0  0  0  1  0  0  0  0  0  0
  185.7080  178.2530  144.7160 C   0  0  0  0  0  0  0  0  0  0  0  0
  1  7  2  0  0  0  0
  1 10  1  0  0  0  0
  2  3  2  0  0  0  0
  2  8  1  0  0  0  0
  3  1  1  0  0  0  0
  4  9  1  0  0  0  0
  4 12  1  0  0  0  0
  5  9  2  0  0  0  0
  6 10  1  0  0  0  0
  7  5  1  0  0  0  0
  8  6  2  0  0  0  0
  9 21  1  0  0  0  0
 10  4  2  0  0  0  0
 11  2  1  0  0  0  0
 12 18  1  0  0  0  0
 13 17  1  0  0  0  0
 14 15  2  0  0  0  0
 15 16  1  0  0  0  0
 17 16  2  0  0  0  0
 18 13  2  0  0  0  0
 18 14  1  0  0  0  0
 20 19  1  0  0  0  0
 20 12  1  0  0  0  0
 21 22  1  0  0  0  0
 22 23  1  0  0  0  0
 23 24  1  0  0  0  0
 24 28  1  0  0  0  0
 25 27  1  0  0  0  0
 26 31  1  0  0  0  0
 28 26  2  0  0  0  0
 28 29  1  0  0  0  0
 29 25  2  0  0  0  0
 31 30  1  0  0  0  0
 31 27  2  0  0  0  0
M  END
>  <MODEL>
6

>  <REMARK>
 VINA RESULT:      -7.6      3.178      7.131
  Name = 
  8 active torsions:
  status: ('A' for Active; 'I' for Inactive)
    1  A    between atoms: C_10  and  N_28
    2  A    between atoms: C_16  and  O_23
    3  A    between atoms: C_18  and  C_22
    4  A    between atoms: C_18  and  O_23
    5  A    between atoms: C_19  and  O_29
    6  A    between atoms: C_22  and  O_29
    7  A    between atoms: C_24  and  N_28
    8  A    between atoms: N_28  and  C_30
                            x       y       z     vdW  Elec       q    Type
                         _______ _______ _______ _____ _____    ______ ____

>  <TORSDO>
F 8

$$$$
=
 OpenBabel10222415293D

 31 34  0  0  0  0  0  0  0  0999 V2000
  187.8890  178.1670  139.2820 C   0  0  0  0  0  0  0  0  0  0  0  0
  188.7460  177.6560  137.0770 C   0  0  0  0  0  0  0  0  0  0  0  0
  188.9600  177.8480  138.4430 C   0  0  0  0  0  3  0  0  0  0  0  0
  185.5110  178.6250  139.6030 C   0  0  0  0  0  0  0  0  0  0  0  0
  187.0460  178.6950  141.4840 C   0  0  0  0  0  3  0  0  0  0  0  0
  186.3830  178.0970  137.3770 C   0  0  0  0  0  3  0  0  0  0  0  0
  188.1100  178.3650  140.6450 C   0  0  0  0  0  3  0  0  0  0  0  0
  187.4590  177.7790  136.5440 C   0  0  0  0  0  3  0  0  0  0  0  0
  185.7460  178.8310  140.9740 C   0  0  0  0  0  0  0  0  0  0  0  0
  186.5840  178.2950  138.7510 C   0  0  0  0  0  0  0  0  0  0  0  0
  189.8130  177.3460  136.2460 O   0  0  0  0  0  1  0  0  0  0  0  0
  184.1800  178.7550  139.0810 N   0  0  0  0  0  0  0  0  0  0  0  0
  182.8070  176.8480  139.8620 C   0  0  0  0  0  3  0  0  0  0  0  0
  183.1190  177.1890  137.4870 C   0  0  0  0  0  3  0  0  0  0  0  0
  182.3320  176.0650  137.2250 C   0  0  0  0  0  3  0  0  0  0  0  0
  181.7830  175.3330  138.2810 C   0  0  0  0  0  3  0  0  0  0  0  0
  182.0210  175.7240  139.5990 C   0  0  0  0  0  3  0  0  0  0  0  0
  183.3690  177.5920  138.8090 C   0  0  0  0  0  0  0  0  0  0  0  0
  182.3400  180.1950  139.0660 O   0  0  0  0  0  1  0  0  0  0  0  0
  183.7010  180.0970  138.7670 C   0  0  0  0  0  2  0  0  0  0  0  0
  184.6730  179.1680  141.8120 O   0  0  0  0  0  0  0  0  0  0  0  0
  184.3410  178.4410  142.9890 C   0  0  0  0  0  2  0  0  0  0  0  0
  184.7120  179.2440  144.2240 C   0  0  0  0  0  2  0  0  0  0  0  0
  185.0090  178.3710  145.3090 O   0  0  0  0  0  0  0  0  0  0  0  0
  188.5210  177.1500  145.1480 C   0  0  0  0  0  3  0  0  0  0  0  0
  186.7200  178.2210  147.0020 C   0  0  0  0  0  3  0  0  0  0  0  0
  188.9160  177.3460  146.4740 C   0  0  0  0  0  3  0  0  0  0  0  0
  186.3140  178.0240  145.6770 C   0  0  0  0  0  0  0  0  0  0  0  0
  187.2240  177.4870  144.7500 C   0  0  0  0  0  3  0  0  0  0  0  0
  188.4340  178.0740  148.8140 C   0  0  0  0  0  1  0  0  0  0  0  0
  188.0170  177.8810  147.4000 C   0  0  0  0  0  0  0  0  0  0  0  0
  1  7  1  0  0  0  0
  2  3  1  0  0  0  0
  3  1  2  0  0  0  0
  4  9  2  0  0  0  0
  6 10  2  0  0  0  0
  7  5  2  0  0  0  0
  8  2  2  0  0  0  0
  8  6  1  0  0  0  0
  9  5  1  0  0  0  0
  9 21  1  0  0  0  0
 10  1  1  0  0  0  0
 10  4  1  0  0  0  0
 11  2  1  0  0  0  0
 12  4  1  0  0  0  0
 14 18  1  0  0  0  0
 15 14  2  0  0  0  0
 15 16  1  0  0  0  0
 16 17  2  0  0  0  0
 17 13  1  0  0  0  0
 18 12  1  0  0  0  0
 18 13  2  0  0  0  0
 20 19  1  0  0  0  0
 20 12  1  0  0  0  0
 21 22  1  0  0  0  0
 22 23  1  0  0  0  0
 23 24  1  0  0  0  0
 24 28  1  0  0  0  0
 25 27  1  0  0  0  0
 26 31  1  0  0  0  0
 27 31  2  0  0  0  0
 28 26  2  0  0  0  0
 29 25  2  0  0  0  0
 29 28  1  0  0  0  0
 31 30  1  0  0  0  0
M  END
>  <MODEL>
7

>  <REMARK>
 VINA RESULT:      -7.6      2.212      4.937
  Name = 
  8 active torsions:
  status: ('A' for Active; 'I' for Inactive)
    1  A    between atoms: C_10  and  N_28
    2  A    between atoms: C_16  and  O_23
    3  A    between atoms: C_18  and  C_22
    4  A    between atoms: C_18  and  O_23
    5  A    between atoms: C_19  and  O_29
    6  A    between atoms: C_22  and  O_29
    7  A    between atoms: C_24  and  N_28
    8  A    between atoms: N_28  and  C_30
                            x       y       z     vdW  Elec       q    Type
                         _______ _______ _______ _____ _____    ______ ____

>  <TORSDO>
F 8

$$$$
=
 OpenBabel10222415293D

 31 34  0  0  0  0  0  0  0  0999 V2000
  186.8530  178.4420  139.9550 C   0  0  0  0  0  0  0  0  0  0  0  0
  187.7380  178.1160  137.7260 C   0  0  0  0  0  0  0  0  0  0  0  0
  187.9440  178.3610  139.0850 C   0  0  0  0  0  3  0  0  0  0  0  0
  184.4430  178.3660  140.3460 C   0  0  0  0  0  0  0  0  0  0  0  0
  185.9780  178.7880  142.1810 C   0  0  0  0  0  3  0  0  0  0  0  0
  185.3460  178.0270  138.0960 C   0  0  0  0  0  3  0  0  0  0  0  0
  187.0650  178.6940  141.3110 C   0  0  0  0  0  3  0  0  0  0  0  0
  186.4410  177.9480  137.2320 C   0  0  0  0  0  3  0  0  0  0  0  0
  184.6660  178.6290  141.7100 C   0  0  0  0  0  0  0  0  0  0  0  0
  185.5380  178.2750  139.4630 C   0  0  0  0  0  0  0  0  0  0  0  0
  188.8230  178.0420  136.8640 O   0  0  0  0  0  1  0  0  0  0  0  0
  183.1020  178.1950  139.8630 N   0  0  0  0  0  0  0  0  0  0  0  0
  181.0310  179.4900  140.2720 C   0  0  0  0  0  3  0  0  0  0  0  0
  182.6390  180.3030  138.6570 C   0  0  0  0  0  3  0  0  0  0  0  0
  181.8200  181.4050  138.3990 C   0  0  0  0  0  3  0  0  0  0  0  0
  180.6060  181.5480  139.0760 C   0  0  0  0  0  3  0  0  0  0  0  0
  180.2120  180.5910  140.0130 C   0  0  0  0  0  3  0  0  0  0  0  0
  182.2540  179.3310  139.5940 C   0  0  0  0  0  0  0  0  0  0  0  0
  182.1380  176.6320  138.4170 O   0  0  0  0  0  1  0  0  0  0  0  0
  182.6010  176.8310  139.7200 C   0  0  0  0  0  2  0  0  0  0  0  0
  183.5690  178.7280  142.5780 O   0  0  0  0  0  0  0  0  0  0  0  0
  183.5680  179.5390  143.7470 C   0  0  0  0  0  2  0  0  0  0  0  0
  183.6170  178.6680  144.9910 C   0  0  0  0  0  2  0  0  0  0  0  0
  184.5300  179.2110  145.9380 O   0  0  0  0  0  0  0  0  0  0  0  0
  187.5790  178.0900  147.7540 C   0  0  0  0  0  3  0  0  0  0  0  0
  186.4830  178.0160  145.1810 C   0  0  0  0  0  3  0  0  0  0  0  0
  188.2790  177.4740  146.7130 C   0  0  0  0  0  3  0  0  0  0  0  0
  185.7760  178.6380  146.2160 C   0  0  0  0  0  0  0  0  0  0  0  0
  186.3320  178.6710  147.5070 C   0  0  0  0  0  3  0  0  0  0  0  0
  188.4860  176.7960  144.3170 C   0  0  0  0  0  1  0  0  0  0  0  0
  187.7320  177.4370  145.4270 C   0  0  0  0  0  0  0  0  0  0  0  0
  1  7  1  0  0  0  0
  2  3  1  0  0  0  0
  3  1  2  0  0  0  0
  4  9  2  0  0  0  0
  6 10  2  0  0  0  0
  7  5  2  0  0  0  0
  8  2  2  0  0  0  0
  8  6  1  0  0  0  0
  9  5  1  0  0  0  0
  9 21  1  0  0  0  0
 10  1  1  0  0  0  0
 10  4  1  0  0  0  0
 11  2  1  0  0  0  0
 12  4  1  0  0  0  0
 14 18  1  0  0  0  0
 15 14  2  0  0  0  0
 15 16  1  0  0  0  0
 16 17  2  0  0  0  0
 17 13  1  0  0  0  0
 18 12  1  0  0  0  0
 18 13  2  0  0  0  0
 19 20  1  0  0  0  0
 20 12  1  0  0  0  0
 21 22  1  0  0  0  0
 22 23  1  0  0  0  0
 23 24  1  0  0  0  0
 24 28  1  0  0  0  0
 26 31  2  0  0  0  0
 26 28  1  0  0  0  0
 27 25  2  0  0  0  0
 28 29  2  0  0  0  0
 29 25  1  0  0  0  0
 30 31  1  0  0  0  0
 31 27  1  0  0  0  0
M  END
>  <MODEL>
8

>  <REMARK>
 VINA RESULT:      -7.5      2.206      5.185
  Name = 
  8 active torsions:
  status: ('A' for Active; 'I' for Inactive)
    1  A    between atoms: C_10  and  N_28
    2  A    between atoms: C_16  and  O_23
    3  A    between atoms: C_18  and  C_22
    4  A    between atoms: C_18  and  O_23
    5  A    between atoms: C_19  and  O_29
    6  A    between atoms: C_22  and  O_29
    7  A    between atoms: C_24  and  N_28
    8  A    between atoms: N_28  and  C_30
                            x       y       z     vdW  Elec       q    Type
                         _______ _______ _______ _____ _____    ______ ____

>  <TORSDO>
F 8

$$$$
=
 OpenBabel10222415293D

 31 34  0  0  0  0  0  0  0  0999 V2000
  191.3290  176.7490  138.8070 C   0  0  0  0  0  0  0  0  0  0  0  0
  192.8710  175.9610  137.1170 C   0  0  0  0  0  0  0  0  0  0  0  0
  192.6130  176.3440  138.4340 C   0  0  0  0  0  3  0  0  0  0  0  0
  188.9960  177.1910  138.2360 C   0  0  0  0  0  0  0  0  0  0  0  0
  189.8020  177.5550  140.4980 C   0  0  0  0  0  3  0  0  0  0  0  0
  190.5580  176.3830  136.5330 C   0  0  0  0  0  3  0  0  0  0  0  0
  191.0800  177.1380  140.1240 C   0  0  0  0  0  3  0  0  0  0  0  0
  191.8450  175.9790  136.1670 C   0  0  0  0  0  3  0  0  0  0  0  0
  188.7560  177.5890  139.5630 C   0  0  0  0  0  0  0  0  0  0  0  0
  190.2860  176.7720  137.8520 C   0  0  0  0  0  0  0  0  0  0  0  0
  194.1490  175.5650  136.7480 O   0  0  0  0  0  1  0  0  0  0  0  0
  187.9250  177.2150  137.2790 N   0  0  0  0  0  0  0  0  0  0  0  0
  185.5610  176.4780  137.2180 C   0  0  0  0  0  3  0  0  0  0  0  0
  187.3210  174.8180  137.2230 C   0  0  0  0  0  3  0  0  0  0  0  0
  186.3610  173.8030  137.1850 C   0  0  0  0  0  3  0  0  0  0  0  0
  185.0020  174.1270  137.1640 C   0  0  0  0  0  3  0  0  0  0  0  0
  184.6020  175.4640  137.1810 C   0  0  0  0  0  3  0  0  0  0  0  0
  186.9330  176.1670  137.2430 C   0  0  0  0  0  0  0  0  0  0  0  0
  187.5670  179.4980  136.9270 O   0  0  0  0  0  1  0  0  0  0  0  0
  187.9130  178.2980  136.3010 C   0  0  0  0  0  2  0  0  0  0  0  0
  187.4710  178.0120  139.9320 O   0  0  0  0  0  0  0  0  0  0  0  0
  187.2210  178.9030  141.0120 C   0  0  0  0  0  2  0  0  0  0  0  0
  186.3960  178.2110  142.0840 C   0  0  0  0  0  2  0  0  0  0  0  0
  187.2240  177.3640  142.8740 O   0  0  0  0  0  0  0  0  0  0  0  0
  186.4130  177.9860  146.4520 C   0  0  0  0  0  3  0  0  0  0  0  0
  188.5900  177.2430  144.8580 C   0  0  0  0  0  3  0  0  0  0  0  0
  187.6580  177.7380  147.0390 C   0  0  0  0  0  3  0  0  0  0  0  0
  187.3480  177.4930  144.2620 C   0  0  0  0  0  0  0  0  0  0  0  0
  186.2590  177.8650  145.0690 C   0  0  0  0  0  3  0  0  0  0  0  0
  190.0720  177.1200  146.8660 C   0  0  0  0  0  1  0  0  0  0  0  0
  188.7450  177.3670  146.2420 C   0  0  0  0  0  0  0  0  0  0  0  0
  1  7  1  0  0  0  0
  2  3  1  0  0  0  0
  3  1  2  0  0  0  0
  4  9  2  0  0  0  0
  6 10  2  0  0  0  0
  7  5  2  0  0  0  0
  8  6  1  0  0  0  0
  8  2  2  0  0  0  0
  9 21  1  0  0  0  0
  9  5  1  0  0  0  0
 10  4  1  0  0  0  0
 10  1  1  0  0  0  0
 11  2  1  0  0  0  0
 12  4  1  0  0  0  0
 13 18  1  0  0  0  0
 14 18  2  0  0  0  0
 15 14  1  0  0  0  0
 16 17  1  0  0  0  0
 16 15  2  0  0  0  0
 17 13  2  0  0  0  0
 18 12  1  0  0  0  0
 20 19  1  0  0  0  0
 20 12  1  0  0  0  0
 21 22  1  0  0  0  0
 22 23  1  0  0  0  0
 23 24  1  0  0  0  0
 24 28  1  0  0  0  0
 25 27  1  0  0  0  0
 26 31  1  0  0  0  0
 28 26  2  0  0  0  0
 28 29  1  0  0  0  0
 29 25  2  0  0  0  0
 31 30  1  0  0  0  0
 31 27  2  0  0  0  0
M  END
>  <MODEL>
9

>  <REMARK>
 VINA RESULT:      -7.3      3.544      6.935
  Name = 
  8 active torsions:
  status: ('A' for Active; 'I' for Inactive)
    1  A    between atoms: C_10  and  N_28
    2  A    between atoms: C_16  and  O_23
    3  A    between atoms: C_18  and  C_22
    4  A    between atoms: C_18  and  O_23
    5  A    between atoms: C_19  and  O_29
    6  A    between atoms: C_22  and  O_29
    7  A    between atoms: C_24  and  N_28
    8  A    between atoms: N_28  and  C_30
                            x       y       z     vdW  Elec       q    Type
                         _______ _______ _______ _____ _____    ______ ____

>  <TORSDO>
F 8

$$$$
