=
 OpenBabel10222415303D

 31 36  0  0  1  0  0  0  0  0999 V2000
  189.8390  177.7060  136.9380 O   0  0  0  0  0  0  0  0  0  0  0  0
  187.3520  177.6070  137.0080 C   0  0  1  0  0  3  0  0  0  0  0  0
  188.6770  177.8020  137.7580 C   0  0  2  0  0  0  0  0  0  0  0  0
  188.8150  177.3400  139.1940 C   0  0  2  0  0  0  0  0  0  0  0  0
  187.3780  176.1530  137.3780 C   0  0  0  0  0  2  0  0  0  0  0  0
  188.7290  176.3470  138.0660 C   0  0  1  0  0  0  0  0  0  0  0  0
  190.6790  175.3590  136.7620 O   0  0  0  0  0  0  0  0  0  0  0  0
  187.6680  177.4470  139.9850 O   0  0  0  0  0  1  0  0  0  0  0  0
  189.9190  176.2800  137.1640 C   0  0  0  0  0  0  0  0  0  0  0  0
  190.1600  177.5610  139.8710 C   0  0  0  0  0  2  0  0  0  0  0  0
  190.3620  176.4940  142.1490 C   0  0  0  0  0  0  0  0  0  0  0  0
  190.5930  175.4300  142.8480 N   0  0  0  0  0  2  0  0  0  0  0  0
  190.4790  176.4290  140.7270 N   0  0  0  0  0  2  0  0  0  0  0  0
  188.7320  177.5510  143.6230 C   0  0  0  0  0  0  0  0  0  0  0  0
  189.5110  177.9220  144.7300 C   0  0  1  0  0  0  0  0  0  0  0  0
  187.3960  177.2090  143.7110 C   0  0  0  0  0  3  0  0  0  0  0  0
  189.8990  177.7650  142.8180 C   0  0  1  0  0  0  0  0  0  0  0  0
  189.0260  177.9800  146.0230 C   0  0  0  0  0  3  0  0  0  0  0  0
  186.8610  177.2570  145.0240 C   0  0  0  0  0  2  0  0  0  0  0  0
  190.7210  178.1010  143.9260 N   0  0  0  0  0  2  0  0  0  0  0  0
  187.6580  177.6320  146.1520 C   0  0  0  0  0  3  0  0  0  0  0  0
  186.1870  178.3280  137.6740 C   0  0  0  0  0  2  0  0  0  0  0  0
  184.9940  177.5050  137.5910 N   0  0  0  0  0  2  0  0  0  0  0  0
  183.8990  178.2890  138.1320 C   0  0  0  0  0  2  0  0  0  0  0  0
  184.4050  179.1460  139.2760 C   0  0  1  0  0  3  0  0  0  0  0  0
  184.1360  180.4860  138.9980 O   0  0  0  0  0  1  0  0  0  0  0  0
  183.7100  178.7370  140.5680 C   0  0  0  0  0  2  0  0  0  0  0  0
  184.7120  178.5830  141.7040 C   0  0  1  0  0  3  0  0  0  0  0  0
  185.6380  179.6270  141.6640 O   0  0  0  0  0  1  0  0  0  0  0  0
  182.6290  178.8800  142.8390 O   0  0  0  0  0  1  0  0  0  0  0  0
  183.9860  178.6140  143.0380 C   0  0  0  0  0  2  0  0  0  0  0  0
  1  9  1  0  0  0  0
  2  5  1  0  0  0  0
  2 22  1  1  0  0  0
  2  3  1  0  0  0  0
  3  1  1  6  0  0  0
  3  6  1  0  0  0  0
  3  4  1  0  0  0  0
  4 10  1  0  0  0  0
  4  8  1  1  0  0  0
  6  5  1  6  0  0  0
  6  4  1  0  0  0  0
  7  9  2  0  0  0  0
  9  6  1  0  0  0  0
 10 13  1  0  0  0  0
 11 12  2  0  0  0  0
 13 11  1  0  0  0  0
 14 16  2  0  0  0  0
 14 15  1  0  0  0  0
 15 18  1  6  0  0  0
 16 19  1  0  0  0  0
 17 11  1  1  0  0  0
 17 14  1  0  0  0  0
 17 20  1  0  0  0  0
 17 15  1  0  0  0  0
 18 21  2  0  0  0  0
 19 21  1  0  0  0  0
 20 15  1  0  0  0  0
 23 22  1  0  0  0  0
 23 24  1  0  0  0  0
 24 25  1  0  0  0  0
 25 26  1  6  0  0  0
 25 27  1  0  0  0  0
 27 28  1  0  0  0  0
 28 29  1  1  0  0  0
 28 31  1  0  0  0  0
 30 31  1  0  0  0  0
M  END
>  <MODEL>
1

>  <REMARK>
 VINA RESULT:      -7.3      0.000      0.000
  Name = 
  10 active torsions:
  status: ('A' for Active; 'I' for Inactive)
    1  A    between atoms: C_2  and  C_14
    2  A    between atoms: C_3  and  C_18
    3  A    between atoms: C_3  and  C_30
    4  A    between atoms: C_4  and  C_27
    5  A    between atoms: C_9  and  C_10
    6  A    between atoms: C_10  and  N_25
    7  A    between atoms: C_13  and  C_18
    8  A    between atoms: C_13  and  C_26
    9  A    between atoms: N_19  and  C_27
   10  A    between atoms: N_19  and  C_30
                            x       y       z     vdW  Elec       q    Type
                         _______ _______ _______ _____ _____    ______ ____

>  <TORSDO>
F 10

$$$$
=
 OpenBabel10222415303D

 31 36  0  0  1  0  0  0  0  0999 V2000
  191.4780  178.4140  144.3880 O   0  0  0  0  0  0  0  0  0  0  0  0
  191.3230  176.8920  142.4230 C   0  0  1  0  0  3  0  0  0  0  0  0
  190.6070  177.7530  143.4730 C   0  0  2  0  0  0  0  0  0  0  0  0
  189.2500  177.3390  144.0020 C   0  0  2  0  0  0  0  0  0  0  0  0
  191.1440  175.6950  143.3100 C   0  0  0  0  0  2  0  0  0  0  0  0
  190.4920  176.5760  144.3750 C   0  0  1  0  0  0  0  0  0  0  0  0
  191.9890  177.0060  146.3880 O   0  0  0  0  0  0  0  0  0  0  0  0
  188.4070  176.6990  143.0890 O   0  0  0  0  0  1  0  0  0  0  0  0
  191.4420  177.2820  145.2880 C   0  0  0  0  0  0  0  0  0  0  0  0
  188.6040  178.2400  145.0460 C   0  0  0  0  0  2  0  0  0  0  0  0
  186.3610  177.7970  146.1160 C   0  0  0  0  0  0  0  0  0  0  0  0
  185.6230  177.0180  146.8390 N   0  0  0  0  0  2  0  0  0  0  0  0
  187.7330  177.4560  145.9080 N   0  0  0  0  0  2  0  0  0  0  0  0
  185.2580  178.6890  144.1330 C   0  0  0  0  0  0  0  0  0  0  0  0
  183.9880  179.0400  144.6180 C   0  0  1  0  0  0  0  0  0  0  0  0
  185.4900  178.2740  142.8360 C   0  0  0  0  0  3  0  0  0  0  0  0
  185.7650  179.0050  145.4360 C   0  0  1  0  0  0  0  0  0  0  0  0
  182.8380  179.0050  143.8510 C   0  0  0  0  0  3  0  0  0  0  0  0
  184.3330  178.2260  142.0160 C   0  0  0  0  0  2  0  0  0  0  0  0
  184.4870  179.3240  145.9640 N   0  0  0  0  0  2  0  0  0  0  0  0
  183.0380  178.5810  142.5130 C   0  0  0  0  0  3  0  0  0  0  0  0
  190.5230  176.7510  141.1330 C   0  0  0  0  0  2  0  0  0  0  0  0
  191.3160  177.2300  140.0150 N   0  0  0  0  0  2  0  0  0  0  0  0
  191.0410  176.3510  138.8930 C   0  0  0  0  0  2  0  0  0  0  0  0
  190.2260  177.0950  137.8530 C   0  0  1  0  0  3  0  0  0  0  0  0
  190.6330  176.6950  136.5800 O   0  0  0  0  0  1  0  0  0  0  0  0
  188.7470  176.7850  138.0440 C   0  0  0  0  0  2  0  0  0  0  0  0
  188.0090  177.9790  138.6340 C   0  0  1  0  0  3  0  0  0  0  0  0
  188.6740  179.1600  138.2990 O   0  0  0  0  0  1  0  0  0  0  0  0
  185.8220  178.9220  138.8310 O   0  0  0  0  0  1  0  0  0  0  0  0
  186.5950  178.0320  138.0820 C   0  0  0  0  0  2  0  0  0  0  0  0
  1  9  1  0  0  0  0
  2 22  1  6  0  0  0
  2  5  1  0  0  0  0
  2  3  1  0  0  0  0
  3  4  1  0  0  0  0
  3  6  1  0  0  0  0
  3  1  1  1  0  0  0
  4  8  1  6  0  0  0
  4  6  1  0  0  0  0
  4 10  1  0  0  0  0
  6  5  1  6  0  0  0
  6  9  1  0  0  0  0
  9  7  2  0  0  0  0
 10 13  1  0  0  0  0
 11 12  2  0  0  0  0
 13 11  1  0  0  0  0
 14 15  1  0  0  0  0
 14 17  1  0  0  0  0
 15 18  1  6  0  0  0
 15 17  1  0  0  0  0
 15 20  1  0  0  0  0
 16 14  2  0  0  0  0
 17 20  1  0  0  0  0
 17 11  1  1  0  0  0
 19 21  1  0  0  0  0
 19 16  1  0  0  0  0
 21 18  2  0  0  0  0
 23 22  1  0  0  0  0
 24 23  1  0  0  0  0
 25 26  1  6  0  0  0
 25 27  1  0  0  0  0
 25 24  1  0  0  0  0
 27 28  1  0  0  0  0
 28 29  1  6  0  0  0
 31 28  1  0  0  0  0
 31 30  1  0  0  0  0
M  END
>  <MODEL>
2

>  <REMARK>
 VINA RESULT:      -7.2      2.848      6.128
  Name = 
  10 active torsions:
  status: ('A' for Active; 'I' for Inactive)
    1  A    between atoms: C_2  and  C_14
    2  A    between atoms: C_3  and  C_18
    3  A    between atoms: C_3  and  C_30
    4  A    between atoms: C_4  and  C_27
    5  A    between atoms: C_9  and  C_10
    6  A    between atoms: C_10  and  N_25
    7  A    between atoms: C_13  and  C_18
    8  A    between atoms: C_13  and  C_26
    9  A    between atoms: N_19  and  C_27
   10  A    between atoms: N_19  and  C_30
                            x       y       z     vdW  Elec       q    Type
                         _______ _______ _______ _____ _____    ______ ____

>  <TORSDO>
F 10

$$$$
=
 OpenBabel10222415303D

 31 36  0  0  1  0  0  0  0  0999 V2000
  187.6640  176.5580  138.4180 O   0  0  0  0  0  0  0  0  0  0  0  0
  189.5950  177.0390  136.9220 C   0  0  1  0  0  3  0  0  0  0  0  0
  189.0690  176.7830  138.3420 C   0  0  2  0  0  0  0  0  0  0  0  0
  189.7160  177.4650  139.5290 C   0  0  2  0  0  0  0  0  0  0  0  0
  189.4680  178.5150  137.1610 C   0  0  0  0  0  2  0  0  0  0  0  0
  188.8830  178.2450  138.5480 C   0  0  1  0  0  0  0  0  0  0  0  0
  186.3810  178.6850  138.6950 O   0  0  0  0  0  0  0  0  0  0  0  0
  191.0960  177.6720  139.4390 O   0  0  0  0  0  1  0  0  0  0  0  0
  187.4140  177.9730  138.5780 C   0  0  0  0  0  0  0  0  0  0  0  0
  189.1370  177.1670  140.9050 C   0  0  0  0  0  2  0  0  0  0  0  0
  190.4470  176.5520  142.9730 C   0  0  0  0  0  0  0  0  0  0  0  0
  191.1800  175.6840  143.5920 N   0  0  0  0  0  2  0  0  0  0  0  0
  190.0250  176.2760  141.6360 N   0  0  0  0  0  2  0  0  0  0  0  0
  188.7040  177.6100  144.3100 C   0  0  0  0  0  0  0  0  0  0  0  0
  189.3510  177.8450  145.5320 C   0  0  1  0  0  0  0  0  0  0  0  0
  187.3500  177.3550  144.2020 C   0  0  0  0  0  3  0  0  0  0  0  0
  189.9770  177.8000  143.6780 C   0  0  1  0  0  0  0  0  0  0  0  0
  188.7060  177.8430  146.7550 C   0  0  0  0  0  3  0  0  0  0  0  0
  186.6510  177.3450  145.4370 C   0  0  0  0  0  2  0  0  0  0  0  0
  190.6650  177.9990  144.9040 N   0  0  0  0  0  2  0  0  0  0  0  0
  187.3150  177.5830  146.6830 C   0  0  0  0  0  3  0  0  0  0  0  0
  191.0530  176.6290  136.7530 C   0  0  0  0  0  2  0  0  0  0  0  0
  191.1460  175.1810  136.6880 N   0  0  0  0  0  2  0  0  0  0  0  0
  192.0620  174.7670  137.7360 C   0  0  0  0  0  2  0  0  0  0  0  0
  193.4640  175.2330  137.3970 C   0  0  1  0  0  3  0  0  0  0  0  0
  193.9290  176.0650  138.4150 O   0  0  0  0  0  1  0  0  0  0  0  0
  194.3830  174.0270  137.2550 C   0  0  0  0  0  2  0  0  0  0  0  0
  195.3850  173.9630  138.3990 C   0  0  1  0  0  3  0  0  0  0  0  0
  195.2300  172.7640  139.0980 O   0  0  0  0  0  1  0  0  0  0  0  0
  197.4080  175.2260  138.2550 O   0  0  0  0  0  1  0  0  0  0  0  0
  196.7990  174.0370  137.8490 C   0  0  0  0  0  2  0  0  0  0  0  0
  1  9  1  0  0  0  0
  2 22  1  1  0  0  0
  2  5  1  0  0  0  0
  2  3  1  0  0  0  0
  3  1  1  1  0  0  0
  3  6  1  0  0  0  0
  3  4  1  0  0  0  0
  4  8  1  6  0  0  0
  4 10  1  0  0  0  0
  6  5  1  6  0  0  0
  6  9  1  0  0  0  0
  6  4  1  0  0  0  0
  9  7  2  0  0  0  0
 10 13  1  0  0  0  0
 11 12  2  0  0  0  0
 13 11  1  0  0  0  0
 14 15  1  0  0  0  0
 15 18  1  6  0  0  0
 16 14  2  0  0  0  0
 16 19  1  0  0  0  0
 17 11  1  1  0  0  0
 17 14  1  0  0  0  0
 17 20  1  0  0  0  0
 17 15  1  0  0  0  0
 19 21  1  0  0  0  0
 20 15  1  0  0  0  0
 21 18  2  0  0  0  0
 23 22  1  0  0  0  0
 23 24  1  0  0  0  0
 25 24  1  0  0  0  0
 25 26  1  1  0  0  0
 27 25  1  0  0  0  0
 27 28  1  0  0  0  0
 28 29  1  6  0  0  0
 31 30  1  0  0  0  0
 31 28  1  0  0  0  0
M  END
>  <MODEL>
3

>  <REMARK>
 VINA RESULT:      -7.1      3.010      6.640
  Name = 
  10 active torsions:
  status: ('A' for Active; 'I' for Inactive)
    1  A    between atoms: C_2  and  C_14
    2  A    between atoms: C_3  and  C_18
    3  A    between atoms: C_3  and  C_30
    4  A    between atoms: C_4  and  C_27
    5  A    between atoms: C_9  and  C_10
    6  A    between atoms: C_10  and  N_25
    7  A    between atoms: C_13  and  C_18
    8  A    between atoms: C_13  and  C_26
    9  A    between atoms: N_19  and  C_27
   10  A    between atoms: N_19  and  C_30
                            x       y       z     vdW  Elec       q    Type
                         _______ _______ _______ _____ _____    ______ ____

>  <TORSDO>
F 10

$$$$
=
 OpenBabel10222415303D

 31 36  0  0  1  0  0  0  0  0999 V2000
  187.7890  175.5750  137.5240 O   0  0  0  0  0  0  0  0  0  0  0  0
  189.9120  176.7200  138.1410 C   0  0  1  0  0  3  0  0  0  0  0  0
  188.3860  176.6260  138.2800 C   0  0  2  0  0  0  0  0  0  0  0  0
  187.5590  177.8790  138.4760 C   0  0  2  0  0  0  0  0  0  0  0  0
  189.7320  177.7350  137.0510 C   0  0  0  0  0  2  0  0  0  0  0  0
  188.2140  177.5830  137.1540 C   0  0  1  0  0  0  0  0  0  0  0  0
  187.1910  176.3010  135.2080 O   0  0  0  0  0  0  0  0  0  0  0  0
  188.1580  178.8960  139.2260 O   0  0  0  0  0  1  0  0  0  0  0  0
  187.6340  176.4450  136.3790 C   0  0  0  0  0  0  0  0  0  0  0  0
  186.0520  177.7080  138.6000 C   0  0  0  0  0  2  0  0  0  0  0  0
  184.1920  179.3080  139.1940 C   0  0  0  0  0  0  0  0  0  0  0  0
  183.6960  180.4990  139.1030 N   0  0  0  0  0  2  0  0  0  0  0  0
  185.3940  179.0000  138.4850 N   0  0  0  0  0  2  0  0  0  0  0  0
  184.0200  178.3990  141.4500 C   0  0  0  0  0  0  0  0  0  0  0  0
  182.6960  178.7000  141.8050 C   0  0  1  0  0  0  0  0  0  0  0  0
  185.0550  178.3260  142.3630 C   0  0  0  0  0  3  0  0  0  0  0  0
  183.5570  178.2800  140.0990 C   0  0  1  0  0  0  0  0  0  0  0  0
  182.2890  178.9590  143.1000 C   0  0  0  0  0  3  0  0  0  0  0  0
  184.6770  178.5850  143.7050 C   0  0  0  0  0  2  0  0  0  0  0  0
  182.2180  178.6250  140.4230 N   0  0  0  0  0  2  0  0  0  0  0  0
  183.3260  178.8960  144.0640 C   0  0  0  0  0  3  0  0  0  0  0  0
  190.5770  177.3350  139.3670 C   0  0  0  0  0  2  0  0  0  0  0  0
  190.3370  176.4900  140.5240 N   0  0  0  0  0  2  0  0  0  0  0  0
  191.0500  177.0870  141.6390 C   0  0  0  0  0  2  0  0  0  0  0  0
  190.4310  176.6250  142.9440 C   0  0  1  0  0  3  0  0  0  0  0  0
  191.4310  176.1150  143.7710 O   0  0  0  0  0  1  0  0  0  0  0  0
  189.7440  177.8000  143.6280 C   0  0  0  0  0  2  0  0  0  0  0  0
  188.2900  177.4770  143.9430 C   0  0  1  0  0  3  0  0  0  0  0  0
  187.9590  176.2250  143.4210 O   0  0  0  0  0  1  0  0  0  0  0  0
  189.2850  177.7350  146.1010 O   0  0  0  0  0  1  0  0  0  0  0  0
  188.0820  177.4580  145.4480 C   0  0  0  0  0  2  0  0  0  0  0  0
  2  3  1  0  0  0  0
  2 22  1  1  0  0  0
  3  1  1  6  0  0  0
  3  4  1  0  0  0  0
  4 10  1  0  0  0  0
  4  8  1  1  0  0  0
  5  2  1  0  0  0  0
  6  5  1  6  0  0  0
  6  3  1  0  0  0  0
  6  4  1  0  0  0  0
  7  9  2  0  0  0  0
  9  6  1  0  0  0  0
  9  1  1  0  0  0  0
 12 11  2  0  0  0  0
 13 10  1  0  0  0  0
 13 11  1  0  0  0  0
 14 15  1  0  0  0  0
 14 16  2  0  0  0  0
 15 18  1  1  0  0  0
 16 19  1  0  0  0  0
 17 11  1  6  0  0  0
 17 20  1  0  0  0  0
 17 14  1  0  0  0  0
 17 15  1  0  0  0  0
 18 21  2  0  0  0  0
 19 21  1  0  0  0  0
 20 15  1  0  0  0  0
 22 23  1  0  0  0  0
 23 24  1  0  0  0  0
 24 25  1  0  0  0  0
 25 27  1  0  0  0  0
 25 26  1  1  0  0  0
 27 28  1  0  0  0  0
 28 29  1  1  0  0  0
 28 31  1  0  0  0  0
 31 30  1  0  0  0  0
M  END
>  <MODEL>
4

>  <REMARK>
 VINA RESULT:      -7.0      2.263      5.710
  Name = 
  10 active torsions:
  status: ('A' for Active; 'I' for Inactive)
    1  A    between atoms: C_2  and  C_14
    2  A    between atoms: C_3  and  C_18
    3  A    between atoms: C_3  and  C_30
    4  A    between atoms: C_4  and  C_27
    5  A    between atoms: C_9  and  C_10
    6  A    between atoms: C_10  and  N_25
    7  A    between atoms: C_13  and  C_18
    8  A    between atoms: C_13  and  C_26
    9  A    between atoms: N_19  and  C_27
   10  A    between atoms: N_19  and  C_30
                            x       y       z     vdW  Elec       q    Type
                         _______ _______ _______ _____ _____    ______ ____

>  <TORSDO>
F 10

$$$$
=
 OpenBabel10222415303D

 31 36  0  0  1  0  0  0  0  0999 V2000
  190.0860  175.7890  142.2500 O   0  0  0  0  0  0  0  0  0  0  0  0
  188.4560  176.9670  143.7180 C   0  0  1  0  0  3  0  0  0  0  0  0
  188.9770  176.6830  142.3020 C   0  0  2  0  0  0  0  0  0  0  0  0
  188.9180  177.7590  141.2380 C   0  0  2  0  0  0  0  0  0  0  0  0
  189.3230  178.1900  143.7730 C   0  0  0  0  0  2  0  0  0  0  0  0
  189.8830  177.8600  142.3890 C   0  0  1  0  0  0  0  0  0  0  0  0
  192.2720  176.9840  142.4450 O   0  0  0  0  0  0  0  0  0  0  0  0
  187.8200  178.6230  141.3020 O   0  0  0  0  0  1  0  0  0  0  0  0
  191.0180  176.8880  142.3750 C   0  0  0  0  0  0  0  0  0  0  0  0
  189.4580  177.4070  139.8600 C   0  0  0  0  0  2  0  0  0  0  0  0
  188.3250  178.3630  137.8170 C   0  0  0  0  0  0  0  0  0  0  0  0
  188.0900  179.3940  137.0710 N   0  0  0  0  0  2  0  0  0  0  0  0
  189.2060  178.5000  138.9330 N   0  0  0  0  0  2  0  0  0  0  0  0
  186.2100  177.2370  137.3700 C   0  0  0  0  0  0  0  0  0  0  0  0
  186.3910  176.7440  136.0680 C   0  0  1  0  0  0  0  0  0  0  0  0
  184.9810  177.6150  137.8770 C   0  0  0  0  0  3  0  0  0  0  0  0
  187.6190  177.0550  137.5600 C   0  0  1  0  0  0  0  0  0  0  0  0
  185.3630  176.5890  135.1570 C   0  0  0  0  0  3  0  0  0  0  0  0
  183.8990  177.4700  136.9710 C   0  0  0  0  0  2  0  0  0  0  0  0
  187.8370  176.5940  136.2340 N   0  0  0  0  0  2  0  0  0  0  0  0
  184.0870  176.9700  135.6430 C   0  0  0  0  0  3  0  0  0  0  0  0
  186.9770  177.3340  143.7380 C   0  0  0  0  0  2  0  0  0  0  0  0
  186.4180  177.0260  145.0430 N   0  0  0  0  0  2  0  0  0  0  0  0
  185.7560  178.2290  145.5150 C   0  0  0  0  0  2  0  0  0  0  0  0
  186.5690  178.8510  146.6330 C   0  0  1  0  0  3  0  0  0  0  0  0
  185.7230  179.5920  147.4570 O   0  0  0  0  0  1  0  0  0  0  0  0
  187.2490  177.7540  147.4420 C   0  0  0  0  0  2  0  0  0  0  0  0
  188.7470  178.0010  147.5510 C   0  0  1  0  0  3  0  0  0  0  0  0
  189.0640  178.4260  148.8430 O   0  0  0  0  0  1  0  0  0  0  0  0
  190.8790  176.9500  147.3100 O   0  0  0  0  0  1  0  0  0  0  0  0
  189.5030  176.7190  147.2510 C   0  0  0  0  0  2  0  0  0  0  0  0
  1  9  1  0  0  0  0
  2 22  1  6  0  0  0
  2  5  1  0  0  0  0
  3  1  1  6  0  0  0
  3  6  1  0  0  0  0
  3  2  1  0  0  0  0
  4  8  1  1  0  0  0
  4  3  1  0  0  0  0
  4  6  1  0  0  0  0
  6  5  1  1  0  0  0
  9  6  1  0  0  0  0
  9  7  2  0  0  0  0
 10  4  1  0  0  0  0
 11 13  1  0  0  0  0
 12 11  2  0  0  0  0
 13 10  1  0  0  0  0
 14 17  1  0  0  0  0
 14 16  2  0  0  0  0
 15 18  1  1  0  0  0
 15 20  1  0  0  0  0
 15 14  1  0  0  0  0
 15 17  1  0  0  0  0
 17 11  1  6  0  0  0
 18 21  2  0  0  0  0
 19 16  1  0  0  0  0
 20 17  1  0  0  0  0
 21 19  1  0  0  0  0
 22 23  1  0  0  0  0
 23 24  1  0  0  0  0
 24 25  1  0  0  0  0
 25 27  1  0  0  0  0
 25 26  1  1  0  0  0
 27 28  1  0  0  0  0
 28 29  1  1  0  0  0
 31 30  1  0  0  0  0
 31 28  1  0  0  0  0
M  END
>  <MODEL>
5

>  <REMARK>
 VINA RESULT:      -6.9      3.137      7.071
  Name = 
  10 active torsions:
  status: ('A' for Active; 'I' for Inactive)
    1  A    between atoms: C_2  and  C_14
    2  A    between atoms: C_3  and  C_18
    3  A    between atoms: C_3  and  C_30
    4  A    between atoms: C_4  and  C_27
    5  A    between atoms: C_9  and  C_10
    6  A    between atoms: C_10  and  N_25
    7  A    between atoms: C_13  and  C_18
    8  A    between atoms: C_13  and  C_26
    9  A    between atoms: N_19  and  C_27
   10  A    between atoms: N_19  and  C_30
                            x       y       z     vdW  Elec       q    Type
                         _______ _______ _______ _____ _____    ______ ____

>  <TORSDO>
F 10

$$$$
=
 OpenBabel10222415303D

 31 36  0  0  1  0  0  0  0  0999 V2000
  191.7540  176.9650  138.3050 O   0  0  0  0  0  0  0  0  0  0  0  0
  189.6020  177.8710  137.4390 C   0  0  1  0  0  3  0  0  0  0  0  0
  190.4730  177.4900  138.6450 C   0  0  2  0  0  0  0  0  0  0  0  0
  189.8330  176.9600  139.9110 C   0  0  2  0  0  0  0  0  0  0  0  0
  188.9580  176.5180  137.5000 C   0  0  0  0  0  2  0  0  0  0  0  0
  189.8770  176.1270  138.6580 C   0  0  1  0  0  0  0  0  0  0  0  0
  191.7040  174.4860  137.9910 O   0  0  0  0  0  0  0  0  0  0  0  0
  188.5800  177.4920  140.2320 O   0  0  0  0  0  1  0  0  0  0  0  0
  191.2240  175.6200  138.2590 C   0  0  0  0  0  0  0  0  0  0  0  0
  190.7610  176.5980  141.0620 C   0  0  0  0  0  2  0  0  0  0  0  0
  190.4600  178.0190  143.1260 C   0  0  0  0  0  0  0  0  0  0  0  0
  190.8210  179.0580  143.8090 N   0  0  0  0  0  2  0  0  0  0  0  0
  191.0590  177.7840  141.8510 N   0  0  0  0  0  2  0  0  0  0  0  0
  189.3100  177.2020  145.1150 C   0  0  0  0  0  0  0  0  0  0  0  0
  187.9690  177.5140  144.8470 C   0  0  1  0  0  0  0  0  0  0  0  0
  189.8450  177.1680  146.3890 C   0  0  0  0  0  3  0  0  0  0  0  0
  189.4790  177.0270  143.7020 C   0  0  1  0  0  0  0  0  0  0  0  0
  187.0440  177.8250  145.8270 C   0  0  0  0  0  3  0  0  0  0  0  0
  188.9250  177.4800  147.4230 C   0  0  0  0  0  2  0  0  0  0  0  0
  188.1380  177.3830  143.3990 N   0  0  0  0  0  2  0  0  0  0  0  0
  187.5580  177.8020  147.1470 C   0  0  0  0  0  3  0  0  0  0  0  0
  188.6030  178.9760  137.7610 C   0  0  0  0  0  2  0  0  0  0  0  0
  187.3500  178.7130  137.0750 N   0  0  0  0  0  2  0  0  0  0  0  0
  186.3940  178.2960  138.0850 C   0  0  0  0  0  2  0  0  0  0  0  0
  185.0980  177.8830  137.4170 C   0  0  1  0  0  3  0  0  0  0  0  0
  185.1400  176.5170  137.1410 O   0  0  0  0  0  1  0  0  0  0  0  0
  183.9260  178.1880  138.3420 C   0  0  0  0  0  2  0  0  0  0  0  0
  184.3480  179.1110  139.4760 C   0  0  1  0  0  3  0  0  0  0  0  0
  184.1730  180.4430  139.0930 O   0  0  0  0  0  1  0  0  0  0  0  0
  183.6950  177.5170  141.1320 O   0  0  0  0  0  1  0  0  0  0  0  0
  183.5040  178.8330  140.7070 C   0  0  0  0  0  2  0  0  0  0  0  0
  2  5  1  0  0  0  0
  2 22  1  1  0  0  0
  2  3  1  0  0  0  0
  3  1  1  6  0  0  0
  3  6  1  0  0  0  0
  3  4  1  0  0  0  0
  4  8  1  1  0  0  0
  4 10  1  0  0  0  0
  6  5  1  6  0  0  0
  6  4  1  0  0  0  0
  7  9  2  0  0  0  0
  9  1  1  0  0  0  0
  9  6  1  0  0  0  0
 10 13  1  0  0  0  0
 11 12  2  0  0  0  0
 13 11  1  0  0  0  0
 14 16  2  0  0  0  0
 15 14  1  0  0  0  0
 15 18  1  1  0  0  0
 16 19  1  0  0  0  0
 17 11  1  6  0  0  0
 17 15  1  0  0  0  0
 17 14  1  0  0  0  0
 18 21  2  0  0  0  0
 20 17  1  0  0  0  0
 20 15  1  0  0  0  0
 21 19  1  0  0  0  0
 23 22  1  0  0  0  0
 23 24  1  0  0  0  0
 25 26  1  1  0  0  0
 25 24  1  0  0  0  0
 25 27  1  0  0  0  0
 27 28  1  0  0  0  0
 28 29  1  6  0  0  0
 28 31  1  0  0  0  0
 31 30  1  0  0  0  0
M  END
>  <MODEL>
6

>  <REMARK>
 VINA RESULT:      -6.7      1.527      2.358
  Name = 
  10 active torsions:
  status: ('A' for Active; 'I' for Inactive)
    1  A    between atoms: C_2  and  C_14
    2  A    between atoms: C_3  and  C_18
    3  A    between atoms: C_3  and  C_30
    4  A    between atoms: C_4  and  C_27
    5  A    between atoms: C_9  and  C_10
    6  A    between atoms: C_10  and  N_25
    7  A    between atoms: C_13  and  C_18
    8  A    between atoms: C_13  and  C_26
    9  A    between atoms: N_19  and  C_27
   10  A    between atoms: N_19  and  C_30
                            x       y       z     vdW  Elec       q    Type
                         _______ _______ _______ _____ _____    ______ ____

>  <TORSDO>
F 10

$$$$
=
 OpenBabel10222415303D

 31 36  0  0  1  0  0  0  0  0999 V2000
  186.4670  176.5460  137.9910 O   0  0  0  0  0  0  0  0  0  0  0  0
  187.6440  176.8630  135.8210 C   0  0  1  0  0  3  0  0  0  0  0  0
  187.6790  176.9410  137.3530 C   0  0  2  0  0  0  0  0  0  0  0  0
  188.4950  178.0130  138.0440 C   0  0  2  0  0  0  0  0  0  0  0  0
  187.2590  178.3120  135.7740 C   0  0  0  0  0  2  0  0  0  0  0  0
  187.2330  178.3590  137.3020 C   0  0  1  0  0  0  0  0  0  0  0  0
  184.8820  178.4580  138.2710 O   0  0  0  0  0  0  0  0  0  0  0  0
  189.6840  178.3820  137.4080 O   0  0  0  0  0  1  0  0  0  0  0  0
  185.9580  177.8990  137.9320 C   0  0  0  0  0  0  0  0  0  0  0  0
  188.4760  178.0310  139.5660 C   0  0  0  0  0  2  0  0  0  0  0  0
  189.8590  177.0110  141.4150 C   0  0  0  0  0  0  0  0  0  0  0  0
  190.5600  176.0090  141.8400 N   0  0  0  0  0  2  0  0  0  0  0  0
  189.3360  176.9780  140.0860 N   0  0  0  0  0  2  0  0  0  0  0  0
  188.4820  177.8290  143.2540 C   0  0  0  0  0  0  0  0  0  0  0  0
  189.4180  178.0130  144.2830 C   0  0  1  0  0  0  0  0  0  0  0  0
  187.1620  177.4860  143.4760 C   0  0  0  0  0  3  0  0  0  0  0  0
  189.5320  178.1610  142.3350 C   0  0  1  0  0  0  0  0  0  0  0  0
  189.1200  177.8660  145.6250 C   0  0  0  0  0  3  0  0  0  0  0  0
  186.8170  177.3270  144.8430 C   0  0  0  0  0  2  0  0  0  0  0  0
  190.5090  178.3110  143.3540 N   0  0  0  0  0  2  0  0  0  0  0  0
  187.7740  177.5110  145.8920 C   0  0  0  0  0  3  0  0  0  0  0  0
  189.0230  176.6360  135.2120 C   0  0  0  0  0  2  0  0  0  0  0  0
  189.5090  175.3200  135.5880 N   0  0  0  0  0  2  0  0  0  0  0  0
  190.9380  175.4440  135.8100 C   0  0  0  0  0  2  0  0  0  0  0  0
  191.2390  175.2860  137.2880 C   0  0  1  0  0  3  0  0  0  0  0  0
  190.2640  174.4750  137.8690 O   0  0  0  0  0  1  0  0  0  0  0  0
  192.6120  174.6520  137.4650 C   0  0  0  0  0  2  0  0  0  0  0  0
  193.6280  175.6740  137.9580 C   0  0  1  0  0  3  0  0  0  0  0  0
  194.3050  176.2310  136.8710 O   0  0  0  0  0  1  0  0  0  0  0  0
  193.6550  177.1290  139.8530 O   0  0  0  0  0  1  0  0  0  0  0  0
  192.9180  176.7790  138.7200 C   0  0  0  0  0  2  0  0  0  0  0  0
  2 22  1  6  0  0  0
  2  3  1  0  0  0  0
  3  1  1  1  0  0  0
  3  4  1  0  0  0  0
  4  8  1  6  0  0  0
  4 10  1  0  0  0  0
  5  2  1  0  0  0  0
  6  5  1  6  0  0  0
  6  3  1  0  0  0  0
  6  9  1  0  0  0  0
  6  4  1  0  0  0  0
  9  1  1  0  0  0  0
  9  7  2  0  0  0  0
 10 13  1  0  0  0  0
 11 12  2  0  0  0  0
 13 11  1  0  0  0  0
 14 16  2  0  0  0  0
 14 15  1  0  0  0  0
 15 18  1  1  0  0  0
 16 19  1  0  0  0  0
 17 11  1  6  0  0  0
 17 14  1  0  0  0  0
 17 20  1  0  0  0  0
 17 15  1  0  0  0  0
 18 21  2  0  0  0  0
 19 21  1  0  0  0  0
 20 15  1  0  0  0  0
 22 23  1  0  0  0  0
 23 24  1  0  0  0  0
 24 25  1  0  0  0  0
 25 27  1  0  0  0  0
 25 26  1  6  0  0  0
 27 28  1  0  0  0  0
 28 29  1  6  0  0  0
 28 31  1  0  0  0  0
 31 30  1  0  0  0  0
M  END
>  <MODEL>
7

>  <REMARK>
 VINA RESULT:      -6.7      2.124      5.452
  Name = 
  10 active torsions:
  status: ('A' for Active; 'I' for Inactive)
    1  A    between atoms: C_2  and  C_14
    2  A    between atoms: C_3  and  C_18
    3  A    between atoms: C_3  and  C_30
    4  A    between atoms: C_4  and  C_27
    5  A    between atoms: C_9  and  C_10
    6  A    between atoms: C_10  and  N_25
    7  A    between atoms: C_13  and  C_18
    8  A    between atoms: C_13  and  C_26
    9  A    between atoms: N_19  and  C_27
   10  A    between atoms: N_19  and  C_30
                            x       y       z     vdW  Elec       q    Type
                         _______ _______ _______ _____ _____    ______ ____

>  <TORSDO>
F 10

$$$$
=
 OpenBabel10222415303D

 31 36  0  0  1  0  0  0  0  0999 V2000
  188.8810  175.9690  137.8150 O   0  0  0  0  0  0  0  0  0  0  0  0
  190.0860  176.7250  139.8580 C   0  0  1  0  0  3  0  0  0  0  0  0
  188.7810  176.6710  139.0520 C   0  0  2  0  0  0  0  0  0  0  0  0
  187.8050  177.8270  139.1030 C   0  0  2  0  0  0  0  0  0  0  0  0
  190.3930  178.0560  139.2380 C   0  0  0  0  0  2  0  0  0  0  0  0
  189.1240  177.9590  138.3910 C   0  0  1  0  0  0  0  0  0  0  0  0
  189.5800  177.4630  135.9370 O   0  0  0  0  0  0  0  0  0  0  0  0
  187.7150  178.4990  140.3250 O   0  0  0  0  0  1  0  0  0  0  0  0
  189.2620  177.1810  137.1230 C   0  0  0  0  0  0  0  0  0  0  0  0
  186.5350  177.7040  138.2720 C   0  0  0  0  0  2  0  0  0  0  0  0
  184.6630  179.2350  138.9970 C   0  0  0  0  0  0  0  0  0  0  0  0
  184.1360  180.4160  138.9690 N   0  0  0  0  0  2  0  0  0  0  0  0
  185.8430  178.9830  138.2310 N   0  0  0  0  0  2  0  0  0  0  0  0
  184.1870  178.5050  141.2740 C   0  0  0  0  0  0  0  0  0  0  0  0
  182.7850  178.4900  141.3070 C   0  0  1  0  0  0  0  0  0  0  0  0
  184.9730  178.7720  142.3790 C   0  0  0  0  0  3  0  0  0  0  0  0
  184.0880  178.1600  139.8860 C   0  0  1  0  0  0  0  0  0  0  0  0
  182.0420  178.7460  142.4450 C   0  0  0  0  0  3  0  0  0  0  0  0
  184.2470  179.0390  143.5680 C   0  0  0  0  0  2  0  0  0  0  0  0
  182.6680  178.1810  139.8810 N   0  0  0  0  0  2  0  0  0  0  0  0
  182.8160  179.0280  143.5990 C   0  0  0  0  0  3  0  0  0  0  0  0
  189.8460  176.8550  141.3580 C   0  0  0  0  0  2  0  0  0  0  0  0
  190.6160  177.9710  141.8780 N   0  0  0  0  0  2  0  0  0  0  0  0
  191.6350  177.4130  142.7480 C   0  0  0  0  0  2  0  0  0  0  0  0
  191.5020  178.0110  144.1350 C   0  0  1  0  0  3  0  0  0  0  0  0
  190.9630  179.2930  144.0310 O   0  0  0  0  0  1  0  0  0  0  0  0
  190.5910  177.1350  144.9850 C   0  0  0  0  0  2  0  0  0  0  0  0
  191.0890  177.0560  146.4210 C   0  0  1  0  0  3  0  0  0  0  0  0
  190.0150  176.8220  147.2830 O   0  0  0  0  0  1  0  0  0  0  0  0
  191.7940  175.1540  147.6840 O   0  0  0  0  0  1  0  0  0  0  0  0
  192.0910  175.9240  146.5570 C   0  0  0  0  0  2  0  0  0  0  0  0
  2 22  1  1  0  0  0
  3  1  1  6  0  0  0
  3  4  1  0  0  0  0
  3  2  1  0  0  0  0
  4  8  1  1  0  0  0
  5  2  1  0  0  0  0
  6  3  1  0  0  0  0
  6  4  1  0  0  0  0
  6  5  1  1  0  0  0
  7  9  2  0  0  0  0
  9  1  1  0  0  0  0
  9  6  1  0  0  0  0
 10  4  1  0  0  0  0
 12 11  2  0  0  0  0
 13 10  1  0  0  0  0
 13 11  1  0  0  0  0
 14 15  1  0  0  0  0
 14 16  2  0  0  0  0
 15 18  1  1  0  0  0
 16 19  1  0  0  0  0
 17 11  1  6  0  0  0
 17 14  1  0  0  0  0
 17 15  1  0  0  0  0
 18 21  2  0  0  0  0
 19 21  1  0  0  0  0
 20 17  1  0  0  0  0
 20 15  1  0  0  0  0
 22 23  1  0  0  0  0
 23 24  1  0  0  0  0
 24 25  1  0  0  0  0
 25 26  1  6  0  0  0
 25 27  1  0  0  0  0
 27 28  1  0  0  0  0
 28 31  1  0  0  0  0
 28 29  1  1  0  0  0
 31 30  1  0  0  0  0
M  END
>  <MODEL>
8

>  <REMARK>
 VINA RESULT:      -6.6      2.852      6.398
  Name = 
  10 active torsions:
  status: ('A' for Active; 'I' for Inactive)
    1  A    between atoms: C_2  and  C_14
    2  A    between atoms: C_3  and  C_18
    3  A    between atoms: C_3  and  C_30
    4  A    between atoms: C_4  and  C_27
    5  A    between atoms: C_9  and  C_10
    6  A    between atoms: C_10  and  N_25
    7  A    between atoms: C_13  and  C_18
    8  A    between atoms: C_13  and  C_26
    9  A    between atoms: N_19  and  C_27
   10  A    between atoms: N_19  and  C_30
                            x       y       z     vdW  Elec       q    Type
                         _______ _______ _______ _____ _____    ______ ____

>  <TORSDO>
F 10

$$$$
=
 OpenBabel10222415303D

 31 36  0  0  1  0  0  0  0  0999 V2000
  191.4700  178.5590  144.3160 O   0  0  0  0  0  0  0  0  0  0  0  0
  191.4090  177.1760  142.2470 C   0  0  1  0  0  3  0  0  0  0  0  0
  190.6420  177.9370  143.3370 C   0  0  2  0  0  0  0  0  0  0  0  0
  189.2880  177.4430  143.8040 C   0  0  2  0  0  0  0  0  0  0  0  0
  191.2520  175.9140  143.0430 C   0  0  0  0  0  2  0  0  0  0  0  0
  190.5470  176.6960  144.1520 C   0  0  1  0  0  0  0  0  0  0  0  0
  191.9860  177.0300  146.2250 O   0  0  0  0  0  0  0  0  0  0  0  0
  188.4870  176.8420  142.8290 O   0  0  0  0  0  1  0  0  0  0  0  0
  191.4530  177.3660  145.1340 C   0  0  0  0  0  0  0  0  0  0  0  0
  188.5910  178.2460  144.8920 C   0  0  0  0  0  2  0  0  0  0  0  0
  186.4570  177.6310  146.0920 C   0  0  0  0  0  0  0  0  0  0  0  0
  185.8030  176.7650  146.7980 N   0  0  0  0  0  2  0  0  0  0  0  0
  187.8160  177.3580  145.7460 N   0  0  0  0  0  2  0  0  0  0  0  0
  185.2370  178.6790  144.2600 C   0  0  0  0  0  0  0  0  0  0  0  0
  183.9690  178.8990  144.8180 C   0  0  1  0  0  0  0  0  0  0  0  0
  185.4450  178.4300  142.9170 C   0  0  0  0  0  3  0  0  0  0  0  0
  185.7730  178.8730  145.5750 C   0  0  1  0  0  0  0  0  0  0  0  0
  182.7960  178.8850  144.0870 C   0  0  0  0  0  3  0  0  0  0  0  0
  184.2640  178.4090  142.1310 C   0  0  0  0  0  2  0  0  0  0  0  0
  184.4980  179.0550  146.1740 N   0  0  0  0  0  2  0  0  0  0  0  0
  182.9710  178.6290  142.7030 C   0  0  0  0  0  3  0  0  0  0  0  0
  190.6410  177.1010  140.9320 C   0  0  0  0  0  2  0  0  0  0  0  0
  191.5770  177.1290  139.8220 N   0  0  0  0  0  2  0  0  0  0  0  0
  190.8610  176.6520  138.6520 C   0  0  0  0  0  2  0  0  0  0  0  0
  191.7280  175.6690  137.8910 C   0  0  1  0  0  3  0  0  0  0  0  0
  191.0280  175.2050  136.7780 O   0  0  0  0  0  1  0  0  0  0  0  0
  193.0110  176.3580  137.4440 C   0  0  0  0  0  2  0  0  0  0  0  0
  194.0850  175.3400  137.0880 C   0  0  1  0  0  3  0  0  0  0  0  0
  195.1760  175.9870  136.5040 O   0  0  0  0  0  1  0  0  0  0  0  0
  195.9360  174.7190  138.4670 O   0  0  0  0  0  1  0  0  0  0  0  0
  194.5490  174.6210  138.3430 C   0  0  0  0  0  2  0  0  0  0  0  0
  1  9  1  0  0  0  0
  2 22  1  6  0  0  0
  2  5  1  0  0  0  0
  2  3  1  0  0  0  0
  3  4  1  0  0  0  0
  3  6  1  0  0  0  0
  3  1  1  1  0  0  0
  4  8  1  6  0  0  0
  4  6  1  0  0  0  0
  4 10  1  0  0  0  0
  6  5  1  6  0  0  0
  6  9  1  0  0  0  0
  9  7  2  0  0  0  0
 10 13  1  0  0  0  0
 11 12  2  0  0  0  0
 13 11  1  0  0  0  0
 14 15  1  0  0  0  0
 14 17  1  0  0  0  0
 15 18  1  6  0  0  0
 15 17  1  0  0  0  0
 15 20  1  0  0  0  0
 16 14  2  0  0  0  0
 17 11  1  1  0  0  0
 17 20  1  0  0  0  0
 19 21  1  0  0  0  0
 19 16  1  0  0  0  0
 21 18  2  0  0  0  0
 23 22  1  0  0  0  0
 24 23  1  0  0  0  0
 25 26  1  6  0  0  0
 25 24  1  0  0  0  0
 27 25  1  0  0  0  0
 28 29  1  1  0  0  0
 28 27  1  0  0  0  0
 28 31  1  0  0  0  0
 31 30  1  0  0  0  0
M  END
>  <MODEL>
9

>  <REMARK>
 VINA RESULT:      -6.5      3.311      7.539
  Name = 
  10 active torsions:
  status: ('A' for Active; 'I' for Inactive)
    1  A    between atoms: C_2  and  C_14
    2  A    between atoms: C_3  and  C_18
    3  A    between atoms: C_3  and  C_30
    4  A    between atoms: C_4  and  C_27
    5  A    between atoms: C_9  and  C_10
    6  A    between atoms: C_10  and  N_25
    7  A    between atoms: C_13  and  C_18
    8  A    between atoms: C_13  and  C_26
    9  A    between atoms: N_19  and  C_27
   10  A    between atoms: N_19  and  C_30
                            x       y       z     vdW  Elec       q    Type
                         _______ _______ _______ _____ _____    ______ ____

>  <TORSDO>
F 10

$$$$
