=
 OpenBabel10222416333D

 32 35  0  0  1  0  0  0  0  0999 V2000
  190.4560  176.0160  142.5010 O   0  0  0  0  0  1  0  0  0  0  0  0
  189.7460  177.4560  140.6800 C   0  0  0  0  0  0  0  0  0  0  0  0
  188.8090  178.3740  140.1650 C   0  0  0  0  0  0  0  0  0  0  0  0
  189.0250  179.0150  138.9510 O   0  0  0  0  0  1  0  0  0  0  0  0
  189.4890  176.8330  141.9210 C   0  0  0  0  0  0  0  0  0  0  0  0
  188.2740  177.0770  142.5980 C   0  0  0  0  0  0  0  0  0  0  0  0
  187.6340  178.6460  140.8670 C   0  0  0  0  0  3  0  0  0  0  0  0
  187.3690  178.0010  142.0740 C   0  0  0  0  0  3  0  0  0  0  0  0
  190.9360  176.4190  138.7080 N   0  0  0  0  0  0  0  0  0  0  0  0
  191.5810  175.7750  137.5360 C   0  0  2  0  0  0  0  0  0  0  0  0
  192.1370  176.7190  136.6730 O   0  0  0  0  0  1  0  0  0  0  0  0
  190.9860  177.1550  139.9290 C   0  0  0  0  0  0  0  0  0  0  0  0
  190.2080  175.7250  137.5950 C   0  0  0  0  0  2  0  0  0  0  0  0
  192.0990  177.5700  140.3480 O   0  0  0  0  0  0  0  0  0  0  0  0
  192.4010  174.5550  137.9210 C   0  0  0  0  0  2  0  0  0  0  0  0
  194.1590  173.1740  136.7760 C   0  0  0  0  0  1  0  0  0  0  0  0
  193.7680  174.5680  137.2410 C   0  0  2  0  0  3  0  0  0  0  0  0
  194.8080  175.1690  138.0820 N   0  0  0  0  0  2  0  0  0  0  0  0
  195.4640  174.1550  138.9020 C   0  0  0  0  0  2  0  0  0  0  0  0
  197.2440  175.1150  140.3230 C   0  0  0  0  0  1  0  0  0  0  0  0
  196.9440  174.4590  138.9930 C   0  0  0  0  0  2  0  0  0  0  0  0
  187.9490  176.4450  143.8460 N   0  0  0  0  0  2  0  0  0  0  0  0
  188.0960  178.2510  148.0450 C   0  0  0  0  0  3  0  0  0  0  0  0
  188.1720  176.9760  145.1610 C   0  0  0  0  0  0  0  0  0  0  0  0
  185.8950  178.7300  147.3770 O   0  0  0  0  0  0  0  0  0  0  0  0
  187.1390  178.1900  147.1320 C   0  0  0  0  0  0  0  0  0  0  0  0
  187.1690  177.6060  145.8050 C   0  0  0  0  0  0  0  0  0  0  0  0
  185.0120  178.5640  146.2800 C   0  0  0  0  0  3  0  0  0  0  0  0
  189.4730  176.8210  145.6600 O   0  0  0  0  0  0  0  0  0  0  0  0
  190.0320  177.1380  146.9010 C   0  0  0  0  0  3  0  0  0  0  0  0
  189.4580  177.7430  147.9350 C   0  0  0  0  0  3  0  0  0  0  0  0
  185.8240  177.8520  145.1940 C   0  0  0  0  0  3  0  0  0  0  0  0
  2  5  1  0  0  0  0
  3  2  2  0  0  0  0
  3  7  1  0  0  0  0
  4  3  1  0  0  0  0
  5  1  1  0  0  0  0
  5  6  2  0  0  0  0
  6 22  1  0  0  0  0
  7  8  2  0  0  0  0
  8  6  1  0  0  0  0
  9 12  1  0  0  0  0
 10 11  1  6  0  0  0
 10 13  1  0  0  0  0
 10 15  1  0  0  0  0
 10  9  1  0  0  0  0
 12 14  2  0  0  0  0
 12  2  1  0  0  0  0
 13  9  1  0  0  0  0
 17 16  1  1  0  0  0
 17 15  1  0  0  0  0
 17 18  1  0  0  0  0
 18 19  1  0  0  0  0
 19 21  1  0  0  0  0
 21 20  1  0  0  0  0
 22 24  1  0  0  0  0
 24 29  1  0  0  0  0
 24 27  2  0  0  0  0
 26 25  1  0  0  0  0
 26 23  2  0  0  0  0
 27 26  1  0  0  0  0
 28 25  1  0  0  0  0
 29 30  1  0  0  0  0
 30 31  2  0  0  0  0
 31 23  1  0  0  0  0
 32 27  1  0  0  0  0
 32 28  2  0  0  0  0
M  END
>  <MODEL>
1

>  <REMARK>
 VINA RESULT:      -8.6      0.000      0.000
  Name = 
  8 active torsions:
  status: ('A' for Active; 'I' for Inactive)
    1  A    between atoms: N_1  and  C_13
    2  A    between atoms: N_1  and  C_30
    3  A    between atoms: C_3  and  C_8
    4  A    between atoms: C_3  and  C_30
    5  A    between atoms: C_5  and  C_22
    6  A    between atoms: C_10  and  N_24
    7  A    between atoms: C_13  and  C_23
    8  A    between atoms: C_21  and  N_24
                            x       y       z     vdW  Elec       q    Type
                         _______ _______ _______ _____ _____    ______ ____

>  <TORSDO>
F 8

$$$$
=
 OpenBabel10222416333D

 32 35  0  0  1  0  0  0  0  0999 V2000
  189.7510  177.2100  141.3770 O   0  0  0  0  0  1  0  0  0  0  0  0
  187.7160  178.1760  140.4730 C   0  0  0  0  0  0  0  0  0  0  0  0
  186.4030  178.6390  140.6900 C   0  0  0  0  0  0  0  0  0  0  0  0
  185.6810  179.2520  139.6720 O   0  0  0  0  0  1  0  0  0  0  0  0
  188.4150  177.5660  141.5370 C   0  0  0  0  0  0  0  0  0  0  0  0
  187.7760  177.3610  142.7790 C   0  0  0  0  0  0  0  0  0  0  0  0
  185.7980  178.4760  141.9360 C   0  0  0  0  0  3  0  0  0  0  0  0
  186.4800  177.8410  142.9720 C   0  0  0  0  0  3  0  0  0  0  0  0
  188.1840  177.3420  138.1350 N   0  0  0  0  0  0  0  0  0  0  0  0
  188.4380  176.7920  136.7790 C   0  0  2  0  0  0  0  0  0  0  0  0
  187.8380  177.5700  135.7890 O   0  0  0  0  0  1  0  0  0  0  0  0
  188.3540  178.3340  139.1450 C   0  0  0  0  0  0  0  0  0  0  0  0
  187.5960  176.0720  137.5940 C   0  0  0  0  0  2  0  0  0  0  0  0
  189.0330  179.3620  138.8860 O   0  0  0  0  0  0  0  0  0  0  0  0
  189.8790  176.3460  136.5930 C   0  0  0  0  0  2  0  0  0  0  0  0
  191.5970  176.3750  138.4240 C   0  0  0  0  0  1  0  0  0  0  0  0
  190.4040  175.6360  137.8390 C   0  0  2  0  0  3  0  0  0  0  0  0
  190.7100  174.2230  137.5940 N   0  0  0  0  0  2  0  0  0  0  0  0
  190.8580  173.9630  136.1640 C   0  0  0  0  0  2  0  0  0  0  0  0
  193.2180  173.4840  136.7170 C   0  0  0  0  0  1  0  0  0  0  0  0
  192.0100  173.0080  135.9400 C   0  0  0  0  0  2  0  0  0  0  0  0
  188.4290  176.7160  143.8840 N   0  0  0  0  0  2  0  0  0  0  0  0
  188.9530  177.9730  148.2500 C   0  0  0  0  0  3  0  0  0  0  0  0
  188.4150  177.1400  145.2560 C   0  0  0  0  0  0  0  0  0  0  0  0
  191.0810  177.1280  147.7200 O   0  0  0  0  0  0  0  0  0  0  0  0
  189.7790  177.4200  147.3740 C   0  0  0  0  0  0  0  0  0  0  0  0
  189.5370  177.0350  145.9970 C   0  0  0  0  0  0  0  0  0  0  0  0
  191.8010  176.5440  146.6470 C   0  0  0  0  0  3  0  0  0  0  0  0
  187.1800  177.6050  145.7290 O   0  0  0  0  0  0  0  0  0  0  0  0
  186.8100  178.1560  146.9600 C   0  0  0  0  0  3  0  0  0  0  0  0
  187.5540  178.3270  148.0460 C   0  0  0  0  0  3  0  0  0  0  0  0
  190.8080  176.4280  145.4880 C   0  0  0  0  0  3  0  0  0  0  0  0
  1  5  1  0  0  0  0
  2  3  2  0  0  0  0
  2  5  1  0  0  0  0
  3  7  1  0  0  0  0
  4  3  1  0  0  0  0
  5  6  2  0  0  0  0
  6  8  1  0  0  0  0
  6 22  1  0  0  0  0
  7  8  2  0  0  0  0
  9 12  1  0  0  0  0
 10 11  1  6  0  0  0
 10 13  1  0  0  0  0
 10  9  1  0  0  0  0
 12  2  1  0  0  0  0
 13  9  1  0  0  0  0
 14 12  2  0  0  0  0
 15 10  1  0  0  0  0
 15 17  1  0  0  0  0
 17 16  1  6  0  0  0
 18 17  1  0  0  0  0
 19 18  1  0  0  0  0
 21 19  1  0  0  0  0
 21 20  1  0  0  0  0
 22 24  1  0  0  0  0
 24 29  1  0  0  0  0
 24 27  2  0  0  0  0
 26 25  1  0  0  0  0
 26 23  2  0  0  0  0
 27 26  1  0  0  0  0
 28 25  1  0  0  0  0
 29 30  1  0  0  0  0
 30 31  2  0  0  0  0
 31 23  1  0  0  0  0
 32 27  1  0  0  0  0
 32 28  2  0  0  0  0
M  END
>  <MODEL>
2

>  <REMARK>
 VINA RESULT:      -8.3      2.215      3.562
  Name = 
  8 active torsions:
  status: ('A' for Active; 'I' for Inactive)
    1  A    between atoms: N_1  and  C_13
    2  A    between atoms: N_1  and  C_30
    3  A    between atoms: C_3  and  C_8
    4  A    between atoms: C_3  and  C_30
    5  A    between atoms: C_5  and  C_22
    6  A    between atoms: C_10  and  N_24
    7  A    between atoms: C_13  and  C_23
    8  A    between atoms: C_21  and  N_24
                            x       y       z     vdW  Elec       q    Type
                         _______ _______ _______ _____ _____    ______ ____

>  <TORSDO>
F 8

$$$$
=
 OpenBabel10222416333D

 32 35  0  0  1  0  0  0  0  0999 V2000
  188.5280  178.9130  140.3330 O   0  0  0  0  0  1  0  0  0  0  0  0
  189.8280  177.0450  139.4900 C   0  0  0  0  0  0  0  0  0  0  0  0
  190.0560  176.0990  138.4700 C   0  0  0  0  0  0  0  0  0  0  0  0
  191.1540  175.2470  138.5150 O   0  0  0  0  0  1  0  0  0  0  0  0
  188.7050  177.8960  139.3990 C   0  0  0  0  0  0  0  0  0  0  0  0
  187.7870  177.7470  138.3360 C   0  0  0  0  0  0  0  0  0  0  0  0
  189.1700  175.9950  137.3980 C   0  0  0  0  0  3  0  0  0  0  0  0
  188.0440  176.8120  137.3330 C   0  0  0  0  0  3  0  0  0  0  0  0
  190.3690  176.6940  141.9320 N   0  0  0  0  0  0  0  0  0  0  0  0
  190.6240  176.4800  143.3790 C   0  0  2  0  0  0  0  0  0  0  0  0
  191.6020  175.5080  143.5900 O   0  0  0  0  0  1  0  0  0  0  0  0
  190.7600  177.1470  140.6360 C   0  0  0  0  0  0  0  0  0  0  0  0
  189.4150  176.0440  142.8890 C   0  0  0  0  0  2  0  0  0  0  0  0
  191.9190  177.6100  140.4730 O   0  0  0  0  0  0  0  0  0  0  0  0
  190.7010  177.7840  144.1550 C   0  0  0  0  0  2  0  0  0  0  0  0
  191.0680  176.8420  146.4540 C   0  0  0  0  0  1  0  0  0  0  0  0
  190.1220  177.6280  145.5600 C   0  0  2  0  0  3  0  0  0  0  0  0
  188.7760  177.0470  145.5510 N   0  0  0  0  0  2  0  0  0  0  0  0
  187.9230  177.6960  146.5420 C   0  0  0  0  0  2  0  0  0  0  0  0
  186.4210  177.6370  144.5800 C   0  0  0  0  0  1  0  0  0  0  0  0
  186.4800  177.6220  146.0920 C   0  0  0  0  0  2  0  0  0  0  0  0
  186.6110  178.5640  138.2160 N   0  0  0  0  0  2  0  0  0  0  0  0
  182.5450  177.8080  140.1680 C   0  0  0  0  0  3  0  0  0  0  0  0
  185.3930  178.4300  138.9650 C   0  0  0  0  0  0  0  0  0  0  0  0
  182.2540  176.8620  138.0370 O   0  0  0  0  0  0  0  0  0  0  0  0
  183.0260  177.5240  138.9680 C   0  0  0  0  0  0  0  0  0  0  0  0
  184.3340  177.8080  138.4090 C   0  0  0  0  0  0  0  0  0  0  0  0
  182.9470  176.6510  136.8180 C   0  0  0  0  0  3  0  0  0  0  0  0
  185.4030  179.0150  140.2390 O   0  0  0  0  0  0  0  0  0  0  0  0
  184.4490  179.0240  141.2600 C   0  0  0  0  0  3  0  0  0  0  0  0
  183.2250  178.5090  141.2510 C   0  0  0  0  0  3  0  0  0  0  0  0
  184.3250  177.2940  137.0030 C   0  0  0  0  0  3  0  0  0  0  0  0
  2 12  1  0  0  0  0
  3  4  1  0  0  0  0
  3  2  2  0  0  0  0
  5  2  1  0  0  0  0
  5  1  1  0  0  0  0
  6  5  2  0  0  0  0
  7  3  1  0  0  0  0
  8  7  2  0  0  0  0
  8  6  1  0  0  0  0
  9 13  1  0  0  0  0
  9 10  1  0  0  0  0
 10 11  1  1  0  0  0
 10 15  1  0  0  0  0
 12  9  1  0  0  0  0
 13 10  1  0  0  0  0
 14 12  2  0  0  0  0
 15 17  1  0  0  0  0
 17 16  1  1  0  0  0
 18 17  1  0  0  0  0
 18 19  1  0  0  0  0
 20 21  1  0  0  0  0
 21 19  1  0  0  0  0
 22  6  1  0  0  0  0
 22 24  1  0  0  0  0
 23 31  1  0  0  0  0
 24 29  1  0  0  0  0
 25 26  1  0  0  0  0
 26 23  2  0  0  0  0
 27 24  2  0  0  0  0
 27 26  1  0  0  0  0
 28 32  2  0  0  0  0
 28 25  1  0  0  0  0
 29 30  1  0  0  0  0
 31 30  2  0  0  0  0
 32 27  1  0  0  0  0
M  END
>  <MODEL>
3

>  <REMARK>
 VINA RESULT:      -8.2      3.283      7.581
  Name = 
  8 active torsions:
  status: ('A' for Active; 'I' for Inactive)
    1  A    between atoms: N_1  and  C_13
    2  A    between atoms: N_1  and  C_30
    3  A    between atoms: C_3  and  C_8
    4  A    between atoms: C_3  and  C_30
    5  A    between atoms: C_5  and  C_22
    6  A    between atoms: C_10  and  N_24
    7  A    between atoms: C_13  and  C_23
    8  A    between atoms: C_21  and  N_24
                            x       y       z     vdW  Elec       q    Type
                         _______ _______ _______ _____ _____    ______ ____

>  <TORSDO>
F 8

$$$$
=
 OpenBabel10222416333D

 32 35  0  0  1  0  0  0  0  0999 V2000
  187.1050  178.5230  140.8970 O   0  0  0  0  0  1  0  0  0  0  0  0
  184.7170  178.6950  141.2920 C   0  0  0  0  0  0  0  0  0  0  0  0
  183.6460  178.7250  142.2080 C   0  0  0  0  0  0  0  0  0  0  0  0
  182.3460  178.9810  141.7850 O   0  0  0  0  0  1  0  0  0  0  0  0
  186.0210  178.4390  141.7670 C   0  0  0  0  0  0  0  0  0  0  0  0
  186.2340  178.1470  143.1320 C   0  0  0  0  0  0  0  0  0  0  0  0
  183.8750  178.4840  143.5630 C   0  0  0  0  0  3  0  0  0  0  0  0
  185.1590  178.1970  144.0200 C   0  0  0  0  0  3  0  0  0  0  0  0
  183.9930  177.8870  139.0110 N   0  0  0  0  0  0  0  0  0  0  0  0
  183.5730  177.3500  137.6920 C   0  0  2  0  0  0  0  0  0  0  0  0
  182.3800  177.9280  137.2580 O   0  0  0  0  0  1  0  0  0  0  0  0
  184.4720  178.9350  139.8510 C   0  0  0  0  0  0  0  0  0  0  0  0
  183.4920  176.4950  138.7650 C   0  0  0  0  0  2  0  0  0  0  0  0
  184.6620  180.0780  139.3580 O   0  0  0  0  0  0  0  0  0  0  0  0
  184.7340  177.2340  136.7160 C   0  0  0  0  0  2  0  0  0  0  0  0
  186.9130  178.3770  137.2140 C   0  0  0  0  0  1  0  0  0  0  0  0
  186.0680  177.1350  137.4510 C   0  0  2  0  0  3  0  0  0  0  0  0
  186.8030  175.9100  137.1210 N   0  0  0  0  0  2  0  0  0  0  0  0
  185.8980  174.8830  136.6110 C   0  0  0  0  0  2  0  0  0  0  0  0
  184.8630  172.9530  137.7550 C   0  0  0  0  0  1  0  0  0  0  0  0
  186.1720  173.5730  137.3180 C   0  0  0  0  0  2  0  0  0  0  0  0
  187.5350  177.8470  143.6610 N   0  0  0  0  0  2  0  0  0  0  0  0
  189.2650  177.6160  147.8880 C   0  0  0  0  0  3  0  0  0  0  0  0
  187.9100  177.8060  145.0470 C   0  0  0  0  0  0  0  0  0  0  0  0
  191.0880  176.9390  146.5700 O   0  0  0  0  0  0  0  0  0  0  0  0
  189.7800  177.3560  146.6970 C   0  0  0  0  0  0  0  0  0  0  0  0
  189.1620  177.4420  145.3880 C   0  0  0  0  0  0  0  0  0  0  0  0
  191.4500  176.7150  145.2180 C   0  0  0  0  0  3  0  0  0  0  0  0
  186.8900  178.1220  145.9550 O   0  0  0  0  0  0  0  0  0  0  0  0
  186.9000  178.2560  147.3470 C   0  0  0  0  0  3  0  0  0  0  0  0
  187.9060  178.0500  148.1890 C   0  0  0  0  0  3  0  0  0  0  0  0
  190.1930  177.0020  144.3940 C   0  0  0  0  0  3  0  0  0  0  0  0
  1  5  1  0  0  0  0
  2  5  2  0  0  0  0
  2  3  1  0  0  0  0
  3  7  2  0  0  0  0
  4  3  1  0  0  0  0
  5  6  1  0  0  0  0
  6 22  1  0  0  0  0
  6  8  2  0  0  0  0
  7  8  1  0  0  0  0
  9 12  1  0  0  0  0
 10 11  1  6  0  0  0
 10 13  1  0  0  0  0
 10  9  1  0  0  0  0
 12  2  1  0  0  0  0
 13  9  1  0  0  0  0
 14 12  2  0  0  0  0
 15 17  1  0  0  0  0
 15 10  1  0  0  0  0
 17 16  1  6  0  0  0
 18 17  1  0  0  0  0
 19 18  1  0  0  0  0
 19 21  1  0  0  0  0
 21 20  1  0  0  0  0
 22 24  1  0  0  0  0
 23 31  1  0  0  0  0
 24 27  2  0  0  0  0
 24 29  1  0  0  0  0
 25 26  1  0  0  0  0
 26 23  2  0  0  0  0
 27 26  1  0  0  0  0
 28 25  1  0  0  0  0
 29 30  1  0  0  0  0
 30 31  2  0  0  0  0
 32 28  2  0  0  0  0
 32 27  1  0  0  0  0
M  END
>  <MODEL>
4

>  <REMARK>
 VINA RESULT:      -8.2      4.579      6.488
  Name = 
  8 active torsions:
  status: ('A' for Active; 'I' for Inactive)
    1  A    between atoms: N_1  and  C_13
    2  A    between atoms: N_1  and  C_30
    3  A    between atoms: C_3  and  C_8
    4  A    between atoms: C_3  and  C_30
    5  A    between atoms: C_5  and  C_22
    6  A    between atoms: C_10  and  N_24
    7  A    between atoms: C_13  and  C_23
    8  A    between atoms: C_21  and  N_24
                            x       y       z     vdW  Elec       q    Type
                         _______ _______ _______ _____ _____    ______ ____

>  <TORSDO>
F 8

$$$$
=
 OpenBabel10222416333D

 32 35  0  0  1  0  0  0  0  0999 V2000
  188.7350  178.9060  141.1800 O   0  0  0  0  0  1  0  0  0  0  0  0
  189.8590  177.1120  139.9930 C   0  0  0  0  0  0  0  0  0  0  0  0
  189.9390  176.2850  138.8540 C   0  0  0  0  0  0  0  0  0  0  0  0
  190.9980  175.4010  138.6820 O   0  0  0  0  0  1  0  0  0  0  0  0
  188.7690  178.0000  140.1230 C   0  0  0  0  0  0  0  0  0  0  0  0
  187.7400  178.0040  139.1570 C   0  0  0  0  0  0  0  0  0  0  0  0
  188.9410  176.3330  137.8810 C   0  0  0  0  0  3  0  0  0  0  0  0
  187.8490  177.1860  138.0320 C   0  0  0  0  0  3  0  0  0  0  0  0
  190.6630  176.3910  142.2770 N   0  0  0  0  0  0  0  0  0  0  0  0
  191.0750  175.9570  143.6360 C   0  0  2  0  0  0  0  0  0  0  0  0
  192.0730  174.9840  143.5840 O   0  0  0  0  0  1  0  0  0  0  0  0
  190.9090  177.0500  141.0350 C   0  0  0  0  0  0  0  0  0  0  0  0
  189.8210  175.5790  143.2150 C   0  0  0  0  0  2  0  0  0  0  0  0
  192.0420  177.5580  140.8250 O   0  0  0  0  0  0  0  0  0  0  0  0
  191.2320  177.1240  144.5970 C   0  0  0  0  0  2  0  0  0  0  0  0
  190.8330  179.5340  144.0150 C   0  0  0  0  0  1  0  0  0  0  0  0
  190.1790  178.2000  144.3390 C   0  0  2  0  0  3  0  0  0  0  0  0
  189.2170  178.3210  145.4390 N   0  0  0  0  0  2  0  0  0  0  0  0
  189.5770  177.4370  146.5430 C   0  0  0  0  0  2  0  0  0  0  0  0
  188.4360  178.1250  148.6250 C   0  0  0  0  0  1  0  0  0  0  0  0
  188.3670  177.2090  147.4230 C   0  0  0  0  0  2  0  0  0  0  0  0
  186.5930  178.8640  139.2580 N   0  0  0  0  0  2  0  0  0  0  0  0
  182.8810  178.2390  141.8560 C   0  0  0  0  0  3  0  0  0  0  0  0
  185.5190  178.7530  140.2050 C   0  0  0  0  0  0  0  0  0  0  0  0
  182.1330  177.5270  139.7450 O   0  0  0  0  0  0  0  0  0  0  0  0
  183.1150  178.0350  140.5690 C   0  0  0  0  0  0  0  0  0  0  0  0
  184.3250  178.2700  139.8050 C   0  0  0  0  0  0  0  0  0  0  0  0
  182.5790  177.3820  138.4070 C   0  0  0  0  0  3  0  0  0  0  0  0
  185.8070  179.2100  141.4990 O   0  0  0  0  0  0  0  0  0  0  0  0
  185.0510  179.1940  142.6750 C   0  0  0  0  0  3  0  0  0  0  0  0
  183.8020  178.7770  142.8490 C   0  0  0  0  0  3  0  0  0  0  0  0
  184.0210  177.8960  138.3870 C   0  0  0  0  0  3  0  0  0  0  0  0
  2  5  1  0  0  0  0
  2 12  1  0  0  0  0
  3  2  2  0  0  0  0
  4  3  1  0  0  0  0
  5  1  1  0  0  0  0
  6 22  1  0  0  0  0
  6  5  2  0  0  0  0
  7  8  2  0  0  0  0
  7  3  1  0  0  0  0
  8  6  1  0  0  0  0
  9 13  1  0  0  0  0
  9 10  1  0  0  0  0
 10 11  1  1  0  0  0
 10 15  1  0  0  0  0
 12  9  1  0  0  0  0
 13 10  1  0  0  0  0
 14 12  2  0  0  0  0
 17 16  1  1  0  0  0
 17 15  1  0  0  0  0
 17 18  1  0  0  0  0
 18 19  1  0  0  0  0
 19 21  1  0  0  0  0
 21 20  1  0  0  0  0
 22 24  1  0  0  0  0
 23 31  1  0  0  0  0
 24 29  1  0  0  0  0
 25 26  1  0  0  0  0
 26 23  2  0  0  0  0
 27 24  2  0  0  0  0
 27 26  1  0  0  0  0
 28 25  1  0  0  0  0
 29 30  1  0  0  0  0
 30 31  2  0  0  0  0
 32 28  2  0  0  0  0
 32 27  1  0  0  0  0
M  END
>  <MODEL>
5

>  <REMARK>
 VINA RESULT:      -8.1      3.403      6.917
  Name = 
  8 active torsions:
  status: ('A' for Active; 'I' for Inactive)
    1  A    between atoms: N_1  and  C_13
    2  A    between atoms: N_1  and  C_30
    3  A    between atoms: C_3  and  C_8
    4  A    between atoms: C_3  and  C_30
    5  A    between atoms: C_5  and  C_22
    6  A    between atoms: C_10  and  N_24
    7  A    between atoms: C_13  and  C_23
    8  A    between atoms: C_21  and  N_24
                            x       y       z     vdW  Elec       q    Type
                         _______ _______ _______ _____ _____    ______ ____

>  <TORSDO>
F 8

$$$$
=
 OpenBabel10222416333D

 32 35  0  0  1  0  0  0  0  0999 V2000
  188.4010  178.8980  140.7210 O   0  0  0  0  0  1  0  0  0  0  0  0
  189.6530  177.1010  139.6760 C   0  0  0  0  0  0  0  0  0  0  0  0
  189.8240  176.2290  138.5810 C   0  0  0  0  0  0  0  0  0  0  0  0
  190.9240  175.3820  138.5030 O   0  0  0  0  0  1  0  0  0  0  0  0
  188.5250  177.9490  139.7100 C   0  0  0  0  0  0  0  0  0  0  0  0
  187.5480  177.8700  138.6940 C   0  0  0  0  0  0  0  0  0  0  0  0
  188.8770  176.1950  137.5570 C   0  0  0  0  0  3  0  0  0  0  0  0
  187.7480  177.0090  137.6140 C   0  0  0  0  0  3  0  0  0  0  0  0
  190.3120  176.6480  142.0720 N   0  0  0  0  0  0  0  0  0  0  0  0
  190.6360  176.3760  143.4950 C   0  0  2  0  0  0  0  0  0  0  0  0
  191.5830  175.3600  143.6210 O   0  0  0  0  0  1  0  0  0  0  0  0
  190.6500  177.1270  140.7710 C   0  0  0  0  0  0  0  0  0  0  0  0
  189.3850  176.0050  143.0600 C   0  0  0  0  0  2  0  0  0  0  0  0
  191.8160  177.5500  140.5570 O   0  0  0  0  0  0  0  0  0  0  0  0
  190.8100  177.6500  144.3060 C   0  0  0  0  0  2  0  0  0  0  0  0
  191.6180  176.5690  146.4230 C   0  0  0  0  0  1  0  0  0  0  0  0
  190.5210  177.4090  145.7860 C   0  0  2  0  0  3  0  0  0  0  0  0
  189.1940  176.8280  146.0120 N   0  0  0  0  0  2  0  0  0  0  0  0
  188.2190  177.8680  146.3260 C   0  0  0  0  0  2  0  0  0  0  0  0
  185.7950  178.2710  146.0610 C   0  0  0  0  0  1  0  0  0  0  0  0
  187.0450  177.7630  145.3770 C   0  0  0  0  0  2  0  0  0  0  0  0
  186.3660  178.6860  138.6980 N   0  0  0  0  0  2  0  0  0  0  0  0
  182.1970  177.5880  140.2250 C   0  0  0  0  0  3  0  0  0  0  0  0
  185.0310  178.2610  139.0170 C   0  0  0  0  0  0  0  0  0  0  0  0
  183.2080  178.4840  142.1480 O   0  0  0  0  0  0  0  0  0  0  0  0
  183.2510  178.1280  140.8160 C   0  0  0  0  0  0  0  0  0  0  0  0
  184.5570  178.4380  140.2670 C   0  0  0  0  0  0  0  0  0  0  0  0
  184.4320  179.0430  142.5930 C   0  0  0  0  0  3  0  0  0  0  0  0
  184.3310  177.6410  137.9730 O   0  0  0  0  0  0  0  0  0  0  0  0
  183.0170  177.1740  137.8900 C   0  0  0  0  0  3  0  0  0  0  0  0
  182.0880  177.1480  138.8390 C   0  0  0  0  0  3  0  0  0  0  0  0
  185.3750  179.0030  141.3870 C   0  0  0  0  0  3  0  0  0  0  0  0
  2  5  1  0  0  0  0
  2 12  1  0  0  0  0
  3  2  2  0  0  0  0
  4  3  1  0  0  0  0
  5  1  1  0  0  0  0
  6 22  1  0  0  0  0
  6  5  2  0  0  0  0
  7  8  2  0  0  0  0
  7  3  1  0  0  0  0
  8  6  1  0  0  0  0
  9 13  1  0  0  0  0
  9 10  1  0  0  0  0
 10 11  1  1  0  0  0
 10 15  1  0  0  0  0
 12  9  1  0  0  0  0
 13 10  1  0  0  0  0
 14 12  2  0  0  0  0
 15 17  1  0  0  0  0
 17 18  1  0  0  0  0
 17 16  1  6  0  0  0
 18 19  1  0  0  0  0
 21 20  1  0  0  0  0
 21 19  1  0  0  0  0
 22 24  1  0  0  0  0
 23 26  2  0  0  0  0
 24 27  2  0  0  0  0
 25 28  1  0  0  0  0
 26 25  1  0  0  0  0
 27 26  1  0  0  0  0
 27 32  1  0  0  0  0
 29 24  1  0  0  0  0
 30 29  1  0  0  0  0
 30 31  2  0  0  0  0
 31 23  1  0  0  0  0
 32 28  2  0  0  0  0
M  END
>  <MODEL>
6

>  <REMARK>
 VINA RESULT:      -8.1      3.282      7.342
  Name = 
  8 active torsions:
  status: ('A' for Active; 'I' for Inactive)
    1  A    between atoms: N_1  and  C_13
    2  A    between atoms: N_1  and  C_30
    3  A    between atoms: C_3  and  C_8
    4  A    between atoms: C_3  and  C_30
    5  A    between atoms: C_5  and  C_22
    6  A    between atoms: C_10  and  N_24
    7  A    between atoms: C_13  and  C_23
    8  A    between atoms: C_21  and  N_24
                            x       y       z     vdW  Elec       q    Type
                         _______ _______ _______ _____ _____    ______ ____

>  <TORSDO>
F 8

$$$$
=
 OpenBabel10222416333D

 32 35  0  0  1  0  0  0  0  0999 V2000
  185.8410  178.1820  142.1850 O   0  0  0  0  0  1  0  0  0  0  0  0
  186.6530  177.6750  144.4150 C   0  0  0  0  0  0  0  0  0  0  0  0
  186.4160  177.6400  145.8040 C   0  0  0  0  0  0  0  0  0  0  0  0
  187.3440  177.0810  146.6760 O   0  0  0  0  0  1  0  0  0  0  0  0
  185.6790  178.2450  143.5660 C   0  0  0  0  0  0  0  0  0  0  0  0
  184.5190  178.8340  144.1130 C   0  0  0  0  0  0  0  0  0  0  0  0
  185.2430  178.1810  146.3300 C   0  0  0  0  0  3  0  0  0  0  0  0
  184.3030  178.7740  145.4900 C   0  0  0  0  0  3  0  0  0  0  0  0
  189.1680  177.6890  144.1870 N   0  0  0  0  0  0  0  0  0  0  0  0
  190.6470  177.7570  144.0790 C   0  0  2  0  0  0  0  0  0  0  0  0
  191.2580  176.6510  144.6690 O   0  0  0  0  0  1  0  0  0  0  0  0
  187.9050  177.1150  143.8570 C   0  0  0  0  0  0  0  0  0  0  0  0
  190.0440  178.6560  144.9270 C   0  0  0  0  0  2  0  0  0  0  0  0
  187.8680  176.1070  143.1030 O   0  0  0  0  0  0  0  0  0  0  0  0
  191.1090  178.2080  142.7020 C   0  0  0  0  0  2  0  0  0  0  0  0
  192.5900  177.4250  140.8310 C   0  0  0  0  0  1  0  0  0  0  0  0
  191.5300  177.0180  141.8420 C   0  0  2  0  0  3  0  0  0  0  0  0
  190.3890  176.3600  141.1960 N   0  0  0  0  0  2  0  0  0  0  0  0
  190.2860  176.7570  139.7950 C   0  0  0  0  0  2  0  0  0  0  0  0
  189.0580  178.6250  138.7420 C   0  0  0  0  0  1  0  0  0  0  0  0
  188.9160  177.3450  139.5350 C   0  0  0  0  0  2  0  0  0  0  0  0
  183.5140  179.4570  143.2970 N   0  0  0  0  0  2  0  0  0  0  0  0
  180.0330  177.5150  141.0550 C   0  0  0  0  0  3  0  0  0  0  0  0
  182.5450  178.7920  142.4730 C   0  0  0  0  0  0  0  0  0  0  0  0
  179.0050  178.2230  143.0460 O   0  0  0  0  0  0  0  0  0  0  0  0
  180.1170  178.1010  142.2400 C   0  0  0  0  0  0  0  0  0  0  0  0
  181.2690  178.6890  142.8970 C   0  0  0  0  0  0  0  0  0  0  0  0
  179.3000  178.8790  144.2690 C   0  0  0  0  0  3  0  0  0  0  0  0
  183.0390  178.2540  141.2770 O   0  0  0  0  0  0  0  0  0  0  0  0
  182.3940  177.6160  140.2130 C   0  0  0  0  0  3  0  0  0  0  0  0
  181.1100  177.2970  140.0970 C   0  0  0  0  0  3  0  0  0  0  0  0
  180.8010  179.1780  144.2330 C   0  0  0  0  0  3  0  0  0  0  0  0
  1  5  1  0  0  0  0
  2  3  1  0  0  0  0
  3  7  2  0  0  0  0
  3  4  1  0  0  0  0
  5  6  1  0  0  0  0
  5  2  2  0  0  0  0
  6  8  2  0  0  0  0
  8  7  1  0  0  0  0
  9 13  1  0  0  0  0
 10  9  1  0  0  0  0
 10 11  1  1  0  0  0
 10 13  1  0  0  0  0
 12  9  1  0  0  0  0
 12  2  1  0  0  0  0
 14 12  2  0  0  0  0
 15 10  1  0  0  0  0
 17 16  1  6  0  0  0
 17 15  1  0  0  0  0
 18 17  1  0  0  0  0
 19 18  1  0  0  0  0
 20 21  1  0  0  0  0
 21 19  1  0  0  0  0
 22  6  1  0  0  0  0
 23 26  2  0  0  0  0
 24 27  2  0  0  0  0
 24 22  1  0  0  0  0
 25 28  1  0  0  0  0
 26 27  1  0  0  0  0
 26 25  1  0  0  0  0
 27 32  1  0  0  0  0
 29 24  1  0  0  0  0
 30 29  1  0  0  0  0
 31 30  2  0  0  0  0
 31 23  1  0  0  0  0
 32 28  2  0  0  0  0
M  END
>  <MODEL>
7

>  <REMARK>
 VINA RESULT:      -7.9      3.926      7.006
  Name = 
  8 active torsions:
  status: ('A' for Active; 'I' for Inactive)
    1  A    between atoms: N_1  and  C_13
    2  A    between atoms: N_1  and  C_30
    3  A    between atoms: C_3  and  C_8
    4  A    between atoms: C_3  and  C_30
    5  A    between atoms: C_5  and  C_22
    6  A    between atoms: C_10  and  N_24
    7  A    between atoms: C_13  and  C_23
    8  A    between atoms: C_21  and  N_24
                            x       y       z     vdW  Elec       q    Type
                         _______ _______ _______ _____ _____    ______ ____

>  <TORSDO>
F 8

$$$$
=
 OpenBabel10222416333D

 32 35  0  0  1  0  0  0  0  0999 V2000
  190.4910  175.7920  142.1610 O   0  0  0  0  0  1  0  0  0  0  0  0
  189.7100  177.3220  140.4470 C   0  0  0  0  0  0  0  0  0  0  0  0
  188.8010  178.3240  140.0490 C   0  0  0  0  0  0  0  0  0  0  0  0
  188.9370  178.9710  138.8260 O   0  0  0  0  0  1  0  0  0  0  0  0
  189.5380  176.6970  141.7010 C   0  0  0  0  0  0  0  0  0  0  0  0
  188.4290  177.0240  142.5100 C   0  0  0  0  0  0  0  0  0  0  0  0
  187.7360  178.6750  140.8790 C   0  0  0  0  0  3  0  0  0  0  0  0
  187.5520  178.0290  142.1000 C   0  0  0  0  0  3  0  0  0  0  0  0
  190.5970  176.1600  138.3880 N   0  0  0  0  0  0  0  0  0  0  0  0
  191.0630  175.4440  137.1730 C   0  0  2  0  0  0  0  0  0  0  0  0
  191.5430  176.3290  136.2080 O   0  0  0  0  0  1  0  0  0  0  0  0
  190.8320  176.9380  139.5600 C   0  0  0  0  0  0  0  0  0  0  0  0
  189.7070  175.4590  137.4050 C   0  0  0  0  0  2  0  0  0  0  0  0
  192.0040  177.3170  139.8200 O   0  0  0  0  0  0  0  0  0  0  0  0
  191.8750  174.2030  137.5050 C   0  0  0  0  0  2  0  0  0  0  0  0
  192.7610  173.0930  135.4340 C   0  0  0  0  0  1  0  0  0  0  0  0
  193.0720  174.0570  136.5680 C   0  0  2  0  0  3  0  0  0  0  0  0
  194.2990  173.6810  137.2770 N   0  0  0  0  0  2  0  0  0  0  0  0
  194.6330  172.2810  137.0310 C   0  0  0  0  0  2  0  0  0  0  0  0
  196.1790  170.4490  137.6290 C   0  0  0  0  0  1  0  0  0  0  0  0
  195.9170  171.9340  137.7520 C   0  0  0  0  0  2  0  0  0  0  0  0
  188.1890  176.3940  143.7790 N   0  0  0  0  0  2  0  0  0  0  0  0
  187.4640  178.4210  147.8150 C   0  0  0  0  0  3  0  0  0  0  0  0
  187.7870  177.0420  144.9960 C   0  0  0  0  0  0  0  0  0  0  0  0
  189.6980  177.7170  148.0080 O   0  0  0  0  0  0  0  0  0  0  0  0
  188.5210  177.8140  147.2970 C   0  0  0  0  0  0  0  0  0  0  0  0
  188.6750  177.1780  146.0030 C   0  0  0  0  0  0  0  0  0  0  0  0
  190.7070  177.0340  147.2840 C   0  0  0  0  0  3  0  0  0  0  0  0
  186.4490  177.4540  145.0460 O   0  0  0  0  0  0  0  0  0  0  0  0
  185.7350  178.1670  146.0140 C   0  0  0  0  0  3  0  0  0  0  0  0
  186.1540  178.5940  147.2010 C   0  0  0  0  0  3  0  0  0  0  0  0
  190.0660  176.6240  145.9560 C   0  0  0  0  0  3  0  0  0  0  0  0
  2  5  1  0  0  0  0
  3  2  2  0  0  0  0
  3  7  1  0  0  0  0
  4  3  1  0  0  0  0
  5  1  1  0  0  0  0
  5  6  2  0  0  0  0
  6 22  1  0  0  0  0
  7  8  2  0  0  0  0
  8  6  1  0  0  0  0
  9 12  1  0  0  0  0
 10 11  1  6  0  0  0
 10 13  1  0  0  0  0
 10 15  1  0  0  0  0
 10  9  1  0  0  0  0
 12 14  2  0  0  0  0
 12  2  1  0  0  0  0
 13  9  1  0  0  0  0
 17 16  1  6  0  0  0
 17 18  1  0  0  0  0
 17 15  1  0  0  0  0
 19 18  1  0  0  0  0
 19 21  1  0  0  0  0
 20 21  1  0  0  0  0
 22 24  1  0  0  0  0
 24 29  1  0  0  0  0
 24 27  2  0  0  0  0
 26 23  2  0  0  0  0
 26 25  1  0  0  0  0
 27 26  1  0  0  0  0
 28 25  1  0  0  0  0
 29 30  1  0  0  0  0
 30 31  2  0  0  0  0
 31 23  1  0  0  0  0
 32 27  1  0  0  0  0
 32 28  2  0  0  0  0
M  END
>  <MODEL>
8

>  <REMARK>
 VINA RESULT:      -7.8      1.399      2.357
  Name = 
  8 active torsions:
  status: ('A' for Active; 'I' for Inactive)
    1  A    between atoms: N_1  and  C_13
    2  A    between atoms: N_1  and  C_30
    3  A    between atoms: C_3  and  C_8
    4  A    between atoms: C_3  and  C_30
    5  A    between atoms: C_5  and  C_22
    6  A    between atoms: C_10  and  N_24
    7  A    between atoms: C_13  and  C_23
    8  A    between atoms: C_21  and  N_24
                            x       y       z     vdW  Elec       q    Type
                         _______ _______ _______ _____ _____    ______ ____

>  <TORSDO>
F 8

$$$$
=
 OpenBabel10222416333D

 32 35  0  0  1  0  0  0  0  0999 V2000
  188.2690  178.9970  140.4430 O   0  0  0  0  0  1  0  0  0  0  0  0
  189.6150  177.1490  139.6280 C   0  0  0  0  0  0  0  0  0  0  0  0
  189.8930  176.2200  138.6050 C   0  0  0  0  0  0  0  0  0  0  0  0
  190.9920  175.3730  138.6840 O   0  0  0  0  0  1  0  0  0  0  0  0
  188.4910  177.9940  139.5030 C   0  0  0  0  0  0  0  0  0  0  0  0
  187.6210  177.8570  138.4000 C   0  0  0  0  0  0  0  0  0  0  0  0
  189.0530  176.1260  137.4950 C   0  0  0  0  0  3  0  0  0  0  0  0
  187.9250  176.9390  137.3940 C   0  0  0  0  0  3  0  0  0  0  0  0
  190.1450  176.5830  142.0320 N   0  0  0  0  0  0  0  0  0  0  0  0
  190.3950  176.2310  143.4530 C   0  0  2  0  0  0  0  0  0  0  0  0
  191.4950  175.3860  143.5870 O   0  0  0  0  0  1  0  0  0  0  0  0
  190.4970  177.2380  140.8150 C   0  0  0  0  0  0  0  0  0  0  0  0
  189.2710  175.6960  142.8680 C   0  0  0  0  0  2  0  0  0  0  0  0
  191.5820  177.8740  140.7520 O   0  0  0  0  0  0  0  0  0  0  0  0
  190.2680  177.4300  144.3790 C   0  0  0  0  0  2  0  0  0  0  0  0
  188.0900  177.8700  145.5490 C   0  0  0  0  0  1  0  0  0  0  0  0
  189.4030  177.1030  145.5940 C   0  0  2  0  0  3  0  0  0  0  0  0
  190.1100  177.3140  146.8610 N   0  0  0  0  0  2  0  0  0  0  0  0
  191.5190  176.9550  146.7360 C   0  0  0  0  0  2  0  0  0  0  0  0
  192.8090  175.6280  148.3740 C   0  0  0  0  0  1  0  0  0  0  0  0
  191.7400  175.5700  147.3050 C   0  0  0  0  0  2  0  0  0  0  0  0
  186.4460  178.6680  138.2410 N   0  0  0  0  0  2  0  0  0  0  0  0
  182.1290  177.5740  139.2820 C   0  0  0  0  0  3  0  0  0  0  0  0
  185.0830  178.2450  138.4050 C   0  0  0  0  0  0  0  0  0  0  0  0
  182.9200  178.4510  141.3130 O   0  0  0  0  0  0  0  0  0  0  0  0
  183.1120  178.1050  139.9930 C   0  0  0  0  0  0  0  0  0  0  0  0
  184.4720  178.4150  139.5950 C   0  0  0  0  0  0  0  0  0  0  0  0
  184.0890  179.0030  141.8970 C   0  0  0  0  0  3  0  0  0  0  0  0
  184.5030  177.6360  137.2840 O   0  0  0  0  0  0  0  0  0  0  0  0
  183.2040  177.1740  137.0510 C   0  0  0  0  0  3  0  0  0  0  0  0
  182.1750  177.1440  137.8900 C   0  0  0  0  0  3  0  0  0  0  0  0
  185.1600  178.9690  140.8040 C   0  0  0  0  0  3  0  0  0  0  0  0
  2 12  1  0  0  0  0
  3  4  1  0  0  0  0
  3  2  2  0  0  0  0
  5  2  1  0  0  0  0
  5  1  1  0  0  0  0
  6  5  2  0  0  0  0
  7  3  1  0  0  0  0
  8  7  2  0  0  0  0
  8  6  1  0  0  0  0
  9 13  1  0  0  0  0
  9 10  1  0  0  0  0
 10 11  1  1  0  0  0
 10 15  1  0  0  0  0
 12  9  1  0  0  0  0
 13 10  1  0  0  0  0
 14 12  2  0  0  0  0
 15 17  1  0  0  0  0
 17 16  1  1  0  0  0
 17 18  1  0  0  0  0
 19 18  1  0  0  0  0
 19 21  1  0  0  0  0
 21 20  1  0  0  0  0
 22  6  1  0  0  0  0
 22 24  1  0  0  0  0
 23 26  2  0  0  0  0
 24 27  2  0  0  0  0
 25 28  1  0  0  0  0
 26 25  1  0  0  0  0
 27 26  1  0  0  0  0
 27 32  1  0  0  0  0
 29 24  1  0  0  0  0
 30 29  1  0  0  0  0
 30 31  2  0  0  0  0
 31 23  1  0  0  0  0
 32 28  2  0  0  0  0
M  END
>  <MODEL>
9

>  <REMARK>
 VINA RESULT:      -7.7      3.472      7.292
  Name = 
  8 active torsions:
  status: ('A' for Active; 'I' for Inactive)
    1  A    between atoms: N_1  and  C_13
    2  A    between atoms: N_1  and  C_30
    3  A    between atoms: C_3  and  C_8
    4  A    between atoms: C_3  and  C_30
    5  A    between atoms: C_5  and  C_22
    6  A    between atoms: C_10  and  N_24
    7  A    between atoms: C_13  and  C_23
    8  A    between atoms: C_21  and  N_24
                            x       y       z     vdW  Elec       q    Type
                         _______ _______ _______ _____ _____    ______ ____

>  <TORSDO>
F 8

$$$$
