=
 OpenBabel10222415253D

 47 51  0  0  1  0  0  0  0  0999 V2000
  184.4530  178.7860  139.6710 C   0  0  1  0  0  3  0  0  0  0  0  0
  185.5010  176.9510  136.4950 C   0  0  0  0  0  0  0  0  0  0  0  0
  182.5080  180.2510  138.9010 C   0  0  0  0  0  0  0  0  0  0  0  0
  185.4910  177.8330  137.5800 C   0  0  0  0  0  3  0  0  0  0  0  0
  181.3980  179.2990  139.2640 C   0  0  0  0  0  2  0  0  0  0  0  0
  180.5590  177.5630  140.8720 C   0  0  2  0  0  3  0  0  0  0  0  0
  180.0580  176.3090  138.7440 C   0  0  0  0  0  2  0  0  0  0  0  0
  181.7840  178.0460  140.0630 C   0  0  1  0  0  3  0  0  0  0  0  0
  183.3130  176.9940  138.2680 C   0  0  0  0  0  0  0  0  0  0  0  0
  184.4490  176.0560  136.3280 C   0  0  0  0  0  3  0  0  0  0  0  0
  183.8750  180.0660  139.2900 N   0  0  0  0  0  2  0  0  0  0  0  0
  184.4260  177.8390  138.5000 C   0  0  0  0  0  0  0  0  0  0  0  0
  179.4460  176.9950  139.9740 C   0  0  0  0  0  2  0  0  0  0  0  0
  181.3470  175.8450  139.0670 O   0  0  0  0  0  0  0  0  0  0  0  0
  182.1460  176.9620  139.1240 N   0  0  0  0  0  0  0  0  0  0  0  0
  183.3630  176.0860  137.2010 C   0  0  0  0  0  3  0  0  0  0  0  0
  182.2130  181.2660  138.2170 O   0  0  0  0  0  0  0  0  0  0  0  0
  182.1640  178.5900  143.2690 N   0  0  0  0  0  2  0  0  0  0  0  0
  180.7630  178.8480  143.1060 C   0  0  0  0  0  0  0  0  0  0  0  0
  180.1100  179.4130  144.0280 O   0  0  0  0  0  0  0  0  0  0  0  0
  180.0890  178.5120  141.8880 N   0  0  0  0  0  2  0  0  0  0  0  0
  182.8690  178.9250  144.4960 C   0  0  0  0  0  2  0  0  0  0  0  0
  184.3230  179.2590  144.1970 C   0  0  0  0  0  2  0  0  0  0  0  0
  186.8170  177.8730  146.7780 C   0  0  2  0  0  3  0  0  0  0  0  0
  185.2430  178.2340  144.8370 C   0  0  1  0  0  3  0  0  0  0  0  0
  187.9460  177.5340  145.8030 C   0  0  0  0  0  2  0  0  0  0  0  0
  186.3860  177.9010  143.8670 C   0  0  0  0  0  2  0  0  0  0  0  0
  185.8100  178.8310  146.1330 C   0  0  0  0  0  2  0  0  0  0  0  0
  187.3780  176.9340  144.5150 C   0  0  0  0  0  2  0  0  0  0  0  0
  187.3540  178.4830  147.9100 O   0  0  0  0  0  1  0  0  0  0  0  0
  186.9140  178.3550  139.6700 O   0  0  0  0  0  0  0  0  0  0  0  0
  185.9910  179.7170  141.2630 O   0  0  0  0  0  1  0  0  0  0  0  0
  185.8220  178.9800  140.2550 C   0  0  0  0  0  0  0  0  0  0  0  0
  186.6650  176.9050  135.5590 C   0  0  0  0  0  2  0  0  0  0  0  0
  188.7320  176.7730  136.8530 C   0  0  0  0  0  0  0  0  0  0  0  0
  189.6270  177.3940  137.5760 C   0  0  0  0  0  3  0  0  0  0  0  0
  187.8420  176.1520  136.1180 C   0  0  0  0  0  0  0  0  0  0  0  0
  187.8060  174.6570  136.1560 C   0  0  1  0  0  3  0  0  0  0  0  0
  187.4490  174.2160  137.4420 O   0  0  0  0  0  0  0  0  0  0  0  0
  186.7660  173.0220  137.2150 C   0  0  2  0  0  3  0  0  0  0  0  0
  186.8990  174.1730  135.1960 O   0  0  0  0  0  0  0  0  0  0  0  0
  186.4030  173.0040  135.7570 C   0  0  0  0  0  2  0  0  0  0  0  0
  184.6330  172.3930  137.1580 C   0  0  0  0  0  1  0  0  0  0  0  0
  185.5900  172.9950  137.9810 O   0  0  0  0  0  0  0  0  0  0  0  0
  190.6960  175.3370  138.4730 O   0  0  0  0  0  0  0  0  0  0  0  0
  190.8470  177.3280  139.6020 O   0  0  0  0  0  1  0  0  0  0  0  0
  190.4240  176.6990  138.5970 C   0  0  0  0  0  0  0  0  0  0  0  0
  1 33  1  6  0  0  0
  2  4  1  0  0  0  0
  3  5  1  0  0  0  0
  3 11  1  0  0  0  0
  4 12  2  0  0  0  0
  6 21  1  6  0  0  0
  7 14  1  0  0  0  0
  7 13  1  0  0  0  0
  8  5  1  6  0  0  0
  8  6  1  0  0  0  0
  9 12  1  0  0  0  0
  9 15  1  0  0  0  0
 10  2  2  0  0  0  0
 10 16  1  0  0  0  0
 11  1  1  0  0  0  0
 12  1  1  0  0  0  0
 13  6  1  0  0  0  0
 14 15  1  0  0  0  0
 15  8  1  0  0  0  0
 16  9  2  0  0  0  0
 17  3  2  0  0  0  0
 18 22  1  0  0  0  0
 19 18  1  0  0  0  0
 19 20  2  0  0  0  0
 21 19  1  0  0  0  0
 23 22  1  0  0  0  0
 24 30  1  1  0  0  0
 25 23  1  6  0  0  0
 25 28  1  0  0  0  0
 26 24  1  0  0  0  0
 27 29  1  0  0  0  0
 27 25  1  0  0  0  0
 28 24  1  0  0  0  0
 29 26  1  0  0  0  0
 31 33  2  0  0  0  0
 33 32  1  0  0  0  0
 34 37  1  0  0  0  0
 34  2  1  0  0  0  0
 35 36  2  0  0  0  0
 36 47  1  0  0  0  0
 37 35  2  0  0  0  0
 38 37  1  1  0  0  0
 38 39  1  0  0  0  0
 40 39  1  0  0  0  0
 40 44  1  1  0  0  0
 41 42  1  0  0  0  0
 41 38  1  0  0  0  0
 42 40  1  0  0  0  0
 43 44  1  0  0  0  0
 45 47  2  0  0  0  0
 47 46  1  0  0  0  0
M  END
>  <MODEL>
1

>  <REMARK>
 VINA RESULT:      -8.9      0.000      0.000
  Name = 
  10 active torsions:
  status: ('A' for Active; 'I' for Inactive)
    1  A    between atoms: C_2  and  C_46
    2  A    between atoms: CA_3  and  C_47
    3  A    between atoms: C_4  and  C_44
    4  A    between atoms: N_11  and  C_34
    5  A    between atoms: O_15  and  C_29
    6  A    between atoms: C_18  and  N_32
    7  A    between atoms: C_21  and  C_28
    8  A    between atoms: C_22  and  C_35
    9  A    between atoms: C_28  and  C_44
   10  A    between atoms: C_34  and  C_46
                            x       y       z     vdW  Elec       q    Type
                         _______ _______ _______ _____ _____    ______ ____

>  <TORSDO>
F 10

$$$$
=
 OpenBabel10222415253D

 47 51  0  0  1  0  0  0  0  0999 V2000
  189.6910  176.8290  138.7110 C   0  0  1  0  0  3  0  0  0  0  0  0
  191.2750  173.8250  136.9750 C   0  0  0  0  0  0  0  0  0  0  0  0
  189.0800  178.3840  136.7800 C   0  0  0  0  0  0  0  0  0  0  0  0
  191.1100  174.9950  137.7210 C   0  0  0  0  0  3  0  0  0  0  0  0
  187.6560  177.9230  136.6070 C   0  0  0  0  0  2  0  0  0  0  0  0
  185.5610  177.1040  137.7230 C   0  0  2  0  0  3  0  0  0  0  0  0
  185.6580  175.3710  135.8970 C   0  0  0  0  0  2  0  0  0  0  0  0
  187.0990  176.9610  137.6660 C   0  0  1  0  0  3  0  0  0  0  0  0
  188.7320  175.0150  137.2060 C   0  0  0  0  0  0  0  0  0  0  0  0
  190.1650  173.2210  136.3920 C   0  0  0  0  0  3  0  0  0  0  0  0
  189.9120  178.0060  137.8830 N   0  0  0  0  0  2  0  0  0  0  0  0
  189.8400  175.5800  137.8830 C   0  0  0  0  0  0  0  0  0  0  0  0
  184.8720  176.5640  136.4600 C   0  0  0  0  0  2  0  0  0  0  0  0
  186.3490  174.7370  136.9470 O   0  0  0  0  0  0  0  0  0  0  0  0
  187.3960  175.5690  137.2650 N   0  0  0  0  0  0  0  0  0  0  0  0
  188.9100  173.8160  136.5000 C   0  0  0  0  0  3  0  0  0  0  0  0
  189.5620  179.1460  135.9010 O   0  0  0  0  0  0  0  0  0  0  0  0
  185.9810  178.3760  140.4770 N   0  0  0  0  0  2  0  0  0  0  0  0
  185.1190  178.9460  139.4830 C   0  0  0  0  0  0  0  0  0  0  0  0
  184.3970  179.9430  139.7660 O   0  0  0  0  0  0  0  0  0  0  0  0
  185.0910  178.4280  138.1490 N   0  0  0  0  0  2  0  0  0  0  0  0
  186.0280  178.8870  141.8380 C   0  0  0  0  0  2  0  0  0  0  0  0
  186.1620  177.7410  142.8290 C   0  0  0  0  0  2  0  0  0  0  0  0
  188.2960  177.7280  146.0310 C   0  0  2  0  0  3  0  0  0  0  0  0
  186.6810  178.2520  144.1620 C   0  0  1  0  0  3  0  0  0  0  0  0
  187.1450  177.7610  147.0380 C   0  0  0  0  0  2  0  0  0  0  0  0
  185.5320  178.2730  145.1800 C   0  0  0  0  0  2  0  0  0  0  0  0
  187.7940  177.3110  144.6440 C   0  0  0  0  0  2  0  0  0  0  0  0
  186.0410  178.7050  146.5570 C   0  0  0  0  0  2  0  0  0  0  0  0
  189.2540  176.8090  146.4560 O   0  0  0  0  0  1  0  0  0  0  0  0
  190.1840  176.2240  141.0840 O   0  0  0  0  0  1  0  0  0  0  0  0
  191.6970  177.4470  139.8780 O   0  0  0  0  0  0  0  0  0  0  0  0
  190.5830  176.8610  139.9180 C   0  0  0  0  0  0  0  0  0  0  0  0
  192.6150  173.1740  136.8610 C   0  0  0  0  0  2  0  0  0  0  0  0
  194.6500  174.1300  137.8150 C   0  0  0  0  0  0  0  0  0  0  0  0
  195.5390  174.1080  138.7730 C   0  0  0  0  0  3  0  0  0  0  0  0
  193.7510  174.1610  136.8620 C   0  0  0  0  0  0  0  0  0  0  0  0
  194.0680  174.9160  135.6100 C   0  0  1  0  0  3  0  0  0  0  0  0
  193.8160  176.2860  135.7960 O   0  0  0  0  0  0  0  0  0  0  0  0
  194.7490  176.9180  134.9740 C   0  0  2  0  0  3  0  0  0  0  0  0
  195.4110  174.7030  135.2460 O   0  0  0  0  0  0  0  0  0  0  0  0
  195.7870  175.8880  134.6290 C   0  0  0  0  0  2  0  0  0  0  0  0
  196.2040  178.5840  134.7440 C   0  0  0  0  0  1  0  0  0  0  0  0
  195.3610  177.9700  135.6750 O   0  0  0  0  0  0  0  0  0  0  0  0
  197.5890  174.3040  137.3810 O   0  0  0  0  0  0  0  0  0  0  0  0
  197.5020  175.2250  139.4790 O   0  0  0  0  0  1  0  0  0  0  0  0
  196.9160  174.5820  138.5690 C   0  0  0  0  0  0  0  0  0  0  0  0
  1 33  1  1  0  0  0
  2  4  1  0  0  0  0
  3 11  1  0  0  0  0
  4 12  2  0  0  0  0
  5  3  1  0  0  0  0
  6 21  1  6  0  0  0
  7 13  1  0  0  0  0
  7 14  1  0  0  0  0
  8  5  1  6  0  0  0
  8  6  1  0  0  0  0
  9 15  1  0  0  0  0
  9 12  1  0  0  0  0
 10 16  1  0  0  0  0
 10  2  2  0  0  0  0
 11  1  1  0  0  0  0
 12  1  1  0  0  0  0
 13  6  1  0  0  0  0
 14 15  1  0  0  0  0
 15  8  1  0  0  0  0
 16  9  2  0  0  0  0
 17  3  2  0  0  0  0
 18 22  1  0  0  0  0
 19 20  2  0  0  0  0
 19 18  1  0  0  0  0
 21 19  1  0  0  0  0
 22 23  1  0  0  0  0
 24 30  1  1  0  0  0
 24 26  1  0  0  0  0
 25 23  1  6  0  0  0
 25 28  1  0  0  0  0
 25 27  1  0  0  0  0
 27 29  1  0  0  0  0
 28 24  1  0  0  0  0
 29 26  1  0  0  0  0
 32 33  2  0  0  0  0
 33 31  1  0  0  0  0
 34 37  1  0  0  0  0
 34  2  1  0  0  0  0
 35 36  2  0  0  0  0
 37 35  2  0  0  0  0
 38 39  1  0  0  0  0
 38 37  1  1  0  0  0
 40 44  1  1  0  0  0
 40 39  1  0  0  0  0
 41 38  1  0  0  0  0
 42 40  1  0  0  0  0
 42 41  1  0  0  0  0
 43 44  1  0  0  0  0
 45 47  2  0  0  0  0
 47 36  1  0  0  0  0
 47 46  1  0  0  0  0
M  END
>  <MODEL>
2

>  <REMARK>
 VINA RESULT:      -8.7      3.749      6.408
  Name = 
  10 active torsions:
  status: ('A' for Active; 'I' for Inactive)
    1  A    between atoms: C_2  and  C_46
    2  A    between atoms: CA_3  and  C_47
    3  A    between atoms: C_4  and  C_44
    4  A    between atoms: N_11  and  C_34
    5  A    between atoms: O_15  and  C_29
    6  A    between atoms: C_18  and  N_32
    7  A    between atoms: C_21  and  C_28
    8  A    between atoms: C_22  and  C_35
    9  A    between atoms: C_28  and  C_44
   10  A    between atoms: C_34  and  C_46
                            x       y       z     vdW  Elec       q    Type
                         _______ _______ _______ _____ _____    ______ ____

>  <TORSDO>
F 10

$$$$
=
 OpenBabel10222415253D

 47 51  0  0  1  0  0  0  0  0999 V2000
  186.9660  177.2100  137.7150 C   0  0  1  0  0  3  0  0  0  0  0  0
  189.8610  175.1070  136.3940 C   0  0  0  0  0  0  0  0  0  0  0  0
  185.3480  177.3070  135.7420 C   0  0  0  0  0  0  0  0  0  0  0  0
  189.0980  176.1930  136.8320 C   0  0  0  0  0  3  0  0  0  0  0  0
  184.4860  176.1390  136.1450 C   0  0  0  0  0  2  0  0  0  0  0  0
  183.4410  174.8470  138.0270 C   0  0  2  0  0  3  0  0  0  0  0  0
  184.3830  172.8810  136.7640 C   0  0  0  0  0  2  0  0  0  0  0  0
  184.7350  175.5310  137.5320 C   0  0  1  0  0  3  0  0  0  0  0  0
  187.1570  174.7480  137.0950 C   0  0  0  0  0  0  0  0  0  0  0  0
  189.2930  173.8370  136.3590 C   0  0  0  0  0  3  0  0  0  0  0  0
  186.3450  177.8920  136.5900 N   0  0  0  0  0  2  0  0  0  0  0  0
  187.7570  176.0250  137.2270 C   0  0  0  0  0  0  0  0  0  0  0  0
  183.0960  173.5830  137.2220 C   0  0  0  0  0  2  0  0  0  0  0  0
  185.4180  173.1770  137.6710 O   0  0  0  0  0  0  0  0  0  0  0  0
  185.7730  174.4820  137.4250 N   0  0  0  0  0  0  0  0  0  0  0  0
  187.9520  173.6640  136.6980 C   0  0  0  0  0  3  0  0  0  0  0  0
  185.1780  177.7960  134.5940 O   0  0  0  0  0  0  0  0  0  0  0  0
  183.3550  177.2240  139.9570 N   0  0  0  0  0  2  0  0  0  0  0  0
  182.1960  176.7510  139.2570 C   0  0  0  0  0  0  0  0  0  0  0  0
  181.0570  177.2330  139.5150 O   0  0  0  0  0  0  0  0  0  0  0  0
  182.3100  175.7620  138.2280 N   0  0  0  0  0  2  0  0  0  0  0  0
  183.2630  178.2290  141.0040 C   0  0  0  0  0  2  0  0  0  0  0  0
  184.6530  178.6620  141.4450 C   0  0  0  0  0  2  0  0  0  0  0  0
  184.6920  178.2370  145.2700 C   0  0  2  0  0  3  0  0  0  0  0  0
  185.0090  178.0190  142.7740 C   0  0  1  0  0  3  0  0  0  0  0  0
  186.2080  178.2910  145.4610 C   0  0  0  0  0  2  0  0  0  0  0  0
  186.5310  178.0830  142.9770 C   0  0  0  0  0  2  0  0  0  0  0  0
  184.2970  178.7880  143.8940 C   0  0  0  0  0  2  0  0  0  0  0  0
  186.9160  177.5180  144.3460 C   0  0  0  0  0  2  0  0  0  0  0  0
  184.0760  179.0070  146.2550 O   0  0  0  0  0  1  0  0  0  0  0  0
  188.4570  179.2050  137.9070 O   0  0  0  0  0  0  0  0  0  0  0  0
  187.8220  178.0670  139.7890 O   0  0  0  0  0  1  0  0  0  0  0  0
  187.7730  178.1750  138.5350 C   0  0  0  0  0  0  0  0  0  0  0  0
  191.3020  175.2810  136.0370 C   0  0  0  0  0  2  0  0  0  0  0  0
  193.1620  174.4590  137.3890 C   0  0  0  0  0  0  0  0  0  0  0  0
  194.1100  173.5720  137.5440 C   0  0  0  0  0  3  0  0  0  0  0  0
  192.2040  175.3400  137.2400 C   0  0  0  0  0  0  0  0  0  0  0  0
  192.2560  176.5920  138.0580 C   0  0  1  0  0  3  0  0  0  0  0  0
  191.1840  176.6200  138.9660 O   0  0  0  0  0  0  0  0  0  0  0  0
  191.6840  177.3230  140.0610 C   0  0  2  0  0  3  0  0  0  0  0  0
  193.4850  176.6720  138.7380 O   0  0  0  0  0  0  0  0  0  0  0  0
  193.1800  177.3450  139.9120 C   0  0  0  0  0  2  0  0  0  0  0  0
  190.5600  177.5530  141.9660 C   0  0  0  0  0  1  0  0  0  0  0  0
  191.3510  176.6510  141.2480 O   0  0  0  0  0  0  0  0  0  0  0  0
  196.0670  175.0240  138.0340 O   0  0  0  0  0  0  0  0  0  0  0  0
  195.7470  173.0610  139.1740 O   0  0  0  0  0  1  0  0  0  0  0  0
  195.3370  173.8660  138.2990 C   0  0  0  0  0  0  0  0  0  0  0  0
  1 33  1  6  0  0  0
  2  4  1  0  0  0  0
  3  5  1  0  0  0  0
  3 11  1  0  0  0  0
  4 12  2  0  0  0  0
  6 21  1  6  0  0  0
  7 13  1  0  0  0  0
  7 14  1  0  0  0  0
  8  5  1  6  0  0  0
  8  6  1  0  0  0  0
  9 12  1  0  0  0  0
  9 15  1  0  0  0  0
 10  2  2  0  0  0  0
 10 16  1  0  0  0  0
 11  1  1  0  0  0  0
 12  1  1  0  0  0  0
 13  6  1  0  0  0  0
 15  8  1  0  0  0  0
 15 14  1  0  0  0  0
 16  9  2  0  0  0  0
 17  3  2  0  0  0  0
 18 22  1  0  0  0  0
 19 20  2  0  0  0  0
 19 18  1  0  0  0  0
 21 19  1  0  0  0  0
 22 23  1  0  0  0  0
 24 26  1  0  0  0  0
 24 30  1  1  0  0  0
 25 23  1  6  0  0  0
 25 27  1  0  0  0  0
 25 28  1  0  0  0  0
 27 29  1  0  0  0  0
 28 24  1  0  0  0  0
 29 26  1  0  0  0  0
 31 33  2  0  0  0  0
 33 32  1  0  0  0  0
 34  2  1  0  0  0  0
 34 37  1  0  0  0  0
 35 36  2  0  0  0  0
 36 47  1  0  0  0  0
 37 35  2  0  0  0  0
 38 37  1  1  0  0  0
 38 41  1  0  0  0  0
 38 39  1  0  0  0  0
 39 40  1  0  0  0  0
 40 44  1  1  0  0  0
 41 42  1  0  0  0  0
 42 40  1  0  0  0  0
 44 43  1  0  0  0  0
 45 47  2  0  0  0  0
 47 46  1  0  0  0  0
M  END
>  <MODEL>
3

>  <REMARK>
 VINA RESULT:      -8.5      2.595      5.000
  Name = 
  10 active torsions:
  status: ('A' for Active; 'I' for Inactive)
    1  A    between atoms: C_2  and  C_46
    2  A    between atoms: CA_3  and  C_47
    3  A    between atoms: C_4  and  C_44
    4  A    between atoms: N_11  and  C_34
    5  A    between atoms: O_15  and  C_29
    6  A    between atoms: C_18  and  N_32
    7  A    between atoms: C_21  and  C_28
    8  A    between atoms: C_22  and  C_35
    9  A    between atoms: C_28  and  C_44
   10  A    between atoms: C_34  and  C_46
                            x       y       z     vdW  Elec       q    Type
                         _______ _______ _______ _____ _____    ______ ____

>  <TORSDO>
F 10

$$$$
=
 OpenBabel10222415253D

 47 51  0  0  1  0  0  0  0  0999 V2000
  189.9680  176.3770  137.6840 C   0  0  1  0  0  3  0  0  0  0  0  0
  190.8590  173.0550  136.0340 C   0  0  0  0  0  0  0  0  0  0  0  0
  189.0320  177.7690  135.7580 C   0  0  0  0  0  0  0  0  0  0  0  0
  190.9670  174.3100  136.6410 C   0  0  0  0  0  3  0  0  0  0  0  0
  187.5770  177.4420  135.9760 C   0  0  0  0  0  2  0  0  0  0  0  0
  185.7550  176.9710  137.6370 C   0  0  2  0  0  3  0  0  0  0  0  0
  185.2810  175.0490  136.0770 C   0  0  0  0  0  2  0  0  0  0  0  0
  187.2190  176.6640  137.2500 C   0  0  1  0  0  3  0  0  0  0  0  0
  188.5430  174.5200  136.6840 C   0  0  0  0  0  0  0  0  0  0  0  0
  189.6000  172.5100  135.8030 C   0  0  0  0  0  3  0  0  0  0  0  0
  190.0730  177.4280  136.6830 N   0  0  0  0  0  2  0  0  0  0  0  0
  189.8200  175.0380  137.0120 C   0  0  0  0  0  0  0  0  0  0  0  0
  184.7440  176.3710  136.6450 C   0  0  0  0  0  2  0  0  0  0  0  0
  186.1530  174.4650  137.0140 O   0  0  0  0  0  0  0  0  0  0  0  0
  187.3050  175.2130  136.9750 N   0  0  0  0  0  0  0  0  0  0  0  0
  188.4560  173.2410  136.1170 C   0  0  0  0  0  3  0  0  0  0  0  0
  189.3460  178.3780  134.7020 O   0  0  0  0  0  0  0  0  0  0  0  0
  184.5830  178.0010  140.2730 N   0  0  0  0  0  2  0  0  0  0  0  0
  184.7830  178.8440  139.1300 C   0  0  0  0  0  0  0  0  0  0  0  0
  184.3580  180.0340  139.1380 O   0  0  0  0  0  0  0  0  0  0  0  0
  185.5010  178.3740  137.9850 N   0  0  0  0  0  2  0  0  0  0  0  0
  183.8590  178.4580  141.4490 C   0  0  0  0  0  2  0  0  0  0  0  0
  184.7940  179.2060  142.3870 C   0  0  0  0  0  2  0  0  0  0  0  0
  185.4940  178.3740  146.0780 C   0  0  2  0  0  3  0  0  0  0  0  0
  185.1590  178.3340  143.5760 C   0  0  1  0  0  3  0  0  0  0  0  0
  186.9210  177.8530  145.8980 C   0  0  0  0  0  2  0  0  0  0  0  0
  186.5960  177.8200  143.4060 C   0  0  0  0  0  2  0  0  0  0  0  0
  185.0500  179.1800  144.8520 C   0  0  0  0  0  2  0  0  0  0  0  0
  187.0250  177.0050  144.6280 C   0  0  0  0  0  2  0  0  0  0  0  0
  185.4430  179.1990  147.2000 O   0  0  0  0  0  1  0  0  0  0  0  0
  190.9370  176.0850  139.9670 O   0  0  0  0  0  1  0  0  0  0  0  0
  192.2610  176.8120  138.2470 O   0  0  0  0  0  0  0  0  0  0  0  0
  191.1220  176.4460  138.6410 C   0  0  0  0  0  0  0  0  0  0  0  0
  192.0810  172.2610  135.7030 C   0  0  0  0  0  2  0  0  0  0  0  0
  193.6360  174.0950  135.2810 C   0  0  0  0  0  0  0  0  0  0  0  0
  193.9190  175.1710  134.5940 C   0  0  0  0  0  3  0  0  0  0  0  0
  193.3600  173.0100  135.9610 C   0  0  0  0  0  0  0  0  0  0  0  0
  194.1230  172.7460  137.2210 C   0  0  1  0  0  3  0  0  0  0  0  0
  195.4390  172.3580  136.9150 O   0  0  0  0  0  0  0  0  0  0  0  0
  196.1920  172.8320  137.9880 C   0  0  2  0  0  3  0  0  0  0  0  0
  194.1210  173.8940  138.0350 O   0  0  0  0  0  0  0  0  0  0  0  0
  195.3340  173.8360  138.7060 C   0  0  0  0  0  2  0  0  0  0  0  0
  197.6210  174.4730  138.4480 C   0  0  0  0  0  1  0  0  0  0  0  0
  197.3470  173.4730  137.5110 O   0  0  0  0  0  0  0  0  0  0  0  0
  194.7180  177.5250  134.5950 O   0  0  0  0  0  0  0  0  0  0  0  0
  195.5720  175.9940  136.0730 O   0  0  0  0  0  1  0  0  0  0  0  0
  194.7720  176.2400  135.1340 C   0  0  0  0  0  0  0  0  0  0  0  0
  1 33  1  6  0  0  0
  2  4  1  0  0  0  0
  3  5  1  0  0  0  0
  3 11  1  0  0  0  0
  4 12  2  0  0  0  0
  6 21  1  6  0  0  0
  7 13  1  0  0  0  0
  7 14  1  0  0  0  0
  8  5  1  6  0  0  0
  8  6  1  0  0  0  0
  9 15  1  0  0  0  0
  9 12  1  0  0  0  0
 10  2  2  0  0  0  0
 10 16  1  0  0  0  0
 11  1  1  0  0  0  0
 12  1  1  0  0  0  0
 13  6  1  0  0  0  0
 15 14  1  0  0  0  0
 15  8  1  0  0  0  0
 16  9  2  0  0  0  0
 17  3  2  0  0  0  0
 18 22  1  0  0  0  0
 19 20  2  0  0  0  0
 19 18  1  0  0  0  0
 21 19  1  0  0  0  0
 22 23  1  0  0  0  0
 24 30  1  1  0  0  0
 25 23  1  6  0  0  0
 25 28  1  0  0  0  0
 26 24  1  0  0  0  0
 27 25  1  0  0  0  0
 27 29  1  0  0  0  0
 28 24  1  0  0  0  0
 29 26  1  0  0  0  0
 32 33  2  0  0  0  0
 33 31  1  0  0  0  0
 34 37  1  0  0  0  0
 34  2  1  0  0  0  0
 35 37  2  0  0  0  0
 36 47  1  0  0  0  0
 36 35  2  0  0  0  0
 38 37  1  6  0  0  0
 38 41  1  0  0  0  0
 39 38  1  0  0  0  0
 39 40  1  0  0  0  0
 40 44  1  6  0  0  0
 40 42  1  0  0  0  0
 41 42  1  0  0  0  0
 44 43  1  0  0  0  0
 45 47  2  0  0  0  0
 47 46  1  0  0  0  0
M  END
>  <MODEL>
4

>  <REMARK>
 VINA RESULT:      -8.1      3.792      6.408
  Name = 
  10 active torsions:
  status: ('A' for Active; 'I' for Inactive)
    1  A    between atoms: C_2  and  C_46
    2  A    between atoms: CA_3  and  C_47
    3  A    between atoms: C_4  and  C_44
    4  A    between atoms: N_11  and  C_34
    5  A    between atoms: O_15  and  C_29
    6  A    between atoms: C_18  and  N_32
    7  A    between atoms: C_21  and  C_28
    8  A    between atoms: C_22  and  C_35
    9  A    between atoms: C_28  and  C_44
   10  A    between atoms: C_34  and  C_46
                            x       y       z     vdW  Elec       q    Type
                         _______ _______ _______ _____ _____    ______ ____

>  <TORSDO>
F 10

$$$$
=
 OpenBabel10222415253D

 47 51  0  0  1  0  0  0  0  0999 V2000
  187.8840  176.8580  137.7280 C   0  0  1  0  0  3  0  0  0  0  0  0
  189.5360  173.6950  136.3810 C   0  0  0  0  0  0  0  0  0  0  0  0
  186.5870  177.7570  135.7210 C   0  0  0  0  0  0  0  0  0  0  0  0
  189.3420  174.9960  136.8520 C   0  0  0  0  0  3  0  0  0  0  0  0
  185.2650  177.1100  136.0420 C   0  0  0  0  0  2  0  0  0  0  0  0
  183.6560  176.3920  137.8310 C   0  0  2  0  0  3  0  0  0  0  0  0
  183.6400  174.2530  136.4980 C   0  0  0  0  0  2  0  0  0  0  0  0
  185.1410  176.4120  137.4050 C   0  0  1  0  0  3  0  0  0  0  0  0
  186.9440  174.6090  136.9930 C   0  0  0  0  0  0  0  0  0  0  0  0
  188.4470  172.8350  136.2690 C   0  0  0  0  0  3  0  0  0  0  0  0
  187.7010  177.7860  136.6220 N   0  0  0  0  0  2  0  0  0  0  0  0
  188.0590  175.4570  137.2030 C   0  0  0  0  0  0  0  0  0  0  0  0
  182.8040  175.4580  136.9560 C   0  0  0  0  0  2  0  0  0  0  0  0
  184.6510  174.0070  137.4450 O   0  0  0  0  0  0  0  0  0  0  0  0
  185.5800  175.0060  137.2730 N   0  0  0  0  0  0  0  0  0  0  0  0
  187.1650  173.2940  136.5640 C   0  0  0  0  0  3  0  0  0  0  0  0
  186.7150  178.3040  134.5940 O   0  0  0  0  0  0  0  0  0  0  0  0
  183.6030  177.9410  140.4720 N   0  0  0  0  0  2  0  0  0  0  0  0
  182.8740  178.3620  139.3110 C   0  0  0  0  0  0  0  0  0  0  0  0
  182.0740  179.3370  139.3830 O   0  0  0  0  0  0  0  0  0  0  0  0
  183.0690  177.7200  138.0470 N   0  0  0  0  0  2  0  0  0  0  0  0
  183.4230  178.5810  141.7660 C   0  0  0  0  0  2  0  0  0  0  0  0
  184.7580  179.0780  142.3000 C   0  0  0  0  0  2  0  0  0  0  0  0
  185.5150  178.2920  145.9910 C   0  0  2  0  0  3  0  0  0  0  0  0
  185.1990  178.2370  143.4860 C   0  0  1  0  0  3  0  0  0  0  0  0
  186.9870  177.9140  145.8160 C   0  0  0  0  0  2  0  0  0  0  0  0
  186.6810  177.8660  143.3210 C   0  0  0  0  0  2  0  0  0  0  0  0
  185.0010  179.0600  144.7670 C   0  0  0  0  0  2  0  0  0  0  0  0
  187.1800  177.0890  144.5410 C   0  0  0  0  0  2  0  0  0  0  0  0
  185.3780  179.1020  147.1170 O   0  0  0  0  0  1  0  0  0  0  0  0
  189.7750  178.4060  138.2440 O   0  0  0  0  0  0  0  0  0  0  0  0
  189.2480  176.7190  139.7000 O   0  0  0  0  0  1  0  0  0  0  0  0
  189.0070  177.3120  138.6150 C   0  0  0  0  0  0  0  0  0  0  0  0
  190.9090  173.1920  136.0710 C   0  0  0  0  0  2  0  0  0  0  0  0
  192.1150  174.9350  137.2830 C   0  0  0  0  0  0  0  0  0  0  0  0
  192.2580  175.6180  138.3890 C   0  0  0  0  0  3  0  0  0  0  0  0
  191.9640  174.2600  136.1700 C   0  0  0  0  0  0  0  0  0  0  0  0
  193.0670  174.2990  135.1600 C   0  0  1  0  0  3  0  0  0  0  0  0
  193.6390  175.5820  135.1190 O   0  0  0  0  0  0  0  0  0  0  0  0
  194.9710  175.3500  134.7810 C   0  0  2  0  0  3  0  0  0  0  0  0
  194.0400  173.3320  135.4720 O   0  0  0  0  0  0  0  0  0  0  0  0
  195.2280  173.8890  135.0220 C   0  0  0  0  0  2  0  0  0  0  0  0
  197.0930  175.5950  135.4020 C   0  0  0  0  0  1  0  0  0  0  0  0
  195.8100  176.1070  135.6150 O   0  0  0  0  0  0  0  0  0  0  0  0
  193.5800  177.3830  139.5350 O   0  0  0  0  0  1  0  0  0  0  0  0
  194.6220  175.6770  138.4120 O   0  0  0  0  0  0  0  0  0  0  0  0
  193.5450  176.2120  138.7780 C   0  0  0  0  0  0  0  0  0  0  0  0
  1 33  1  6  0  0  0
  2  4  1  0  0  0  0
  3  5  1  0  0  0  0
  3 11  1  0  0  0  0
  4 12  2  0  0  0  0
  6 21  1  6  0  0  0
  7 13  1  0  0  0  0
  7 14  1  0  0  0  0
  8  5  1  6  0  0  0
  8  6  1  0  0  0  0
  9 12  1  0  0  0  0
  9 15  1  0  0  0  0
 10  2  2  0  0  0  0
 10 16  1  0  0  0  0
 11  1  1  0  0  0  0
 12  1  1  0  0  0  0
 13  6  1  0  0  0  0
 15  8  1  0  0  0  0
 15 14  1  0  0  0  0
 16  9  2  0  0  0  0
 17  3  2  0  0  0  0
 18 22  1  0  0  0  0
 19 20  2  0  0  0  0
 19 18  1  0  0  0  0
 21 19  1  0  0  0  0
 22 23  1  0  0  0  0
 24 30  1  1  0  0  0
 25 23  1  6  0  0  0
 25 28  1  0  0  0  0
 26 24  1  0  0  0  0
 27 25  1  0  0  0  0
 27 29  1  0  0  0  0
 28 24  1  0  0  0  0
 29 26  1  0  0  0  0
 31 33  2  0  0  0  0
 33 32  1  0  0  0  0
 34 37  1  0  0  0  0
 34  2  1  0  0  0  0
 35 36  2  0  0  0  0
 36 47  1  0  0  0  0
 37 35  2  0  0  0  0
 38 41  1  0  0  0  0
 38 37  1  1  0  0  0
 39 38  1  0  0  0  0
 40 42  1  0  0  0  0
 40 39  1  0  0  0  0
 40 44  1  1  0  0  0
 42 41  1  0  0  0  0
 43 44  1  0  0  0  0
 46 47  2  0  0  0  0
 47 45  1  0  0  0  0
M  END
>  <MODEL>
5

>  <REMARK>
 VINA RESULT:      -7.8      3.068      5.175
  Name = 
  10 active torsions:
  status: ('A' for Active; 'I' for Inactive)
    1  A    between atoms: C_2  and  C_46
    2  A    between atoms: CA_3  and  C_47
    3  A    between atoms: C_4  and  C_44
    4  A    between atoms: N_11  and  C_34
    5  A    between atoms: O_15  and  C_29
    6  A    between atoms: C_18  and  N_32
    7  A    between atoms: C_21  and  C_28
    8  A    between atoms: C_22  and  C_35
    9  A    between atoms: C_28  and  C_44
   10  A    between atoms: C_34  and  C_46
                            x       y       z     vdW  Elec       q    Type
                         _______ _______ _______ _____ _____    ______ ____

>  <TORSDO>
F 10

$$$$
=
 OpenBabel10222415253D

 47 51  0  0  1  0  0  0  0  0999 V2000
  186.8160  176.8860  137.4830 C   0  0  1  0  0  3  0  0  0  0  0  0
  189.2160  174.4070  135.8570 C   0  0  0  0  0  0  0  0  0  0  0  0
  184.9940  177.1980  135.7220 C   0  0  0  0  0  0  0  0  0  0  0  0
  188.6660  175.5880  136.3650 C   0  0  0  0  0  3  0  0  0  0  0  0
  184.0390  176.1590  136.2480 C   0  0  0  0  0  2  0  0  0  0  0  0
  183.0710  175.0240  138.2680 C   0  0  2  0  0  3  0  0  0  0  0  0
  183.5780  172.9460  136.9360 C   0  0  0  0  0  2  0  0  0  0  0  0
  184.3740  175.5250  137.6060 C   0  0  1  0  0  3  0  0  0  0  0  0
  186.5960  174.4200  136.8910 C   0  0  0  0  0  0  0  0  0  0  0  0
  188.4820  173.2270  135.9160 C   0  0  0  0  0  3  0  0  0  0  0  0
  186.1570  177.6440  136.4300 N   0  0  0  0  0  2  0  0  0  0  0  0
  187.3740  175.6040  136.9250 C   0  0  0  0  0  0  0  0  0  0  0  0
  182.4630  173.8170  137.5350 C   0  0  0  0  0  2  0  0  0  0  0  0
  184.7470  173.1010  137.7040 O   0  0  0  0  0  0  0  0  0  0  0  0
  185.2400  174.3450  137.3930 N   0  0  0  0  0  0  0  0  0  0  0  0
  187.1830  173.2380  136.4190 C   0  0  0  0  0  3  0  0  0  0  0  0
  184.7500  177.7030  134.5940 O   0  0  0  0  0  0  0  0  0  0  0  0
  183.4410  177.2400  140.3500 N   0  0  0  0  0  2  0  0  0  0  0  0
  182.1940  177.0020  139.6840 C   0  0  0  0  0  0  0  0  0  0  0  0
  181.1570  177.6320  140.0340 O   0  0  0  0  0  0  0  0  0  0  0  0
  182.1070  176.0840  138.5880 N   0  0  0  0  0  2  0  0  0  0  0  0
  183.5530  178.1690  141.4630 C   0  0  0  0  0  2  0  0  0  0  0  0
  184.9570  178.7520  141.5260 C   0  0  0  0  0  2  0  0  0  0  0  0
  186.8530  178.0650  144.8030 C   0  0  2  0  0  3  0  0  0  0  0  0
  185.3730  178.9730  142.9700 C   0  0  1  0  0  3  0  0  0  0  0  0
  185.6310  177.8950  145.7080 C   0  0  0  0  0  2  0  0  0  0  0  0
  184.1520  178.7900  143.8840 C   0  0  0  0  0  2  0  0  0  0  0  0
  186.4570  177.9470  143.3270 C   0  0  0  0  0  2  0  0  0  0  0  0
  184.5550  178.9240  145.3540 C   0  0  0  0  0  2  0  0  0  0  0  0
  187.7860  177.0730  145.0980 O   0  0  0  0  0  1  0  0  0  0  0  0
  188.2170  178.9490  137.6270 O   0  0  0  0  0  0  0  0  0  0  0  0
  188.3490  177.3600  139.2700 O   0  0  0  0  0  1  0  0  0  0  0  0
  187.8400  177.7340  138.1800 C   0  0  0  0  0  0  0  0  0  0  0  0
  190.6120  174.3840  135.3240 C   0  0  0  0  0  2  0  0  0  0  0  0
  192.1510  172.5690  135.8700 C   0  0  0  0  0  0  0  0  0  0  0  0
  192.7090  171.4440  135.5060 C   0  0  0  0  0  3  0  0  0  0  0  0
  191.5820  173.6890  136.2410 C   0  0  0  0  0  0  0  0  0  0  0  0
  192.1760  174.4430  137.3880 C   0  0  1  0  0  3  0  0  0  0  0  0
  193.4760  173.9770  137.6500 O   0  0  0  0  0  0  0  0  0  0  0  0
  194.1480  175.0980  138.1350 C   0  0  2  0  0  3  0  0  0  0  0  0
  192.1910  175.8210  137.1030 O   0  0  0  0  0  0  0  0  0  0  0  0
  193.3130  176.2930  137.7680 C   0  0  0  0  0  2  0  0  0  0  0  0
  195.9900  173.9460  137.6600 C   0  0  0  0  0  1  0  0  0  0  0  0
  195.4020  175.2050  137.5130 O   0  0  0  0  0  0  0  0  0  0  0  0
  195.1930  171.4970  135.4190 O   0  0  0  0  0  0  0  0  0  0  0  0
  194.0990  170.2210  136.9790 O   0  0  0  0  0  1  0  0  0  0  0  0
  194.0240  171.0250  136.0140 C   0  0  0  0  0  0  0  0  0  0  0  0
  1 33  1  6  0  0  0
  2 10  2  0  0  0  0
  2  4  1  0  0  0  0
  3  5  1  0  0  0  0
  3 11  1  0  0  0  0
  4 12  2  0  0  0  0
  6 21  1  6  0  0  0
  7 13  1  0  0  0  0
  7 14  1  0  0  0  0
  8  5  1  6  0  0  0
  8  6  1  0  0  0  0
  9 12  1  0  0  0  0
  9 15  1  0  0  0  0
 10 16  1  0  0  0  0
 11  1  1  0  0  0  0
 12  1  1  0  0  0  0
 13  6  1  0  0  0  0
 15  8  1  0  0  0  0
 15 14  1  0  0  0  0
 16  9  2  0  0  0  0
 17  3  2  0  0  0  0
 18 22  1  0  0  0  0
 19 20  2  0  0  0  0
 19 18  1  0  0  0  0
 21 19  1  0  0  0  0
 22 23  1  0  0  0  0
 24 30  1  1  0  0  0
 24 26  1  0  0  0  0
 25 23  1  6  0  0  0
 25 28  1  0  0  0  0
 25 27  1  0  0  0  0
 27 29  1  0  0  0  0
 28 24  1  0  0  0  0
 29 26  1  0  0  0  0
 31 33  2  0  0  0  0
 33 32  1  0  0  0  0
 34  2  1  0  0  0  0
 34 37  1  0  0  0  0
 35 37  2  0  0  0  0
 36 35  2  0  0  0  0
 36 47  1  0  0  0  0
 38 37  1  6  0  0  0
 38 39  1  0  0  0  0
 39 40  1  0  0  0  0
 40 44  1  6  0  0  0
 41 38  1  0  0  0  0
 41 42  1  0  0  0  0
 42 40  1  0  0  0  0
 44 43  1  0  0  0  0
 45 47  2  0  0  0  0
 47 46  1  0  0  0  0
M  END
>  <MODEL>
6

>  <REMARK>
 VINA RESULT:      -7.8      3.125      5.201
  Name = 
  10 active torsions:
  status: ('A' for Active; 'I' for Inactive)
    1  A    between atoms: C_2  and  C_46
    2  A    between atoms: CA_3  and  C_47
    3  A    between atoms: C_4  and  C_44
    4  A    between atoms: N_11  and  C_34
    5  A    between atoms: O_15  and  C_29
    6  A    between atoms: C_18  and  N_32
    7  A    between atoms: C_21  and  C_28
    8  A    between atoms: C_22  and  C_35
    9  A    between atoms: C_28  and  C_44
   10  A    between atoms: C_34  and  C_46
                            x       y       z     vdW  Elec       q    Type
                         _______ _______ _______ _____ _____    ______ ____

>  <TORSDO>
F 10

$$$$
=
 OpenBabel10222415253D

 47 51  0  0  1  0  0  0  0  0999 V2000
  187.9030  177.9930  139.9760 C   0  0  1  0  0  3  0  0  0  0  0  0
  190.6180  178.1080  142.6520 C   0  0  0  0  0  0  0  0  0  0  0  0
  188.9860  179.1520  137.9750 C   0  0  0  0  0  0  0  0  0  0  0  0
  189.4490  178.3680  141.9320 C   0  0  0  0  0  3  0  0  0  0  0  0
  189.5010  177.9120  137.2920 C   0  0  0  0  0  2  0  0  0  0  0  0
  189.1070  175.4920  136.7500 C   0  0  2  0  0  3  0  0  0  0  0  0
  191.4940  175.2700  137.5260 C   0  0  0  0  0  2  0  0  0  0  0  0
  189.0530  176.5600  137.8660 C   0  0  1  0  0  3  0  0  0  0  0  0
  190.1570  176.8290  140.1850 C   0  0  0  0  0  0  0  0  0  0  0  0
  191.5270  177.1710  142.1700 C   0  0  0  0  0  3  0  0  0  0  0  0
  188.0850  179.1330  139.0890 N   0  0  0  0  0  2  0  0  0  0  0  0
  189.1810  177.7070  140.7180 C   0  0  0  0  0  0  0  0  0  0  0  0
  190.5450  175.1560  136.3240 C   0  0  0  0  0  2  0  0  0  0  0  0
  190.7710  175.0220  138.7090 O   0  0  0  0  0  0  0  0  0  0  0  0
  190.0020  176.1410  138.9210 N   0  0  0  0  0  0  0  0  0  0  0  0
  191.3010  176.5470  140.9450 C   0  0  0  0  0  3  0  0  0  0  0  0
  189.3700  180.2680  137.5360 O   0  0  0  0  0  0  0  0  0  0  0  0
  186.1120  176.0950  136.9690 N   0  0  0  0  0  2  0  0  0  0  0  0
  186.7610  175.8300  135.7180 C   0  0  0  0  0  0  0  0  0  0  0  0
  186.0780  175.7130  134.6610 O   0  0  0  0  0  0  0  0  0  0  0  0
  188.1870  175.7360  135.6330 N   0  0  0  0  0  2  0  0  0  0  0  0
  184.6650  176.1970  137.0780 C   0  0  0  0  0  2  0  0  0  0  0  0
  184.2750  177.5200  137.7180 C   0  0  0  0  0  2  0  0  0  0  0  0
  181.0640  178.8100  139.4030 C   0  0  2  0  0  3  0  0  0  0  0  0
  182.8390  177.4670  138.2090 C   0  0  1  0  0  3  0  0  0  0  0  0
  180.9360  177.7090  140.4570 C   0  0  0  0  0  2  0  0  0  0  0  0
  182.7080  176.3720  139.2780 C   0  0  0  0  0  2  0  0  0  0  0  0
  182.4780  178.8330  138.8090 C   0  0  0  0  0  2  0  0  0  0  0  0
  181.2910  176.3480  139.8540 C   0  0  0  0  0  2  0  0  0  0  0  0
  180.8070  180.0460  139.9940 O   0  0  0  0  0  1  0  0  0  0  0  0
  186.6870  177.6050  142.1230 O   0  0  0  0  0  1  0  0  0  0  0  0
  185.7670  178.9490  140.5140 O   0  0  0  0  0  0  0  0  0  0  0  0
  186.7210  178.2100  140.8750 C   0  0  0  0  0  0  0  0  0  0  0  0
  190.8650  178.7650  143.9710 C   0  0  0  0  0  2  0  0  0  0  0  0
  191.2640  176.9970  145.6080 C   0  0  0  0  0  0  0  0  0  0  0  0
  192.0690  176.0740  146.0660 C   0  0  0  0  0  3  0  0  0  0  0  0
  190.4520  177.9130  145.1410 C   0  0  0  0  0  0  0  0  0  0  0  0
  189.3020  178.3460  145.9950 C   0  0  1  0  0  3  0  0  0  0  0  0
  188.1610  178.5500  145.2000 O   0  0  0  0  0  0  0  0  0  0  0  0
  187.0970  178.2280  146.0420 C   0  0  2  0  0  3  0  0  0  0  0  0
  189.0490  177.3810  146.9880 O   0  0  0  0  0  0  0  0  0  0  0  0
  187.6790  177.4600  147.1950 C   0  0  0  0  0  2  0  0  0  0  0  0
  185.1130  178.2470  145.0370 C   0  0  0  0  0  1  0  0  0  0  0  0
  186.1840  177.4080  145.3590 O   0  0  0  0  0  0  0  0  0  0  0  0
  193.0300  176.0220  148.3580 O   0  0  0  0  0  1  0  0  0  0  0  0
  191.1040  174.8790  147.8660 O   0  0  0  0  0  0  0  0  0  0  0  0
  192.0300  175.6320  147.4680 C   0  0  0  0  0  0  0  0  0  0  0  0
  1 12  1  0  0  0  0
  1 33  1  1  0  0  0
  2 34  1  0  0  0  0
  3 11  1  0  0  0  0
  4  2  2  0  0  0  0
  5  3  1  0  0  0  0
  6 21  1  6  0  0  0
  6  8  1  0  0  0  0
  7 14  1  0  0  0  0
  8  5  1  6  0  0  0
  8 15  1  0  0  0  0
  9 12  2  0  0  0  0
  9 16  1  0  0  0  0
 10  2  1  0  0  0  0
 11  1  1  0  0  0  0
 12  4  1  0  0  0  0
 13  6  1  0  0  0  0
 13  7  1  0  0  0  0
 14 15  1  0  0  0  0
 15  9  1  0  0  0  0
 16 10  2  0  0  0  0
 17  3  2  0  0  0  0
 18 22  1  0  0  0  0
 19 18  1  0  0  0  0
 20 19  2  0  0  0  0
 21 19  1  0  0  0  0
 22 23  1  0  0  0  0
 24 30  1  1  0  0  0
 24 26  1  0  0  0  0
 25 23  1  1  0  0  0
 25 28  1  0  0  0  0
 25 27  1  0  0  0  0
 27 29  1  0  0  0  0
 28 24  1  0  0  0  0
 29 26  1  0  0  0  0
 32 33  2  0  0  0  0
 33 31  1  0  0  0  0
 34 37  1  0  0  0  0
 35 36  2  0  0  0  0
 36 47  1  0  0  0  0
 37 35  2  0  0  0  0
 38 37  1  6  0  0  0
 38 41  1  0  0  0  0
 39 38  1  0  0  0  0
 39 40  1  0  0  0  0
 40 44  1  6  0  0  0
 40 42  1  0  0  0  0
 41 42  1  0  0  0  0
 43 44  1  0  0  0  0
 47 46  2  0  0  0  0
 47 45  1  0  0  0  0
M  END
>  <MODEL>
7

>  <REMARK>
 VINA RESULT:      -7.6      3.035      8.650
  Name = 
  10 active torsions:
  status: ('A' for Active; 'I' for Inactive)
    1  A    between atoms: C_2  and  C_46
    2  A    between atoms: CA_3  and  C_47
    3  A    between atoms: C_4  and  C_44
    4  A    between atoms: N_11  and  C_34
    5  A    between atoms: O_15  and  C_29
    6  A    between atoms: C_18  and  N_32
    7  A    between atoms: C_21  and  C_28
    8  A    between atoms: C_22  and  C_35
    9  A    between atoms: C_28  and  C_44
   10  A    between atoms: C_34  and  C_46
                            x       y       z     vdW  Elec       q    Type
                         _______ _______ _______ _____ _____    ______ ____

>  <TORSDO>
F 10

$$$$
=
 OpenBabel10222415253D

 47 51  0  0  1  0  0  0  0  0999 V2000
  189.7380  176.3650  137.5080 C   0  0  1  0  0  3  0  0  0  0  0  0
  190.4160  173.0330  135.7780 C   0  0  0  0  0  0  0  0  0  0  0  0
  188.6710  177.7850  135.6740 C   0  0  0  0  0  0  0  0  0  0  0  0
  190.6010  174.2830  136.3780 C   0  0  0  0  0  3  0  0  0  0  0  0
  187.2340  177.4880  136.0140 C   0  0  0  0  0  2  0  0  0  0  0  0
  185.5500  177.0450  137.8220 C   0  0  2  0  0  3  0  0  0  0  0  0
  184.9050  175.1420  136.3020 C   0  0  0  0  0  2  0  0  0  0  0  0
  186.9690  176.7100  137.3110 C   0  0  1  0  0  3  0  0  0  0  0  0
  188.1950  174.5420  136.6270 C   0  0  0  0  0  0  0  0  0  0  0  0
  189.1310  172.5160  135.6530 C   0  0  0  0  0  3  0  0  0  0  0  0
  189.7800  177.4190  136.5050 N   0  0  0  0  0  2  0  0  0  0  0  0
  189.5060  175.0320  136.8470 C   0  0  0  0  0  0  0  0  0  0  0  0
  184.4460  176.4720  136.9180 C   0  0  0  0  0  2  0  0  0  0  0  0
  185.8410  174.5350  137.1590 O   0  0  0  0  0  0  0  0  0  0  0  0
  187.0010  175.2590  137.0240 N   0  0  0  0  0  0  0  0  0  0  0  0
  188.0330  173.2680  136.0660 C   0  0  0  0  0  3  0  0  0  0  0  0
  188.9070  178.3930  134.5960 O   0  0  0  0  0  0  0  0  0  0  0  0
  184.4870  178.0800  140.5020 N   0  0  0  0  0  2  0  0  0  0  0  0
  184.6860  178.9320  139.3650 C   0  0  0  0  0  0  0  0  0  0  0  0
  184.3050  180.1350  139.4000 O   0  0  0  0  0  0  0  0  0  0  0  0
  185.3560  178.4520  138.1950 N   0  0  0  0  0  2  0  0  0  0  0  0
  183.8120  178.5460  141.7030 C   0  0  0  0  0  2  0  0  0  0  0  0
  184.7900  179.2800  142.6080 C   0  0  0  0  0  2  0  0  0  0  0  0
  185.6530  178.3900  146.2510 C   0  0  2  0  0  3  0  0  0  0  0  0
  185.2090  178.3900  143.7650 C   0  0  1  0  0  3  0  0  0  0  0  0
  187.0730  177.8770  146.0000 C   0  0  0  0  0  2  0  0  0  0  0  0
  186.6390  177.8830  143.5240 C   0  0  0  0  0  2  0  0  0  0  0  0
  185.1540  179.2140  145.0590 C   0  0  0  0  0  2  0  0  0  0  0  0
  187.1220  177.0500  144.7130 C   0  0  0  0  0  2  0  0  0  0  0  0
  185.6500  179.1970  147.3870 O   0  0  0  0  0  1  0  0  0  0  0  0
  190.8980  176.0140  139.6920 O   0  0  0  0  0  1  0  0  0  0  0  0
  192.0750  176.7750  137.8820 O   0  0  0  0  0  0  0  0  0  0  0  0
  190.9710  176.4050  138.3630 C   0  0  0  0  0  0  0  0  0  0  0  0
  191.5880  172.2160  135.3410 C   0  0  0  0  0  2  0  0  0  0  0  0
  193.7270  171.7690  136.4310 C   0  0  0  0  0  0  0  0  0  0  0  0
  194.5640  170.8830  136.9040 C   0  0  0  0  0  3  0  0  0  0  0  0
  192.8820  172.6570  135.9690 C   0  0  0  0  0  0  0  0  0  0  0  0
  193.3730  174.0510  135.7370 C   0  0  1  0  0  3  0  0  0  0  0  0
  194.0690  174.5130  136.8670 O   0  0  0  0  0  0  0  0  0  0  0  0
  195.0280  175.3800  136.3460 C   0  0  2  0  0  3  0  0  0  0  0  0
  194.1980  174.0880  134.5970 O   0  0  0  0  0  0  0  0  0  0  0  0
  195.1140  175.0930  134.8730 C   0  0  0  0  0  2  0  0  0  0  0  0
  197.0970  174.7060  135.8860 C   0  0  0  0  0  1  0  0  0  0  0  0
  196.2740  175.1210  136.9380 O   0  0  0  0  0  0  0  0  0  0  0  0
  196.5400  171.8820  138.0340 O   0  0  0  0  0  1  0  0  0  0  0  0
  196.7750  170.7050  136.0810 O   0  0  0  0  0  0  0  0  0  0  0  0
  196.0100  171.1390  136.9800 C   0  0  0  0  0  0  0  0  0  0  0  0
  1 33  1  6  0  0  0
  2  4  1  0  0  0  0
  3  5  1  0  0  0  0
  3 11  1  0  0  0  0
  4 12  2  0  0  0  0
  6 21  1  6  0  0  0
  7 13  1  0  0  0  0
  7 14  1  0  0  0  0
  8  5  1  6  0  0  0
  8  6  1  0  0  0  0
  9 12  1  0  0  0  0
  9 15  1  0  0  0  0
 10  2  2  0  0  0  0
 10 16  1  0  0  0  0
 11  1  1  0  0  0  0
 12  1  1  0  0  0  0
 13  6  1  0  0  0  0
 15 14  1  0  0  0  0
 15  8  1  0  0  0  0
 16  9  2  0  0  0  0
 17  3  2  0  0  0  0
 18 22  1  0  0  0  0
 19 20  2  0  0  0  0
 19 18  1  0  0  0  0
 21 19  1  0  0  0  0
 22 23  1  0  0  0  0
 24 30  1  1  0  0  0
 25 23  1  6  0  0  0
 25 28  1  0  0  0  0
 26 24  1  0  0  0  0
 27 25  1  0  0  0  0
 27 29  1  0  0  0  0
 28 24  1  0  0  0  0
 29 26  1  0  0  0  0
 32 33  2  0  0  0  0
 33 31  1  0  0  0  0
 34  2  1  0  0  0  0
 34 37  1  0  0  0  0
 35 36  2  0  0  0  0
 36 47  1  0  0  0  0
 37 35  2  0  0  0  0
 38 37  1  1  0  0  0
 38 39  1  0  0  0  0
 40 39  1  0  0  0  0
 40 44  1  1  0  0  0
 41 42  1  0  0  0  0
 41 38  1  0  0  0  0
 42 40  1  0  0  0  0
 43 44  1  0  0  0  0
 46 47  2  0  0  0  0
 47 45  1  0  0  0  0
M  END
>  <MODEL>
8

>  <REMARK>
 VINA RESULT:      -7.4      3.931      6.350
  Name = 
  10 active torsions:
  status: ('A' for Active; 'I' for Inactive)
    1  A    between atoms: C_2  and  C_46
    2  A    between atoms: CA_3  and  C_47
    3  A    between atoms: C_4  and  C_44
    4  A    between atoms: N_11  and  C_34
    5  A    between atoms: O_15  and  C_29
    6  A    between atoms: C_18  and  N_32
    7  A    between atoms: C_21  and  C_28
    8  A    between atoms: C_22  and  C_35
    9  A    between atoms: C_28  and  C_44
   10  A    between atoms: C_34  and  C_46
                            x       y       z     vdW  Elec       q    Type
                         _______ _______ _______ _____ _____    ______ ____

>  <TORSDO>
F 10

$$$$
=
 OpenBabel10222415253D

 47 51  0  0  1  0  0  0  0  0999 V2000
  187.1130  176.3430  137.3360 C   0  0  1  0  0  3  0  0  0  0  0  0
  183.6220  177.7930  136.8310 C   0  0  0  0  0  0  0  0  0  0  0  0
  188.6320  178.3930  137.2520 C   0  0  0  0  0  0  0  0  0  0  0  0
  184.8290  177.1240  136.6090 C   0  0  0  0  0  3  0  0  0  0  0  0
  188.6880  178.6510  138.7350 C   0  0  0  0  0  2  0  0  0  0  0  0
  188.7430  177.6570  141.0400 C   0  0  2  0  0  3  0  0  0  0  0  0
  186.9520  179.3780  141.4680 C   0  0  0  0  0  2  0  0  0  0  0  0
  188.0660  177.5880  139.6530 C   0  0  1  0  0  3  0  0  0  0  0  0
  185.6410  177.8210  138.7950 C   0  0  0  0  0  0  0  0  0  0  0  0
  183.4030  178.4270  138.0500 C   0  0  0  0  0  3  0  0  0  0  0  0
  188.0710  177.2110  136.6680 N   0  0  0  0  0  2  0  0  0  0  0  0
  185.8330  177.0900  137.5960 C   0  0  0  0  0  0  0  0  0  0  0  0
  188.3840  178.9400  141.8090 C   0  0  0  0  0  2  0  0  0  0  0  0
  186.1980  178.2460  141.1040 O   0  0  0  0  0  0  0  0  0  0  0  0
  186.6310  177.8930  139.8480 N   0  0  0  0  0  0  0  0  0  0  0  0
  184.4070  178.4470  139.0160 C   0  0  0  0  0  3  0  0  0  0  0  0
  189.1080  179.2710  136.4840 O   0  0  0  0  0  0  0  0  0  0  0  0
  190.3910  176.6690  143.4250 N   0  0  0  0  0  2  0  0  0  0  0  0
  190.9860  177.0610  142.1800 C   0  0  0  0  0  0  0  0  0  0  0  0
  192.2420  177.1280  142.0700 O   0  0  0  0  0  0  0  0  0  0  0  0
  190.1760  177.3380  141.0330 N   0  0  0  0  0  2  0  0  0  0  0  0
  191.1950  176.3800  144.6020 C   0  0  0  0  0  2  0  0  0  0  0  0
  190.8870  177.3760  145.7100 C   0  0  0  0  0  2  0  0  0  0  0  0
  187.0650  177.7410  145.9620 C   0  0  2  0  0  3  0  0  0  0  0  0
  189.4970  177.1330  146.2690 C   0  0  1  0  0  3  0  0  0  0  0  0
  187.0080  178.2520  147.4030 C   0  0  0  0  0  2  0  0  0  0  0  0
  189.4300  177.6570  147.7120 C   0  0  0  0  0  2  0  0  0  0  0  0
  188.4820  177.8780  145.3910 C   0  0  0  0  0  2  0  0  0  0  0  0
  188.0170  177.5030  148.2760 C   0  0  0  0  0  2  0  0  0  0  0  0
  186.1900  178.4870  145.1740 O   0  0  0  0  0  1  0  0  0  0  0  0
  187.2420  175.0410  135.2080 O   0  0  0  0  0  0  0  0  0  0  0  0
  186.4870  174.0340  137.1200 O   0  0  0  0  0  1  0  0  0  0  0  0
  186.9210  175.0740  136.5570 C   0  0  0  0  0  0  0  0  0  0  0  0
  182.5360  177.7700  135.8050 C   0  0  0  0  0  2  0  0  0  0  0  0
  181.6050  175.5360  136.1300 C   0  0  0  0  0  0  0  0  0  0  0  0
  181.7920  174.2430  136.0920 C   0  0  0  0  0  3  0  0  0  0  0  0
  181.4130  176.8320  136.1560 C   0  0  0  0  0  0  0  0  0  0  0  0
  180.2170  177.3590  136.8840 C   0  0  1  0  0  3  0  0  0  0  0  0
  180.2540  176.9580  138.2300 O   0  0  0  0  0  0  0  0  0  0  0  0
  179.6210  177.9950  138.9130 C   0  0  2  0  0  3  0  0  0  0  0  0
  180.1730  178.7620  136.7850 O   0  0  0  0  0  0  0  0  0  0  0  0
  179.5800  179.1670  137.9730 C   0  0  0  0  0  2  0  0  0  0  0  0
  180.4040  179.7400  140.0480 C   0  0  0  0  0  1  0  0  0  0  0  0
  180.3710  178.3430  140.0480 O   0  0  0  0  0  0  0  0  0  0  0  0
  179.7980  173.7130  137.4780 O   0  0  0  0  0  1  0  0  0  0  0  0
  181.4660  172.1690  137.1830 O   0  0  0  0  0  0  0  0  0  0  0  0
  181.0180  173.3170  136.9330 C   0  0  0  0  0  0  0  0  0  0  0  0
  1 33  1  6  0  0  0
  1 12  1  0  0  0  0
  2 10  1  0  0  0  0
  3  5  1  0  0  0  0
  4  2  2  0  0  0  0
  4 12  1  0  0  0  0
  6 21  1  6  0  0  0
  6 13  1  0  0  0  0
  7 13  1  0  0  0  0
  8  5  1  6  0  0  0
  8 15  1  0  0  0  0
  8  6  1  0  0  0  0
  9 16  1  0  0  0  0
  9 15  1  0  0  0  0
 10 16  2  0  0  0  0
 11  3  1  0  0  0  0
 11  1  1  0  0  0  0
 12  9  2  0  0  0  0
 14  7  1  0  0  0  0
 15 14  1  0  0  0  0
 17  3  2  0  0  0  0
 18 22  1  0  0  0  0
 19 18  1  0  0  0  0
 20 19  2  0  0  0  0
 21 19  1  0  0  0  0
 22 23  1  0  0  0  0
 24 30  1  6  0  0  0
 24 26  1  0  0  0  0
 25 23  1  6  0  0  0
 25 27  1  0  0  0  0
 26 29  1  0  0  0  0
 27 29  1  0  0  0  0
 28 24  1  0  0  0  0
 28 25  1  0  0  0  0
 31 33  2  0  0  0  0
 33 32  1  0  0  0  0
 34 37  1  0  0  0  0
 34  2  1  0  0  0  0
 35 37  2  0  0  0  0
 36 35  2  0  0  0  0
 36 47  1  0  0  0  0
 38 37  1  6  0  0  0
 38 39  1  0  0  0  0
 39 40  1  0  0  0  0
 40 44  1  1  0  0  0
 41 38  1  0  0  0  0
 41 42  1  0  0  0  0
 42 40  1  0  0  0  0
 44 43  1  0  0  0  0
 47 46  2  0  0  0  0
 47 45  1  0  0  0  0
M  END
>  <MODEL>
9

>  <REMARK>
 VINA RESULT:      -7.0      2.909      7.062
  Name = 
  10 active torsions:
  status: ('A' for Active; 'I' for Inactive)
    1  A    between atoms: C_2  and  C_46
    2  A    between atoms: CA_3  and  C_47
    3  A    between atoms: C_4  and  C_44
    4  A    between atoms: N_11  and  C_34
    5  A    between atoms: O_15  and  C_29
    6  A    between atoms: C_18  and  N_32
    7  A    between atoms: C_21  and  C_28
    8  A    between atoms: C_22  and  C_35
    9  A    between atoms: C_28  and  C_44
   10  A    between atoms: C_34  and  C_46
                            x       y       z     vdW  Elec       q    Type
                         _______ _______ _______ _____ _____    ______ ____

>  <TORSDO>
F 10

$$$$
