=
 OpenBabel10222418083D

 25 27  0  0  1  0  0  0  0  0999 V2000
  189.3860  176.3420  143.9080 C   0  0  2  0  0  3  0  0  0  0  0  0
  187.7980  178.2220  142.1210 N   0  0  0  0  0  0  0  0  0  0  0  0
  190.1140  176.2350  142.6550 N   0  0  0  0  0  2  0  0  0  0  0  0
  190.7240  176.5760  140.3570 C   0  0  0  0  0  3  0  0  0  0  0  0
  187.3930  177.6810  143.2280 C   0  0  0  0  0  0  0  0  0  0  0  0
  188.6510  178.3340  139.8770 C   0  0  0  0  0  3  0  0  0  0  0  0
  190.5590  177.1660  139.1060 C   0  0  0  0  0  0  0  0  0  0  0  0
  189.8380  176.8700  141.3990 C   0  0  0  0  0  0  0  0  0  0  0  0
  188.7580  177.7670  141.1520 C   0  0  0  0  0  0  0  0  0  0  0  0
  189.5320  178.0250  138.8920 N   0  0  0  0  0  0  0  0  0  0  0  0
  187.8820  176.3460  143.6850 C   0  0  0  0  0  2  0  0  0  0  0  0
  190.5000  176.8890  147.3400 N   0  0  0  0  0  0  0  0  0  0  0  0
  189.9840  177.3800  144.8820 C   0  0  2  0  0  0  0  0  0  0  0  0
  191.3520  176.5980  145.8220 S   0  0  0  0  0  0  0  0  0  0  0  0
  188.5400  177.7970  148.2960 N   0  0  0  0  0  1  0  0  0  0  0  0
  188.9870  177.7870  145.8590 N   0  0  0  0  0  2  0  0  0  0  0  0
  189.3680  177.4760  147.1850 C   0  0  0  0  0  0  0  0  0  0  0  0
  190.5070  178.5700  144.1920 C   0  0  0  0  0  0  0  0  0  0  0  0
  190.9390  179.5460  143.6310 C   0  0  0  0  0  3  0  0  0  0  0  0
  191.4930  176.8320  137.9950 C   0  0  0  0  0  2  0  0  0  0  0  0
  193.3760  175.6930  137.7970 C   0  0  0  0  0  1  0  0  0  0  0  0
  192.7990  176.7620  138.4830 O   0  0  0  0  0  0  0  0  0  0  0  0
  186.4630  178.3820  144.0010 O   0  0  0  0  0  0  0  0  0  0  0  0
  185.0630  178.3040  143.7740 C   0  0  0  0  0  2  0  0  0  0  0  0
  184.3300  179.0030  144.8990 C   0  0  0  0  0  1  0  0  0  0  0  0
  1 11  1  6  0  0  0
  1 13  1  0  0  0  0
  2  5  2  0  0  0  0
  3  1  1  0  0  0  0
  4  8  1  0  0  0  0
  5 11  1  0  0  0  0
  5 23  1  0  0  0  0
  6  9  1  0  0  0  0
  7  4  2  0  0  0  0
  8  3  1  0  0  0  0
  9  8  2  0  0  0  0
  9  2  1  0  0  0  0
 10  7  1  0  0  0  0
 10  6  2  0  0  0  0
 13 18  1  6  0  0  0
 13 14  1  0  0  0  0
 13 16  1  0  0  0  0
 14 12  1  0  0  0  0
 16 17  1  0  0  0  0
 17 12  2  0  0  0  0
 17 15  1  0  0  0  0
 19 18  3  0  0  0  0
 20 22  1  0  0  0  0
 20  7  1  0  0  0  0
 21 22  1  0  0  0  0
 24 23  1  0  0  0  0
 24 25  1  0  0  0  0
M  END
>  <MODEL>
1

>  <REMARK>
 VINA RESULT:      -7.5      0.000      0.000
  Name = 
  6 active torsions:
  status: ('A' for Active; 'I' for Inactive)
    1  A    between atoms: C_1  and  C_12
    2  A    between atoms: C_6  and  O_20
    3  A    between atoms: C_8  and  O_20
    4  A    between atoms: C_9  and  C_14
    5  A    between atoms: C_12  and  C_19
    6  A    between atoms: C_14  and  O_22
                            x       y       z     vdW  Elec       q    Type
                         _______ _______ _______ _____ _____    ______ ____

>  <TORSDO>
F 6

$$$$
=
 OpenBabel10222418083D

 25 27  0  0  1  0  0  0  0  0999 V2000
  189.5640  176.3270  143.7700 C   0  0  2  0  0  3  0  0  0  0  0  0
  187.1440  177.9100  142.8330 N   0  0  0  0  0  0  0  0  0  0  0  0
  189.9230  176.6150  142.3910 N   0  0  0  0  0  2  0  0  0  0  0  0
  189.7750  177.4450  140.1420 C   0  0  0  0  0  3  0  0  0  0  0  0
  187.2010  177.1210  143.8620 C   0  0  0  0  0  0  0  0  0  0  0  0
  187.2910  178.5850  140.5310 C   0  0  0  0  0  3  0  0  0  0  0  0
  189.1350  178.1370  139.1170 C   0  0  0  0  0  0  0  0  0  0  0  0
  189.1670  177.3190  141.3970 C   0  0  0  0  0  0  0  0  0  0  0  0
  187.8790  177.8940  141.5980 C   0  0  0  0  0  0  0  0  0  0  0  0
  187.9140  178.6870  139.3290 N   0  0  0  0  0  0  0  0  0  0  0  0
  188.1020  175.9320  143.9000 C   0  0  0  0  0  2  0  0  0  0  0  0
  190.7100  176.7590  147.2090 N   0  0  0  0  0  0  0  0  0  0  0  0
  190.1410  177.3410  144.7820 C   0  0  2  0  0  0  0  0  0  0  0  0
  191.5490  176.5670  145.6670 S   0  0  0  0  0  0  0  0  0  0  0  0
  188.7350  177.5540  148.2300 N   0  0  0  0  0  1  0  0  0  0  0  0
  189.1450  177.6690  145.7890 N   0  0  0  0  0  2  0  0  0  0  0  0
  189.5570  177.3120  147.0960 C   0  0  0  0  0  0  0  0  0  0  0  0
  190.6120  178.5780  144.1400 C   0  0  0  0  0  0  0  0  0  0  0  0
  190.9930  179.5950  143.6150 C   0  0  0  0  0  3  0  0  0  0  0  0
  189.7790  178.2490  137.7780 C   0  0  0  0  0  2  0  0  0  0  0  0
  189.2600  177.5000  135.7650 C   0  0  0  0  0  1  0  0  0  0  0  0
  188.7980  178.3270  136.7890 O   0  0  0  0  0  0  0  0  0  0  0  0
  186.3810  177.4070  144.9560 O   0  0  0  0  0  0  0  0  0  0  0  0
  185.7520  178.6680  145.1340 C   0  0  0  0  0  2  0  0  0  0  0  0
  185.6500  178.9770  146.6120 C   0  0  0  0  0  1  0  0  0  0  0  0
  1 11  1  6  0  0  0
  1 13  1  0  0  0  0
  2  5  2  0  0  0  0
  3  1  1  0  0  0  0
  4  8  1  0  0  0  0
  5 11  1  0  0  0  0
  5 23  1  0  0  0  0
  6  9  1  0  0  0  0
  7 10  1  0  0  0  0
  7  4  2  0  0  0  0
  8  9  2  0  0  0  0
  8  3  1  0  0  0  0
  9  2  1  0  0  0  0
 10  6  2  0  0  0  0
 13 18  1  6  0  0  0
 13 14  1  0  0  0  0
 13 16  1  0  0  0  0
 14 12  1  0  0  0  0
 16 17  1  0  0  0  0
 17 12  2  0  0  0  0
 17 15  1  0  0  0  0
 19 18  3  0  0  0  0
 20  7  1  0  0  0  0
 21 22  1  0  0  0  0
 22 20  1  0  0  0  0
 23 24  1  0  0  0  0
 24 25  1  0  0  0  0
M  END
>  <MODEL>
2

>  <REMARK>
 VINA RESULT:      -6.7      1.597      1.724
  Name = 
  6 active torsions:
  status: ('A' for Active; 'I' for Inactive)
    1  A    between atoms: C_1  and  C_12
    2  A    between atoms: C_6  and  O_20
    3  A    between atoms: C_8  and  O_20
    4  A    between atoms: C_9  and  C_14
    5  A    between atoms: C_12  and  C_19
    6  A    between atoms: C_14  and  O_22
                            x       y       z     vdW  Elec       q    Type
                         _______ _______ _______ _____ _____    ______ ____

>  <TORSDO>
F 6

$$$$
=
 OpenBabel10222418083D

 25 27  0  0  1  0  0  0  0  0999 V2000
  188.3600  176.3530  143.9420 C   0  0  2  0  0  3  0  0  0  0  0  0
  187.4140  178.4840  141.9900 N   0  0  0  0  0  0  0  0  0  0  0  0
  189.2750  176.1530  142.8300 N   0  0  0  0  0  2  0  0  0  0  0  0
  190.3250  176.4320  140.6880 C   0  0  0  0  0  3  0  0  0  0  0  0
  186.7420  177.9940  142.9870 C   0  0  0  0  0  0  0  0  0  0  0  0
  188.6570  178.4980  139.9330 C   0  0  0  0  0  3  0  0  0  0  0  0
  190.4750  177.0600  139.4530 C   0  0  0  0  0  0  0  0  0  0  0  0
  189.3230  176.8430  141.5740 C   0  0  0  0  0  0  0  0  0  0  0  0
  188.4510  177.9000  141.1820 C   0  0  0  0  0  0  0  0  0  0  0  0
  189.6420  178.0710  139.1020 N   0  0  0  0  0  0  0  0  0  0  0  0
  186.9380  176.5930  143.4630 C   0  0  0  0  0  2  0  0  0  0  0  0
  191.3630  178.0470  145.1390 N   0  0  0  0  0  0  0  0  0  0  0  0
  188.9260  177.2700  145.0470 C   0  0  2  0  0  0  0  0  0  0  0  0
  189.9280  178.5960  144.2690 S   0  0  0  0  0  0  0  0  0  0  0  0
  192.1810  176.4530  146.6770 N   0  0  0  0  0  1  0  0  0  0  0  0
  189.8250  176.5220  145.9120 N   0  0  0  0  0  2  0  0  0  0  0  0
  191.1450  177.0330  145.8940 C   0  0  0  0  0  0  0  0  0  0  0  0
  187.8720  177.8940  145.8620 C   0  0  0  0  0  0  0  0  0  0  0  0
  187.0110  178.4040  146.5350 C   0  0  0  0  0  3  0  0  0  0  0  0
  191.5300  176.6030  138.5070 C   0  0  0  0  0  2  0  0  0  0  0  0
  192.5450  174.8830  137.5610 C   0  0  0  0  0  1  0  0  0  0  0  0
  191.4110  175.2280  138.2970 O   0  0  0  0  0  0  0  0  0  0  0  0
  185.8070  178.8180  143.6170 O   0  0  0  0  0  0  0  0  0  0  0  0
  184.4070  178.5930  143.5320 C   0  0  0  0  0  2  0  0  0  0  0  0
  183.7640  178.9000  144.8680 C   0  0  0  0  0  1  0  0  0  0  0  0
  1 11  1  6  0  0  0
  1 13  1  0  0  0  0
  2  5  2  0  0  0  0
  3  1  1  0  0  0  0
  4  8  1  0  0  0  0
  5 11  1  0  0  0  0
  5 23  1  0  0  0  0
  6  9  1  0  0  0  0
  7  4  2  0  0  0  0
  8  3  1  0  0  0  0
  9  8  2  0  0  0  0
  9  2  1  0  0  0  0
 10  7  1  0  0  0  0
 10  6  2  0  0  0  0
 12 17  2  0  0  0  0
 13 18  1  1  0  0  0
 13 16  1  0  0  0  0
 14 13  1  0  0  0  0
 14 12  1  0  0  0  0
 17 16  1  0  0  0  0
 17 15  1  0  0  0  0
 18 19  3  0  0  0  0
 20  7  1  0  0  0  0
 21 22  1  0  0  0  0
 22 20  1  0  0  0  0
 24 23  1  0  0  0  0
 24 25  1  0  0  0  0
M  END
>  <MODEL>
3

>  <REMARK>
 VINA RESULT:      -6.4      1.488      1.888
  Name = 
  6 active torsions:
  status: ('A' for Active; 'I' for Inactive)
    1  A    between atoms: C_1  and  C_12
    2  A    between atoms: C_6  and  O_20
    3  A    between atoms: C_8  and  O_20
    4  A    between atoms: C_9  and  C_14
    5  A    between atoms: C_12  and  C_19
    6  A    between atoms: C_14  and  O_22
                            x       y       z     vdW  Elec       q    Type
                         _______ _______ _______ _____ _____    ______ ____

>  <TORSDO>
F 6

$$$$
=
 OpenBabel10222418083D

 25 27  0  0  1  0  0  0  0  0999 V2000
  188.3680  176.6830  142.6850 C   0  0  2  0  0  3  0  0  0  0  0  0
  188.3140  177.7420  145.5340 N   0  0  0  0  0  0  0  0  0  0  0  0
  187.0170  177.2130  142.7710 N   0  0  0  0  0  2  0  0  0  0  0  0
  185.0480  178.2500  143.6750 C   0  0  0  0  0  3  0  0  0  0  0  0
  189.1440  176.8710  145.0480 C   0  0  0  0  0  0  0  0  0  0  0  0
  186.1980  178.7060  146.1430 C   0  0  0  0  0  3  0  0  0  0  0  0
  184.3380  178.8870  144.6900 C   0  0  0  0  0  0  0  0  0  0  0  0
  186.3660  177.8310  143.8890 C   0  0  0  0  0  0  0  0  0  0  0  0
  186.9590  178.0520  145.1660 C   0  0  0  0  0  0  0  0  0  0  0  0
  184.9220  179.0990  145.8950 N   0  0  0  0  0  0  0  0  0  0  0  0
  188.7600  175.9370  143.9500 C   0  0  0  0  0  2  0  0  0  0  0  0
  191.7370  178.0480  143.0050 N   0  0  0  0  0  0  0  0  0  0  0  0
  189.3820  177.6760  142.0760 C   0  0  2  0  0  0  0  0  0  0  0  0
  191.0130  176.8490  141.9310 S   0  0  0  0  0  0  0  0  0  0  0  0
  191.3040  179.9830  144.2890 N   0  0  0  0  0  1  0  0  0  0  0  0
  189.5680  178.8120  142.9640 N   0  0  0  0  0  2  0  0  0  0  0  0
  190.9030  178.9330  143.4180 C   0  0  0  0  0  0  0  0  0  0  0  0
  188.9770  178.1560  140.7460 C   0  0  0  0  0  0  0  0  0  0  0  0
  188.6400  178.5500  139.6570 C   0  0  0  0  0  3  0  0  0  0  0  0
  182.9290  179.3120  144.4610 C   0  0  0  0  0  2  0  0  0  0  0  0
  181.1460  179.0600  143.1800 C   0  0  0  0  0  1  0  0  0  0  0  0
  182.5380  178.9700  143.1660 O   0  0  0  0  0  0  0  0  0  0  0  0
  190.4320  176.8170  145.5880 O   0  0  0  0  0  0  0  0  0  0  0  0
  190.6770  176.8250  146.9870 C   0  0  0  0  0  2  0  0  0  0  0  0
  191.8590  175.9310  147.2970 C   0  0  0  0  0  1  0  0  0  0  0  0
  1  3  1  0  0  0  0
  1 11  1  1  0  0  0
  3  8  1  0  0  0  0
  4  8  2  0  0  0  0
  4  7  1  0  0  0  0
  5  2  2  0  0  0  0
  5 23  1  0  0  0  0
  7 10  2  0  0  0  0
  8  9  1  0  0  0  0
  9  2  1  0  0  0  0
  9  6  2  0  0  0  0
 10  6  1  0  0  0  0
 11  5  1  0  0  0  0
 12 17  2  0  0  0  0
 13 18  1  6  0  0  0
 13  1  1  0  0  0  0
 13 16  1  0  0  0  0
 14 13  1  0  0  0  0
 14 12  1  0  0  0  0
 16 17  1  0  0  0  0
 17 15  1  0  0  0  0
 19 18  3  0  0  0  0
 20  7  1  0  0  0  0
 22 21  1  0  0  0  0
 22 20  1  0  0  0  0
 23 24  1  0  0  0  0
 24 25  1  0  0  0  0
M  END
>  <MODEL>
4

>  <REMARK>
 VINA RESULT:      -6.1      2.822      6.407
  Name = 
  6 active torsions:
  status: ('A' for Active; 'I' for Inactive)
    1  A    between atoms: C_1  and  C_12
    2  A    between atoms: C_6  and  O_20
    3  A    between atoms: C_8  and  O_20
    4  A    between atoms: C_9  and  C_14
    5  A    between atoms: C_12  and  C_19
    6  A    between atoms: C_14  and  O_22
                            x       y       z     vdW  Elec       q    Type
                         _______ _______ _______ _____ _____    ______ ____

>  <TORSDO>
F 6

$$$$
=
 OpenBabel10222418083D

 25 27  0  0  1  0  0  0  0  0999 V2000
  188.7540  176.5450  142.4760 C   0  0  2  0  0  3  0  0  0  0  0  0
  189.0890  177.2950  145.4040 N   0  0  0  0  0  0  0  0  0  0  0  0
  187.4370  177.0730  142.7920 N   0  0  0  0  0  2  0  0  0  0  0  0
  185.6230  178.0230  144.0480 C   0  0  0  0  0  3  0  0  0  0  0  0
  189.8310  176.4740  144.7260 C   0  0  0  0  0  0  0  0  0  0  0  0
  187.0890  178.2050  146.3790 C   0  0  0  0  0  3  0  0  0  0  0  0
  185.0630  178.5540  145.2070 C   0  0  0  0  0  0  0  0  0  0  0  0
  186.9480  177.5730  144.0440 C   0  0  0  0  0  0  0  0  0  0  0  0
  187.7050  177.6530  145.2490 C   0  0  0  0  0  0  0  0  0  0  0  0
  185.8010  178.6320  146.3420 N   0  0  0  0  0  0  0  0  0  0  0  0
  189.2890  175.6650  143.5950 C   0  0  0  0  0  2  0  0  0  0  0  0
  190.0130  177.8890  139.3250 N   0  0  0  0  0  0  0  0  0  0  0  0
  189.7020  177.5890  141.8480 C   0  0  2  0  0  0  0  0  0  0  0  0
  188.8200  178.4600  140.4960 S   0  0  0  0  0  0  0  0  0  0  0  0
  191.9810  176.6110  139.0610 N   0  0  0  0  0  1  0  0  0  0  0  0
  190.8470  176.9280  141.2410 N   0  0  0  0  0  2  0  0  0  0  0  0
  190.9310  177.1590  139.8470 C   0  0  0  0  0  0  0  0  0  0  0  0
  190.1740  178.5860  142.8210 C   0  0  0  0  0  0  0  0  0  0  0  0
  190.5630  179.3990  143.6230 C   0  0  0  0  0  3  0  0  0  0  0  0
  183.6460  179.0110  145.2090 C   0  0  0  0  0  2  0  0  0  0  0  0
  182.1720  179.0030  143.5630 C   0  0  0  0  0  1  0  0  0  0  0  0
  183.3460  179.6220  143.9910 O   0  0  0  0  0  0  0  0  0  0  0  0
  191.1750  176.3540  145.0850 O   0  0  0  0  0  0  0  0  0  0  0  0
  191.6800  176.8140  146.3300 C   0  0  0  0  0  2  0  0  0  0  0  0
  192.0610  175.6280  147.1900 C   0  0  0  0  0  1  0  0  0  0  0  0
  1  3  1  0  0  0  0
  1 11  1  1  0  0  0
  3  8  1  0  0  0  0
  4  7  1  0  0  0  0
  5 23  1  0  0  0  0
  5  2  2  0  0  0  0
  7 20  1  0  0  0  0
  7 10  2  0  0  0  0
  8  4  2  0  0  0  0
  8  9  1  0  0  0  0
  9  2  1  0  0  0  0
  9  6  2  0  0  0  0
 10  6  1  0  0  0  0
 11  5  1  0  0  0  0
 12 17  2  0  0  0  0
 12 14  1  0  0  0  0
 13  1  1  0  0  0  0
 13 18  1  1  0  0  0
 14 13  1  0  0  0  0
 15 17  1  0  0  0  0
 16 13  1  0  0  0  0
 17 16  1  0  0  0  0
 18 19  3  0  0  0  0
 21 22  1  0  0  0  0
 22 20  1  0  0  0  0
 23 24  1  0  0  0  0
 24 25  1  0  0  0  0
M  END
>  <MODEL>
5

>  <REMARK>
 VINA RESULT:      -6.0      2.489      6.821
  Name = 
  6 active torsions:
  status: ('A' for Active; 'I' for Inactive)
    1  A    between atoms: C_1  and  C_12
    2  A    between atoms: C_6  and  O_20
    3  A    between atoms: C_8  and  O_20
    4  A    between atoms: C_9  and  C_14
    5  A    between atoms: C_12  and  C_19
    6  A    between atoms: C_14  and  O_22
                            x       y       z     vdW  Elec       q    Type
                         _______ _______ _______ _____ _____    ______ ____

>  <TORSDO>
F 6

$$$$
=
 OpenBabel10222418083D

 25 27  0  0  1  0  0  0  0  0999 V2000
  188.9330  178.7150  143.5860 C   0  0  2  0  0  3  0  0  0  0  0  0
  191.3690  177.2220  142.5440 N   0  0  0  0  0  0  0  0  0  0  0  0
  188.6690  178.6920  142.1570 N   0  0  0  0  0  2  0  0  0  0  0  0
  188.9580  178.2690  139.8100 C   0  0  0  0  0  3  0  0  0  0  0  0
  191.2590  177.8170  143.6910 C   0  0  0  0  0  0  0  0  0  0  0  0
  191.3710  176.9740  140.1530 C   0  0  0  0  0  3  0  0  0  0  0  0
  189.6510  177.7440  138.7220 C   0  0  0  0  0  0  0  0  0  0  0  0
  189.4750  178.1450  141.1040 C   0  0  0  0  0  0  0  0  0  0  0  0
  190.7270  177.4890  141.2850 C   0  0  0  0  0  0  0  0  0  0  0  0
  190.8360  177.1140  138.9130 N   0  0  0  0  0  0  0  0  0  0  0  0
  190.3930  179.0180  143.8820 C   0  0  0  0  0  2  0  0  0  0  0  0
  186.5080  177.9180  146.1940 N   0  0  0  0  0  0  0  0  0  0  0  0
  188.2540  177.5620  144.3570 C   0  0  2  0  0  0  0  0  0  0  0  0
  186.4480  177.8760  144.4310 S   0  0  0  0  0  0  0  0  0  0  0  0
  187.9310  177.7260  148.0700 N   0  0  0  0  0  1  0  0  0  0  0  0
  188.7270  177.5280  145.7320 N   0  0  0  0  0  2  0  0  0  0  0  0
  187.6860  177.7310  146.6690 C   0  0  0  0  0  0  0  0  0  0  0  0
  188.4790  176.2500  143.7300 C   0  0  0  0  0  0  0  0  0  0  0  0
  188.6690  175.1750  143.2180 C   0  0  0  0  0  3  0  0  0  0  0  0
  189.1050  177.8990  137.3450 C   0  0  0  0  0  2  0  0  0  0  0  0
  187.1880  178.6140  136.5100 C   0  0  0  0  0  1  0  0  0  0  0  0
  188.2700  179.0160  137.2920 O   0  0  0  0  0  0  0  0  0  0  0  0
  191.9870  177.3070  144.7690 O   0  0  0  0  0  0  0  0  0  0  0  0
  191.7740  176.0030  145.2890 C   0  0  0  0  0  2  0  0  0  0  0  0
  192.0460  176.0020  146.7780 C   0  0  0  0  0  1  0  0  0  0  0  0
  1 11  1  6  0  0  0
  1 13  1  0  0  0  0
  2  5  2  0  0  0  0
  3  1  1  0  0  0  0
  4  8  1  0  0  0  0
  5 11  1  0  0  0  0
  5 23  1  0  0  0  0
  6  9  1  0  0  0  0
  7 10  1  0  0  0  0
  7  4  2  0  0  0  0
  8  9  2  0  0  0  0
  8  3  1  0  0  0  0
  9  2  1  0  0  0  0
 10  6  2  0  0  0  0
 12 17  2  0  0  0  0
 13 18  1  6  0  0  0
 13 14  1  0  0  0  0
 13 16  1  0  0  0  0
 14 12  1  0  0  0  0
 16 17  1  0  0  0  0
 17 15  1  0  0  0  0
 19 18  3  0  0  0  0
 20  7  1  0  0  0  0
 21 22  1  0  0  0  0
 22 20  1  0  0  0  0
 23 24  1  0  0  0  0
 24 25  1  0  0  0  0
M  END
>  <MODEL>
6

>  <REMARK>
 VINA RESULT:      -5.5      2.507      4.045
  Name = 
  6 active torsions:
  status: ('A' for Active; 'I' for Inactive)
    1  A    between atoms: C_1  and  C_12
    2  A    between atoms: C_6  and  O_20
    3  A    between atoms: C_8  and  O_20
    4  A    between atoms: C_9  and  C_14
    5  A    between atoms: C_12  and  C_19
    6  A    between atoms: C_14  and  O_22
                            x       y       z     vdW  Elec       q    Type
                         _______ _______ _______ _____ _____    ______ ____

>  <TORSDO>
F 6

$$$$
=
 OpenBabel10222418083D

 25 27  0  0  1  0  0  0  0  0999 V2000
  183.6600  178.9530  138.7520 C   0  0  2  0  0  3  0  0  0  0  0  0
  181.4100  179.2100  140.7810 N   0  0  0  0  0  0  0  0  0  0  0  0
  184.3770  178.7720  140.0040 N   0  0  0  0  0  2  0  0  0  0  0  0
  184.8020  178.5990  142.3620 C   0  0  0  0  0  3  0  0  0  0  0  0
  181.3940  179.6250  139.5510 C   0  0  0  0  0  0  0  0  0  0  0  0
  182.1620  179.0060  143.0550 C   0  0  0  0  0  3  0  0  0  0  0  0
  184.4020  178.5900  143.6960 C   0  0  0  0  0  0  0  0  0  0  0  0
  183.8670  178.8120  141.3430 C   0  0  0  0  0  0  0  0  0  0  0  0
  182.5040  179.0370  141.6970 C   0  0  0  0  0  0  0  0  0  0  0  0
  183.0990  178.7950  144.0130 N   0  0  0  0  0  0  0  0  0  0  0  0
  182.6340  180.0700  138.8490 C   0  0  0  0  0  2  0  0  0  0  0  0
  183.8980  176.9540  135.7080 N   0  0  0  0  0  0  0  0  0  0  0  0
  183.2370  177.6250  138.0880 C   0  0  2  0  0  0  0  0  0  0  0  0
  184.7000  176.8690  137.2780 S   0  0  0  0  0  0  0  0  0  0  0  0
  181.9210  177.6130  134.5970 N   0  0  0  0  0  1  0  0  0  0  0  0
  182.2630  177.8760  137.0370 N   0  0  0  0  0  2  0  0  0  0  0  0
  182.7220  177.4660  135.7620 C   0  0  0  0  0  0  0  0  0  0  0  0
  182.6800  176.6610  139.0490 C   0  0  0  0  0  0  0  0  0  0  0  0
  182.2200  175.8690  139.8330 C   0  0  0  0  0  3  0  0  0  0  0  0
  185.4070  178.3830  144.7750 C   0  0  0  0  0  2  0  0  0  0  0  0
  185.9420  178.8220  146.8730 C   0  0  0  0  0  1  0  0  0  0  0  0
  185.1930  179.3050  145.8000 O   0  0  0  0  0  0  0  0  0  0  0  0
  180.1680  179.6550  138.8830 O   0  0  0  0  0  0  0  0  0  0  0  0
  179.7700  180.7420  138.0600 C   0  0  0  0  0  2  0  0  0  0  0  0
  179.6810  182.0010  138.8950 C   0  0  0  0  0  1  0  0  0  0  0  0
  1 11  1  1  0  0  0
  1  3  1  0  0  0  0
  2  9  1  0  0  0  0
  3  8  1  0  0  0  0
  4  7  1  0  0  0  0
  5  2  2  0  0  0  0
  6 10  1  0  0  0  0
  7 10  2  0  0  0  0
  7 20  1  0  0  0  0
  8  9  1  0  0  0  0
  8  4  2  0  0  0  0
  9  6  2  0  0  0  0
 11  5  1  0  0  0  0
 12 17  2  0  0  0  0
 12 14  1  0  0  0  0
 13  1  1  0  0  0  0
 13 18  1  1  0  0  0
 14 13  1  0  0  0  0
 15 17  1  0  0  0  0
 16 13  1  0  0  0  0
 17 16  1  0  0  0  0
 18 19  3  0  0  0  0
 20 22  1  0  0  0  0
 22 21  1  0  0  0  0
 23  5  1  0  0  0  0
 24 23  1  0  0  0  0
 24 25  1  0  0  0  0
M  END
>  <MODEL>
7

>  <REMARK>
 VINA RESULT:      -4.9      6.172      9.473
  Name = 
  6 active torsions:
  status: ('A' for Active; 'I' for Inactive)
    1  A    between atoms: C_1  and  C_12
    2  A    between atoms: C_6  and  O_20
    3  A    between atoms: C_8  and  O_20
    4  A    between atoms: C_9  and  C_14
    5  A    between atoms: C_12  and  C_19
    6  A    between atoms: C_14  and  O_22
                            x       y       z     vdW  Elec       q    Type
                         _______ _______ _______ _____ _____    ______ ____

>  <TORSDO>
F 6

$$$$
=
 OpenBabel10222418083D

 25 27  0  0  1  0  0  0  0  0999 V2000
  189.3600  178.6660  144.0400 C   0  0  2  0  0  3  0  0  0  0  0  0
  190.8720  176.3790  142.7250 N   0  0  0  0  0  0  0  0  0  0  0  0
  189.0610  178.8910  142.6350 N   0  0  0  0  0  2  0  0  0  0  0  0
  189.0570  178.6060  140.2500 C   0  0  0  0  0  3  0  0  0  0  0  0
  191.0710  176.8550  143.9160 C   0  0  0  0  0  0  0  0  0  0  0  0
  190.6840  176.3780  140.3290 C   0  0  0  0  0  3  0  0  0  0  0  0
  189.4160  177.9390  139.0810 C   0  0  0  0  0  0  0  0  0  0  0  0
  189.5140  178.1530  141.4930 C   0  0  0  0  0  0  0  0  0  0  0  0
  190.3650  177.0110  141.5370 C   0  0  0  0  0  0  0  0  0  0  0  0
  190.2180  176.8480  139.1440 N   0  0  0  0  0  0  0  0  0  0  0  0
  190.8170  178.2870  144.2510 C   0  0  0  0  0  2  0  0  0  0  0  0
  186.1840  176.9120  143.6370 N   0  0  0  0  0  0  0  0  0  0  0  0
  188.2760  177.8490  144.7760 C   0  0  2  0  0  0  0  0  0  0  0  0
  187.8590  176.3700  143.7740 S   0  0  0  0  0  0  0  0  0  0  0  0
  184.6650  178.6150  144.2420 N   0  0  0  0  0  1  0  0  0  0  0  0
  187.0540  178.6270  144.8980 N   0  0  0  0  0  2  0  0  0  0  0  0
  185.9580  178.0230  144.2380 C   0  0  0  0  0  0  0  0  0  0  0  0
  188.7080  177.4060  146.1110 C   0  0  0  0  0  0  0  0  0  0  0  0
  189.0680  177.0420  147.2030 C   0  0  0  0  0  3  0  0  0  0  0  0
  188.9420  178.4400  137.7610 C   0  0  0  0  0  2  0  0  0  0  0  0
  186.9960  177.7790  136.9490 C   0  0  0  0  0  1  0  0  0  0  0  0
  187.5730  178.7030  137.8210 O   0  0  0  0  0  0  0  0  0  0  0  0
  191.5450  175.9850  144.9010 O   0  0  0  0  0  0  0  0  0  0  0  0
  192.0550  176.4400  146.1460 C   0  0  0  0  0  2  0  0  0  0  0  0
  192.3340  175.2530  147.0420 C   0  0  0  0  0  1  0  0  0  0  0  0
  1 11  1  6  0  0  0
  1 13  1  0  0  0  0
  2  5  2  0  0  0  0
  3  1  1  0  0  0  0
  4  8  1  0  0  0  0
  5 11  1  0  0  0  0
  5 23  1  0  0  0  0
  6  9  1  0  0  0  0
  7 10  1  0  0  0  0
  7  4  2  0  0  0  0
  8  9  2  0  0  0  0
  8  3  1  0  0  0  0
  9  2  1  0  0  0  0
 10  6  2  0  0  0  0
 12 14  1  0  0  0  0
 12 17  2  0  0  0  0
 13 16  1  0  0  0  0
 13 18  1  1  0  0  0
 14 13  1  0  0  0  0
 17 15  1  0  0  0  0
 17 16  1  0  0  0  0
 18 19  3  0  0  0  0
 20 22  1  0  0  0  0
 20  7  1  0  0  0  0
 21 22  1  0  0  0  0
 23 24  1  0  0  0  0
 24 25  1  0  0  0  0
M  END
>  <MODEL>
8

>  <REMARK>
 VINA RESULT:      -4.9      2.601      4.375
  Name = 
  6 active torsions:
  status: ('A' for Active; 'I' for Inactive)
    1  A    between atoms: C_1  and  C_12
    2  A    between atoms: C_6  and  O_20
    3  A    between atoms: C_8  and  O_20
    4  A    between atoms: C_9  and  C_14
    5  A    between atoms: C_12  and  C_19
    6  A    between atoms: C_14  and  O_22
                            x       y       z     vdW  Elec       q    Type
                         _______ _______ _______ _____ _____    ______ ____

>  <TORSDO>
F 6

$$$$
=
 OpenBabel10222418083D

 25 27  0  0  1  0  0  0  0  0999 V2000
  189.8880  177.6440  137.0670 C   0  0  2  0  0  3  0  0  0  0  0  0
  187.7350  178.1490  139.1540 N   0  0  0  0  0  0  0  0  0  0  0  0
  190.6250  177.4300  138.3010 N   0  0  0  0  0  2  0  0  0  0  0  0
  191.1090  177.2760  140.6490 C   0  0  0  0  0  3  0  0  0  0  0  0
  187.7170  178.5340  137.9150 C   0  0  0  0  0  0  0  0  0  0  0  0
  188.5380  177.9320  141.4090 C   0  0  0  0  0  3  0  0  0  0  0  0
  190.7520  177.3330  141.9940 C   0  0  0  0  0  0  0  0  0  0  0  0
  190.1640  177.5470  139.6530 C   0  0  0  0  0  0  0  0  0  0  0  0
  188.8380  177.9000  140.0420 C   0  0  0  0  0  0  0  0  0  0  0  0
  189.4830  177.6610  142.3440 N   0  0  0  0  0  0  0  0  0  0  0  0
  188.9680  178.8500  137.1640 C   0  0  0  0  0  2  0  0  0  0  0  0
  189.7450  174.0150  137.4270 N   0  0  0  0  0  0  0  0  0  0  0  0
  189.3280  176.3440  136.4500 C   0  0  2  0  0  0  0  0  0  0  0  0
  188.6040  175.3140  137.7840 S   0  0  0  0  0  0  0  0  0  0  0  0
  191.5370  173.3660  136.0320 N   0  0  0  0  0  1  0  0  0  0  0  0
  190.4040  175.5630  135.8590 N   0  0  0  0  0  2  0  0  0  0  0  0
  190.5490  174.2930  136.4650 C   0  0  0  0  0  0  0  0  0  0  0  0
  188.2930  176.5960  135.4360 C   0  0  0  0  0  0  0  0  0  0  0  0
  187.4480  176.8000  134.6000 C   0  0  0  0  0  3  0  0  0  0  0  0
  191.7690  177.0630  143.0480 C   0  0  0  0  0  2  0  0  0  0  0  0
  191.7040  175.9730  144.9680 C   0  0  0  0  0  1  0  0  0  0  0  0
  191.5580  175.7960  143.5920 O   0  0  0  0  0  0  0  0  0  0  0  0
  186.4770  178.6580  137.2830 O   0  0  0  0  0  0  0  0  0  0  0  0
  185.2680  178.2030  137.8720 C   0  0  0  0  0  2  0  0  0  0  0  0
  184.8080  176.9420  137.1720 C   0  0  0  0  0  1  0  0  0  0  0  0
  1 11  1  1  0  0  0
  1  3  1  0  0  0  0
  2  9  1  0  0  0  0
  3  8  1  0  0  0  0
  4  7  1  0  0  0  0
  5  2  2  0  0  0  0
  6 10  1  0  0  0  0
  7 10  2  0  0  0  0
  7 20  1  0  0  0  0
  8  9  1  0  0  0  0
  8  4  2  0  0  0  0
  9  6  2  0  0  0  0
 11  5  1  0  0  0  0
 12 14  1  0  0  0  0
 13 18  1  6  0  0  0
 13  1  1  0  0  0  0
 13 14  1  0  0  0  0
 15 17  1  0  0  0  0
 16 13  1  0  0  0  0
 16 17  1  0  0  0  0
 17 12  2  0  0  0  0
 19 18  3  0  0  0  0
 20 22  1  0  0  0  0
 22 21  1  0  0  0  0
 23 24  1  0  0  0  0
 23  5  1  0  0  0  0
 25 24  1  0  0  0  0
M  END
>  <MODEL>
9

>  <REMARK>
 VINA RESULT:      -4.8      3.765      7.187
  Name = 
  6 active torsions:
  status: ('A' for Active; 'I' for Inactive)
    1  A    between atoms: C_1  and  C_12
    2  A    between atoms: C_6  and  O_20
    3  A    between atoms: C_8  and  O_20
    4  A    between atoms: C_9  and  C_14
    5  A    between atoms: C_12  and  C_19
    6  A    between atoms: C_14  and  O_22
                            x       y       z     vdW  Elec       q    Type
                         _______ _______ _______ _____ _____    ______ ____

>  <TORSDO>
F 6

$$$$
