=
 OpenBabel10222419523D

 50 54  0  0  1  0  0  0  0  0999 V2000
  185.6740  178.2270  144.0500 C   0  0  0  0  0  2  0  0  0  0  0  0
  186.1760  178.9790  141.6620 C   0  0  0  0  0  3  0  0  0  0  0  0
  183.3890  179.4050  139.4130 N   0  0  0  0  0  2  0  0  0  0  0  0
  185.2890  178.6250  142.6700 C   0  0  0  0  0  0  0  0  0  0  0  0
  184.2350  179.1430  140.5380 C   0  0  0  0  0  0  0  0  0  0  0  0
  185.5780  179.2720  140.4760 N   0  0  0  0  0  0  0  0  0  0  0  0
  183.7180  178.6620  142.0690 S   0  0  0  0  0  0  0  0  0  0  0  0
  181.9390  179.2360  139.3860 C   0  0  1  0  0  3  0  0  0  0  0  0
  181.4930  180.9860  137.8000 O   0  0  0  0  0  0  0  0  0  0  0  0
  180.3820  181.1420  139.7960 O   0  0  0  0  0  1  0  0  0  0  0  0
  181.2580  180.4940  138.9360 C   0  0  0  0  0  0  0  0  0  0  0  0
  181.5680  178.0970  138.5590 N   0  0  0  0  0  2  0  0  0  0  0  0
  180.1290  177.9270  138.6900 C   0  0  0  0  0  2  0  0  0  0  0  0
  179.9960  175.0640  137.5210 C   0  0  0  0  0  2  0  0  0  0  0  0
  179.7820  176.5320  139.2240 C   0  0  2  0  0  0  0  0  0  0  0  0
  181.1400  174.7260  138.4440 C   0  0  2  0  0  3  0  0  0  0  0  0
  181.0730  175.7760  139.5100 C   0  0  0  0  0  2  0  0  0  0  0  0
  179.0610  175.8330  138.2340 O   0  0  0  0  0  0  0  0  0  0  0  0
  182.4390  174.7920  137.7130 C   0  0  0  0  0  0  0  0  0  0  0  0
  182.6790  173.9710  136.6170 O   0  0  0  0  0  0  0  0  0  0  0  0
  183.3330  175.5850  138.1060 O   0  0  0  0  0  1  0  0  0  0  0  0
  179.1520  175.5430  141.3370 O   0  0  0  0  0  1  0  0  0  0  0  0
  178.9320  176.6430  140.5040 C   0  0  1  0  0  3  0  0  0  0  0  0
  179.9980  177.9040  142.1950 O   0  0  0  0  0  0  0  0  0  0  0  0
  179.2130  177.9080  141.2620 C   0  0  0  0  0  3  0  0  0  0  0  0
  186.5970  177.0250  144.0030 C   0  0  0  0  0  2  0  0  0  0  0  0
  189.0990  177.1360  144.5940 C   0  0  0  0  0  0  0  0  0  0  0  0
  187.7550  177.2380  144.9160 C   0  0  0  0  0  0  0  0  0  0  0  0
  189.7830  177.4570  145.7510 C   0  0  0  0  0  3  0  0  0  0  0  0
  187.6300  177.6130  146.2010 N   0  0  0  0  0  0  0  0  0  0  0  0
  188.8550  177.7350  146.6860 N   0  0  0  0  0  0  0  0  0  0  0  0
  189.1420  178.1280  148.0540 C   0  0  0  0  0  1  0  0  0  0  0  0
  189.4880  177.6120  142.1610 N   0  0  0  0  0  2  0  0  0  0  0  0
  190.4030  175.7240  143.2110 O   0  0  0  0  0  0  0  0  0  0  0  0
  189.7020  176.7680  143.3020 C   0  0  0  0  0  0  0  0  0  0  0  0
  190.2920  173.6750  137.1940 O   0  0  0  0  0  0  0  0  0  0  0  0
  189.6120  174.7310  137.3070 C   0  0  0  0  0  0  0  0  0  0  0  0
  187.7080  176.8400  137.7230 C   0  0  2  0  0  3  0  0  0  0  0  0
  191.3320  175.9630  138.4930 C   0  0  0  0  0  3  0  0  0  0  0  0
  187.8740  176.1960  136.4150 N   0  0  0  0  0  2  0  0  0  0  0  0
  191.8720  177.1420  139.2280 C   0  0  0  0  0  2  0  0  0  0  0  0
  187.2220  178.2630  137.5060 C   0  0  0  0  0  1  0  0  0  0  0  0
  189.9680  177.4100  140.8230 C   0  0  0  0  0  0  0  0  0  0  0  0
  190.0420  175.8340  138.1700 C   0  0  0  0  0  0  0  0  0  0  0  0
  191.2750  177.2540  140.5870 C   0  0  0  0  0  3  0  0  0  0  0  0
  188.3850  174.8970  136.5940 N   0  0  0  0  0  0  0  0  0  0  0  0
  188.9510  177.4260  139.7480 C   0  0  0  0  0  3  0  0  0  0  0  0
  188.9840  176.8120  138.5500 C   0  0  0  0  0  0  0  0  0  0  0  0
  186.4360  173.3480  137.3090 C   0  0  0  0  0  1  0  0  0  0  0  0
  187.5420  173.5160  135.8790 S   0  0  0  0  0  0  0  0  0  0  0  0
  2  4  2  0  0  0  0
  3  5  1  0  0  0  0
  4  1  1  0  0  0  0
  5  7  1  0  0  0  0
  6  5  2  0  0  0  0
  6  2  1  0  0  0  0
  7  4  1  0  0  0  0
  8 12  1  6  0  0  0
  8  3  1  0  0  0  0
  9 11  2  0  0  0  0
 11  8  1  0  0  0  0
 11 10  1  0  0  0  0
 12 13  1  0  0  0  0
 14 18  1  0  0  0  0
 14 16  1  0  0  0  0
 15 13  1  6  0  0  0
 15 17  1  0  0  0  0
 15 23  1  0  0  0  0
 16 19  1  6  0  0  0
 16 17  1  0  0  0  0
 18 15  1  0  0  0  0
 19 21  1  0  0  0  0
 20 19  2  0  0  0  0
 23 25  1  0  0  0  0
 23 22  1  1  0  0  0
 25 24  2  0  0  0  0
 26  1  1  0  0  0  0
 26 28  1  0  0  0  0
 27 28  1  0  0  0  0
 27 29  2  0  0  0  0
 28 30  2  0  0  0  0
 29 31  1  0  0  0  0
 30 31  1  0  0  0  0
 31 32  1  0  0  0  0
 33 35  1  0  0  0  0
 34 35  2  0  0  0  0
 35 27  1  0  0  0  0
 36 37  2  0  0  0  0
 37 44  1  0  0  0  0
 38 42  1  6  0  0  0
 38 48  1  0  0  0  0
 39 41  1  0  0  0  0
 40 46  1  0  0  0  0
 40 38  1  0  0  0  0
 41 45  1  0  0  0  0
 43 33  1  0  0  0  0
 44 39  2  0  0  0  0
 44 48  1  0  0  0  0
 45 43  2  0  0  0  0
 46 37  1  0  0  0  0
 47 43  1  0  0  0  0
 48 47  2  0  0  0  0
 50 46  1  0  0  0  0
 50 49  1  0  0  0  0
M  END
>  <MODEL>
1

>  <REMARK>
 VINA RESULT:      -8.2      0.000      0.000
  Name = 
  14 active torsions:
  status: ('A' for Active; 'I' for Inactive)
    1  A    between atoms: N_2  and  C_36
    2  A    between atoms: C_7  and  C_44
    3  A    between atoms: C_8  and  C_14
    4  A    between atoms: C_9  and  C_21
    5  A    between atoms: C_9  and  C_33
    6  A    between atoms: C_10  and  C_11
    7  A    between atoms: C_10  and  C_25
    8  A    between atoms: C_11  and  C_19
    9  A    between atoms: N_13  and  C_29
   10  A    between atoms: C_21  and  N_38
   11  A    between atoms: C_22  and  C_29
   12  A    between atoms: C_29  and  N_38
   13  A    between atoms: C_32  and  C_33
   14  A    between atoms: N_42  and  S_46
                            x       y       z     vdW  Elec       q    Type
                         _______ _______ _______ _____ _____    ______ ____

>  <TORSDO>
F 14

$$$$
=
 OpenBabel10222419523D

 50 54  0  0  1  0  0  0  0  0999 V2000
  186.8160  178.1780  143.4860 C   0  0  0  0  0  2  0  0  0  0  0  0
  184.9040  179.2410  144.8020 C   0  0  0  0  0  3  0  0  0  0  0  0
  181.6130  179.1830  143.3290 N   0  0  0  0  0  2  0  0  0  0  0  0
  185.3940  178.5570  143.6970 C   0  0  0  0  0  0  0  0  0  0  0  0
  183.0090  179.0350  143.6090 C   0  0  0  0  0  0  0  0  0  0  0  0
  183.5700  179.4990  144.7470 N   0  0  0  0  0  0  0  0  0  0  0  0
  184.1390  178.2770  142.6130 S   0  0  0  0  0  0  0  0  0  0  0  0
  180.9450  178.7580  142.1020 C   0  0  1  0  0  3  0  0  0  0  0  0
  178.9310  178.3820  143.3580 O   0  0  0  0  0  1  0  0  0  0  0  0
  179.3310  176.9100  141.6500 O   0  0  0  0  0  0  0  0  0  0  0  0
  179.6750  178.0220  142.4060 C   0  0  0  0  0  0  0  0  0  0  0  0
  180.7120  179.8940  141.2230 N   0  0  0  0  0  2  0  0  0  0  0  0
  180.2890  179.3580  139.9380 C   0  0  0  0  0  2  0  0  0  0  0  0
  180.0780  180.4980  137.0680 C   0  0  0  0  0  2  0  0  0  0  0  0
  181.2750  179.7380  138.8260 C   0  0  2  0  0  0  0  0  0  0  0  0
  180.7760  181.7260  137.5960 C   0  0  2  0  0  3  0  0  0  0  0  0
  181.4720  181.2480  138.8340 C   0  0  0  0  0  2  0  0  0  0  0  0
  180.7250  179.3620  137.5830 O   0  0  0  0  0  0  0  0  0  0  0  0
  179.7840  182.7930  137.9220 C   0  0  0  0  0  0  0  0  0  0  0  0
  179.4880  183.7910  137.0000 O   0  0  0  0  0  0  0  0  0  0  0  0
  179.2260  182.7990  139.0480 O   0  0  0  0  0  1  0  0  0  0  0  0
  182.7530  177.9520  138.1450 O   0  0  0  0  0  1  0  0  0  0  0  0
  182.6220  179.0210  139.0350 C   0  0  1  0  0  3  0  0  0  0  0  0
  184.8410  179.7230  139.4450 O   0  0  0  0  0  0  0  0  0  0  0  0
  183.7890  179.9510  138.8730 C   0  0  0  0  0  3  0  0  0  0  0  0
  187.1200  176.8830  144.2110 C   0  0  0  0  0  2  0  0  0  0  0  0
  189.6770  176.8430  144.4930 C   0  0  0  0  0  0  0  0  0  0  0  0
  188.3900  177.0160  144.9770 C   0  0  0  0  0  0  0  0  0  0  0  0
  190.5150  177.1060  145.5600 C   0  0  0  0  0  3  0  0  0  0  0  0
  188.4450  177.3770  146.2710 N   0  0  0  0  0  0  0  0  0  0  0  0
  189.7250  177.4220  146.6040 N   0  0  0  0  0  0  0  0  0  0  0  0
  190.1980  177.7780  147.9300 C   0  0  0  0  0  1  0  0  0  0  0  0
  190.2770  177.4830  142.1410 N   0  0  0  0  0  2  0  0  0  0  0  0
  190.3000  175.2480  142.8560 O   0  0  0  0  0  0  0  0  0  0  0  0
  190.0970  176.4610  143.1330 C   0  0  0  0  0  0  0  0  0  0  0  0
  190.8000  173.6200  137.0800 O   0  0  0  0  0  0  0  0  0  0  0  0
  190.1000  174.6540  137.2580 C   0  0  0  0  0  0  0  0  0  0  0  0
  188.1740  176.7000  137.8490 C   0  0  2  0  0  3  0  0  0  0  0  0
  191.8720  175.9260  138.3200 C   0  0  0  0  0  3  0  0  0  0  0  0
  188.2540  176.0740  136.5240 N   0  0  0  0  0  2  0  0  0  0  0  0
  192.4330  177.1130  139.0240 C   0  0  0  0  0  2  0  0  0  0  0  0
  187.6300  178.1110  137.6890 C   0  0  0  0  0  1  0  0  0  0  0  0
  190.6550  177.3090  140.7680 C   0  0  0  0  0  0  0  0  0  0  0  0
  190.5650  175.7610  138.0990 C   0  0  0  0  0  0  0  0  0  0  0  0
  191.9440  177.1950  140.4270 C   0  0  0  0  0  3  0  0  0  0  0  0
  188.8160  174.7900  136.6470 N   0  0  0  0  0  0  0  0  0  0  0  0
  189.5560  177.3050  139.7760 C   0  0  0  0  0  3  0  0  0  0  0  0
  189.5120  176.7030  138.5730 C   0  0  0  0  0  0  0  0  0  0  0  0
  186.3590  174.2460  136.0310 C   0  0  0  0  0  1  0  0  0  0  0  0
  187.9600  173.3910  135.9850 S   0  0  0  0  0  0  0  0  0  0  0  0
  1  4  1  0  0  0  0
  1 26  1  0  0  0  0
  3  5  1  0  0  0  0
  4  2  2  0  0  0  0
  5  6  2  0  0  0  0
  6  2  1  0  0  0  0
  7  5  1  0  0  0  0
  7  4  1  0  0  0  0
  8 12  1  6  0  0  0
  8 11  1  0  0  0  0
  8  3  1  0  0  0  0
 10 11  2  0  0  0  0
 11  9  1  0  0  0  0
 13 12  1  0  0  0  0
 14 18  1  0  0  0  0
 14 16  1  0  0  0  0
 15 17  1  0  0  0  0
 15 23  1  0  0  0  0
 15 13  1  1  0  0  0
 16 19  1  1  0  0  0
 16 17  1  0  0  0  0
 18 15  1  0  0  0  0
 19 21  1  0  0  0  0
 20 19  2  0  0  0  0
 23 22  1  6  0  0  0
 25 23  1  0  0  0  0
 25 24  2  0  0  0  0
 26 28  1  0  0  0  0
 27 28  1  0  0  0  0
 27 29  2  0  0  0  0
 28 30  2  0  0  0  0
 29 31  1  0  0  0  0
 30 31  1  0  0  0  0
 31 32  1  0  0  0  0
 33 35  1  0  0  0  0
 34 35  2  0  0  0  0
 35 27  1  0  0  0  0
 36 37  2  0  0  0  0
 37 44  1  0  0  0  0
 38 42  1  6  0  0  0
 38 48  1  0  0  0  0
 39 41  1  0  0  0  0
 40 46  1  0  0  0  0
 40 38  1  0  0  0  0
 41 45  1  0  0  0  0
 43 33  1  0  0  0  0
 44 39  2  0  0  0  0
 44 48  1  0  0  0  0
 45 43  2  0  0  0  0
 46 37  1  0  0  0  0
 47 43  1  0  0  0  0
 48 47  2  0  0  0  0
 50 49  1  0  0  0  0
 50 46  1  0  0  0  0
M  END
>  <MODEL>
2

>  <REMARK>
 VINA RESULT:      -8.1      2.065      3.719
  Name = 
  14 active torsions:
  status: ('A' for Active; 'I' for Inactive)
    1  A    between atoms: N_2  and  C_36
    2  A    between atoms: C_7  and  C_44
    3  A    between atoms: C_8  and  C_14
    4  A    between atoms: C_9  and  C_21
    5  A    between atoms: C_9  and  C_33
    6  A    between atoms: C_10  and  C_11
    7  A    between atoms: C_10  and  C_25
    8  A    between atoms: C_11  and  C_19
    9  A    between atoms: N_13  and  C_29
   10  A    between atoms: C_21  and  N_38
   11  A    between atoms: C_22  and  C_29
   12  A    between atoms: C_29  and  N_38
   13  A    between atoms: C_32  and  C_33
   14  A    between atoms: N_42  and  S_46
                            x       y       z     vdW  Elec       q    Type
                         _______ _______ _______ _____ _____    ______ ____

>  <TORSDO>
F 14

$$$$
=
 OpenBabel10222419523D

 50 54  0  0  1  0  0  0  0  0999 V2000
  186.8760  178.1500  142.9680 C   0  0  0  0  0  2  0  0  0  0  0  0
  185.0190  179.2940  144.2950 C   0  0  0  0  0  3  0  0  0  0  0  0
  181.6680  179.1440  142.9710 N   0  0  0  0  0  2  0  0  0  0  0  0
  185.4630  178.5420  143.2160 C   0  0  0  0  0  0  0  0  0  0  0  0
  183.0760  179.0140  143.2000 C   0  0  0  0  0  0  0  0  0  0  0  0
  183.6840  179.5480  144.2810 N   0  0  0  0  0  0  0  0  0  0  0  0
  184.1630  178.1940  142.2060 S   0  0  0  0  0  0  0  0  0  0  0  0
  180.9500  178.6420  141.8030 C   0  0  1  0  0  3  0  0  0  0  0  0
  178.9330  178.4860  143.1010 O   0  0  0  0  0  1  0  0  0  0  0  0
  179.2840  176.7960  141.5980 O   0  0  0  0  0  0  0  0  0  0  0  0
  179.6620  177.9860  142.2020 C   0  0  0  0  0  0  0  0  0  0  0  0
  180.7340  179.7070  140.8350 N   0  0  0  0  0  2  0  0  0  0  0  0
  180.5030  179.0700  139.5470 C   0  0  0  0  0  2  0  0  0  0  0  0
  183.4170  178.5590  138.6360 C   0  0  0  0  0  2  0  0  0  0  0  0
  181.4390  179.6380  138.4720 C   0  0  2  0  0  0  0  0  0  0  0  0
  182.8330  178.0620  137.3370 C   0  0  2  0  0  3  0  0  0  0  0  0
  181.4700  178.6810  137.2870 C   0  0  0  0  0  2  0  0  0  0  0  0
  182.7410  179.7330  139.0080 O   0  0  0  0  0  0  0  0  0  0  0  0
  182.7410  176.5720  137.3400 C   0  0  0  0  0  0  0  0  0  0  0  0
  183.1570  175.8380  138.4450 O   0  0  0  0  0  1  0  0  0  0  0  0
  182.3020  175.9760  136.3240 O   0  0  0  0  0  0  0  0  0  0  0  0
  181.8750  182.0130  138.4110 O   0  0  0  0  0  1  0  0  0  0  0  0
  180.9600  181.0310  138.0230 C   0  0  1  0  0  3  0  0  0  0  0  0
  179.6670  181.4570  136.0910 O   0  0  0  0  0  0  0  0  0  0  0  0
  180.7440  181.1050  136.5400 C   0  0  0  0  0  3  0  0  0  0  0  0
  187.1710  176.8240  143.6400 C   0  0  0  0  0  2  0  0  0  0  0  0
  189.6580  176.8590  144.2970 C   0  0  0  0  0  0  0  0  0  0  0  0
  188.3090  176.9780  144.5880 C   0  0  0  0  0  0  0  0  0  0  0  0
  190.3190  177.1210  145.4820 C   0  0  0  0  0  3  0  0  0  0  0  0
  188.1590  177.3070  145.8840 N   0  0  0  0  0  0  0  0  0  0  0  0
  189.3730  177.3840  146.4040 N   0  0  0  0  0  0  0  0  0  0  0  0
  189.6320  177.7190  147.7920 C   0  0  0  0  0  1  0  0  0  0  0  0
  190.5570  177.5770  142.0660 N   0  0  0  0  0  2  0  0  0  0  0  0
  190.5870  175.3310  142.7440 O   0  0  0  0  0  0  0  0  0  0  0  0
  190.2870  176.5270  143.0070 C   0  0  0  0  0  0  0  0  0  0  0  0
  191.6380  173.9640  136.9100 O   0  0  0  0  0  0  0  0  0  0  0  0
  190.9840  175.0340  137.0440 C   0  0  0  0  0  0  0  0  0  0  0  0
  189.1170  177.1760  137.4600 C   0  0  2  0  0  3  0  0  0  0  0  0
  192.6390  176.1190  138.4460 C   0  0  0  0  0  3  0  0  0  0  0  0
  189.3680  176.6180  136.1250 N   0  0  0  0  0  2  0  0  0  0  0  0
  193.1540  177.2240  139.3020 C   0  0  0  0  0  2  0  0  0  0  0  0
  188.6930  178.6280  137.3080 C   0  0  0  0  0  1  0  0  0  0  0  0
  191.1370  177.4510  140.7590 C   0  0  0  0  0  0  0  0  0  0  0  0
  191.3760  176.0590  138.0150 C   0  0  0  0  0  0  0  0  0  0  0  0
  192.4530  177.2640  140.6160 C   0  0  0  0  0  3  0  0  0  0  0  0
  189.8230  175.2920  136.2510 N   0  0  0  0  0  0  0  0  0  0  0  0
  190.2100  177.5770  139.6120 C   0  0  0  0  0  3  0  0  0  0  0  0
  190.3210  177.0460  138.3800 C   0  0  0  0  0  0  0  0  0  0  0  0
  187.9810  173.5610  136.8150 C   0  0  0  0  0  1  0  0  0  0  0  0
  188.9990  173.9950  135.3760 S   0  0  0  0  0  0  0  0  0  0  0  0
  1  4  1  0  0  0  0
  1 26  1  0  0  0  0
  3  5  1  0  0  0  0
  4  2  2  0  0  0  0
  5  6  2  0  0  0  0
  6  2  1  0  0  0  0
  7  5  1  0  0  0  0
  7  4  1  0  0  0  0
  8 12  1  6  0  0  0
  8 11  1  0  0  0  0
  8  3  1  0  0  0  0
 10 11  2  0  0  0  0
 11  9  1  0  0  0  0
 13 12  1  0  0  0  0
 14 18  1  0  0  0  0
 15 18  1  0  0  0  0
 15 13  1  1  0  0  0
 16 19  1  1  0  0  0
 16 14  1  0  0  0  0
 17 16  1  0  0  0  0
 17 15  1  0  0  0  0
 19 20  1  0  0  0  0
 21 19  2  0  0  0  0
 23 22  1  6  0  0  0
 23 15  1  0  0  0  0
 24 25  2  0  0  0  0
 25 23  1  0  0  0  0
 26 28  1  0  0  0  0
 27 28  1  0  0  0  0
 27 29  2  0  0  0  0
 28 30  2  0  0  0  0
 29 31  1  0  0  0  0
 30 31  1  0  0  0  0
 31 32  1  0  0  0  0
 33 35  1  0  0  0  0
 34 35  2  0  0  0  0
 35 27  1  0  0  0  0
 36 37  2  0  0  0  0
 37 44  1  0  0  0  0
 38 42  1  6  0  0  0
 38 48  1  0  0  0  0
 39 41  1  0  0  0  0
 40 46  1  0  0  0  0
 40 38  1  0  0  0  0
 41 45  1  0  0  0  0
 43 33  1  0  0  0  0
 44 48  1  0  0  0  0
 44 39  2  0  0  0  0
 45 43  2  0  0  0  0
 46 37  1  0  0  0  0
 47 43  1  0  0  0  0
 48 47  2  0  0  0  0
 50 46  1  0  0  0  0
 50 49  1  0  0  0  0
M  END
>  <MODEL>
3

>  <REMARK>
 VINA RESULT:      -7.9      1.733      3.080
  Name = 
  14 active torsions:
  status: ('A' for Active; 'I' for Inactive)
    1  A    between atoms: N_2  and  C_36
    2  A    between atoms: C_7  and  C_44
    3  A    between atoms: C_8  and  C_14
    4  A    between atoms: C_9  and  C_21
    5  A    between atoms: C_9  and  C_33
    6  A    between atoms: C_10  and  C_11
    7  A    between atoms: C_10  and  C_25
    8  A    between atoms: C_11  and  C_19
    9  A    between atoms: N_13  and  C_29
   10  A    between atoms: C_21  and  N_38
   11  A    between atoms: C_22  and  C_29
   12  A    between atoms: C_29  and  N_38
   13  A    between atoms: C_32  and  C_33
   14  A    between atoms: N_42  and  S_46
                            x       y       z     vdW  Elec       q    Type
                         _______ _______ _______ _____ _____    ______ ____

>  <TORSDO>
F 14

$$$$
=
 OpenBabel10222419523D

 50 54  0  0  1  0  0  0  0  0999 V2000
  185.9310  178.3680  144.2020 C   0  0  0  0  0  2  0  0  0  0  0  0
  185.4730  178.7960  141.7270 C   0  0  0  0  0  3  0  0  0  0  0  0
  182.0350  179.0830  140.6800 N   0  0  0  0  0  2  0  0  0  0  0  0
  185.0440  178.6130  143.0350 C   0  0  0  0  0  0  0  0  0  0  0  0
  183.2490  178.9180  141.4200 C   0  0  0  0  0  0  0  0  0  0  0  0
  184.4650  178.9720  140.8330 N   0  0  0  0  0  0  0  0  0  0  0  0
  183.3620  178.6540  143.0810 S   0  0  0  0  0  0  0  0  0  0  0  0
  180.6860  178.9850  141.2310 C   0  0  1  0  0  3  0  0  0  0  0  0
  179.7780  180.9350  142.3050 O   0  0  0  0  0  1  0  0  0  0  0  0
  179.5830  180.8690  140.0240 O   0  0  0  0  0  0  0  0  0  0  0  0
  180.0030  180.3200  141.2270 C   0  0  0  0  0  0  0  0  0  0  0  0
  179.9100  177.9800  140.5200 N   0  0  0  0  0  2  0  0  0  0  0  0
  180.8180  176.8900  140.2000 C   0  0  0  0  0  2  0  0  0  0  0  0
  180.6930  177.0880  137.1130 C   0  0  0  0  0  2  0  0  0  0  0  0
  180.2660  176.0240  139.0590 C   0  0  2  0  0  0  0  0  0  0  0  0
  181.6050  175.8880  137.0840 C   0  0  2  0  0  3  0  0  0  0  0  0
  181.4130  175.2490  138.4260 C   0  0  0  0  0  2  0  0  0  0  0  0
  179.6990  176.8690  138.0820 O   0  0  0  0  0  0  0  0  0  0  0  0
  183.0230  176.3120  136.8940 C   0  0  0  0  0  0  0  0  0  0  0  0
  183.6130  177.2250  137.7610 O   0  0  0  0  0  1  0  0  0  0  0  0
  183.6850  175.8520  135.9290 O   0  0  0  0  0  0  0  0  0  0  0  0
  178.9310  174.0520  138.6550 O   0  0  0  0  0  1  0  0  0  0  0  0
  179.1940  175.0550  139.5920 C   0  0  1  0  0  3  0  0  0  0  0  0
  178.9310  174.6170  141.9000 O   0  0  0  0  0  0  0  0  0  0  0  0
  179.5960  174.4280  140.8950 C   0  0  0  0  0  3  0  0  0  0  0  0
  186.7550  177.1160  143.9720 C   0  0  0  0  0  2  0  0  0  0  0  0
  189.2870  176.9090  144.3820 C   0  0  0  0  0  0  0  0  0  0  0  0
  187.9910  177.1610  144.8030 C   0  0  0  0  0  0  0  0  0  0  0  0
  190.0840  177.1100  145.4940 C   0  0  0  0  0  3  0  0  0  0  0  0
  188.0020  177.5100  146.1010 N   0  0  0  0  0  0  0  0  0  0  0  0
  189.2630  177.4700  146.4990 N   0  0  0  0  0  0  0  0  0  0  0  0
  189.6890  177.7850  147.8510 C   0  0  0  0  0  1  0  0  0  0  0  0
  189.7110  177.4650  141.9730 N   0  0  0  0  0  2  0  0  0  0  0  0
  190.1800  175.3400  142.8490 O   0  0  0  0  0  0  0  0  0  0  0  0
  189.7500  176.5090  143.0430 C   0  0  0  0  0  0  0  0  0  0  0  0
  189.9710  173.5760  136.9110 O   0  0  0  0  0  0  0  0  0  0  0  0
  189.3610  174.6670  137.0820 C   0  0  0  0  0  0  0  0  0  0  0  0
  187.6120  176.8730  137.6480 C   0  0  2  0  0  3  0  0  0  0  0  0
  191.2210  175.7780  138.1720 C   0  0  0  0  0  3  0  0  0  0  0  0
  187.6570  176.2430  136.3230 N   0  0  0  0  0  2  0  0  0  0  0  0
  191.8740  176.9110  138.8860 C   0  0  0  0  0  2  0  0  0  0  0  0
  187.1960  178.3250  137.4830 C   0  0  0  0  0  1  0  0  0  0  0  0
  190.0930  177.2600  140.6040 C   0  0  0  0  0  0  0  0  0  0  0  0
  189.9080  175.7290  137.9310 C   0  0  0  0  0  0  0  0  0  0  0  0
  191.3720  177.0340  140.2830 C   0  0  0  0  0  3  0  0  0  0  0  0
  188.1020  174.9150  136.4520 N   0  0  0  0  0  0  0  0  0  0  0  0
  189.0130  177.3530  139.5970 C   0  0  0  0  0  3  0  0  0  0  0  0
  188.9340  176.7590  138.3910 C   0  0  0  0  0  0  0  0  0  0  0  0
  186.3450  173.2480  137.3690 C   0  0  0  0  0  1  0  0  0  0  0  0
  187.1380  173.5960  135.7740 S   0  0  0  0  0  0  0  0  0  0  0  0
  2  4  2  0  0  0  0
  3  8  1  0  0  0  0
  3  5  1  0  0  0  0
  4  7  1  0  0  0  0
  4  1  1  0  0  0  0
  5  7  1  0  0  0  0
  6  5  2  0  0  0  0
  6  2  1  0  0  0  0
  8 12  1  6  0  0  0
 10 11  2  0  0  0  0
 11  8  1  0  0  0  0
 11  9  1  0  0  0  0
 13 12  1  0  0  0  0
 14 18  1  0  0  0  0
 15 23  1  0  0  0  0
 15 13  1  1  0  0  0
 16 19  1  1  0  0  0
 16 14  1  0  0  0  0
 16 17  1  0  0  0  0
 17 15  1  0  0  0  0
 18 15  1  0  0  0  0
 19 20  1  0  0  0  0
 21 19  2  0  0  0  0
 23 22  1  6  0  0  0
 23 25  1  0  0  0  0
 25 24  2  0  0  0  0
 26  1  1  0  0  0  0
 26 28  1  0  0  0  0
 27 28  1  0  0  0  0
 27 29  2  0  0  0  0
 28 30  2  0  0  0  0
 29 31  1  0  0  0  0
 30 31  1  0  0  0  0
 31 32  1  0  0  0  0
 33 35  1  0  0  0  0
 34 35  2  0  0  0  0
 35 27  1  0  0  0  0
 36 37  2  0  0  0  0
 37 44  1  0  0  0  0
 38 42  1  6  0  0  0
 38 48  1  0  0  0  0
 39 41  1  0  0  0  0
 40 46  1  0  0  0  0
 40 38  1  0  0  0  0
 41 45  1  0  0  0  0
 43 33  1  0  0  0  0
 44 39  2  0  0  0  0
 44 48  1  0  0  0  0
 45 43  2  0  0  0  0
 46 37  1  0  0  0  0
 47 43  1  0  0  0  0
 48 47  2  0  0  0  0
 50 46  1  0  0  0  0
 50 49  1  0  0  0  0
M  END
>  <MODEL>
4

>  <REMARK>
 VINA RESULT:      -7.9      1.229      1.604
  Name = 
  14 active torsions:
  status: ('A' for Active; 'I' for Inactive)
    1  A    between atoms: N_2  and  C_36
    2  A    between atoms: C_7  and  C_44
    3  A    between atoms: C_8  and  C_14
    4  A    between atoms: C_9  and  C_21
    5  A    between atoms: C_9  and  C_33
    6  A    between atoms: C_10  and  C_11
    7  A    between atoms: C_10  and  C_25
    8  A    between atoms: C_11  and  C_19
    9  A    between atoms: N_13  and  C_29
   10  A    between atoms: C_21  and  N_38
   11  A    between atoms: C_22  and  C_29
   12  A    between atoms: C_29  and  N_38
   13  A    between atoms: C_32  and  C_33
   14  A    between atoms: N_42  and  S_46
                            x       y       z     vdW  Elec       q    Type
                         _______ _______ _______ _____ _____    ______ ____

>  <TORSDO>
F 14

$$$$
=
 OpenBabel10222419523D

 50 54  0  0  1  0  0  0  0  0999 V2000
  185.0870  178.6210  144.6500 C   0  0  0  0  0  2  0  0  0  0  0  0
  182.6450  178.8540  143.9420 C   0  0  0  0  0  3  0  0  0  0  0  0
  181.8800  178.5800  140.4290 N   0  0  0  0  0  2  0  0  0  0  0  0
  183.9850  178.6330  143.6520 C   0  0  0  0  0  0  0  0  0  0  0  0
  182.5210  178.6350  141.7080 C   0  0  0  0  0  0  0  0  0  0  0  0
  181.8340  178.8480  142.8520 N   0  0  0  0  0  0  0  0  0  0  0  0
  184.1710  178.4400  141.9920 S   0  0  0  0  0  0  0  0  0  0  0  0
  182.5580  178.4080  139.1480 C   0  0  1  0  0  3  0  0  0  0  0  0
  184.6960  179.4360  138.7590 O   0  0  0  0  0  1  0  0  0  0  0  0
  182.8880  180.8400  138.6960 O   0  0  0  0  0  0  0  0  0  0  0  0
  183.4460  179.5780  138.8470 C   0  0  0  0  0  0  0  0  0  0  0  0
  183.2930  177.1530  139.1170 N   0  0  0  0  0  2  0  0  0  0  0  0
  182.6290  176.2950  138.1470 C   0  0  0  0  0  2  0  0  0  0  0  0
  184.5360  173.9210  137.5930 C   0  0  0  0  0  2  0  0  0  0  0  0
  183.5870  175.8880  137.0200 C   0  0  2  0  0  0  0  0  0  0  0  0
  183.6250  173.5690  136.4430 C   0  0  2  0  0  3  0  0  0  0  0  0
  182.9040  174.8480  136.1420 C   0  0  0  0  0  2  0  0  0  0  0  0
  184.7400  175.3110  137.5900 O   0  0  0  0  0  0  0  0  0  0  0  0
  182.6660  172.4980  136.8420 C   0  0  0  0  0  0  0  0  0  0  0  0
  183.0550  171.1630  136.8490 O   0  0  0  0  0  0  0  0  0  0  0  0
  181.4880  172.8060  137.1570 O   0  0  0  0  0  1  0  0  0  0  0  0
  185.2220  176.9170  135.5690 O   0  0  0  0  0  1  0  0  0  0  0  0
  183.9820  177.1190  136.1820 C   0  0  1  0  0  3  0  0  0  0  0  0
  182.0290  178.1940  135.3990 O   0  0  0  0  0  0  0  0  0  0  0  0
  182.9560  177.4460  135.1380 C   0  0  0  0  0  3  0  0  0  0  0  0
  186.3280  177.9970  144.0430 C   0  0  0  0  0  2  0  0  0  0  0  0
  188.7290  177.8220  144.9520 C   0  0  0  0  0  0  0  0  0  0  0  0
  187.3520  177.7710  145.1010 C   0  0  0  0  0  0  0  0  0  0  0  0
  189.2480  177.5820  146.2100 C   0  0  0  0  0  3  0  0  0  0  0  0
  187.0500  177.5230  146.3880 N   0  0  0  0  0  0  0  0  0  0  0  0
  188.1980  177.4090  147.0370 N   0  0  0  0  0  0  0  0  0  0  0  0
  188.2930  177.1400  148.4600 C   0  0  0  0  0  1  0  0  0  0  0  0
  189.3480  177.1990  142.6020 N   0  0  0  0  0  2  0  0  0  0  0  0
  190.2910  179.0610  143.6740 O   0  0  0  0  0  0  0  0  0  0  0  0
  189.5050  178.0770  143.7270 C   0  0  0  0  0  0  0  0  0  0  0  0
  191.3620  174.2110  137.3260 O   0  0  0  0  0  0  0  0  0  0  0  0
  190.5320  175.1490  137.4760 C   0  0  0  0  0  0  0  0  0  0  0  0
  188.3130  176.9260  137.8780 C   0  0  2  0  0  3  0  0  0  0  0  0
  191.8860  176.3740  139.0730 C   0  0  0  0  0  3  0  0  0  0  0  0
  188.7430  176.5190  136.5350 N   0  0  0  0  0  2  0  0  0  0  0  0
  192.1510  177.4790  140.0370 C   0  0  0  0  0  2  0  0  0  0  0  0
  187.6660  178.2990  137.7870 C   0  0  0  0  0  1  0  0  0  0  0  0
  190.0290  177.2680  141.3400 C   0  0  0  0  0  0  0  0  0  0  0  0
  190.6820  176.1460  138.5390 C   0  0  0  0  0  0  0  0  0  0  0  0
  191.3650  177.3060  141.2900 C   0  0  0  0  0  3  0  0  0  0  0  0
  189.4020  175.2780  136.6120 N   0  0  0  0  0  0  0  0  0  0  0  0
  189.1750  177.3320  140.1320 C   0  0  0  0  0  3  0  0  0  0  0  0
  189.4560  176.9210  138.8820 C   0  0  0  0  0  0  0  0  0  0  0  0
  188.3150  172.9630  137.0220 C   0  0  0  0  0  1  0  0  0  0  0  0
  188.8660  173.9360  135.5920 S   0  0  0  0  0  0  0  0  0  0  0  0
  3  5  1  0  0  0  0
  4  2  2  0  0  0  0
  4  1  1  0  0  0  0
  5  7  1  0  0  0  0
  5  6  2  0  0  0  0
  6  2  1  0  0  0  0
  7  4  1  0  0  0  0
  8 11  1  1  0  0  0
  8  3  1  0  0  0  0
  9 11  1  0  0  0  0
 10 11  2  0  0  0  0
 12  8  1  0  0  0  0
 13 12  1  0  0  0  0
 15 18  1  0  0  0  0
 15 13  1  1  0  0  0
 16 19  1  1  0  0  0
 16 14  1  0  0  0  0
 17 16  1  0  0  0  0
 17 15  1  0  0  0  0
 18 14  1  0  0  0  0
 19 20  2  0  0  0  0
 19 21  1  0  0  0  0
 23 22  1  6  0  0  0
 23 15  1  0  0  0  0
 25 24  2  0  0  0  0
 25 23  1  0  0  0  0
 26  1  1  0  0  0  0
 26 28  1  0  0  0  0
 27 28  1  0  0  0  0
 27 29  2  0  0  0  0
 28 30  2  0  0  0  0
 29 31  1  0  0  0  0
 30 31  1  0  0  0  0
 31 32  1  0  0  0  0
 33 35  1  0  0  0  0
 34 35  2  0  0  0  0
 35 27  1  0  0  0  0
 36 37  2  0  0  0  0
 37 44  1  0  0  0  0
 38 42  1  6  0  0  0
 38 48  1  0  0  0  0
 39 41  1  0  0  0  0
 40 46  1  0  0  0  0
 40 38  1  0  0  0  0
 41 45  1  0  0  0  0
 43 33  1  0  0  0  0
 44 48  1  0  0  0  0
 44 39  2  0  0  0  0
 45 43  2  0  0  0  0
 46 37  1  0  0  0  0
 47 43  1  0  0  0  0
 48 47  2  0  0  0  0
 50 46  1  0  0  0  0
 50 49  1  0  0  0  0
M  END
>  <MODEL>
5

>  <REMARK>
 VINA RESULT:      -7.7      2.149      3.071
  Name = 
  14 active torsions:
  status: ('A' for Active; 'I' for Inactive)
    1  A    between atoms: N_2  and  C_36
    2  A    between atoms: C_7  and  C_44
    3  A    between atoms: C_8  and  C_14
    4  A    between atoms: C_9  and  C_21
    5  A    between atoms: C_9  and  C_33
    6  A    between atoms: C_10  and  C_11
    7  A    between atoms: C_10  and  C_25
    8  A    between atoms: C_11  and  C_19
    9  A    between atoms: N_13  and  C_29
   10  A    between atoms: C_21  and  N_38
   11  A    between atoms: C_22  and  C_29
   12  A    between atoms: C_29  and  N_38
   13  A    between atoms: C_32  and  C_33
   14  A    between atoms: N_42  and  S_46
                            x       y       z     vdW  Elec       q    Type
                         _______ _______ _______ _____ _____    ______ ____

>  <TORSDO>
F 14

$$$$
=
 OpenBabel10222419523D

 50 54  0  0  1  0  0  0  0  0999 V2000
  185.6770  178.3090  143.8560 C   0  0  0  0  0  2  0  0  0  0  0  0
  185.9120  179.1170  141.4450 C   0  0  0  0  0  3  0  0  0  0  0  0
  182.9130  179.3800  139.4610 N   0  0  0  0  0  2  0  0  0  0  0  0
  185.1440  178.6950  142.5220 C   0  0  0  0  0  0  0  0  0  0  0  0
  183.8720  179.1630  140.5010 C   0  0  0  0  0  0  0  0  0  0  0  0
  185.1930  179.3820  140.3220 N   0  0  0  0  0  0  0  0  0  0  0  0
  183.5270  178.6340  142.0640 S   0  0  0  0  0  0  0  0  0  0  0  0
  181.4810  179.1160  139.5590 C   0  0  1  0  0  3  0  0  0  0  0  0
  180.0950  180.6550  140.7790 O   0  0  0  0  0  1  0  0  0  0  0  0
  180.6340  181.2770  138.6430 O   0  0  0  0  0  0  0  0  0  0  0  0
  180.7060  180.3910  139.7090 C   0  0  0  0  0  0  0  0  0  0  0  0
  181.0210  178.3370  138.4200 N   0  0  0  0  0  2  0  0  0  0  0  0
  182.1920  178.0310  137.6130 C   0  0  0  0  0  2  0  0  0  0  0  0
  182.2210  175.6270  139.5630 C   0  0  0  0  0  2  0  0  0  0  0  0
  182.4040  176.5160  137.4950 C   0  0  2  0  0  0  0  0  0  0  0  0
  180.9910  175.1360  138.8420 C   0  0  2  0  0  3  0  0  0  0  0  0
  181.0470  175.8240  137.5120 C   0  0  0  0  0  2  0  0  0  0  0  0
  183.1490  176.0730  138.6070 O   0  0  0  0  0  0  0  0  0  0  0  0
  179.7570  175.5220  139.5890 C   0  0  0  0  0  0  0  0  0  0  0  0
  179.4930  174.9890  140.8450 O   0  0  0  0  0  1  0  0  0  0  0  0
  178.9410  176.3230  139.0660 O   0  0  0  0  0  0  0  0  0  0  0  0
  183.9240  177.2720  135.7760 O   0  0  0  0  0  1  0  0  0  0  0  0
  183.1600  176.1800  136.1960 C   0  0  1  0  0  3  0  0  0  0  0  0
  183.5920  173.8560  136.2260 O   0  0  0  0  0  0  0  0  0  0  0  0
  184.0480  174.9800  136.3520 C   0  0  0  0  0  3  0  0  0  0  0  0
  186.5230  177.0570  143.7330 C   0  0  0  0  0  2  0  0  0  0  0  0
  189.0270  176.9400  144.3150 C   0  0  0  0  0  0  0  0  0  0  0  0
  187.6970  177.1460  144.6460 C   0  0  0  0  0  0  0  0  0  0  0  0
  189.7380  177.1690  145.4780 C   0  0  0  0  0  3  0  0  0  0  0  0
  187.6070  177.4940  145.9420 N   0  0  0  0  0  0  0  0  0  0  0  0
  188.8390  177.4980  146.4250 N   0  0  0  0  0  0  0  0  0  0  0  0
  189.1610  177.8280  147.8010 C   0  0  0  0  0  1  0  0  0  0  0  0
  189.5400  177.4910  141.9220 N   0  0  0  0  0  2  0  0  0  0  0  0
  190.1240  175.4230  142.8650 O   0  0  0  0  0  0  0  0  0  0  0  0
  189.5940  176.5570  143.0110 C   0  0  0  0  0  0  0  0  0  0  0  0
  190.2750  173.5900  136.9160 O   0  0  0  0  0  0  0  0  0  0  0  0
  189.6090  174.6540  137.0410 C   0  0  0  0  0  0  0  0  0  0  0  0
  187.7350  176.7850  137.4830 C   0  0  2  0  0  3  0  0  0  0  0  0
  191.3500  175.8520  138.2320 C   0  0  0  0  0  3  0  0  0  0  0  0
  187.8880  176.1510  136.1680 N   0  0  0  0  0  2  0  0  0  0  0  0
  191.9080  177.0160  138.9760 C   0  0  0  0  0  2  0  0  0  0  0  0
  187.2680  178.2170  137.2820 C   0  0  0  0  0  1  0  0  0  0  0  0
  190.0130  177.2950  140.5810 C   0  0  0  0  0  0  0  0  0  0  0  0
  190.0570  175.7440  137.9130 C   0  0  0  0  0  0  0  0  0  0  0  0
  191.3180  177.1240  140.3390 C   0  0  0  0  0  3  0  0  0  0  0  0
  188.3820  174.8440  136.3340 N   0  0  0  0  0  0  0  0  0  0  0  0
  188.9930  177.3350  139.5090 C   0  0  0  0  0  3  0  0  0  0  0  0
  189.0140  176.7320  138.3060 C   0  0  0  0  0  0  0  0  0  0  0  0
  186.9400  172.8850  137.2230 C   0  0  0  0  0  1  0  0  0  0  0  0
  187.5180  173.4810  135.6090 S   0  0  0  0  0  0  0  0  0  0  0  0
  2  4  2  0  0  0  0
  3  8  1  0  0  0  0
  3  5  1  0  0  0  0
  4  1  1  0  0  0  0
  5  7  1  0  0  0  0
  6  5  2  0  0  0  0
  6  2  1  0  0  0  0
  7  4  1  0  0  0  0
  8 12  1  6  0  0  0
  8 11  1  0  0  0  0
 10 11  2  0  0  0  0
 11  9  1  0  0  0  0
 13 12  1  0  0  0  0
 15 17  1  0  0  0  0
 15 13  1  1  0  0  0
 15 18  1  0  0  0  0
 16 14  1  0  0  0  0
 16 19  1  1  0  0  0
 17 16  1  0  0  0  0
 18 14  1  0  0  0  0
 19 20  1  0  0  0  0
 21 19  2  0  0  0  0
 23 22  1  1  0  0  0
 23 25  1  0  0  0  0
 23 15  1  0  0  0  0
 24 25  2  0  0  0  0
 26  1  1  0  0  0  0
 26 28  1  0  0  0  0
 27 28  1  0  0  0  0
 27 29  2  0  0  0  0
 28 30  2  0  0  0  0
 29 31  1  0  0  0  0
 30 31  1  0  0  0  0
 31 32  1  0  0  0  0
 33 35  1  0  0  0  0
 34 35  2  0  0  0  0
 35 27  1  0  0  0  0
 36 37  2  0  0  0  0
 37 44  1  0  0  0  0
 38 42  1  6  0  0  0
 38 48  1  0  0  0  0
 39 41  1  0  0  0  0
 40 46  1  0  0  0  0
 40 38  1  0  0  0  0
 41 45  1  0  0  0  0
 43 33  1  0  0  0  0
 44 39  2  0  0  0  0
 44 48  1  0  0  0  0
 45 43  2  0  0  0  0
 46 37  1  0  0  0  0
 47 43  1  0  0  0  0
 48 47  2  0  0  0  0
 50 46  1  0  0  0  0
 50 49  1  0  0  0  0
M  END
>  <MODEL>
6

>  <REMARK>
 VINA RESULT:      -7.7      0.931      2.603
  Name = 
  14 active torsions:
  status: ('A' for Active; 'I' for Inactive)
    1  A    between atoms: N_2  and  C_36
    2  A    between atoms: C_7  and  C_44
    3  A    between atoms: C_8  and  C_14
    4  A    between atoms: C_9  and  C_21
    5  A    between atoms: C_9  and  C_33
    6  A    between atoms: C_10  and  C_11
    7  A    between atoms: C_10  and  C_25
    8  A    between atoms: C_11  and  C_19
    9  A    between atoms: N_13  and  C_29
   10  A    between atoms: C_21  and  N_38
   11  A    between atoms: C_22  and  C_29
   12  A    between atoms: C_29  and  N_38
   13  A    between atoms: C_32  and  C_33
   14  A    between atoms: N_42  and  S_46
                            x       y       z     vdW  Elec       q    Type
                         _______ _______ _______ _____ _____    ______ ____

>  <TORSDO>
F 14

$$$$
=
 OpenBabel10222419523D

 50 54  0  0  1  0  0  0  0  0999 V2000
  186.5320  178.5020  143.1060 C   0  0  0  0  0  2  0  0  0  0  0  0
  183.9800  178.5380  143.0420 C   0  0  0  0  0  3  0  0  0  0  0  0
  182.3850  178.9130  139.8290 N   0  0  0  0  0  2  0  0  0  0  0  0
  185.2180  178.5720  142.4140 C   0  0  0  0  0  0  0  0  0  0  0  0
  183.3190  178.7840  140.9070 C   0  0  0  0  0  0  0  0  0  0  0  0
  182.9250  178.6510  142.1920 N   0  0  0  0  0  0  0  0  0  0  0  0
  184.9990  178.7640  140.7570 S   0  0  0  0  0  0  0  0  0  0  0  0
  182.7330  179.1140  138.4260 C   0  0  1  0  0  3  0  0  0  0  0  0
  181.6920  177.0140  137.8910 O   0  0  0  0  0  1  0  0  0  0  0  0
  183.5680  177.5330  136.6860 O   0  0  0  0  0  0  0  0  0  0  0  0
  182.6200  177.8340  137.6530 C   0  0  0  0  0  0  0  0  0  0  0  0
  181.9210  180.1700  137.8400 N   0  0  0  0  0  2  0  0  0  0  0  0
  181.3370  180.9190  138.9420 C   0  0  0  0  0  2  0  0  0  0  0  0
  179.8430  183.2950  137.6380 C   0  0  0  0  0  2  0  0  0  0  0  0
  179.8740  181.2790  138.6550 C   0  0  2  0  0  0  0  0  0  0  0  0
  179.4300  182.3290  136.5550 C   0  0  2  0  0  3  0  0  0  0  0  0
  179.5690  180.9810  137.1940 C   0  0  0  0  0  2  0  0  0  0  0  0
  179.6930  182.6590  138.8820 O   0  0  0  0  0  0  0  0  0  0  0  0
  180.3300  182.4530  135.3710 C   0  0  0  0  0  0  0  0  0  0  0  0
  180.8040  183.6960  134.9670 O   0  0  0  0  0  1  0  0  0  0  0  0
  180.6470  181.4230  134.7230 O   0  0  0  0  0  0  0  0  0  0  0  0
  179.1160  179.1030  139.3820 O   0  0  0  0  0  1  0  0  0  0  0  0
  178.9340  180.4750  139.5730 C   0  0  1  0  0  3  0  0  0  0  0  0
  179.3720  179.9260  141.8300 O   0  0  0  0  0  0  0  0  0  0  0  0
  179.1360  180.8090  141.0220 C   0  0  0  0  0  3  0  0  0  0  0  0
  186.6430  177.2000  143.8750 C   0  0  0  0  0  2  0  0  0  0  0  0
  189.1540  176.9800  144.3930 C   0  0  0  0  0  0  0  0  0  0  0  0
  187.8410  177.2320  144.7590 C   0  0  0  0  0  0  0  0  0  0  0  0
  189.9020  177.1670  145.5390 C   0  0  0  0  0  3  0  0  0  0  0  0
  187.7970  177.5680  146.0600 N   0  0  0  0  0  0  0  0  0  0  0  0
  189.0400  177.5200  146.5120 N   0  0  0  0  0  0  0  0  0  0  0  0
  189.4080  177.8200  147.8840 C   0  0  0  0  0  1  0  0  0  0  0  0
  189.6640  177.5530  142.0040 N   0  0  0  0  0  2  0  0  0  0  0  0
  190.1260  175.4300  142.8890 O   0  0  0  0  0  0  0  0  0  0  0  0
  189.6740  176.5920  143.0700 C   0  0  0  0  0  0  0  0  0  0  0  0
  190.3300  173.6380  136.9990 O   0  0  0  0  0  0  0  0  0  0  0  0
  189.6470  174.6890  137.1380 C   0  0  0  0  0  0  0  0  0  0  0  0
  187.7450  176.7850  137.6240 C   0  0  2  0  0  3  0  0  0  0  0  0
  191.3980  175.9280  138.2710 C   0  0  0  0  0  3  0  0  0  0  0  0
  187.8720  176.1460  136.3080 N   0  0  0  0  0  2  0  0  0  0  0  0
  191.9540  177.1070  138.9920 C   0  0  0  0  0  2  0  0  0  0  0  0
  187.2430  178.2060  137.4280 C   0  0  0  0  0  1  0  0  0  0  0  0
  190.1020  177.3590  140.6500 C   0  0  0  0  0  0  0  0  0  0  0  0
  190.0990  175.7920  137.9910 C   0  0  0  0  0  0  0  0  0  0  0  0
  191.4020  177.2120  140.3710 C   0  0  0  0  0  3  0  0  0  0  0  0
  188.3960  174.8500  136.4660 N   0  0  0  0  0  0  0  0  0  0  0  0
  189.0500  177.3720  139.6090 C   0  0  0  0  0  3  0  0  0  0  0  0
  189.0480  176.7630  138.4090 C   0  0  0  0  0  0  0  0  0  0  0  0
  186.4400  173.3250  137.2120 C   0  0  0  0  0  1  0  0  0  0  0  0
  187.5390  173.4660  135.7750 S   0  0  0  0  0  0  0  0  0  0  0  0
  1 26  1  0  0  0  0
  3  5  1  0  0  0  0
  4  2  2  0  0  0  0
  4  1  1  0  0  0  0
  5  6  2  0  0  0  0
  6  2  1  0  0  0  0
  7  5  1  0  0  0  0
  7  4  1  0  0  0  0
  8 11  1  6  0  0  0
  8  3  1  0  0  0  0
 10 11  2  0  0  0  0
 11  9  1  0  0  0  0
 12  8  1  0  0  0  0
 12 13  1  0  0  0  0
 14 18  1  0  0  0  0
 15 18  1  0  0  0  0
 15 13  1  1  0  0  0
 15 23  1  0  0  0  0
 16 19  1  6  0  0  0
 16 17  1  0  0  0  0
 16 14  1  0  0  0  0
 17 15  1  0  0  0  0
 20 19  1  0  0  0  0
 21 19  2  0  0  0  0
 23 22  1  1  0  0  0
 23 25  1  0  0  0  0
 25 24  2  0  0  0  0
 26 28  1  0  0  0  0
 27 28  1  0  0  0  0
 27 29  2  0  0  0  0
 28 30  2  0  0  0  0
 29 31  1  0  0  0  0
 30 31  1  0  0  0  0
 31 32  1  0  0  0  0
 33 35  1  0  0  0  0
 34 35  2  0  0  0  0
 35 27  1  0  0  0  0
 36 37  2  0  0  0  0
 37 44  1  0  0  0  0
 38 42  1  6  0  0  0
 38 48  1  0  0  0  0
 39 41  1  0  0  0  0
 40 46  1  0  0  0  0
 40 38  1  0  0  0  0
 41 45  1  0  0  0  0
 43 33  1  0  0  0  0
 44 39  2  0  0  0  0
 44 48  1  0  0  0  0
 45 43  2  0  0  0  0
 46 37  1  0  0  0  0
 47 43  1  0  0  0  0
 48 47  2  0  0  0  0
 50 46  1  0  0  0  0
 50 49  1  0  0  0  0
M  END
>  <MODEL>
7

>  <REMARK>
 VINA RESULT:      -7.6      1.860      3.485
  Name = 
  14 active torsions:
  status: ('A' for Active; 'I' for Inactive)
    1  A    between atoms: N_2  and  C_36
    2  A    between atoms: C_7  and  C_44
    3  A    between atoms: C_8  and  C_14
    4  A    between atoms: C_9  and  C_21
    5  A    between atoms: C_9  and  C_33
    6  A    between atoms: C_10  and  C_11
    7  A    between atoms: C_10  and  C_25
    8  A    between atoms: C_11  and  C_19
    9  A    between atoms: N_13  and  C_29
   10  A    between atoms: C_21  and  N_38
   11  A    between atoms: C_22  and  C_29
   12  A    between atoms: C_29  and  N_38
   13  A    between atoms: C_32  and  C_33
   14  A    between atoms: N_42  and  S_46
                            x       y       z     vdW  Elec       q    Type
                         _______ _______ _______ _____ _____    ______ ____

>  <TORSDO>
F 14

$$$$
=
 OpenBabel10222419523D

 50 54  0  0  1  0  0  0  0  0999 V2000
  186.3790  178.7100  143.8110 C   0  0  0  0  0  2  0  0  0  0  0  0
  185.6040  179.2940  141.4500 C   0  0  0  0  0  3  0  0  0  0  0  0
  182.1290  178.7710  140.6430 N   0  0  0  0  0  2  0  0  0  0  0  0
  185.3560  178.8460  142.7400 C   0  0  0  0  0  0  0  0  0  0  0  0
  183.4060  178.8510  141.2850 C   0  0  0  0  0  0  0  0  0  0  0  0
  184.5080  179.2990  140.6450 N   0  0  0  0  0  0  0  0  0  0  0  0
  183.7330  178.4290  142.8840 S   0  0  0  0  0  0  0  0  0  0  0  0
  180.9070  178.2490  141.2490 C   0  0  1  0  0  3  0  0  0  0  0  0
  180.2120  180.4190  142.0130 O   0  0  0  0  0  0  0  0  0  0  0  0
  180.0650  178.7270  143.5480 O   0  0  0  0  0  1  0  0  0  0  0  0
  180.3670  179.1960  142.2780 C   0  0  0  0  0  0  0  0  0  0  0  0
  179.9170  177.9410  140.2280 N   0  0  0  0  0  2  0  0  0  0  0  0
  180.1060  178.8990  139.1500 C   0  0  0  0  0  2  0  0  0  0  0  0
  178.9720  179.3890  136.3120 C   0  0  0  0  0  2  0  0  0  0  0  0
  180.1920  178.1940  137.7900 C   0  0  2  0  0  0  0  0  0  0  0  0
  180.3980  179.6060  135.8720 C   0  0  2  0  0  3  0  0  0  0  0  0
  181.2140  178.9160  136.9220 C   0  0  0  0  0  2  0  0  0  0  0  0
  178.9320  178.2690  137.1590 O   0  0  0  0  0  0  0  0  0  0  0  0
  180.7150  181.0640  135.8230 C   0  0  0  0  0  0  0  0  0  0  0  0
  180.8200  181.7270  134.6060 O   0  0  0  0  0  0  0  0  0  0  0  0
  180.9090  181.6930  136.8950 O   0  0  0  0  0  1  0  0  0  0  0  0
  179.6940  175.8790  137.3100 O   0  0  0  0  0  1  0  0  0  0  0  0
  180.5930  176.7190  137.9740 C   0  0  1  0  0  3  0  0  0  0  0  0
  182.6520  175.5600  137.9960 O   0  0  0  0  0  0  0  0  0  0  0  0
  181.9860  176.4460  137.4880 C   0  0  0  0  0  3  0  0  0  0  0  0
  186.8340  177.2670  143.9110 C   0  0  0  0  0  2  0  0  0  0  0  0
  189.3340  176.8370  144.3440 C   0  0  0  0  0  0  0  0  0  0  0  0
  188.0560  177.1780  144.7580 C   0  0  0  0  0  0  0  0  0  0  0  0
  190.1270  176.9270  145.4720 C   0  0  0  0  0  3  0  0  0  0  0  0
  188.0750  177.4720  146.0700 N   0  0  0  0  0  0  0  0  0  0  0  0
  189.3220  177.3130  146.4820 N   0  0  0  0  0  0  0  0  0  0  0  0
  189.7520  177.5380  147.8500 C   0  0  0  0  0  1  0  0  0  0  0  0
  189.7650  177.4330  141.9450 N   0  0  0  0  0  2  0  0  0  0  0  0
  190.1850  175.2800  142.7760 O   0  0  0  0  0  0  0  0  0  0  0  0
  189.7840  176.4540  142.9950 C   0  0  0  0  0  0  0  0  0  0  0  0
  190.1650  173.5580  136.8820 O   0  0  0  0  0  0  0  0  0  0  0  0
  189.4990  174.6140  137.0610 C   0  0  0  0  0  0  0  0  0  0  0  0
  187.6400  176.7220  137.6510 C   0  0  2  0  0  3  0  0  0  0  0  0
  191.3110  175.8270  138.1240 C   0  0  0  0  0  3  0  0  0  0  0  0
  187.7010  176.0940  136.3260 N   0  0  0  0  0  2  0  0  0  0  0  0
  191.9100  176.9950  138.8290 C   0  0  0  0  0  2  0  0  0  0  0  0
  187.1430  178.1490  137.4910 C   0  0  0  0  0  1  0  0  0  0  0  0
  190.1380  177.2480  140.5720 C   0  0  0  0  0  0  0  0  0  0  0  0
  189.9990  175.7050  137.9020 C   0  0  0  0  0  0  0  0  0  0  0  0
  191.4220  177.0920  140.2320 C   0  0  0  0  0  3  0  0  0  0  0  0
  188.2200  174.7920  136.4480 N   0  0  0  0  0  0  0  0  0  0  0  0
  189.0400  177.2800  139.5790 C   0  0  0  0  0  3  0  0  0  0  0  0
  188.9770  176.6810  138.3760 C   0  0  0  0  0  0  0  0  0  0  0  0
  186.5990  173.0100  137.3990 C   0  0  0  0  0  1  0  0  0  0  0  0
  187.3200  173.4220  135.7850 S   0  0  0  0  0  0  0  0  0  0  0  0
  1 26  1  0  0  0  0
  2  4  2  0  0  0  0
  3  8  1  0  0  0  0
  3  5  1  0  0  0  0
  4  7  1  0  0  0  0
  4  1  1  0  0  0  0
  5  7  1  0  0  0  0
  6  5  2  0  0  0  0
  6  2  1  0  0  0  0
  8 12  1  6  0  0  0
  8 11  1  0  0  0  0
  9 11  2  0  0  0  0
 11 10  1  0  0  0  0
 13 12  1  0  0  0  0
 14 18  1  0  0  0  0
 15 23  1  0  0  0  0
 15 13  1  1  0  0  0
 16 19  1  1  0  0  0
 16 14  1  0  0  0  0
 16 17  1  0  0  0  0
 17 15  1  0  0  0  0
 18 15  1  0  0  0  0
 19 21  1  0  0  0  0
 20 19  2  0  0  0  0
 23 22  1  6  0  0  0
 25 23  1  0  0  0  0
 25 24  2  0  0  0  0
 26 28  1  0  0  0  0
 27 28  1  0  0  0  0
 27 29  2  0  0  0  0
 28 30  2  0  0  0  0
 29 31  1  0  0  0  0
 30 31  1  0  0  0  0
 31 32  1  0  0  0  0
 33 35  1  0  0  0  0
 34 35  2  0  0  0  0
 35 27  1  0  0  0  0
 36 37  2  0  0  0  0
 37 44  1  0  0  0  0
 38 42  1  6  0  0  0
 38 48  1  0  0  0  0
 39 41  1  0  0  0  0
 40 46  1  0  0  0  0
 40 38  1  0  0  0  0
 41 45  1  0  0  0  0
 43 33  1  0  0  0  0
 44 39  2  0  0  0  0
 44 48  1  0  0  0  0
 45 43  2  0  0  0  0
 46 37  1  0  0  0  0
 47 43  1  0  0  0  0
 48 47  2  0  0  0  0
 50 46  1  0  0  0  0
 50 49  1  0  0  0  0
M  END
>  <MODEL>
8

>  <REMARK>
 VINA RESULT:      -7.3      1.397      2.819
  Name = 
  14 active torsions:
  status: ('A' for Active; 'I' for Inactive)
    1  A    between atoms: N_2  and  C_36
    2  A    between atoms: C_7  and  C_44
    3  A    between atoms: C_8  and  C_14
    4  A    between atoms: C_9  and  C_21
    5  A    between atoms: C_9  and  C_33
    6  A    between atoms: C_10  and  C_11
    7  A    between atoms: C_10  and  C_25
    8  A    between atoms: C_11  and  C_19
    9  A    between atoms: N_13  and  C_29
   10  A    between atoms: C_21  and  N_38
   11  A    between atoms: C_22  and  C_29
   12  A    between atoms: C_29  and  N_38
   13  A    between atoms: C_32  and  C_33
   14  A    between atoms: N_42  and  S_46
                            x       y       z     vdW  Elec       q    Type
                         _______ _______ _______ _____ _____    ______ ____

>  <TORSDO>
F 14

$$$$
=
 OpenBabel10222419523D

 50 54  0  0  1  0  0  0  0  0999 V2000
  186.9430  178.3990  143.0620 C   0  0  0  0  0  2  0  0  0  0  0  0
  184.4120  178.7170  143.1800 C   0  0  0  0  0  3  0  0  0  0  0  0
  182.5950  178.8980  140.0710 N   0  0  0  0  0  2  0  0  0  0  0  0
  185.5890  178.5380  142.4650 C   0  0  0  0  0  0  0  0  0  0  0  0
  183.6000  178.7890  141.0850 C   0  0  0  0  0  0  0  0  0  0  0  0
  183.3060  178.8500  142.4020 N   0  0  0  0  0  0  0  0  0  0  0  0
  185.2490  178.5620  140.8170 S   0  0  0  0  0  0  0  0  0  0  0  0
  182.8390  178.8960  138.6320 C   0  0  1  0  0  3  0  0  0  0  0  0
  182.3780  177.4510  136.7670 O   0  0  0  0  0  0  0  0  0  0  0  0
  182.1100  176.5190  138.8420 O   0  0  0  0  0  1  0  0  0  0  0  0
  182.4420  177.5860  138.0190 C   0  0  0  0  0  0  0  0  0  0  0  0
  182.1650  180.0160  137.9930 N   0  0  0  0  0  2  0  0  0  0  0  0
  181.6570  180.8690  139.0560 C   0  0  0  0  0  2  0  0  0  0  0  0
  179.2810  178.9740  139.6430 C   0  0  0  0  0  2  0  0  0  0  0  0
  180.1270  180.9690  139.0040 C   0  0  2  0  0  0  0  0  0  0  0  0
  178.9310  179.9030  140.7790 C   0  0  2  0  0  3  0  0  0  0  0  0
  179.5970  181.1940  140.4140 C   0  0  0  0  0  2  0  0  0  0  0  0
  179.6090  179.7500  138.5180 O   0  0  0  0  0  0  0  0  0  0  0  0
  179.4640  179.3750  142.0690 C   0  0  0  0  0  0  0  0  0  0  0  0
  179.2220  178.0610  142.4520 O   0  0  0  0  0  0  0  0  0  0  0  0
  180.1200  180.1340  142.8260 O   0  0  0  0  0  1  0  0  0  0  0  0
  180.7440  183.0280  137.9020 O   0  0  0  0  0  1  0  0  0  0  0  0
  179.6950  182.1220  138.0790 C   0  0  1  0  0  3  0  0  0  0  0  0
  179.9350  181.7650  135.7550 O   0  0  0  0  0  0  0  0  0  0  0  0
  179.2300  181.6290  136.7400 C   0  0  0  0  0  3  0  0  0  0  0  0
  187.0450  177.0860  143.8130 C   0  0  0  0  0  2  0  0  0  0  0  0
  189.5500  176.8430  144.3480 C   0  0  0  0  0  0  0  0  0  0  0  0
  188.2370  177.1030  144.7060 C   0  0  0  0  0  0  0  0  0  0  0  0
  190.2920  177.0170  145.5010 C   0  0  0  0  0  3  0  0  0  0  0  0
  188.1860  177.4300  146.0100 N   0  0  0  0  0  0  0  0  0  0  0  0
  189.4250  177.3690  146.4700 N   0  0  0  0  0  0  0  0  0  0  0  0
  189.7860  177.6560  147.8470 C   0  0  0  0  0  1  0  0  0  0  0  0
  190.2340  177.4680  142.0160 N   0  0  0  0  0  2  0  0  0  0  0  0
  190.3880  175.2610  142.7970 O   0  0  0  0  0  0  0  0  0  0  0  0
  190.0770  176.4610  143.0260 C   0  0  0  0  0  0  0  0  0  0  0  0
  190.9710  173.6260  136.9650 O   0  0  0  0  0  0  0  0  0  0  0  0
  190.3010  174.6860  137.1030 C   0  0  0  0  0  0  0  0  0  0  0  0
  188.4190  176.8030  137.5750 C   0  0  2  0  0  3  0  0  0  0  0  0
  192.0400  175.8770  138.3030 C   0  0  0  0  0  3  0  0  0  0  0  0
  188.5710  176.1840  136.2520 N   0  0  0  0  0  2  0  0  0  0  0  0
  192.5950  177.0360  139.0580 C   0  0  0  0  0  2  0  0  0  0  0  0
  187.9450  178.2350  137.3900 C   0  0  0  0  0  1  0  0  0  0  0  0
  190.7040  177.2890  140.6710 C   0  0  0  0  0  0  0  0  0  0  0  0
  190.7470  175.7670  137.9860 C   0  0  0  0  0  0  0  0  0  0  0  0
  192.0080  177.1260  140.4240 C   0  0  0  0  0  3  0  0  0  0  0  0
  189.0710  174.8780  136.4020 N   0  0  0  0  0  0  0  0  0  0  0  0
  189.6800  177.3370  139.6030 C   0  0  0  0  0  3  0  0  0  0  0  0
  189.7000  176.7470  138.3930 C   0  0  0  0  0  0  0  0  0  0  0  0
  187.0460  173.3980  137.0520 C   0  0  0  0  0  1  0  0  0  0  0  0
  188.2110  173.5190  135.6650 S   0  0  0  0  0  0  0  0  0  0  0  0
  1 26  1  0  0  0  0
  3  5  1  0  0  0  0
  4  1  1  0  0  0  0
  4  2  2  0  0  0  0
  5  6  2  0  0  0  0
  6  2  1  0  0  0  0
  7  5  1  0  0  0  0
  7  4  1  0  0  0  0
  8 12  1  6  0  0  0
  8  3  1  0  0  0  0
  9 11  2  0  0  0  0
 11  8  1  0  0  0  0
 11 10  1  0  0  0  0
 12 13  1  0  0  0  0
 14 16  1  0  0  0  0
 15 13  1  1  0  0  0
 15 17  1  0  0  0  0
 16 19  1  1  0  0  0
 17 16  1  0  0  0  0
 18 15  1  0  0  0  0
 18 14  1  0  0  0  0
 19 20  2  0  0  0  0
 19 21  1  0  0  0  0
 23 22  1  6  0  0  0
 23 15  1  0  0  0  0
 24 25  2  0  0  0  0
 25 23  1  0  0  0  0
 26 28  1  0  0  0  0
 27 28  1  0  0  0  0
 27 29  2  0  0  0  0
 28 30  2  0  0  0  0
 29 31  1  0  0  0  0
 30 31  1  0  0  0  0
 31 32  1  0  0  0  0
 33 35  1  0  0  0  0
 34 35  2  0  0  0  0
 35 27  1  0  0  0  0
 36 37  2  0  0  0  0
 37 44  1  0  0  0  0
 38 42  1  6  0  0  0
 38 48  1  0  0  0  0
 39 41  1  0  0  0  0
 40 46  1  0  0  0  0
 40 38  1  0  0  0  0
 41 45  1  0  0  0  0
 43 33  1  0  0  0  0
 44 39  2  0  0  0  0
 44 48  1  0  0  0  0
 45 43  2  0  0  0  0
 46 37  1  0  0  0  0
 47 43  1  0  0  0  0
 48 47  2  0  0  0  0
 50 46  1  0  0  0  0
 50 49  1  0  0  0  0
M  END
>  <MODEL>
9

>  <REMARK>
 VINA RESULT:      -7.2      1.643      3.437
  Name = 
  14 active torsions:
  status: ('A' for Active; 'I' for Inactive)
    1  A    between atoms: N_2  and  C_36
    2  A    between atoms: C_7  and  C_44
    3  A    between atoms: C_8  and  C_14
    4  A    between atoms: C_9  and  C_21
    5  A    between atoms: C_9  and  C_33
    6  A    between atoms: C_10  and  C_11
    7  A    between atoms: C_10  and  C_25
    8  A    between atoms: C_11  and  C_19
    9  A    between atoms: N_13  and  C_29
   10  A    between atoms: C_21  and  N_38
   11  A    between atoms: C_22  and  C_29
   12  A    between atoms: C_29  and  N_38
   13  A    between atoms: C_32  and  C_33
   14  A    between atoms: N_42  and  S_46
                            x       y       z     vdW  Elec       q    Type
                         _______ _______ _______ _____ _____    ______ ____

>  <TORSDO>
F 14

$$$$
