=
 OpenBabel10222416253D

 38 43  0  0  1  0  0  0  0  0999 V2000
  189.3840  177.1720  139.9820 C   0  0  0  0  0  0  0  0  0  0  0  0
  185.9060  177.1680  136.3150 C   0  0  0  0  0  0  0  0  0  0  0  0
  186.8730  176.1890  135.9870 C   0  0  0  0  0  3  0  0  0  0  0  0
  190.5400  176.8180  140.8760 C   0  0  0  0  0  2  0  0  0  0  0  0
  184.8130  177.3630  135.4810 O   0  0  0  0  0  1  0  0  0  0  0  0
  188.6310  178.8150  141.6770 C   0  0  0  0  0  2  0  0  0  0  0  0
  187.9650  176.0280  136.8450 C   0  0  0  0  0  0  0  0  0  0  0  0
  188.0760  176.7990  137.9490 C   0  0  0  0  0  0  0  0  0  0  0  0
  188.3970  177.8940  142.8900 C   0  0  2  0  0  3  0  0  0  0  0  0
  188.6930  176.4020  142.6550 C   0  0  0  0  0  2  0  0  0  0  0  0
  189.9160  175.3980  138.0960 C   0  0  2  0  0  3  0  0  0  0  0  0
  186.0380  177.9460  137.4920 C   0  0  0  0  0  3  0  0  0  0  0  0
  189.1110  175.0680  136.7990 C   0  0  0  0  0  2  0  0  0  0  0  0
  189.1950  176.5060  138.7240 N   0  0  0  0  0  0  0  0  0  0  0  0
  188.4780  178.1130  140.3590 C   0  0  0  0  0  0  0  0  0  0  0  0
  187.1480  177.7420  138.3270 C   0  0  0  0  0  0  0  0  0  0  0  0
  187.3640  178.4210  139.5360 O   0  0  0  0  0  0  0  0  0  0  0  0
  190.1220  176.1100  142.1750 C   0  0  0  0  0  2  0  0  0  0  0  0
  185.5220  178.2090  145.3360 C   0  0  0  0  0  3  0  0  0  0  0  0
  186.8070  178.0410  144.8120 C   0  0  0  0  0  3  0  0  0  0  0  0
  187.0120  178.0720  143.4280 C   0  0  0  0  0  0  0  0  0  0  0  0
  184.6370  178.4430  143.0940 C   0  0  0  0  0  3  0  0  0  0  0  0
  185.9200  178.2750  142.5700 C   0  0  0  0  0  3  0  0  0  0  0  0
  184.4380  178.4100  144.4780 C   0  0  0  0  0  0  0  0  0  0  0  0
  183.1930  178.5730  144.9870 F   0  0  0  0  0  0  0  0  0  0  0  0
  192.3250  174.8070  137.6510 N   0  0  0  0  0  2  0  0  0  0  0  0
  191.5940  177.0240  137.5730 O   0  0  0  0  0  0  0  0  0  0  0  0
  191.3130  175.8070  137.7550 C   0  0  0  0  0  0  0  0  0  0  0  0
  193.7060  175.1400  137.3380 C   0  0  0  0  0  2  0  0  0  0  0  0
  195.7710  173.7770  137.5150 C   0  0  0  0  0  2  0  0  0  0  0  0
  195.2460  175.3450  139.2060 N   0  0  0  0  0  2  0  0  0  0  0  0
  194.6420  174.4030  138.2780 C   0  0  1  0  0  3  0  0  0  0  0  0
  196.5260  174.8500  139.5240 N   0  0  0  0  0  2  0  0  0  0  0  0
  196.9440  173.9660  138.4390 C   0  0  2  0  0  3  0  0  0  0  0  0
  198.1620  174.5230  137.6950 C   0  0  1  0  0  3  0  0  0  0  0  0
  198.9100  173.4460  136.9210 C   0  0  0  0  0  1  0  0  0  0  0  0
  198.3020  175.1820  135.5860 C   0  0  0  0  0  1  0  0  0  0  0  0
  197.7640  175.5390  136.8230 O   0  0  0  0  0  0  0  0  0  0  0  0
  1 15  2  0  0  0  0
  1  4  1  0  0  0  0
  2 12  1  0  0  0  0
  3  2  2  0  0  0  0
  3  7  1  0  0  0  0
  4 18  1  0  0  0  0
  5  2  1  0  0  0  0
  6  9  1  0  0  0  0
  7  8  2  0  0  0  0
  8 16  1  0  0  0  0
  8 14  1  0  0  0  0
  9 21  1  6  0  0  0
 10  9  1  0  0  0  0
 11 28  1  6  0  0  0
 11 14  1  0  0  0  0
 12 16  2  0  0  0  0
 13  7  1  0  0  0  0
 13 11  1  0  0  0  0
 14  1  1  0  0  0  0
 15  6  1  0  0  0  0
 16 17  1  0  0  0  0
 17 15  1  0  0  0  0
 18 10  1  0  0  0  0
 20 19  1  0  0  0  0
 21 20  2  0  0  0  0
 22 24  1  0  0  0  0
 23 22  2  0  0  0  0
 23 21  1  0  0  0  0
 24 25  1  0  0  0  0
 24 19  2  0  0  0  0
 26 28  1  0  0  0  0
 27 28  2  0  0  0  0
 29 26  1  0  0  0  0
 30 32  1  0  0  0  0
 30 34  1  0  0  0  0
 31 33  1  0  0  0  0
 32 29  1  6  0  0  0
 32 31  1  0  0  0  0
 34 35  1  6  0  0  0
 34 33  1  0  0  0  0
 35 36  1  6  0  0  0
 37 38  1  0  0  0  0
 38 35  1  0  0  0  0
M  END
>  <MODEL>
1

>  <REMARK>
 VINA RESULT:      -9.3      0.000      0.000
  Name = 
  6 active torsions:
  status: ('A' for Active; 'I' for Inactive)
    1  A    between atoms: C_10  and  O_26
    2  A    between atoms: C_10  and  C_36
    3  A    between atoms: C_14  and  C_15
    4  A    between atoms: C_18  and  C_33
    5  A    between atoms: C_19  and  C_20
    6  A    between atoms: C_19  and  N_24
                            x       y       z     vdW  Elec       q    Type
                         _______ _______ _______ _____ _____    ______ ____

>  <TORSDO>
F 6

$$$$
=
 OpenBabel10222416253D

 38 43  0  0  1  0  0  0  0  0999 V2000
  189.1760  177.4250  140.0350 C   0  0  0  0  0  0  0  0  0  0  0  0
  184.9290  177.5450  137.2970 C   0  0  0  0  0  0  0  0  0  0  0  0
  185.8140  176.6340  136.6730 C   0  0  0  0  0  3  0  0  0  0  0  0
  190.5180  177.0550  140.6020 C   0  0  0  0  0  2  0  0  0  0  0  0
  183.6660  177.7550  136.7620 O   0  0  0  0  0  1  0  0  0  0  0  0
  188.8070  178.9060  141.9880 C   0  0  0  0  0  2  0  0  0  0  0  0
  187.0810  176.4570  137.2350 C   0  0  0  0  0  0  0  0  0  0  0  0
  187.4320  177.1480  138.3420 C   0  0  0  0  0  0  0  0  0  0  0  0
  188.8880  177.8890  143.1430 C   0  0  2  0  0  3  0  0  0  0  0  0
  189.1560  176.4320  142.7230 C   0  0  0  0  0  2  0  0  0  0  0  0
  189.2870  175.8200  137.9390 C   0  0  2  0  0  3  0  0  0  0  0  0
  185.3180  178.2390  138.4700 C   0  0  0  0  0  3  0  0  0  0  0  0
  188.2060  175.5520  136.8430 C   0  0  0  0  0  2  0  0  0  0  0  0
  188.7100  176.8460  138.8070 N   0  0  0  0  0  0  0  0  0  0  0  0
  188.3620  178.2970  140.6890 C   0  0  0  0  0  0  0  0  0  0  0  0
  186.5980  178.0210  139.0020 C   0  0  0  0  0  0  0  0  0  0  0  0
  187.0790  178.6180  140.1780 O   0  0  0  0  0  0  0  0  0  0  0  0
  190.4360  176.2360  141.9000 C   0  0  0  0  0  2  0  0  0  0  0  0
  185.2660  178.2480  144.1870 C   0  0  0  0  0  3  0  0  0  0  0  0
  186.4200  178.1740  143.4030 C   0  0  0  0  0  3  0  0  0  0  0  0
  187.6670  177.9680  144.0030 C   0  0  0  0  0  0  0  0  0  0  0  0
  186.5980  177.9100  146.1810 C   0  0  0  0  0  3  0  0  0  0  0  0
  187.7520  177.8360  145.3980 C   0  0  0  0  0  3  0  0  0  0  0  0
  185.3550  178.1160  145.5760 C   0  0  0  0  0  0  0  0  0  0  0  0
  184.2350  178.1880  146.3350 F   0  0  0  0  0  0  0  0  0  0  0  0
  191.7740  175.6230  137.5820 N   0  0  0  0  0  2  0  0  0  0  0  0
  190.5440  177.3290  136.5700 O   0  0  0  0  0  0  0  0  0  0  0  0
  190.5540  176.3110  137.3150 C   0  0  0  0  0  0  0  0  0  0  0  0
  193.0430  176.0580  137.0180 C   0  0  0  0  0  2  0  0  0  0  0  0
  195.3450  175.1440  136.8780 C   0  0  0  0  0  2  0  0  0  0  0  0
  193.5590  173.7400  137.5340 N   0  0  0  0  0  2  0  0  0  0  0  0
  193.8900  174.8520  136.6590 C   0  0  1  0  0  3  0  0  0  0  0  0
  194.7300  172.9720  137.6910 N   0  0  0  0  0  2  0  0  0  0  0  0
  195.8710  173.8390  137.4130 C   0  0  2  0  0  3  0  0  0  0  0  0
  196.7370  174.0500  138.6590 C   0  0  1  0  0  3  0  0  0  0  0  0
  198.1350  174.5470  138.3160 C   0  0  0  0  0  1  0  0  0  0  0  0
  197.0880  175.2710  140.4720 C   0  0  0  0  0  1  0  0  0  0  0  0
  196.1140  174.9540  139.5230 O   0  0  0  0  0  0  0  0  0  0  0  0
  1  4  1  0  0  0  0
  1 15  2  0  0  0  0
  2 12  1  0  0  0  0
  3  7  1  0  0  0  0
  3  2  2  0  0  0  0
  4 18  1  0  0  0  0
  5  2  1  0  0  0  0
  6  9  1  0  0  0  0
  7  8  2  0  0  0  0
  8 14  1  0  0  0  0
  8 16  1  0  0  0  0
  9 21  1  6  0  0  0
 10  9  1  0  0  0  0
 11 28  1  6  0  0  0
 11 14  1  0  0  0  0
 12 16  2  0  0  0  0
 13  7  1  0  0  0  0
 13 11  1  0  0  0  0
 14  1  1  0  0  0  0
 15  6  1  0  0  0  0
 16 17  1  0  0  0  0
 17 15  1  0  0  0  0
 18 10  1  0  0  0  0
 19 24  1  0  0  0  0
 20 21  1  0  0  0  0
 20 19  2  0  0  0  0
 21 23  2  0  0  0  0
 23 22  1  0  0  0  0
 24 22  2  0  0  0  0
 24 25  1  0  0  0  0
 27 28  2  0  0  0  0
 28 26  1  0  0  0  0
 29 26  1  0  0  0  0
 30 34  1  0  0  0  0
 31 33  1  0  0  0  0
 32 30  1  0  0  0  0
 32 29  1  1  0  0  0
 32 31  1  0  0  0  0
 34 33  1  0  0  0  0
 34 35  1  1  0  0  0
 35 36  1  6  0  0  0
 35 38  1  0  0  0  0
 38 37  1  0  0  0  0
M  END
>  <MODEL>
2

>  <REMARK>
 VINA RESULT:      -8.7      1.339      1.808
  Name = 
  6 active torsions:
  status: ('A' for Active; 'I' for Inactive)
    1  A    between atoms: C_10  and  O_26
    2  A    between atoms: C_10  and  C_36
    3  A    between atoms: C_14  and  C_15
    4  A    between atoms: C_18  and  C_33
    5  A    between atoms: C_19  and  C_20
    6  A    between atoms: C_19  and  N_24
                            x       y       z     vdW  Elec       q    Type
                         _______ _______ _______ _____ _____    ______ ____

>  <TORSDO>
F 6

$$$$
=
 OpenBabel10222416253D

 38 43  0  0  1  0  0  0  0  0999 V2000
  189.5400  177.1690  140.1530 C   0  0  0  0  0  0  0  0  0  0  0  0
  186.3350  177.2950  136.2470 C   0  0  0  0  0  0  0  0  0  0  0  0
  187.3130  176.3120  135.9650 C   0  0  0  0  0  3  0  0  0  0  0  0
  190.6240  176.7800  141.1190 C   0  0  0  0  0  2  0  0  0  0  0  0
  185.3070  177.5240  135.3430 O   0  0  0  0  0  1  0  0  0  0  0  0
  188.6840  178.7800  141.8310 C   0  0  0  0  0  2  0  0  0  0  0  0
  188.3390  176.1180  136.8950 C   0  0  0  0  0  0  0  0  0  0  0  0
  188.3770  176.8610  138.0240 C   0  0  0  0  0  0  0  0  0  0  0  0
  188.3530  177.8330  143.0000 C   0  0  2  0  0  3  0  0  0  0  0  0
  188.6500  176.3440  142.7500 C   0  0  0  0  0  2  0  0  0  0  0  0
  190.1870  175.4350  138.2670 C   0  0  2  0  0  3  0  0  0  0  0  0
  186.3900  178.0430  137.4500 C   0  0  0  0  0  3  0  0  0  0  0  0
  189.4750  175.1450  136.9070 C   0  0  0  0  0  2  0  0  0  0  0  0
  189.4350  176.5350  138.8690 N   0  0  0  0  0  0  0  0  0  0  0  0
  188.6190  178.1120  140.4870 C   0  0  0  0  0  0  0  0  0  0  0  0
  187.4350  177.8050  138.3570 C   0  0  0  0  0  0  0  0  0  0  0  0
  187.5700  178.4530  139.5950 O   0  0  0  0  0  0  0  0  0  0  0  0
  190.1060  176.0460  142.3670 C   0  0  0  0  0  2  0  0  0  0  0  0
  185.3260  178.2190  145.2440 C   0  0  0  0  0  3  0  0  0  0  0  0
  186.6440  178.0460  144.8100 C   0  0  0  0  0  3  0  0  0  0  0  0
  186.9350  178.0150  143.4420 C   0  0  0  0  0  0  0  0  0  0  0  0
  184.5810  178.3330  142.9430 C   0  0  0  0  0  3  0  0  0  0  0  0
  185.8970  178.1600  142.5080 C   0  0  0  0  0  3  0  0  0  0  0  0
  184.2960  178.3620  144.3120 C   0  0  0  0  0  0  0  0  0  0  0  0
  183.0190  178.5290  144.7340 F   0  0  0  0  0  0  0  0  0  0  0  0
  192.6030  174.8210  137.8920 N   0  0  0  0  0  2  0  0  0  0  0  0
  191.9280  177.0550  137.9850 O   0  0  0  0  0  0  0  0  0  0  0  0
  191.6100  175.8350  138.0380 C   0  0  0  0  0  0  0  0  0  0  0  0
  194.0060  175.1430  137.6820 C   0  0  0  0  0  2  0  0  0  0  0  0
  195.5780  173.6440  136.4840 C   0  0  0  0  0  2  0  0  0  0  0  0
  193.3680  173.9110  135.6870 N   0  0  0  0  0  2  0  0  0  0  0  0
  194.4580  174.6280  136.3280 C   0  0  1  0  0  3  0  0  0  0  0  0
  193.9470  172.9060  134.8860 N   0  0  0  0  0  2  0  0  0  0  0  0
  195.2760  172.6220  135.4220 C   0  0  2  0  0  3  0  0  0  0  0  0
  195.3680  171.1950  135.9730 C   0  0  1  0  0  3  0  0  0  0  0  0
  196.7310  170.8980  136.5850 C   0  0  0  0  0  1  0  0  0  0  0  0
  194.0620  169.6280  136.8310 C   0  0  0  0  0  1  0  0  0  0  0  0
  194.3680  170.9860  136.9250 O   0  0  0  0  0  0  0  0  0  0  0  0
  1 15  2  0  0  0  0
  1  4  1  0  0  0  0
  2 12  1  0  0  0  0
  3  2  2  0  0  0  0
  3  7  1  0  0  0  0
  4 18  1  0  0  0  0
  5  2  1  0  0  0  0
  6  9  1  0  0  0  0
  7 13  1  0  0  0  0
  7  8  2  0  0  0  0
  8 16  1  0  0  0  0
  8 14  1  0  0  0  0
  9 21  1  6  0  0  0
 10  9  1  0  0  0  0
 11 28  1  6  0  0  0
 11 14  1  0  0  0  0
 12 16  2  0  0  0  0
 13 11  1  0  0  0  0
 14  1  1  0  0  0  0
 15  6  1  0  0  0  0
 16 17  1  0  0  0  0
 17 15  1  0  0  0  0
 18 10  1  0  0  0  0
 20 19  1  0  0  0  0
 21 20  2  0  0  0  0
 22 24  1  0  0  0  0
 23 22  2  0  0  0  0
 23 21  1  0  0  0  0
 24 25  1  0  0  0  0
 24 19  2  0  0  0  0
 26 28  1  0  0  0  0
 27 28  2  0  0  0  0
 29 26  1  0  0  0  0
 31 32  1  0  0  0  0
 32 30  1  0  0  0  0
 32 29  1  1  0  0  0
 33 34  1  0  0  0  0
 33 31  1  0  0  0  0
 34 35  1  1  0  0  0
 34 30  1  0  0  0  0
 35 36  1  1  0  0  0
 35 38  1  0  0  0  0
 37 38  1  0  0  0  0
M  END
>  <MODEL>
3

>  <REMARK>
 VINA RESULT:      -8.2      1.651      2.220
  Name = 
  6 active torsions:
  status: ('A' for Active; 'I' for Inactive)
    1  A    between atoms: C_10  and  O_26
    2  A    between atoms: C_10  and  C_36
    3  A    between atoms: C_14  and  C_15
    4  A    between atoms: C_18  and  C_33
    5  A    between atoms: C_19  and  C_20
    6  A    between atoms: C_19  and  N_24
                            x       y       z     vdW  Elec       q    Type
                         _______ _______ _______ _____ _____    ______ ____

>  <TORSDO>
F 6

$$$$
=
 OpenBabel10222416253D

 38 43  0  0  1  0  0  0  0  0999 V2000
  185.8630  177.7500  143.4390 C   0  0  0  0  0  0  0  0  0  0  0  0
  189.6560  177.4090  140.1160 C   0  0  0  0  0  0  0  0  0  0  0  0
  188.6480  178.2110  139.5320 C   0  0  0  0  0  3  0  0  0  0  0  0
  184.6050  178.1500  144.1570 C   0  0  0  0  0  2  0  0  0  0  0  0
  190.8340  177.1690  139.4220 O   0  0  0  0  0  1  0  0  0  0  0  0
  186.5850  176.5330  145.4730 C   0  0  0  0  0  2  0  0  0  0  0  0
  187.4720  178.4220  140.2570 C   0  0  0  0  0  0  0  0  0  0  0  0
  187.3210  177.8630  141.4780 C   0  0  0  0  0  0  0  0  0  0  0  0
  186.6310  177.6820  146.4980 C   0  0  2  0  0  3  0  0  0  0  0  0
  186.2370  179.0680  145.9560 C   0  0  0  0  0  2  0  0  0  0  0  0
  185.3680  179.0810  141.2100 C   0  0  2  0  0  3  0  0  0  0  0  0
  189.4790  176.8550  141.4080 C   0  0  0  0  0  3  0  0  0  0  0  0
  186.2610  179.2410  139.9380 C   0  0  0  0  0  2  0  0  0  0  0  0
  186.1140  178.1860  142.0940 N   0  0  0  0  0  0  0  0  0  0  0  0
  186.8040  176.9880  144.0590 C   0  0  0  0  0  0  0  0  0  0  0  0
  188.2830  177.1020  142.1000 C   0  0  0  0  0  0  0  0  0  0  0  0
  188.0110  176.6420  143.3990 O   0  0  0  0  0  0  0  0  0  0  0  0
  184.8410  179.1250  145.3220 C   0  0  0  0  0  2  0  0  0  0  0  0
  190.3220  177.1610  147.1650 C   0  0  0  0  0  3  0  0  0  0  0  0
  189.0630  177.1130  146.5610 C   0  0  0  0  0  3  0  0  0  0  0  0
  187.9680  177.7430  147.1650 C   0  0  0  0  0  0  0  0  0  0  0  0
  189.4030  178.4700  148.9820 C   0  0  0  0  0  3  0  0  0  0  0  0
  188.1440  178.4230  148.3800 C   0  0  0  0  0  3  0  0  0  0  0  0
  190.4930  177.8390  148.3750 C   0  0  0  0  0  0  0  0  0  0  0  0
  191.7140  177.8840  148.9590 F   0  0  0  0  0  0  0  0  0  0  0  0
  183.9810  177.5240  139.7950 N   0  0  0  0  0  2  0  0  0  0  0  0
  183.0010  178.8290  141.4650 O   0  0  0  0  0  0  0  0  0  0  0  0
  184.0470  178.4820  140.8500 C   0  0  0  0  0  0  0  0  0  0  0  0
  182.7250  176.9150  139.3850 C   0  0  0  0  0  2  0  0  0  0  0  0
  183.7930  177.1140  137.1560 C   0  0  0  0  0  2  0  0  0  0  0  0
  183.4900  174.9810  138.1290 N   0  0  0  0  0  2  0  0  0  0  0  0
  182.8750  176.2920  138.0100 C   0  0  1  0  0  3  0  0  0  0  0  0
  184.2380  174.7650  136.9540 N   0  0  0  0  0  2  0  0  0  0  0  0
  184.5540  176.0710  136.3820 C   0  0  2  0  0  3  0  0  0  0  0  0
  186.0610  176.3450  136.4000 C   0  0  1  0  0  3  0  0  0  0  0  0
  186.3780  177.8310  136.5110 C   0  0  0  0  0  1  0  0  0  0  0  0
  187.9570  175.3910  137.0260 C   0  0  0  0  0  1  0  0  0  0  0  0
  186.6570  175.6560  137.4580 O   0  0  0  0  0  0  0  0  0  0  0  0
  1 15  2  0  0  0  0
  1  4  1  0  0  0  0
  2 12  1  0  0  0  0
  3  2  2  0  0  0  0
  3  7  1  0  0  0  0
  4 18  1  0  0  0  0
  5  2  1  0  0  0  0
  6  9  1  0  0  0  0
  7  8  2  0  0  0  0
  8 14  1  0  0  0  0
  8 16  1  0  0  0  0
  9 21  1  6  0  0  0
 10  9  1  0  0  0  0
 11 28  1  6  0  0  0
 11 14  1  0  0  0  0
 12 16  2  0  0  0  0
 13  7  1  0  0  0  0
 13 11  1  0  0  0  0
 14  1  1  0  0  0  0
 15  6  1  0  0  0  0
 16 17  1  0  0  0  0
 17 15  1  0  0  0  0
 18 10  1  0  0  0  0
 19 24  1  0  0  0  0
 20 21  1  0  0  0  0
 20 19  2  0  0  0  0
 21 23  2  0  0  0  0
 23 22  1  0  0  0  0
 24 25  1  0  0  0  0
 24 22  2  0  0  0  0
 26 28  1  0  0  0  0
 28 27  2  0  0  0  0
 29 26  1  0  0  0  0
 30 32  1  0  0  0  0
 32 31  1  0  0  0  0
 32 29  1  1  0  0  0
 33 31  1  0  0  0  0
 34 35  1  1  0  0  0
 34 33  1  0  0  0  0
 34 30  1  0  0  0  0
 35 36  1  1  0  0  0
 35 38  1  0  0  0  0
 37 38  1  0  0  0  0
M  END
>  <MODEL>
4

>  <REMARK>
 VINA RESULT:      -7.7      5.184      8.072
  Name = 
  6 active torsions:
  status: ('A' for Active; 'I' for Inactive)
    1  A    between atoms: C_10  and  O_26
    2  A    between atoms: C_10  and  C_36
    3  A    between atoms: C_14  and  C_15
    4  A    between atoms: C_18  and  C_33
    5  A    between atoms: C_19  and  C_20
    6  A    between atoms: C_19  and  N_24
                            x       y       z     vdW  Elec       q    Type
                         _______ _______ _______ _____ _____    ______ ____

>  <TORSDO>
F 6

$$$$
=
 OpenBabel10222416253D

 38 43  0  0  1  0  0  0  0  0999 V2000
  187.0650  177.5950  141.7860 C   0  0  0  0  0  0  0  0  0  0  0  0
  191.9390  177.1360  140.5290 C   0  0  0  0  0  0  0  0  0  0  0  0
  191.2980  177.8610  139.4970 C   0  0  0  0  0  3  0  0  0  0  0  0
  185.6200  178.0060  141.8370 C   0  0  0  0  0  2  0  0  0  0  0  0
  193.3020  176.8840  140.4500 O   0  0  0  0  0  1  0  0  0  0  0  0
  186.8030  176.5510  144.0180 C   0  0  0  0  0  2  0  0  0  0  0  0
  189.9230  178.0860  139.6060 C   0  0  0  0  0  0  0  0  0  0  0  0
  189.2430  177.6130  140.6730 C   0  0  0  0  0  0  0  0  0  0  0  0
  186.3920  177.7720  144.8630 C   0  0  2  0  0  3  0  0  0  0  0  0
  186.2850  179.1020  144.0960 C   0  0  0  0  0  2  0  0  0  0  0  0
  187.6170  178.7450  139.4720 C   0  0  2  0  0  3  0  0  0  0  0  0
  191.2030  176.6710  141.6470 C   0  0  0  0  0  3  0  0  0  0  0  0
  188.9830  178.8410  138.7200 C   0  0  0  0  0  2  0  0  0  0  0  0
  187.8890  177.9400  140.6620 N   0  0  0  0  0  0  0  0  0  0  0  0
  187.6290  176.9100  142.8170 C   0  0  0  0  0  0  0  0  0  0  0  0
  189.8250  176.9290  141.7150 C   0  0  0  0  0  0  0  0  0  0  0  0
  189.0020  176.5550  142.7900 O   0  0  0  0  0  0  0  0  0  0  0  0
  185.3170  179.0690  142.9060 C   0  0  0  0  0  2  0  0  0  0  0  0
  189.5180  177.7710  147.0020 C   0  0  0  0  0  3  0  0  0  0  0  0
  188.6560  177.6340  145.9100 C   0  0  0  0  0  3  0  0  0  0  0  0
  187.2940  177.9230  146.0470 C   0  0  0  0  0  0  0  0  0  0  0  0
  187.6600  178.4900  148.3780 C   0  0  0  0  0  3  0  0  0  0  0  0
  186.7980  178.3530  147.2880 C   0  0  0  0  0  3  0  0  0  0  0  0
  189.0190  178.1990  148.2360 C   0  0  0  0  0  0  0  0  0  0  0  0
  189.8560  178.3320  149.2930 F   0  0  0  0  0  0  0  0  0  0  0  0
  186.9390  176.8890  137.9090 N   0  0  0  0  0  2  0  0  0  0  0  0
  185.4360  178.5750  138.5000 O   0  0  0  0  0  0  0  0  0  0  0  0
  186.5920  178.0800  138.6110 C   0  0  0  0  0  0  0  0  0  0  0  0
  185.9930  176.2010  137.0440 C   0  0  0  0  0  2  0  0  0  0  0  0
  187.9090  175.6000  135.5870 C   0  0  0  0  0  2  0  0  0  0  0  0
  187.1630  174.0800  137.2380 N   0  0  0  0  0  2  0  0  0  0  0  0
  186.6930  175.0820  136.2950 C   0  0  1  0  0  3  0  0  0  0  0  0
  188.3310  173.5120  136.6920 N   0  0  0  0  0  2  0  0  0  0  0  0
  188.8960  174.4750  135.7510 C   0  0  2  0  0  3  0  0  0  0  0  0
  190.2610  174.9880  136.2200 C   0  0  1  0  0  3  0  0  0  0  0  0
  190.3890  176.5000  136.0840 C   0  0  0  0  0  1  0  0  0  0  0  0
  191.8670  174.6160  137.6960 C   0  0  0  0  0  1  0  0  0  0  0  0
  190.4800  174.6140  137.5470 O   0  0  0  0  0  0  0  0  0  0  0  0
  1  4  1  0  0  0  0
  1 15  2  0  0  0  0
  2 12  1  0  0  0  0
  3  7  1  0  0  0  0
  3  2  2  0  0  0  0
  4 18  1  0  0  0  0
  5  2  1  0  0  0  0
  6  9  1  0  0  0  0
  7  8  2  0  0  0  0
  8 16  1  0  0  0  0
  9 21  1  1  0  0  0
 10  9  1  0  0  0  0
 11 28  1  6  0  0  0
 11 14  1  0  0  0  0
 12 16  2  0  0  0  0
 13 11  1  0  0  0  0
 13  7  1  0  0  0  0
 14  8  1  0  0  0  0
 14  1  1  0  0  0  0
 15  6  1  0  0  0  0
 16 17  1  0  0  0  0
 17 15  1  0  0  0  0
 18 10  1  0  0  0  0
 19 24  1  0  0  0  0
 20 21  1  0  0  0  0
 20 19  2  0  0  0  0
 21 23  2  0  0  0  0
 23 22  1  0  0  0  0
 24 22  2  0  0  0  0
 24 25  1  0  0  0  0
 26 28  1  0  0  0  0
 27 28  2  0  0  0  0
 29 26  1  0  0  0  0
 30 34  1  0  0  0  0
 30 32  1  0  0  0  0
 32 29  1  1  0  0  0
 32 31  1  0  0  0  0
 33 31  1  0  0  0  0
 34 35  1  1  0  0  0
 34 33  1  0  0  0  0
 35 36  1  1  0  0  0
 35 38  1  0  0  0  0
 38 37  1  0  0  0  0
M  END
>  <MODEL>
5

>  <REMARK>
 VINA RESULT:      -7.7      3.656      6.084
  Name = 
  6 active torsions:
  status: ('A' for Active; 'I' for Inactive)
    1  A    between atoms: C_10  and  O_26
    2  A    between atoms: C_10  and  C_36
    3  A    between atoms: C_14  and  C_15
    4  A    between atoms: C_18  and  C_33
    5  A    between atoms: C_19  and  C_20
    6  A    between atoms: C_19  and  N_24
                            x       y       z     vdW  Elec       q    Type
                         _______ _______ _______ _____ _____    ______ ____

>  <TORSDO>
F 6

$$$$
=
 OpenBabel10222416253D

 38 43  0  0  1  0  0  0  0  0999 V2000
  186.7570  178.3040  138.3710 C   0  0  0  0  0  0  0  0  0  0  0  0
  187.4960  178.0940  143.3660 C   0  0  0  0  0  0  0  0  0  0  0  0
  186.1000  178.0710  143.1400 C   0  0  0  0  0  3  0  0  0  0  0  0
  186.1410  178.2700  137.0000 C   0  0  0  0  0  2  0  0  0  0  0  0
  187.9860  178.0220  144.6630 O   0  0  0  0  0  1  0  0  0  0  0  0
  189.0000  178.2920  137.3170 C   0  0  0  0  0  2  0  0  0  0  0  0
  185.6450  178.1560  141.8210 C   0  0  0  0  0  0  0  0  0  0  0  0
  186.5310  178.2590  140.8060 C   0  0  0  0  0  0  0  0  0  0  0  0
  188.9490  176.9610  136.5420 C   0  0  2  0  0  3  0  0  0  0  0  0
  187.6340  176.1710  136.6710 C   0  0  0  0  0  2  0  0  0  0  0  0
  184.4860  178.1930  139.7180 C   0  0  2  0  0  3  0  0  0  0  0  0
  188.4010  178.1810  142.2790 C   0  0  0  0  0  3  0  0  0  0  0  0
  184.2580  178.1150  141.2610 C   0  0  0  0  0  2  0  0  0  0  0  0
  185.9350  178.3030  139.5480 N   0  0  0  0  0  0  0  0  0  0  0  0
  188.1080  178.3110  138.5250 C   0  0  0  0  0  0  0  0  0  0  0  0
  187.8960  178.2550  140.9720 C   0  0  0  0  0  0  0  0  0  0  0  0
  188.6930  178.3040  139.8170 O   0  0  0  0  0  0  0  0  0  0  0  0
  186.3830  176.9520  136.2470 C   0  0  0  0  0  2  0  0  0  0  0  0
  192.3350  175.8850  137.8520 C   0  0  0  0  0  3  0  0  0  0  0  0
  191.2360  176.6760  137.5050 C   0  0  0  0  0  3  0  0  0  0  0  0
  190.1150  176.0960  136.9020 C   0  0  0  0  0  0  0  0  0  0  0  0
  191.1990  173.9260  136.9960 C   0  0  0  0  0  3  0  0  0  0  0  0
  190.1000  174.7150  136.6480 C   0  0  0  0  0  3  0  0  0  0  0  0
  192.3170  174.5110  137.5980 C   0  0  0  0  0  0  0  0  0  0  0  0
  193.3830  173.7460  137.9350 F   0  0  0  0  0  0  0  0  0  0  0  0
  182.4660  179.2590  138.6530 N   0  0  0  0  0  2  0  0  0  0  0  0
  184.3930  180.5020  139.0940 O   0  0  0  0  0  0  0  0  0  0  0  0
  183.7980  179.3910  139.1470 C   0  0  0  0  0  0  0  0  0  0  0  0
  181.7460  180.3820  138.0720 C   0  0  0  0  0  2  0  0  0  0  0  0
  179.9620  179.0640  139.1820 C   0  0  0  0  0  2  0  0  0  0  0  0
  180.1420  181.3850  139.5970 N   0  0  0  0  0  2  0  0  0  0  0  0
  180.3090  180.3820  138.5580 C   0  0  1  0  0  3  0  0  0  0  0  0
  179.1410  180.9140  140.4710 N   0  0  0  0  0  2  0  0  0  0  0  0
  179.0800  179.4610  140.3350 C   0  0  2  0  0  3  0  0  0  0  0  0
  179.4960  178.7560  141.6300 C   0  0  1  0  0  3  0  0  0  0  0  0
  180.6460  177.7810  141.4150 C   0  0  0  0  0  1  0  0  0  0  0  0
  181.1630  179.3730  142.9490 C   0  0  0  0  0  1  0  0  0  0  0  0
  179.8540  179.7010  142.5940 O   0  0  0  0  0  0  0  0  0  0  0  0
  1 15  2  0  0  0  0
  1 14  1  0  0  0  0
  2  5  1  0  0  0  0
  3  2  1  0  0  0  0
  4  1  1  0  0  0  0
  6 15  1  0  0  0  0
  7  3  2  0  0  0  0
  8 16  2  0  0  0  0
  8  7  1  0  0  0  0
  9 10  1  0  0  0  0
  9 21  1  1  0  0  0
  9  6  1  0  0  0  0
 11 28  1  1  0  0  0
 11 13  1  0  0  0  0
 12  2  2  0  0  0  0
 13  7  1  0  0  0  0
 14 11  1  0  0  0  0
 14  8  1  0  0  0  0
 15 17  1  0  0  0  0
 16 12  1  0  0  0  0
 17 16  1  0  0  0  0
 18 10  1  0  0  0  0
 18  4  1  0  0  0  0
 20 19  2  0  0  0  0
 21 20  1  0  0  0  0
 22 24  2  0  0  0  0
 23 21  2  0  0  0  0
 23 22  1  0  0  0  0
 24 19  1  0  0  0  0
 24 25  1  0  0  0  0
 26 28  1  0  0  0  0
 27 28  2  0  0  0  0
 29 26  1  0  0  0  0
 30 34  1  0  0  0  0
 31 33  1  0  0  0  0
 32 29  1  1  0  0  0
 32 30  1  0  0  0  0
 32 31  1  0  0  0  0
 34 33  1  0  0  0  0
 34 35  1  1  0  0  0
 35 36  1  6  0  0  0
 35 38  1  0  0  0  0
 38 37  1  0  0  0  0
M  END
>  <MODEL>
6

>  <REMARK>
 VINA RESULT:      -7.6      4.681     11.119
  Name = 
  6 active torsions:
  status: ('A' for Active; 'I' for Inactive)
    1  A    between atoms: C_10  and  O_26
    2  A    between atoms: C_10  and  C_36
    3  A    between atoms: C_14  and  C_15
    4  A    between atoms: C_18  and  C_33
    5  A    between atoms: C_19  and  C_20
    6  A    between atoms: C_19  and  N_24
                            x       y       z     vdW  Elec       q    Type
                         _______ _______ _______ _____ _____    ______ ____

>  <TORSDO>
F 6

$$$$
=
 OpenBabel10222416253D

 38 43  0  0  1  0  0  0  0  0999 V2000
  185.0520  177.5750  137.5290 C   0  0  0  0  0  0  0  0  0  0  0  0
  184.5720  179.0420  142.3410 C   0  0  0  0  0  0  0  0  0  0  0  0
  183.4000  178.3300  141.9930 C   0  0  0  0  0  3  0  0  0  0  0  0
  184.8550  176.9060  136.1960 C   0  0  0  0  0  2  0  0  0  0  0  0
  184.7180  179.5430  143.6270 O   0  0  0  0  0  1  0  0  0  0  0  0
  187.3000  178.3030  136.7810 C   0  0  0  0  0  2  0  0  0  0  0  0
  183.2860  177.8500  140.6850 C   0  0  0  0  0  0  0  0  0  0  0  0
  184.2760  178.0730  139.7940 C   0  0  0  0  0  0  0  0  0  0  0  0
  187.9710  176.9430  136.5090 C   0  0  2  0  0  3  0  0  0  0  0  0
  187.0880  175.7080  136.7640 C   0  0  0  0  0  2  0  0  0  0  0  0
  182.7580  176.8040  138.5890 C   0  0  2  0  0  3  0  0  0  0  0  0
  185.6040  179.2410  141.3900 C   0  0  0  0  0  3  0  0  0  0  0  0
  182.2110  177.0390  140.0330 C   0  0  0  0  0  2  0  0  0  0  0  0
  184.0380  177.5100  138.5430 N   0  0  0  0  0  0  0  0  0  0  0  0
  186.2080  178.2330  137.8100 C   0  0  0  0  0  0  0  0  0  0  0  0
  185.4460  178.7320  140.0920 C   0  0  0  0  0  0  0  0  0  0  0  0
  186.4140  178.8310  139.0800 O   0  0  0  0  0  0  0  0  0  0  0  0
  185.7750  175.6950  135.9700 C   0  0  0  0  0  2  0  0  0  0  0  0
  191.6310  176.3300  137.2660 C   0  0  0  0  0  3  0  0  0  0  0  0
  190.4170  176.4400  136.5820 C   0  0  0  0  0  3  0  0  0  0  0  0
  189.2580  176.8290  137.2630 C   0  0  0  0  0  0  0  0  0  0  0  0
  190.5360  177.0010  139.3190 C   0  0  0  0  0  3  0  0  0  0  0  0
  189.3220  177.1110  138.6360 C   0  0  0  0  0  3  0  0  0  0  0  0
  191.6900  176.6110  138.6340 C   0  0  0  0  0  0  0  0  0  0  0  0
  192.8680  176.5050  139.2950 F   0  0  0  0  0  0  0  0  0  0  0  0
  181.6220  178.7740  137.5040 N   0  0  0  0  0  2  0  0  0  0  0  0
  181.1850  176.5920  136.7960 O   0  0  0  0  0  0  0  0  0  0  0  0
  181.8130  177.3620  137.5740 C   0  0  0  0  0  0  0  0  0  0  0  0
  180.7060  179.3810  136.5490 C   0  0  0  0  0  2  0  0  0  0  0  0
  180.9400  181.5620  137.7070 C   0  0  0  0  0  2  0  0  0  0  0  0
  179.1410  181.2080  136.2140 N   0  0  0  0  0  2  0  0  0  0  0  0
  179.9700  180.5370  137.2010 C   0  0  1  0  0  3  0  0  0  0  0  0
  179.0710  182.5660  136.5860 N   0  0  0  0  0  2  0  0  0  0  0  0
  180.2370  182.8610  137.4140 C   0  0  2  0  0  3  0  0  0  0  0  0
  181.1730  183.8650  136.7350 C   0  0  1  0  0  3  0  0  0  0  0  0
  180.6560  184.3090  135.3720 C   0  0  0  0  0  1  0  0  0  0  0  0
  180.0900  185.5690  137.6430 C   0  0  0  0  0  1  0  0  0  0  0  0
  181.3520  184.9800  137.5560 O   0  0  0  0  0  0  0  0  0  0  0  0
  1 15  2  0  0  0  0
  1 14  1  0  0  0  0
  2  5  1  0  0  0  0
  3  2  1  0  0  0  0
  4  1  1  0  0  0  0
  6 15  1  0  0  0  0
  7  3  2  0  0  0  0
  8 16  2  0  0  0  0
  8  7  1  0  0  0  0
  9 10  1  0  0  0  0
  9  6  1  0  0  0  0
  9 21  1  1  0  0  0
 11 28  1  6  0  0  0
 11 13  1  0  0  0  0
 12  2  2  0  0  0  0
 13  7  1  0  0  0  0
 14 11  1  0  0  0  0
 14  8  1  0  0  0  0
 15 17  1  0  0  0  0
 16 12  1  0  0  0  0
 17 16  1  0  0  0  0
 18  4  1  0  0  0  0
 18 10  1  0  0  0  0
 19 24  1  0  0  0  0
 20 21  1  0  0  0  0
 20 19  2  0  0  0  0
 21 23  2  0  0  0  0
 23 22  1  0  0  0  0
 24 25  1  0  0  0  0
 24 22  2  0  0  0  0
 26 28  1  0  0  0  0
 27 28  2  0  0  0  0
 29 26  1  0  0  0  0
 31 33  1  0  0  0  0
 31 32  1  0  0  0  0
 32 29  1  6  0  0  0
 32 30  1  0  0  0  0
 33 34  1  0  0  0  0
 34 35  1  6  0  0  0
 34 30  1  0  0  0  0
 35 36  1  6  0  0  0
 35 38  1  0  0  0  0
 38 37  1  0  0  0  0
M  END
>  <MODEL>
7

>  <REMARK>
 VINA RESULT:      -7.5      5.395     11.359
  Name = 
  6 active torsions:
  status: ('A' for Active; 'I' for Inactive)
    1  A    between atoms: C_10  and  O_26
    2  A    between atoms: C_10  and  C_36
    3  A    between atoms: C_14  and  C_15
    4  A    between atoms: C_18  and  C_33
    5  A    between atoms: C_19  and  C_20
    6  A    between atoms: C_19  and  N_24
                            x       y       z     vdW  Elec       q    Type
                         _______ _______ _______ _____ _____    ______ ____

>  <TORSDO>
F 6

$$$$
=
 OpenBabel10222416253D

 38 43  0  0  1  0  0  0  0  0999 V2000
  187.0040  177.5090  141.8680 C   0  0  0  0  0  0  0  0  0  0  0  0
  191.8500  177.1790  140.4720 C   0  0  0  0  0  0  0  0  0  0  0  0
  191.1590  177.8780  139.4530 C   0  0  0  0  0  3  0  0  0  0  0  0
  185.5490  177.8780  141.9590 C   0  0  0  0  0  2  0  0  0  0  0  0
  193.2170  176.9660  140.3550 O   0  0  0  0  0  1  0  0  0  0  0  0
  186.8370  176.4760  144.1150 C   0  0  0  0  0  2  0  0  0  0  0  0
  189.7810  178.0640  139.6010 C   0  0  0  0  0  0  0  0  0  0  0  0
  189.1470  177.5800  140.6920 C   0  0  0  0  0  0  0  0  0  0  0  0
  186.4150  177.6910  144.9620 C   0  0  2  0  0  3  0  0  0  0  0  0
  186.2480  179.0110  144.1880 C   0  0  0  0  0  2  0  0  0  0  0  0
  187.4550  178.6550  139.5300 C   0  0  2  0  0  3  0  0  0  0  0  0
  191.1610  176.7030  141.6150 C   0  0  0  0  0  3  0  0  0  0  0  0
  188.7950  178.7840  138.7380 C   0  0  0  0  0  2  0  0  0  0  0  0
  187.7850  177.8680  140.7180 N   0  0  0  0  0  0  0  0  0  0  0  0
  187.6170  176.8480  142.8870 C   0  0  0  0  0  0  0  0  0  0  0  0
  189.7780  176.9220  141.7210 C   0  0  0  0  0  0  0  0  0  0  0  0
  188.9980  176.5330  142.8220 O   0  0  0  0  0  0  0  0  0  0  0  0
  185.2470  178.9410  143.0270 C   0  0  0  0  0  2  0  0  0  0  0  0
  187.6900  178.5030  148.4350 C   0  0  0  0  0  3  0  0  0  0  0  0
  186.8380  178.3250  147.3420 C   0  0  0  0  0  3  0  0  0  0  0  0
  187.3470  177.8780  146.1180 C   0  0  0  0  0  0  0  0  0  0  0  0
  189.5700  177.7840  147.0880 C   0  0  0  0  0  3  0  0  0  0  0  0
  188.7190  177.6070  145.9950 C   0  0  0  0  0  3  0  0  0  0  0  0
  189.0550  178.2320  148.3080 C   0  0  0  0  0  0  0  0  0  0  0  0
  189.8800  178.4050  149.3690 F   0  0  0  0  0  0  0  0  0  0  0  0
  185.0700  178.3970  138.7580 N   0  0  0  0  0  2  0  0  0  0  0  0
  186.7480  176.9740  137.9790 O   0  0  0  0  0  0  0  0  0  0  0  0
  186.4240  177.9540  138.7050 C   0  0  0  0  0  0  0  0  0  0  0  0
  184.0170  177.7490  137.9920 C   0  0  0  0  0  2  0  0  0  0  0  0
  181.6430  177.9280  138.6900 C   0  0  0  0  0  2  0  0  0  0  0  0
  183.0260  179.8460  138.7190 N   0  0  0  0  0  2  0  0  0  0  0  0
  182.7720  178.6170  137.9840 C   0  0  1  0  0  3  0  0  0  0  0  0
  181.8040  180.2440  139.2950 N   0  0  0  0  0  2  0  0  0  0  0  0
  180.9590  179.0580  139.4100 C   0  0  2  0  0  3  0  0  0  0  0  0
  180.6780  178.7040  140.8740 C   0  0  1  0  0  3  0  0  0  0  0  0
  179.9110  177.3960  141.0170 C   0  0  0  0  0  1  0  0  0  0  0  0
  181.5500  179.0030  142.8860 C   0  0  0  0  0  1  0  0  0  0  0  0
  181.8790  178.6270  141.5830 O   0  0  0  0  0  0  0  0  0  0  0  0
  1  4  1  0  0  0  0
  1 15  2  0  0  0  0
  2 12  1  0  0  0  0
  3  7  1  0  0  0  0
  3  2  2  0  0  0  0
  4 18  1  0  0  0  0
  5  2  1  0  0  0  0
  6  9  1  0  0  0  0
  7  8  2  0  0  0  0
  8 14  1  0  0  0  0
  8 16  1  0  0  0  0
  9 21  1  1  0  0  0
 10  9  1  0  0  0  0
 11 28  1  6  0  0  0
 11 14  1  0  0  0  0
 12 16  2  0  0  0  0
 13 11  1  0  0  0  0
 13  7  1  0  0  0  0
 14  1  1  0  0  0  0
 15  6  1  0  0  0  0
 16 17  1  0  0  0  0
 17 15  1  0  0  0  0
 18 10  1  0  0  0  0
 20 19  2  0  0  0  0
 21 20  1  0  0  0  0
 22 24  2  0  0  0  0
 23 21  2  0  0  0  0
 23 22  1  0  0  0  0
 24 19  1  0  0  0  0
 24 25  1  0  0  0  0
 27 28  2  0  0  0  0
 28 26  1  0  0  0  0
 29 26  1  0  0  0  0
 30 34  1  0  0  0  0
 31 33  1  0  0  0  0
 32 29  1  1  0  0  0
 32 30  1  0  0  0  0
 32 31  1  0  0  0  0
 33 34  1  0  0  0  0
 34 35  1  1  0  0  0
 35 36  1  6  0  0  0
 35 38  1  0  0  0  0
 38 37  1  0  0  0  0
M  END
>  <MODEL>
8

>  <REMARK>
 VINA RESULT:      -7.4      4.360      9.305
  Name = 
  6 active torsions:
  status: ('A' for Active; 'I' for Inactive)
    1  A    between atoms: C_10  and  O_26
    2  A    between atoms: C_10  and  C_36
    3  A    between atoms: C_14  and  C_15
    4  A    between atoms: C_18  and  C_33
    5  A    between atoms: C_19  and  C_20
    6  A    between atoms: C_19  and  N_24
                            x       y       z     vdW  Elec       q    Type
                         _______ _______ _______ _____ _____    ______ ____

>  <TORSDO>
F 6

$$$$
=
 OpenBabel10222416253D

 38 43  0  0  1  0  0  0  0  0999 V2000
  188.5510  177.6830  139.6330 C   0  0  0  0  0  0  0  0  0  0  0  0
  190.7160  177.6540  144.2000 C   0  0  0  0  0  0  0  0  0  0  0  0
  189.3160  177.5770  144.3910 C   0  0  0  0  0  3  0  0  0  0  0  0
  187.5660  177.5860  138.5010 C   0  0  0  0  0  2  0  0  0  0  0  0
  191.5630  177.6380  145.3000 O   0  0  0  0  0  1  0  0  0  0  0  0
  190.3900  177.7130  137.9720 C   0  0  0  0  0  2  0  0  0  0  0  0
  188.4950  177.6050  143.2600 C   0  0  0  0  0  0  0  0  0  0  0  0
  189.0430  177.7060  142.0290 C   0  0  0  0  0  0  0  0  0  0  0  0
  190.1710  176.3570  137.2730 C   0  0  2  0  0  3  0  0  0  0  0  0
  188.9840  175.5280  137.7940 C   0  0  0  0  0  2  0  0  0  0  0  0
  186.7760  177.5380  141.5840 C   0  0  2  0  0  3  0  0  0  0  0  0
  191.2620  177.7370  142.8950 C   0  0  0  0  0  3  0  0  0  0  0  0
  187.0080  177.5000  143.1290 C   0  0  0  0  0  2  0  0  0  0  0  0
  188.1070  177.6910  140.9980 N   0  0  0  0  0  0  0  0  0  0  0  0
  189.8880  177.7400  139.3870 C   0  0  0  0  0  0  0  0  0  0  0  0
  190.3970  177.7530  141.7900 C   0  0  0  0  0  0  0  0  0  0  0  0
  190.8220  177.7920  140.4530 O   0  0  0  0  0  0  0  0  0  0  0  0
  187.6330  176.2540  137.7370 C   0  0  0  0  0  2  0  0  0  0  0  0
  193.8050  175.3970  137.7410 C   0  0  0  0  0  3  0  0  0  0  0  0
  192.6220  176.1410  137.7100 C   0  0  0  0  0  3  0  0  0  0  0  0
  191.4260  175.5430  137.2950 C   0  0  0  0  0  0  0  0  0  0  0  0
  192.6060  173.4510  136.9430 C   0  0  0  0  0  3  0  0  0  0  0  0
  191.4220  174.1930  136.9110 C   0  0  0  0  0  3  0  0  0  0  0  0
  193.7970  174.0530  137.3580 C   0  0  0  0  0  0  0  0  0  0  0  0
  194.9450  173.3340  137.3890 F   0  0  0  0  0  0  0  0  0  0  0  0
  184.9030  178.5190  140.2130 N   0  0  0  0  0  2  0  0  0  0  0  0
  186.0570  179.8140  141.7760 O   0  0  0  0  0  0  0  0  0  0  0  0
  185.9030  178.6940  141.2150 C   0  0  0  0  0  0  0  0  0  0  0  0
  184.0310  179.6070  139.7970 C   0  0  0  0  0  2  0  0  0  0  0  0
  182.2340  178.1700  140.7260 C   0  0  0  0  0  2  0  0  0  0  0  0
  181.6800  180.2040  139.6550 N   0  0  0  0  0  2  0  0  0  0  0  0
  182.6160  179.0930  139.6070 C   0  0  1  0  0  3  0  0  0  0  0  0
  180.4720  179.7060  140.1850 N   0  0  0  0  0  2  0  0  0  0  0  0
  180.7870  178.5100  140.9620 C   0  0  2  0  0  3  0  0  0  0  0  0
  180.4930  178.7100  142.4510 C   0  0  1  0  0  3  0  0  0  0  0  0
  181.7440  179.0560  143.2480 C   0  0  0  0  0  1  0  0  0  0  0  0
  179.0440  179.5300  143.9100 C   0  0  0  0  0  1  0  0  0  0  0  0
  179.5360  179.7140  142.6170 O   0  0  0  0  0  0  0  0  0  0  0  0
  1 14  1  0  0  0  0
  2  3  1  0  0  0  0
  2  5  1  0  0  0  0
  4  1  1  0  0  0  0
  6 15  1  0  0  0  0
  7  3  2  0  0  0  0
  8  7  1  0  0  0  0
  9 21  1  1  0  0  0
  9 10  1  0  0  0  0
  9  6  1  0  0  0  0
 11 28  1  1  0  0  0
 11 13  1  0  0  0  0
 12  2  2  0  0  0  0
 13  7  1  0  0  0  0
 14 11  1  0  0  0  0
 14  8  1  0  0  0  0
 15  1  2  0  0  0  0
 15 17  1  0  0  0  0
 16  8  2  0  0  0  0
 16 12  1  0  0  0  0
 17 16  1  0  0  0  0
 18 10  1  0  0  0  0
 18  4  1  0  0  0  0
 20 19  1  0  0  0  0
 21 20  2  0  0  0  0
 22 24  1  0  0  0  0
 23 22  2  0  0  0  0
 23 21  1  0  0  0  0
 24 25  1  0  0  0  0
 24 19  2  0  0  0  0
 26 28  1  0  0  0  0
 28 27  2  0  0  0  0
 29 26  1  0  0  0  0
 30 34  1  0  0  0  0
 31 33  1  0  0  0  0
 32 31  1  0  0  0  0
 32 29  1  1  0  0  0
 32 30  1  0  0  0  0
 33 34  1  0  0  0  0
 34 35  1  1  0  0  0
 35 38  1  0  0  0  0
 35 36  1  1  0  0  0
 38 37  1  0  0  0  0
M  END
>  <MODEL>
9

>  <REMARK>
 VINA RESULT:      -7.4      4.344     10.957
  Name = 
  6 active torsions:
  status: ('A' for Active; 'I' for Inactive)
    1  A    between atoms: C_10  and  O_26
    2  A    between atoms: C_10  and  C_36
    3  A    between atoms: C_14  and  C_15
    4  A    between atoms: C_18  and  C_33
    5  A    between atoms: C_19  and  C_20
    6  A    between atoms: C_19  and  N_24
                            x       y       z     vdW  Elec       q    Type
                         _______ _______ _______ _____ _____    ______ ____

>  <TORSDO>
F 6

$$$$
