=
 OpenBabel10222420423D

 42 48  0  0  1  0  0  0  0  0999 V2000
  188.2220  177.9170  141.2640 C   0  0  0  0  0  0  0  0  0  0  0  0
  189.2580  177.2630  141.6870 N   0  0  0  0  0  0  0  0  0  0  0  0
  188.1400  176.6260  143.8110 C   0  0  2  0  0  0  0  0  0  0  0  0
  188.5130  178.0940  146.1680 C   0  0  2  0  0  3  0  0  0  0  0  0
  187.2640  177.3900  145.8700 C   0  0  0  0  0  2  0  0  0  0  0  0
  189.3490  176.5600  142.9730 C   0  0  2  0  0  3  0  0  0  0  0  0
  189.2530  177.5250  144.0880 N   0  0  2  0  0  0  0  0  0  0  0  0
  188.5750  176.8580  145.2410 C   0  0  2  0  0  0  0  0  0  0  0  0
  187.0280  178.0110  142.1120 C   0  0  0  0  0  0  0  0  0  0  0  0
  187.0270  177.4350  143.2740 N   0  0  0  0  0  0  0  0  0  0  0  0
  188.1940  178.0490  148.7440 C   0  0  0  0  0  1  0  0  0  0  0  0
  190.0660  177.1360  147.6670 O   0  0  0  0  0  0  0  0  0  0  0  0
  189.0110  177.7340  147.5350 C   0  0  0  0  0  0  0  0  0  0  0  0
  185.8400  178.8090  141.6740 C   0  0  2  0  0  3  0  0  0  0  0  0
  185.8010  180.0320  142.3470 O   0  0  0  0  0  1  0  0  0  0  0  0
  182.5750  178.7760  141.4180 C   0  0  0  0  0  2  0  0  0  0  0  0
  183.4890  178.7640  142.6280 C   0  0  0  0  0  2  0  0  0  0  0  0
  184.5370  178.0020  141.8340 C   0  0  1  0  0  3  0  0  0  0  0  0
  183.5820  177.9550  140.6290 C   0  0  2  0  0  3  0  0  0  0  0  0
  184.0740  177.9020  138.1020 N   0  0  0  0  0  2  0  0  0  0  0  0
  184.0080  178.6260  139.3360 C   0  0  0  0  0  0  0  0  0  0  0  0
  184.4440  179.8060  139.3540 O   0  0  0  0  0  0  0  0  0  0  0  0
  183.8160  176.4750  137.9840 C   0  0  0  0  0  2  0  0  0  0  0  0
  184.2360  176.0010  136.6080 C   0  0  0  0  0  2  0  0  0  0  0  0
  184.5020  173.7570  137.7260 N   0  0  0  0  0  1  0  0  0  0  0  0
  185.7900  174.3470  135.8850 O   0  0  0  0  0  0  0  0  0  0  0  0
  184.8960  174.6720  136.7120 C   0  0  0  0  0  0  0  0  0  0  0  0
  188.2770  178.5870  139.9270 C   0  0  0  0  0  2  0  0  0  0  0  0
  188.3950  177.5740  138.7990 C   0  0  2  0  0  3  0  0  0  0  0  0
  189.3060  176.9170  136.0850 C   0  0  0  0  0  2  0  0  0  0  0  0
  189.8730  177.3620  138.4800 C   0  0  0  0  0  2  0  0  0  0  0  0
  187.6590  178.0800  137.5580 C   0  0  0  0  0  2  0  0  0  0  0  0
  190.0420  176.3870  137.3160 C   0  0  2  0  0  3  0  0  0  0  0  0
  187.8260  177.1010  136.4010 C   0  0  0  0  0  2  0  0  0  0  0  0
  192.3230  176.3910  138.2800 C   0  0  0  0  0  2  0  0  0  0  0  0
  192.0670  175.0010  137.7280 C   0  0  1  0  0  3  0  0  0  0  0  0
  191.5200  176.2260  137.0080 C   0  0  1  0  0  3  0  0  0  0  0  0
  193.2940  174.4900  137.0320 C   0  0  0  0  0  0  0  0  0  0  0  0
  193.2320  173.3950  136.3470 N   0  0  0  0  0  2  0  0  0  0  0  0
  194.6020  175.1230  137.2750 C   0  0  0  0  0  0  0  0  0  0  0  0
  195.2930  174.8760  138.4550 O   0  0  0  0  0  1  0  0  0  0  0  0
  195.1080  175.8880  136.4110 O   0  0  0  0  0  0  0  0  0  0  0  0
  1  2  2  0  0  0  0
  1  9  1  0  0  0  0
  3 10  1  6  0  0  0
  3  7  1  0  0  0  0
  3  8  1  0  0  0  0
  4 13  1  1  0  0  0
  5  4  1  0  0  0  0
  6  2  1  6  0  0  0
  6  3  1  0  0  0  0
  6  7  1  0  0  0  0
  7  8  1  0  0  0  0
  8  5  1  0  0  0  0
  8  4  1  0  0  0  0
  9 10  2  0  0  0  0
 13 12  2  0  0  0  0
 13 11  1  0  0  0  0
 14 18  1  0  0  0  0
 14  9  1  0  0  0  0
 14 15  1  0  0  0  0
 16 17  1  0  0  0  0
 18 17  1  0  0  0  0
 19 16  1  0  0  0  0
 19 18  1  0  0  0  0
 20 21  1  0  0  0  0
 21 22  2  0  0  0  0
 21 19  1  0  0  0  0
 23 20  1  0  0  0  0
 24 27  1  0  0  0  0
 24 23  1  0  0  0  0
 26 27  2  0  0  0  0
 27 25  1  0  0  0  0
 28  1  1  0  0  0  0
 29 28  1  0  0  0  0
 30 34  1  0  0  0  0
 30 33  1  0  0  0  0
 31 29  1  0  0  0  0
 32 29  1  0  0  0  0
 33 31  1  0  0  0  0
 34 32  1  0  0  0  0
 36 35  1  0  0  0  0
 37 33  1  0  0  0  0
 37 36  1  0  0  0  0
 37 35  1  0  0  0  0
 38 40  1  0  0  0  0
 38 36  1  0  0  0  0
 39 38  2  0  0  0  0
 40 41  1  0  0  0  0
 42 40  2  0  0  0  0
M  END
>  <MODEL>
1

>  <REMARK>
 VINA RESULT:      -8.3      0.000      0.000
  Name = 
  12 active torsions:
  status: ('A' for Active; 'I' for Inactive)
    1  A    between atoms: N_1  and  C_38
    2  A    between atoms: C_2  and  C_23
    3  A    between atoms: C_2  and  C_38
    4  A    between atoms: C_3  and  C_32
    5  A    between atoms: C_5  and  CA_30
    6  A    between atoms: C_6  and  CA_30
    7  A    between atoms: C_8  and  C_33
    8  A    between atoms: C_8  and  C_37
    9  A    between atoms: C_10  and  C_32
   10  A    between atoms: C_13  and  C_28
   11  A    between atoms: C_17  and  C_34
   12  A    between atoms: C_22  and  C_36
                            x       y       z     vdW  Elec       q    Type
                         _______ _______ _______ _____ _____    ______ ____

>  <TORSDO>
F 12

$$$$
=
 OpenBabel10222420423D

 42 48  0  0  1  0  0  0  0  0999 V2000
  186.0550  178.5900  141.0380 C   0  0  0  0  0  0  0  0  0  0  0  0
  187.2180  178.4770  141.5990 N   0  0  0  0  0  0  0  0  0  0  0  0
  188.4100  178.5460  139.4220 C   0  0  2  0  0  0  0  0  0  0  0  0
  189.1870  176.2030  138.0960 C   0  0  2  0  0  3  0  0  0  0  0  0
  188.8260  177.4290  137.3790 C   0  0  0  0  0  2  0  0  0  0  0  0
  188.5020  178.4390  140.8870 C   0  0  2  0  0  3  0  0  0  0  0  0
  188.5740  177.2340  140.0340 N   0  0  2  0  0  0  0  0  0  0  0  0
  189.3820  177.5560  138.8190 C   0  0  2  0  0  0  0  0  0  0  0  0
  185.9590  178.6650  139.5750 C   0  0  0  0  0  0  0  0  0  0  0  0
  187.0440  178.6180  138.8650 N   0  0  0  0  0  0  0  0  0  0  0  0
  191.1270  176.2170  136.3710 C   0  0  0  0  0  1  0  0  0  0  0  0
  191.1150  174.8520  138.2770 O   0  0  0  0  0  0  0  0  0  0  0  0
  190.5100  175.6820  137.6200 C   0  0  0  0  0  0  0  0  0  0  0  0
  184.6260  178.7350  138.8980 C   0  0  2  0  0  3  0  0  0  0  0  0
  184.0240  179.9720  139.1370 O   0  0  0  0  0  1  0  0  0  0  0  0
  181.7520  177.2060  138.5400 C   0  0  0  0  0  2  0  0  0  0  0  0
  182.3320  178.0010  139.6950 C   0  0  0  0  0  2  0  0  0  0  0  0
  183.7300  177.5500  139.3080 C   0  0  1  0  0  3  0  0  0  0  0  0
  183.1360  176.6900  138.1810 C   0  0  2  0  0  3  0  0  0  0  0  0
  184.7070  176.4410  136.1560 N   0  0  0  0  0  2  0  0  0  0  0  0
  183.5270  176.9970  136.7470 C   0  0  0  0  0  0  0  0  0  0  0  0
  182.8870  177.8600  136.0920 O   0  0  0  0  0  0  0  0  0  0  0  0
  185.6600  175.6090  136.8740 C   0  0  0  0  0  2  0  0  0  0  0  0
  185.6670  174.2190  136.2720 C   0  0  0  0  0  2  0  0  0  0  0  0
  187.3360  172.6040  137.2510 N   0  0  0  0  0  1  0  0  0  0  0  0
  185.2640  172.9470  138.2450 O   0  0  0  0  0  0  0  0  0  0  0  0
  186.0580  173.2230  137.3060 C   0  0  0  0  0  0  0  0  0  0  0  0
  184.8290  178.6130  141.8960 C   0  0  0  0  0  2  0  0  0  0  0  0
  185.1670  178.9330  143.3440 C   0  0  2  0  0  3  0  0  0  0  0  0
  185.3600  178.0550  146.1410 C   0  0  0  0  0  2  0  0  0  0  0  0
  186.2700  177.9860  143.8120 C   0  0  0  0  0  2  0  0  0  0  0  0
  183.9270  178.7660  144.2230 C   0  0  0  0  0  2  0  0  0  0  0  0
  186.6110  178.2350  145.2810 C   0  0  2  0  0  3  0  0  0  0  0  0
  184.2710  179.0200  145.6870 C   0  0  0  0  0  2  0  0  0  0  0  0
  188.5050  176.8350  144.5170 C   0  0  0  0  0  2  0  0  0  0  0  0
  189.0640  177.8640  145.4830 C   0  0  1  0  0  3  0  0  0  0  0  0
  187.6870  177.2560  145.7180 C   0  0  1  0  0  3  0  0  0  0  0  0
  190.0780  177.2250  146.3840 C   0  0  0  0  0  0  0  0  0  0  0  0
  189.8850  177.2230  147.6630 N   0  0  0  0  0  2  0  0  0  0  0  0
  191.3690  176.7690  145.8430 C   0  0  0  0  0  0  0  0  0  0  0  0
  191.8070  177.2160  144.6020 O   0  0  0  0  0  0  0  0  0  0  0  0
  192.0910  175.9760  146.5040 O   0  0  0  0  0  1  0  0  0  0  0  0
  1  2  2  0  0  0  0
  1 28  1  0  0  0  0
  3 10  1  6  0  0  0
  3  7  1  0  0  0  0
  3  6  1  0  0  0  0
  4 13  1  6  0  0  0
  4  8  1  0  0  0  0
  5  4  1  0  0  0  0
  5  8  1  0  0  0  0
  6  2  1  1  0  0  0
  7  6  1  0  0  0  0
  8  3  1  0  0  0  0
  8  7  1  0  0  0  0
  9  1  1  0  0  0  0
 10  9  2  0  0  0  0
 11 13  1  0  0  0  0
 13 12  2  0  0  0  0
 14 15  1  0  0  0  0
 14 18  1  0  0  0  0
 14  9  1  0  0  0  0
 16 17  1  0  0  0  0
 18 17  1  0  0  0  0
 19 16  1  0  0  0  0
 19 18  1  0  0  0  0
 20 21  1  0  0  0  0
 20 23  1  0  0  0  0
 21 19  1  0  0  0  0
 22 21  2  0  0  0  0
 24 23  1  0  0  0  0
 24 27  1  0  0  0  0
 25 27  1  0  0  0  0
 27 26  2  0  0  0  0
 28 29  1  0  0  0  0
 29 31  1  0  0  0  0
 29 32  1  0  0  0  0
 31 33  1  0  0  0  0
 32 34  1  0  0  0  0
 33 37  1  0  0  0  0
 33 30  1  0  0  0  0
 34 30  1  0  0  0  0
 35 36  1  0  0  0  0
 35 37  1  0  0  0  0
 36 37  1  0  0  0  0
 36 38  1  0  0  0  0
 38 39  2  0  0  0  0
 40 38  1  0  0  0  0
 40 42  1  0  0  0  0
 41 40  2  0  0  0  0
M  END
>  <MODEL>
2

>  <REMARK>
 VINA RESULT:      -8.1      2.228      6.807
  Name = 
  12 active torsions:
  status: ('A' for Active; 'I' for Inactive)
    1  A    between atoms: N_1  and  C_38
    2  A    between atoms: C_2  and  C_23
    3  A    between atoms: C_2  and  C_38
    4  A    between atoms: C_3  and  C_32
    5  A    between atoms: C_5  and  CA_30
    6  A    between atoms: C_6  and  CA_30
    7  A    between atoms: C_8  and  C_33
    8  A    between atoms: C_8  and  C_37
    9  A    between atoms: C_10  and  C_32
   10  A    between atoms: C_13  and  C_28
   11  A    between atoms: C_17  and  C_34
   12  A    between atoms: C_22  and  C_36
                            x       y       z     vdW  Elec       q    Type
                         _______ _______ _______ _____ _____    ______ ____

>  <TORSDO>
F 12

$$$$
=
 OpenBabel10222420423D

 42 48  0  0  1  0  0  0  0  0999 V2000
  185.6000  178.5410  141.1910 C   0  0  0  0  0  0  0  0  0  0  0  0
  186.8760  178.6470  141.3940 N   0  0  0  0  0  0  0  0  0  0  0  0
  187.3920  178.5580  138.9660 C   0  0  2  0  0  0  0  0  0  0  0  0
  188.1230  176.1650  137.7050 C   0  0  2  0  0  3  0  0  0  0  0  0
  187.3920  177.2280  137.0110 C   0  0  0  0  0  2  0  0  0  0  0  0
  187.9010  178.6650  140.3430 C   0  0  2  0  0  3  0  0  0  0  0  0
  187.9190  177.3720  139.6280 N   0  0  2  0  0  0  0  0  0  0  0  0
  188.2980  177.6180  138.2030 C   0  0  2  0  0  0  0  0  0  0  0  0
  185.0920  178.4010  139.8220 C   0  0  0  0  0  0  0  0  0  0  0  0
  185.9300  178.3880  138.8320 N   0  0  0  0  0  0  0  0  0  0  0  0
  190.5870  175.3530  137.6080 C   0  0  0  0  0  1  0  0  0  0  0  0
  189.2660  175.6750  135.6980 O   0  0  0  0  0  0  0  0  0  0  0  0
  189.3250  175.7460  136.9140 C   0  0  0  0  0  0  0  0  0  0  0  0
  183.6290  178.2170  139.5630 C   0  0  2  0  0  3  0  0  0  0  0  0
  183.1850  177.0130  140.1160 O   0  0  0  0  0  1  0  0  0  0  0  0
  181.5450  177.5310  137.1320 C   0  0  0  0  0  2  0  0  0  0  0  0
  182.9260  176.9930  137.4540 C   0  0  0  0  0  2  0  0  0  0  0  0
  183.3110  178.3330  138.0600 C   0  0  1  0  0  3  0  0  0  0  0  0
  181.9340  178.8980  137.6710 C   0  0  2  0  0  3  0  0  0  0  0  0
  180.8320  180.7810  139.0390 N   0  0  0  0  0  2  0  0  0  0  0  0
  181.0090  179.3850  138.7710 C   0  0  0  0  0  0  0  0  0  0  0  0
  180.4830  178.5590  139.5610 O   0  0  0  0  0  0  0  0  0  0  0  0
  181.5570  181.8370  138.3500 C   0  0  0  0  0  2  0  0  0  0  0  0
  180.5710  182.8490  137.8050 C   0  0  0  0  0  2  0  0  0  0  0  0
  182.1370  184.8090  137.5550 N   0  0  0  0  0  1  0  0  0  0  0  0
  181.1510  183.8110  135.7040 O   0  0  0  0  0  0  0  0  0  0  0  0
  181.2840  183.8430  136.9570 C   0  0  0  0  0  0  0  0  0  0  0  0
  184.6720  178.5350  142.3650 C   0  0  0  0  0  2  0  0  0  0  0  0
  185.4160  178.7950  143.6660 C   0  0  2  0  0  3  0  0  0  0  0  0
  186.3790  177.8100  146.2600 C   0  0  0  0  0  2  0  0  0  0  0  0
  186.5860  177.8190  143.7680 C   0  0  0  0  0  2  0  0  0  0  0  0
  184.4740  178.6090  144.8570 C   0  0  0  0  0  2  0  0  0  0  0  0
  187.3370  178.0080  145.0850 C   0  0  2  0  0  3  0  0  0  0  0  0
  185.2270  178.8040  146.1690 C   0  0  0  0  0  2  0  0  0  0  0  0
  189.2300  176.9910  143.8550 C   0  0  0  0  0  2  0  0  0  0  0  0
  189.8080  177.7210  145.0530 C   0  0  1  0  0  3  0  0  0  0  0  0
  188.4710  177.0020  145.1640 C   0  0  1  0  0  3  0  0  0  0  0  0
  190.8970  176.9010  145.6790 C   0  0  0  0  0  0  0  0  0  0  0  0
  191.6970  176.2190  144.9250 N   0  0  0  0  0  2  0  0  0  0  0  0
  190.9440  176.7200  147.1400 C   0  0  0  0  0  0  0  0  0  0  0  0
  191.8210  175.8020  147.7060 O   0  0  0  0  0  0  0  0  0  0  0  0
  190.1960  177.4030  147.8880 O   0  0  0  0  0  1  0  0  0  0  0  0
  1  2  2  0  0  0  0
  1 28  1  0  0  0  0
  3 10  1  6  0  0  0
  3  7  1  0  0  0  0
  3  6  1  0  0  0  0
  4 13  1  6  0  0  0
  4  8  1  0  0  0  0
  5  4  1  0  0  0  0
  5  8  1  0  0  0  0
  6  2  1  1  0  0  0
  7  6  1  0  0  0  0
  8  3  1  0  0  0  0
  8  7  1  0  0  0  0
  9  1  1  0  0  0  0
 10  9  2  0  0  0  0
 12 13  2  0  0  0  0
 13 11  1  0  0  0  0
 14  9  1  0  0  0  0
 14 15  1  0  0  0  0
 16 17  1  0  0  0  0
 16 19  1  0  0  0  0
 17 18  1  0  0  0  0
 18 14  1  0  0  0  0
 19 18  1  0  0  0  0
 19 21  1  0  0  0  0
 21 20  1  0  0  0  0
 21 22  2  0  0  0  0
 23 20  1  0  0  0  0
 24 23  1  0  0  0  0
 26 27  2  0  0  0  0
 27 25  1  0  0  0  0
 27 24  1  0  0  0  0
 28 29  1  0  0  0  0
 29 31  1  0  0  0  0
 29 32  1  0  0  0  0
 31 33  1  0  0  0  0
 32 34  1  0  0  0  0
 33 37  1  0  0  0  0
 33 30  1  0  0  0  0
 34 30  1  0  0  0  0
 35 36  1  0  0  0  0
 35 37  1  0  0  0  0
 36 37  1  0  0  0  0
 36 38  1  0  0  0  0
 38 40  1  0  0  0  0
 39 38  2  0  0  0  0
 40 41  2  0  0  0  0
 40 42  1  0  0  0  0
M  END
>  <MODEL>
3

>  <REMARK>
 VINA RESULT:      -7.7      2.865      7.668
  Name = 
  12 active torsions:
  status: ('A' for Active; 'I' for Inactive)
    1  A    between atoms: N_1  and  C_38
    2  A    between atoms: C_2  and  C_23
    3  A    between atoms: C_2  and  C_38
    4  A    between atoms: C_3  and  C_32
    5  A    between atoms: C_5  and  CA_30
    6  A    between atoms: C_6  and  CA_30
    7  A    between atoms: C_8  and  C_33
    8  A    between atoms: C_8  and  C_37
    9  A    between atoms: C_10  and  C_32
   10  A    between atoms: C_13  and  C_28
   11  A    between atoms: C_17  and  C_34
   12  A    between atoms: C_22  and  C_36
                            x       y       z     vdW  Elec       q    Type
                         _______ _______ _______ _____ _____    ______ ____

>  <TORSDO>
F 12

$$$$
=
 OpenBabel10222420423D

 42 48  0  0  1  0  0  0  0  0999 V2000
  188.1940  177.8120  141.1370 C   0  0  0  0  0  0  0  0  0  0  0  0
  189.2180  177.1220  141.5300 N   0  0  0  0  0  0  0  0  0  0  0  0
  188.1760  176.5960  143.7220 C   0  0  2  0  0  0  0  0  0  0  0  0
  188.7290  178.1100  146.0140 C   0  0  2  0  0  3  0  0  0  0  0  0
  187.4350  177.4570  145.7960 C   0  0  0  0  0  2  0  0  0  0  0  0
  189.3390  176.4510  142.8310 C   0  0  2  0  0  3  0  0  0  0  0  0
  189.3400  177.4500  143.9200 N   0  0  2  0  0  0  0  0  0  0  0  0
  188.6890  176.8480  145.1230 C   0  0  2  0  0  0  0  0  0  0  0  0
  187.0470  177.9850  142.0360 C   0  0  0  0  0  0  0  0  0  0  0  0
  187.0760  177.4420  143.2140 N   0  0  0  0  0  0  0  0  0  0  0  0
  190.5120  176.9400  147.4940 C   0  0  0  0  0  1  0  0  0  0  0  0
  188.7390  178.1980  148.3740 O   0  0  0  0  0  0  0  0  0  0  0  0
  189.2750  177.7650  147.3670 C   0  0  0  0  0  0  0  0  0  0  0  0
  185.8770  178.8250  141.6310 C   0  0  2  0  0  3  0  0  0  0  0  0
  185.8580  180.0170  142.3600 O   0  0  0  0  0  1  0  0  0  0  0  0
  182.6100  178.9440  141.8340 C   0  0  0  0  0  2  0  0  0  0  0  0
  183.6690  178.5780  142.8570 C   0  0  0  0  0  2  0  0  0  0  0  0
  184.5580  178.0380  141.7500 C   0  0  1  0  0  3  0  0  0  0  0  0
  183.4560  178.3460  140.7220 C   0  0  2  0  0  3  0  0  0  0  0  0
  182.7390  179.7580  138.6920 N   0  0  0  0  0  2  0  0  0  0  0  0
  183.7540  179.3330  139.6090 C   0  0  0  0  0  0  0  0  0  0  0  0
  184.9390  179.6940  139.3890 O   0  0  0  0  0  0  0  0  0  0  0  0
  181.3780  179.2450  138.6920 C   0  0  0  0  0  2  0  0  0  0  0  0
  180.4820  180.1960  137.9280 C   0  0  0  0  0  2  0  0  0  0  0  0
  179.8010  181.4310  140.0180 N   0  0  0  0  0  1  0  0  0  0  0  0
  180.6630  182.5580  138.1790 O   0  0  0  0  0  0  0  0  0  0  0  0
  180.3190  181.4610  138.6950 C   0  0  0  0  0  0  0  0  0  0  0  0
  188.2140  178.4420  139.7800 C   0  0  0  0  0  2  0  0  0  0  0  0
  188.3940  177.4020  138.6840 C   0  0  2  0  0  3  0  0  0  0  0  0
  189.3560  176.7110  135.9960 C   0  0  0  0  0  2  0  0  0  0  0  0
  189.8830  177.2600  138.3790 C   0  0  0  0  0  2  0  0  0  0  0  0
  187.6400  177.8300  137.4250 C   0  0  0  0  0  2  0  0  0  0  0  0
  190.1110  176.2590  137.2470 C   0  0  2  0  0  3  0  0  0  0  0  0
  187.8660  176.8260  136.2990 C   0  0  0  0  0  2  0  0  0  0  0  0
  192.3770  176.2580  138.2450 C   0  0  0  0  0  2  0  0  0  0  0  0
  192.1740  174.9080  137.5830 C   0  0  1  0  0  3  0  0  0  0  0  0
  191.5980  176.1680  136.9510 C   0  0  1  0  0  3  0  0  0  0  0  0
  193.4260  174.4910  136.8700 C   0  0  0  0  0  0  0  0  0  0  0  0
  193.3450  173.9630  135.6930 N   0  0  0  0  0  2  0  0  0  0  0  0
  194.7200  174.5070  137.5730 C   0  0  0  0  0  0  0  0  0  0  0  0
  195.7360  175.3570  137.1530 O   0  0  0  0  0  0  0  0  0  0  0  0
  194.9130  173.7560  138.5660 O   0  0  0  0  0  1  0  0  0  0  0  0
  1  2  2  0  0  0  0
  1  9  1  0  0  0  0
  3 10  1  6  0  0  0
  3  7  1  0  0  0  0
  3  8  1  0  0  0  0
  4 13  1  1  0  0  0
  5  4  1  0  0  0  0
  6  2  1  6  0  0  0
  6  3  1  0  0  0  0
  6  7  1  0  0  0  0
  7  8  1  0  0  0  0
  8  5  1  0  0  0  0
  8  4  1  0  0  0  0
  9 10  2  0  0  0  0
 13 11  1  0  0  0  0
 13 12  2  0  0  0  0
 14 18  1  0  0  0  0
 14  9  1  0  0  0  0
 14 15  1  0  0  0  0
 16 17  1  0  0  0  0
 18 17  1  0  0  0  0
 19 18  1  0  0  0  0
 19 16  1  0  0  0  0
 20 21  1  0  0  0  0
 21 19  1  0  0  0  0
 22 21  2  0  0  0  0
 23 20  1  0  0  0  0
 24 23  1  0  0  0  0
 24 27  1  0  0  0  0
 26 27  2  0  0  0  0
 27 25  1  0  0  0  0
 28  1  1  0  0  0  0
 29 28  1  0  0  0  0
 30 34  1  0  0  0  0
 30 33  1  0  0  0  0
 31 29  1  0  0  0  0
 32 29  1  0  0  0  0
 33 31  1  0  0  0  0
 34 32  1  0  0  0  0
 36 35  1  0  0  0  0
 37 33  1  0  0  0  0
 37 36  1  0  0  0  0
 37 35  1  0  0  0  0
 38 40  1  0  0  0  0
 38 36  1  0  0  0  0
 39 38  2  0  0  0  0
 40 42  1  0  0  0  0
 41 40  2  0  0  0  0
M  END
>  <MODEL>
4

>  <REMARK>
 VINA RESULT:      -7.6      1.815      2.827
  Name = 
  12 active torsions:
  status: ('A' for Active; 'I' for Inactive)
    1  A    between atoms: N_1  and  C_38
    2  A    between atoms: C_2  and  C_23
    3  A    between atoms: C_2  and  C_38
    4  A    between atoms: C_3  and  C_32
    5  A    between atoms: C_5  and  CA_30
    6  A    between atoms: C_6  and  CA_30
    7  A    between atoms: C_8  and  C_33
    8  A    between atoms: C_8  and  C_37
    9  A    between atoms: C_10  and  C_32
   10  A    between atoms: C_13  and  C_28
   11  A    between atoms: C_17  and  C_34
   12  A    between atoms: C_22  and  C_36
                            x       y       z     vdW  Elec       q    Type
                         _______ _______ _______ _____ _____    ______ ____

>  <TORSDO>
F 12

$$$$
=
 OpenBabel10222420423D

 42 48  0  0  1  0  0  0  0  0999 V2000
  187.0230  178.2700  139.6330 C   0  0  0  0  0  0  0  0  0  0  0  0
  186.3940  178.6960  140.6840 N   0  0  0  0  0  0  0  0  0  0  0  0
  184.1670  178.3240  139.6500 C   0  0  2  0  0  0  0  0  0  0  0  0
  182.7720  180.3950  138.3790 C   0  0  2  0  0  3  0  0  0  0  0  0
  182.6540  178.9950  137.9610 C   0  0  0  0  0  2  0  0  0  0  0  0
  184.9340  178.7780  140.8210 C   0  0  2  0  0  3  0  0  0  0  0  0
  184.3870  179.7500  139.8520 N   0  0  2  0  0  0  0  0  0  0  0  0
  183.0260  179.2940  139.4340 C   0  0  2  0  0  0  0  0  0  0  0  0
  186.2610  177.8470  138.4520 C   0  0  0  0  0  0  0  0  0  0  0  0
  184.9650  177.9060  138.4790 N   0  0  0  0  0  0  0  0  0  0  0  0
  180.5730  180.5840  139.7460 C   0  0  0  0  0  1  0  0  0  0  0  0
  181.0130  181.8760  137.8400 O   0  0  0  0  0  0  0  0  0  0  0  0
  181.4170  181.0010  138.5880 C   0  0  0  0  0  0  0  0  0  0  0  0
  186.9620  177.4090  137.2050 C   0  0  2  0  0  3  0  0  0  0  0  0
  186.2910  177.8840  136.0760 O   0  0  0  0  0  1  0  0  0  0  0  0
  187.3360  174.7100  135.3880 C   0  0  0  0  0  2  0  0  0  0  0  0
  186.1770  175.1990  136.2350 C   0  0  0  0  0  2  0  0  0  0  0  0
  187.1520  175.8800  137.1820 C   0  0  1  0  0  3  0  0  0  0  0  0
  188.3280  175.3260  136.3600 C   0  0  2  0  0  3  0  0  0  0  0  0
  190.4970  176.7140  136.3260 N   0  0  0  0  0  2  0  0  0  0  0  0
  189.2770  176.3060  135.6960 C   0  0  0  0  0  0  0  0  0  0  0  0
  188.9390  176.8840  134.6310 O   0  0  0  0  0  0  0  0  0  0  0  0
  190.9000  176.2970  137.6600 C   0  0  0  0  0  2  0  0  0  0  0  0
  192.1220  175.4090  137.5620 C   0  0  0  0  0  2  0  0  0  0  0  0
  194.2830  176.3910  136.7120 N   0  0  0  0  0  1  0  0  0  0  0  0
  193.5570  176.7750  138.8850 O   0  0  0  0  0  0  0  0  0  0  0  0
  193.3530  176.2200  137.7720 C   0  0  0  0  0  0  0  0  0  0  0  0
  188.5190  178.2450  139.6370 C   0  0  0  0  0  2  0  0  0  0  0  0
  189.0610  177.4930  140.8440 C   0  0  2  0  0  3  0  0  0  0  0  0
  190.6000  177.5140  143.3450 C   0  0  0  0  0  2  0  0  0  0  0  0
  188.5150  178.1410  142.1140 C   0  0  0  0  0  2  0  0  0  0  0  0
  190.5900  177.5370  140.8480 C   0  0  0  0  0  2  0  0  0  0  0  0
  189.0730  177.4500  143.3580 C   0  0  2  0  0  3  0  0  0  0  0  0
  191.1410  176.8420  142.0880 C   0  0  0  0  0  2  0  0  0  0  0  0
  187.0270  178.0060  144.6370 C   0  0  0  0  0  2  0  0  0  0  0  0
  187.8840  177.1150  145.5180 C   0  0  1  0  0  3  0  0  0  0  0  0
  188.5330  178.1400  144.5980 C   0  0  1  0  0  3  0  0  0  0  0  0
  187.8650  177.6190  146.9310 C   0  0  0  0  0  0  0  0  0  0  0  0
  186.8260  178.2520  147.3690 N   0  0  0  0  0  2  0  0  0  0  0  0
  189.0830  177.5590  147.7560 C   0  0  0  0  0  0  0  0  0  0  0  0
  190.1440  176.7420  147.3830 O   0  0  0  0  0  0  0  0  0  0  0  0
  189.1770  178.2560  148.8010 O   0  0  0  0  0  1  0  0  0  0  0  0
  1 28  1  0  0  0  0
  1  2  2  0  0  0  0
  3 10  1  6  0  0  0
  3  7  1  0  0  0  0
  3  6  1  0  0  0  0
  4 13  1  1  0  0  0
  4  8  1  0  0  0  0
  5  4  1  0  0  0  0
  5  8  1  0  0  0  0
  6  2  1  6  0  0  0
  7  6  1  0  0  0  0
  8  3  1  0  0  0  0
  8  7  1  0  0  0  0
  9 10  2  0  0  0  0
  9  1  1  0  0  0  0
 12 13  2  0  0  0  0
 13 11  1  0  0  0  0
 14  9  1  0  0  0  0
 15 14  1  0  0  0  0
 16 17  1  0  0  0  0
 16 19  1  0  0  0  0
 17 18  1  0  0  0  0
 18 14  1  0  0  0  0
 19 18  1  0  0  0  0
 20 23  1  0  0  0  0
 21 20  1  0  0  0  0
 21 19  1  0  0  0  0
 22 21  2  0  0  0  0
 24 23  1  0  0  0  0
 24 27  1  0  0  0  0
 25 27  1  0  0  0  0
 27 26  2  0  0  0  0
 28 29  1  0  0  0  0
 29 32  1  0  0  0  0
 29 31  1  0  0  0  0
 30 33  1  0  0  0  0
 31 33  1  0  0  0  0
 32 34  1  0  0  0  0
 33 37  1  0  0  0  0
 34 30  1  0  0  0  0
 35 36  1  0  0  0  0
 36 38  1  0  0  0  0
 37 35  1  0  0  0  0
 37 36  1  0  0  0  0
 38 39  2  0  0  0  0
 38 40  1  0  0  0  0
 40 42  1  0  0  0  0
 41 40  2  0  0  0  0
M  END
>  <MODEL>
5

>  <REMARK>
 VINA RESULT:      -7.3      2.245      8.294
  Name = 
  12 active torsions:
  status: ('A' for Active; 'I' for Inactive)
    1  A    between atoms: N_1  and  C_38
    2  A    between atoms: C_2  and  C_23
    3  A    between atoms: C_2  and  C_38
    4  A    between atoms: C_3  and  C_32
    5  A    between atoms: C_5  and  CA_30
    6  A    between atoms: C_6  and  CA_30
    7  A    between atoms: C_8  and  C_33
    8  A    between atoms: C_8  and  C_37
    9  A    between atoms: C_10  and  C_32
   10  A    between atoms: C_13  and  C_28
   11  A    between atoms: C_17  and  C_34
   12  A    between atoms: C_22  and  C_36
                            x       y       z     vdW  Elec       q    Type
                         _______ _______ _______ _____ _____    ______ ____

>  <TORSDO>
F 12

$$$$
=
 OpenBabel10222420423D

 42 48  0  0  1  0  0  0  0  0999 V2000
  186.1930  177.7190  137.9560 C   0  0  0  0  0  0  0  0  0  0  0  0
  186.7300  176.9260  137.0820 N   0  0  0  0  0  0  0  0  0  0  0  0
  184.5230  176.1120  136.2860 C   0  0  2  0  0  0  0  0  0  0  0  0
  183.3920  173.7400  137.2600 C   0  0  2  0  0  3  0  0  0  0  0  0
  182.5790  174.8790  136.8260 C   0  0  0  0  0  2  0  0  0  0  0  0
  185.9890  176.0470  136.1680 C   0  0  2  0  0  3  0  0  0  0  0  0
  185.2460  175.0260  136.9360 N   0  0  2  0  0  0  0  0  0  0  0  0
  183.9840  174.7010  136.2030 C   0  0  2  0  0  0  0  0  0  0  0  0
  184.7330  177.7610  138.0980 C   0  0  0  0  0  0  0  0  0  0  0  0
  184.0000  177.0020  137.3430 N   0  0  0  0  0  0  0  0  0  0  0  0
  183.8560  171.3170  136.4530 C   0  0  0  0  0  1  0  0  0  0  0  0
  181.7730  172.3680  136.2240 O   0  0  0  0  0  0  0  0  0  0  0  0
  182.9280  172.4760  136.6010 C   0  0  0  0  0  0  0  0  0  0  0  0
  184.0900  178.6220  139.1390 C   0  0  2  0  0  3  0  0  0  0  0  0
  184.7640  179.8410  139.2470 O   0  0  0  0  0  1  0  0  0  0  0  0
  183.1790  178.7470  142.2820 C   0  0  0  0  0  2  0  0  0  0  0  0
  184.5490  178.7020  141.6330 C   0  0  0  0  0  2  0  0  0  0  0  0
  183.9830  177.8820  140.4860 C   0  0  1  0  0  3  0  0  0  0  0  0
  182.6100  177.8700  141.1790 C   0  0  2  0  0  3  0  0  0  0  0  0
  180.5170  177.7270  139.6850 N   0  0  0  0  0  2  0  0  0  0  0  0
  181.4300  178.5060  140.4680 C   0  0  0  0  0  0  0  0  0  0  0  0
  181.3110  179.7580  140.4430 O   0  0  0  0  0  0  0  0  0  0  0  0
  180.6690  176.3010  139.4430 C   0  0  0  0  0  2  0  0  0  0  0  0
  179.3880  175.5880  139.8230 C   0  0  0  0  0  2  0  0  0  0  0  0
  179.6810  173.5980  141.3440 N   0  0  0  0  0  1  0  0  0  0  0  0
  179.8470  173.3860  139.0370 O   0  0  0  0  0  0  0  0  0  0  0  0
  179.6600  174.1390  140.0300 C   0  0  0  0  0  0  0  0  0  0  0  0
  187.0790  178.5570  138.8230 C   0  0  0  0  0  2  0  0  0  0  0  0
  188.0080  177.6980  139.6690 C   0  0  2  0  0  3  0  0  0  0  0  0
  190.3290  177.5020  141.4570 C   0  0  0  0  0  2  0  0  0  0  0  0
  187.9480  178.1840  141.1150 C   0  0  0  0  0  2  0  0  0  0  0  0
  189.4400  177.7960  139.1420 C   0  0  0  0  0  2  0  0  0  0  0  0
  188.9040  177.3820  141.9970 C   0  0  2  0  0  3  0  0  0  0  0  0
  190.3900  176.9900  140.0220 C   0  0  0  0  0  2  0  0  0  0  0  0
  187.5190  177.5230  144.0440 C   0  0  0  0  0  2  0  0  0  0  0  0
  188.7770  176.7520  144.4010 C   0  0  1  0  0  3  0  0  0  0  0  0
  188.8390  177.9140  143.4180 C   0  0  1  0  0  3  0  0  0  0  0  0
  189.2770  177.1810  145.7480 C   0  0  0  0  0  0  0  0  0  0  0  0
  188.4820  177.7990  146.5580 N   0  0  0  0  0  2  0  0  0  0  0  0
  190.7080  177.0670  146.0780 C   0  0  0  0  0  0  0  0  0  0  0  0
  191.6740  177.4050  145.1380 O   0  0  0  0  0  0  0  0  0  0  0  0
  191.0670  176.6710  147.2190 O   0  0  0  0  0  1  0  0  0  0  0  0
  1  9  1  0  0  0  0
  1 28  1  0  0  0  0
  2  1  2  0  0  0  0
  3  7  1  0  0  0  0
  3 10  1  1  0  0  0
  4 13  1  6  0  0  0
  5  4  1  0  0  0  0
  6  3  1  0  0  0  0
  6  7  1  0  0  0  0
  6  2  1  1  0  0  0
  8  3  1  0  0  0  0
  8  5  1  0  0  0  0
  8  7  1  0  0  0  0
  8  4  1  0  0  0  0
  9 14  1  0  0  0  0
 10  9  2  0  0  0  0
 11 13  1  0  0  0  0
 12 13  2  0  0  0  0
 14 15  1  0  0  0  0
 14 18  1  0  0  0  0
 17 16  1  0  0  0  0
 18 19  1  0  0  0  0
 18 17  1  0  0  0  0
 19 16  1  0  0  0  0
 20 21  1  0  0  0  0
 21 19  1  0  0  0  0
 22 21  2  0  0  0  0
 23 20  1  0  0  0  0
 23 24  1  0  0  0  0
 24 27  1  0  0  0  0
 26 27  2  0  0  0  0
 27 25  1  0  0  0  0
 28 29  1  0  0  0  0
 29 31  1  0  0  0  0
 30 33  1  0  0  0  0
 31 33  1  0  0  0  0
 32 29  1  0  0  0  0
 32 34  1  0  0  0  0
 33 37  1  0  0  0  0
 34 30  1  0  0  0  0
 35 36  1  0  0  0  0
 36 38  1  0  0  0  0
 37 35  1  0  0  0  0
 37 36  1  0  0  0  0
 38 40  1  0  0  0  0
 38 39  2  0  0  0  0
 40 42  1  0  0  0  0
 41 40  2  0  0  0  0
M  END
>  <MODEL>
6

>  <REMARK>
 VINA RESULT:      -7.1      3.202      7.407
  Name = 
  12 active torsions:
  status: ('A' for Active; 'I' for Inactive)
    1  A    between atoms: N_1  and  C_38
    2  A    between atoms: C_2  and  C_23
    3  A    between atoms: C_2  and  C_38
    4  A    between atoms: C_3  and  C_32
    5  A    between atoms: C_5  and  CA_30
    6  A    between atoms: C_6  and  CA_30
    7  A    between atoms: C_8  and  C_33
    8  A    between atoms: C_8  and  C_37
    9  A    between atoms: C_10  and  C_32
   10  A    between atoms: C_13  and  C_28
   11  A    between atoms: C_17  and  C_34
   12  A    between atoms: C_22  and  C_36
                            x       y       z     vdW  Elec       q    Type
                         _______ _______ _______ _____ _____    ______ ____

>  <TORSDO>
F 12

$$$$
=
 OpenBabel10222420423D

 42 48  0  0  1  0  0  0  0  0999 V2000
  182.7020  178.3690  140.3860 C   0  0  0  0  0  0  0  0  0  0  0  0
  181.7650  179.0030  141.0200 N   0  0  0  0  0  0  0  0  0  0  0  0
  180.7290  179.8220  138.9170 C   0  0  2  0  0  0  0  0  0  0  0  0
  181.3020  182.3650  137.8890 C   0  0  2  0  0  3  0  0  0  0  0  0
  180.9740  181.2240  137.0290 C   0  0  0  0  0  2  0  0  0  0  0  0
  180.6970  179.7870  140.3880 C   0  0  2  0  0  3  0  0  0  0  0  0
  181.2720  180.9450  139.6710 N   0  0  2  0  0  0  0  0  0  0  0  0
  180.4240  181.2360  138.4760 C   0  0  2  0  0  0  0  0  0  0  0  0
  182.7550  178.4290  138.9200 C   0  0  0  0  0  0  0  0  0  0  0  0
  181.8600  179.1170  138.2800 N   0  0  0  0  0  0  0  0  0  0  0  0
  181.0820  184.8440  137.1520 C   0  0  0  0  0  1  0  0  0  0  0  0
  179.2360  183.4510  137.5330 O   0  0  0  0  0  0  0  0  0  0  0  0
  180.4510  183.5500  137.5440 C   0  0  0  0  0  0  0  0  0  0  0  0
  183.8590  177.7560  138.1660 C   0  0  2  0  0  3  0  0  0  0  0  0
  185.0160  178.5380  138.1980 O   0  0  0  0  0  1  0  0  0  0  0  0
  184.1620  175.7220  135.6170 C   0  0  0  0  0  2  0  0  0  0  0  0
  184.6070  177.1580  135.8170 C   0  0  0  0  0  2  0  0  0  0  0  0
  183.4200  177.4040  136.7320 C   0  0  1  0  0  3  0  0  0  0  0  0
  182.9310  175.9680  136.4750 C   0  0  2  0  0  3  0  0  0  0  0  0
  181.6220  174.8870  138.4110 N   0  0  0  0  0  2  0  0  0  0  0  0
  182.8290  175.0120  137.6490 C   0  0  0  0  0  0  0  0  0  0  0  0
  183.8540  174.4090  138.0610 O   0  0  0  0  0  0  0  0  0  0  0  0
  180.4330  175.6920  138.1850 C   0  0  0  0  0  2  0  0  0  0  0  0
  179.2600  175.0740  138.9160 C   0  0  0  0  0  2  0  0  0  0  0  0
  179.3900  174.1020  141.2390 N   0  0  0  0  0  1  0  0  0  0  0  0
  179.6570  176.3800  140.8690 O   0  0  0  0  0  0  0  0  0  0  0  0
  179.4380  175.2370  140.3850 C   0  0  0  0  0  0  0  0  0  0  0  0
  183.7280  177.6100  141.1670 C   0  0  0  0  0  2  0  0  0  0  0  0
  184.2760  178.4370  142.3200 C   0  0  2  0  0  3  0  0  0  0  0  0
  184.8000  178.7140  145.1970 C   0  0  0  0  0  2  0  0  0  0  0  0
  185.3810  177.6430  143.0130 C   0  0  0  0  0  2  0  0  0  0  0  0
  183.1590  178.7560  143.3150 C   0  0  0  0  0  2  0  0  0  0  0  0
  185.9310  178.4130  144.2140 C   0  0  2  0  0  3  0  0  0  0  0  0
  183.7110  179.5290  144.5080 C   0  0  0  0  0  2  0  0  0  0  0  0
  187.7990  176.8300  143.8490 C   0  0  0  0  0  2  0  0  0  0  0  0
  188.3820  178.0800  144.4810 C   0  0  1  0  0  3  0  0  0  0  0  0
  187.0040  177.5820  144.8940 C   0  0  1  0  0  3  0  0  0  0  0  0
  189.4040  177.7060  145.5140 C   0  0  0  0  0  0  0  0  0  0  0  0
  189.0750  177.6980  146.7640 N   0  0  0  0  0  2  0  0  0  0  0  0
  190.8150  177.5280  145.1310 C   0  0  0  0  0  0  0  0  0  0  0  0
  191.7430  177.0750  146.0610 O   0  0  0  0  0  1  0  0  0  0  0  0
  191.1900  177.7780  143.9550 O   0  0  0  0  0  0  0  0  0  0  0  0
  1  2  2  0  0  0  0
  1 28  1  0  0  0  0
  3 10  1  6  0  0  0
  3  7  1  0  0  0  0
  3  6  1  0  0  0  0
  4 13  1  6  0  0  0
  4  8  1  0  0  0  0
  5  4  1  0  0  0  0
  5  8  1  0  0  0  0
  6  2  1  1  0  0  0
  7  6  1  0  0  0  0
  8  3  1  0  0  0  0
  8  7  1  0  0  0  0
  9  1  1  0  0  0  0
 10  9  2  0  0  0  0
 11 13  1  0  0  0  0
 12 13  2  0  0  0  0
 14 15  1  0  0  0  0
 14  9  1  0  0  0  0
 16 17  1  0  0  0  0
 16 19  1  0  0  0  0
 17 18  1  0  0  0  0
 18 14  1  0  0  0  0
 19 18  1  0  0  0  0
 19 21  1  0  0  0  0
 21 22  2  0  0  0  0
 21 20  1  0  0  0  0
 23 20  1  0  0  0  0
 23 24  1  0  0  0  0
 24 27  1  0  0  0  0
 27 26  2  0  0  0  0
 27 25  1  0  0  0  0
 28 29  1  0  0  0  0
 29 31  1  0  0  0  0
 29 32  1  0  0  0  0
 31 33  1  0  0  0  0
 32 34  1  0  0  0  0
 33 37  1  0  0  0  0
 33 30  1  0  0  0  0
 34 30  1  0  0  0  0
 35 36  1  0  0  0  0
 35 37  1  0  0  0  0
 36 37  1  0  0  0  0
 36 38  1  0  0  0  0
 38 39  2  0  0  0  0
 40 38  1  0  0  0  0
 40 41  1  0  0  0  0
 42 40  2  0  0  0  0
M  END
>  <MODEL>
7

>  <REMARK>
 VINA RESULT:      -7.0      4.625      8.563
  Name = 
  12 active torsions:
  status: ('A' for Active; 'I' for Inactive)
    1  A    between atoms: N_1  and  C_38
    2  A    between atoms: C_2  and  C_23
    3  A    between atoms: C_2  and  C_38
    4  A    between atoms: C_3  and  C_32
    5  A    between atoms: C_5  and  CA_30
    6  A    between atoms: C_6  and  CA_30
    7  A    between atoms: C_8  and  C_33
    8  A    between atoms: C_8  and  C_37
    9  A    between atoms: C_10  and  C_32
   10  A    between atoms: C_13  and  C_28
   11  A    between atoms: C_17  and  C_34
   12  A    between atoms: C_22  and  C_36
                            x       y       z     vdW  Elec       q    Type
                         _______ _______ _______ _____ _____    ______ ____

>  <TORSDO>
F 12

$$$$
=
 OpenBabel10222420423D

 42 48  0  0  1  0  0  0  0  0999 V2000
  186.5270  178.6220  140.0200 C   0  0  0  0  0  0  0  0  0  0  0  0
  185.7580  178.8570  141.0370 N   0  0  0  0  0  0  0  0  0  0  0  0
  183.6980  178.3240  139.7560 C   0  0  2  0  0  0  0  0  0  0  0  0
  182.1600  180.3280  138.5440 C   0  0  2  0  0  3  0  0  0  0  0  0
  182.2640  178.9740  137.9920 C   0  0  0  0  0  2  0  0  0  0  0  0
  184.2930  178.7460  141.0340 C   0  0  2  0  0  3  0  0  0  0  0  0
  183.7100  179.7380  140.1070 N   0  0  2  0  0  0  0  0  0  0  0  0
  182.4630  179.1640  139.5150 C   0  0  2  0  0  0  0  0  0  0  0  0
  185.9330  178.2320  138.7360 C   0  0  0  0  0  0  0  0  0  0  0  0
  184.6430  178.1280  138.6380 N   0  0  0  0  0  0  0  0  0  0  0  0
  179.8360  180.0830  139.6740 C   0  0  0  0  0  1  0  0  0  0  0  0
  180.2830  181.6480  137.9860 O   0  0  0  0  0  0  0  0  0  0  0  0
  180.7240  180.7390  138.6700 C   0  0  0  0  0  0  0  0  0  0  0  0
  186.7930  178.0120  137.5310 C   0  0  2  0  0  3  0  0  0  0  0  0
  187.3760  179.2130  137.1230 O   0  0  0  0  0  1  0  0  0  0  0  0
  186.9030  176.4160  134.6720 C   0  0  0  0  0  2  0  0  0  0  0  0
  186.4290  177.8130  135.0270 C   0  0  0  0  0  2  0  0  0  0  0  0
  186.0020  177.3230  136.4010 C   0  0  1  0  0  3  0  0  0  0  0  0
  186.4200  175.8940  136.0160 C   0  0  2  0  0  3  0  0  0  0  0  0
  187.4770  173.8130  137.1030 N   0  0  0  0  0  2  0  0  0  0  0  0
  187.5170  175.2150  136.8150 C   0  0  0  0  0  0  0  0  0  0  0  0
  188.4180  175.9060  137.3580 O   0  0  0  0  0  0  0  0  0  0  0  0
  186.3760  172.9390  136.7310 C   0  0  0  0  0  2  0  0  0  0  0  0
  185.3100  172.9870  137.8060 C   0  0  0  0  0  2  0  0  0  0  0  0
  183.3650  171.6370  136.9410 N   0  0  0  0  0  1  0  0  0  0  0  0
  183.3370  173.9590  136.8930 O   0  0  0  0  0  0  0  0  0  0  0  0
  183.9610  172.9040  137.1830 C   0  0  0  0  0  0  0  0  0  0  0  0
  188.0070  178.7790  140.1720 C   0  0  0  0  0  2  0  0  0  0  0  0
  188.5970  177.6900  141.0550 C   0  0  2  0  0  3  0  0  0  0  0  0
  190.7660  176.7610  142.8050 C   0  0  0  0  0  2  0  0  0  0  0  0
  188.7820  178.2460  142.4650 C   0  0  0  0  0  2  0  0  0  0  0  0
  189.9420  177.2280  140.4940 C   0  0  0  0  0  2  0  0  0  0  0  0
  189.4200  177.2020  143.3810 C   0  0  2  0  0  3  0  0  0  0  0  0
  190.5720  176.1820  141.4080 C   0  0  0  0  0  2  0  0  0  0  0  0
  188.2830  177.8870  145.4710 C   0  0  0  0  0  2  0  0  0  0  0  0
  189.2520  176.7740  145.8260 C   0  0  1  0  0  3  0  0  0  0  0  0
  189.6170  177.8000  144.7620 C   0  0  1  0  0  3  0  0  0  0  0  0
  189.9460  177.0900  147.1180 C   0  0  0  0  0  0  0  0  0  0  0  0
  189.3700  177.8620  147.9800 N   0  0  0  0  0  2  0  0  0  0  0  0
  191.3460  176.6820  147.3270 C   0  0  0  0  0  0  0  0  0  0  0  0
  191.9340  175.7390  146.4910 O   0  0  0  0  0  0  0  0  0  0  0  0
  192.0230  177.1900  148.2600 O   0  0  0  0  0  1  0  0  0  0  0  0
  1 28  1  0  0  0  0
  1  2  2  0  0  0  0
  3 10  1  6  0  0  0
  3  7  1  0  0  0  0
  3  6  1  0  0  0  0
  4 13  1  1  0  0  0
  4  8  1  0  0  0  0
  5  4  1  0  0  0  0
  5  8  1  0  0  0  0
  6  2  1  6  0  0  0
  7  6  1  0  0  0  0
  8  3  1  0  0  0  0
  8  7  1  0  0  0  0
  9  1  1  0  0  0  0
 10  9  2  0  0  0  0
 12 13  2  0  0  0  0
 13 11  1  0  0  0  0
 14  9  1  0  0  0  0
 15 14  1  0  0  0  0
 16 17  1  0  0  0  0
 16 19  1  0  0  0  0
 17 18  1  0  0  0  0
 18 14  1  0  0  0  0
 19 18  1  0  0  0  0
 19 21  1  0  0  0  0
 21 20  1  0  0  0  0
 21 22  2  0  0  0  0
 23 20  1  0  0  0  0
 23 24  1  0  0  0  0
 25 27  1  0  0  0  0
 26 27  2  0  0  0  0
 27 24  1  0  0  0  0
 28 29  1  0  0  0  0
 29 31  1  0  0  0  0
 30 33  1  0  0  0  0
 31 33  1  0  0  0  0
 32 29  1  0  0  0  0
 32 34  1  0  0  0  0
 33 37  1  0  0  0  0
 34 30  1  0  0  0  0
 35 36  1  0  0  0  0
 36 38  1  0  0  0  0
 37 35  1  0  0  0  0
 37 36  1  0  0  0  0
 38 40  1  0  0  0  0
 38 39  2  0  0  0  0
 40 42  1  0  0  0  0
 41 40  2  0  0  0  0
M  END
>  <MODEL>
8

>  <REMARK>
 VINA RESULT:      -6.9      3.123      7.519
  Name = 
  12 active torsions:
  status: ('A' for Active; 'I' for Inactive)
    1  A    between atoms: N_1  and  C_38
    2  A    between atoms: C_2  and  C_23
    3  A    between atoms: C_2  and  C_38
    4  A    between atoms: C_3  and  C_32
    5  A    between atoms: C_5  and  CA_30
    6  A    between atoms: C_6  and  CA_30
    7  A    between atoms: C_8  and  C_33
    8  A    between atoms: C_8  and  C_37
    9  A    between atoms: C_10  and  C_32
   10  A    between atoms: C_13  and  C_28
   11  A    between atoms: C_17  and  C_34
   12  A    between atoms: C_22  and  C_36
                            x       y       z     vdW  Elec       q    Type
                         _______ _______ _______ _____ _____    ______ ____

>  <TORSDO>
F 12

$$$$
=
 OpenBabel10222420423D

 42 48  0  0  1  0  0  0  0  0999 V2000
  190.0010  177.0820  138.9350 C   0  0  0  0  0  0  0  0  0  0  0  0
  191.2760  177.1520  139.1600 N   0  0  0  0  0  0  0  0  0  0  0  0
  191.8390  176.0940  136.9840 C   0  0  2  0  0  0  0  0  0  0  0  0
  192.3580  173.3490  136.7740 C   0  0  2  0  0  3  0  0  0  0  0  0
  191.7540  174.1210  135.6850 C   0  0  0  0  0  2  0  0  0  0  0  0
  192.3240  176.6790  138.2450 C   0  0  2  0  0  3  0  0  0  0  0  0
  192.2300  175.2140  138.0780 N   0  0  2  0  0  0  0  0  0  0  0  0
  192.6660  174.8620  136.6920 C   0  0  2  0  0  0  0  0  0  0  0  0
  189.5150  176.4700  137.6930 C   0  0  0  0  0  0  0  0  0  0  0  0
  190.3720  176.0070  136.8360 N   0  0  0  0  0  0  0  0  0  0  0  0
  193.3410  171.4760  135.2680 C   0  0  0  0  0  1  0  0  0  0  0  0
  194.6590  172.8310  136.6550 O   0  0  0  0  0  0  0  0  0  0  0  0
  193.5320  172.5600  136.2760 C   0  0  0  0  0  0  0  0  0  0  0  0
  188.0490  176.3220  137.4360 C   0  0  2  0  0  3  0  0  0  0  0  0
  187.7450  175.0040  137.0890 O   0  0  0  0  0  1  0  0  0  0  0  0
  186.1090  176.9030  134.8610 C   0  0  0  0  0  2  0  0  0  0  0  0
  187.6160  176.7700  134.9760 C   0  0  0  0  0  2  0  0  0  0  0  0
  187.5630  177.3380  136.3840 C   0  0  1  0  0  3  0  0  0  0  0  0
  186.0440  177.5370  136.2410 C   0  0  2  0  0  3  0  0  0  0  0  0
  184.5420  177.4400  138.3300 N   0  0  0  0  0  2  0  0  0  0  0  0
  185.1210  176.7950  137.1890 C   0  0  0  0  0  0  0  0  0  0  0  0
  184.9550  175.5540  137.0630 O   0  0  0  0  0  0  0  0  0  0  0  0
  184.8310  178.8100  138.7210 C   0  0  0  0  0  2  0  0  0  0  0  0
  183.8830  179.2290  139.8250 C   0  0  0  0  0  2  0  0  0  0  0  0
  183.8210  178.2860  142.1620 N   0  0  0  0  0  1  0  0  0  0  0  0
  185.6870  179.4200  141.3680 O   0  0  0  0  0  0  0  0  0  0  0  0
  184.5190  179.0000  141.1510 C   0  0  0  0  0  0  0  0  0  0  0  0
  189.0490  177.6050  139.9650 C   0  0  0  0  0  2  0  0  0  0  0  0
  189.3400  177.0240  141.3400 C   0  0  2  0  0  3  0  0  0  0  0  0
  190.3110  177.4100  144.0860 C   0  0  0  0  0  2  0  0  0  0  0  0
  188.5210  177.7860  142.3800 C   0  0  0  0  0  2  0  0  0  0  0  0
  190.8310  177.1460  141.6570 C   0  0  0  0  0  2  0  0  0  0  0  0
  188.8180  177.2710  143.7880 C   0  0  2  0  0  3  0  0  0  0  0  0
  191.1230  176.6260  143.0610 C   0  0  0  0  0  2  0  0  0  0  0  0
  186.5390  177.7590  144.6260 C   0  0  0  0  0  2  0  0  0  0  0  0
  187.3160  177.1280  145.7670 C   0  0  1  0  0  3  0  0  0  0  0  0
  188.0100  178.0720  144.7940 C   0  0  1  0  0  3  0  0  0  0  0  0
  187.0080  177.8370  147.0520 C   0  0  0  0  0  0  0  0  0  0  0  0
  187.6530  177.5210  148.1270 N   0  0  0  0  0  2  0  0  0  0  0  0
  185.8560  178.7510  147.1370 C   0  0  0  0  0  0  0  0  0  0  0  0
  184.5630  178.2680  146.9750 O   0  0  0  0  0  0  0  0  0  0  0  0
  186.0340  179.9770  147.3660 O   0  0  0  0  0  1  0  0  0  0  0  0
  1  2  2  0  0  0  0
  1 28  1  0  0  0  0
  3 10  1  6  0  0  0
  3  7  1  0  0  0  0
  3  6  1  0  0  0  0
  4 13  1  6  0  0  0
  5  8  1  0  0  0  0
  5  4  1  0  0  0  0
  6  2  1  1  0  0  0
  7  6  1  0  0  0  0
  8  4  1  0  0  0  0
  8  3  1  0  0  0  0
  8  7  1  0  0  0  0
  9  1  1  0  0  0  0
 10  9  2  0  0  0  0
 11 13  1  0  0  0  0
 13 12  2  0  0  0  0
 14  9  1  0  0  0  0
 15 14  1  0  0  0  0
 16 17  1  0  0  0  0
 16 19  1  0  0  0  0
 17 18  1  0  0  0  0
 18 14  1  0  0  0  0
 19 18  1  0  0  0  0
 19 21  1  0  0  0  0
 20 23  1  0  0  0  0
 21 20  1  0  0  0  0
 22 21  2  0  0  0  0
 23 24  1  0  0  0  0
 24 27  1  0  0  0  0
 27 26  2  0  0  0  0
 27 25  1  0  0  0  0
 28 29  1  0  0  0  0
 29 32  1  0  0  0  0
 29 31  1  0  0  0  0
 31 33  1  0  0  0  0
 32 34  1  0  0  0  0
 33 30  1  0  0  0  0
 33 37  1  0  0  0  0
 34 30  1  0  0  0  0
 35 37  1  0  0  0  0
 35 36  1  0  0  0  0
 36 38  1  0  0  0  0
 37 36  1  0  0  0  0
 38 40  1  0  0  0  0
 38 39  2  0  0  0  0
 40 42  1  0  0  0  0
 41 40  2  0  0  0  0
M  END
>  <MODEL>
9

>  <REMARK>
 VINA RESULT:      -6.9      2.201      8.558
  Name = 
  12 active torsions:
  status: ('A' for Active; 'I' for Inactive)
    1  A    between atoms: N_1  and  C_38
    2  A    between atoms: C_2  and  C_23
    3  A    between atoms: C_2  and  C_38
    4  A    between atoms: C_3  and  C_32
    5  A    between atoms: C_5  and  CA_30
    6  A    between atoms: C_6  and  CA_30
    7  A    between atoms: C_8  and  C_33
    8  A    between atoms: C_8  and  C_37
    9  A    between atoms: C_10  and  C_32
   10  A    between atoms: C_13  and  C_28
   11  A    between atoms: C_17  and  C_34
   12  A    between atoms: C_22  and  C_36
                            x       y       z     vdW  Elec       q    Type
                         _______ _______ _______ _____ _____    ______ ____

>  <TORSDO>
F 12

$$$$
