=
 OpenBabel10222415353D

 54 58  0  0  1  0  0  0  0  0999 V2000
  187.8370  178.4920  141.2140 O   0  0  0  0  0  0  0  0  0  0  0  0
  184.8810  179.0700  143.2200 C   0  0  1  0  0  3  0  0  0  0  0  0
  187.0630  178.0370  143.3840 N   0  0  0  0  0  0  0  0  0  0  0  0
  186.9170  178.5420  142.0720 C   0  0  0  0  0  0  0  0  0  0  0  0
  185.8490  178.3050  144.0680 C   0  0  0  0  0  0  0  0  0  0  0  0
  185.5760  177.9880  146.5780 O   0  0  0  0  0  0  0  0  0  0  0  0
  185.7090  178.1420  145.3570 C   0  0  0  0  0  0  0  0  0  0  0  0
  185.5930  179.1890  141.8390 C   0  0  1  0  0  3  0  0  0  0  0  0
  184.8770  178.5030  140.6740 C   0  0  0  0  0  2  0  0  0  0  0  0
  185.3190  179.0500  139.4350 O   0  0  0  0  0  0  0  0  0  0  0  0
  187.6950  178.7320  137.7810 N   0  0  0  0  0  0  0  0  0  0  0  0
  186.4900  178.2230  137.4050 C   0  0  0  0  0  0  0  0  0  0  0  0
  184.0950  177.0790  136.5760 C   0  0  0  0  0  3  0  0  0  0  0  0
  184.1460  177.7660  137.7890 C   0  0  0  0  0  3  0  0  0  0  0  0
  187.5180  177.3800  135.3760 C   0  0  0  0  0  3  0  0  0  0  0  0
  188.7350  177.9250  135.7880 C   0  0  0  0  0  3  0  0  0  0  0  0
  185.3390  178.3560  138.2140 C   0  0  0  0  0  0  0  0  0  0  0  0
  188.8050  178.6010  137.0060 C   0  0  0  0  0  3  0  0  0  0  0  0
  185.2050  176.9740  135.8020 N   0  0  0  0  0  0  0  0  0  0  0  0
  186.3880  177.5200  136.1830 C   0  0  0  0  0  0  0  0  0  0  0  0
  183.5170  178.3740  143.1990 C   0  0  0  0  0  2  0  0  0  0  0  0
  182.4610  179.2280  143.8800 C   0  0  0  0  0  2  0  0  0  0  0  0
  181.1760  179.2260  143.0700 C   0  0  0  0  0  2  0  0  0  0  0  0
  181.4330  178.7220  141.6590 C   0  0  0  0  0  2  0  0  0  0  0  0
  179.1930  176.6740  141.4200 O   0  0  0  0  0  0  0  0  0  0  0  0
  180.8570  181.7540  138.8080 O   0  0  0  0  0  0  0  0  0  0  0  0
  180.1950  178.2690  138.4160 C   0  0  0  0  0  0  0  0  0  0  0  0
  179.7640  177.1870  136.3400 N   0  0  0  0  0  0  0  0  0  0  0  0
  179.6400  177.4420  140.5280 C   0  0  0  0  0  0  0  0  0  0  0  0
  180.5310  179.3010  139.3950 C   0  0  0  0  0  0  0  0  0  0  0  0
  179.7490  177.2630  134.8920 C   0  0  0  0  0  1  0  0  0  0  0  0
  179.3950  175.9120  136.9840 C   0  0  0  0  0  2  0  0  0  0  0  0
  179.6730  177.1250  139.1100 C   0  0  0  0  0  0  0  0  0  0  0  0
  180.2230  178.3260  137.0880 C   0  0  0  0  0  3  0  0  0  0  0  0
  180.6990  180.5610  139.0940 C   0  0  0  0  0  0  0  0  0  0  0  0
  180.1840  178.8210  140.7870 C   0  0  2  0  0  3  0  0  0  0  0  0
  179.2530  176.0260  138.4870 C   0  0  0  0  0  3  0  0  0  0  0  0
  188.1690  177.2200  143.8620 C   0  0  0  0  0  2  0  0  0  0  0  0
  189.2240  178.1040  144.5070 C   0  0  0  0  0  2  0  0  0  0  0  0
  190.4820  177.3060  144.8090 C   0  0  1  0  0  3  0  0  0  0  0  0
  190.3070  176.5500  146.0400 N   0  0  0  0  0  2  0  0  0  0  0  0
  189.9300  177.5020  147.0690 C   0  0  0  0  0  2  0  0  0  0  0  0
  188.6760  177.0230  147.7690 C   0  0  0  0  0  2  0  0  0  0  0  0
  188.2500  178.0510  148.7960 C   0  0  0  0  0  1  0  0  0  0  0  0
  190.7320  176.3870  143.7100 N   0  0  0  0  0  2  0  0  0  0  0  0
  191.8060  176.9450  142.9000 C   0  0  0  0  0  2  0  0  0  0  0  0
  191.2780  177.4340  141.6320 N   0  0  0  0  0  2  0  0  0  0  0  0
  190.5190  176.3960  141.0700 N   0  0  0  0  0  2  0  0  0  0  0  0
  190.2790  176.7420  139.6760 C   0  0  0  0  0  2  0  0  0  0  0  0
  191.5480  176.5610  138.8500 C   0  0  0  0  0  2  0  0  0  0  0  0
  190.5060  174.6210  137.8590 N   0  0  0  0  0  0  0  0  0  0  0  0
  191.3330  175.5920  137.7310 C   0  0  0  0  0  3  0  0  0  0  0  0
  190.2980  173.6870  136.7820 C   0  0  0  0  0  2  0  0  0  0  0  0
  189.0680  173.0480  136.9350 O   0  0  0  0  0  1  0  0  0  0  0  0
  1  4  2  0  0  0  0
  2 21  1  6  0  0  0
  2  5  1  0  0  0  0
  3 38  1  0  0  0  0
  3  5  1  0  0  0  0
  4  3  1  0  0  0  0
  5  7  2  0  0  0  0
  7  6  2  0  0  0  0
  8  9  1  6  0  0  0
  8  4  1  0  0  0  0
  8  2  1  0  0  0  0
 10  9  1  0  0  0  0
 12 11  1  0  0  0  0
 12 17  1  0  0  0  0
 13 14  1  0  0  0  0
 14 17  2  0  0  0  0
 15 16  2  0  0  0  0
 15 20  1  0  0  0  0
 16 18  1  0  0  0  0
 17 10  1  0  0  0  0
 18 11  2  0  0  0  0
 19 20  1  0  0  0  0
 19 13  2  0  0  0  0
 20 12  2  0  0  0  0
 21 22  1  0  0  0  0
 23 22  1  0  0  0  0
 24 23  1  0  0  0  0
 26 35  2  0  0  0  0
 27 33  1  0  0  0  0
 27 30  1  0  0  0  0
 28 32  1  0  0  0  0
 28 34  1  0  0  0  0
 29 36  1  0  0  0  0
 29 25  2  0  0  0  0
 30 36  1  0  0  0  0
 31 28  1  0  0  0  0
 32 37  1  0  0  0  0
 33 29  1  0  0  0  0
 34 27  2  0  0  0  0
 35 30  2  0  0  0  0
 36 24  1  1  0  0  0
 37 33  2  0  0  0  0
 38 39  1  0  0  0  0
 40 39  1  6  0  0  0
 40 41  1  0  0  0  0
 41 42  1  0  0  0  0
 42 43  1  0  0  0  0
 43 44  1  0  0  0  0
 45 40  1  0  0  0  0
 46 45  1  0  0  0  0
 47 46  1  0  0  0  0
 48 47  1  0  0  0  0
 49 48  1  0  0  0  0
 50 49  1  0  0  0  0
 52 51  2  0  0  0  0
 52 50  1  0  0  0  0
 53 54  1  0  0  0  0
 53 51  1  0  0  0  0
M  END
>  <MODEL>
1

>  <REMARK>
 VINA RESULT:      -7.5      0.000      0.000
  Name = 
  22 active torsions:
  status: ('A' for Active; 'I' for Inactive)
    1  A    between atoms: C_1  and  C_12
    2  A    between atoms: N_2  and  C_17
    3  A    between atoms: N_2  and  C_46
    4  A    between atoms: O_5  and  C_23
    5  A    between atoms: O_5  and  C_36
    6  A    between atoms: C_7  and  C_15
    7  A    between atoms: C_7  and  N_21
    8  A    between atoms: C_8  and  C_35
    9  A    between atoms: C_12  and  N_30
   10  A    between atoms: C_15  and  C_17
   11  A    between atoms: C_17  and  N_30
   12  A    between atoms: C_19  and  N_47
   13  A    between atoms: C_19  and  C_52
   14  A    between atoms: C_23  and  C_53
   15  A    between atoms: N_24  and  C_41
   16  A    between atoms: N_26  and  C_46
   17  A    between atoms: N_26  and  N_47
   18  A    between atoms: C_28  and  C_34
   19  A    between atoms: C_28  and  C_40
   20  A    between atoms: C_34  and  C_35
   21  A    between atoms: C_40  and  C_49
   22  A    between atoms: C_44  and  C_52
                            x       y       z     vdW  Elec       q    Type
                         _______ _______ _______ _____ _____    ______ ____

>  <TORSDO>
F 22

$$$$
=
 OpenBabel10222415353D

 54 58  0  0  1  0  0  0  0  0999 V2000
  186.9580  178.6090  141.3060 O   0  0  0  0  0  0  0  0  0  0  0  0
  189.9740  176.8100  140.4340 C   0  0  1  0  0  3  0  0  0  0  0  0
  188.7680  177.5740  142.3870 N   0  0  0  0  0  0  0  0  0  0  0  0
  188.0600  178.0040  141.2420 C   0  0  0  0  0  0  0  0  0  0  0  0
  189.9290  176.9000  141.9280 C   0  0  0  0  0  0  0  0  0  0  0  0
  191.4500  175.5590  143.4650 O   0  0  0  0  0  0  0  0  0  0  0  0
  190.7100  176.2110  142.7170 C   0  0  0  0  0  0  0  0  0  0  0  0
  188.7200  177.6080  139.9640 C   0  0  1  0  0  3  0  0  0  0  0  0
  189.0150  178.8520  139.1250 C   0  0  0  0  0  2  0  0  0  0  0  0
  188.1280  178.9160  138.0120 O   0  0  0  0  0  0  0  0  0  0  0  0
  185.3130  179.2200  138.6950 N   0  0  0  0  0  0  0  0  0  0  0  0
  185.7800  178.1040  138.0700 C   0  0  0  0  0  0  0  0  0  0  0  0
  186.6120  175.8170  136.7250 C   0  0  0  0  0  3  0  0  0  0  0  0
  187.5410  176.8110  137.0320 C   0  0  0  0  0  3  0  0  0  0  0  0
  183.5300  177.1990  138.0810 C   0  0  0  0  0  3  0  0  0  0  0  0
  183.0890  178.3510  138.7330 C   0  0  0  0  0  3  0  0  0  0  0  0
  187.1410  177.9610  137.7170 C   0  0  0  0  0  0  0  0  0  0  0  0
  184.0040  179.3610  139.0310 C   0  0  0  0  0  3  0  0  0  0  0  0
  185.3110  175.9610  137.0860 N   0  0  0  0  0  0  0  0  0  0  0  0
  184.8770  177.0690  137.7400 C   0  0  0  0  0  0  0  0  0  0  0  0
  191.3160  177.3230  139.9050 C   0  0  0  0  0  2  0  0  0  0  0  0
  192.0130  176.2630  139.0690 C   0  0  0  0  0  2  0  0  0  0  0  0
  191.0730  175.7300  138.0010 C   0  0  0  0  0  2  0  0  0  0  0  0
  191.1500  176.5820  136.7450 C   0  0  0  0  0  2  0  0  0  0  0  0
  190.1520  174.1840  135.1560 O   0  0  0  0  0  0  0  0  0  0  0  0
  195.1440  177.3730  135.7100 O   0  0  0  0  0  0  0  0  0  0  0  0
  193.5890  174.1760  136.0250 C   0  0  0  0  0  0  0  0  0  0  0  0
  194.7480  172.0980  136.1170 N   0  0  0  0  0  0  0  0  0  0  0  0
  191.3370  174.4600  135.4810 C   0  0  0  0  0  0  0  0  0  0  0  0
  193.3270  175.6130  135.9730 C   0  0  0  0  0  0  0  0  0  0  0  0
  196.0110  171.3970  136.2390 C   0  0  0  0  0  1  0  0  0  0  0  0
  193.5060  171.3050  136.0260 C   0  0  0  0  0  2  0  0  0  0  0  0
  192.3680  173.4720  135.7480 C   0  0  0  0  0  0  0  0  0  0  0  0
  194.7440  173.5340  136.1800 C   0  0  0  0  0  3  0  0  0  0  0  0
  194.2600  176.5170  135.8380 C   0  0  0  0  0  0  0  0  0  0  0  0
  191.8780  175.8580  135.6150 C   0  0  2  0  0  3  0  0  0  0  0  0
  192.2890  172.1440  135.6980 C   0  0  0  0  0  3  0  0  0  0  0  0
  188.4620  177.9420  143.7630 C   0  0  0  0  0  2  0  0  0  0  0  0
  187.7220  176.8050  144.4490 C   0  0  0  0  0  2  0  0  0  0  0  0
  186.7810  177.3430  145.5150 C   0  0  1  0  0  3  0  0  0  0  0  0
  187.5320  178.1090  146.4990 N   0  0  0  0  0  2  0  0  0  0  0  0
  188.1310  177.1500  147.4110 C   0  0  0  0  0  2  0  0  0  0  0  0
  189.5000  177.6380  147.8320 C   0  0  0  0  0  2  0  0  0  0  0  0
  190.5620  176.7530  147.2120 C   0  0  0  0  0  1  0  0  0  0  0  0
  185.7970  178.2050  144.8820 N   0  0  0  0  0  2  0  0  0  0  0  0
  185.0810  178.9110  145.9360 C   0  0  0  0  0  2  0  0  0  0  0  0
  183.7020  179.1520  145.5340 N   0  0  0  0  0  2  0  0  0  0  0  0
  183.5120  178.5200  144.2970 N   0  0  0  0  0  2  0  0  0  0  0  0
  182.7050  179.4100  143.4740 C   0  0  0  0  0  2  0  0  0  0  0  0
  181.2650  178.9140  143.3980 C   0  0  0  0  0  2  0  0  0  0  0  0
  180.3380  179.7890  141.3470 N   0  0  0  0  0  0  0  0  0  0  0  0
  180.8120  178.7790  141.9790 C   0  0  0  0  0  3  0  0  0  0  0  0
  179.9020  179.6600  139.9800 C   0  0  0  0  0  2  0  0  0  0  0  0
  179.6830  178.3170  139.6740 O   0  0  0  0  0  1  0  0  0  0  0  0
  2 21  1  6  0  0  0
  2  5  1  0  0  0  0
  3 38  1  0  0  0  0
  4  1  2  0  0  0  0
  4  3  1  0  0  0  0
  5  3  1  0  0  0  0
  5  7  2  0  0  0  0
  7  6  2  0  0  0  0
  8  9  1  1  0  0  0
  8  2  1  0  0  0  0
  8  4  1  0  0  0  0
 10  9  1  0  0  0  0
 11 18  1  0  0  0  0
 12 11  2  0  0  0  0
 13 14  1  0  0  0  0
 13 19  2  0  0  0  0
 14 17  2  0  0  0  0
 15 16  1  0  0  0  0
 16 18  2  0  0  0  0
 17 10  1  0  0  0  0
 17 12  1  0  0  0  0
 19 20  1  0  0  0  0
 20 12  1  0  0  0  0
 20 15  2  0  0  0  0
 22 21  1  0  0  0  0
 23 22  1  0  0  0  0
 24 23  1  0  0  0  0
 25 29  2  0  0  0  0
 26 35  2  0  0  0  0
 27 34  2  0  0  0  0
 28 34  1  0  0  0  0
 28 31  1  0  0  0  0
 29 36  1  0  0  0  0
 29 33  1  0  0  0  0
 30 27  1  0  0  0  0
 32 28  1  0  0  0  0
 33 27  1  0  0  0  0
 35 30  2  0  0  0  0
 36 30  1  0  0  0  0
 36 24  1  1  0  0  0
 37 33  2  0  0  0  0
 37 32  1  0  0  0  0
 38 39  1  0  0  0  0
 40 39  1  6  0  0  0
 40 41  1  0  0  0  0
 41 42  1  0  0  0  0
 42 43  1  0  0  0  0
 44 43  1  0  0  0  0
 45 40  1  0  0  0  0
 45 46  1  0  0  0  0
 47 46  1  0  0  0  0
 48 47  1  0  0  0  0
 49 48  1  0  0  0  0
 50 49  1  0  0  0  0
 51 52  2  0  0  0  0
 52 50  1  0  0  0  0
 53 51  1  0  0  0  0
 54 53  1  0  0  0  0
M  END
>  <MODEL>
2

>  <REMARK>
 VINA RESULT:      -7.0      2.694      9.185
  Name = 
  22 active torsions:
  status: ('A' for Active; 'I' for Inactive)
    1  A    between atoms: C_1  and  C_12
    2  A    between atoms: N_2  and  C_17
    3  A    between atoms: N_2  and  C_46
    4  A    between atoms: O_5  and  C_23
    5  A    between atoms: O_5  and  C_36
    6  A    between atoms: C_7  and  C_15
    7  A    between atoms: C_7  and  N_21
    8  A    between atoms: C_8  and  C_35
    9  A    between atoms: C_12  and  N_30
   10  A    between atoms: C_15  and  C_17
   11  A    between atoms: C_17  and  N_30
   12  A    between atoms: C_19  and  N_47
   13  A    between atoms: C_19  and  C_52
   14  A    between atoms: C_23  and  C_53
   15  A    between atoms: N_24  and  C_41
   16  A    between atoms: N_26  and  C_46
   17  A    between atoms: N_26  and  N_47
   18  A    between atoms: C_28  and  C_34
   19  A    between atoms: C_28  and  C_40
   20  A    between atoms: C_34  and  C_35
   21  A    between atoms: C_40  and  C_49
   22  A    between atoms: C_44  and  C_52
                            x       y       z     vdW  Elec       q    Type
                         _______ _______ _______ _____ _____    ______ ____

>  <TORSDO>
F 22

$$$$
=
 OpenBabel10222415353D

 54 58  0  0  1  0  0  0  0  0999 V2000
  186.6100  178.6960  137.5750 O   0  0  0  0  0  0  0  0  0  0  0  0
  189.8350  177.8330  138.9730 C   0  0  1  0  0  3  0  0  0  0  0  0
  188.4790  177.3850  137.0200 N   0  0  0  0  0  0  0  0  0  0  0  0
  187.7410  178.2330  137.8780 C   0  0  0  0  0  0  0  0  0  0  0  0
  189.7070  177.1040  137.6720 C   0  0  0  0  0  0  0  0  0  0  0  0
  191.6510  175.9350  136.5180 O   0  0  0  0  0  0  0  0  0  0  0  0
  190.7060  176.5030  137.0790 C   0  0  0  0  0  0  0  0  0  0  0  0
  188.4690  178.5660  139.1370 C   0  0  1  0  0  3  0  0  0  0  0  0
  187.6380  178.1370  140.3470 C   0  0  0  0  0  2  0  0  0  0  0  0
  186.6350  179.1100  140.6240 O   0  0  0  0  0  0  0  0  0  0  0  0
  185.2540  179.4760  143.1620 N   0  0  0  0  0  0  0  0  0  0  0  0
  184.6140  178.9840  142.0650 C   0  0  0  0  0  0  0  0  0  0  0  0
  183.1920  178.0430  139.8680 C   0  0  0  0  0  3  0  0  0  0  0  0
  184.5440  178.3620  139.7280 C   0  0  0  0  0  3  0  0  0  0  0  0
  182.5810  178.8000  143.3750 C   0  0  0  0  0  3  0  0  0  0  0  0
  183.2710  179.2950  144.4820 C   0  0  0  0  0  3  0  0  0  0  0  0
  185.2750  178.8250  140.8260 C   0  0  0  0  0  0  0  0  0  0  0  0
  184.6190  179.6340  144.3530 C   0  0  0  0  0  3  0  0  0  0  0  0
  182.5760  178.1850  141.0690 N   0  0  0  0  0  0  0  0  0  0  0  0
  183.2450  178.6460  142.1580 C   0  0  0  0  0  0  0  0  0  0  0  0
  190.1990  176.8630  140.1000 C   0  0  0  0  0  2  0  0  0  0  0  0
  191.3750  177.3850  140.9090 C   0  0  0  0  0  2  0  0  0  0  0  0
  190.9270  177.7640  142.3100 C   0  0  0  0  0  2  0  0  0  0  0  0
  191.7340  177.0080  143.3530 C   0  0  0  0  0  2  0  0  0  0  0  0
  188.8220  176.2540  142.8790 O   0  0  0  0  0  0  0  0  0  0  0  0
  192.8690  175.8160  147.2180 O   0  0  0  0  0  0  0  0  0  0  0  0
  189.7040  177.1160  146.2040 C   0  0  0  0  0  0  0  0  0  0  0  0
  188.0030  177.8760  147.6850 N   0  0  0  0  0  0  0  0  0  0  0  0
  189.3950  176.4860  143.9770 C   0  0  0  0  0  0  0  0  0  0  0  0
  190.9820  176.6070  145.7080 C   0  0  0  0  0  0  0  0  0  0  0  0
  187.6150  178.2270  149.0370 C   0  0  0  0  0  1  0  0  0  0  0  0
  187.0100  178.0290  146.6030 C   0  0  0  0  0  2  0  0  0  0  0  0
  188.7420  177.0640  145.1390 C   0  0  0  0  0  0  0  0  0  0  0  0
  189.3620  177.4790  147.4360 C   0  0  0  0  0  3  0  0  0  0  0  0
  191.9520  176.2000  146.4830 C   0  0  0  0  0  0  0  0  0  0  0  0
  190.8380  176.1750  144.2660 C   0  0  2  0  0  3  0  0  0  0  0  0
  187.4720  177.4390  145.2870 C   0  0  0  0  0  3  0  0  0  0  0  0
  187.9770  176.7620  135.8030 C   0  0  0  0  0  2  0  0  0  0  0  0
  186.8820  175.7650  136.1470 C   0  0  0  0  0  2  0  0  0  0  0  0
  186.1600  175.3050  134.8910 C   0  0  1  0  0  3  0  0  0  0  0  0
  186.3590  173.8760  134.6990 N   0  0  0  0  0  2  0  0  0  0  0  0
  185.1720  173.2140  135.2070 C   0  0  0  0  0  2  0  0  0  0  0  0
  185.5620  172.2460  136.3040 C   0  0  0  0  0  2  0  0  0  0  0  0
  185.1940  172.8360  137.6500 C   0  0  0  0  0  1  0  0  0  0  0  0
  184.7400  175.5780  135.0380 N   0  0  0  0  0  2  0  0  0  0  0  0
  184.5620  176.3690  136.2490 C   0  0  0  0  0  2  0  0  0  0  0  0
  183.2050  176.2160  136.7550 N   0  0  0  0  0  2  0  0  0  0  0  0
  182.3330  176.3890  135.6700 N   0  0  0  0  0  2  0  0  0  0  0  0
  181.9620  177.7970  135.6330 C   0  0  0  0  0  2  0  0  0  0  0  0
  180.6230  178.0190  136.3270 C   0  0  0  0  0  2  0  0  0  0  0  0
  181.4370  180.0750  137.2980 N   0  0  0  0  0  0  0  0  0  0  0  0
  180.7490  179.0030  137.4470 C   0  0  0  0  0  3  0  0  0  0  0  0
  181.5580  181.0240  138.3750 C   0  0  0  0  0  2  0  0  0  0  0  0
  180.9400  182.2240  138.0250 O   0  0  0  0  0  1  0  0  0  0  0  0
  1  4  2  0  0  0  0
  2  8  1  0  0  0  0
  2 21  1  1  0  0  0
  3  5  1  0  0  0  0
  3  4  1  0  0  0  0
  4  8  1  0  0  0  0
  5  2  1  0  0  0  0
  6  7  2  0  0  0  0
  7  5  2  0  0  0  0
  8  9  1  1  0  0  0
  9 10  1  0  0  0  0
 10 17  1  0  0  0  0
 11 18  1  0  0  0  0
 12 20  1  0  0  0  0
 12 11  2  0  0  0  0
 13 19  2  0  0  0  0
 14 13  1  0  0  0  0
 14 17  2  0  0  0  0
 15 16  1  0  0  0  0
 17 12  1  0  0  0  0
 18 16  2  0  0  0  0
 19 20  1  0  0  0  0
 20 15  2  0  0  0  0
 21 22  1  0  0  0  0
 22 23  1  0  0  0  0
 23 24  1  0  0  0  0
 25 29  2  0  0  0  0
 27 34  2  0  0  0  0
 28 31  1  0  0  0  0
 29 36  1  0  0  0  0
 29 33  1  0  0  0  0
 30 27  1  0  0  0  0
 30 35  2  0  0  0  0
 32 28  1  0  0  0  0
 33 37  2  0  0  0  0
 33 27  1  0  0  0  0
 34 28  1  0  0  0  0
 35 26  2  0  0  0  0
 36 24  1  6  0  0  0
 36 30  1  0  0  0  0
 37 32  1  0  0  0  0
 38 39  1  0  0  0  0
 38  3  1  0  0  0  0
 40 45  1  0  0  0  0
 40 39  1  1  0  0  0
 41 40  1  0  0  0  0
 41 42  1  0  0  0  0
 42 43  1  0  0  0  0
 43 44  1  0  0  0  0
 45 46  1  0  0  0  0
 46 47  1  0  0  0  0
 48 47  1  0  0  0  0
 49 48  1  0  0  0  0
 49 50  1  0  0  0  0
 50 52  1  0  0  0  0
 51 52  2  0  0  0  0
 51 53  1  0  0  0  0
 54 53  1  0  0  0  0
M  END
>  <MODEL>
3

>  <REMARK>
 VINA RESULT:      -6.7      2.470     10.028
  Name = 
  22 active torsions:
  status: ('A' for Active; 'I' for Inactive)
    1  A    between atoms: C_1  and  C_12
    2  A    between atoms: N_2  and  C_17
    3  A    between atoms: N_2  and  C_46
    4  A    between atoms: O_5  and  C_23
    5  A    between atoms: O_5  and  C_36
    6  A    between atoms: C_7  and  C_15
    7  A    between atoms: C_7  and  N_21
    8  A    between atoms: C_8  and  C_35
    9  A    between atoms: C_12  and  N_30
   10  A    between atoms: C_15  and  C_17
   11  A    between atoms: C_17  and  N_30
   12  A    between atoms: C_19  and  N_47
   13  A    between atoms: C_19  and  C_52
   14  A    between atoms: C_23  and  C_53
   15  A    between atoms: N_24  and  C_41
   16  A    between atoms: N_26  and  C_46
   17  A    between atoms: N_26  and  N_47
   18  A    between atoms: C_28  and  C_34
   19  A    between atoms: C_28  and  C_40
   20  A    between atoms: C_34  and  C_35
   21  A    between atoms: C_40  and  C_49
   22  A    between atoms: C_44  and  C_52
                            x       y       z     vdW  Elec       q    Type
                         _______ _______ _______ _____ _____    ______ ____

>  <TORSDO>
F 22

$$$$
=
 OpenBabel10222415353D

 54 58  0  0  1  0  0  0  0  0999 V2000
  186.7620  178.4830  137.5390 O   0  0  0  0  0  0  0  0  0  0  0  0
  189.8360  177.7660  139.3080 C   0  0  1  0  0  3  0  0  0  0  0  0
  188.6300  177.0750  137.3270 N   0  0  0  0  0  0  0  0  0  0  0  0
  187.8510  178.0460  137.9960 C   0  0  0  0  0  0  0  0  0  0  0  0
  189.7930  176.8650  138.1120 C   0  0  0  0  0  0  0  0  0  0  0  0
  191.7890  175.5150  137.2950 O   0  0  0  0  0  0  0  0  0  0  0  0
  190.8180  176.1720  137.6920 C   0  0  0  0  0  0  0  0  0  0  0  0
  188.4830  178.5380  139.2540 C   0  0  1  0  0  3  0  0  0  0  0  0
  187.5450  178.2950  140.4370 C   0  0  0  0  0  2  0  0  0  0  0  0
  186.4340  179.1840  140.3740 O   0  0  0  0  0  0  0  0  0  0  0  0
  185.0780  179.5920  142.9190 N   0  0  0  0  0  0  0  0  0  0  0  0
  184.4530  179.0000  141.8640 C   0  0  0  0  0  0  0  0  0  0  0  0
  183.0590  177.8500  139.7510 C   0  0  0  0  0  3  0  0  0  0  0  0
  184.3830  178.2500  139.5650 C   0  0  0  0  0  3  0  0  0  0  0  0
  182.4620  178.7520  143.2260 C   0  0  0  0  0  3  0  0  0  0  0  0
  183.1370  179.3510  144.2900 C   0  0  0  0  0  3  0  0  0  0  0  0
  185.1010  178.8190  140.6200 C   0  0  0  0  0  0  0  0  0  0  0  0
  184.4560  179.7710  144.1140 C   0  0  0  0  0  3  0  0  0  0  0  0
  182.4570  178.0150  140.9560 N   0  0  0  0  0  0  0  0  0  0  0  0
  183.1130  178.5770  142.0040 C   0  0  0  0  0  0  0  0  0  0  0  0
  190.0800  176.9540  140.5830 C   0  0  0  0  0  2  0  0  0  0  0  0
  191.5490  176.9800  140.9720 C   0  0  0  0  0  2  0  0  0  0  0  0
  191.6980  177.2440  142.4600 C   0  0  0  0  0  2  0  0  0  0  0  0
  190.4010  177.7820  143.0410 C   0  0  0  0  0  2  0  0  0  0  0  0
  187.4910  176.8880  143.1100 O   0  0  0  0  0  0  0  0  0  0  0  0
  192.4070  176.2470  146.3980 O   0  0  0  0  0  0  0  0  0  0  0  0
  189.0440  177.4320  146.2500 C   0  0  0  0  0  0  0  0  0  0  0  0
  187.6800  177.9060  148.1420 N   0  0  0  0  0  0  0  0  0  0  0  0
  188.2800  177.0350  144.0800 C   0  0  0  0  0  0  0  0  0  0  0  0
  190.2030  177.0710  145.4340 C   0  0  0  0  0  0  0  0  0  0  0  0
  187.5840  178.0770  149.5780 C   0  0  0  0  0  1  0  0  0  0  0  0
  186.4680  178.1100  147.3240 C   0  0  0  0  0  2  0  0  0  0  0  0
  187.8750  177.4340  145.4170 C   0  0  0  0  0  0  0  0  0  0  0  0
  188.9670  177.6320  147.5620 C   0  0  0  0  0  3  0  0  0  0  0  0
  191.3350  176.6480  145.9290 C   0  0  0  0  0  0  0  0  0  0  0  0
  189.7630  176.7930  144.0140 C   0  0  2  0  0  3  0  0  0  0  0  0
  186.6540  177.7030  145.8780 C   0  0  0  0  0  3  0  0  0  0  0  0
  188.2100  176.2990  136.1680 C   0  0  0  0  0  2  0  0  0  0  0  0
  187.2130  175.2340  136.5940 C   0  0  0  0  0  2  0  0  0  0  0  0
  187.8860  173.8750  136.6900 C   0  0  1  0  0  3  0  0  0  0  0  0
  186.9430  172.8880  137.1940 N   0  0  0  0  0  2  0  0  0  0  0  0
  185.6270  173.4990  137.1430 C   0  0  0  0  0  2  0  0  0  0  0  0
  184.5700  172.4180  137.0530 C   0  0  0  0  0  2  0  0  0  0  0  0
  184.8720  171.5160  135.8750 C   0  0  0  0  0  1  0  0  0  0  0  0
  188.3370  173.4790  135.3660 N   0  0  0  0  0  2  0  0  0  0  0  0
  189.3880  172.4850  135.5330 C   0  0  0  0  0  2  0  0  0  0  0  0
  190.6930  173.0880  135.2950 N   0  0  0  0  0  2  0  0  0  0  0  0
  191.6620  172.1330  135.6390 N   0  0  0  0  0  2  0  0  0  0  0  0
  192.9430  172.8210  135.7080 C   0  0  0  0  0  2  0  0  0  0  0  0
  194.0490  171.8580  136.1280 C   0  0  0  0  0  2  0  0  0  0  0  0
  195.5580  173.5750  136.9090 N   0  0  0  0  0  0  0  0  0  0  0  0
  194.9450  172.4760  137.1540 C   0  0  0  0  0  3  0  0  0  0  0  0
  196.4200  174.1700  137.8970 C   0  0  0  0  0  2  0  0  0  0  0  0
  196.0170  173.7860  139.1760 O   0  0  0  0  0  1  0  0  0  0  0  0
  1  4  2  0  0  0  0
  2 21  1  1  0  0  0
  3  4  1  0  0  0  0
  3  5  1  0  0  0  0
  4  8  1  0  0  0  0
  5  2  1  0  0  0  0
  6  7  2  0  0  0  0
  7  5  2  0  0  0  0
  8  2  1  0  0  0  0
  8  9  1  1  0  0  0
 10  9  1  0  0  0  0
 10 17  1  0  0  0  0
 11 18  1  0  0  0  0
 12 20  1  0  0  0  0
 12 11  2  0  0  0  0
 13 19  2  0  0  0  0
 14 13  1  0  0  0  0
 14 17  2  0  0  0  0
 15 16  1  0  0  0  0
 17 12  1  0  0  0  0
 18 16  2  0  0  0  0
 19 20  1  0  0  0  0
 20 15  2  0  0  0  0
 21 22  1  0  0  0  0
 22 23  1  0  0  0  0
 23 24  1  0  0  0  0
 25 29  2  0  0  0  0
 27 34  2  0  0  0  0
 28 31  1  0  0  0  0
 29 33  1  0  0  0  0
 30 35  2  0  0  0  0
 30 27  1  0  0  0  0
 32 28  1  0  0  0  0
 33 37  2  0  0  0  0
 33 27  1  0  0  0  0
 34 28  1  0  0  0  0
 35 26  2  0  0  0  0
 36 24  1  6  0  0  0
 36 29  1  0  0  0  0
 36 30  1  0  0  0  0
 37 32  1  0  0  0  0
 38 39  1  0  0  0  0
 38  3  1  0  0  0  0
 40 39  1  6  0  0  0
 40 41  1  0  0  0  0
 42 41  1  0  0  0  0
 43 42  1  0  0  0  0
 44 43  1  0  0  0  0
 45 46  1  0  0  0  0
 45 40  1  0  0  0  0
 47 46  1  0  0  0  0
 47 48  1  0  0  0  0
 48 49  1  0  0  0  0
 49 50  1  0  0  0  0
 50 52  1  0  0  0  0
 51 52  2  0  0  0  0
 51 53  1  0  0  0  0
 53 54  1  0  0  0  0
M  END
>  <MODEL>
4

>  <REMARK>
 VINA RESULT:      -6.7      3.076      9.117
  Name = 
  22 active torsions:
  status: ('A' for Active; 'I' for Inactive)
    1  A    between atoms: C_1  and  C_12
    2  A    between atoms: N_2  and  C_17
    3  A    between atoms: N_2  and  C_46
    4  A    between atoms: O_5  and  C_23
    5  A    between atoms: O_5  and  C_36
    6  A    between atoms: C_7  and  C_15
    7  A    between atoms: C_7  and  N_21
    8  A    between atoms: C_8  and  C_35
    9  A    between atoms: C_12  and  N_30
   10  A    between atoms: C_15  and  C_17
   11  A    between atoms: C_17  and  N_30
   12  A    between atoms: C_19  and  N_47
   13  A    between atoms: C_19  and  C_52
   14  A    between atoms: C_23  and  C_53
   15  A    between atoms: N_24  and  C_41
   16  A    between atoms: N_26  and  C_46
   17  A    between atoms: N_26  and  N_47
   18  A    between atoms: C_28  and  C_34
   19  A    between atoms: C_28  and  C_40
   20  A    between atoms: C_34  and  C_35
   21  A    between atoms: C_40  and  C_49
   22  A    between atoms: C_44  and  C_52
                            x       y       z     vdW  Elec       q    Type
                         _______ _______ _______ _____ _____    ______ ____

>  <TORSDO>
F 22

$$$$
=
 OpenBabel10222415353D

 54 58  0  0  1  0  0  0  0  0999 V2000
  187.0660  178.6940  137.3930 O   0  0  0  0  0  0  0  0  0  0  0  0
  190.2090  177.7360  138.9090 C   0  0  1  0  0  3  0  0  0  0  0  0
  188.8770  177.2670  136.9450 N   0  0  0  0  0  0  0  0  0  0  0  0
  188.1650  178.1890  137.7440 C   0  0  0  0  0  0  0  0  0  0  0  0
  190.0740  176.9550  137.6390 C   0  0  0  0  0  0  0  0  0  0  0  0
  191.9810  175.6390  136.5870 O   0  0  0  0  0  0  0  0  0  0  0  0
  191.0540  176.2790  137.0990 C   0  0  0  0  0  0  0  0  0  0  0  0
  188.8790  178.5430  139.0050 C   0  0  1  0  0  3  0  0  0  0  0  0
  188.0000  178.2130  140.2120 C   0  0  0  0  0  2  0  0  0  0  0  0
  186.8280  179.0220  140.2020 O   0  0  0  0  0  0  0  0  0  0  0  0
  184.0770  179.3040  139.2900 N   0  0  0  0  0  0  0  0  0  0  0  0
  184.3720  178.9750  140.5780 C   0  0  0  0  0  0  0  0  0  0  0  0
  184.8590  178.2260  143.2110 C   0  0  0  0  0  3  0  0  0  0  0  0
  185.9330  178.4280  142.3420 C   0  0  0  0  0  3  0  0  0  0  0  0
  181.9980  178.9140  141.0700 C   0  0  0  0  0  3  0  0  0  0  0  0
  181.7320  179.2640  139.7460 C   0  0  0  0  0  3  0  0  0  0  0  0
  185.7050  178.8160  141.0200 C   0  0  0  0  0  0  0  0  0  0  0  0
  182.7950  179.4540  138.8620 C   0  0  0  0  0  3  0  0  0  0  0  0
  183.5850  178.4000  142.7760 N   0  0  0  0  0  0  0  0  0  0  0  0
  183.3180  178.7620  141.4950 C   0  0  0  0  0  0  0  0  0  0  0  0
  190.4970  176.8010  140.0870 C   0  0  0  0  0  2  0  0  0  0  0  0
  191.5840  177.3730  140.9820 C   0  0  0  0  0  2  0  0  0  0  0  0
  191.0070  177.7630  142.3320 C   0  0  0  0  0  2  0  0  0  0  0  0
  191.7870  177.1060  143.4580 C   0  0  0  0  0  2  0  0  0  0  0  0
  188.8810  176.3580  142.9440 O   0  0  0  0  0  0  0  0  0  0  0  0
  192.9060  175.7880  147.2880 O   0  0  0  0  0  0  0  0  0  0  0  0
  189.7420  177.1100  146.3000 C   0  0  0  0  0  0  0  0  0  0  0  0
  188.0300  177.8150  147.7970 N   0  0  0  0  0  0  0  0  0  0  0  0
  189.4470  176.5550  144.0520 C   0  0  0  0  0  0  0  0  0  0  0  0
  191.0240  176.6230  145.7950 C   0  0  0  0  0  0  0  0  0  0  0  0
  187.6330  178.1190  149.1570 C   0  0  0  0  0  1  0  0  0  0  0  0
  187.0430  178.0000  146.7150 C   0  0  0  0  0  2  0  0  0  0  0  0
  188.7850  177.0910  145.2290 C   0  0  0  0  0  0  0  0  0  0  0  0
  189.3920  177.4310  147.5420 C   0  0  0  0  0  3  0  0  0  0  0  0
  191.9910  176.1940  146.5610 C   0  0  0  0  0  0  0  0  0  0  0  0
  190.8900  176.2390  144.3380 C   0  0  2  0  0  3  0  0  0  0  0  0
  187.5140  177.4570  145.3830 C   0  0  0  0  0  3  0  0  0  0  0  0
  188.3720  176.6160  135.7440 C   0  0  0  0  0  2  0  0  0  0  0  0
  187.4880  175.4400  136.1280 C   0  0  0  0  0  2  0  0  0  0  0  0
  186.4790  175.1450  135.0310 C   0  0  1  0  0  3  0  0  0  0  0  0
  186.0250  173.7660  135.1300 N   0  0  0  0  0  2  0  0  0  0  0  0
  186.8130  173.1380  136.1760 C   0  0  0  0  0  2  0  0  0  0  0  0
  185.9000  172.6770  137.2910 C   0  0  0  0  0  2  0  0  0  0  0  0
  184.5080  172.4480  136.7390 C   0  0  0  0  0  1  0  0  0  0  0  0
  185.3430  176.0390  135.1840 N   0  0  0  0  0  2  0  0  0  0  0  0
  185.0700  176.1700  136.6090 C   0  0  0  0  0  2  0  0  0  0  0  0
  183.7810  176.8170  136.8170 N   0  0  0  0  0  2  0  0  0  0  0  0
  182.9410  176.4190  135.7660 N   0  0  0  0  0  2  0  0  0  0  0  0
  182.1280  177.5700  135.4020 C   0  0  0  0  0  2  0  0  0  0  0  0
  180.8610  177.6240  136.2490 C   0  0  0  0  0  2  0  0  0  0  0  0
  180.3480  176.1650  138.1050 N   0  0  0  0  0  0  0  0  0  0  0  0
  180.5500  176.2870  136.8440 C   0  0  0  0  0  3  0  0  0  0  0  0
  180.0480  174.8790  138.6780 C   0  0  0  0  0  2  0  0  0  0  0  0
  180.2330  174.9170  140.0600 O   0  0  0  0  0  1  0  0  0  0  0  0
  1  4  2  0  0  0  0
  2  8  1  0  0  0  0
  2 21  1  1  0  0  0
  3  5  1  0  0  0  0
  3  4  1  0  0  0  0
  4  8  1  0  0  0  0
  5  2  1  0  0  0  0
  6  7  2  0  0  0  0
  7  5  2  0  0  0  0
  8  9  1  1  0  0  0
 10  9  1  0  0  0  0
 10 17  1  0  0  0  0
 11 12  1  0  0  0  0
 12 17  2  0  0  0  0
 12 20  1  0  0  0  0
 14 13  2  0  0  0  0
 15 20  1  0  0  0  0
 16 15  2  0  0  0  0
 17 14  1  0  0  0  0
 18 11  2  0  0  0  0
 18 16  1  0  0  0  0
 19 13  1  0  0  0  0
 20 19  2  0  0  0  0
 21 22  1  0  0  0  0
 22 23  1  0  0  0  0
 23 24  1  0  0  0  0
 25 29  2  0  0  0  0
 27 34  2  0  0  0  0
 28 31  1  0  0  0  0
 29 36  1  0  0  0  0
 29 33  1  0  0  0  0
 30 27  1  0  0  0  0
 30 35  2  0  0  0  0
 32 28  1  0  0  0  0
 33 37  2  0  0  0  0
 33 27  1  0  0  0  0
 34 28  1  0  0  0  0
 35 26  2  0  0  0  0
 36 24  1  6  0  0  0
 36 30  1  0  0  0  0
 37 32  1  0  0  0  0
 38 39  1  0  0  0  0
 38  3  1  0  0  0  0
 40 41  1  0  0  0  0
 40 45  1  0  0  0  0
 40 39  1  1  0  0  0
 41 42  1  0  0  0  0
 42 43  1  0  0  0  0
 44 43  1  0  0  0  0
 45 46  1  0  0  0  0
 46 47  1  0  0  0  0
 48 47  1  0  0  0  0
 49 48  1  0  0  0  0
 49 50  1  0  0  0  0
 50 52  1  0  0  0  0
 51 53  1  0  0  0  0
 52 51  2  0  0  0  0
 53 54  1  0  0  0  0
M  END
>  <MODEL>
5

>  <REMARK>
 VINA RESULT:      -6.6      2.420      9.854
  Name = 
  22 active torsions:
  status: ('A' for Active; 'I' for Inactive)
    1  A    between atoms: C_1  and  C_12
    2  A    between atoms: N_2  and  C_17
    3  A    between atoms: N_2  and  C_46
    4  A    between atoms: O_5  and  C_23
    5  A    between atoms: O_5  and  C_36
    6  A    between atoms: C_7  and  C_15
    7  A    between atoms: C_7  and  N_21
    8  A    between atoms: C_8  and  C_35
    9  A    between atoms: C_12  and  N_30
   10  A    between atoms: C_15  and  C_17
   11  A    between atoms: C_17  and  N_30
   12  A    between atoms: C_19  and  N_47
   13  A    between atoms: C_19  and  C_52
   14  A    between atoms: C_23  and  C_53
   15  A    between atoms: N_24  and  C_41
   16  A    between atoms: N_26  and  C_46
   17  A    between atoms: N_26  and  N_47
   18  A    between atoms: C_28  and  C_34
   19  A    between atoms: C_28  and  C_40
   20  A    between atoms: C_34  and  C_35
   21  A    between atoms: C_40  and  C_49
   22  A    between atoms: C_44  and  C_52
                            x       y       z     vdW  Elec       q    Type
                         _______ _______ _______ _____ _____    ______ ____

>  <TORSDO>
F 22

$$$$
=
 OpenBabel10222415353D

 54 58  0  0  1  0  0  0  0  0999 V2000
  185.1540  179.0390  141.7380 O   0  0  0  0  0  0  0  0  0  0  0  0
  187.9360  178.3130  139.5400 C   0  0  1  0  0  3  0  0  0  0  0  0
  185.5230  178.4860  139.4860 N   0  0  0  0  0  0  0  0  0  0  0  0
  185.9470  178.7230  140.8130 C   0  0  0  0  0  0  0  0  0  0  0  0
  186.6850  178.2000  138.7240 C   0  0  0  0  0  0  0  0  0  0  0  0
  186.6720  178.0440  136.1840 O   0  0  0  0  0  0  0  0  0  0  0  0
  186.6780  178.1200  137.4190 C   0  0  0  0  0  0  0  0  0  0  0  0
  187.4260  178.6220  140.9800 C   0  0  1  0  0  3  0  0  0  0  0  0
  187.7600  177.5640  142.0320 C   0  0  0  0  0  2  0  0  0  0  0  0
  188.5550  178.1330  143.0670 O   0  0  0  0  0  0  0  0  0  0  0  0
  188.8320  177.9750  145.9620 N   0  0  0  0  0  0  0  0  0  0  0  0
  189.7520  177.4220  145.1260 C   0  0  0  0  0  0  0  0  0  0  0  0
  191.6510  176.1900  143.5100 C   0  0  0  0  0  3  0  0  0  0  0  0
  190.5670  176.8440  142.9230 C   0  0  0  0  0  3  0  0  0  0  0  0
  191.0180  176.6870  147.0600 C   0  0  0  0  0  3  0  0  0  0  0  0
  190.0620  177.2760  147.8870 C   0  0  0  0  0  3  0  0  0  0  0  0
  189.6110  177.4770  143.7200 C   0  0  0  0  0  0  0  0  0  0  0  0
  188.9640  177.9190  147.3140 C   0  0  0  0  0  3  0  0  0  0  0  0
  191.7820  176.1600  144.8610 N   0  0  0  0  0  0  0  0  0  0  0  0
  190.8680  176.7500  145.6740 C   0  0  0  0  0  0  0  0  0  0  0  0
  188.7840  177.0460  139.4000 C   0  0  0  0  0  2  0  0  0  0  0  0
  190.1540  177.3700  138.8280 C   0  0  0  0  0  2  0  0  0  0  0  0
  190.1040  177.3800  137.3100 C   0  0  0  0  0  2  0  0  0  0  0  0
  191.2890  176.6260  136.7290 C   0  0  0  0  0  2  0  0  0  0  0  0
  193.7970  176.2890  138.4230 O   0  0  0  0  0  0  0  0  0  0  0  0
  189.1480  173.0110  136.6770 O   0  0  0  0  0  0  0  0  0  0  0  0
  192.6940  173.4200  136.6550 C   0  0  0  0  0  0  0  0  0  0  0  0
  194.2630  171.6990  136.1600 N   0  0  0  0  0  0  0  0  0  0  0  0
  193.1550  175.4010  137.8010 C   0  0  0  0  0  0  0  0  0  0  0  0
  191.4280  174.1280  136.8390 C   0  0  0  0  0  0  0  0  0  0  0  0
  194.5030  170.3570  135.6700 C   0  0  0  0  0  1  0  0  0  0  0  0
  195.4220  172.5270  136.5500 C   0  0  0  0  0  2  0  0  0  0  0  0
  193.7510  174.2090  137.2210 C   0  0  0  0  0  0  0  0  0  0  0  0
  192.9170  172.2040  136.1640 C   0  0  0  0  0  3  0  0  0  0  0  0
  190.2570  173.5540  136.7560 C   0  0  0  0  0  0  0  0  0  0  0  0
  191.6660  175.4200  137.5870 C   0  0  2  0  0  3  0  0  0  0  0  0
  195.0250  173.8190  137.2320 C   0  0  0  0  0  3  0  0  0  0  0  0
  184.1400  178.3580  139.0460 C   0  0  0  0  0  2  0  0  0  0  0  0
  183.4640  179.7190  139.0650 C   0  0  0  0  0  2  0  0  0  0  0  0
  182.2440  179.7260  138.1580 C   0  0  1  0  0  3  0  0  0  0  0  0
  182.0240  178.3950  137.6120 N   0  0  0  0  0  2  0  0  0  0  0  0
  180.8410  178.4750  136.7740 C   0  0  0  0  0  2  0  0  0  0  0  0
  180.1370  177.1350  136.7630 C   0  0  0  0  0  2  0  0  0  0  0  0
  179.7380  176.7650  138.1760 C   0  0  0  0  0  1  0  0  0  0  0  0
  181.0820  180.1260  138.9360 N   0  0  0  0  0  2  0  0  0  0  0  0
  181.2110  179.5380  140.2620 C   0  0  0  0  0  2  0  0  0  0  0  0
  180.3980  180.2750  141.2210 N   0  0  0  0  0  2  0  0  0  0  0  0
  180.3340  179.5050  142.3910 N   0  0  0  0  0  2  0  0  0  0  0  0
  181.6720  178.9890  142.6440 C   0  0  0  0  0  2  0  0  0  0  0  0
  181.9390  178.8970  144.1420 C   0  0  0  0  0  2  0  0  0  0  0  0
  184.0730  178.5300  145.2130 N   0  0  0  0  0  0  0  0  0  0  0  0
  183.3480  179.2800  144.4670 C   0  0  0  0  0  3  0  0  0  0  0  0
  185.4290  178.8980  145.5250 C   0  0  0  0  0  2  0  0  0  0  0  0
  185.5100  179.3500  146.8420 O   0  0  0  0  0  1  0  0  0  0  0  0
  2 21  1  1  0  0  0
  2  8  1  0  0  0  0
  3  4  1  0  0  0  0
  4  8  1  0  0  0  0
  4  1  2  0  0  0  0
  5  3  1  0  0  0  0
  5  2  1  0  0  0  0
  6  7  2  0  0  0  0
  7  5  2  0  0  0  0
  8  9  1  1  0  0  0
  9 10  1  0  0  0  0
 10 17  1  0  0  0  0
 11 18  1  0  0  0  0
 12 20  1  0  0  0  0
 12 11  2  0  0  0  0
 13 19  2  0  0  0  0
 14 13  1  0  0  0  0
 14 17  2  0  0  0  0
 15 16  1  0  0  0  0
 17 12  1  0  0  0  0
 18 16  2  0  0  0  0
 19 20  1  0  0  0  0
 20 15  2  0  0  0  0
 22 21  1  0  0  0  0
 23 22  1  0  0  0  0
 24 23  1  0  0  0  0
 26 35  2  0  0  0  0
 27 30  1  0  0  0  0
 27 33  1  0  0  0  0
 28 34  1  0  0  0  0
 28 32  1  0  0  0  0
 29 25  2  0  0  0  0
 30 36  1  0  0  0  0
 31 28  1  0  0  0  0
 32 37  1  0  0  0  0
 33 37  2  0  0  0  0
 33 29  1  0  0  0  0
 34 27  2  0  0  0  0
 35 30  2  0  0  0  0
 36 24  1  6  0  0  0
 36 29  1  0  0  0  0
 38 39  1  0  0  0  0
 38  3  1  0  0  0  0
 40 45  1  0  0  0  0
 40 39  1  1  0  0  0
 41 40  1  0  0  0  0
 42 41  1  0  0  0  0
 43 42  1  0  0  0  0
 43 44  1  0  0  0  0
 45 46  1  0  0  0  0
 46 47  1  0  0  0  0
 47 48  1  0  0  0  0
 48 49  1  0  0  0  0
 49 50  1  0  0  0  0
 50 52  1  0  0  0  0
 51 53  1  0  0  0  0
 52 51  2  0  0  0  0
 53 54  1  0  0  0  0
M  END
>  <MODEL>
6

>  <REMARK>
 VINA RESULT:      -6.5      2.604     10.949
  Name = 
  22 active torsions:
  status: ('A' for Active; 'I' for Inactive)
    1  A    between atoms: C_1  and  C_12
    2  A    between atoms: N_2  and  C_17
    3  A    between atoms: N_2  and  C_46
    4  A    between atoms: O_5  and  C_23
    5  A    between atoms: O_5  and  C_36
    6  A    between atoms: C_7  and  C_15
    7  A    between atoms: C_7  and  N_21
    8  A    between atoms: C_8  and  C_35
    9  A    between atoms: C_12  and  N_30
   10  A    between atoms: C_15  and  C_17
   11  A    between atoms: C_17  and  N_30
   12  A    between atoms: C_19  and  N_47
   13  A    between atoms: C_19  and  C_52
   14  A    between atoms: C_23  and  C_53
   15  A    between atoms: N_24  and  C_41
   16  A    between atoms: N_26  and  C_46
   17  A    between atoms: N_26  and  N_47
   18  A    between atoms: C_28  and  C_34
   19  A    between atoms: C_28  and  C_40
   20  A    between atoms: C_34  and  C_35
   21  A    between atoms: C_40  and  C_49
   22  A    between atoms: C_44  and  C_52
                            x       y       z     vdW  Elec       q    Type
                         _______ _______ _______ _____ _____    ______ ____

>  <TORSDO>
F 22

$$$$
=
 OpenBabel10222415353D

 54 58  0  0  1  0  0  0  0  0999 V2000
  182.0360  178.6840  144.0410 O   0  0  0  0  0  0  0  0  0  0  0  0
  182.9380  178.5320  140.5400 C   0  0  1  0  0  3  0  0  0  0  0  0
  183.9490  178.9310  142.7010 N   0  0  0  0  0  0  0  0  0  0  0  0
  182.5660  178.7190  142.9000 C   0  0  0  0  0  0  0  0  0  0  0  0
  184.1820  178.8650  141.3040 C   0  0  0  0  0  0  0  0  0  0  0  0
  186.5160  178.7930  140.2910 O   0  0  0  0  0  0  0  0  0  0  0  0
  185.3810  178.8280  140.7840 C   0  0  0  0  0  0  0  0  0  0  0  0
  181.8230  178.4820  141.6280 C   0  0  1  0  0  3  0  0  0  0  0  0
  180.7120  179.5210  141.4730 C   0  0  0  0  0  2  0  0  0  0  0  0
  179.4860  178.8820  141.1280 O   0  0  0  0  0  0  0  0  0  0  0  0
  179.3020  175.9810  141.3140 N   0  0  0  0  0  0  0  0  0  0  0  0
  179.2400  176.6250  140.1170 C   0  0  0  0  0  0  0  0  0  0  0  0
  179.0230  177.8420  137.6260 C   0  0  0  0  0  3  0  0  0  0  0  0
  179.1850  178.6310  138.7660 C   0  0  0  0  0  3  0  0  0  0  0  0
  179.0070  174.4780  139.0130 C   0  0  0  0  0  3  0  0  0  0  0  0
  179.0880  173.8500  140.2570 C   0  0  0  0  0  3  0  0  0  0  0  0
  179.3070  178.0340  140.0230 C   0  0  0  0  0  0  0  0  0  0  0  0
  179.2330  174.6260  141.4070 C   0  0  0  0  0  3  0  0  0  0  0  0
  178.9770  176.4900  137.7300 N   0  0  0  0  0  0  0  0  0  0  0  0
  179.0770  175.8690  138.9340 C   0  0  0  0  0  0  0  0  0  0  0  0
  182.7120  179.5440  139.4130 C   0  0  0  0  0  2  0  0  0  0  0  0
  183.3290  179.0570  138.1130 C   0  0  0  0  0  2  0  0  0  0  0  0
  183.2440  177.5430  138.0220 C   0  0  0  0  0  2  0  0  0  0  0  0
  184.5600  176.9610  137.5340 C   0  0  0  0  0  2  0  0  0  0  0  0
  183.1300  177.2840  134.8660 O   0  0  0  0  0  0  0  0  0  0  0  0
  185.4790  172.9060  138.1390 O   0  0  0  0  0  0  0  0  0  0  0  0
  182.5500  174.2490  136.6060 C   0  0  0  0  0  0  0  0  0  0  0  0
  180.5660  173.0180  136.1430 N   0  0  0  0  0  0  0  0  0  0  0  0
  183.1710  176.2650  135.6050 C   0  0  0  0  0  0  0  0  0  0  0  0
  183.8850  174.5900  137.0930 C   0  0  0  0  0  0  0  0  0  0  0  0
  179.8060  171.7960  136.3170 C   0  0  0  0  0  1  0  0  0  0  0  0
  179.9610  174.1200  135.3680 C   0  0  0  0  0  2  0  0  0  0  0  0
  182.1040  175.2850  135.7160 C   0  0  0  0  0  0  0  0  0  0  0  0
  181.8360  173.1450  136.8030 C   0  0  0  0  0  3  0  0  0  0  0  0
  184.7040  173.7250  137.6300 C   0  0  0  0  0  0  0  0  0  0  0  0
  184.3440  175.8890  136.4690 C   0  0  2  0  0  3  0  0  0  0  0  0
  180.9300  175.2500  135.0890 C   0  0  0  0  0  3  0  0  0  0  0  0
  184.9000  179.3430  143.7240 C   0  0  0  0  0  2  0  0  0  0  0  0
  185.4540  178.1200  144.4380 C   0  0  0  0  0  2  0  0  0  0  0  0
  186.5140  178.5230  145.4500 C   0  0  1  0  0  3  0  0  0  0  0  0
  186.2740  177.8470  146.7160 N   0  0  0  0  0  2  0  0  0  0  0  0
  186.8330  178.6910  147.7570 C   0  0  0  0  0  2  0  0  0  0  0  0
  187.7610  177.8730  148.6290 C   0  0  0  0  0  2  0  0  0  0  0  0
  189.1960  178.1420  148.2250 C   0  0  0  0  0  1  0  0  0  0  0  0
  187.8210  178.1410  144.9400 N   0  0  0  0  0  2  0  0  0  0  0  0
  187.7410  176.7530  144.5080 C   0  0  0  0  0  2  0  0  0  0  0  0
  188.0880  176.6430  143.0970 N   0  0  0  0  0  2  0  0  0  0  0  0
  189.3580  176.0520  143.0250 N   0  0  0  0  0  2  0  0  0  0  0  0
  190.2950  177.0880  142.6130 C   0  0  0  0  0  2  0  0  0  0  0  0
  191.6900  176.7970  143.1540 C   0  0  0  0  0  2  0  0  0  0  0  0
  191.5920  176.8000  145.5670 N   0  0  0  0  0  0  0  0  0  0  0  0
  191.6250  176.1150  144.4840 C   0  0  0  0  0  3  0  0  0  0  0  0
  191.5280  176.1450  146.8480 C   0  0  0  0  0  2  0  0  0  0  0  0
  192.7830  176.1660  147.4580 O   0  0  0  0  0  1  0  0  0  0  0  0
  2 21  1  6  0  0  0
  2  5  1  0  0  0  0
  2  8  1  0  0  0  0
  3  4  1  0  0  0  0
  3 38  1  0  0  0  0
  4  1  2  0  0  0  0
  5  3  1  0  0  0  0
  6  7  2  0  0  0  0
  7  5  2  0  0  0  0
  8  9  1  6  0  0  0
  8  4  1  0  0  0  0
 10  9  1  0  0  0  0
 11 18  1  0  0  0  0
 12 11  2  0  0  0  0
 13 19  2  0  0  0  0
 13 14  1  0  0  0  0
 14 17  2  0  0  0  0
 15 16  1  0  0  0  0
 16 18  2  0  0  0  0
 17 12  1  0  0  0  0
 17 10  1  0  0  0  0
 19 20  1  0  0  0  0
 20 15  2  0  0  0  0
 20 12  1  0  0  0  0
 22 21  1  0  0  0  0
 23 22  1  0  0  0  0
 24 23  1  0  0  0  0
 25 29  2  0  0  0  0
 27 34  2  0  0  0  0
 27 30  1  0  0  0  0
 28 31  1  0  0  0  0
 28 34  1  0  0  0  0
 29 33  1  0  0  0  0
 29 36  1  0  0  0  0
 30 35  2  0  0  0  0
 32 28  1  0  0  0  0
 33 27  1  0  0  0  0
 35 26  2  0  0  0  0
 36 30  1  0  0  0  0
 36 24  1  1  0  0  0
 37 32  1  0  0  0  0
 37 33  2  0  0  0  0
 38 39  1  0  0  0  0
 40 39  1  6  0  0  0
 40 41  1  0  0  0  0
 41 42  1  0  0  0  0
 42 43  1  0  0  0  0
 44 43  1  0  0  0  0
 45 40  1  0  0  0  0
 46 45  1  0  0  0  0
 47 46  1  0  0  0  0
 48 47  1  0  0  0  0
 49 48  1  0  0  0  0
 49 50  1  0  0  0  0
 50 52  1  0  0  0  0
 51 53  1  0  0  0  0
 52 51  2  0  0  0  0
 53 54  1  0  0  0  0
M  END
>  <MODEL>
7

>  <REMARK>
 VINA RESULT:      -6.4      2.675      6.159
  Name = 
  22 active torsions:
  status: ('A' for Active; 'I' for Inactive)
    1  A    between atoms: C_1  and  C_12
    2  A    between atoms: N_2  and  C_17
    3  A    between atoms: N_2  and  C_46
    4  A    between atoms: O_5  and  C_23
    5  A    between atoms: O_5  and  C_36
    6  A    between atoms: C_7  and  C_15
    7  A    between atoms: C_7  and  N_21
    8  A    between atoms: C_8  and  C_35
    9  A    between atoms: C_12  and  N_30
   10  A    between atoms: C_15  and  C_17
   11  A    between atoms: C_17  and  N_30
   12  A    between atoms: C_19  and  N_47
   13  A    between atoms: C_19  and  C_52
   14  A    between atoms: C_23  and  C_53
   15  A    between atoms: N_24  and  C_41
   16  A    between atoms: N_26  and  C_46
   17  A    between atoms: N_26  and  N_47
   18  A    between atoms: C_28  and  C_34
   19  A    between atoms: C_28  and  C_40
   20  A    between atoms: C_34  and  C_35
   21  A    between atoms: C_40  and  C_49
   22  A    between atoms: C_44  and  C_52
                            x       y       z     vdW  Elec       q    Type
                         _______ _______ _______ _____ _____    ______ ____

>  <TORSDO>
F 22

$$$$
=
 OpenBabel10222415353D

 54 58  0  0  1  0  0  0  0  0999 V2000
  185.0590  179.3290  142.0560 O   0  0  0  0  0  0  0  0  0  0  0  0
  187.6990  178.4130  139.7560 C   0  0  1  0  0  3  0  0  0  0  0  0
  185.2880  178.6020  139.8340 N   0  0  0  0  0  0  0  0  0  0  0  0
  185.7930  178.9360  141.1110 C   0  0  0  0  0  0  0  0  0  0  0  0
  186.4000  178.2480  139.0290 C   0  0  0  0  0  0  0  0  0  0  0  0
  186.2320  177.8980  136.5140 O   0  0  0  0  0  0  0  0  0  0  0  0
  186.3140  178.0680  137.7370 C   0  0  0  0  0  0  0  0  0  0  0  0
  187.2790  178.8360  141.1970 C   0  0  1  0  0  3  0  0  0  0  0  0
  187.6720  177.8580  142.3050 C   0  0  0  0  0  2  0  0  0  0  0  0
  188.9830  178.1510  142.7770 O   0  0  0  0  0  0  0  0  0  0  0  0
  187.5360  178.1950  145.3050 N   0  0  0  0  0  0  0  0  0  0  0  0
  188.8180  177.7430  145.2230 C   0  0  0  0  0  0  0  0  0  0  0  0
  191.4060  176.7290  145.1570 C   0  0  0  0  0  3  0  0  0  0  0  0
  190.8120  177.1770  143.9770 C   0  0  0  0  0  3  0  0  0  0  0  0
  188.7820  177.3160  147.6100 C   0  0  0  0  0  3  0  0  0  0  0  0
  187.4730  177.7970  147.6590 C   0  0  0  0  0  3  0  0  0  0  0  0
  189.5160  177.7000  143.9950 C   0  0  0  0  0  0  0  0  0  0  0  0
  186.8610  178.2330  146.4840 C   0  0  0  0  0  3  0  0  0  0  0  0
  190.7280  176.7930  146.3320 N   0  0  0  0  0  0  0  0  0  0  0  0
  189.4620  177.2800  146.3930 C   0  0  0  0  0  0  0  0  0  0  0  0
  188.5330  177.1320  139.6640 C   0  0  0  0  0  2  0  0  0  0  0  0
  189.9420  177.4340  139.1830 C   0  0  0  0  0  2  0  0  0  0  0  0
  189.9330  177.7890  137.7060 C   0  0  0  0  0  2  0  0  0  0  0  0
  190.9340  176.9360  136.9440 C   0  0  0  0  0  2  0  0  0  0  0  0
  193.5630  177.0570  138.4770 O   0  0  0  0  0  0  0  0  0  0  0  0
  189.3500  173.0540  137.2020 O   0  0  0  0  0  0  0  0  0  0  0  0
  192.7890  173.9670  136.9200 C   0  0  0  0  0  0  0  0  0  0  0  0
  194.5610  172.4650  136.3980 N   0  0  0  0  0  0  0  0  0  0  0  0
  193.0230  176.0530  137.9410 C   0  0  0  0  0  0  0  0  0  0  0  0
  191.4460  174.4940  137.1570 C   0  0  0  0  0  0  0  0  0  0  0  0
  194.9660  171.1460  135.9540 C   0  0  0  0  0  1  0  0  0  0  0  0
  195.6070  173.4710  136.6700 C   0  0  0  0  0  2  0  0  0  0  0  0
  193.7510  174.9300  137.3770 C   0  0  0  0  0  0  0  0  0  0  0  0
  193.1580  172.7710  136.4710 C   0  0  0  0  0  3  0  0  0  0  0  0
  190.3690  173.7540  137.1800 C   0  0  0  0  0  0  0  0  0  0  0  0
  191.5370  175.8470  137.8280 C   0  0  2  0  0  3  0  0  0  0  0  0
  195.0670  174.7280  137.3180 C   0  0  0  0  0  3  0  0  0  0  0  0
  183.8810  178.4520  139.4900 C   0  0  0  0  0  2  0  0  0  0  0  0
  183.2590  177.3440  140.3250 C   0  0  0  0  0  2  0  0  0  0  0  0
  181.7490  177.5010  140.3870 C   0  0  1  0  0  3  0  0  0  0  0  0
  181.3970  178.9130  140.4240 N   0  0  0  0  0  2  0  0  0  0  0  0
  181.0750  179.2310  141.8030 C   0  0  0  0  0  2  0  0  0  0  0  0
  180.0730  178.2280  142.3330 C   0  0  0  0  0  2  0  0  0  0  0  0
  179.9630  178.3740  143.8370 C   0  0  0  0  0  1  0  0  0  0  0  0
  181.1640  176.8890  139.2050 N   0  0  0  0  0  2  0  0  0  0  0  0
  180.9760  175.4730  139.4850 C   0  0  0  0  0  2  0  0  0  0  0  0
  180.6400  174.7570  138.2610 N   0  0  0  0  0  2  0  0  0  0  0  0
  181.4530  175.2740  137.2410 N   0  0  0  0  0  2  0  0  0  0  0  0
  181.5970  174.2330  136.2330 C   0  0  0  0  0  2  0  0  0  0  0  0
  182.1240  172.9470  136.8600 C   0  0  0  0  0  2  0  0  0  0  0  0
  184.3940  173.3120  137.6000 N   0  0  0  0  0  0  0  0  0  0  0  0
  183.6070  172.8360  136.7060 C   0  0  0  0  0  3  0  0  0  0  0  0
  185.8220  173.2040  137.4520 C   0  0  0  0  0  2  0  0  0  0  0  0
  186.3700  174.4590  137.1840 O   0  0  0  0  0  1  0  0  0  0  0  0
  2 21  1  1  0  0  0
  2  8  1  0  0  0  0
  3  4  1  0  0  0  0
  4  8  1  0  0  0  0
  4  1  2  0  0  0  0
  5  2  1  0  0  0  0
  5  3  1  0  0  0  0
  6  7  2  0  0  0  0
  7  5  2  0  0  0  0
  8  9  1  1  0  0  0
  9 10  1  0  0  0  0
 10 17  1  0  0  0  0
 11 18  1  0  0  0  0
 12 11  2  0  0  0  0
 12 20  1  0  0  0  0
 13 19  2  0  0  0  0
 14 17  2  0  0  0  0
 14 13  1  0  0  0  0
 15 16  1  0  0  0  0
 17 12  1  0  0  0  0
 18 16  2  0  0  0  0
 19 20  1  0  0  0  0
 20 15  2  0  0  0  0
 22 21  1  0  0  0  0
 23 22  1  0  0  0  0
 24 23  1  0  0  0  0
 27 30  1  0  0  0  0
 27 33  1  0  0  0  0
 28 34  1  0  0  0  0
 28 32  1  0  0  0  0
 29 25  2  0  0  0  0
 30 35  2  0  0  0  0
 30 36  1  0  0  0  0
 31 28  1  0  0  0  0
 32 37  1  0  0  0  0
 33 29  1  0  0  0  0
 34 27  2  0  0  0  0
 35 26  2  0  0  0  0
 36 24  1  6  0  0  0
 36 29  1  0  0  0  0
 37 33  2  0  0  0  0
 38  3  1  0  0  0  0
 38 39  1  0  0  0  0
 40 39  1  6  0  0  0
 40 41  1  0  0  0  0
 41 42  1  0  0  0  0
 42 43  1  0  0  0  0
 43 44  1  0  0  0  0
 45 46  1  0  0  0  0
 45 40  1  0  0  0  0
 47 46  1  0  0  0  0
 48 47  1  0  0  0  0
 49 50  1  0  0  0  0
 49 48  1  0  0  0  0
 52 50  1  0  0  0  0
 52 51  2  0  0  0  0
 53 51  1  0  0  0  0
 54 53  1  0  0  0  0
M  END
>  <MODEL>
8

>  <REMARK>
 VINA RESULT:      -6.3      2.646     10.252
  Name = 
  22 active torsions:
  status: ('A' for Active; 'I' for Inactive)
    1  A    between atoms: C_1  and  C_12
    2  A    between atoms: N_2  and  C_17
    3  A    between atoms: N_2  and  C_46
    4  A    between atoms: O_5  and  C_23
    5  A    between atoms: O_5  and  C_36
    6  A    between atoms: C_7  and  C_15
    7  A    between atoms: C_7  and  N_21
    8  A    between atoms: C_8  and  C_35
    9  A    between atoms: C_12  and  N_30
   10  A    between atoms: C_15  and  C_17
   11  A    between atoms: C_17  and  N_30
   12  A    between atoms: C_19  and  N_47
   13  A    between atoms: C_19  and  C_52
   14  A    between atoms: C_23  and  C_53
   15  A    between atoms: N_24  and  C_41
   16  A    between atoms: N_26  and  C_46
   17  A    between atoms: N_26  and  N_47
   18  A    between atoms: C_28  and  C_34
   19  A    between atoms: C_28  and  C_40
   20  A    between atoms: C_34  and  C_35
   21  A    between atoms: C_40  and  C_49
   22  A    between atoms: C_44  and  C_52
                            x       y       z     vdW  Elec       q    Type
                         _______ _______ _______ _____ _____    ______ ____

>  <TORSDO>
F 22

$$$$
=
 OpenBabel10222415353D

 54 58  0  0  1  0  0  0  0  0999 V2000
  185.1760  178.8750  141.6550 O   0  0  0  0  0  0  0  0  0  0  0  0
  188.1700  178.2960  139.7070 C   0  0  1  0  0  3  0  0  0  0  0  0
  185.7750  178.4820  139.4180 N   0  0  0  0  0  0  0  0  0  0  0  0
  186.0600  178.6230  140.7960 C   0  0  0  0  0  0  0  0  0  0  0  0
  187.0090  178.2470  138.7610 C   0  0  0  0  0  0  0  0  0  0  0  0
  187.2570  178.2720  136.2290 O   0  0  0  0  0  0  0  0  0  0  0  0
  187.1360  178.2590  137.4600 C   0  0  0  0  0  0  0  0  0  0  0  0
  187.5150  178.5040  141.1060 C   0  0  1  0  0  3  0  0  0  0  0  0
  187.7420  177.3720  142.1080 C   0  0  0  0  0  2  0  0  0  0  0  0
  187.7980  177.8920  143.4330 O   0  0  0  0  0  0  0  0  0  0  0  0
  187.4190  178.0920  146.3140 N   0  0  0  0  0  0  0  0  0  0  0  0
  188.6040  177.6940  145.7750 C   0  0  0  0  0  0  0  0  0  0  0  0
  191.0430  176.7970  144.7840 C   0  0  0  0  0  3  0  0  0  0  0  0
  190.0130  177.1120  143.8970 C   0  0  0  0  0  3  0  0  0  0  0  0
  189.5100  177.4770  148.0150 C   0  0  0  0  0  3  0  0  0  0  0  0
  188.2850  177.9000  148.5320 C   0  0  0  0  0  3  0  0  0  0  0  0
  188.7860  177.5750  144.3780 C   0  0  0  0  0  0  0  0  0  0  0  0
  187.2410  178.2030  147.6570 C   0  0  0  0  0  3  0  0  0  0  0  0
  190.8590  176.9330  146.1220 N   0  0  0  0  0  0  0  0  0  0  0  0
  189.6780  177.3650  146.6340 C   0  0  0  0  0  0  0  0  0  0  0  0
  189.0320  177.0390  139.5650 C   0  0  0  0  0  2  0  0  0  0  0  0
  190.4890  177.4030  139.3330 C   0  0  0  0  0  2  0  0  0  0  0  0
  190.9210  176.9940  137.9350 C   0  0  0  0  0  2  0  0  0  0  0  0
  192.2790  176.3130  137.9710 C   0  0  0  0  0  2  0  0  0  0  0  0
  191.3090  173.6270  136.9150 O   0  0  0  0  0  0  0  0  0  0  0  0
  195.1840  177.8660  135.3640 O   0  0  0  0  0  0  0  0  0  0  0  0
  194.6950  174.4460  136.2590 C   0  0  0  0  0  0  0  0  0  0  0  0
  196.2410  172.6880  135.8280 N   0  0  0  0  0  0  0  0  0  0  0  0
  192.4210  174.1830  136.7160 C   0  0  0  0  0  0  0  0  0  0  0  0
  194.1050  175.7810  136.3420 C   0  0  0  0  0  0  0  0  0  0  0  0
  197.5680  172.2940  135.3970 C   0  0  0  0  0  1  0  0  0  0  0  0
  195.2970  171.6370  136.2550 C   0  0  0  0  0  2  0  0  0  0  0  0
  193.6710  173.4710  136.5110 C   0  0  0  0  0  0  0  0  0  0  0  0
  195.9270  174.0890  135.9060 C   0  0  0  0  0  3  0  0  0  0  0  0
  194.6590  176.8520  135.8400 C   0  0  0  0  0  0  0  0  0  0  0  0
  192.6240  175.6710  136.6300 C   0  0  2  0  0  3  0  0  0  0  0  0
  193.8930  172.1580  136.4810 C   0  0  0  0  0  3  0  0  0  0  0  0
  184.4450  178.3920  138.8320 C   0  0  0  0  0  2  0  0  0  0  0  0
  183.7020  179.7040  139.0280 C   0  0  0  0  0  2  0  0  0  0  0  0
  182.4120  179.4800  139.8000 C   0  0  1  0  0  3  0  0  0  0  0  0
  181.3740  180.3700  139.3000 N   0  0  0  0  0  2  0  0  0  0  0  0
  181.9790  181.1770  138.2560 C   0  0  0  0  0  2  0  0  0  0  0  0
  180.9650  181.4320  137.1610 C   0  0  0  0  0  2  0  0  0  0  0  0
  179.6950  181.9890  137.7720 C   0  0  0  0  0  1  0  0  0  0  0  0
  181.9910  178.1000  139.6220 N   0  0  0  0  0  2  0  0  0  0  0  0
  180.5640  178.1050  139.3310 C   0  0  0  0  0  2  0  0  0  0  0  0
  179.8110  177.6600  140.4960 N   0  0  0  0  0  2  0  0  0  0  0  0
  180.5060  178.0960  141.6330 N   0  0  0  0  0  2  0  0  0  0  0  0
  179.5290  178.2640  142.7000 C   0  0  0  0  0  2  0  0  0  0  0  0
  180.2190  178.3080  144.0590 C   0  0  0  0  0  2  0  0  0  0  0  0
  182.5590  178.5550  144.6090 N   0  0  0  0  0  0  0  0  0  0  0  0
  181.5400  179.0060  143.9740 C   0  0  0  0  0  3  0  0  0  0  0  0
  183.8300  179.2260  144.5270 C   0  0  0  0  0  2  0  0  0  0  0  0
  184.3660  179.3910  145.8050 O   0  0  0  0  0  1  0  0  0  0  0  0
  2 21  1  1  0  0  0
  2  8  1  0  0  0  0
  3  4  1  0  0  0  0
  4  8  1  0  0  0  0
  4  1  2  0  0  0  0
  5  3  1  0  0  0  0
  5  2  1  0  0  0  0
  6  7  2  0  0  0  0
  7  5  2  0  0  0  0
  8  9  1  1  0  0  0
  9 10  1  0  0  0  0
 10 17  1  0  0  0  0
 11 18  1  0  0  0  0
 12 11  2  0  0  0  0
 12 20  1  0  0  0  0
 13 19  2  0  0  0  0
 14 17  2  0  0  0  0
 14 13  1  0  0  0  0
 15 16  1  0  0  0  0
 17 12  1  0  0  0  0
 18 16  2  0  0  0  0
 19 20  1  0  0  0  0
 20 15  2  0  0  0  0
 22 21  1  0  0  0  0
 23 24  1  0  0  0  0
 23 22  1  0  0  0  0
 26 35  2  0  0  0  0
 27 30  1  0  0  0  0
 27 33  1  0  0  0  0
 28 34  1  0  0  0  0
 28 32  1  0  0  0  0
 29 25  2  0  0  0  0
 30 36  1  0  0  0  0
 31 28  1  0  0  0  0
 32 37  1  0  0  0  0
 33 29  1  0  0  0  0
 34 27  2  0  0  0  0
 35 30  2  0  0  0  0
 36 29  1  0  0  0  0
 36 24  1  1  0  0  0
 37 33  2  0  0  0  0
 38 39  1  0  0  0  0
 38  3  1  0  0  0  0
 40 39  1  6  0  0  0
 41 40  1  0  0  0  0
 42 41  1  0  0  0  0
 43 44  1  0  0  0  0
 43 42  1  0  0  0  0
 45 40  1  0  0  0  0
 46 45  1  0  0  0  0
 46 47  1  0  0  0  0
 47 48  1  0  0  0  0
 48 49  1  0  0  0  0
 49 50  1  0  0  0  0
 52 50  1  0  0  0  0
 52 51  2  0  0  0  0
 53 51  1  0  0  0  0
 53 54  1  0  0  0  0
M  END
>  <MODEL>
9

>  <REMARK>
 VINA RESULT:      -6.1      3.063     11.411
  Name = 
  22 active torsions:
  status: ('A' for Active; 'I' for Inactive)
    1  A    between atoms: C_1  and  C_12
    2  A    between atoms: N_2  and  C_17
    3  A    between atoms: N_2  and  C_46
    4  A    between atoms: O_5  and  C_23
    5  A    between atoms: O_5  and  C_36
    6  A    between atoms: C_7  and  C_15
    7  A    between atoms: C_7  and  N_21
    8  A    between atoms: C_8  and  C_35
    9  A    between atoms: C_12  and  N_30
   10  A    between atoms: C_15  and  C_17
   11  A    between atoms: C_17  and  N_30
   12  A    between atoms: C_19  and  N_47
   13  A    between atoms: C_19  and  C_52
   14  A    between atoms: C_23  and  C_53
   15  A    between atoms: N_24  and  C_41
   16  A    between atoms: N_26  and  C_46
   17  A    between atoms: N_26  and  N_47
   18  A    between atoms: C_28  and  C_34
   19  A    between atoms: C_28  and  C_40
   20  A    between atoms: C_34  and  C_35
   21  A    between atoms: C_40  and  C_49
   22  A    between atoms: C_44  and  C_52
                            x       y       z     vdW  Elec       q    Type
                         _______ _______ _______ _____ _____    ______ ____

>  <TORSDO>
F 22

$$$$
