=
 OpenBabel10222418503D

 42 45  0  0  1  0  0  0  0  0999 V2000
  185.9730  178.2020  144.9730 C   0  0  0  0  0  0  0  0  0  0  0  0
  184.8540  178.6250  144.4160 C   0  0  0  0  0  3  0  0  0  0  0  0
  184.9250  178.3390  143.0010 C   0  0  0  0  0  0  0  0  0  0  0  0
  183.9370  178.5550  142.1890 N   0  0  0  0  0  0  0  0  0  0  0  0
  186.2300  177.7140  142.6350 C   0  0  2  0  0  3  0  0  0  0  0  0
  186.9190  177.5700  143.9920 C   0  0  0  0  0  2  0  0  0  0  0  0
  183.9890  178.2250  140.7710 C   0  0  0  0  0  2  0  0  0  0  0  0
  182.7650  178.7850  140.0590 C   0  0  0  0  0  2  0  0  0  0  0  0
  182.6790  180.8700  138.8970 F   0  0  0  0  0  0  0  0  0  0  0  0
  183.1390  179.5690  138.8070 C   0  0  0  0  0  0  0  0  0  0  0  0
  184.5150  179.5870  138.6840 F   0  0  0  0  0  0  0  0  0  0  0  0
  182.5950  178.9630  137.6890 F   0  0  0  0  0  0  0  0  0  0  0  0
  187.0340  178.6610  141.7550 C   0  0  0  0  0  2  0  0  0  0  0  0
  188.8000  177.7000  138.7170 C   0  0  0  0  0  2  0  0  0  0  0  0
  190.2790  176.9480  141.5830 C   0  0  0  0  0  2  0  0  0  0  0  0
  188.0870  177.9310  141.0700 N   0  0  0  0  0  0  0  0  0  0  0  0
  188.3500  178.6490  139.8310 C   0  0  0  0  0  2  0  0  0  0  0  0
  190.7950  177.0250  140.1490 C   0  0  0  0  0  2  0  0  0  0  0  0
  189.2860  178.0650  141.8880 C   0  0  0  0  0  2  0  0  0  0  0  0
  189.7150  176.5590  139.1760 C   0  0  2  0  0  3  0  0  0  0  0  0
  190.3390  175.9270  137.9790 C   0  0  0  0  0  3  0  0  0  0  0  0
  191.6160  175.8190  137.8920 N   0  0  0  0  0  0  0  0  0  0  0  0
  191.5190  173.0000  135.9800 C   0  0  0  0  0  2  0  0  0  0  0  0
  192.9830  172.9310  136.3470 C   0  0  0  0  0  2  0  0  0  0  0  0
  193.2320  174.1720  137.1800 C   0  0  2  0  0  3  0  0  0  0  0  0
  191.1790  174.4760  135.9070 C   0  0  0  0  0  2  0  0  0  0  0  0
  192.2240  175.2150  136.7350 C   0  0  1  0  0  3  0  0  0  0  0  0
  194.6780  174.6780  137.1230 C   0  0  1  0  0  3  0  0  0  0  0  0
  194.6950  176.0730  137.0730 O   0  0  0  0  0  1  0  0  0  0  0  0
  195.7350  174.0970  138.4980 P   0  0  0  0  0  0  0  0  0  0  0  0
  195.1860  172.6000  139.0650 O   0  0  0  0  0  1  0  0  0  0  0  0
  197.1670  173.9640  138.0340 O   0  0  0  0  0  0  0  0  0  0  0  0
  195.6640  175.2240  139.7580 O   0  0  0  0  0  1  0  0  0  0  0  0
  186.2230  178.3520  146.4400 C   0  0  0  0  0  2  0  0  0  0  0  0
  187.2530  177.3590  146.9580 C   0  0  0  0  0  2  0  0  0  0  0  0
  188.2910  178.0660  147.8140 C   0  0  0  0  0  2  0  0  0  0  0  0
  190.0140  176.3960  147.6210 O   0  0  0  0  0  0  0  0  0  0  0  0
  191.7620  176.4100  145.9270 C   0  0  0  0  0  2  0  0  0  0  0  0
  189.8260  178.0440  145.8430 C   0  0  0  0  0  2  0  0  0  0  0  0
  191.4000  176.2700  147.4150 C   0  0  0  0  0  2  0  0  0  0  0  0
  189.7010  177.7410  147.3450 C   0  0  1  0  0  3  0  0  0  0  0  0
  190.5830  176.9360  145.1040 C   0  0  0  0  0  2  0  0  0  0  0  0
  1 34  1  0  0  0  0
  2  1  2  0  0  0  0
  3  2  1  0  0  0  0
  4  3  2  0  0  0  0
  5 13  1  6  0  0  0
  5  3  1  0  0  0  0
  5  6  1  0  0  0  0
  6  1  1  0  0  0  0
  7  4  1  0  0  0  0
  8  7  1  0  0  0  0
 10  9  1  0  0  0  0
 10  8  1  0  0  0  0
 11 10  1  0  0  0  0
 12 10  1  0  0  0  0
 14 20  1  0  0  0  0
 14 17  1  0  0  0  0
 15 19  1  0  0  0  0
 16 13  1  0  0  0  0
 16 19  1  0  0  0  0
 17 16  1  0  0  0  0
 18 15  1  0  0  0  0
 20 21  1  6  0  0  0
 20 18  1  0  0  0  0
 22 21  2  0  0  0  0
 23 24  1  0  0  0  0
 24 25  1  0  0  0  0
 25 28  1  6  0  0  0
 26 23  1  0  0  0  0
 26 27  1  0  0  0  0
 27 25  1  0  0  0  0
 27 22  1  1  0  0  0
 28 29  1  1  0  0  0
 28 30  1  0  0  0  0
 30 31  1  0  0  0  0
 30 33  1  0  0  0  0
 32 30  2  0  0  0  0
 34 35  1  0  0  0  0
 35 36  1  0  0  0  0
 38 40  1  0  0  0  0
 39 41  1  0  0  0  0
 40 37  1  0  0  0  0
 41 37  1  0  0  0  0
 41 36  1  6  0  0  0
 42 39  1  0  0  0  0
 42 38  1  0  0  0  0
M  END
>  <MODEL>
1

>  <REMARK>
 VINA RESULT:      -9.0      0.000      0.000
  Name = 
  13 active torsions:
  status: ('A' for Active; 'I' for Inactive)
    1  A    between atoms: P_2  and  C_22
    2  A    between atoms: C_5  and  C_41
    3  A    between atoms: C_7  and  C_32
    4  A    between atoms: C_9  and  C_29
    5  A    between atoms: C_10  and  C_22
    6  A    between atoms: N_12  and  C_17
    7  A    between atoms: N_14  and  C_31
    8  A    between atoms: N_23  and  C_28
    9  A    between atoms: C_24  and  C_37
   10  A    between atoms: C_24  and  C_38
   11  A    between atoms: C_25  and  C_31
   12  A    between atoms: C_28  and  C_29
   13  A    between atoms: C_32  and  C_37
                            x       y       z     vdW  Elec       q    Type
                         _______ _______ _______ _____ _____    ______ ____

>  <TORSDO>
F 13

$$$$
=
 OpenBabel10222418503D

 42 45  0  0  1  0  0  0  0  0999 V2000
  185.1220  178.5480  145.1160 C   0  0  0  0  0  0  0  0  0  0  0  0
  185.7450  178.3620  146.2650 C   0  0  0  0  0  3  0  0  0  0  0  0
  187.1350  178.0870  145.9790 C   0  0  0  0  0  0  0  0  0  0  0  0
  188.0290  177.9460  146.9070 N   0  0  0  0  0  0  0  0  0  0  0  0
  187.3940  178.0610  144.5100 C   0  0  2  0  0  3  0  0  0  0  0  0
  186.0310  178.4330  143.9260 C   0  0  0  0  0  2  0  0  0  0  0  0
  189.4390  177.7160  146.6220 C   0  0  0  0  0  2  0  0  0  0  0  0
  189.8880  176.3970  147.2360 C   0  0  0  0  0  2  0  0  0  0  0  0
  192.0080  176.5830  146.1510 F   0  0  0  0  0  0  0  0  0  0  0  0
  191.4040  176.3120  147.3660 C   0  0  0  0  0  0  0  0  0  0  0  0
  191.8270  177.2430  148.2950 F   0  0  0  0  0  0  0  0  0  0  0  0
  191.7730  175.0500  147.7930 F   0  0  0  0  0  0  0  0  0  0  0  0
  187.7690  176.6520  144.0710 C   0  0  0  0  0  2  0  0  0  0  0  0
  188.9160  177.0640  140.6380 C   0  0  0  0  0  2  0  0  0  0  0  0
  191.2460  177.1370  142.9890 C   0  0  0  0  0  2  0  0  0  0  0  0
  188.8290  176.7040  143.0800 N   0  0  0  0  0  0  0  0  0  0  0  0
  188.3270  177.5130  141.9780 C   0  0  0  0  0  2  0  0  0  0  0  0
  191.2440  177.5810  141.5300 C   0  0  0  0  0  2  0  0  0  0  0  0
  189.9240  177.4570  143.6800 C   0  0  0  0  0  2  0  0  0  0  0  0
  190.3860  176.6350  140.6940 C   0  0  2  0  0  3  0  0  0  0  0  0
  190.9190  176.5500  139.3040 C   0  0  0  0  0  3  0  0  0  0  0  0
  191.1040  175.4080  138.7470 N   0  0  0  0  0  0  0  0  0  0  0  0
  191.1970  173.3390  136.0410 C   0  0  0  0  0  2  0  0  0  0  0  0
  192.6900  173.4680  136.2340 C   0  0  0  0  0  2  0  0  0  0  0  0
  192.8490  174.4240  137.3990 C   0  0  2  0  0  3  0  0  0  0  0  0
  190.6070  174.6650  136.4810 C   0  0  0  0  0  2  0  0  0  0  0  0
  191.6250  175.3200  137.4080 C   0  0  1  0  0  3  0  0  0  0  0  0
  194.1640  175.2120  137.3810 C   0  0  1  0  0  3  0  0  0  0  0  0
  193.9240  176.5500  137.6950 O   0  0  0  0  0  1  0  0  0  0  0  0
  195.4600  174.5420  138.4850 P   0  0  0  0  0  0  0  0  0  0  0  0
  195.1630  172.9080  138.8100 O   0  0  0  0  0  1  0  0  0  0  0  0
  196.8190  174.6870  137.8410 O   0  0  0  0  0  0  0  0  0  0  0  0
  195.4410  175.4060  139.9390 O   0  0  0  0  0  1  0  0  0  0  0  0
  183.6580  178.8520  145.0590 C   0  0  0  0  0  2  0  0  0  0  0  0
  183.1360  178.9230  143.6320 C   0  0  0  0  0  2  0  0  0  0  0  0
  181.6160  178.9070  143.6190 C   0  0  0  0  0  2  0  0  0  0  0  0
  182.0690  178.4750  141.2950 O   0  0  0  0  0  0  0  0  0  0  0  0
  180.3730  177.9080  139.6440 C   0  0  0  0  0  2  0  0  0  0  0  0
  179.8230  178.0360  142.1150 C   0  0  0  0  0  2  0  0  0  0  0  0
  181.5860  178.7790  140.0090 C   0  0  0  0  0  2  0  0  0  0  0  0
  181.0800  178.9160  142.1960 C   0  0  1  0  0  3  0  0  0  0  0  0
  179.8280  177.1550  140.8610 C   0  0  0  0  0  2  0  0  0  0  0  0
  1  2  2  0  0  0  0
  3  2  1  0  0  0  0
  3  4  2  0  0  0  0
  5 13  1  6  0  0  0
  5  3  1  0  0  0  0
  6  5  1  0  0  0  0
  6  1  1  0  0  0  0
  7  4  1  0  0  0  0
  7  8  1  0  0  0  0
  8 10  1  0  0  0  0
  9 10  1  0  0  0  0
 10 12  1  0  0  0  0
 10 11  1  0  0  0  0
 14 20  1  0  0  0  0
 14 17  1  0  0  0  0
 15 19  1  0  0  0  0
 16 19  1  0  0  0  0
 16 13  1  0  0  0  0
 17 16  1  0  0  0  0
 18 15  1  0  0  0  0
 20 21  1  6  0  0  0
 20 18  1  0  0  0  0
 22 21  2  0  0  0  0
 23 24  1  0  0  0  0
 23 26  1  0  0  0  0
 24 25  1  0  0  0  0
 25 28  1  6  0  0  0
 25 27  1  0  0  0  0
 26 27  1  0  0  0  0
 27 22  1  1  0  0  0
 28 29  1  1  0  0  0
 28 30  1  0  0  0  0
 30 31  1  0  0  0  0
 30 33  1  0  0  0  0
 32 30  2  0  0  0  0
 34  1  1  0  0  0  0
 35 34  1  0  0  0  0
 36 35  1  0  0  0  0
 37 41  1  0  0  0  0
 38 40  1  0  0  0  0
 38 42  1  0  0  0  0
 39 41  1  0  0  0  0
 40 37  1  0  0  0  0
 41 36  1  1  0  0  0
 42 39  1  0  0  0  0
M  END
>  <MODEL>
2

>  <REMARK>
 VINA RESULT:      -8.9      3.966      6.611
  Name = 
  13 active torsions:
  status: ('A' for Active; 'I' for Inactive)
    1  A    between atoms: P_2  and  C_22
    2  A    between atoms: C_5  and  C_41
    3  A    between atoms: C_7  and  C_32
    4  A    between atoms: C_9  and  C_29
    5  A    between atoms: C_10  and  C_22
    6  A    between atoms: N_12  and  C_17
    7  A    between atoms: N_14  and  C_31
    8  A    between atoms: N_23  and  C_28
    9  A    between atoms: C_24  and  C_37
   10  A    between atoms: C_24  and  C_38
   11  A    between atoms: C_25  and  C_31
   12  A    between atoms: C_28  and  C_29
   13  A    between atoms: C_32  and  C_37
                            x       y       z     vdW  Elec       q    Type
                         _______ _______ _______ _____ _____    ______ ____

>  <TORSDO>
F 13

$$$$
=
 OpenBabel10222418503D

 42 45  0  0  1  0  0  0  0  0999 V2000
  184.9970  178.4870  145.2720 C   0  0  0  0  0  0  0  0  0  0  0  0
  185.6590  178.3400  146.4040 C   0  0  0  0  0  3  0  0  0  0  0  0
  187.0460  178.0970  146.0820 C   0  0  0  0  0  0  0  0  0  0  0  0
  187.9720  177.9980  146.9850 N   0  0  0  0  0  0  0  0  0  0  0  0
  187.2630  178.0480  144.6070 C   0  0  2  0  0  3  0  0  0  0  0  0
  185.8730  178.3720  144.0570 C   0  0  0  0  0  2  0  0  0  0  0  0
  189.3780  177.7990  146.6620 C   0  0  0  0  0  2  0  0  0  0  0  0
  189.8870  176.5180  147.3080 C   0  0  0  0  0  2  0  0  0  0  0  0
  191.9330  176.9200  146.1430 F   0  0  0  0  0  0  0  0  0  0  0  0
  191.4100  176.4560  147.3360 C   0  0  0  0  0  0  0  0  0  0  0  0
  191.8710  177.2510  148.3670 F   0  0  0  0  0  0  0  0  0  0  0  0
  191.8270  175.1550  147.5490 F   0  0  0  0  0  0  0  0  0  0  0  0
  187.6620  176.6410  144.1830 C   0  0  0  0  0  2  0  0  0  0  0  0
  188.4890  177.7900  140.8270 C   0  0  0  0  0  2  0  0  0  0  0  0
  190.9500  176.4120  142.5610 C   0  0  0  0  0  2  0  0  0  0  0  0
  188.5580  176.7000  143.0410 N   0  0  0  0  0  0  0  0  0  0  0  0
  188.2440  177.9320  142.3310 C   0  0  0  0  0  2  0  0  0  0  0  0
  190.9380  177.2860  141.3100 C   0  0  0  0  0  2  0  0  0  0  0  0
  189.9040  176.8620  143.5760 C   0  0  0  0  0  2  0  0  0  0  0  0
  189.7190  176.9570  140.4520 C   0  0  2  0  0  3  0  0  0  0  0  0
  190.0320  177.1750  139.0100 C   0  0  0  0  0  3  0  0  0  0  0  0
  189.0890  177.2260  138.1400 N   0  0  0  0  0  0  0  0  0  0  0  0
  187.5790  177.6430  135.1140 C   0  0  0  0  0  2  0  0  0  0  0  0
  188.4080  176.4330  134.7490 C   0  0  0  0  0  2  0  0  0  0  0  0
  189.2120  176.1230  135.9960 C   0  0  2  0  0  3  0  0  0  0  0  0
  188.4000  178.4150  136.1290 C   0  0  0  0  0  2  0  0  0  0  0  0
  189.3860  177.4300  136.7470 C   0  0  1  0  0  3  0  0  0  0  0  0
  190.5430  175.4150  135.7170 C   0  0  1  0  0  3  0  0  0  0  0  0
  191.5930  176.3310  135.7730 O   0  0  0  0  0  1  0  0  0  0  0  0
  190.8930  174.0050  136.8280 P   0  0  0  0  0  0  0  0  0  0  0  0
  191.9260  174.4880  138.0780 O   0  0  0  0  0  1  0  0  0  0  0  0
  189.6060  173.4740  137.4170 O   0  0  0  0  0  1  0  0  0  0  0  0
  191.6410  172.7770  135.9370 O   0  0  0  0  0  0  0  0  0  0  0  0
  183.5250  178.7500  145.2530 C   0  0  0  0  0  2  0  0  0  0  0  0
  183.0360  179.2160  143.8900 C   0  0  0  0  0  2  0  0  0  0  0  0
  181.5710  178.8590  143.6980 C   0  0  0  0  0  2  0  0  0  0  0  0
  182.1320  178.4090  141.4010 O   0  0  0  0  0  0  0  0  0  0  0  0
  180.5060  178.1760  139.6060 C   0  0  0  0  0  2  0  0  0  0  0  0
  179.7860  178.3390  142.0300 C   0  0  0  0  0  2  0  0  0  0  0  0
  181.8130  178.8200  140.0940 C   0  0  0  0  0  2  0  0  0  0  0  0
  181.1610  178.9910  142.2390 C   0  0  1  0  0  3  0  0  0  0  0  0
  179.7460  177.4990  140.7500 C   0  0  0  0  0  2  0  0  0  0  0  0
  1  2  2  0  0  0  0
  3  2  1  0  0  0  0
  3  4  2  0  0  0  0
  5 13  1  6  0  0  0
  5  3  1  0  0  0  0
  6  5  1  0  0  0  0
  6  1  1  0  0  0  0
  7  4  1  0  0  0  0
  7  8  1  0  0  0  0
  8 10  1  0  0  0  0
  9 10  1  0  0  0  0
 10 12  1  0  0  0  0
 10 11  1  0  0  0  0
 14 17  1  0  0  0  0
 15 19  1  0  0  0  0
 16 19  1  0  0  0  0
 16 13  1  0  0  0  0
 17 16  1  0  0  0  0
 18 15  1  0  0  0  0
 20 21  1  6  0  0  0
 20 14  1  0  0  0  0
 20 18  1  0  0  0  0
 22 21  2  0  0  0  0
 23 26  1  0  0  0  0
 24 23  1  0  0  0  0
 24 25  1  0  0  0  0
 25 28  1  6  0  0  0
 25 27  1  0  0  0  0
 26 27  1  0  0  0  0
 27 22  1  1  0  0  0
 28 29  1  1  0  0  0
 28 30  1  0  0  0  0
 30 32  1  0  0  0  0
 30 31  1  0  0  0  0
 33 30  2  0  0  0  0
 34  1  1  0  0  0  0
 35 34  1  0  0  0  0
 36 35  1  0  0  0  0
 37 41  1  0  0  0  0
 38 40  1  0  0  0  0
 38 42  1  0  0  0  0
 39 41  1  0  0  0  0
 40 37  1  0  0  0  0
 41 36  1  1  0  0  0
 42 39  1  0  0  0  0
M  END
>  <MODEL>
3

>  <REMARK>
 VINA RESULT:      -8.5      4.360      7.107
  Name = 
  13 active torsions:
  status: ('A' for Active; 'I' for Inactive)
    1  A    between atoms: P_2  and  C_22
    2  A    between atoms: C_5  and  C_41
    3  A    between atoms: C_7  and  C_32
    4  A    between atoms: C_9  and  C_29
    5  A    between atoms: C_10  and  C_22
    6  A    between atoms: N_12  and  C_17
    7  A    between atoms: N_14  and  C_31
    8  A    between atoms: N_23  and  C_28
    9  A    between atoms: C_24  and  C_37
   10  A    between atoms: C_24  and  C_38
   11  A    between atoms: C_25  and  C_31
   12  A    between atoms: C_28  and  C_29
   13  A    between atoms: C_32  and  C_37
                            x       y       z     vdW  Elec       q    Type
                         _______ _______ _______ _____ _____    ______ ____

>  <TORSDO>
F 13

$$$$
=
 OpenBabel10222418503D

 42 45  0  0  1  0  0  0  0  0999 V2000
  186.0430  178.3180  145.0870 C   0  0  0  0  0  0  0  0  0  0  0  0
  186.7290  177.9930  146.1660 C   0  0  0  0  0  3  0  0  0  0  0  0
  188.0780  177.6740  145.7580 C   0  0  0  0  0  0  0  0  0  0  0  0
  189.0230  177.4010  146.6040 N   0  0  0  0  0  0  0  0  0  0  0  0
  188.2370  177.7710  144.2780 C   0  0  2  0  0  3  0  0  0  0  0  0
  186.8620  178.2660  143.8290 C   0  0  0  0  0  2  0  0  0  0  0  0
  190.3940  177.1250  146.1980 C   0  0  0  0  0  2  0  0  0  0  0  0
  191.2690  176.9080  147.4250 C   0  0  0  0  0  2  0  0  0  0  0  0
  191.3190  174.5670  147.8980 F   0  0  0  0  0  0  0  0  0  0  0  0
  192.0520  175.6030  147.3470 C   0  0  0  0  0  0  0  0  0  0  0  0
  192.3090  175.3130  146.0200 F   0  0  0  0  0  0  0  0  0  0  0  0
  193.2530  175.7290  148.0210 F   0  0  0  0  0  0  0  0  0  0  0  0
  188.4980  176.3920  143.6890 C   0  0  0  0  0  2  0  0  0  0  0  0
  189.2890  176.5350  140.1360 C   0  0  0  0  0  2  0  0  0  0  0  0
  191.7430  177.2960  142.2240 C   0  0  0  0  0  2  0  0  0  0  0  0
  189.4540  176.4880  142.5990 N   0  0  0  0  0  0  0  0  0  0  0  0
  188.7350  177.0520  141.4660 C   0  0  0  0  0  2  0  0  0  0  0  0
  191.5520  177.5390  140.7300 C   0  0  0  0  0  2  0  0  0  0  0  0
  190.4420  177.4820  142.9990 C   0  0  0  0  0  2  0  0  0  0  0  0
  190.8110  176.3640  140.0970 C   0  0  2  0  0  3  0  0  0  0  0  0
  191.2430  176.1870  138.6810 C   0  0  0  0  0  3  0  0  0  0  0  0
  191.2730  175.0180  138.1510 N   0  0  0  0  0  0  0  0  0  0  0  0
  193.8250  175.7630  136.0200 C   0  0  0  0  0  2  0  0  0  0  0  0
  192.7150  176.4060  135.2210 C   0  0  0  0  0  2  0  0  0  0  0  0
  191.4540  176.1230  136.0120 C   0  0  2  0  0  3  0  0  0  0  0  0
  193.1950  174.5750  136.7220 C   0  0  0  0  0  2  0  0  0  0  0  0
  191.6950  174.8410  136.7860 C   0  0  1  0  0  3  0  0  0  0  0  0
  190.1830  176.0720  135.1570 C   0  0  1  0  0  3  0  0  0  0  0  0
  189.8130  174.7460  134.9280 O   0  0  0  0  0  1  0  0  0  0  0  0
  188.7670  176.9960  135.8560 P   0  0  0  0  0  0  0  0  0  0  0  0
  187.8930  176.0090  136.9170 O   0  0  0  0  0  1  0  0  0  0  0  0
  189.2580  178.2180  136.5960 O   0  0  0  0  0  1  0  0  0  0  0  0
  187.7530  177.4830  134.5940 O   0  0  0  0  0  0  0  0  0  0  0  0
  184.5990  178.7010  145.1630 C   0  0  0  0  0  2  0  0  0  0  0  0
  184.1740  179.5940  144.0060 C   0  0  0  0  0  2  0  0  0  0  0  0
  182.9800  178.9950  143.2810 C   0  0  0  0  0  2  0  0  0  0  0  0
  182.3230  178.2320  141.0950 O   0  0  0  0  0  0  0  0  0  0  0  0
  183.8400  177.9870  139.2070 C   0  0  0  0  0  2  0  0  0  0  0  0
  184.5810  179.0910  141.3660 C   0  0  0  0  0  2  0  0  0  0  0  0
  182.7320  177.3600  140.0690 C   0  0  0  0  0  2  0  0  0  0  0  0
  183.4080  178.3170  141.9880 C   0  0  1  0  0  3  0  0  0  0  0  0
  184.4110  179.2540  139.8520 C   0  0  0  0  0  2  0  0  0  0  0  0
  1 34  1  0  0  0  0
  1  2  2  0  0  0  0
  3  2  1  0  0  0  0
  3  4  2  0  0  0  0
  5 13  1  6  0  0  0
  5  3  1  0  0  0  0
  6  5  1  0  0  0  0
  6  1  1  0  0  0  0
  7  4  1  0  0  0  0
  7  8  1  0  0  0  0
 10  8  1  0  0  0  0
 10  9  1  0  0  0  0
 10 12  1  0  0  0  0
 11 10  1  0  0  0  0
 14 17  1  0  0  0  0
 15 19  1  0  0  0  0
 16 19  1  0  0  0  0
 16 13  1  0  0  0  0
 17 16  1  0  0  0  0
 18 15  1  0  0  0  0
 20 21  1  6  0  0  0
 20 14  1  0  0  0  0
 20 18  1  0  0  0  0
 22 21  2  0  0  0  0
 23 26  1  0  0  0  0
 24 25  1  0  0  0  0
 24 23  1  0  0  0  0
 25 28  1  6  0  0  0
 25 27  1  0  0  0  0
 26 27  1  0  0  0  0
 27 22  1  1  0  0  0
 28 29  1  1  0  0  0
 28 30  1  0  0  0  0
 30 32  1  0  0  0  0
 30 31  1  0  0  0  0
 33 30  2  0  0  0  0
 35 34  1  0  0  0  0
 36 35  1  0  0  0  0
 37 41  1  0  0  0  0
 38 42  1  0  0  0  0
 38 40  1  0  0  0  0
 39 41  1  0  0  0  0
 40 37  1  0  0  0  0
 41 36  1  1  0  0  0
 42 39  1  0  0  0  0
M  END
>  <MODEL>
4

>  <REMARK>
 VINA RESULT:      -8.3      4.772      7.009
  Name = 
  13 active torsions:
  status: ('A' for Active; 'I' for Inactive)
    1  A    between atoms: P_2  and  C_22
    2  A    between atoms: C_5  and  C_41
    3  A    between atoms: C_7  and  C_32
    4  A    between atoms: C_9  and  C_29
    5  A    between atoms: C_10  and  C_22
    6  A    between atoms: N_12  and  C_17
    7  A    between atoms: N_14  and  C_31
    8  A    between atoms: N_23  and  C_28
    9  A    between atoms: C_24  and  C_37
   10  A    between atoms: C_24  and  C_38
   11  A    between atoms: C_25  and  C_31
   12  A    between atoms: C_28  and  C_29
   13  A    between atoms: C_32  and  C_37
                            x       y       z     vdW  Elec       q    Type
                         _______ _______ _______ _____ _____    ______ ____

>  <TORSDO>
F 13

$$$$
=
 OpenBabel10222418503D

 42 45  0  0  1  0  0  0  0  0999 V2000
  184.6690  178.6770  143.6320 C   0  0  0  0  0  0  0  0  0  0  0  0
  183.9260  179.1670  142.6580 C   0  0  0  0  0  3  0  0  0  0  0  0
  184.5410  178.8010  141.4020 C   0  0  0  0  0  0  0  0  0  0  0  0
  184.0000  179.0610  140.2520 N   0  0  0  0  0  0  0  0  0  0  0  0
  185.8090  178.0450  141.6150 C   0  0  2  0  0  3  0  0  0  0  0  0
  185.8630  177.9120  143.1380 C   0  0  0  0  0  2  0  0  0  0  0  0
  184.5940  178.6540  138.9860 C   0  0  0  0  0  2  0  0  0  0  0  0
  183.8150  177.4870  138.3950 C   0  0  0  0  0  2  0  0  0  0  0  0
  185.9280  176.6930  137.6140 F   0  0  0  0  0  0  0  0  0  0  0  0
  184.5880  176.7850  137.2850 C   0  0  0  0  0  0  0  0  0  0  0  0
  184.0790  175.5110  137.1200 F   0  0  0  0  0  0  0  0  0  0  0  0
  184.4510  177.4820  136.0980 F   0  0  0  0  0  0  0  0  0  0  0  0
  186.9960  178.8690  141.1350 C   0  0  0  0  0  2  0  0  0  0  0  0
  188.9340  177.5030  138.3700 C   0  0  0  0  0  2  0  0  0  0  0  0
  190.0630  176.8670  141.4170 C   0  0  0  0  0  2  0  0  0  0  0  0
  188.0330  177.9940  140.6160 N   0  0  0  0  0  0  0  0  0  0  0  0
  188.4770  178.5790  139.3580 C   0  0  0  0  0  2  0  0  0  0  0  0
  190.7140  176.7770  140.0400 C   0  0  0  0  0  2  0  0  0  0  0  0
  189.1580  178.0890  141.5370 C   0  0  0  0  0  2  0  0  0  0  0  0
  189.6890  176.3290  139.0020 C   0  0  2  0  0  3  0  0  0  0  0  0
  190.3570  175.5450  137.9240 C   0  0  0  0  0  3  0  0  0  0  0  0
  190.2400  175.8970  136.6950 N   0  0  0  0  0  0  0  0  0  0  0  0
  190.4050  172.7570  135.3810 C   0  0  0  0  0  2  0  0  0  0  0  0
  191.8780  172.9180  135.6790 C   0  0  0  0  0  2  0  0  0  0  0  0
  192.0100  174.3200  136.2390 C   0  0  2  0  0  3  0  0  0  0  0  0
  189.9000  174.1450  135.0370 C   0  0  0  0  0  2  0  0  0  0  0  0
  190.8780  175.1400  135.6500 C   0  0  1  0  0  3  0  0  0  0  0  0
  193.3870  174.9530  136.0100 C   0  0  1  0  0  3  0  0  0  0  0  0
  193.2410  176.2390  135.4910 O   0  0  0  0  0  1  0  0  0  0  0  0
  194.4490  175.0050  137.4980 P   0  0  0  0  0  0  0  0  0  0  0  0
  194.4670  173.4930  138.2570 O   0  0  0  0  0  1  0  0  0  0  0  0
  195.8600  175.3920  137.1180 O   0  0  0  0  0  0  0  0  0  0  0  0
  193.8310  176.1540  138.5730 O   0  0  0  0  0  1  0  0  0  0  0  0
  184.3090  178.8810  145.0700 C   0  0  0  0  0  2  0  0  0  0  0  0
  185.5130  179.2500  145.9230 C   0  0  0  0  0  2  0  0  0  0  0  0
  186.0390  178.0290  146.6590 C   0  0  0  0  0  2  0  0  0  0  0  0
  188.0040  177.1080  147.7000 O   0  0  0  0  0  0  0  0  0  0  0  0
  190.2260  177.1250  146.7070 C   0  0  0  0  0  2  0  0  0  0  0  0
  188.1830  177.8420  145.3900 C   0  0  0  0  0  2  0  0  0  0  0  0
  189.3580  177.4060  147.9440 C   0  0  0  0  0  2  0  0  0  0  0  0
  187.5560  178.0690  146.7740 C   0  0  1  0  0  3  0  0  0  0  0  0
  189.3730  176.8800  145.4590 C   0  0  0  0  0  2  0  0  0  0  0  0
  1 34  1  0  0  0  0
  2  1  2  0  0  0  0
  3  5  1  0  0  0  0
  3  2  1  0  0  0  0
  4  3  2  0  0  0  0
  5 13  1  1  0  0  0
  5  6  1  0  0  0  0
  6  1  1  0  0  0  0
  7  4  1  0  0  0  0
  8  7  1  0  0  0  0
 10  9  1  0  0  0  0
 10  8  1  0  0  0  0
 11 10  1  0  0  0  0
 12 10  1  0  0  0  0
 14 20  1  0  0  0  0
 14 17  1  0  0  0  0
 15 19  1  0  0  0  0
 16 13  1  0  0  0  0
 16 19  1  0  0  0  0
 17 16  1  0  0  0  0
 18 15  1  0  0  0  0
 20 21  1  6  0  0  0
 20 18  1  0  0  0  0
 22 21  2  0  0  0  0
 23 24  1  0  0  0  0
 24 25  1  0  0  0  0
 25 28  1  6  0  0  0
 26 23  1  0  0  0  0
 26 27  1  0  0  0  0
 27 25  1  0  0  0  0
 27 22  1  1  0  0  0
 28 29  1  1  0  0  0
 28 30  1  0  0  0  0
 30 31  1  0  0  0  0
 30 33  1  0  0  0  0
 32 30  2  0  0  0  0
 34 35  1  0  0  0  0
 35 36  1  0  0  0  0
 37 40  1  0  0  0  0
 38 40  1  0  0  0  0
 39 42  1  0  0  0  0
 39 41  1  0  0  0  0
 41 36  1  6  0  0  0
 41 37  1  0  0  0  0
 42 38  1  0  0  0  0
M  END
>  <MODEL>
5

>  <REMARK>
 VINA RESULT:      -8.0      1.604      2.067
  Name = 
  13 active torsions:
  status: ('A' for Active; 'I' for Inactive)
    1  A    between atoms: P_2  and  C_22
    2  A    between atoms: C_5  and  C_41
    3  A    between atoms: C_7  and  C_32
    4  A    between atoms: C_9  and  C_29
    5  A    between atoms: C_10  and  C_22
    6  A    between atoms: N_12  and  C_17
    7  A    between atoms: N_14  and  C_31
    8  A    between atoms: N_23  and  C_28
    9  A    between atoms: C_24  and  C_37
   10  A    between atoms: C_24  and  C_38
   11  A    between atoms: C_25  and  C_31
   12  A    between atoms: C_28  and  C_29
   13  A    between atoms: C_32  and  C_37
                            x       y       z     vdW  Elec       q    Type
                         _______ _______ _______ _____ _____    ______ ____

>  <TORSDO>
F 13

$$$$
=
 OpenBabel10222418503D

 42 45  0  0  1  0  0  0  0  0999 V2000
  186.0050  178.1040  145.6450 C   0  0  0  0  0  0  0  0  0  0  0  0
  186.8520  177.7780  146.6030 C   0  0  0  0  0  3  0  0  0  0  0  0
  188.1420  177.5390  145.9950 C   0  0  0  0  0  0  0  0  0  0  0  0
  189.2100  177.2840  146.6870 N   0  0  0  0  0  0  0  0  0  0  0  0
  188.0830  177.6920  144.5130 C   0  0  2  0  0  3  0  0  0  0  0  0
  186.6370  178.1340  144.2830 C   0  0  0  0  0  2  0  0  0  0  0  0
  190.5190  177.0890  146.0810 C   0  0  0  0  0  2  0  0  0  0  0  0
  191.5860  176.9840  147.1620 C   0  0  0  0  0  2  0  0  0  0  0  0
  193.4190  175.6330  147.8820 F   0  0  0  0  0  0  0  0  0  0  0  0
  192.2020  175.5910  147.2260 C   0  0  0  0  0  0  0  0  0  0  0  0
  191.3480  174.7540  147.9180 F   0  0  0  0  0  0  0  0  0  0  0  0
  192.3820  175.0940  145.9480 F   0  0  0  0  0  0  0  0  0  0  0  0
  188.3170  176.3470  143.8380 C   0  0  0  0  0  2  0  0  0  0  0  0
  188.1430  177.4290  140.3640 C   0  0  0  0  0  2  0  0  0  0  0  0
  191.1660  176.8130  141.5670 C   0  0  0  0  0  2  0  0  0  0  0  0
  188.9240  176.5430  142.5330 N   0  0  0  0  0  0  0  0  0  0  0  0
  188.1740  177.6100  141.8840 C   0  0  0  0  0  2  0  0  0  0  0  0
  190.6860  177.5690  140.3320 C   0  0  0  0  0  2  0  0  0  0  0  0
  190.2640  177.0640  142.7710 C   0  0  0  0  0  2  0  0  0  0  0  0
  189.4440  176.8960  139.7540 C   0  0  2  0  0  3  0  0  0  0  0  0
  189.3980  177.0830  138.2750 C   0  0  0  0  0  3  0  0  0  0  0  0
  188.6440  176.3410  137.5480 N   0  0  0  0  0  0  0  0  0  0  0  0
  187.0160  178.0770  135.1090 C   0  0  0  0  0  2  0  0  0  0  0  0
  186.7080  176.6900  134.5940 C   0  0  0  0  0  2  0  0  0  0  0  0
  187.4160  175.7550  135.5530 C   0  0  2  0  0  3  0  0  0  0  0  0
  188.3800  177.9800  135.7660 C   0  0  0  0  0  2  0  0  0  0  0  0
  188.6010  176.5140  136.1190 C   0  0  1  0  0  3  0  0  0  0  0  0
  187.8120  174.4110  134.9310 C   0  0  1  0  0  3  0  0  0  0  0  0
  189.2020  174.2960  134.8850 O   0  0  0  0  0  1  0  0  0  0  0  0
  187.1000  172.9510  135.7730 P   0  0  0  0  0  0  0  0  0  0  0  0
  185.8260  172.3130  134.8610 O   0  0  0  0  0  0  0  0  0  0  0  0
  188.1610  171.8920  135.9650 O   0  0  0  0  0  1  0  0  0  0  0  0
  186.5120  173.4250  137.2870 O   0  0  0  0  0  1  0  0  0  0  0  0
  184.5720  178.4130  145.9400 C   0  0  0  0  0  2  0  0  0  0  0  0
  183.9670  179.3760  144.9290 C   0  0  0  0  0  2  0  0  0  0  0  0
  182.9130  178.6740  144.0880 C   0  0  0  0  0  2  0  0  0  0  0  0
  184.1410  178.1080  142.0970 O   0  0  0  0  0  0  0  0  0  0  0  0
  183.3000  178.3970  139.8310 C   0  0  0  0  0  2  0  0  0  0  0  0
  181.8060  178.7360  141.8500 C   0  0  0  0  0  2  0  0  0  0  0  0
  184.4550  178.6130  140.8220 C   0  0  0  0  0  2  0  0  0  0  0  0
  183.1270  178.9420  142.6060 C   0  0  1  0  0  3  0  0  0  0  0  0
  182.0160  177.9640  140.5440 C   0  0  0  0  0  2  0  0  0  0  0  0
  1 34  1  0  0  0  0
  1  2  2  0  0  0  0
  3  2  1  0  0  0  0
  3  4  2  0  0  0  0
  5 13  1  6  0  0  0
  5  3  1  0  0  0  0
  6  5  1  0  0  0  0
  6  1  1  0  0  0  0
  7  4  1  0  0  0  0
  7  8  1  0  0  0  0
  8 10  1  0  0  0  0
 10  9  1  0  0  0  0
 10 11  1  0  0  0  0
 12 10  1  0  0  0  0
 14 17  1  0  0  0  0
 15 19  1  0  0  0  0
 16 19  1  0  0  0  0
 16 13  1  0  0  0  0
 17 16  1  0  0  0  0
 18 15  1  0  0  0  0
 20 21  1  6  0  0  0
 20 18  1  0  0  0  0
 20 14  1  0  0  0  0
 22 21  2  0  0  0  0
 23 26  1  0  0  0  0
 24 23  1  0  0  0  0
 24 25  1  0  0  0  0
 25 28  1  6  0  0  0
 25 27  1  0  0  0  0
 26 27  1  0  0  0  0
 27 22  1  1  0  0  0
 28 29  1  1  0  0  0
 28 30  1  0  0  0  0
 30 32  1  0  0  0  0
 30 33  1  0  0  0  0
 31 30  2  0  0  0  0
 35 34  1  0  0  0  0
 36 35  1  0  0  0  0
 37 41  1  0  0  0  0
 38 42  1  0  0  0  0
 38 40  1  0  0  0  0
 39 41  1  0  0  0  0
 40 37  1  0  0  0  0
 41 36  1  1  0  0  0
 42 39  1  0  0  0  0
M  END
>  <MODEL>
6

>  <REMARK>
 VINA RESULT:      -7.9      5.086      7.373
  Name = 
  13 active torsions:
  status: ('A' for Active; 'I' for Inactive)
    1  A    between atoms: P_2  and  C_22
    2  A    between atoms: C_5  and  C_41
    3  A    between atoms: C_7  and  C_32
    4  A    between atoms: C_9  and  C_29
    5  A    between atoms: C_10  and  C_22
    6  A    between atoms: N_12  and  C_17
    7  A    between atoms: N_14  and  C_31
    8  A    between atoms: N_23  and  C_28
    9  A    between atoms: C_24  and  C_37
   10  A    between atoms: C_24  and  C_38
   11  A    between atoms: C_25  and  C_31
   12  A    between atoms: C_28  and  C_29
   13  A    between atoms: C_32  and  C_37
                            x       y       z     vdW  Elec       q    Type
                         _______ _______ _______ _____ _____    ______ ____

>  <TORSDO>
F 13

$$$$
=
 OpenBabel10222418503D

 42 45  0  0  1  0  0  0  0  0999 V2000
  190.4900  177.3420  142.6950 C   0  0  0  0  0  0  0  0  0  0  0  0
  189.6350  178.3390  142.8170 C   0  0  0  0  0  3  0  0  0  0  0  0
  188.5600  178.1230  141.8760 C   0  0  0  0  0  0  0  0  0  0  0  0
  187.5140  178.8870  141.8150 N   0  0  0  0  0  0  0  0  0  0  0  0
  188.7870  176.8930  141.0620 C   0  0  2  0  0  3  0  0  0  0  0  0
  190.0760  176.3310  141.6640 C   0  0  0  0  0  2  0  0  0  0  0  0
  186.4070  178.6450  140.9000 C   0  0  0  0  0  2  0  0  0  0  0  0
  185.1260  179.2530  141.4550 C   0  0  0  0  0  2  0  0  0  0  0  0
  185.0770  179.5690  143.8220 F   0  0  0  0  0  0  0  0  0  0  0  0
  184.7600  178.6740  142.8170 C   0  0  0  0  0  0  0  0  0  0  0  0
  183.4010  178.4280  142.8480 F   0  0  0  0  0  0  0  0  0  0  0  0
  185.4370  177.4860  143.0250 F   0  0  0  0  0  0  0  0  0  0  0  0
  189.0260  177.2670  139.6060 C   0  0  0  0  0  2  0  0  0  0  0  0
  190.7100  174.9610  137.3440 C   0  0  0  0  0  2  0  0  0  0  0  0
  192.6530  176.9970  139.0890 C   0  0  0  0  0  2  0  0  0  0  0  0
  190.2260  176.6140  139.1140 N   0  0  0  0  0  0  0  0  0  0  0  0
  189.9560  176.2350  137.7340 C   0  0  0  0  0  2  0  0  0  0  0  0
  192.9050  176.1490  137.8460 C   0  0  0  0  0  2  0  0  0  0  0  0
  191.2660  177.6330  139.0680 C   0  0  0  0  0  2  0  0  0  0  0  0
  192.1200  174.8430  137.9320 C   0  0  2  0  0  3  0  0  0  0  0  0
  192.8520  173.7560  137.2210 C   0  0  0  0  0  3  0  0  0  0  0  0
  194.0100  173.9750  136.7130 N   0  0  0  0  0  0  0  0  0  0  0  0
  194.4340  170.5940  136.6810 C   0  0  0  0  0  2  0  0  0  0  0  0
  195.8860  170.9670  136.8700 C   0  0  0  0  0  2  0  0  0  0  0  0
  195.9030  172.4820  136.8560 C   0  0  2  0  0  3  0  0  0  0  0  0
  193.8270  171.7060  135.8470 C   0  0  0  0  0  2  0  0  0  0  0  0
  194.7180  172.9300  136.0200 C   0  0  1  0  0  3  0  0  0  0  0  0
  197.2300  173.0840  136.3800 C   0  0  1  0  0  3  0  0  0  0  0  0
  197.1800  173.3250  135.0070 O   0  0  0  0  0  1  0  0  0  0  0  0
  197.7210  174.6130  137.2580 P   0  0  0  0  0  0  0  0  0  0  0  0
  196.7800  174.8160  138.6490 O   0  0  0  0  0  1  0  0  0  0  0  0
  199.1800  174.5450  137.6430 O   0  0  0  0  0  1  0  0  0  0  0  0
  197.4810  175.9350  136.2310 O   0  0  0  0  0  0  0  0  0  0  0  0
  191.7280  177.2640  143.5300 C   0  0  0  0  0  2  0  0  0  0  0  0
  191.5680  177.9640  144.8720 C   0  0  0  0  0  2  0  0  0  0  0  0
  190.7820  177.0920  145.8360 C   0  0  0  0  0  2  0  0  0  0  0  0
  188.3770  177.1110  145.7370 O   0  0  0  0  0  0  0  0  0  0  0  0
  186.9340  178.0670  147.4480 C   0  0  0  0  0  2  0  0  0  0  0  0
  189.4320  177.8280  147.8060 C   0  0  0  0  0  2  0  0  0  0  0  0
  187.2770  177.9620  145.9530 C   0  0  0  0  0  2  0  0  0  0  0  0
  189.4950  177.7780  146.2710 C   0  0  1  0  0  3  0  0  0  0  0  0
  188.0370  177.4680  148.3260 C   0  0  0  0  0  2  0  0  0  0  0  0
  1  2  2  0  0  0  0
  1 34  1  0  0  0  0
  3  2  1  0  0  0  0
  4  3  2  0  0  0  0
  5 13  1  6  0  0  0
  5  6  1  0  0  0  0
  5  3  1  0  0  0  0
  6  1  1  0  0  0  0
  7  8  1  0  0  0  0
  7  4  1  0  0  0  0
  8 10  1  0  0  0  0
 10 11  1  0  0  0  0
 10 12  1  0  0  0  0
 10  9  1  0  0  0  0
 14 17  1  0  0  0  0
 14 20  1  0  0  0  0
 16 13  1  0  0  0  0
 17 16  1  0  0  0  0
 18 20  1  0  0  0  0
 18 15  1  0  0  0  0
 19 15  1  0  0  0  0
 19 16  1  0  0  0  0
 20 21  1  6  0  0  0
 22 21  2  0  0  0  0
 23 24  1  0  0  0  0
 25 28  1  6  0  0  0
 25 24  1  0  0  0  0
 26 27  1  0  0  0  0
 26 23  1  0  0  0  0
 27 22  1  1  0  0  0
 27 25  1  0  0  0  0
 28 29  1  6  0  0  0
 28 30  1  0  0  0  0
 30 32  1  0  0  0  0
 30 31  1  0  0  0  0
 33 30  2  0  0  0  0
 34 35  1  0  0  0  0
 35 36  1  0  0  0  0
 37 40  1  0  0  0  0
 37 41  1  0  0  0  0
 38 42  1  0  0  0  0
 39 42  1  0  0  0  0
 40 38  1  0  0  0  0
 41 36  1  1  0  0  0
 41 39  1  0  0  0  0
M  END
>  <MODEL>
7

>  <REMARK>
 VINA RESULT:      -7.7      2.169      3.851
  Name = 
  13 active torsions:
  status: ('A' for Active; 'I' for Inactive)
    1  A    between atoms: P_2  and  C_22
    2  A    between atoms: C_5  and  C_41
    3  A    between atoms: C_7  and  C_32
    4  A    between atoms: C_9  and  C_29
    5  A    between atoms: C_10  and  C_22
    6  A    between atoms: N_12  and  C_17
    7  A    between atoms: N_14  and  C_31
    8  A    between atoms: N_23  and  C_28
    9  A    between atoms: C_24  and  C_37
   10  A    between atoms: C_24  and  C_38
   11  A    between atoms: C_25  and  C_31
   12  A    between atoms: C_28  and  C_29
   13  A    between atoms: C_32  and  C_37
                            x       y       z     vdW  Elec       q    Type
                         _______ _______ _______ _____ _____    ______ ____

>  <TORSDO>
F 13

$$$$
=
 OpenBabel10222418503D

 42 45  0  0  1  0  0  0  0  0999 V2000
  185.5100  178.5110  145.2940 C   0  0  0  0  0  0  0  0  0  0  0  0
  184.2700  178.9080  145.0830 C   0  0  0  0  0  3  0  0  0  0  0  0
  183.9640  178.6940  143.6870 C   0  0  0  0  0  0  0  0  0  0  0  0
  182.7870  178.9040  143.1840 N   0  0  0  0  0  0  0  0  0  0  0  0
  185.1410  178.1490  142.9480 C   0  0  2  0  0  3  0  0  0  0  0  0
  186.1750  177.9700  144.0600 C   0  0  0  0  0  2  0  0  0  0  0  0
  182.4640  178.6460  141.7880 C   0  0  0  0  0  2  0  0  0  0  0  0
  181.0500  179.1200  141.4810 C   0  0  0  0  0  2  0  0  0  0  0  0
  181.0330  177.2930  139.9430 F   0  0  0  0  0  0  0  0  0  0  0  0
  180.5320  178.5640  140.1610 C   0  0  0  0  0  0  0  0  0  0  0  0
  179.1520  178.4990  140.2120 F   0  0  0  0  0  0  0  0  0  0  0  0
  180.9040  179.3920  139.1180 F   0  0  0  0  0  0  0  0  0  0  0  0
  185.6470  179.1720  141.9420 C   0  0  0  0  0  2  0  0  0  0  0  0
  186.0500  178.0000  138.5160 C   0  0  0  0  0  2  0  0  0  0  0  0
  188.7660  177.9820  140.4090 C   0  0  0  0  0  2  0  0  0  0  0  0
  186.4190  178.5110  140.9040 N   0  0  0  0  0  0  0  0  0  0  0  0
  185.9450  179.0420  139.6330 C   0  0  0  0  0  2  0  0  0  0  0  0
  188.5650  177.8970  138.9000 C   0  0  0  0  0  2  0  0  0  0  0  0
  187.7950  178.9660  141.0550 C   0  0  0  0  0  2  0  0  0  0  0  0
  187.2960  177.1110  138.5830 C   0  0  2  0  0  3  0  0  0  0  0  0
  187.4470  176.3910  137.2860 C   0  0  0  0  0  3  0  0  0  0  0  0
  187.4620  175.1070  137.2510 N   0  0  0  0  0  0  0  0  0  0  0  0
  187.0260  172.0420  135.8290 C   0  0  0  0  0  2  0  0  0  0  0  0
  188.4980  172.1880  135.5190 C   0  0  0  0  0  2  0  0  0  0  0  0
  188.8700  173.5590  136.0480 C   0  0  2  0  0  3  0  0  0  0  0  0
  186.4530  173.4460  135.7840 C   0  0  0  0  0  2  0  0  0  0  0  0
  187.6140  174.4080  136.0020 C   0  0  1  0  0  3  0  0  0  0  0  0
  190.0530  174.2050  135.3180 C   0  0  1  0  0  3  0  0  0  0  0  0
  189.6190  175.3170  134.5950 O   0  0  0  0  0  1  0  0  0  0  0  0
  191.4420  174.6830  136.4100 P   0  0  0  0  0  0  0  0  0  0  0  0
  192.2340  176.0420  135.7870 O   0  0  0  0  0  0  0  0  0  0  0  0
  190.9310  174.9900  137.7980 O   0  0  0  0  0  1  0  0  0  0  0  0
  192.5380  173.3970  136.4960 O   0  0  0  0  0  1  0  0  0  0  0  0
  186.1430  178.6000  146.6470 C   0  0  0  0  0  2  0  0  0  0  0  0
  187.1770  177.5090  146.8770 C   0  0  0  0  0  2  0  0  0  0  0  0
  188.2900  178.0130  147.7820 C   0  0  0  0  0  2  0  0  0  0  0  0
  190.0600  176.4350  147.3700 O   0  0  0  0  0  0  0  0  0  0  0  0
  191.6150  176.5640  145.5020 C   0  0  0  0  0  2  0  0  0  0  0  0
  189.6050  178.1010  145.6590 C   0  0  0  0  0  2  0  0  0  0  0  0
  191.4210  176.3810  147.0160 C   0  0  0  0  0  2  0  0  0  0  0  0
  189.6560  177.7670  147.1580 C   0  0  1  0  0  3  0  0  0  0  0  0
  190.3310  177.0450  144.8200 C   0  0  0  0  0  2  0  0  0  0  0  0
  1 34  1  0  0  0  0
  2  1  2  0  0  0  0
  3  2  1  0  0  0  0
  4  3  2  0  0  0  0
  5 13  1  6  0  0  0
  5  3  1  0  0  0  0
  5  6  1  0  0  0  0
  6  1  1  0  0  0  0
  7  4  1  0  0  0  0
  8  7  1  0  0  0  0
  9 10  1  0  0  0  0
 10 11  1  0  0  0  0
 10  8  1  0  0  0  0
 12 10  1  0  0  0  0
 14 20  1  0  0  0  0
 14 17  1  0  0  0  0
 15 19  1  0  0  0  0
 16 19  1  0  0  0  0
 16 13  1  0  0  0  0
 17 16  1  0  0  0  0
 18 15  1  0  0  0  0
 20 21  1  6  0  0  0
 20 18  1  0  0  0  0
 22 21  2  0  0  0  0
 24 23  1  0  0  0  0
 24 25  1  0  0  0  0
 25 28  1  6  0  0  0
 26 23  1  0  0  0  0
 26 27  1  0  0  0  0
 27 25  1  0  0  0  0
 27 22  1  1  0  0  0
 28 29  1  1  0  0  0
 28 30  1  0  0  0  0
 30 33  1  0  0  0  0
 30 32  1  0  0  0  0
 31 30  2  0  0  0  0
 34 35  1  0  0  0  0
 35 36  1  0  0  0  0
 38 40  1  0  0  0  0
 39 41  1  0  0  0  0
 40 37  1  0  0  0  0
 41 37  1  0  0  0  0
 41 36  1  6  0  0  0
 42 38  1  0  0  0  0
 42 39  1  0  0  0  0
M  END
>  <MODEL>
8

>  <REMARK>
 VINA RESULT:      -7.6      2.524      3.213
  Name = 
  13 active torsions:
  status: ('A' for Active; 'I' for Inactive)
    1  A    between atoms: P_2  and  C_22
    2  A    between atoms: C_5  and  C_41
    3  A    between atoms: C_7  and  C_32
    4  A    between atoms: C_9  and  C_29
    5  A    between atoms: C_10  and  C_22
    6  A    between atoms: N_12  and  C_17
    7  A    between atoms: N_14  and  C_31
    8  A    between atoms: N_23  and  C_28
    9  A    between atoms: C_24  and  C_37
   10  A    between atoms: C_24  and  C_38
   11  A    between atoms: C_25  and  C_31
   12  A    between atoms: C_28  and  C_29
   13  A    between atoms: C_32  and  C_37
                            x       y       z     vdW  Elec       q    Type
                         _______ _______ _______ _____ _____    ______ ____

>  <TORSDO>
F 13

$$$$
=
 OpenBabel10222418503D

 42 45  0  0  1  0  0  0  0  0999 V2000
  191.4370  177.0300  140.3250 C   0  0  0  0  0  0  0  0  0  0  0  0
  192.1650  177.3290  141.3830 C   0  0  0  0  0  3  0  0  0  0  0  0
  191.2650  177.5860  142.4850 C   0  0  0  0  0  0  0  0  0  0  0  0
  191.6790  177.8220  143.6920 N   0  0  0  0  0  0  0  0  0  0  0  0
  189.8390  177.4750  142.0610 C   0  0  2  0  0  3  0  0  0  0  0  0
  189.9610  177.0380  140.6010 C   0  0  0  0  0  2  0  0  0  0  0  0
  190.7740  178.0360  144.8120 C   0  0  0  0  0  2  0  0  0  0  0  0
  190.6630  176.7650  145.6440 C   0  0  0  0  0  2  0  0  0  0  0  0
  189.3250  176.0180  147.4760 F   0  0  0  0  0  0  0  0  0  0  0  0
  190.1510  177.0430  147.0520 C   0  0  0  0  0  0  0  0  0  0  0  0
  191.2300  177.1350  147.9110 F   0  0  0  0  0  0  0  0  0  0  0  0
  189.4540  178.2380  147.0760 F   0  0  0  0  0  0  0  0  0  0  0  0
  189.1650  178.8390  142.1300 C   0  0  0  0  0  2  0  0  0  0  0  0
  185.5470  179.2490  142.0180 C   0  0  0  0  0  2  0  0  0  0  0  0
  186.7450  177.3960  144.4870 C   0  0  0  0  0  2  0  0  0  0  0  0
  187.8500  178.7150  142.7340 N   0  0  0  0  0  0  0  0  0  0  0  0
  186.8960  178.6340  141.6360 C   0  0  0  0  0  2  0  0  0  0  0  0
  185.3460  177.5440  143.9000 C   0  0  0  0  0  2  0  0  0  0  0  0
  187.8190  177.4210  143.4050 C   0  0  0  0  0  2  0  0  0  0  0  0
  185.1090  178.9880  143.4630 C   0  0  2  0  0  3  0  0  0  0  0  0
  183.6660  179.3370  143.6030 C   0  0  0  0  0  3  0  0  0  0  0  0
  182.8270  179.0140  142.6870 N   0  0  0  0  0  0  0  0  0  0  0  0
  179.8670  177.7930  143.8530 C   0  0  0  0  0  2  0  0  0  0  0  0
  179.4290  178.0240  142.4250 C   0  0  0  0  0  2  0  0  0  0  0  0
  180.6370  178.6330  141.7430 C   0  0  2  0  0  3  0  0  0  0  0  0
  180.8870  178.8740  144.1530 C   0  0  0  0  0  2  0  0  0  0  0  0
  181.4340  179.3540  142.8140 C   0  0  1  0  0  3  0  0  0  0  0  0
  180.2890  179.5330  140.5520 C   0  0  1  0  0  3  0  0  0  0  0  0
  180.3470  180.8740  140.9320 O   0  0  0  0  0  1  0  0  0  0  0  0
  181.3350  179.2650  139.0750 P   0  0  0  0  0  0  0  0  0  0  0  0
  182.4730  178.0500  139.3770 O   0  0  0  0  0  1  0  0  0  0  0  0
  180.4780  178.8700  137.8950 O   0  0  0  0  0  0  0  0  0  0  0  0
  182.1480  180.7030  138.7110 O   0  0  0  0  0  1  0  0  0  0  0  0
  192.0670  176.7110  139.0060 C   0  0  0  0  0  2  0  0  0  0  0  0
  191.2080  175.7800  138.1620 C   0  0  0  0  0  2  0  0  0  0  0  0
  190.9120  176.4070  136.8100 C   0  0  0  0  0  2  0  0  0  0  0  0
  188.6760  175.7900  137.4500 O   0  0  0  0  0  0  0  0  0  0  0  0
  186.7580  177.2870  137.3780 C   0  0  0  0  0  2  0  0  0  0  0  0
  189.1140  178.1330  136.9780 C   0  0  0  0  0  2  0  0  0  0  0  0
  187.3410  175.9090  137.0230 C   0  0  0  0  0  2  0  0  0  0  0  0
  189.4230  176.6660  136.6400 C   0  0  1  0  0  3  0  0  0  0  0  0
  187.8480  178.2630  137.8310 C   0  0  0  0  0  2  0  0  0  0  0  0
  1  6  1  0  0  0  0
  1  2  2  0  0  0  0
  2  3  1  0  0  0  0
  3  4  2  0  0  0  0
  4  7  1  0  0  0  0
  5 13  1  6  0  0  0
  5  3  1  0  0  0  0
  6  5  1  0  0  0  0
  7  8  1  0  0  0  0
  8 10  1  0  0  0  0
 10 12  1  0  0  0  0
 10  9  1  0  0  0  0
 10 11  1  0  0  0  0
 13 16  1  0  0  0  0
 14 20  1  0  0  0  0
 16 19  1  0  0  0  0
 17 14  1  0  0  0  0
 17 16  1  0  0  0  0
 18 15  1  0  0  0  0
 19 15  1  0  0  0  0
 20 21  1  6  0  0  0
 20 18  1  0  0  0  0
 22 21  2  0  0  0  0
 23 26  1  0  0  0  0
 24 23  1  0  0  0  0
 25 28  1  6  0  0  0
 25 24  1  0  0  0  0
 25 27  1  0  0  0  0
 27 22  1  1  0  0  0
 27 26  1  0  0  0  0
 28 29  1  1  0  0  0
 30 31  1  0  0  0  0
 30 28  1  0  0  0  0
 32 30  2  0  0  0  0
 33 30  1  0  0  0  0
 34  1  1  0  0  0  0
 35 34  1  0  0  0  0
 36 35  1  0  0  0  0
 38 42  1  0  0  0  0
 39 42  1  0  0  0  0
 40 38  1  0  0  0  0
 40 37  1  0  0  0  0
 41 36  1  1  0  0  0
 41 39  1  0  0  0  0
 41 37  1  0  0  0  0
M  END
>  <MODEL>
9

>  <REMARK>
 VINA RESULT:      -7.5      5.790     10.541
  Name = 
  13 active torsions:
  status: ('A' for Active; 'I' for Inactive)
    1  A    between atoms: P_2  and  C_22
    2  A    between atoms: C_5  and  C_41
    3  A    between atoms: C_7  and  C_32
    4  A    between atoms: C_9  and  C_29
    5  A    between atoms: C_10  and  C_22
    6  A    between atoms: N_12  and  C_17
    7  A    between atoms: N_14  and  C_31
    8  A    between atoms: N_23  and  C_28
    9  A    between atoms: C_24  and  C_37
   10  A    between atoms: C_24  and  C_38
   11  A    between atoms: C_25  and  C_31
   12  A    between atoms: C_28  and  C_29
   13  A    between atoms: C_32  and  C_37
                            x       y       z     vdW  Elec       q    Type
                         _______ _______ _______ _____ _____    ______ ____

>  <TORSDO>
F 13

$$$$
