=
 OpenBabel10222417233D

 57 62  0  0  1  0  0  0  0  0999 V2000
  187.4590  178.2380  139.1240 N   0  0  0  0  0  2  0  0  0  0  0  0
  188.3380  177.5970  141.2010 C   0  0  1  0  0  3  0  0  0  0  0  0
  189.3510  177.8390  142.2220 N   0  0  0  0  0  0  0  0  0  0  0  0
  187.2470  178.5770  141.3580 C   0  0  1  0  0  3  0  0  0  0  0  0
  188.9580  178.0380  143.4530 C   0  0  0  0  0  0  0  0  0  0  0  0
  186.4870  178.4400  140.1340 N   0  0  0  0  0  2  0  0  0  0  0  0
  187.5470  178.2270  143.7290 N   0  0  0  0  0  2  0  0  0  0  0  0
  186.5390  178.2140  142.6520 C   0  0  1  0  0  3  0  0  0  0  0  0
  188.7260  177.8700  139.7840 C   0  0  1  0  0  3  0  0  0  0  0  0
  190.6590  176.9580  138.4710 C   0  0  0  0  0  2  0  0  0  0  0  0
  189.0700  176.3430  136.8530 N   0  0  0  0  0  0  0  0  0  0  0  0
  190.3810  176.9130  136.9720 C   0  0  2  0  0  3  0  0  0  0  0  0
  189.3250  176.6220  139.1340 C   0  0  2  0  0  3  0  0  0  0  0  0
  188.4910  176.1860  137.9800 C   0  0  0  0  0  3  0  0  0  0  0  0
  191.3970  176.0320  136.2640 C   0  0  0  0  0  2  0  0  0  0  0  0
  192.8230  173.2100  135.6360 N   0  0  0  0  0  0  0  0  0  0  0  0
  190.7110  173.6910  136.7090 C   0  0  0  0  0  2  0  0  0  0  0  0
  193.0360  174.1440  136.7400 C   0  0  2  0  0  3  0  0  0  0  0  0
  191.3890  172.9210  135.5920 C   0  0  0  0  0  2  0  0  0  0  0  0
  191.6900  174.7750  137.0860 C   0  0  1  0  0  3  0  0  0  0  0  0
  192.7920  170.8410  135.5810 O   0  0  0  0  0  1  0  0  0  0  0  0
  193.5560  171.9690  135.9010 C   0  0  0  0  0  2  0  0  0  0  0  0
  194.1530  175.1390  136.4010 C   0  0  0  0  0  2  0  0  0  0  0  0
  195.1060  174.2710  138.4890 O   0  0  0  0  0  0  0  0  0  0  0  0
  195.3180  175.1270  137.4010 C   0  0  1  0  0  3  0  0  0  0  0  0
  196.7050  174.8740  136.8350 C   0  0  1  0  0  3  0  0  0  0  0  0
  197.4520  174.4000  138.0470 C   0  0  2  0  0  3  0  0  0  0  0  0
  196.3730  174.1150  139.0800 C   0  0  0  0  0  2  0  0  0  0  0  0
  198.2810  175.4190  138.5140 O   0  0  0  0  0  1  0  0  0  0  0  0
  196.7360  173.7640  135.7940 C   0  0  0  0  0  1  0  0  0  0  0  0
  191.0780  177.2490  144.4440 C   0  0  0  0  0  3  0  0  0  0  0  0
  189.4190  177.9880  145.8950 C   0  0  0  0  0  3  0  0  0  0  0  0
  191.1080  176.5450  145.5630 C   0  0  0  0  0  0  0  0  0  0  0  0
  190.0760  176.9970  146.4790 C   0  0  0  0  0  3  0  0  0  0  0  0
  189.9810  178.2620  144.5330 C   0  0  2  0  0  3  0  0  0  0  0  0
  192.6140  175.3670  146.9540 O   0  0  0  0  0  0  0  0  0  0  0  0
  192.0500  175.4520  145.8310 C   0  0  0  0  0  0  0  0  0  0  0  0
  192.3280  174.4750  144.8310 N   0  0  0  0  0  1  0  0  0  0  0  0
  185.4430  179.2190  142.9510 C   0  0  0  0  0  2  0  0  0  0  0  0
  184.5100  178.6740  144.0160 C   0  0  0  0  0  2  0  0  0  0  0  0
  183.2850  179.5630  144.1110 C   0  0  0  0  0  2  0  0  0  0  0  0
  182.0090  178.7410  143.9980 C   0  0  0  0  0  2  0  0  0  0  0  0
  180.5560  180.3270  142.9790 O   0  0  0  0  0  0  0  0  0  0  0  0
  181.0000  178.4270  141.6950 N   0  0  0  0  0  2  0  0  0  0  0  0
  181.1390  179.2150  142.8790 C   0  0  0  0  0  0  0  0  0  0  0  0
  180.1920  178.8680  140.5710 C   0  0  0  0  0  2  0  0  0  0  0  0
  180.8620  178.4480  139.2720 C   0  0  0  0  0  2  0  0  0  0  0  0
  182.3830  178.6050  139.3130 C   0  0  2  0  0  3  0  0  0  0  0  0
  182.8550  179.9410  138.8230 C   0  0  0  0  0  0  0  0  0  0  0  0
  184.1520  180.3770  139.0740 O   0  0  0  0  0  1  0  0  0  0  0  0
  182.0680  180.6740  138.1730 O   0  0  0  0  0  0  0  0  0  0  0  0
  183.1400  177.3880  138.7520 C   0  0  2  0  0  3  0  0  0  0  0  0
  183.5890  177.5390  137.3280 C   0  0  0  0  0  0  0  0  0  0  0  0
  182.7330  177.5820  136.4080 O   0  0  0  0  0  0  0  0  0  0  0  0
  184.9380  177.6620  137.0180 O   0  0  0  0  0  1  0  0  0  0  0  0
  182.5550  176.1380  139.0490 O   0  0  0  0  0  0  0  0  0  0  0  0
  183.3620  175.2030  138.5820 O   0  0  0  0  0  1  0  0  0  0  0  0
  1  6  1  0  0  0  0
  2  4  1  0  0  0  0
  2  3  1  1  0  0  0
  3  5  2  0  0  0  0
  4  6  1  6  0  0  0
  4  8  1  0  0  0  0
  5  7  1  0  0  0  0
  8 39  1  1  0  0  0
  8  7  1  0  0  0  0
  9  1  1  6  0  0  0
  9  2  1  0  0  0  0
 10 13  1  0  0  0  0
 11 12  1  0  0  0  0
 11 14  2  0  0  0  0
 12 15  1  6  0  0  0
 12 10  1  0  0  0  0
 13 14  1  6  0  0  0
 13  9  1  0  0  0  0
 16 22  1  0  0  0  0
 16 18  1  0  0  0  0
 17 20  1  0  0  0  0
 18 23  1  6  0  0  0
 18 20  1  0  0  0  0
 19 16  1  0  0  0  0
 19 17  1  0  0  0  0
 20 15  1  6  0  0  0
 21 22  1  0  0  0  0
 24 28  1  0  0  0  0
 25 23  1  6  0  0  0
 25 24  1  0  0  0  0
 26 30  1  6  0  0  0
 26 25  1  0  0  0  0
 26 27  1  0  0  0  0
 27 29  1  1  0  0  0
 27 28  1  0  0  0  0
 31 35  1  0  0  0  0
 31 33  2  0  0  0  0
 32 34  2  0  0  0  0
 33 37  1  0  0  0  0
 33 34  1  0  0  0  0
 35  5  1  6  0  0  0
 35 32  1  0  0  0  0
 37 36  2  0  0  0  0
 38 37  1  0  0  0  0
 39 40  1  0  0  0  0
 40 41  1  0  0  0  0
 42 41  1  0  0  0  0
 44 45  1  0  0  0  0
 45 43  2  0  0  0  0
 45 42  1  0  0  0  0
 46 44  1  0  0  0  0
 47 46  1  0  0  0  0
 48 47  1  6  0  0  0
 49 50  1  0  0  0  0
 49 48  1  0  0  0  0
 51 49  2  0  0  0  0
 52 53  1  6  0  0  0
 52 56  1  0  0  0  0
 52 48  1  0  0  0  0
 54 53  2  0  0  0  0
 55 53  1  0  0  0  0
 57 56  1  0  0  0  0
M  END
>  <MODEL>
1

>  <REMARK>
 VINA RESULT:      -7.8      0.000      0.000
  Name = 
  20 active torsions:
  status: ('A' for Active; 'I' for Inactive)
    1  A    between atoms: C_2  and  C_10
    2  A    between atoms: C_2  and  C_29
    3  A    between atoms: C_2  and  C_51
    4  A    between atoms: N_3  and  C_31
    5  A    between atoms: N_4  and  C_36
    6  A    between atoms: O_7  and  C_51
    7  A    between atoms: C_8  and  C_51
    8  A    between atoms: C_13  and  C_52
    9  A    between atoms: C_13  and  C_55
   10  A    between atoms: C_14  and  C_38
   11  A    between atoms: C_16  and  C_38
   12  A    between atoms: C_21  and  C_41
   13  A    between atoms: C_24  and  C_39
   14  A    between atoms: C_24  and  C_53
   15  A    between atoms: C_29  and  C_31
   16  A    between atoms: C_33  and  C_40
   17  A    between atoms: C_33  and  C_57
   18  A    between atoms: C_35  and  C_47
   19  A    between atoms: C_39  and  C_52
   20  A    between atoms: C_48  and  C_54
                            x       y       z     vdW  Elec       q    Type
                         _______ _______ _______ _____ _____    ______ ____

>  <TORSDO>
F 20

$$$$
=
 OpenBabel10222417233D

 57 62  0  0  1  0  0  0  0  0999 V2000
  187.8760  178.7010  137.9460 N   0  0  0  0  0  2  0  0  0  0  0  0
  189.1630  176.7770  137.5750 C   0  0  1  0  0  3  0  0  0  0  0  0
  190.1280  176.1050  136.7130 N   0  0  0  0  0  0  0  0  0  0  0  0
  189.8710  177.7390  138.4390 C   0  0  1  0  0  3  0  0  0  0  0  0
  191.2350  175.6580  137.2480 C   0  0  0  0  0  0  0  0  0  0  0  0
  188.8060  178.5410  139.0020 N   0  0  0  0  0  2  0  0  0  0  0  0
  191.5670  176.0270  138.6110 N   0  0  0  0  0  2  0  0  0  0  0  0
  190.6930  176.9080  139.4090 C   0  0  1  0  0  3  0  0  0  0  0  0
  188.1880  177.6960  136.9130 C   0  0  1  0  0  3  0  0  0  0  0  0
  186.6650  175.7780  137.4540 C   0  0  0  0  0  2  0  0  0  0  0  0
  187.1600  174.9780  135.3020 N   0  0  0  0  0  0  0  0  0  0  0  0
  186.9930  174.5230  136.6510 C   0  0  2  0  0  3  0  0  0  0  0  0
  186.9240  176.9420  136.5000 C   0  0  2  0  0  3  0  0  0  0  0  0
  187.1330  176.2510  135.1980 C   0  0  0  0  0  3  0  0  0  0  0  0
  185.8500  173.5250  136.7260 C   0  0  0  0  0  2  0  0  0  0  0  0
  183.0500  172.1860  135.8560 N   0  0  0  0  0  0  0  0  0  0  0  0
  185.1000  172.4730  134.6090 C   0  0  0  0  0  2  0  0  0  0  0  0
  183.4480  173.5920  135.8860 C   0  0  2  0  0  3  0  0  0  0  0  0
  184.0620  171.4710  135.0770 C   0  0  0  0  0  2  0  0  0  0  0  0
  184.9260  173.6670  135.5140 C   0  0  1  0  0  3  0  0  0  0  0  0
  181.3550  173.2720  134.6040 O   0  0  0  0  0  1  0  0  0  0  0  0
  181.7520  172.0630  135.1860 C   0  0  0  0  0  2  0  0  0  0  0  0
  183.0830  174.2310  137.2310 C   0  0  0  0  0  2  0  0  0  0  0  0
  181.7750  176.1340  136.4010 O   0  0  0  0  0  0  0  0  0  0  0  0
  182.8870  175.7520  137.1620 C   0  0  1  0  0  3  0  0  0  0  0  0
  182.8640  176.5020  138.4830 C   0  0  1  0  0  3  0  0  0  0  0  0
  182.1450  177.7650  138.1100 C   0  0  2  0  0  3  0  0  0  0  0  0
  181.5490  177.4810  136.7410 C   0  0  0  0  0  2  0  0  0  0  0  0
  183.0610  178.8120  138.0070 O   0  0  0  0  0  1  0  0  0  0  0  0
  182.0550  175.7950  139.5610 C   0  0  0  0  0  1  0  0  0  0  0  0
  193.1120  174.0530  137.2240 C   0  0  0  0  0  3  0  0  0  0  0  0
  193.2360  175.8790  135.7900 C   0  0  0  0  0  3  0  0  0  0  0  0
  194.3670  174.4470  137.1000 C   0  0  0  0  0  0  0  0  0  0  0  0
  194.4590  175.5870  136.2060 C   0  0  0  0  0  3  0  0  0  0  0  0
  192.2370  174.9360  136.3900 C   0  0  2  0  0  3  0  0  0  0  0  0
  196.6240  173.7490  137.2080 O   0  0  0  0  0  0  0  0  0  0  0  0
  195.5060  173.8200  137.7830 C   0  0  0  0  0  0  0  0  0  0  0  0
  195.3600  173.2980  139.1010 N   0  0  0  0  0  1  0  0  0  0  0  0
  191.5310  177.8090  140.2960 C   0  0  0  0  0  2  0  0  0  0  0  0
  192.0130  177.0440  141.5140 C   0  0  0  0  0  2  0  0  0  0  0  0
  190.8410  176.3140  142.1420 C   0  0  0  0  0  2  0  0  0  0  0  0
  190.8980  176.4030  143.6600 C   0  0  0  0  0  2  0  0  0  0  0  0
  189.8000  178.5080  143.8420 O   0  0  0  0  0  0  0  0  0  0  0  0
  188.8470  176.7840  145.0980 N   0  0  0  0  0  2  0  0  0  0  0  0
  189.8340  177.3010  144.2040 C   0  0  0  0  0  0  0  0  0  0  0  0
  187.7770  177.6160  145.6220 C   0  0  0  0  0  2  0  0  0  0  0  0
  186.6090  177.6080  144.6480 C   0  0  0  0  0  2  0  0  0  0  0  0
  185.5780  178.6950  144.9520 C   0  0  2  0  0  3  0  0  0  0  0  0
  185.3060  178.8640  146.4160 C   0  0  0  0  0  0  0  0  0  0  0  0
  184.5730  177.9140  147.1220 O   0  0  0  0  0  1  0  0  0  0  0  0
  185.7520  179.8750  147.0160 O   0  0  0  0  0  0  0  0  0  0  0  0
  184.3320  178.6270  144.0510 C   0  0  2  0  0  3  0  0  0  0  0  0
  184.6220  178.7350  142.5810 C   0  0  0  0  0  0  0  0  0  0  0  0
  185.3490  179.6690  142.1590 O   0  0  0  0  0  1  0  0  0  0  0  0
  184.1210  177.7950  141.6890 O   0  0  0  0  0  0  0  0  0  0  0  0
  183.2410  179.4100  144.4880 O   0  0  0  0  0  0  0  0  0  0  0  0
  182.4260  179.5600  143.4600 O   0  0  0  0  0  1  0  0  0  0  0  0
  1  6  1  0  0  0  0
  2  3  1  6  0  0  0
  2  4  1  0  0  0  0
  3  5  2  0  0  0  0
  4  6  1  1  0  0  0
  4  8  1  0  0  0  0
  5  7  1  0  0  0  0
  7  8  1  0  0  0  0
  8 39  1  1  0  0  0
  9  2  1  0  0  0  0
  9  1  1  1  0  0  0
 11 12  1  0  0  0  0
 12 15  1  6  0  0  0
 12 10  1  0  0  0  0
 13 14  1  6  0  0  0
 13  9  1  0  0  0  0
 13 10  1  0  0  0  0
 14 11  2  0  0  0  0
 16 18  1  0  0  0  0
 17 19  1  0  0  0  0
 17 20  1  0  0  0  0
 18 23  1  1  0  0  0
 19 16  1  0  0  0  0
 20 18  1  0  0  0  0
 20 15  1  1  0  0  0
 21 22  1  0  0  0  0
 22 16  1  0  0  0  0
 24 28  1  0  0  0  0
 24 25  1  0  0  0  0
 25 23  1  1  0  0  0
 25 26  1  0  0  0  0
 26 30  1  1  0  0  0
 27 29  1  6  0  0  0
 27 26  1  0  0  0  0
 28 27  1  0  0  0  0
 32 34  2  0  0  0  0
 32 35  1  0  0  0  0
 33 31  2  0  0  0  0
 33 37  1  0  0  0  0
 34 33  1  0  0  0  0
 35 31  1  0  0  0  0
 35  5  1  1  0  0  0
 36 37  2  0  0  0  0
 37 38  1  0  0  0  0
 39 40  1  0  0  0  0
 40 41  1  0  0  0  0
 41 42  1  0  0  0  0
 42 45  1  0  0  0  0
 43 45  2  0  0  0  0
 44 46  1  0  0  0  0
 45 44  1  0  0  0  0
 47 46  1  0  0  0  0
 48 47  1  1  0  0  0
 48 49  1  0  0  0  0
 49 51  2  0  0  0  0
 49 50  1  0  0  0  0
 52 53  1  6  0  0  0
 52 56  1  0  0  0  0
 52 48  1  0  0  0  0
 54 53  1  0  0  0  0
 55 53  2  0  0  0  0
 57 56  1  0  0  0  0
M  END
>  <MODEL>
2

>  <REMARK>
 VINA RESULT:      -6.7      3.129      8.791
  Name = 
  20 active torsions:
  status: ('A' for Active; 'I' for Inactive)
    1  A    between atoms: C_2  and  C_10
    2  A    between atoms: C_2  and  C_29
    3  A    between atoms: C_2  and  C_51
    4  A    between atoms: N_3  and  C_31
    5  A    between atoms: N_4  and  C_36
    6  A    between atoms: O_7  and  C_51
    7  A    between atoms: C_8  and  C_51
    8  A    between atoms: C_13  and  C_52
    9  A    between atoms: C_13  and  C_55
   10  A    between atoms: C_14  and  C_38
   11  A    between atoms: C_16  and  C_38
   12  A    between atoms: C_21  and  C_41
   13  A    between atoms: C_24  and  C_39
   14  A    between atoms: C_24  and  C_53
   15  A    between atoms: C_29  and  C_31
   16  A    between atoms: C_33  and  C_40
   17  A    between atoms: C_33  and  C_57
   18  A    between atoms: C_35  and  C_47
   19  A    between atoms: C_39  and  C_52
   20  A    between atoms: C_48  and  C_54
                            x       y       z     vdW  Elec       q    Type
                         _______ _______ _______ _____ _____    ______ ____

>  <TORSDO>
F 20

$$$$
=
 OpenBabel10222417233D

 57 62  0  0  1  0  0  0  0  0999 V2000
  188.2050  178.5740  138.9580 N   0  0  0  0  0  2  0  0  0  0  0  0
  188.2440  177.2740  140.9090 C   0  0  1  0  0  3  0  0  0  0  0  0
  188.9430  176.9610  142.1500 N   0  0  0  0  0  0  0  0  0  0  0  0
  187.4460  178.4990  141.0960 C   0  0  1  0  0  3  0  0  0  0  0  0
  188.2740  177.0210  143.2720 C   0  0  0  0  0  0  0  0  0  0  0  0
  187.0670  178.8690  139.7490 N   0  0  0  0  0  2  0  0  0  0  0  0
  186.9420  177.5950  143.2780 N   0  0  0  0  0  2  0  0  0  0  0  0
  186.3240  178.1290  142.0500 C   0  0  1  0  0  3  0  0  0  0  0  0
  189.0840  177.6900  139.7450 C   0  0  1  0  0  3  0  0  0  0  0  0
  190.9960  176.5380  138.6000 C   0  0  0  0  0  2  0  0  0  0  0  0
  189.7320  176.7350  136.6290 N   0  0  0  0  0  0  0  0  0  0  0  0
  191.0760  176.8710  137.1130 C   0  0  2  0  0  3  0  0  0  0  0  0
  189.5040  176.4750  138.9150 C   0  0  2  0  0  3  0  0  0  0  0  0
  188.8840  176.5320  137.5620 C   0  0  0  0  0  3  0  0  0  0  0  0
  191.9890  175.8930  136.3930 C   0  0  0  0  0  2  0  0  0  0  0  0
  193.4980  173.0900  135.8870 N   0  0  0  0  0  0  0  0  0  0  0  0
  191.2250  173.5410  136.5760 C   0  0  0  0  0  2  0  0  0  0  0  0
  193.5060  173.9610  137.0600 C   0  0  2  0  0  3  0  0  0  0  0  0
  192.0970  172.8220  135.5630 C   0  0  0  0  0  2  0  0  0  0  0  0
  192.1210  174.5910  137.1850 C   0  0  1  0  0  3  0  0  0  0  0  0
  195.0930  171.4630  135.2330 O   0  0  0  0  0  1  0  0  0  0  0  0
  194.1660  171.8270  136.2150 C   0  0  0  0  0  2  0  0  0  0  0  0
  194.6690  174.9580  136.9890 C   0  0  0  0  0  2  0  0  0  0  0  0
  197.0030  175.1420  136.2540 O   0  0  0  0  0  0  0  0  0  0  0  0
  196.0450  174.2960  136.8270 C   0  0  1  0  0  3  0  0  0  0  0  0
  196.6400  173.6400  138.0620 C   0  0  1  0  0  3  0  0  0  0  0  0
  198.1000  173.6050  137.7200 C   0  0  2  0  0  3  0  0  0  0  0  0
  198.2370  174.5180  136.5130 C   0  0  0  0  0  2  0  0  0  0  0  0
  198.4670  172.3080  137.3620 O   0  0  0  0  0  1  0  0  0  0  0  0
  196.4670  174.4690  139.3260 C   0  0  0  0  0  1  0  0  0  0  0  0
  188.0260  176.8460  145.7230 C   0  0  0  0  0  3  0  0  0  0  0  0
  190.0420  177.6590  144.8990 C   0  0  0  0  0  3  0  0  0  0  0  0
  188.5140  177.7610  146.5420 C   0  0  0  0  0  0  0  0  0  0  0  0
  189.7740  178.2770  146.0390 C   0  0  0  0  0  3  0  0  0  0  0  0
  188.9590  176.6770  144.5660 C   0  0  2  0  0  3  0  0  0  0  0  0
  188.4880  178.1500  148.8750 O   0  0  0  0  0  0  0  0  0  0  0  0
  187.8620  178.1980  147.7830 C   0  0  0  0  0  0  0  0  0  0  0  0
  186.5240  178.6890  147.7630 N   0  0  0  0  0  1  0  0  0  0  0  0
  185.4860  179.3510  142.3760 C   0  0  0  0  0  2  0  0  0  0  0  0
  184.9120  179.2330  143.7750 C   0  0  0  0  0  2  0  0  0  0  0  0
  183.5060  179.8010  143.7890 C   0  0  0  0  0  2  0  0  0  0  0  0
  182.4730  178.6940  143.6350 C   0  0  0  0  0  2  0  0  0  0  0  0
  180.7570  180.2820  143.1870 O   0  0  0  0  0  0  0  0  0  0  0  0
  180.7020  178.3650  141.8530 N   0  0  0  0  0  2  0  0  0  0  0  0
  181.2600  179.1640  142.8980 C   0  0  0  0  0  0  0  0  0  0  0  0
  179.5450  178.8010  141.0900 C   0  0  0  0  0  2  0  0  0  0  0  0
  179.8560  178.7070  139.6050 C   0  0  0  0  0  2  0  0  0  0  0  0
  181.1410  179.4420  139.2210 C   0  0  2  0  0  3  0  0  0  0  0  0
  180.8990  180.8220  138.6880 C   0  0  0  0  0  0  0  0  0  0  0  0
  181.2960  181.1720  137.4010 O   0  0  0  0  0  0  0  0  0  0  0  0
  180.3230  181.6720  139.4130 O   0  0  0  0  0  1  0  0  0  0  0  0
  182.1200  178.5790  138.4060 C   0  0  2  0  0  3  0  0  0  0  0  0
  183.5700  178.8680  138.6680 C   0  0  0  0  0  0  0  0  0  0  0  0
  183.8850  179.7970  139.4540 O   0  0  0  0  0  1  0  0  0  0  0  0
  184.5650  178.1000  138.0760 O   0  0  0  0  0  0  0  0  0  0  0  0
  181.7920  178.4410  137.0390 O   0  0  0  0  0  0  0  0  0  0  0  0
  180.6990  177.7030  136.9690 O   0  0  0  0  0  1  0  0  0  0  0  0
  1  6  1  0  0  0  0
  2  4  1  0  0  0  0
  2  3  1  1  0  0  0
  3  5  2  0  0  0  0
  4  6  1  6  0  0  0
  4  8  1  0  0  0  0
  5  7  1  0  0  0  0
  8 39  1  1  0  0  0
  8  7  1  0  0  0  0
  9  1  1  6  0  0  0
  9  2  1  0  0  0  0
 10 13  1  0  0  0  0
 11 12  1  0  0  0  0
 11 14  2  0  0  0  0
 12 15  1  6  0  0  0
 12 10  1  0  0  0  0
 13 14  1  6  0  0  0
 13  9  1  0  0  0  0
 16 22  1  0  0  0  0
 16 18  1  0  0  0  0
 17 20  1  0  0  0  0
 18 23  1  6  0  0  0
 18 20  1  0  0  0  0
 19 16  1  0  0  0  0
 19 17  1  0  0  0  0
 20 15  1  6  0  0  0
 21 22  1  0  0  0  0
 24 28  1  0  0  0  0
 24 25  1  0  0  0  0
 25 23  1  1  0  0  0
 25 26  1  0  0  0  0
 26 30  1  1  0  0  0
 27 29  1  6  0  0  0
 27 26  1  0  0  0  0
 28 27  1  0  0  0  0
 31 33  2  0  0  0  0
 32 34  2  0  0  0  0
 33 37  1  0  0  0  0
 34 33  1  0  0  0  0
 35  5  1  6  0  0  0
 35 32  1  0  0  0  0
 35 31  1  0  0  0  0
 37 36  2  0  0  0  0
 38 37  1  0  0  0  0
 39 40  1  0  0  0  0
 40 41  1  0  0  0  0
 42 41  1  0  0  0  0
 44 45  1  0  0  0  0
 45 43  2  0  0  0  0
 45 42  1  0  0  0  0
 46 44  1  0  0  0  0
 47 46  1  0  0  0  0
 48 47  1  6  0  0  0
 49 48  1  0  0  0  0
 49 51  1  0  0  0  0
 50 49  2  0  0  0  0
 52 56  1  6  0  0  0
 52 53  1  0  0  0  0
 52 48  1  0  0  0  0
 53 54  1  0  0  0  0
 55 53  2  0  0  0  0
 57 56  1  0  0  0  0
M  END
>  <MODEL>
3

>  <REMARK>
 VINA RESULT:      -6.6      1.590      2.246
  Name = 
  20 active torsions:
  status: ('A' for Active; 'I' for Inactive)
    1  A    between atoms: C_2  and  C_10
    2  A    between atoms: C_2  and  C_29
    3  A    between atoms: C_2  and  C_51
    4  A    between atoms: N_3  and  C_31
    5  A    between atoms: N_4  and  C_36
    6  A    between atoms: O_7  and  C_51
    7  A    between atoms: C_8  and  C_51
    8  A    between atoms: C_13  and  C_52
    9  A    between atoms: C_13  and  C_55
   10  A    between atoms: C_14  and  C_38
   11  A    between atoms: C_16  and  C_38
   12  A    between atoms: C_21  and  C_41
   13  A    between atoms: C_24  and  C_39
   14  A    between atoms: C_24  and  C_53
   15  A    between atoms: C_29  and  C_31
   16  A    between atoms: C_33  and  C_40
   17  A    between atoms: C_33  and  C_57
   18  A    between atoms: C_35  and  C_47
   19  A    between atoms: C_39  and  C_52
   20  A    between atoms: C_48  and  C_54
                            x       y       z     vdW  Elec       q    Type
                         _______ _______ _______ _____ _____    ______ ____

>  <TORSDO>
F 20

$$$$
=
 OpenBabel10222417233D

 57 62  0  0  1  0  0  0  0  0999 V2000
  188.6620  177.3740  140.9930 N   0  0  0  0  0  2  0  0  0  0  0  0
  190.3250  176.6750  139.4950 C   0  0  1  0  0  3  0  0  0  0  0  0
  190.8540  175.5830  138.6860 N   0  0  0  0  0  0  0  0  0  0  0  0
  189.1930  177.2990  138.7880 C   0  0  1  0  0  3  0  0  0  0  0  0
  191.0460  175.7920  137.4090 C   0  0  0  0  0  0  0  0  0  0  0  0
  188.5750  178.1300  139.7980 N   0  0  0  0  0  2  0  0  0  0  0  0
  190.5350  177.0050  136.8010 N   0  0  0  0  0  2  0  0  0  0  0  0
  189.7890  178.0080  137.5830 C   0  0  1  0  0  3  0  0  0  0  0  0
  189.6540  176.3030  140.7780 C   0  0  1  0  0  3  0  0  0  0  0  0
  189.9590  176.5410  143.2560 C   0  0  0  0  0  2  0  0  0  0  0  0
  191.4630  178.2730  142.7490 N   0  0  0  0  0  0  0  0  0  0  0  0
  190.4060  177.9420  143.6600 C   0  0  2  0  0  3  0  0  0  0  0  0
  190.6600  176.2660  141.9280 C   0  0  2  0  0  3  0  0  0  0  0  0
  191.6110  177.4060  141.8220 C   0  0  0  0  0  3  0  0  0  0  0  0
  190.9290  177.9470  145.0870 C   0  0  0  0  0  2  0  0  0  0  0  0
  189.3140  178.1950  147.8650 N   0  0  0  0  0  0  0  0  0  0  0  0
  190.9690  176.5830  147.1570 C   0  0  0  0  0  2  0  0  0  0  0  0
  188.9060  177.6020  146.5930 C   0  0  2  0  0  3  0  0  0  0  0  0
  190.5930  177.5860  148.2310 C   0  0  0  0  0  2  0  0  0  0  0  0
  190.1400  176.9670  145.9570 C   0  0  1  0  0  3  0  0  0  0  0  0
  187.7740  176.6000  148.7030 O   0  0  0  0  0  1  0  0  0  0  0  0
  188.3180  177.8760  148.8920 C   0  0  0  0  0  2  0  0  0  0  0  0
  188.1830  178.6340  145.7200 C   0  0  0  0  0  2  0  0  0  0  0  0
  186.2830  177.1150  146.0360 O   0  0  0  0  0  0  0  0  0  0  0  0
  186.6760  178.3780  145.5760 C   0  0  1  0  0  3  0  0  0  0  0  0
  185.7430  179.4280  146.1550 C   0  0  1  0  0  3  0  0  0  0  0  0
  184.4740  178.6490  146.3350 C   0  0  2  0  0  3  0  0  0  0  0  0
  184.8840  177.1960  146.1630 C   0  0  0  0  0  2  0  0  0  0  0  0
  183.5670  178.9940  145.3320 O   0  0  0  0  0  1  0  0  0  0  0  0
  186.1850  179.9370  147.5200 C   0  0  0  0  0  1  0  0  0  0  0  0
  192.6100  173.8820  137.3240 C   0  0  0  0  0  3  0  0  0  0  0  0
  192.4620  175.2390  135.4420 C   0  0  0  0  0  3  0  0  0  0  0  0
  193.7900  173.9710  136.7350 C   0  0  0  0  0  0  0  0  0  0  0  0
  193.7110  174.8160  135.5570 C   0  0  0  0  0  3  0  0  0  0  0  0
  191.6170  174.6940  136.5540 C   0  0  2  0  0  3  0  0  0  0  0  0
  195.9450  173.0510  136.4130 O   0  0  0  0  0  0  0  0  0  0  0  0
  195.0110  173.3110  137.2160 C   0  0  0  0  0  0  0  0  0  0  0  0
  195.1530  172.9690  138.5920 N   0  0  0  0  0  1  0  0  0  0  0  0
  188.6890  178.6180  136.7350 C   0  0  0  0  0  2  0  0  0  0  0  0
  188.4960  177.8090  135.4660 C   0  0  0  0  0  2  0  0  0  0  0  0
  187.0760  177.2790  135.4220 C   0  0  0  0  0  2  0  0  0  0  0  0
  186.2310  177.9010  136.5240 C   0  0  0  0  0  2  0  0  0  0  0  0
  185.7990  175.7030  137.3310 O   0  0  0  0  0  0  0  0  0  0  0  0
  184.1090  177.2600  137.7510 N   0  0  0  0  0  2  0  0  0  0  0  0
  185.3760  176.8840  137.2100 C   0  0  0  0  0  0  0  0  0  0  0  0
  183.2640  176.3100  138.4550 C   0  0  0  0  0  2  0  0  0  0  0  0
  182.9480  176.8470  139.8420 C   0  0  0  0  0  2  0  0  0  0  0  0
  183.2550  178.3390  139.9840 C   0  0  2  0  0  3  0  0  0  0  0  0
  184.4170  178.6220  140.8880 C   0  0  0  0  0  0  0  0  0  0  0  0
  184.5450  177.9750  142.1130 O   0  0  0  0  0  1  0  0  0  0  0  0
  185.2910  179.4520  140.5300 O   0  0  0  0  0  0  0  0  0  0  0  0
  182.0040  179.2030  140.2220 C   0  0  2  0  0  3  0  0  0  0  0  0
  181.1250  178.7270  141.3420 C   0  0  0  0  0  0  0  0  0  0  0  0
  181.4100  179.0340  142.5280 O   0  0  0  0  0  1  0  0  0  0  0  0
  179.9840  177.9790  141.0800 O   0  0  0  0  0  0  0  0  0  0  0  0
  181.3070  179.5720  139.0510 O   0  0  0  0  0  0  0  0  0  0  0  0
  181.6420  180.8170  138.7690 O   0  0  0  0  0  1  0  0  0  0  0  0
  2  3  1  6  0  0  0
  2  9  1  0  0  0  0
  4  2  1  0  0  0  0
  4  6  1  1  0  0  0
  5  3  2  0  0  0  0
  6  1  1  0  0  0  0
  7  5  1  0  0  0  0
  7  8  1  0  0  0  0
  8 39  1  6  0  0  0
  8  4  1  0  0  0  0
  9  1  1  1  0  0  0
  9 13  1  0  0  0  0
 10 12  1  0  0  0  0
 11 12  1  0  0  0  0
 12 15  1  1  0  0  0
 13 14  1  6  0  0  0
 13 10  1  0  0  0  0
 14 11  2  0  0  0  0
 16 19  1  0  0  0  0
 16 22  1  0  0  0  0
 17 19  1  0  0  0  0
 18 23  1  6  0  0  0
 18 16  1  0  0  0  0
 20 15  1  6  0  0  0
 20 18  1  0  0  0  0
 20 17  1  0  0  0  0
 21 22  1  0  0  0  0
 24 28  1  0  0  0  0
 25 23  1  1  0  0  0
 25 24  1  0  0  0  0
 25 26  1  0  0  0  0
 26 27  1  0  0  0  0
 26 30  1  1  0  0  0
 27 29  1  6  0  0  0
 28 27  1  0  0  0  0
 32 34  2  0  0  0  0
 32 35  1  0  0  0  0
 33 37  1  0  0  0  0
 33 31  2  0  0  0  0
 34 33  1  0  0  0  0
 35 31  1  0  0  0  0
 35  5  1  1  0  0  0
 36 37  2  0  0  0  0
 37 38  1  0  0  0  0
 40 39  1  0  0  0  0
 41 40  1  0  0  0  0
 41 42  1  0  0  0  0
 42 45  1  0  0  0  0
 44 46  1  0  0  0  0
 45 43  2  0  0  0  0
 45 44  1  0  0  0  0
 46 47  1  0  0  0  0
 48 47  1  1  0  0  0
 48 52  1  0  0  0  0
 48 49  1  0  0  0  0
 49 50  1  0  0  0  0
 51 49  2  0  0  0  0
 52 56  1  6  0  0  0
 52 53  1  0  0  0  0
 53 54  1  0  0  0  0
 55 53  2  0  0  0  0
 57 56  1  0  0  0  0
M  END
>  <MODEL>
4

>  <REMARK>
 VINA RESULT:      -6.5      2.453      9.098
  Name = 
  20 active torsions:
  status: ('A' for Active; 'I' for Inactive)
    1  A    between atoms: C_2  and  C_10
    2  A    between atoms: C_2  and  C_29
    3  A    between atoms: C_2  and  C_51
    4  A    between atoms: N_3  and  C_31
    5  A    between atoms: N_4  and  C_36
    6  A    between atoms: O_7  and  C_51
    7  A    between atoms: C_8  and  C_51
    8  A    between atoms: C_13  and  C_52
    9  A    between atoms: C_13  and  C_55
   10  A    between atoms: C_14  and  C_38
   11  A    between atoms: C_16  and  C_38
   12  A    between atoms: C_21  and  C_41
   13  A    between atoms: C_24  and  C_39
   14  A    between atoms: C_24  and  C_53
   15  A    between atoms: C_29  and  C_31
   16  A    between atoms: C_33  and  C_40
   17  A    between atoms: C_33  and  C_57
   18  A    between atoms: C_35  and  C_47
   19  A    between atoms: C_39  and  C_52
   20  A    between atoms: C_48  and  C_54
                            x       y       z     vdW  Elec       q    Type
                         _______ _______ _______ _____ _____    ______ ____

>  <TORSDO>
F 20

$$$$
=
 OpenBabel10222417233D

 57 62  0  0  1  0  0  0  0  0999 V2000
  191.1890  176.7950  139.5750 N   0  0  0  0  0  2  0  0  0  0  0  0
  188.9090  176.7730  139.0270 C   0  0  1  0  0  3  0  0  0  0  0  0
  187.8070  177.4700  138.3750 N   0  0  0  0  0  0  0  0  0  0  0  0
  189.7140  176.0760  138.0070 C   0  0  1  0  0  3  0  0  0  0  0  0
  187.1170  176.8300  137.4670 C   0  0  0  0  0  0  0  0  0  0  0  0
  190.9160  175.6990  138.7190 N   0  0  0  0  0  2  0  0  0  0  0  0
  187.5910  175.5470  136.9850 N   0  0  0  0  0  2  0  0  0  0  0  0
  188.8430  174.9480  137.4830 C   0  0  1  0  0  3  0  0  0  0  0  0
  189.9690  177.6190  139.6560 C   0  0  1  0  0  3  0  0  0  0  0  0
  188.9000  176.7430  141.7490 C   0  0  0  0  0  2  0  0  0  0  0  0
  187.4710  178.6030  141.6130 N   0  0  0  0  0  0  0  0  0  0  0  0
  187.4530  177.1990  141.9040 C   0  0  2  0  0  3  0  0  0  0  0  0
  189.6250  177.9270  141.1140 C   0  0  2  0  0  3  0  0  0  0  0  0
  188.6050  179.0090  141.1890 C   0  0  0  0  0  3  0  0  0  0  0  0
  186.9660  176.9680  143.3250 C   0  0  0  0  0  2  0  0  0  0  0  0
  186.3650  177.7700  146.3880 N   0  0  0  0  0  0  0  0  0  0  0  0
  185.4110  178.6140  144.3340 C   0  0  0  0  0  2  0  0  0  0  0  0
  187.4360  178.2100  145.4960 C   0  0  2  0  0  3  0  0  0  0  0  0
  185.1020  178.0020  145.6880 C   0  0  0  0  0  2  0  0  0  0  0  0
  186.8640  178.2930  144.0840 C   0  0  1  0  0  3  0  0  0  0  0  0
  187.4950  178.2600  148.4130 O   0  0  0  0  0  1  0  0  0  0  0  0
  186.3910  178.5740  147.6130 C   0  0  0  0  0  2  0  0  0  0  0  0
  188.6710  177.3140  145.6460 C   0  0  0  0  0  2  0  0  0  0  0  0
  190.1820  178.9860  144.6750 O   0  0  0  0  0  0  0  0  0  0  0  0
  189.7970  177.6390  144.6540 C   0  0  1  0  0  3  0  0  0  0  0  0
  191.0410  176.7690  144.7180 C   0  0  1  0  0  3  0  0  0  0  0  0
  192.0680  177.6480  144.0690 C   0  0  2  0  0  3  0  0  0  0  0  0
  191.4170  179.0200  144.0020 C   0  0  0  0  0  2  0  0  0  0  0  0
  192.3220  177.1940  142.7740 O   0  0  0  0  0  1  0  0  0  0  0  0
  191.4970  176.4760  146.1400 C   0  0  0  0  0  1  0  0  0  0  0  0
  184.9460  177.9560  137.8060 C   0  0  0  0  0  3  0  0  0  0  0  0
  185.1580  176.5580  135.9610 C   0  0  0  0  0  3  0  0  0  0  0  0
  183.7970  177.3490  137.5640 C   0  0  0  0  0  0  0  0  0  0  0  0
  183.9160  176.4720  136.4120 C   0  0  0  0  0  3  0  0  0  0  0  0
  185.9570  177.5130  136.7960 C   0  0  2  0  0  3  0  0  0  0  0  0
  182.5450  177.1560  139.5600 O   0  0  0  0  0  0  0  0  0  0  0  0
  182.5760  177.5310  138.3590 C   0  0  0  0  0  0  0  0  0  0  0  0
  181.4240  178.1410  137.7840 N   0  0  0  0  0  1  0  0  0  0  0  0
  189.5520  174.2130  136.3610 C   0  0  0  0  0  2  0  0  0  0  0  0
  190.0710  175.2020  135.3340 C   0  0  0  0  0  2  0  0  0  0  0  0
  191.5460  174.9460  135.0930 C   0  0  0  0  0  2  0  0  0  0  0  0
  192.3710  176.1830  135.4180 C   0  0  0  0  0  2  0  0  0  0  0  0
  194.6550  176.7650  135.7560 O   0  0  0  0  0  0  0  0  0  0  0  0
  194.3040  174.7040  134.7130 N   0  0  0  0  0  2  0  0  0  0  0  0
  193.8380  175.9190  135.3020 C   0  0  0  0  0  0  0  0  0  0  0  0
  195.7210  174.3950  134.6120 C   0  0  0  0  0  2  0  0  0  0  0  0
  196.0240  173.1500  135.4300 C   0  0  0  0  0  2  0  0  0  0  0  0
  197.1460  173.3680  136.4470 C   0  0  2  0  0  3  0  0  0  0  0  0
  198.1970  172.3000  136.4080 C   0  0  0  0  0  0  0  0  0  0  0  0
  198.6550  171.7900  135.1970 O   0  0  0  0  0  0  0  0  0  0  0  0
  198.6750  171.8630  137.4860 O   0  0  0  0  0  1  0  0  0  0  0  0
  196.6370  173.7460  137.8490 C   0  0  2  0  0  3  0  0  0  0  0  0
  195.3060  173.1530  138.2080 C   0  0  0  0  0  0  0  0  0  0  0  0
  194.2700  173.8630  138.1340 O   0  0  0  0  0  0  0  0  0  0  0  0
  195.2010  171.8210  138.5900 O   0  0  0  0  0  1  0  0  0  0  0  0
  196.7750  175.1120  138.1800 O   0  0  0  0  0  0  0  0  0  0  0  0
  198.0670  175.3640  138.2830 O   0  0  0  0  0  1  0  0  0  0  0  0
  2  3  1  6  0  0  0
  2  9  1  0  0  0  0
  4  6  1  1  0  0  0
  4  2  1  0  0  0  0
  5  3  2  0  0  0  0
  6  1  1  0  0  0  0
  7  5  1  0  0  0  0
  7  8  1  0  0  0  0
  8 39  1  6  0  0  0
  8  4  1  0  0  0  0
  9  1  1  1  0  0  0
  9 13  1  0  0  0  0
 10 12  1  0  0  0  0
 11 12  1  0  0  0  0
 12 15  1  1  0  0  0
 13 14  1  6  0  0  0
 13 10  1  0  0  0  0
 14 11  2  0  0  0  0
 16 22  1  0  0  0  0
 17 19  1  0  0  0  0
 18 23  1  6  0  0  0
 18 16  1  0  0  0  0
 19 16  1  0  0  0  0
 20 15  1  1  0  0  0
 20 17  1  0  0  0  0
 20 18  1  0  0  0  0
 22 21  1  0  0  0  0
 25 24  1  0  0  0  0
 25 26  1  0  0  0  0
 25 23  1  1  0  0  0
 26 30  1  1  0  0  0
 27 29  1  6  0  0  0
 27 26  1  0  0  0  0
 28 27  1  0  0  0  0
 28 24  1  0  0  0  0
 32 34  2  0  0  0  0
 32 35  1  0  0  0  0
 33 31  2  0  0  0  0
 33 37  1  0  0  0  0
 34 33  1  0  0  0  0
 35  5  1  1  0  0  0
 35 31  1  0  0  0  0
 37 36  2  0  0  0  0
 38 37  1  0  0  0  0
 40 39  1  0  0  0  0
 41 40  1  0  0  0  0
 41 42  1  0  0  0  0
 44 45  1  0  0  0  0
 45 42  1  0  0  0  0
 45 43  2  0  0  0  0
 46 44  1  0  0  0  0
 46 47  1  0  0  0  0
 48 47  1  6  0  0  0
 48 52  1  0  0  0  0
 49 48  1  0  0  0  0
 49 51  1  0  0  0  0
 50 49  2  0  0  0  0
 52 56  1  6  0  0  0
 52 53  1  0  0  0  0
 53 55  1  0  0  0  0
 54 53  2  0  0  0  0
 56 57  1  0  0  0  0
M  END
>  <MODEL>
5

>  <REMARK>
 VINA RESULT:      -6.4      2.359     11.431
  Name = 
  20 active torsions:
  status: ('A' for Active; 'I' for Inactive)
    1  A    between atoms: C_2  and  C_10
    2  A    between atoms: C_2  and  C_29
    3  A    between atoms: C_2  and  C_51
    4  A    between atoms: N_3  and  C_31
    5  A    between atoms: N_4  and  C_36
    6  A    between atoms: O_7  and  C_51
    7  A    between atoms: C_8  and  C_51
    8  A    between atoms: C_13  and  C_52
    9  A    between atoms: C_13  and  C_55
   10  A    between atoms: C_14  and  C_38
   11  A    between atoms: C_16  and  C_38
   12  A    between atoms: C_21  and  C_41
   13  A    between atoms: C_24  and  C_39
   14  A    between atoms: C_24  and  C_53
   15  A    between atoms: C_29  and  C_31
   16  A    between atoms: C_33  and  C_40
   17  A    between atoms: C_33  and  C_57
   18  A    between atoms: C_35  and  C_47
   19  A    between atoms: C_39  and  C_52
   20  A    between atoms: C_48  and  C_54
                            x       y       z     vdW  Elec       q    Type
                         _______ _______ _______ _____ _____    ______ ____

>  <TORSDO>
F 20

$$$$
=
 OpenBabel10222417233D

 57 62  0  0  1  0  0  0  0  0999 V2000
  185.0620  179.6820  141.0820 N   0  0  0  0  0  2  0  0  0  0  0  0
  185.7000  178.1590  139.4170 C   0  0  1  0  0  3  0  0  0  0  0  0
  186.0370  177.9620  138.0130 N   0  0  0  0  0  0  0  0  0  0  0  0
  186.8720  178.7030  140.1260 C   0  0  1  0  0  3  0  0  0  0  0  0
  187.1750  177.3880  137.7210 C   0  0  0  0  0  0  0  0  0  0  0  0
  186.3320  179.1390  141.3960 N   0  0  0  0  0  2  0  0  0  0  0  0
  188.1510  177.1660  138.7710 N   0  0  0  0  0  2  0  0  0  0  0  0
  187.8980  177.5840  140.1630 C   0  0  1  0  0  3  0  0  0  0  0  0
  184.6960  179.2220  139.7300 C   0  0  1  0  0  3  0  0  0  0  0  0
  183.2580  177.2880  139.0320 C   0  0  0  0  0  2  0  0  0  0  0  0
  182.0180  178.8550  137.7970 N   0  0  0  0  0  0  0  0  0  0  0  0
  182.5570  177.5290  137.7000 C   0  0  2  0  0  3  0  0  0  0  0  0
  183.2780  178.6480  139.7250 C   0  0  2  0  0  3  0  0  0  0  0  0
  182.3900  179.4670  138.8550 C   0  0  0  0  0  3  0  0  0  0  0  0
  181.4340  176.5260  137.4950 C   0  0  0  0  0  2  0  0  0  0  0  0
  180.1640  173.5670  137.6390 N   0  0  0  0  0  0  0  0  0  0  0  0
  180.3680  175.2660  139.3460 C   0  0  0  0  0  2  0  0  0  0  0  0
  181.5580  173.9950  137.7390 C   0  0  2  0  0  3  0  0  0  0  0  0
  179.4060  174.3460  138.6190 C   0  0  0  0  0  2  0  0  0  0  0  0
  181.5830  175.3430  138.4540 C   0  0  1  0  0  3  0  0  0  0  0  0
  179.5010  171.4030  136.9340 O   0  0  0  0  0  1  0  0  0  0  0  0
  180.0680  172.1440  137.9770 C   0  0  0  0  0  2  0  0  0  0  0  0
  182.2320  173.9780  136.3620 C   0  0  0  0  0  2  0  0  0  0  0  0
  184.2700  173.6690  137.6910 O   0  0  0  0  0  0  0  0  0  0  0  0
  183.7200  173.6060  136.4040 C   0  0  1  0  0  3  0  0  0  0  0  0
  184.1170  172.2870  135.7610 C   0  0  1  0  0  3  0  0  0  0  0  0
  185.4270  171.9970  136.4320 C   0  0  2  0  0  3  0  0  0  0  0  0
  185.4880  172.9700  137.5980 C   0  0  0  0  0  2  0  0  0  0  0  0
  186.4740  172.2660  135.5500 O   0  0  0  0  0  1  0  0  0  0  0  0
  183.1570  171.1500  136.0800 C   0  0  0  0  0  1  0  0  0  0  0  0
  188.0010  175.7360  136.0820 C   0  0  0  0  0  3  0  0  0  0  0  0
  188.7520  177.9260  135.8760 C   0  0  0  0  0  3  0  0  0  0  0  0
  189.2480  175.7480  135.6440 C   0  0  0  0  0  0  0  0  0  0  0  0
  189.7290  177.1120  135.5100 C   0  0  0  0  0  3  0  0  0  0  0  0
  187.5390  177.1450  136.2820 C   0  0  2  0  0  3  0  0  0  0  0  0
  191.1860  174.6540  134.8460 O   0  0  0  0  0  0  0  0  0  0  0  0
  190.0350  174.5450  135.3450 C   0  0  0  0  0  0  0  0  0  0  0  0
  189.5110  173.2500  135.6250 N   0  0  0  0  0  1  0  0  0  0  0  0
  189.1850  178.0700  140.8030 C   0  0  0  0  0  2  0  0  0  0  0  0
  190.3550  177.2270  140.3310 C   0  0  0  0  0  2  0  0  0  0  0  0
  191.6220  177.7020  141.0160 C   0  0  0  0  0  2  0  0  0  0  0  0
  191.9360  176.8420  142.2310 C   0  0  0  0  0  2  0  0  0  0  0  0
  191.7970  178.5640  143.8680 O   0  0  0  0  0  0  0  0  0  0  0  0
  190.3860  176.7390  144.2320 N   0  0  0  0  0  2  0  0  0  0  0  0
  191.3880  177.4350  143.4890 C   0  0  0  0  0  0  0  0  0  0  0  0
  189.8030  177.2960  145.4410 C   0  0  0  0  0  2  0  0  0  0  0  0
  188.2870  177.2960  145.3160 C   0  0  0  0  0  2  0  0  0  0  0  0
  187.5990  178.0330  146.4660 C   0  0  2  0  0  3  0  0  0  0  0  0
  188.1980  177.7330  147.8070 C   0  0  0  0  0  0  0  0  0  0  0  0
  189.0310  178.6510  148.4400 O   0  0  0  0  0  1  0  0  0  0  0  0
  187.9410  176.6390  148.3690 O   0  0  0  0  0  0  0  0  0  0  0  0
  186.0620  177.9740  146.3990 C   0  0  2  0  0  3  0  0  0  0  0  0
  185.4860  178.3000  145.0520 C   0  0  0  0  0  0  0  0  0  0  0  0
  186.1530  178.0530  144.0150 O   0  0  0  0  0  0  0  0  0  0  0  0
  184.2120  178.8420  144.9370 O   0  0  0  0  0  1  0  0  0  0  0  0
  185.3980  178.5910  147.4820 O   0  0  0  0  0  0  0  0  0  0  0  0
  185.6820  179.8800  147.4360 O   0  0  0  0  0  1  0  0  0  0  0  0
  1  6  1  0  0  0  0
  2  3  1  6  0  0  0
  2  9  1  0  0  0  0
  2  4  1  0  0  0  0
  4  8  1  0  0  0  0
  4  6  1  1  0  0  0
  5  3  2  0  0  0  0
  5  7  1  0  0  0  0
  7  8  1  0  0  0  0
  8 39  1  6  0  0  0
  9  1  1  1  0  0  0
 10 13  1  0  0  0  0
 11 14  2  0  0  0  0
 12 15  1  1  0  0  0
 12 11  1  0  0  0  0
 12 10  1  0  0  0  0
 13 14  1  6  0  0  0
 13  9  1  0  0  0  0
 16 18  1  0  0  0  0
 16 22  1  0  0  0  0
 16 19  1  0  0  0  0
 18 23  1  6  0  0  0
 18 20  1  0  0  0  0
 19 17  1  0  0  0  0
 20 15  1  6  0  0  0
 20 17  1  0  0  0  0
 21 22  1  0  0  0  0
 25 23  1  1  0  0  0
 25 24  1  0  0  0  0
 26 30  1  1  0  0  0
 26 25  1  0  0  0  0
 26 27  1  0  0  0  0
 27 29  1  6  0  0  0
 27 28  1  0  0  0  0
 28 24  1  0  0  0  0
 31 35  1  0  0  0  0
 32 35  1  0  0  0  0
 33 31  2  0  0  0  0
 34 33  1  0  0  0  0
 34 32  2  0  0  0  0
 35  5  1  1  0  0  0
 36 37  2  0  0  0  0
 37 38  1  0  0  0  0
 37 33  1  0  0  0  0
 40 39  1  0  0  0  0
 40 41  1  0  0  0  0
 41 42  1  0  0  0  0
 42 45  1  0  0  0  0
 44 46  1  0  0  0  0
 45 43  2  0  0  0  0
 45 44  1  0  0  0  0
 47 46  1  0  0  0  0
 48 47  1  6  0  0  0
 48 49  1  0  0  0  0
 49 51  2  0  0  0  0
 49 50  1  0  0  0  0
 52 53  1  6  0  0  0
 52 48  1  0  0  0  0
 52 56  1  0  0  0  0
 54 53  2  0  0  0  0
 55 53  1  0  0  0  0
 57 56  1  0  0  0  0
M  END
>  <MODEL>
6

>  <REMARK>
 VINA RESULT:      -6.3      3.583      9.642
  Name = 
  20 active torsions:
  status: ('A' for Active; 'I' for Inactive)
    1  A    between atoms: C_2  and  C_10
    2  A    between atoms: C_2  and  C_29
    3  A    between atoms: C_2  and  C_51
    4  A    between atoms: N_3  and  C_31
    5  A    between atoms: N_4  and  C_36
    6  A    between atoms: O_7  and  C_51
    7  A    between atoms: C_8  and  C_51
    8  A    between atoms: C_13  and  C_52
    9  A    between atoms: C_13  and  C_55
   10  A    between atoms: C_14  and  C_38
   11  A    between atoms: C_16  and  C_38
   12  A    between atoms: C_21  and  C_41
   13  A    between atoms: C_24  and  C_39
   14  A    between atoms: C_24  and  C_53
   15  A    between atoms: C_29  and  C_31
   16  A    between atoms: C_33  and  C_40
   17  A    between atoms: C_33  and  C_57
   18  A    between atoms: C_35  and  C_47
   19  A    between atoms: C_39  and  C_52
   20  A    between atoms: C_48  and  C_54
                            x       y       z     vdW  Elec       q    Type
                         _______ _______ _______ _____ _____    ______ ____

>  <TORSDO>
F 20

$$$$
=
 OpenBabel10222417233D

 57 62  0  0  1  0  0  0  0  0999 V2000
  191.5430  177.1790  139.8840 N   0  0  0  0  0  2  0  0  0  0  0  0
  189.2830  177.0670  139.2700 C   0  0  1  0  0  3  0  0  0  0  0  0
  188.1130  177.7960  138.7940 N   0  0  0  0  0  0  0  0  0  0  0  0
  190.1660  176.7680  138.1280 C   0  0  1  0  0  3  0  0  0  0  0  0
  187.5030  177.3610  137.7220 C   0  0  0  0  0  0  0  0  0  0  0  0
  191.3990  176.3390  138.7520 N   0  0  0  0  0  2  0  0  0  0  0  0
  188.1200  176.3190  136.9250 N   0  0  0  0  0  2  0  0  0  0  0  0
  189.4290  175.7420  137.2840 C   0  0  1  0  0  3  0  0  0  0  0  0
  190.2380  177.8150  140.1430 C   0  0  1  0  0  3  0  0  0  0  0  0
  190.7850  178.5070  142.4910 C   0  0  0  0  0  2  0  0  0  0  0  0
  191.0830  176.2190  142.9320 N   0  0  0  0  0  0  0  0  0  0  0  0
  191.6730  177.4960  143.2090 C   0  0  2  0  0  3  0  0  0  0  0  0
  189.8540  177.6710  141.6170 C   0  0  2  0  0  3  0  0  0  0  0  0
  190.1250  176.2850  142.0900 C   0  0  0  0  0  3  0  0  0  0  0  0
  191.6780  177.7530  144.7070 C   0  0  0  0  0  2  0  0  0  0  0  0
  190.1110  177.7290  147.5230 N   0  0  0  0  0  0  0  0  0  0  0  0
  191.5930  176.0900  146.5450 C   0  0  0  0  0  2  0  0  0  0  0  0
  189.6390  177.3810  146.1850 C   0  0  2  0  0  3  0  0  0  0  0  0
  191.3240  176.9480  147.7660 C   0  0  0  0  0  2  0  0  0  0  0  0
  190.7990  176.7320  145.4340 C   0  0  1  0  0  3  0  0  0  0  0  0
  188.2650  176.3320  148.0340 O   0  0  0  0  0  1  0  0  0  0  0  0
  189.0930  177.3550  148.5100 C   0  0  0  0  0  2  0  0  0  0  0  0
  189.0170  178.6000  145.4930 C   0  0  0  0  0  2  0  0  0  0  0  0
  187.6830  176.8970  144.3350 O   0  0  0  0  0  0  0  0  0  0  0  0
  187.8000  178.2640  144.6200 C   0  0  1  0  0  3  0  0  0  0  0  0
  186.4530  178.7880  145.0900 C   0  0  1  0  0  3  0  0  0  0  0  0
  185.5000  177.8720  144.3820 C   0  0  2  0  0  3  0  0  0  0  0  0
  186.3680  176.7390  143.8600 C   0  0  0  0  0  2  0  0  0  0  0  0
  184.9190  178.5420  143.3050 O   0  0  0  0  0  1  0  0  0  0  0  0
  186.2370  178.6330  146.5880 C   0  0  0  0  0  1  0  0  0  0  0  0
  185.3970  178.4800  138.3630 C   0  0  0  0  0  3  0  0  0  0  0  0
  185.3760  177.1580  136.4510 C   0  0  0  0  0  3  0  0  0  0  0  0
  184.2220  177.8870  138.2350 C   0  0  0  0  0  0  0  0  0  0  0  0
  184.1970  177.0580  137.0430 C   0  0  0  0  0  3  0  0  0  0  0  0
  186.2770  178.0750  137.2230 C   0  0  2  0  0  3  0  0  0  0  0  0
  183.1740  177.5240  140.3230 O   0  0  0  0  0  0  0  0  0  0  0  0
  183.1070  178.0410  139.1760 C   0  0  0  0  0  0  0  0  0  0  0  0
  181.9460  178.7810  138.8070 N   0  0  0  0  0  1  0  0  0  0  0  0
  190.2210  175.4250  136.0300 C   0  0  0  0  0  2  0  0  0  0  0  0
  189.4740  174.4150  135.1800 C   0  0  0  0  0  2  0  0  0  0  0  0
  189.7560  173.0180  135.6970 C   0  0  0  0  0  2  0  0  0  0  0  0
  190.3210  172.1350  134.5940 C   0  0  0  0  0  2  0  0  0  0  0  0
  191.9010  170.3640  134.7750 O   0  0  0  0  0  0  0  0  0  0  0  0
  192.6800  172.4560  135.4590 N   0  0  0  0  0  2  0  0  0  0  0  0
  191.6650  171.5890  134.9520 C   0  0  0  0  0  0  0  0  0  0  0  0
  194.0100  171.9710  135.7870 C   0  0  0  0  0  2  0  0  0  0  0  0
  195.0020  173.1210  135.7040 C   0  0  0  0  0  2  0  0  0  0  0  0
  196.1400  172.9960  136.7180 C   0  0  2  0  0  3  0  0  0  0  0  0
  195.8550  172.0100  137.8110 C   0  0  0  0  0  0  0  0  0  0  0  0
  195.0510  172.3540  138.8930 O   0  0  0  0  0  1  0  0  0  0  0  0
  196.3460  170.8550  137.7450 O   0  0  0  0  0  0  0  0  0  0  0  0
  196.7010  174.3520  137.1780 C   0  0  2  0  0  3  0  0  0  0  0  0
  197.4270  175.1200  136.1110 C   0  0  0  0  0  0  0  0  0  0  0  0
  198.1450  174.5030  135.2830 O   0  0  0  0  0  0  0  0  0  0  0  0
  197.2870  176.4980  136.0090 O   0  0  0  0  0  1  0  0  0  0  0  0
  197.3600  174.3280  138.4270 O   0  0  0  0  0  0  0  0  0  0  0  0
  196.8000  175.2510  139.1870 O   0  0  0  0  0  1  0  0  0  0  0  0
  2  3  1  6  0  0  0
  2  9  1  0  0  0  0
  4  6  1  1  0  0  0
  4  2  1  0  0  0  0
  5  3  2  0  0  0  0
  6  1  1  0  0  0  0
  7  8  1  0  0  0  0
  7  5  1  0  0  0  0
  8 39  1  6  0  0  0
  8  4  1  0  0  0  0
  9  1  1  1  0  0  0
  9 13  1  0  0  0  0
 10 12  1  0  0  0  0
 11 12  1  0  0  0  0
 12 15  1  1  0  0  0
 13 14  1  1  0  0  0
 13 10  1  0  0  0  0
 14 11  2  0  0  0  0
 16 19  1  0  0  0  0
 16 22  1  0  0  0  0
 17 19  1  0  0  0  0
 18 23  1  6  0  0  0
 18 16  1  0  0  0  0
 20 15  1  1  0  0  0
 20 18  1  0  0  0  0
 20 17  1  0  0  0  0
 21 22  1  0  0  0  0
 24 25  1  0  0  0  0
 25 26  1  0  0  0  0
 25 23  1  1  0  0  0
 26 30  1  1  0  0  0
 27 29  1  6  0  0  0
 27 26  1  0  0  0  0
 28 24  1  0  0  0  0
 28 27  1  0  0  0  0
 32 34  2  0  0  0  0
 32 35  1  0  0  0  0
 33 31  2  0  0  0  0
 33 37  1  0  0  0  0
 34 33  1  0  0  0  0
 35  5  1  1  0  0  0
 35 31  1  0  0  0  0
 37 36  2  0  0  0  0
 38 37  1  0  0  0  0
 40 41  1  0  0  0  0
 40 39  1  0  0  0  0
 42 45  1  0  0  0  0
 42 41  1  0  0  0  0
 43 45  2  0  0  0  0
 44 46  1  0  0  0  0
 45 44  1  0  0  0  0
 47 46  1  0  0  0  0
 48 47  1  1  0  0  0
 48 52  1  0  0  0  0
 48 49  1  0  0  0  0
 49 50  1  0  0  0  0
 51 49  2  0  0  0  0
 52 53  1  6  0  0  0
 52 56  1  0  0  0  0
 54 53  2  0  0  0  0
 55 53  1  0  0  0  0
 56 57  1  0  0  0  0
M  END
>  <MODEL>
7

>  <REMARK>
 VINA RESULT:      -6.3      2.264     11.562
  Name = 
  20 active torsions:
  status: ('A' for Active; 'I' for Inactive)
    1  A    between atoms: C_2  and  C_10
    2  A    between atoms: C_2  and  C_29
    3  A    between atoms: C_2  and  C_51
    4  A    between atoms: N_3  and  C_31
    5  A    between atoms: N_4  and  C_36
    6  A    between atoms: O_7  and  C_51
    7  A    between atoms: C_8  and  C_51
    8  A    between atoms: C_13  and  C_52
    9  A    between atoms: C_13  and  C_55
   10  A    between atoms: C_14  and  C_38
   11  A    between atoms: C_16  and  C_38
   12  A    between atoms: C_21  and  C_41
   13  A    between atoms: C_24  and  C_39
   14  A    between atoms: C_24  and  C_53
   15  A    between atoms: C_29  and  C_31
   16  A    between atoms: C_33  and  C_40
   17  A    between atoms: C_33  and  C_57
   18  A    between atoms: C_35  and  C_47
   19  A    between atoms: C_39  and  C_52
   20  A    between atoms: C_48  and  C_54
                            x       y       z     vdW  Elec       q    Type
                         _______ _______ _______ _____ _____    ______ ____

>  <TORSDO>
F 20

$$$$
=
 OpenBabel10222417233D

 57 62  0  0  1  0  0  0  0  0999 V2000
  188.5070  177.3220  140.7750 N   0  0  0  0  0  2  0  0  0  0  0  0
  190.3520  176.7080  139.4640 C   0  0  1  0  0  3  0  0  0  0  0  0
  191.0420  175.6340  138.7610 N   0  0  0  0  0  0  0  0  0  0  0  0
  189.2390  177.1990  138.6300 C   0  0  1  0  0  3  0  0  0  0  0  0
  191.3300  175.8030  137.4970 C   0  0  0  0  0  0  0  0  0  0  0  0
  188.4640  178.0150  139.5400 N   0  0  0  0  0  2  0  0  0  0  0  0
  190.7750  176.9380  136.7850 N   0  0  0  0  0  2  0  0  0  0  0  0
  189.8800  177.9040  137.4470 C   0  0  1  0  0  3  0  0  0  0  0  0
  189.6000  176.3360  140.7010 C   0  0  1  0  0  3  0  0  0  0  0  0
  189.6720  176.2650  143.2070 C   0  0  0  0  0  2  0  0  0  0  0  0
  190.5510  178.4400  143.0900 N   0  0  0  0  0  0  0  0  0  0  0  0
  189.6130  177.6530  143.8360 C   0  0  2  0  0  3  0  0  0  0  0  0
  190.4980  176.4380  141.9350 C   0  0  2  0  0  3  0  0  0  0  0  0
  191.0270  177.8220  142.0780 C   0  0  0  0  0  3  0  0  0  0  0  0
  190.0250  177.5990  145.2970 C   0  0  0  0  0  2  0  0  0  0  0  0
  187.5900  178.5960  147.1590 N   0  0  0  0  0  0  0  0  0  0  0  0
  189.3300  176.9770  147.5950 C   0  0  0  0  0  2  0  0  0  0  0  0
  187.6070  177.5970  146.0920 C   0  0  2  0  0  3  0  0  0  0  0  0
  188.6540  178.2380  148.0970 C   0  0  0  0  0  2  0  0  0  0  0  0
  188.9590  176.8900  146.1350 C   0  0  1  0  0  3  0  0  0  0  0  0
  185.6830  179.8010  147.8890 O   0  0  0  0  0  1  0  0  0  0  0  0
  186.2990  178.5450  147.8520 C   0  0  0  0  0  2  0  0  0  0  0  0
  187.2500  178.2350  144.7440 C   0  0  0  0  0  2  0  0  0  0  0  0
  185.3790  179.8140  144.9160 O   0  0  0  0  0  0  0  0  0  0  0  0
  185.7500  178.5090  144.5660 C   0  0  1  0  0  3  0  0  0  0  0  0
  185.1460  178.1700  143.2130 C   0  0  1  0  0  3  0  0  0  0  0  0
  183.9120  179.0230  143.2020 C   0  0  2  0  0  3  0  0  0  0  0  0
  184.0970  179.9870  144.3630 C   0  0  0  0  0  2  0  0  0  0  0  0
  182.7910  178.2270  143.4380 O   0  0  0  0  0  1  0  0  0  0  0  0
  186.0230  178.5890  142.0420 C   0  0  0  0  0  1  0  0  0  0  0  0
  193.4510  174.5530  137.2930 C   0  0  0  0  0  3  0  0  0  0  0  0
  192.3400  175.1180  135.3310 C   0  0  0  0  0  3  0  0  0  0  0  0
  194.3250  174.8100  136.3360 C   0  0  0  0  0  0  0  0  0  0  0  0
  193.6430  175.1640  135.1030 C   0  0  0  0  0  3  0  0  0  0  0  0
  192.0670  174.7240  136.7510 C   0  0  2  0  0  3  0  0  0  0  0  0
  196.2900  174.8970  137.6480 O   0  0  0  0  0  0  0  0  0  0  0  0
  195.7820  174.7540  136.5040 C   0  0  0  0  0  0  0  0  0  0  0  0
  196.6320  174.5290  135.3820 N   0  0  0  0  0  1  0  0  0  0  0  0
  188.8140  178.3770  136.4770 C   0  0  0  0  0  2  0  0  0  0  0  0
  188.0940  177.1880  135.8690 C   0  0  0  0  0  2  0  0  0  0  0  0
  186.6250  177.5260  135.7000 C   0  0  0  0  0  2  0  0  0  0  0  0
  186.0110  177.9560  137.0250 C   0  0  0  0  0  2  0  0  0  0  0  0
  185.2600  175.7140  137.3030 O   0  0  0  0  0  0  0  0  0  0  0  0
  183.9550  177.3330  138.3680 N   0  0  0  0  0  2  0  0  0  0  0  0
  185.0600  176.9320  137.5560 C   0  0  0  0  0  0  0  0  0  0  0  0
  183.0280  176.3660  138.9310 C   0  0  0  0  0  2  0  0  0  0  0  0
  181.8590  176.1730  137.9760 C   0  0  0  0  0  2  0  0  0  0  0  0
  180.6690  177.0730  138.3090 C   0  0  2  0  0  3  0  0  0  0  0  0
  180.3770  178.0890  137.2450 C   0  0  0  0  0  0  0  0  0  0  0  0
  181.3770  178.9270  136.7630 O   0  0  0  0  0  0  0  0  0  0  0  0
  179.2130  178.1790  136.7790 O   0  0  0  0  0  1  0  0  0  0  0  0
  180.6910  177.6110  139.7500 C   0  0  2  0  0  3  0  0  0  0  0  0
  179.7250  176.9360  140.6810 C   0  0  0  0  0  0  0  0  0  0  0  0
  178.9790  176.0220  140.2450 O   0  0  0  0  0  0  0  0  0  0  0  0
  179.6690  177.2880  142.0240 O   0  0  0  0  0  1  0  0  0  0  0  0
  180.7140  179.0190  139.8570 O   0  0  0  0  0  0  0  0  0  0  0  0
  181.8470  179.3510  140.4480 O   0  0  0  0  0  1  0  0  0  0  0  0
  2  3  1  6  0  0  0
  2  9  1  0  0  0  0
  4  2  1  0  0  0  0
  4  6  1  1  0  0  0
  5  3  2  0  0  0  0
  6  1  1  0  0  0  0
  7  8  1  0  0  0  0
  7  5  1  0  0  0  0
  8 39  1  6  0  0  0
  8  4  1  0  0  0  0
  9  1  1  1  0  0  0
  9 13  1  0  0  0  0
 10 12  1  0  0  0  0
 11 12  1  0  0  0  0
 12 15  1  1  0  0  0
 13 14  1  1  0  0  0
 13 10  1  0  0  0  0
 14 11  2  0  0  0  0
 16 22  1  0  0  0  0
 16 19  1  0  0  0  0
 17 19  1  0  0  0  0
 18 23  1  6  0  0  0
 18 20  1  0  0  0  0
 18 16  1  0  0  0  0
 20 15  1  6  0  0  0
 20 17  1  0  0  0  0
 22 21  1  0  0  0  0
 25 23  1  6  0  0  0
 25 24  1  0  0  0  0
 26 30  1  6  0  0  0
 26 25  1  0  0  0  0
 27 26  1  0  0  0  0
 27 29  1  1  0  0  0
 27 28  1  0  0  0  0
 28 24  1  0  0  0  0
 32 35  1  0  0  0  0
 33 37  1  0  0  0  0
 33 31  2  0  0  0  0
 34 32  2  0  0  0  0
 34 33  1  0  0  0  0
 35 31  1  0  0  0  0
 35  5  1  1  0  0  0
 37 36  2  0  0  0  0
 38 37  1  0  0  0  0
 40 39  1  0  0  0  0
 41 40  1  0  0  0  0
 41 42  1  0  0  0  0
 42 45  1  0  0  0  0
 43 45  2  0  0  0  0
 44 46  1  0  0  0  0
 45 44  1  0  0  0  0
 47 46  1  0  0  0  0
 48 47  1  6  0  0  0
 48 52  1  0  0  0  0
 49 48  1  0  0  0  0
 50 49  2  0  0  0  0
 51 49  1  0  0  0  0
 52 56  1  6  0  0  0
 52 53  1  0  0  0  0
 53 55  1  0  0  0  0
 54 53  2  0  0  0  0
 56 57  1  0  0  0  0
M  END
>  <MODEL>
8

>  <REMARK>
 VINA RESULT:      -6.0      2.444      9.084
  Name = 
  20 active torsions:
  status: ('A' for Active; 'I' for Inactive)
    1  A    between atoms: C_2  and  C_10
    2  A    between atoms: C_2  and  C_29
    3  A    between atoms: C_2  and  C_51
    4  A    between atoms: N_3  and  C_31
    5  A    between atoms: N_4  and  C_36
    6  A    between atoms: O_7  and  C_51
    7  A    between atoms: C_8  and  C_51
    8  A    between atoms: C_13  and  C_52
    9  A    between atoms: C_13  and  C_55
   10  A    between atoms: C_14  and  C_38
   11  A    between atoms: C_16  and  C_38
   12  A    between atoms: C_21  and  C_41
   13  A    between atoms: C_24  and  C_39
   14  A    between atoms: C_24  and  C_53
   15  A    between atoms: C_29  and  C_31
   16  A    between atoms: C_33  and  C_40
   17  A    between atoms: C_33  and  C_57
   18  A    between atoms: C_35  and  C_47
   19  A    between atoms: C_39  and  C_52
   20  A    between atoms: C_48  and  C_54
                            x       y       z     vdW  Elec       q    Type
                         _______ _______ _______ _____ _____    ______ ____

>  <TORSDO>
F 20

$$$$
=
 OpenBabel10222417233D

 57 62  0  0  1  0  0  0  0  0999 V2000
  187.4230  177.8300  145.1990 N   0  0  0  0  0  2  0  0  0  0  0  0
  187.3190  177.6150  142.8660 C   0  0  1  0  0  3  0  0  0  0  0  0
  187.2990  178.3010  141.5800 N   0  0  0  0  0  0  0  0  0  0  0  0
  188.7080  177.5350  143.3520 C   0  0  1  0  0  3  0  0  0  0  0  0
  188.1820  177.9580  140.6790 C   0  0  0  0  0  0  0  0  0  0  0  0
  188.5640  177.1310  144.7350 N   0  0  0  0  0  2  0  0  0  0  0  0
  189.2730  177.0780  141.0490 N   0  0  0  0  0  2  0  0  0  0  0  0
  189.4230  176.5680  142.4240 C   0  0  1  0  0  3  0  0  0  0  0  0
  186.6840  178.3210  144.0210 C   0  0  1  0  0  3  0  0  0  0  0  0
  184.3850  178.7670  143.1230 C   0  0  0  0  0  2  0  0  0  0  0  0
  183.8140  179.3790  145.3180 N   0  0  0  0  0  0  0  0  0  0  0  0
  183.6170  179.7870  143.9580 C   0  0  2  0  0  3  0  0  0  0  0  0
  185.2020  177.9610  144.1300 C   0  0  2  0  0  3  0  0  0  0  0  0
  184.6510  178.4210  145.4350 C   0  0  0  0  0  3  0  0  0  0  0  0
  182.1370  179.7550  143.6150 C   0  0  0  0  0  2  0  0  0  0  0  0
  179.6740  178.4690  141.9820 N   0  0  0  0  0  0  0  0  0  0  0  0
  180.5030  177.9830  144.1990 C   0  0  0  0  0  2  0  0  0  0  0  0
  181.1020  178.1690  141.9140 C   0  0  2  0  0  3  0  0  0  0  0  0
  179.2810  178.3680  143.3880 C   0  0  0  0  0  2  0  0  0  0  0  0
  181.6800  178.3250  143.3190 C   0  0  1  0  0  3  0  0  0  0  0  0
  179.2660  176.1690  141.5800 O   0  0  0  0  0  1  0  0  0  0  0  0
  178.9310  177.4740  141.2030 C   0  0  0  0  0  2  0  0  0  0  0  0
  181.7850  179.0140  140.8330 C   0  0  0  0  0  2  0  0  0  0  0  0
  181.4640  178.5010  138.4550 O   0  0  0  0  0  0  0  0  0  0  0  0
  182.2190  178.2110  139.5990 C   0  0  1  0  0  3  0  0  0  0  0  0
  183.6950  178.2480  139.2400 C   0  0  1  0  0  3  0  0  0  0  0  0
  183.6700  177.8650  137.7900 C   0  0  2  0  0  3  0  0  0  0  0  0
  182.2090  177.9700  137.3860 C   0  0  0  0  0  2  0  0  0  0  0  0
  184.0940  176.5430  137.6470 O   0  0  0  0  0  1  0  0  0  0  0  0
  184.3060  179.6370  139.3540 C   0  0  0  0  0  1  0  0  0  0  0  0
  187.2980  177.8780  138.3740 C   0  0  0  0  0  3  0  0  0  0  0  0
  189.5060  178.5480  138.6590 C   0  0  0  0  0  3  0  0  0  0  0  0
  188.0330  177.4620  137.3570 C   0  0  0  0  0  0  0  0  0  0  0  0
  189.4160  177.8740  137.5230 C   0  0  0  0  0  3  0  0  0  0  0  0
  188.1690  178.6280  139.3320 C   0  0  2  0  0  3  0  0  0  0  0  0
  187.9540  175.5190  136.0110 O   0  0  0  0  0  0  0  0  0  0  0  0
  187.5190  176.6810  136.2250 C   0  0  0  0  0  0  0  0  0  0  0  0
  186.5200  177.2250  135.3670 N   0  0  0  0  0  1  0  0  0  0  0  0
  190.8930  176.4760  142.7900 C   0  0  0  0  0  2  0  0  0  0  0  0
  191.7320  176.2890  141.5400 C   0  0  0  0  0  2  0  0  0  0  0  0
  191.9540  177.6360  140.8790 C   0  0  0  0  0  2  0  0  0  0  0  0
  193.1010  177.5680  139.8820 C   0  0  0  0  0  2  0  0  0  0  0  0
  191.7840  175.8950  138.8160 O   0  0  0  0  0  0  0  0  0  0  0  0
  193.9420  176.1480  137.9590 N   0  0  0  0  0  2  0  0  0  0  0  0
  192.8960  176.4850  138.8710 C   0  0  0  0  0  0  0  0  0  0  0  0
  193.7710  175.1260  136.9400 C   0  0  0  0  0  2  0  0  0  0  0  0
  194.3780  173.8200  137.4300 C   0  0  0  0  0  2  0  0  0  0  0  0
  195.7780  173.5710  136.8670 C   0  0  2  0  0  3  0  0  0  0  0  0
  196.2280  172.1470  137.0030 C   0  0  0  0  0  0  0  0  0  0  0  0
  196.1190  171.4750  138.2170 O   0  0  0  0  0  1  0  0  0  0  0  0
  196.7050  171.5510  136.0050 O   0  0  0  0  0  0  0  0  0  0  0  0
  196.8070  174.6340  137.2910 C   0  0  2  0  0  3  0  0  0  0  0  0
  198.0540  174.6600  136.4560 C   0  0  0  0  0  0  0  0  0  0  0  0
  198.2520  175.6180  135.6650 O   0  0  0  0  0  0  0  0  0  0  0  0
  199.0060  173.6540  136.5690 O   0  0  0  0  0  1  0  0  0  0  0  0
  197.0360  174.7150  138.6820 O   0  0  0  0  0  0  0  0  0  0  0  0
  198.0240  175.5710  138.8700 O   0  0  0  0  0  1  0  0  0  0  0  0
  2  3  1  6  0  0  0
  2  4  1  0  0  0  0
  2  9  1  0  0  0  0
  4  6  1  1  0  0  0
  5  7  1  0  0  0  0
  5  3  2  0  0  0  0
  6  1  1  0  0  0  0
  7  8  1  0  0  0  0
  8 39  1  1  0  0  0
  8  4  1  0  0  0  0
  9 13  1  0  0  0  0
  9  1  1  1  0  0  0
 10 12  1  0  0  0  0
 11 14  2  0  0  0  0
 12 15  1  6  0  0  0
 12 11  1  0  0  0  0
 13 10  1  6  0  0  0
 13 14  1  0  0  0  0
 16 19  1  0  0  0  0
 18 23  1  6  0  0  0
 18 16  1  0  0  0  0
 18 20  1  0  0  0  0
 19 17  1  0  0  0  0
 20 15  1  1  0  0  0
 20 17  1  0  0  0  0
 22 21  1  0  0  0  0
 22 16  1  0  0  0  0
 24 25  1  0  0  0  0
 25 23  1  1  0  0  0
 26 30  1  6  0  0  0
 26 25  1  0  0  0  0
 27 29  1  1  0  0  0
 27 26  1  0  0  0  0
 28 27  1  0  0  0  0
 28 24  1  0  0  0  0
 31 35  1  0  0  0  0
 32 35  1  0  0  0  0
 33 34  1  0  0  0  0
 33 31  2  0  0  0  0
 34 32  2  0  0  0  0
 35  5  1  1  0  0  0
 36 37  2  0  0  0  0
 37 33  1  0  0  0  0
 38 37  1  0  0  0  0
 40 39  1  0  0  0  0
 41 40  1  0  0  0  0
 42 41  1  0  0  0  0
 43 45  2  0  0  0  0
 44 45  1  0  0  0  0
 45 42  1  0  0  0  0
 46 47  1  0  0  0  0
 46 44  1  0  0  0  0
 48 49  1  0  0  0  0
 48 52  1  0  0  0  0
 48 47  1  1  0  0  0
 49 50  1  0  0  0  0
 51 49  2  0  0  0  0
 52 53  1  6  0  0  0
 52 56  1  0  0  0  0
 53 55  1  0  0  0  0
 54 53  2  0  0  0  0
 56 57  1  0  0  0  0
M  END
>  <MODEL>
9

>  <REMARK>
 VINA RESULT:      -5.8      2.400     11.852
  Name = 
  20 active torsions:
  status: ('A' for Active; 'I' for Inactive)
    1  A    between atoms: C_2  and  C_10
    2  A    between atoms: C_2  and  C_29
    3  A    between atoms: C_2  and  C_51
    4  A    between atoms: N_3  and  C_31
    5  A    between atoms: N_4  and  C_36
    6  A    between atoms: O_7  and  C_51
    7  A    between atoms: C_8  and  C_51
    8  A    between atoms: C_13  and  C_52
    9  A    between atoms: C_13  and  C_55
   10  A    between atoms: C_14  and  C_38
   11  A    between atoms: C_16  and  C_38
   12  A    between atoms: C_21  and  C_41
   13  A    between atoms: C_24  and  C_39
   14  A    between atoms: C_24  and  C_53
   15  A    between atoms: C_29  and  C_31
   16  A    between atoms: C_33  and  C_40
   17  A    between atoms: C_33  and  C_57
   18  A    between atoms: C_35  and  C_47
   19  A    between atoms: C_39  and  C_52
   20  A    between atoms: C_48  and  C_54
                            x       y       z     vdW  Elec       q    Type
                         _______ _______ _______ _____ _____    ______ ____

>  <TORSDO>
F 20

$$$$
