=
 OpenBabel10222415393D

 40 43  0  0  1  0  0  0  0  0999 V2000
  188.8170  177.9250  140.1280 C   0  0  0  0  0  0  0  0  0  0  0  0
  190.1480  176.7050  138.6230 C   0  0  0  0  0  0  0  0  0  0  0  0
  188.8150  177.2240  137.7210 S   0  0  0  0  0  0  0  0  0  0  0  0
  189.9970  177.1800  139.9350 C   0  0  0  0  0  0  0  0  0  0  0  0
  190.9560  176.9130  141.0470 C   0  0  0  0  0  1  0  0  0  0  0  0
  188.0570  178.0450  138.9740 C   0  0  0  0  0  0  0  0  0  0  0  0
  192.2300  174.0770  137.0240 C   0  0  0  0  0  0  0  0  0  0  0  0
  191.0280  174.7010  137.5300 C   0  0  0  0  0  3  0  0  0  0  0  0
  192.9710  176.4220  138.0200 S   0  0  0  0  0  0  0  0  0  0  0  0
  191.2520  175.8900  138.0640 C   0  0  0  0  0  0  0  0  0  0  0  0
  192.2130  172.9550  136.4530 O   0  0  0  0  0  0  0  0  0  0  0  0
  193.4750  174.8710  137.1960 C   0  0  1  0  0  3  0  0  0  0  0  0
  195.4110  175.0320  138.5990 O   0  0  0  0  0  0  0  0  0  0  0  0
  194.4660  174.1220  138.0870 C   0  0  2  0  0  3  0  0  0  0  0  0
  195.8900  174.1290  137.6320 C   0  0  1  0  0  3  0  0  0  0  0  0
  196.1670  174.8730  136.3280 C   0  0  0  0  0  2  0  0  0  0  0  0
  198.1230  175.4540  135.1840 C   0  0  0  0  0  1  0  0  0  0  0  0
  197.4070  175.6220  136.4370 N   0  0  0  0  0  2  0  0  0  0  0  0
  186.8270  178.7610  138.8710 N   0  0  0  0  0  0  0  0  0  0  0  0
  184.3340  179.9740  139.1440 O   0  0  0  0  0  0  0  0  0  0  0  0
  183.1560  178.0500  138.5630 N   0  0  0  0  0  2  0  0  0  0  0  0
  184.3680  178.7610  138.8020 C   0  0  0  0  0  0  0  0  0  0  0  0
  185.6170  178.0910  138.6520 N   0  0  0  0  0  0  0  0  0  0  0  0
  181.9100  178.6780  138.6960 N   0  0  0  0  0  2  0  0  0  0  0  0
  179.8630  176.9100  141.0820 O   0  0  0  0  0  0  0  0  0  0  0  0
  181.0320  177.7360  139.2510 N   0  0  0  0  0  2  0  0  0  0  0  0
  180.6680  177.7650  140.6340 C   0  0  0  0  0  0  0  0  0  0  0  0
  181.2370  178.7890  141.5570 C   0  0  0  0  0  1  0  0  0  0  0  0
  188.4350  178.5610  141.4250 C   0  0  0  0  0  2  0  0  0  0  0  0
  187.5090  177.6440  142.1970 C   0  0  0  0  0  2  0  0  0  0  0  0
  186.1960  178.3520  142.4560 C   0  0  0  0  0  2  0  0  0  0  0  0
  185.7520  178.1710  144.2030 S   0  0  0  0  0  0  0  0  0  0  0  0
  187.1830  177.1940  144.5310 N   0  0  0  0  0  2  0  0  0  0  0  0
  187.6820  177.6070  145.8300 C   0  0  0  0  0  2  0  0  0  0  0  0
  191.2630  176.7950  144.9560 C   0  0  0  0  0  3  0  0  0  0  0  0
  191.7760  176.4870  146.2170 C   0  0  0  0  0  3  0  0  0  0  0  0
  189.9250  177.1690  144.8210 C   0  0  0  0  0  3  0  0  0  0  0  0
  190.9340  176.5530  147.3300 C   0  0  0  0  0  3  0  0  0  0  0  0
  189.1160  177.2320  145.9590 C   0  0  0  0  0  0  0  0  0  0  0  0
  189.6320  176.9200  147.1800 N   0  0  0  0  0  0  0  0  0  0  0  0
  1 29  1  0  0  0  0
  2  4  2  0  0  0  0
  3  2  1  0  0  0  0
  3  6  1  0  0  0  0
  4  1  1  0  0  0  0
  4  5  1  0  0  0  0
  6  1  2  0  0  0  0
  7  8  1  0  0  0  0
  8 10  2  0  0  0  0
  9 10  1  0  0  0  0
 10  2  1  0  0  0  0
 11  7  2  0  0  0  0
 12  7  1  1  0  0  0
 12  9  1  0  0  0  0
 12 14  1  0  0  0  0
 14 13  1  1  0  0  0
 15 16  1  6  0  0  0
 15 14  1  0  0  0  0
 15 13  1  0  0  0  0
 16 18  1  0  0  0  0
 17 18  1  0  0  0  0
 19  6  1  0  0  0  0
 21 24  1  0  0  0  0
 21 22  1  0  0  0  0
 22 20  2  0  0  0  0
 23 22  1  0  0  0  0
 23 19  2  0  0  0  0
 24 26  1  0  0  0  0
 26 27  1  0  0  0  0
 27 25  2  0  0  0  0
 27 28  1  0  0  0  0
 29 30  1  0  0  0  0
 30 31  1  0  0  0  0
 31 32  1  0  0  0  0
 32 33  1  0  0  0  0
 33 34  1  0  0  0  0
 34 39  1  0  0  0  0
 35 36  1  0  0  0  0
 36 38  2  0  0  0  0
 37 35  2  0  0  0  0
 37 39  1  0  0  0  0
 39 40  2  0  0  0  0
 40 38  1  0  0  0  0
M  END
>  <MODEL>
1

>  <REMARK>
 VINA RESULT:      -7.5      0.000      0.000
  Name = 
  15 active torsions:
  status: ('A' for Active; 'I' for Inactive)
    1  A    between atoms: C_1  and  C_12
    2  A    between atoms: C_1  and  C_24
    3  A    between atoms: N_3  and  N_17
    4  A    between atoms: N_3  and  N_34
    5  A    between atoms: N_5  and  S_33
    6  A    between atoms: N_5  and  C_40
    7  A    between atoms: C_6  and  C_24
    8  A    between atoms: C_7  and  C_30
    9  A    between atoms: N_10  and  C_15
   10  A    between atoms: C_12  and  S_33
   11  A    between atoms: N_14  and  C_31
   12  A    between atoms: N_14  and  N_37
   13  A    between atoms: C_15  and  C_32
   14  A    between atoms: C_20  and  C_39
   15  A    between atoms: C_21  and  C_40
                            x       y       z     vdW  Elec       q    Type
                         _______ _______ _______ _____ _____    ______ ____

>  <TORSDO>
F 15

$$$$
=
 OpenBabel10222415393D

 40 43  0  0  1  0  0  0  0  0999 V2000
  188.7190  177.8630  138.4060 C   0  0  0  0  0  0  0  0  0  0  0  0
  190.6360  176.5100  138.2690 C   0  0  0  0  0  0  0  0  0  0  0  0
  190.4050  176.7920  139.9210 S   0  0  0  0  0  0  0  0  0  0  0  0
  189.6150  177.1710  137.5680 C   0  0  0  0  0  0  0  0  0  0  0  0
  189.4810  177.1840  136.0820 C   0  0  0  0  0  1  0  0  0  0  0  0
  189.0260  177.7350  139.7520 C   0  0  0  0  0  0  0  0  0  0  0  0
  192.7530  173.8360  136.7990 C   0  0  0  0  0  0  0  0  0  0  0  0
  191.5520  174.4500  137.3200 C   0  0  0  0  0  3  0  0  0  0  0  0
  193.4280  176.3000  137.5130 S   0  0  0  0  0  0  0  0  0  0  0  0
  191.7460  175.6960  137.7210 C   0  0  0  0  0  0  0  0  0  0  0  0
  192.7610  172.6620  136.3420 O   0  0  0  0  0  0  0  0  0  0  0  0
  193.9620  174.7000  136.8110 C   0  0  1  0  0  3  0  0  0  0  0  0
  195.9530  175.0970  138.0860 O   0  0  0  0  0  0  0  0  0  0  0  0
  195.0440  174.0900  137.7030 C   0  0  2  0  0  3  0  0  0  0  0  0
  196.4400  174.1460  137.1710 C   0  0  1  0  0  3  0  0  0  0  0  0
  196.6010  174.7930  135.7970 C   0  0  0  0  0  2  0  0  0  0  0  0
  196.5890  176.9640  134.9280 C   0  0  0  0  0  1  0  0  0  0  0  0
  197.1950  176.1110  135.9360 N   0  0  0  0  0  2  0  0  0  0  0  0
  188.2800  178.3110  140.8240 N   0  0  0  0  0  2  0  0  0  0  0  0
  188.2200  176.3980  142.8480 O   0  0  0  0  0  0  0  0  0  0  0  0
  189.4130  177.7210  144.3520 N   0  0  0  0  0  2  0  0  0  0  0  0
  188.8030  177.4910  143.0840 C   0  0  0  0  0  0  0  0  0  0  0  0
  188.8600  178.5060  142.0840 N   0  0  0  0  0  2  0  0  0  0  0  0
  189.3810  176.7430  145.3570 N   0  0  0  0  0  2  0  0  0  0  0  0
  191.7920  177.3390  147.9730 O   0  0  0  0  0  0  0  0  0  0  0  0
  190.0080  177.2930  146.4840 N   0  0  0  0  0  2  0  0  0  0  0  0
  191.2600  176.8010  146.9690 C   0  0  0  0  0  0  0  0  0  0  0  0
  191.9420  175.6510  146.3070 C   0  0  0  0  0  1  0  0  0  0  0  0
  187.5320  178.6240  137.9100 C   0  0  0  0  0  2  0  0  0  0  0  0
  186.3010  177.7410  137.9410 C   0  0  0  0  0  2  0  0  0  0  0  0
  185.2520  178.3690  138.8330 C   0  0  0  0  0  2  0  0  0  0  0  0
  183.6960  177.4550  138.6640 S   0  0  0  0  0  0  0  0  0  0  0  0
  183.3740  177.5610  140.3940 N   0  0  0  0  0  2  0  0  0  0  0  0
  184.0540  178.7500  140.8740 C   0  0  0  0  0  2  0  0  0  0  0  0
  183.0940  178.8940  144.5220 C   0  0  0  0  0  3  0  0  0  0  0  0
  184.3350  178.6850  145.1260 C   0  0  0  0  0  3  0  0  0  0  0  0
  182.9920  178.9110  143.1300 C   0  0  0  0  0  3  0  0  0  0  0  0
  185.4630  178.5000  144.3220 C   0  0  0  0  0  3  0  0  0  0  0  0
  184.1410  178.7130  142.3590 C   0  0  0  0  0  0  0  0  0  0  0  0
  185.3440  178.5190  142.9660 N   0  0  0  0  0  0  0  0  0  0  0  0
  1  6  2  0  0  0  0
  2  3  1  0  0  0  0
  4  2  2  0  0  0  0
  4  1  1  0  0  0  0
  5  4  1  0  0  0  0
  6  3  1  0  0  0  0
  6 19  1  0  0  0  0
  7  8  1  0  0  0  0
  8 10  2  0  0  0  0
  9 10  1  0  0  0  0
 10  2  1  0  0  0  0
 11  7  2  0  0  0  0
 12  7  1  1  0  0  0
 12  9  1  0  0  0  0
 12 14  1  0  0  0  0
 14 13  1  1  0  0  0
 15 16  1  6  0  0  0
 15 14  1  0  0  0  0
 15 13  1  0  0  0  0
 16 18  1  0  0  0  0
 17 18  1  0  0  0  0
 19 23  1  0  0  0  0
 20 22  2  0  0  0  0
 21 24  1  0  0  0  0
 22 21  1  0  0  0  0
 23 22  1  0  0  0  0
 24 26  1  0  0  0  0
 26 27  1  0  0  0  0
 27 25  2  0  0  0  0
 28 27  1  0  0  0  0
 29 30  1  0  0  0  0
 29  1  1  0  0  0  0
 30 31  1  0  0  0  0
 32 31  1  0  0  0  0
 32 33  1  0  0  0  0
 33 34  1  0  0  0  0
 34 39  1  0  0  0  0
 35 36  1  0  0  0  0
 37 35  2  0  0  0  0
 38 36  2  0  0  0  0
 39 40  2  0  0  0  0
 39 37  1  0  0  0  0
 40 38  1  0  0  0  0
M  END
>  <MODEL>
2

>  <REMARK>
 VINA RESULT:      -7.2      2.700      5.970
  Name = 
  15 active torsions:
  status: ('A' for Active; 'I' for Inactive)
    1  A    between atoms: C_1  and  C_12
    2  A    between atoms: C_1  and  C_24
    3  A    between atoms: N_3  and  N_17
    4  A    between atoms: N_3  and  N_34
    5  A    between atoms: N_5  and  S_33
    6  A    between atoms: N_5  and  C_40
    7  A    between atoms: C_6  and  C_24
    8  A    between atoms: C_7  and  C_30
    9  A    between atoms: N_10  and  C_15
   10  A    between atoms: C_12  and  S_33
   11  A    between atoms: N_14  and  C_31
   12  A    between atoms: N_14  and  N_37
   13  A    between atoms: C_15  and  C_32
   14  A    between atoms: C_20  and  C_39
   15  A    between atoms: C_21  and  C_40
                            x       y       z     vdW  Elec       q    Type
                         _______ _______ _______ _____ _____    ______ ____

>  <TORSDO>
F 15

$$$$
=
 OpenBabel10222415393D

 40 43  0  0  1  0  0  0  0  0999 V2000
  186.4910  178.6190  140.6510 C   0  0  0  0  0  0  0  0  0  0  0  0
  188.3070  177.7290  139.4550 C   0  0  0  0  0  0  0  0  0  0  0  0
  187.0360  177.8100  138.3420 S   0  0  0  0  0  0  0  0  0  0  0  0
  187.8400  178.2170  140.6850 C   0  0  0  0  0  0  0  0  0  0  0  0
  188.6560  178.2880  141.9330 C   0  0  0  0  0  1  0  0  0  0  0  0
  185.9090  178.4600  139.4030 C   0  0  0  0  0  0  0  0  0  0  0  0
  191.9520  177.0320  139.2970 C   0  0  0  0  0  0  0  0  0  0  0  0
  190.7350  177.6700  139.7470 C   0  0  0  0  0  3  0  0  0  0  0  0
  189.9790  175.9430  137.8970 S   0  0  0  0  0  0  0  0  0  0  0  0
  189.6590  177.2190  139.1240 C   0  0  0  0  0  0  0  0  0  0  0  0
  193.0760  177.3080  139.7930 O   0  0  0  0  0  0  0  0  0  0  0  0
  191.7740  176.0090  138.2340 C   0  0  1  0  0  3  0  0  0  0  0  0
  192.6360  175.3110  136.1090 O   0  0  0  0  0  0  0  0  0  0  0  0
  192.5140  176.4250  136.9630 C   0  0  2  0  0  3  0  0  0  0  0  0
  193.8260  175.7510  136.7180 C   0  0  1  0  0  3  0  0  0  0  0  0
  194.2620  174.7430  137.7780 C   0  0  0  0  0  2  0  0  0  0  0  0
  196.0740  173.6520  138.7760 C   0  0  0  0  0  1  0  0  0  0  0  0
  195.7080  174.7670  137.9200 N   0  0  0  0  0  2  0  0  0  0  0  0
  184.5630  178.8040  139.0730 N   0  0  0  0  0  0  0  0  0  0  0  0
  181.9290  179.5850  138.6120 O   0  0  0  0  0  0  0  0  0  0  0  0
  182.4340  181.8600  138.6270 N   0  0  0  0  0  2  0  0  0  0  0  0
  182.8030  180.4870  138.7270 C   0  0  0  0  0  0  0  0  0  0  0  0
  184.1660  180.1420  138.9600 N   0  0  0  0  0  0  0  0  0  0  0  0
  181.1020  182.2370  138.4040 N   0  0  0  0  0  2  0  0  0  0  0  0
  180.9130  183.8790  135.1980 O   0  0  0  0  0  0  0  0  0  0  0  0
  180.9590  182.4430  137.0240 N   0  0  0  0  0  2  0  0  0  0  0  0
  181.0290  183.7470  136.4430 C   0  0  0  0  0  0  0  0  0  0  0  0
  181.2270  184.9570  137.2930 C   0  0  0  0  0  1  0  0  0  0  0  0
  185.7630  179.1970  141.8220 C   0  0  0  0  0  2  0  0  0  0  0  0
  184.9760  178.1120  142.5280 C   0  0  0  0  0  2  0  0  0  0  0  0
  183.6360  178.6640  142.9670 C   0  0  0  0  0  2  0  0  0  0  0  0
  183.8050  179.4130  144.6080 S   0  0  0  0  0  0  0  0  0  0  0  0
  185.0450  178.2520  145.0790 N   0  0  0  0  0  2  0  0  0  0  0  0
  185.4990  178.6400  146.4030 C   0  0  0  0  0  2  0  0  0  0  0  0
  188.9820  177.3460  145.7390 C   0  0  0  0  0  3  0  0  0  0  0  0
  189.4660  177.2190  147.0430 C   0  0  0  0  0  3  0  0  0  0  0  0
  187.6860  177.8160  145.5200 C   0  0  0  0  0  3  0  0  0  0  0  0
  188.6360  177.5620  148.1140 C   0  0  0  0  0  3  0  0  0  0  0  0
  186.8900  178.1580  146.6170 C   0  0  0  0  0  0  0  0  0  0  0  0
  187.3760  178.0190  147.8820 N   0  0  0  0  0  0  0  0  0  0  0  0
  1  4  1  0  0  0  0
  1 29  1  0  0  0  0
  2  4  2  0  0  0  0
  3  6  1  0  0  0  0
  3  2  1  0  0  0  0
  4  5  1  0  0  0  0
  6  1  2  0  0  0  0
  7  8  1  0  0  0  0
  7 11  2  0  0  0  0
  9 10  1  0  0  0  0
 10  2  1  0  0  0  0
 10  8  2  0  0  0  0
 12  9  1  6  0  0  0
 12  7  1  0  0  0  0
 13 15  1  0  0  0  0
 14 13  1  6  0  0  0
 14 12  1  0  0  0  0
 15 14  1  0  0  0  0
 15 16  1  1  0  0  0
 16 18  1  0  0  0  0
 18 17  1  0  0  0  0
 19  6  1  0  0  0  0
 20 22  2  0  0  0  0
 21 22  1  0  0  0  0
 22 23  1  0  0  0  0
 23 19  2  0  0  0  0
 24 21  1  0  0  0  0
 25 27  2  0  0  0  0
 26 24  1  0  0  0  0
 27 26  1  0  0  0  0
 27 28  1  0  0  0  0
 29 30  1  0  0  0  0
 30 31  1  0  0  0  0
 31 32  1  0  0  0  0
 32 33  1  0  0  0  0
 33 34  1  0  0  0  0
 34 39  1  0  0  0  0
 35 36  1  0  0  0  0
 36 38  2  0  0  0  0
 37 35  2  0  0  0  0
 37 39  1  0  0  0  0
 39 40  2  0  0  0  0
 40 38  1  0  0  0  0
M  END
>  <MODEL>
3

>  <REMARK>
 VINA RESULT:      -7.1      2.682      3.631
  Name = 
  15 active torsions:
  status: ('A' for Active; 'I' for Inactive)
    1  A    between atoms: C_1  and  C_12
    2  A    between atoms: C_1  and  C_24
    3  A    between atoms: N_3  and  N_17
    4  A    between atoms: N_3  and  N_34
    5  A    between atoms: N_5  and  S_33
    6  A    between atoms: N_5  and  C_40
    7  A    between atoms: C_6  and  C_24
    8  A    between atoms: C_7  and  C_30
    9  A    between atoms: N_10  and  C_15
   10  A    between atoms: C_12  and  S_33
   11  A    between atoms: N_14  and  C_31
   12  A    between atoms: N_14  and  N_37
   13  A    between atoms: C_15  and  C_32
   14  A    between atoms: C_20  and  C_39
   15  A    between atoms: C_21  and  C_40
                            x       y       z     vdW  Elec       q    Type
                         _______ _______ _______ _____ _____    ______ ____

>  <TORSDO>
F 15

$$$$
=
 OpenBabel10222415393D

 40 43  0  0  1  0  0  0  0  0999 V2000
  187.7500  178.3490  140.6810 C   0  0  0  0  0  0  0  0  0  0  0  0
  185.5920  178.5910  139.7810 C   0  0  0  0  0  0  0  0  0  0  0  0
  186.5810  178.1860  138.4700 S   0  0  0  0  0  0  0  0  0  0  0  0
  186.3950  178.6380  140.9320 C   0  0  0  0  0  0  0  0  0  0  0  0
  185.8980  178.9860  142.2960 C   0  0  0  0  0  1  0  0  0  0  0  0
  188.0070  178.0660  139.3480 C   0  0  0  0  0  0  0  0  0  0  0  0
  182.2220  179.9220  138.9660 C   0  0  0  0  0  0  0  0  0  0  0  0
  183.6670  179.8640  138.9720 C   0  0  0  0  0  3  0  0  0  0  0  0
  182.8760  177.7970  140.4130 S   0  0  0  0  0  0  0  0  0  0  0  0
  184.1370  178.8420  139.6670 C   0  0  0  0  0  0  0  0  0  0  0  0
  181.5890  180.8080  138.3330 O   0  0  0  0  0  0  0  0  0  0  0  0
  181.5430  178.8440  139.7310 C   0  0  1  0  0  3  0  0  0  0  0  0
  180.5990  178.4800  141.9040 O   0  0  0  0  0  0  0  0  0  0  0  0
  180.7260  179.4380  140.8790 C   0  0  2  0  0  3  0  0  0  0  0  0
  179.4270  178.7600  141.1780 C   0  0  1  0  0  3  0  0  0  0  0  0
  179.0790  177.5700  140.2870 C   0  0  0  0  0  2  0  0  0  0  0  0
  179.7030  175.3190  140.4080 C   0  0  0  0  0  1  0  0  0  0  0  0
  178.9620  176.3660  141.0910 N   0  0  0  0  0  2  0  0  0  0  0  0
  189.2830  177.7190  138.8120 N   0  0  0  0  0  2  0  0  0  0  0  0
  191.2660  176.7980  137.0860 O   0  0  0  0  0  0  0  0  0  0  0  0
  191.1570  174.6080  137.8740 N   0  0  0  0  0  2  0  0  0  0  0  0
  190.7370  175.9700  137.8760 C   0  0  0  0  0  0  0  0  0  0  0  0
  189.7140  176.3870  138.7770 N   0  0  0  0  0  2  0  0  0  0  0  0
  192.1630  174.1620  137.0050 N   0  0  0  0  0  2  0  0  0  0  0  0
  195.5390  175.0110  137.9490 O   0  0  0  0  0  0  0  0  0  0  0  0
  193.3710  174.2090  137.7170 N   0  0  0  0  0  2  0  0  0  0  0  0
  194.4830  174.9870  137.2670 C   0  0  0  0  0  0  0  0  0  0  0  0
  194.4160  175.7620  135.9950 C   0  0  0  0  0  1  0  0  0  0  0  0
  188.8040  178.3080  141.7400 C   0  0  0  0  0  2  0  0  0  0  0  0
  188.9160  176.9060  142.3040 C   0  0  0  0  0  2  0  0  0  0  0  0
  190.3270  176.3950  142.1090 C   0  0  0  0  0  2  0  0  0  0  0  0
  191.4230  177.1830  143.3180 S   0  0  0  0  0  0  0  0  0  0  0  0
  190.5340  176.4840  144.6710 N   0  0  0  0  0  2  0  0  0  0  0  0
  190.6840  177.4010  145.7870 C   0  0  0  0  0  2  0  0  0  0  0  0
  187.9400  178.0820  148.2880 C   0  0  0  0  0  3  0  0  0  0  0  0
  186.8420  178.2240  147.4380 C   0  0  0  0  0  3  0  0  0  0  0  0
  189.2030  177.8180  147.7550 C   0  0  0  0  0  3  0  0  0  0  0  0
  187.0260  178.0940  146.0590 C   0  0  0  0  0  3  0  0  0  0  0  0
  189.3490  177.7040  146.3700 C   0  0  0  0  0  0  0  0  0  0  0  0
  188.2650  177.8370  145.5570 N   0  0  0  0  0  0  0  0  0  0  0  0
  1  4  1  0  0  0  0
  1 29  1  0  0  0  0
  2  4  2  0  0  0  0
  3  6  1  0  0  0  0
  3  2  1  0  0  0  0
  4  5  1  0  0  0  0
  6  1  2  0  0  0  0
  7  8  1  0  0  0  0
  8 10  2  0  0  0  0
 10  2  1  0  0  0  0
 10  9  1  0  0  0  0
 11  7  2  0  0  0  0
 12  7  1  1  0  0  0
 12  9  1  0  0  0  0
 12 14  1  0  0  0  0
 14 15  1  0  0  0  0
 14 13  1  1  0  0  0
 15 16  1  6  0  0  0
 15 13  1  0  0  0  0
 16 18  1  0  0  0  0
 17 18  1  0  0  0  0
 19  6  1  0  0  0  0
 20 22  2  0  0  0  0
 21 22  1  0  0  0  0
 22 23  1  0  0  0  0
 23 19  1  0  0  0  0
 24 26  1  0  0  0  0
 24 21  1  0  0  0  0
 27 26  1  0  0  0  0
 27 25  2  0  0  0  0
 28 27  1  0  0  0  0
 29 30  1  0  0  0  0
 31 30  1  0  0  0  0
 31 32  1  0  0  0  0
 32 33  1  0  0  0  0
 33 34  1  0  0  0  0
 34 39  1  0  0  0  0
 36 35  2  0  0  0  0
 37 35  1  0  0  0  0
 38 36  1  0  0  0  0
 39 37  2  0  0  0  0
 40 38  2  0  0  0  0
 40 39  1  0  0  0  0
M  END
>  <MODEL>
4

>  <REMARK>
 VINA RESULT:      -7.0      2.615      9.989
  Name = 
  15 active torsions:
  status: ('A' for Active; 'I' for Inactive)
    1  A    between atoms: C_1  and  C_12
    2  A    between atoms: C_1  and  C_24
    3  A    between atoms: N_3  and  N_17
    4  A    between atoms: N_3  and  N_34
    5  A    between atoms: N_5  and  S_33
    6  A    between atoms: N_5  and  C_40
    7  A    between atoms: C_6  and  C_24
    8  A    between atoms: C_7  and  C_30
    9  A    between atoms: N_10  and  C_15
   10  A    between atoms: C_12  and  S_33
   11  A    between atoms: N_14  and  C_31
   12  A    between atoms: N_14  and  N_37
   13  A    between atoms: C_15  and  C_32
   14  A    between atoms: C_20  and  C_39
   15  A    between atoms: C_21  and  C_40
                            x       y       z     vdW  Elec       q    Type
                         _______ _______ _______ _____ _____    ______ ____

>  <TORSDO>
F 15

$$$$
=
 OpenBabel10222415393D

 40 43  0  0  1  0  0  0  0  0999 V2000
  188.8510  177.8500  137.7120 C   0  0  0  0  0  0  0  0  0  0  0  0
  190.7830  176.5190  137.8550 C   0  0  0  0  0  0  0  0  0  0  0  0
  190.5210  177.0970  139.4230 S   0  0  0  0  0  0  0  0  0  0  0  0
  189.7670  177.0270  137.0290 C   0  0  0  0  0  0  0  0  0  0  0  0
  189.6590  176.7660  135.5640 C   0  0  0  0  0  1  0  0  0  0  0  0
  189.1370  177.9750  139.0630 C   0  0  0  0  0  0  0  0  0  0  0  0
  192.9350  173.6700  136.8300 C   0  0  0  0  0  0  0  0  0  0  0  0
  191.7140  174.3580  137.1880 C   0  0  0  0  0  3  0  0  0  0  0  0
  193.6200  176.1780  137.3580 S   0  0  0  0  0  0  0  0  0  0  0  0
  191.9100  175.6320  137.4820 C   0  0  0  0  0  0  0  0  0  0  0  0
  192.9460  172.4580  136.4900 O   0  0  0  0  0  0  0  0  0  0  0  0
  194.1630  174.5060  136.8610 C   0  0  1  0  0  3  0  0  0  0  0  0
  196.0300  174.9950  138.2830 O   0  0  0  0  0  0  0  0  0  0  0  0
  195.1510  173.9650  137.8940 C   0  0  2  0  0  3  0  0  0  0  0  0
  196.5910  173.9760  137.4930 C   0  0  1  0  0  3  0  0  0  0  0  0
  196.8860  174.5140  136.0950 C   0  0  0  0  0  2  0  0  0  0  0  0
  197.0200  176.5400  134.9350 C   0  0  0  0  0  1  0  0  0  0  0  0
  197.3700  175.8810  136.1820 N   0  0  0  0  0  2  0  0  0  0  0  0
  188.3670  178.7290  140.0000 N   0  0  0  0  0  2  0  0  0  0  0  0
  189.3680  178.2980  142.5640 O   0  0  0  0  0  0  0  0  0  0  0  0
  187.4250  177.2590  143.3200 N   0  0  0  0  0  2  0  0  0  0  0  0
  188.1980  177.9020  142.3100 C   0  0  0  0  0  0  0  0  0  0  0  0
  187.6390  178.0930  141.0140 N   0  0  0  0  0  2  0  0  0  0  0  0
  187.9400  177.0580  144.6090 N   0  0  0  0  0  2  0  0  0  0  0  0
  186.7010  178.5760  147.6370 O   0  0  0  0  0  0  0  0  0  0  0  0
  187.1440  177.8030  145.4910 N   0  0  0  0  0  2  0  0  0  0  0  0
  187.4340  177.8800  146.8890 C   0  0  0  0  0  0  0  0  0  0  0  0
  188.5860  177.1380  147.4770 C   0  0  0  0  0  1  0  0  0  0  0  0
  187.6650  178.4920  137.0670 C   0  0  0  0  0  2  0  0  0  0  0  0
  186.4100  177.7110  137.3980 C   0  0  0  0  0  2  0  0  0  0  0  0
  185.3890  178.6360  138.0230 C   0  0  0  0  0  2  0  0  0  0  0  0
  183.9550  177.6690  138.5630 S   0  0  0  0  0  0  0  0  0  0  0  0
  183.3430  179.0050  139.5390 N   0  0  0  0  0  2  0  0  0  0  0  0
  182.2290  178.4840  140.3090 C   0  0  0  0  0  2  0  0  0  0  0  0
  184.0710  178.7080  143.5960 C   0  0  0  0  0  3  0  0  0  0  0  0
  183.0040  178.8750  144.4820 C   0  0  0  0  0  3  0  0  0  0  0  0
  183.8260  178.5850  142.2270 C   0  0  0  0  0  3  0  0  0  0  0  0
  181.7010  178.9110  143.9800 C   0  0  0  0  0  3  0  0  0  0  0  0
  182.5090  178.6350  141.7630 C   0  0  0  0  0  0  0  0  0  0  0  0
  181.4810  178.7900  142.6420 N   0  0  0  0  0  0  0  0  0  0  0  0
  1  6  2  0  0  0  0
  2  3  1  0  0  0  0
  4  1  1  0  0  0  0
  4  2  2  0  0  0  0
  5  4  1  0  0  0  0
  6  3  1  0  0  0  0
  6 19  1  0  0  0  0
  7  8  1  0  0  0  0
  8 10  2  0  0  0  0
  9 10  1  0  0  0  0
 10  2  1  0  0  0  0
 11  7  2  0  0  0  0
 12  7  1  1  0  0  0
 12  9  1  0  0  0  0
 12 14  1  0  0  0  0
 14 13  1  1  0  0  0
 15 16  1  6  0  0  0
 15 14  1  0  0  0  0
 15 13  1  0  0  0  0
 16 18  1  0  0  0  0
 17 18  1  0  0  0  0
 19 23  1  0  0  0  0
 21 24  1  0  0  0  0
 22 20  2  0  0  0  0
 22 21  1  0  0  0  0
 23 22  1  0  0  0  0
 24 26  1  0  0  0  0
 26 27  1  0  0  0  0
 27 28  1  0  0  0  0
 27 25  2  0  0  0  0
 29 30  1  0  0  0  0
 29  1  1  0  0  0  0
 30 31  1  0  0  0  0
 31 32  1  0  0  0  0
 32 33  1  0  0  0  0
 33 34  1  0  0  0  0
 34 39  1  0  0  0  0
 35 36  1  0  0  0  0
 37 35  2  0  0  0  0
 38 36  2  0  0  0  0
 39 37  1  0  0  0  0
 39 40  2  0  0  0  0
 40 38  1  0  0  0  0
M  END
>  <MODEL>
5

>  <REMARK>
 VINA RESULT:      -6.9      2.672      5.598
  Name = 
  15 active torsions:
  status: ('A' for Active; 'I' for Inactive)
    1  A    between atoms: C_1  and  C_12
    2  A    between atoms: C_1  and  C_24
    3  A    between atoms: N_3  and  N_17
    4  A    between atoms: N_3  and  N_34
    5  A    between atoms: N_5  and  S_33
    6  A    between atoms: N_5  and  C_40
    7  A    between atoms: C_6  and  C_24
    8  A    between atoms: C_7  and  C_30
    9  A    between atoms: N_10  and  C_15
   10  A    between atoms: C_12  and  S_33
   11  A    between atoms: N_14  and  C_31
   12  A    between atoms: N_14  and  N_37
   13  A    between atoms: C_15  and  C_32
   14  A    between atoms: C_20  and  C_39
   15  A    between atoms: C_21  and  C_40
                            x       y       z     vdW  Elec       q    Type
                         _______ _______ _______ _____ _____    ______ ____

>  <TORSDO>
F 15

$$$$
=
 OpenBabel10222415393D

 40 43  0  0  1  0  0  0  0  0999 V2000
  188.7980  177.9470  139.9200 C   0  0  0  0  0  0  0  0  0  0  0  0
  190.1950  176.6630  138.5320 C   0  0  0  0  0  0  0  0  0  0  0  0
  188.8690  177.0800  137.5690 S   0  0  0  0  0  0  0  0  0  0  0  0
  190.0010  177.2240  139.8050 C   0  0  0  0  0  0  0  0  0  0  0  0
  190.9420  177.0640  140.9520 C   0  0  0  0  0  1  0  0  0  0  0  0
  188.0610  177.9640  138.7450 C   0  0  0  0  0  0  0  0  0  0  0  0
  192.3780  174.0170  137.1080 C   0  0  0  0  0  0  0  0  0  0  0  0
  191.1450  174.6440  137.5300 C   0  0  0  0  0  3  0  0  0  0  0  0
  193.0500  176.3820  138.1060 S   0  0  0  0  0  0  0  0  0  0  0  0
  191.3330  175.8430  138.0560 C   0  0  0  0  0  0  0  0  0  0  0  0
  192.3990  172.8850  136.5570 O   0  0  0  0  0  0  0  0  0  0  0  0
  193.6070  174.8190  137.3410 C   0  0  1  0  0  3  0  0  0  0  0  0
  195.3810  175.0280  138.9390 O   0  0  0  0  0  0  0  0  0  0  0  0
  194.5450  174.0890  138.3030 C   0  0  2  0  0  3  0  0  0  0  0  0
  196.0050  174.1900  137.9960 C   0  0  1  0  0  3  0  0  0  0  0  0
  196.3680  174.9970  136.7530 C   0  0  0  0  0  2  0  0  0  0  0  0
  198.4580  174.3700  137.5960 C   0  0  0  0  0  1  0  0  0  0  0  0
  197.7710  175.3710  136.7960 N   0  0  0  0  0  2  0  0  0  0  0  0
  186.8140  178.6360  138.5660 N   0  0  0  0  0  2  0  0  0  0  0  0
  185.4460  177.2850  136.5510 O   0  0  0  0  0  0  0  0  0  0  0  0
  183.7120  176.6170  137.9570 N   0  0  0  0  0  2  0  0  0  0  0  0
  184.9420  177.2910  137.7060 C   0  0  0  0  0  0  0  0  0  0  0  0
  185.5990  177.9710  138.7730 N   0  0  0  0  0  2  0  0  0  0  0  0
  183.0400  175.9340  136.9330 N   0  0  0  0  0  2  0  0  0  0  0  0
  183.0500  172.3360  136.6780 O   0  0  0  0  0  0  0  0  0  0  0  0
  183.4750  174.6020  136.9740 N   0  0  0  0  0  2  0  0  0  0  0  0
  182.6090  173.5130  136.6440 C   0  0  0  0  0  0  0  0  0  0  0  0
  181.1840  173.7500  136.2710 C   0  0  0  0  0  1  0  0  0  0  0  0
  188.3690  178.6610  141.1610 C   0  0  0  0  0  2  0  0  0  0  0  0
  187.3580  177.8220  141.9160 C   0  0  0  0  0  2  0  0  0  0  0  0
  186.1670  178.6800  142.2870 C   0  0  0  0  0  2  0  0  0  0  0  0
  185.6150  178.2480  143.9580 S   0  0  0  0  0  0  0  0  0  0  0  0
  187.0980  177.3510  144.2840 N   0  0  0  0  0  2  0  0  0  0  0  0
  187.5640  177.7740  145.5920 C   0  0  0  0  0  2  0  0  0  0  0  0
  190.8110  176.7760  147.2380 C   0  0  0  0  0  3  0  0  0  0  0  0
  191.6260  176.5950  146.1190 C   0  0  0  0  0  3  0  0  0  0  0  0
  189.4770  177.1570  147.0740 C   0  0  0  0  0  3  0  0  0  0  0  0
  191.0900  176.8040  144.8450 C   0  0  0  0  0  3  0  0  0  0  0  0
  188.9760  177.3470  145.7840 C   0  0  0  0  0  0  0  0  0  0  0  0
  189.7880  177.1740  144.7040 N   0  0  0  0  0  0  0  0  0  0  0  0
  1 29  1  0  0  0  0
  2  4  2  0  0  0  0
  3  2  1  0  0  0  0
  3  6  1  0  0  0  0
  4  1  1  0  0  0  0
  4  5  1  0  0  0  0
  6  1  2  0  0  0  0
  7  8  1  0  0  0  0
  8 10  2  0  0  0  0
 10  9  1  0  0  0  0
 10  2  1  0  0  0  0
 11  7  2  0  0  0  0
 12  7  1  1  0  0  0
 12  9  1  0  0  0  0
 12 14  1  0  0  0  0
 14 13  1  1  0  0  0
 15 16  1  6  0  0  0
 15 14  1  0  0  0  0
 15 13  1  0  0  0  0
 16 18  1  0  0  0  0
 18 17  1  0  0  0  0
 19  6  1  0  0  0  0
 19 23  1  0  0  0  0
 20 22  2  0  0  0  0
 22 21  1  0  0  0  0
 22 23  1  0  0  0  0
 24 26  1  0  0  0  0
 24 21  1  0  0  0  0
 27 25  2  0  0  0  0
 27 26  1  0  0  0  0
 28 27  1  0  0  0  0
 29 30  1  0  0  0  0
 30 31  1  0  0  0  0
 31 32  1  0  0  0  0
 32 33  1  0  0  0  0
 33 34  1  0  0  0  0
 34 39  1  0  0  0  0
 36 35  2  0  0  0  0
 37 35  1  0  0  0  0
 38 36  1  0  0  0  0
 39 37  2  0  0  0  0
 40 38  2  0  0  0  0
 40 39  1  0  0  0  0
M  END
>  <MODEL>
6

>  <REMARK>
 VINA RESULT:      -6.7      2.127      2.390
  Name = 
  15 active torsions:
  status: ('A' for Active; 'I' for Inactive)
    1  A    between atoms: C_1  and  C_12
    2  A    between atoms: C_1  and  C_24
    3  A    between atoms: N_3  and  N_17
    4  A    between atoms: N_3  and  N_34
    5  A    between atoms: N_5  and  S_33
    6  A    between atoms: N_5  and  C_40
    7  A    between atoms: C_6  and  C_24
    8  A    between atoms: C_7  and  C_30
    9  A    between atoms: N_10  and  C_15
   10  A    between atoms: C_12  and  S_33
   11  A    between atoms: N_14  and  C_31
   12  A    between atoms: N_14  and  N_37
   13  A    between atoms: C_15  and  C_32
   14  A    between atoms: C_20  and  C_39
   15  A    between atoms: C_21  and  C_40
                            x       y       z     vdW  Elec       q    Type
                         _______ _______ _______ _____ _____    ______ ____

>  <TORSDO>
F 15

$$$$
=
 OpenBabel10222415393D

 40 43  0  0  1  0  0  0  0  0999 V2000
  185.9740  178.7780  140.2740 C   0  0  0  0  0  0  0  0  0  0  0  0
  187.3480  177.8970  138.5820 C   0  0  0  0  0  0  0  0  0  0  0  0
  185.8130  178.0360  137.8850 S   0  0  0  0  0  0  0  0  0  0  0  0
  187.2660  178.3530  139.9070 C   0  0  0  0  0  0  0  0  0  0  0  0
  188.4080  178.3690  140.8680 C   0  0  0  0  0  1  0  0  0  0  0  0
  185.0540  178.6690  139.2420 C   0  0  0  0  0  0  0  0  0  0  0  0
  189.8630  176.8950  136.0390 C   0  0  0  0  0  0  0  0  0  0  0  0
  188.6210  177.4350  136.5450 C   0  0  0  0  0  3  0  0  0  0  0  0
  189.9660  176.6530  138.6790 S   0  0  0  0  0  0  0  0  0  0  0  0
  188.5340  177.3760  137.8630 C   0  0  0  0  0  0  0  0  0  0  0  0
  190.1410  176.8910  134.8110 O   0  0  0  0  0  0  0  0  0  0  0  0
  190.7960  176.3790  137.0740 C   0  0  1  0  0  3  0  0  0  0  0  0
  191.7790  174.3820  137.9650 O   0  0  0  0  0  0  0  0  0  0  0  0
  191.0360  174.8820  136.8770 C   0  0  2  0  0  3  0  0  0  0  0  0
  192.4650  174.4610  136.7390 C   0  0  1  0  0  3  0  0  0  0  0  0
  193.4970  175.5840  136.8000 C   0  0  0  0  0  2  0  0  0  0  0  0
  195.7320  174.9880  136.4540 C   0  0  0  0  0  1  0  0  0  0  0  0
  194.6990  175.1170  137.4680 N   0  0  0  0  0  2  0  0  0  0  0  0
  183.6800  179.0450  139.3220 N   0  0  0  0  0  2  0  0  0  0  0  0
  181.2220  179.6570  140.4820 O   0  0  0  0  0  0  0  0  0  0  0  0
  180.4440  177.4630  140.3720 N   0  0  0  0  0  2  0  0  0  0  0  0
  181.4400  178.4590  140.1530 C   0  0  0  0  0  0  0  0  0  0  0  0
  182.6830  178.0910  139.5600 N   0  0  0  0  0  2  0  0  0  0  0  0
  179.2090  177.7900  140.9480 N   0  0  0  0  0  2  0  0  0  0  0  0
  179.3050  178.4700  144.4890 O   0  0  0  0  0  0  0  0  0  0  0  0
  179.3400  177.6060  142.3330 N   0  0  0  0  0  2  0  0  0  0  0  0
  179.1960  178.6880  143.2560 C   0  0  0  0  0  0  0  0  0  0  0  0
  178.9310  180.0760  142.7780 C   0  0  0  0  0  1  0  0  0  0  0  0
  185.6280  179.3300  141.6190 C   0  0  0  0  0  2  0  0  0  0  0  0
  185.1080  178.2230  142.5130 C   0  0  0  0  0  2  0  0  0  0  0  0
  183.6990  178.5520  142.9570 C   0  0  0  0  0  2  0  0  0  0  0  0
  183.7130  179.0020  144.7120 S   0  0  0  0  0  0  0  0  0  0  0  0
  185.4540  178.7510  144.8270 N   0  0  0  0  0  2  0  0  0  0  0  0
  185.7160  178.2470  146.1620 C   0  0  0  0  0  2  0  0  0  0  0  0
  189.2290  177.1970  145.2630 C   0  0  0  0  0  3  0  0  0  0  0  0
  189.8080  177.1110  146.5310 C   0  0  0  0  0  3  0  0  0  0  0  0
  187.8910  177.5740  145.1330 C   0  0  0  0  0  3  0  0  0  0  0  0
  189.0310  177.4000  147.6560 C   0  0  0  0  0  3  0  0  0  0  0  0
  187.1500  177.8650  146.2820 C   0  0  0  0  0  0  0  0  0  0  0  0
  187.7290  177.7670  147.5100 N   0  0  0  0  0  0  0  0  0  0  0  0
  1 29  1  0  0  0  0
  2  4  2  0  0  0  0
  3  2  1  0  0  0  0
  3  6  1  0  0  0  0
  4  1  1  0  0  0  0
  4  5  1  0  0  0  0
  6 19  1  0  0  0  0
  6  1  2  0  0  0  0
  7  8  1  0  0  0  0
  8 10  2  0  0  0  0
 10  2  1  0  0  0  0
 10  9  1  0  0  0  0
 11  7  2  0  0  0  0
 12  7  1  6  0  0  0
 12  9  1  0  0  0  0
 14 12  1  0  0  0  0
 14 13  1  1  0  0  0
 15 16  1  1  0  0  0
 15 14  1  0  0  0  0
 15 13  1  0  0  0  0
 16 18  1  0  0  0  0
 17 18  1  0  0  0  0
 19 23  1  0  0  0  0
 21 24  1  0  0  0  0
 22 21  1  0  0  0  0
 22 20  2  0  0  0  0
 23 22  1  0  0  0  0
 24 26  1  0  0  0  0
 26 27  1  0  0  0  0
 27 25  2  0  0  0  0
 28 27  1  0  0  0  0
 29 30  1  0  0  0  0
 30 31  1  0  0  0  0
 31 32  1  0  0  0  0
 32 33  1  0  0  0  0
 33 34  1  0  0  0  0
 34 39  1  0  0  0  0
 35 36  1  0  0  0  0
 36 38  2  0  0  0  0
 37 35  2  0  0  0  0
 37 39  1  0  0  0  0
 39 40  2  0  0  0  0
 40 38  1  0  0  0  0
M  END
>  <MODEL>
7

>  <REMARK>
 VINA RESULT:      -6.7      2.080      3.052
  Name = 
  15 active torsions:
  status: ('A' for Active; 'I' for Inactive)
    1  A    between atoms: C_1  and  C_12
    2  A    between atoms: C_1  and  C_24
    3  A    between atoms: N_3  and  N_17
    4  A    between atoms: N_3  and  N_34
    5  A    between atoms: N_5  and  S_33
    6  A    between atoms: N_5  and  C_40
    7  A    between atoms: C_6  and  C_24
    8  A    between atoms: C_7  and  C_30
    9  A    between atoms: N_10  and  C_15
   10  A    between atoms: C_12  and  S_33
   11  A    between atoms: N_14  and  C_31
   12  A    between atoms: N_14  and  N_37
   13  A    between atoms: C_15  and  C_32
   14  A    between atoms: C_20  and  C_39
   15  A    between atoms: C_21  and  C_40
                            x       y       z     vdW  Elec       q    Type
                         _______ _______ _______ _____ _____    ______ ____

>  <TORSDO>
F 15

$$$$
=
 OpenBabel10222415393D

 40 43  0  0  1  0  0  0  0  0999 V2000
  188.9550  177.9260  137.7830 C   0  0  0  0  0  0  0  0  0  0  0  0
  190.9240  176.6430  137.8270 C   0  0  0  0  0  0  0  0  0  0  0  0
  190.6530  177.1020  139.4320 S   0  0  0  0  0  0  0  0  0  0  0  0
  189.8910  177.1790  137.0410 C   0  0  0  0  0  0  0  0  0  0  0  0
  189.7830  177.0190  135.5620 C   0  0  0  0  0  1  0  0  0  0  0  0
  189.2430  177.9650  139.1390 C   0  0  0  0  0  0  0  0  0  0  0  0
  194.2640  175.3670  136.8220 C   0  0  0  0  0  0  0  0  0  0  0  0
  193.2770  176.3410  137.2310 C   0  0  0  0  0  3  0  0  0  0  0  0
  191.9740  174.0490  137.0650 S   0  0  0  0  0  0  0  0  0  0  0  0
  192.0730  175.8170  137.3900 C   0  0  0  0  0  0  0  0  0  0  0  0
  195.4730  175.6710  136.6490 O   0  0  0  0  0  0  0  0  0  0  0  0
  193.7530  173.9820  136.6540 C   0  0  1  0  0  3  0  0  0  0  0  0
  193.3550  172.2410  135.0550 O   0  0  0  0  0  0  0  0  0  0  0  0
  193.9220  173.5220  135.2060 C   0  0  2  0  0  3  0  0  0  0  0  0
  194.7600  172.3010  135.0000 C   0  0  1  0  0  3  0  0  0  0  0  0
  195.3490  171.6790  136.2640 C   0  0  0  0  0  2  0  0  0  0  0  0
  196.3790  169.7630  137.1240 C   0  0  0  0  0  1  0  0  0  0  0  0
  195.4610  170.2400  136.1030 N   0  0  0  0  0  2  0  0  0  0  0  0
  188.4570  178.6290  140.1280 N   0  0  0  0  0  2  0  0  0  0  0  0
  189.4790  178.4580  142.7140 O   0  0  0  0  0  0  0  0  0  0  0  0
  187.7290  177.1270  143.4880 N   0  0  0  0  0  2  0  0  0  0  0  0
  188.3970  177.8590  142.4640 C   0  0  0  0  0  0  0  0  0  0  0  0
  187.8330  177.9110  141.1560 N   0  0  0  0  0  2  0  0  0  0  0  0
  188.2530  177.0580  144.7870 N   0  0  0  0  0  2  0  0  0  0  0  0
  186.8320  178.6110  147.7160 O   0  0  0  0  0  0  0  0  0  0  0  0
  187.4180  177.8310  145.6070 N   0  0  0  0  0  2  0  0  0  0  0  0
  187.5950  177.8900  147.0250 C   0  0  0  0  0  0  0  0  0  0  0  0
  188.6650  177.0990  147.6990 C   0  0  0  0  0  1  0  0  0  0  0  0
  187.7490  178.5790  137.1870 C   0  0  0  0  0  2  0  0  0  0  0  0
  186.5440  177.6730  137.3370 C   0  0  0  0  0  2  0  0  0  0  0  0
  185.5570  178.3000  138.2980 C   0  0  0  0  0  2  0  0  0  0  0  0
  183.8710  177.8690  137.7930 S   0  0  0  0  0  0  0  0  0  0  0  0
  183.5270  177.1250  139.3540 N   0  0  0  0  0  2  0  0  0  0  0  0
  182.4880  177.9240  139.9770 C   0  0  0  0  0  2  0  0  0  0  0  0
  182.3000  179.0240  143.5840 C   0  0  0  0  0  3  0  0  0  0  0  0
  183.6400  178.9080  143.9620 C   0  0  0  0  0  3  0  0  0  0  0  0
  181.9140  178.6980  142.2830 C   0  0  0  0  0  3  0  0  0  0  0  0
  184.5770  178.4700  143.0230 C   0  0  0  0  0  3  0  0  0  0  0  0
  182.8790  178.2550  141.3750 C   0  0  0  0  0  0  0  0  0  0  0  0
  184.1820  178.1560  141.7590 N   0  0  0  0  0  0  0  0  0  0  0  0
  1  6  2  0  0  0  0
  2  3  1  0  0  0  0
  4  1  1  0  0  0  0
  4  2  2  0  0  0  0
  5  4  1  0  0  0  0
  6  3  1  0  0  0  0
  6 19  1  0  0  0  0
  7  8  1  0  0  0  0
  8 10  2  0  0  0  0
  9 10  1  0  0  0  0
 10  2  1  0  0  0  0
 11  7  2  0  0  0  0
 12  7  1  6  0  0  0
 12  9  1  0  0  0  0
 14 13  1  1  0  0  0
 14 12  1  0  0  0  0
 15 13  1  0  0  0  0
 15 14  1  0  0  0  0
 15 16  1  1  0  0  0
 18 16  1  0  0  0  0
 18 17  1  0  0  0  0
 19 23  1  0  0  0  0
 21 24  1  0  0  0  0
 22 20  2  0  0  0  0
 22 21  1  0  0  0  0
 23 22  1  0  0  0  0
 24 26  1  0  0  0  0
 26 27  1  0  0  0  0
 27 28  1  0  0  0  0
 27 25  2  0  0  0  0
 29 30  1  0  0  0  0
 29  1  1  0  0  0  0
 30 31  1  0  0  0  0
 32 31  1  0  0  0  0
 32 33  1  0  0  0  0
 33 34  1  0  0  0  0
 34 39  1  0  0  0  0
 35 36  1  0  0  0  0
 37 35  2  0  0  0  0
 38 36  2  0  0  0  0
 39 40  2  0  0  0  0
 39 37  1  0  0  0  0
 40 38  1  0  0  0  0
M  END
>  <MODEL>
8

>  <REMARK>
 VINA RESULT:      -6.5      3.064      5.973
  Name = 
  15 active torsions:
  status: ('A' for Active; 'I' for Inactive)
    1  A    between atoms: C_1  and  C_12
    2  A    between atoms: C_1  and  C_24
    3  A    between atoms: N_3  and  N_17
    4  A    between atoms: N_3  and  N_34
    5  A    between atoms: N_5  and  S_33
    6  A    between atoms: N_5  and  C_40
    7  A    between atoms: C_6  and  C_24
    8  A    between atoms: C_7  and  C_30
    9  A    between atoms: N_10  and  C_15
   10  A    between atoms: C_12  and  S_33
   11  A    between atoms: N_14  and  C_31
   12  A    between atoms: N_14  and  N_37
   13  A    between atoms: C_15  and  C_32
   14  A    between atoms: C_20  and  C_39
   15  A    between atoms: C_21  and  C_40
                            x       y       z     vdW  Elec       q    Type
                         _______ _______ _______ _____ _____    ______ ____

>  <TORSDO>
F 15

$$$$
=
 OpenBabel10222415393D

 40 43  0  0  1  0  0  0  0  0999 V2000
  187.5910  178.3420  141.1170 C   0  0  0  0  0  0  0  0  0  0  0  0
  185.4210  178.6180  140.2560 C   0  0  0  0  0  0  0  0  0  0  0  0
  186.4210  178.4520  138.9020 S   0  0  0  0  0  0  0  0  0  0  0  0
  186.2260  178.5320  141.4040 C   0  0  0  0  0  0  0  0  0  0  0  0
  185.7200  178.6550  142.8030 C   0  0  0  0  0  1  0  0  0  0  0  0
  187.8540  178.2680  139.7570 C   0  0  0  0  0  0  0  0  0  0  0  0
  181.7400  178.4890  140.7320 C   0  0  0  0  0  0  0  0  0  0  0  0
  183.1250  178.1330  140.9450 C   0  0  0  0  0  3  0  0  0  0  0  0
  183.1610  180.0060  139.0830 S   0  0  0  0  0  0  0  0  0  0  0  0
  183.9560  178.8190  140.1770 C   0  0  0  0  0  0  0  0  0  0  0  0
  180.8040  177.9650  141.3910 O   0  0  0  0  0  0  0  0  0  0  0  0
  181.5080  179.5390  139.7050 C   0  0  1  0  0  3  0  0  0  0  0  0
  181.0040  179.6630  137.3650 O   0  0  0  0  0  0  0  0  0  0  0  0
  180.6710  178.9830  138.5540 C   0  0  2  0  0  3  0  0  0  0  0  0
  179.7340  179.9480  137.9000 C   0  0  1  0  0  3  0  0  0  0  0  0
  179.7270  181.3610  138.4770 C   0  0  0  0  0  2  0  0  0  0  0  0
  180.9790  183.1250  137.5880 C   0  0  0  0  0  1  0  0  0  0  0  0
  179.7720  182.3370  137.4030 N   0  0  0  0  0  2  0  0  0  0  0  0
  189.1430  178.0590  139.1790 N   0  0  0  0  0  2  0  0  0  0  0  0
  190.9970  176.0010  139.4730 O   0  0  0  0  0  0  0  0  0  0  0  0
  190.4850  175.0320  137.4170 N   0  0  0  0  0  2  0  0  0  0  0  0
  190.3090  176.0320  138.4170 C   0  0  0  0  0  0  0  0  0  0  0  0
  189.3490  177.0650  138.2140 N   0  0  0  0  0  2  0  0  0  0  0  0
  191.4170  173.9970  137.5840 N   0  0  0  0  0  2  0  0  0  0  0  0
  194.8300  174.2910  136.4540 O   0  0  0  0  0  0  0  0  0  0  0  0
  192.6820  174.5350  137.3080 N   0  0  0  0  0  2  0  0  0  0  0  0
  193.7170  173.7590  136.6990 C   0  0  0  0  0  0  0  0  0  0  0  0
  193.5010  172.3230  136.3570 C   0  0  0  0  0  1  0  0  0  0  0  0
  188.6500  178.1940  142.1610 C   0  0  0  0  0  2  0  0  0  0  0  0
  189.0110  176.7320  142.3270 C   0  0  0  0  0  2  0  0  0  0  0  0
  190.3530  176.6180  143.0170 C   0  0  0  0  0  2  0  0  0  0  0  0
  190.9580  178.2750  143.4300 S   0  0  0  0  0  0  0  0  0  0  0  0
  191.3080  177.8010  145.0920 N   0  0  0  0  0  2  0  0  0  0  0  0
  190.3750  176.7420  145.4290 C   0  0  0  0  0  2  0  0  0  0  0  0
  188.4400  178.0710  148.3860 C   0  0  0  0  0  3  0  0  0  0  0  0
  187.1870  178.2770  147.8060 C   0  0  0  0  0  3  0  0  0  0  0  0
  189.4920  177.5750  147.6130 C   0  0  0  0  0  3  0  0  0  0  0  0
  187.0030  177.9740  146.4540 C   0  0  0  0  0  3  0  0  0  0  0  0
  189.2710  177.2930  146.2620 C   0  0  0  0  0  0  0  0  0  0  0  0
  188.0400  177.4910  145.7160 N   0  0  0  0  0  0  0  0  0  0  0  0
  1  4  1  0  0  0  0
  1 29  1  0  0  0  0
  2  4  2  0  0  0  0
  3  6  1  0  0  0  0
  3  2  1  0  0  0  0
  4  5  1  0  0  0  0
  6  1  2  0  0  0  0
  7  8  1  0  0  0  0
  7 11  2  0  0  0  0
  9 10  1  0  0  0  0
 10  2  1  0  0  0  0
 10  8  2  0  0  0  0
 12  9  1  6  0  0  0
 12  7  1  0  0  0  0
 13 15  1  0  0  0  0
 14 13  1  6  0  0  0
 14 12  1  0  0  0  0
 15 16  1  1  0  0  0
 15 14  1  0  0  0  0
 18 17  1  0  0  0  0
 18 16  1  0  0  0  0
 19  6  1  0  0  0  0
 21 24  1  0  0  0  0
 21 22  1  0  0  0  0
 22 20  2  0  0  0  0
 23 22  1  0  0  0  0
 23 19  1  0  0  0  0
 25 27  2  0  0  0  0
 26 24  1  0  0  0  0
 27 26  1  0  0  0  0
 28 27  1  0  0  0  0
 29 30  1  0  0  0  0
 30 31  1  0  0  0  0
 31 32  1  0  0  0  0
 32 33  1  0  0  0  0
 33 34  1  0  0  0  0
 34 39  1  0  0  0  0
 36 35  1  0  0  0  0
 37 35  2  0  0  0  0
 38 36  2  0  0  0  0
 39 37  1  0  0  0  0
 40 39  2  0  0  0  0
 40 38  1  0  0  0  0
M  END
>  <MODEL>
9

>  <REMARK>
 VINA RESULT:      -6.3      3.049      9.879
  Name = 
  15 active torsions:
  status: ('A' for Active; 'I' for Inactive)
    1  A    between atoms: C_1  and  C_12
    2  A    between atoms: C_1  and  C_24
    3  A    between atoms: N_3  and  N_17
    4  A    between atoms: N_3  and  N_34
    5  A    between atoms: N_5  and  S_33
    6  A    between atoms: N_5  and  C_40
    7  A    between atoms: C_6  and  C_24
    8  A    between atoms: C_7  and  C_30
    9  A    between atoms: N_10  and  C_15
   10  A    between atoms: C_12  and  S_33
   11  A    between atoms: N_14  and  C_31
   12  A    between atoms: N_14  and  N_37
   13  A    between atoms: C_15  and  C_32
   14  A    between atoms: C_20  and  C_39
   15  A    between atoms: C_21  and  C_40
                            x       y       z     vdW  Elec       q    Type
                         _______ _______ _______ _____ _____    ______ ____

>  <TORSDO>
F 15

$$$$
