=
 OpenBabel10222419543D

 37 40  0  0  1  0  0  0  0  0999 V2000
  187.1990  178.0810  146.5800 C   0  0  0  0  0  3  0  0  0  0  0  0
  189.5980  177.1590  145.5740 C   0  0  0  0  0  0  0  0  0  0  0  0
  186.2130  178.2010  144.2430 C   0  0  0  0  0  0  0  0  0  0  0  0
  186.4620  178.2390  142.9250 C   0  0  0  0  0  3  0  0  0  0  0  0
  188.0010  178.1040  141.0990 C   0  0  0  0  0  0  0  0  0  0  0  0
  187.3340  177.8740  145.1810 C   0  0  0  0  0  0  0  0  0  0  0  0
  188.0270  178.0630  148.8720 C   0  0  0  0  0  1  0  0  0  0  0  0
  189.4000  177.3820  146.9620 C   0  0  0  0  0  0  0  0  0  0  0  0
  187.7770  177.9040  142.3680 C   0  0  0  0  0  0  0  0  0  0  0  0
  188.7760  177.1470  143.1930 C   0  0  1  0  0  3  0  0  0  0  0  0
  190.5040  177.0830  147.6620 N   0  0  0  0  0  0  0  0  0  0  0  0
  190.8860  176.6980  145.4290 C   0  0  0  0  0  3  0  0  0  0  0  0
  188.2210  177.8320  147.4520 N   0  0  0  0  0  0  0  0  0  0  0  0
  188.5750  177.4050  144.6630 C   0  0  0  0  0  0  0  0  0  0  0  0
  191.4020  176.6690  146.7310 C   0  0  0  0  0  3  0  0  0  0  0  0
  188.2160  178.3110  139.8320 C   0  0  0  0  0  3  0  0  0  0  0  0
  183.8130  178.5990  143.8720 C   0  0  0  0  0  3  0  0  0  0  0  0
  184.5980  178.7390  146.0790 O   0  0  0  0  0  1  0  0  0  0  0  0
  184.8370  178.5230  144.7260 C   0  0  0  0  0  0  0  0  0  0  0  0
  182.4180  178.9170  144.3040 C   0  0  0  0  0  2  0  0  0  0  0  0
  180.3400  178.5060  143.7040 C   0  0  0  0  0  1  0  0  0  0  0  0
  181.5670  178.9310  143.2010 O   0  0  0  0  0  0  0  0  0  0  0  0
  188.6550  175.7780  142.9370 O   0  0  0  0  0  0  0  0  0  0  0  0
  189.9220  175.3520  142.7330 N   0  0  0  0  0  1  0  0  0  0  0  0
  188.0550  177.2010  138.8560 C   0  0  0  0  0  2  0  0  0  0  0  0
  189.3440  176.9610  138.1420 C   0  0  0  0  0  0  0  0  0  0  0  0
  190.8410  176.9590  136.5450 N   0  0  0  0  0  0  0  0  0  0  0  0
  190.7240  176.1390  140.0200 O   0  0  0  0  0  1  0  0  0  0  0  0
  190.5160  176.5060  138.6980 C   0  0  0  0  0  0  0  0  0  0  0  0
  189.5790  177.2350  136.8450 N   0  0  0  0  0  0  0  0  0  0  0  0
  191.4400  176.5080  137.6680 C   0  0  0  0  0  0  0  0  0  0  0  0
  192.8540  176.1050  137.7330 C   0  0  0  0  0  0  0  0  0  0  0  0
  193.7050  176.8910  138.2270 O   0  0  0  0  0  0  0  0  0  0  0  0
  193.3050  174.7790  137.2260 C   0  0  0  0  0  1  0  0  0  0  0  0
  188.6160  177.7600  135.8840 C   0  0  0  0  0  2  0  0  0  0  0  0
  186.7850  176.1140  135.4710 C   0  0  0  0  0  1  0  0  0  0  0  0
  188.1080  176.6570  134.9710 C   0  0  0  0  0  2  0  0  0  0  0  0
  1 13  1  0  0  0  0
  2  8  1  0  0  0  0
  3 19  1  0  0  0  0
  3  6  1  0  0  0  0
  4  3  2  0  0  0  0
  5  9  2  0  0  0  0
  6  1  2  0  0  0  0
  8 13  1  0  0  0  0
  8 11  2  0  0  0  0
  9  4  1  0  0  0  0
  9 10  1  0  0  0  0
 10 23  1  1  0  0  0
 10 14  1  0  0  0  0
 12  2  1  0  0  0  0
 12 15  2  0  0  0  0
 13  7  1  0  0  0  0
 14  6  1  0  0  0  0
 14  2  2  0  0  0  0
 15 11  1  0  0  0  0
 16  5  2  0  0  0  0
 17 20  1  0  0  0  0
 17 19  2  0  0  0  0
 19 18  1  0  0  0  0
 22 21  1  0  0  0  0
 22 20  1  0  0  0  0
 24 23  1  0  0  0  0
 25 16  1  0  0  0  0
 26 29  2  0  0  0  0
 26 25  1  0  0  0  0
 27 30  1  0  0  0  0
 27 31  2  0  0  0  0
 29 28  1  0  0  0  0
 30 26  1  0  0  0  0
 31 32  1  0  0  0  0
 31 29  1  0  0  0  0
 32 33  2  0  0  0  0
 34 32  1  0  0  0  0
 35 30  1  0  0  0  0
 37 36  1  0  0  0  0
 37 35  1  0  0  0  0
M  END
>  <MODEL>
1

>  <REMARK>
 VINA RESULT:      -9.6      0.000      0.000
  Name = 
  9 active torsions:
  status: ('A' for Active; 'I' for Inactive)
    1  A    between atoms: C_3  and  C_27
    2  A    between atoms: C_4  and  C_13
    3  A    between atoms: C_4  and  C_37
    4  A    between atoms: C_5  and  N_25
    5  A    between atoms: C_5  and  C_33
    6  A    between atoms: C_6  and  C_18
    7  A    between atoms: O_7  and  C_29
    8  A    between atoms: C_12  and  C_26
    9  A    between atoms: O_21  and  C_27
                            x       y       z     vdW  Elec       q    Type
                         _______ _______ _______ _____ _____    ______ ____

>  <TORSDO>
F 9

$$$$
=
 OpenBabel10222419543D

 37 40  0  0  1  0  0  0  0  0999 V2000
  187.7000  177.8540  145.0670 C   0  0  0  0  0  3  0  0  0  0  0  0
  186.1940  178.1090  142.7680 C   0  0  0  0  0  0  0  0  0  0  0  0
  189.8020  177.4550  143.7010 C   0  0  0  0  0  0  0  0  0  0  0  0
  190.3130  177.1130  142.5080 C   0  0  0  0  0  3  0  0  0  0  0  0
  190.0100  176.6040  140.1910 C   0  0  0  0  0  0  0  0  0  0  0  0
  188.3380  177.7530  143.8020 C   0  0  0  0  0  0  0  0  0  0  0  0
  185.7590  178.1740  146.5060 C   0  0  0  0  0  1  0  0  0  0  0  0
  185.6150  178.2040  144.0610 C   0  0  0  0  0  0  0  0  0  0  0  0
  189.4980  177.0880  141.2880 C   0  0  0  0  0  0  0  0  0  0  0  0
  188.1770  177.7990  141.2470 C   0  0  1  0  0  3  0  0  0  0  0  0
  184.2960  178.4310  143.9850 N   0  0  0  0  0  0  0  0  0  0  0  0
  185.1730  178.2910  141.8650 C   0  0  0  0  0  3  0  0  0  0  0  0
  186.3580  178.0810  145.1870 N   0  0  0  0  0  0  0  0  0  0  0  0
  187.5580  177.8770  142.6170 C   0  0  0  0  0  0  0  0  0  0  0  0
  184.0310  178.4830  142.6540 C   0  0  0  0  0  3  0  0  0  0  0  0
  190.5280  176.1150  139.1010 C   0  0  0  0  0  3  0  0  0  0  0  0
  190.4500  176.7450  145.9670 C   0  0  0  0  0  3  0  0  0  0  0  0
  191.8410  178.2950  144.8860 O   0  0  0  0  0  1  0  0  0  0  0  0
  190.7080  177.4900  144.8890 C   0  0  0  0  0  0  0  0  0  0  0  0
  191.3250  176.7430  147.1790 C   0  0  0  0  0  2  0  0  0  0  0  0
  192.8830  175.6720  148.3060 C   0  0  0  0  0  1  0  0  0  0  0  0
  192.3510  175.8130  147.0280 O   0  0  0  0  0  0  0  0  0  0  0  0
  188.3560  179.0890  140.7390 O   0  0  0  0  0  0  0  0  0  0  0  0
  188.2160  178.9550  139.4000 N   0  0  0  0  0  1  0  0  0  0  0  0
  191.1430  177.0210  138.0950 C   0  0  0  0  0  2  0  0  0  0  0  0
  192.1610  176.2770  137.2970 C   0  0  0  0  0  0  0  0  0  0  0  0
  193.1060  175.2610  135.6030 N   0  0  0  0  0  0  0  0  0  0  0  0
  194.0610  176.3270  138.8760 O   0  0  0  0  0  1  0  0  0  0  0  0
  193.4560  176.0030  137.6690 C   0  0  0  0  0  0  0  0  0  0  0  0
  191.9870  175.8250  136.0390 N   0  0  0  0  0  0  0  0  0  0  0  0
  194.0250  175.3570  136.5860 C   0  0  0  0  0  0  0  0  0  0  0  0
  195.4000  174.8480  136.4700 C   0  0  0  0  0  0  0  0  0  0  0  0
  196.3600  175.6580  136.3690 O   0  0  0  0  0  0  0  0  0  0  0  0
  195.6870  173.3860  136.4700 C   0  0  0  0  0  1  0  0  0  0  0  0
  190.7680  175.9250  135.2460 C   0  0  0  0  0  2  0  0  0  0  0  0
  188.3710  175.3990  135.7050 C   0  0  0  0  0  1  0  0  0  0  0  0
  189.7790  174.8400  135.6380 C   0  0  0  0  0  2  0  0  0  0  0  0
  1 13  1  0  0  0  0
  2  8  1  0  0  0  0
  3  6  1  0  0  0  0
  3 19  1  0  0  0  0
  4  3  2  0  0  0  0
  5  9  2  0  0  0  0
  6  1  2  0  0  0  0
  8 13  1  0  0  0  0
  9  4  1  0  0  0  0
 10 23  1  1  0  0  0
 10  9  1  0  0  0  0
 10 14  1  0  0  0  0
 11  8  2  0  0  0  0
 12 15  2  0  0  0  0
 12  2  1  0  0  0  0
 13  7  1  0  0  0  0
 14  2  2  0  0  0  0
 14  6  1  0  0  0  0
 15 11  1  0  0  0  0
 16  5  2  0  0  0  0
 17 20  1  0  0  0  0
 18 19  1  0  0  0  0
 19 17  2  0  0  0  0
 22 20  1  0  0  0  0
 22 21  1  0  0  0  0
 24 23  1  0  0  0  0
 25 16  1  0  0  0  0
 26 29  2  0  0  0  0
 26 25  1  0  0  0  0
 27 30  1  0  0  0  0
 27 31  2  0  0  0  0
 29 28  1  0  0  0  0
 30 26  1  0  0  0  0
 31 29  1  0  0  0  0
 32 31  1  0  0  0  0
 33 32  2  0  0  0  0
 34 32  1  0  0  0  0
 35 37  1  0  0  0  0
 35 30  1  0  0  0  0
 37 36  1  0  0  0  0
M  END
>  <MODEL>
2

>  <REMARK>
 VINA RESULT:      -8.5      2.661      5.269
  Name = 
  9 active torsions:
  status: ('A' for Active; 'I' for Inactive)
    1  A    between atoms: C_3  and  C_27
    2  A    between atoms: C_4  and  C_13
    3  A    between atoms: C_4  and  C_37
    4  A    between atoms: C_5  and  N_25
    5  A    between atoms: C_5  and  C_33
    6  A    between atoms: C_6  and  C_18
    7  A    between atoms: O_7  and  C_29
    8  A    between atoms: C_12  and  C_26
    9  A    between atoms: O_21  and  C_27
                            x       y       z     vdW  Elec       q    Type
                         _______ _______ _______ _____ _____    ______ ____

>  <TORSDO>
F 9

$$$$
=
 OpenBabel10222419543D

 37 40  0  0  1  0  0  0  0  0999 V2000
  186.2020  178.3100  145.2520 C   0  0  0  0  0  3  0  0  0  0  0  0
  188.7880  177.4330  145.6550 C   0  0  0  0  0  0  0  0  0  0  0  0
  186.4480  178.0270  142.7410 C   0  0  0  0  0  0  0  0  0  0  0  0
  187.2940  177.8960  141.7080 C   0  0  0  0  0  3  0  0  0  0  0  0
  189.5170  177.6170  140.8700 C   0  0  0  0  0  0  0  0  0  0  0  0
  186.9860  177.9170  144.1350 C   0  0  0  0  0  0  0  0  0  0  0  0
  185.8380  178.6770  147.6340 C   0  0  0  0  0  1  0  0  0  0  0  0
  187.9530  177.8350  146.7310 C   0  0  0  0  0  0  0  0  0  0  0  0
  188.7160  177.5820  141.8970 C   0  0  0  0  0  0  0  0  0  0  0  0
  189.1980  177.0240  143.2040 C   0  0  1  0  0  3  0  0  0  0  0  0
  188.5890  177.7190  147.9060 N   0  0  0  0  0  0  0  0  0  0  0  0
  189.9870  177.0510  146.2080 C   0  0  0  0  0  3  0  0  0  0  0  0
  186.6840  178.2620  146.5290 N   0  0  0  0  0  0  0  0  0  0  0  0
  188.3220  177.4730  144.3440 C   0  0  0  0  0  0  0  0  0  0  0  0
  189.8210  177.2450  147.5860 C   0  0  0  0  0  3  0  0  0  0  0  0
  190.3100  177.6570  139.8380 C   0  0  0  0  0  3  0  0  0  0  0  0
  184.6020  178.6310  141.2300 C   0  0  0  0  0  3  0  0  0  0  0  0
  184.0660  178.2410  143.4810 O   0  0  0  0  0  1  0  0  0  0  0  0
  185.0090  178.3120  142.4610 C   0  0  0  0  0  0  0  0  0  0  0  0
  183.1740  178.9240  140.8980 C   0  0  0  0  0  2  0  0  0  0  0  0
  184.2970  179.1750  139.0210 C   0  0  0  0  0  1  0  0  0  0  0  0
  183.0090  178.9950  139.5160 O   0  0  0  0  0  0  0  0  0  0  0  0
  189.2090  175.6280  143.1420 O   0  0  0  0  0  0  0  0  0  0  0  0
  190.5110  175.3010  142.9730 N   0  0  0  0  0  1  0  0  0  0  0  0
  190.6300  176.4120  139.0920 C   0  0  0  0  0  2  0  0  0  0  0  0
  190.1150  176.5110  137.6940 C   0  0  0  0  0  0  0  0  0  0  0  0
  190.0840  176.4660  135.5060 N   0  0  0  0  0  0  0  0  0  0  0  0
  187.7030  176.7950  138.1480 O   0  0  0  0  0  1  0  0  0  0  0  0
  188.8030  176.6630  137.3120 C   0  0  0  0  0  0  0  0  0  0  0  0
  190.8590  176.3840  136.5790 N   0  0  0  0  0  0  0  0  0  0  0  0
  188.8140  176.6380  135.9290 C   0  0  0  0  0  0  0  0  0  0  0  0
  187.6620  176.7640  135.0230 C   0  0  0  0  0  0  0  0  0  0  0  0
  187.3240  177.8990  134.5970 O   0  0  0  0  0  0  0  0  0  0  0  0
  186.8810  175.5700  134.5940 C   0  0  0  0  0  1  0  0  0  0  0  0
  192.3020  176.1830  136.5210 C   0  0  0  0  0  2  0  0  0  0  0  0
  193.2100  173.9670  137.2280 C   0  0  0  0  0  1  0  0  0  0  0  0
  192.6330  174.7680  136.0770 C   0  0  0  0  0  2  0  0  0  0  0  0
  1 13  1  0  0  0  0
  2 12  1  0  0  0  0
  2  8  1  0  0  0  0
  3  6  1  0  0  0  0
  4  9  1  0  0  0  0
  4  3  2  0  0  0  0
  5  9  2  0  0  0  0
  6 14  1  0  0  0  0
  6  1  2  0  0  0  0
  8 11  2  0  0  0  0
  9 10  1  0  0  0  0
 10 23  1  6  0  0  0
 10 14  1  0  0  0  0
 12 15  2  0  0  0  0
 13  8  1  0  0  0  0
 13  7  1  0  0  0  0
 14  2  2  0  0  0  0
 15 11  1  0  0  0  0
 16  5  2  0  0  0  0
 17 19  2  0  0  0  0
 19  3  1  0  0  0  0
 19 18  1  0  0  0  0
 20 17  1  0  0  0  0
 21 22  1  0  0  0  0
 22 20  1  0  0  0  0
 24 23  1  0  0  0  0
 25 16  1  0  0  0  0
 26 25  1  0  0  0  0
 27 31  2  0  0  0  0
 27 30  1  0  0  0  0
 29 26  2  0  0  0  0
 29 28  1  0  0  0  0
 30 26  1  0  0  0  0
 31 29  1  0  0  0  0
 32 31  1  0  0  0  0
 33 32  2  0  0  0  0
 34 32  1  0  0  0  0
 35 30  1  0  0  0  0
 37 35  1  0  0  0  0
 37 36  1  0  0  0  0
M  END
>  <MODEL>
3

>  <REMARK>
 VINA RESULT:      -8.4      1.983      3.274
  Name = 
  9 active torsions:
  status: ('A' for Active; 'I' for Inactive)
    1  A    between atoms: C_3  and  C_27
    2  A    between atoms: C_4  and  C_13
    3  A    between atoms: C_4  and  C_37
    4  A    between atoms: C_5  and  N_25
    5  A    between atoms: C_5  and  C_33
    6  A    between atoms: C_6  and  C_18
    7  A    between atoms: O_7  and  C_29
    8  A    between atoms: C_12  and  C_26
    9  A    between atoms: O_21  and  C_27
                            x       y       z     vdW  Elec       q    Type
                         _______ _______ _______ _____ _____    ______ ____

>  <TORSDO>
F 9

$$$$
=
 OpenBabel10222419543D

 37 40  0  0  1  0  0  0  0  0999 V2000
  187.1530  177.9120  145.1130 C   0  0  0  0  0  3  0  0  0  0  0  0
  189.7850  177.3500  144.5030 C   0  0  0  0  0  0  0  0  0  0  0  0
  186.5830  178.1410  142.6500 C   0  0  0  0  0  0  0  0  0  0  0  0
  187.0510  178.3270  141.4060 C   0  0  0  0  0  3  0  0  0  0  0  0
  188.8910  178.5280  139.8910 C   0  0  0  0  0  0  0  0  0  0  0  0
  187.5540  177.8510  143.7520 C   0  0  0  0  0  0  0  0  0  0  0  0
  187.5630  177.7710  147.5110 C   0  0  0  0  0  1  0  0  0  0  0  0
  189.3220  177.4220  145.8430 C   0  0  0  0  0  0  0  0  0  0  0  0
  188.4750  178.1890  141.0790 C   0  0  0  0  0  0  0  0  0  0  0  0
  189.3990  177.4700  142.0170 C   0  0  1  0  0  3  0  0  0  0  0  0
  190.3140  177.1790  146.7120 N   0  0  0  0  0  0  0  0  0  0  0  0
  191.1250  177.0460  144.5650 C   0  0  0  0  0  3  0  0  0  0  0  0
  188.0290  177.6940  146.1380 N   0  0  0  0  0  0  0  0  0  0  0  0
  188.9150  177.5690  143.4400 C   0  0  0  0  0  0  0  0  0  0  0  0
  191.4050  176.9520  145.9350 C   0  0  0  0  0  3  0  0  0  0  0  0
  189.2970  178.8740  138.7030 C   0  0  0  0  0  3  0  0  0  0  0  0
  184.2700  178.4820  141.8800 C   0  0  0  0  0  3  0  0  0  0  0  0
  184.6010  178.1520  144.1800 O   0  0  0  0  0  1  0  0  0  0  0  0
  185.1150  178.2670  142.8930 C   0  0  0  0  0  0  0  0  0  0  0  0
  182.7940  178.6140  142.0700 C   0  0  0  0  0  2  0  0  0  0  0  0
  181.3320  179.1290  140.5080 C   0  0  0  0  0  1  0  0  0  0  0  0
  182.1200  178.0820  140.9730 O   0  0  0  0  0  0  0  0  0  0  0  0
  189.4930  176.1260  141.6460 O   0  0  0  0  0  0  0  0  0  0  0  0
  190.6850  176.0260  141.0130 N   0  0  0  0  0  1  0  0  0  0  0  0
  189.4460  177.8480  137.6370 C   0  0  0  0  0  2  0  0  0  0  0  0
  188.1180  177.2390  137.3290 C   0  0  0  0  0  0  0  0  0  0  0  0
  186.5770  175.7180  137.0100 N   0  0  0  0  0  0  0  0  0  0  0  0
  186.7280  179.2800  137.2320 O   0  0  0  0  0  1  0  0  0  0  0  0
  186.9260  177.9070  137.1750 C   0  0  0  0  0  0  0  0  0  0  0  0
  187.8680  175.9190  137.2350 N   0  0  0  0  0  0  0  0  0  0  0  0
  185.9740  176.9250  136.9680 C   0  0  0  0  0  0  0  0  0  0  0  0
  184.5320  177.1090  136.7450 C   0  0  0  0  0  0  0  0  0  0  0  0
  184.0520  176.9390  135.5930 O   0  0  0  0  0  0  0  0  0  0  0  0
  183.6190  177.4950  137.8570 C   0  0  0  0  0  1  0  0  0  0  0  0
  188.8450  174.8440  137.3590 C   0  0  0  0  0  2  0  0  0  0  0  0
  189.1770  173.0370  135.6680 C   0  0  0  0  0  1  0  0  0  0  0  0
  188.2950  173.5470  136.7900 C   0  0  0  0  0  2  0  0  0  0  0  0
  1 13  1  0  0  0  0
  2 12  1  0  0  0  0
  2  8  1  0  0  0  0
  3 19  1  0  0  0  0
  3  6  1  0  0  0  0
  4  3  2  0  0  0  0
  5  9  2  0  0  0  0
  6  1  2  0  0  0  0
  8 13  1  0  0  0  0
  8 11  2  0  0  0  0
  9  4  1  0  0  0  0
  9 10  1  0  0  0  0
 10 23  1  6  0  0  0
 10 14  1  0  0  0  0
 12 15  2  0  0  0  0
 13  7  1  0  0  0  0
 14  6  1  0  0  0  0
 14  2  2  0  0  0  0
 15 11  1  0  0  0  0
 16  5  2  0  0  0  0
 17 20  1  0  0  0  0
 17 19  2  0  0  0  0
 19 18  1  0  0  0  0
 21 22  1  0  0  0  0
 22 20  1  0  0  0  0
 24 23  1  0  0  0  0
 25 16  1  0  0  0  0
 26 25  1  0  0  0  0
 27 30  1  0  0  0  0
 29 28  1  0  0  0  0
 29 26  2  0  0  0  0
 30 26  1  0  0  0  0
 30 35  1  0  0  0  0
 31 27  2  0  0  0  0
 31 29  1  0  0  0  0
 32 31  1  0  0  0  0
 32 34  1  0  0  0  0
 33 32  2  0  0  0  0
 36 37  1  0  0  0  0
 37 35  1  0  0  0  0
M  END
>  <MODEL>
4

>  <REMARK>
 VINA RESULT:      -8.1      2.524      3.656
  Name = 
  9 active torsions:
  status: ('A' for Active; 'I' for Inactive)
    1  A    between atoms: C_3  and  C_27
    2  A    between atoms: C_4  and  C_13
    3  A    between atoms: C_4  and  C_37
    4  A    between atoms: C_5  and  N_25
    5  A    between atoms: C_5  and  C_33
    6  A    between atoms: C_6  and  C_18
    7  A    between atoms: O_7  and  C_29
    8  A    between atoms: C_12  and  C_26
    9  A    between atoms: O_21  and  C_27
                            x       y       z     vdW  Elec       q    Type
                         _______ _______ _______ _____ _____    ______ ____

>  <TORSDO>
F 9

$$$$
=
 OpenBabel10222419543D

 37 40  0  0  1  0  0  0  0  0999 V2000
  189.7630  177.2830  144.0930 C   0  0  0  0  0  3  0  0  0  0  0  0
  187.8510  177.5680  146.0620 C   0  0  0  0  0  0  0  0  0  0  0  0
  188.0640  177.8550  142.2960 C   0  0  0  0  0  0  0  0  0  0  0  0
  186.7640  177.9560  141.9770 C   0  0  0  0  0  3  0  0  0  0  0  0
  184.4610  177.9030  142.6190 C   0  0  0  0  0  0  0  0  0  0  0  0
  188.4430  177.6630  143.7320 C   0  0  0  0  0  0  0  0  0  0  0  0
  191.4890  176.6720  145.7020 C   0  0  0  0  0  1  0  0  0  0  0  0
  189.1880  177.1950  146.3600 C   0  0  0  0  0  0  0  0  0  0  0  0
  185.7070  177.9540  142.9960 C   0  0  0  0  0  0  0  0  0  0  0  0
  186.0440  178.2200  144.4340 C   0  0  1  0  0  3  0  0  0  0  0  0
  189.3600  177.0200  147.6780 N   0  0  0  0  0  0  0  0  0  0  0  0
  187.1820  177.6250  147.2620 C   0  0  0  0  0  3  0  0  0  0  0  0
  190.1240  177.0590  145.3910 N   0  0  0  0  0  0  0  0  0  0  0  0
  187.4560  177.8010  144.7490 C   0  0  0  0  0  0  0  0  0  0  0  0
  188.1430  177.2810  148.2220 C   0  0  0  0  0  3  0  0  0  0  0  0
  183.2180  177.8480  142.2330 C   0  0  0  0  0  3  0  0  0  0  0  0
  188.7160  178.1590  139.9420 C   0  0  0  0  0  3  0  0  0  0  0  0
  190.4240  177.6830  141.4790 O   0  0  0  0  0  1  0  0  0  0  0  0
  189.0790  177.9010  141.2010 C   0  0  0  0  0  0  0  0  0  0  0  0
  189.6920  178.2170  138.8120 C   0  0  0  0  0  2  0  0  0  0  0  0
  188.1730  178.4810  137.2420 C   0  0  0  0  0  1  0  0  0  0  0  0
  189.2520  179.1190  137.8450 O   0  0  0  0  0  0  0  0  0  0  0  0
  185.8870  179.5820  144.7070 O   0  0  0  0  0  0  0  0  0  0  0  0
  184.8360  179.6430  145.5570 N   0  0  0  0  0  1  0  0  0  0  0  0
  182.4220  179.0970  142.1010 C   0  0  0  0  0  2  0  0  0  0  0  0
  181.6750  179.0880  140.8080 C   0  0  0  0  0  0  0  0  0  0  0  0
  180.0210  178.8800  139.3890 N   0  0  0  0  0  0  0  0  0  0  0  0
  183.3960  180.0470  139.3170 O   0  0  0  0  0  1  0  0  0  0  0  0
  182.1350  179.5370  139.5930 C   0  0  0  0  0  0  0  0  0  0  0  0
  180.3920  178.7090  140.6510 N   0  0  0  0  0  0  0  0  0  0  0  0
  181.0750  179.3880  138.7160 C   0  0  0  0  0  0  0  0  0  0  0  0
  181.0460  179.7200  137.2830 C   0  0  0  0  0  0  0  0  0  0  0  0
  180.9000  180.9170  136.9230 O   0  0  0  0  0  0  0  0  0  0  0  0
  181.1870  178.6650  136.2410 C   0  0  0  0  0  1  0  0  0  0  0  0
  179.5120  178.1880  141.6900 C   0  0  0  0  0  2  0  0  0  0  0  0
  179.2360  179.0980  143.9980 C   0  0  0  0  0  1  0  0  0  0  0  0
  178.9390  179.3180  142.5290 C   0  0  0  0  0  2  0  0  0  0  0  0
  1 13  1  0  0  0  0
  2  8  1  0  0  0  0
  2 12  1  0  0  0  0
  3  6  1  0  0  0  0
  4  3  2  0  0  0  0
  4  9  1  0  0  0  0
  5  9  2  0  0  0  0
  6  1  2  0  0  0  0
  6 14  1  0  0  0  0
  8 11  2  0  0  0  0
  9 10  1  0  0  0  0
 10 23  1  6  0  0  0
 10 14  1  0  0  0  0
 11 15  1  0  0  0  0
 12 15  2  0  0  0  0
 13  7  1  0  0  0  0
 13  8  1  0  0  0  0
 14  2  2  0  0  0  0
 16  5  2  0  0  0  0
 17 19  2  0  0  0  0
 19 18  1  0  0  0  0
 19  3  1  0  0  0  0
 20 17  1  0  0  0  0
 21 22  1  0  0  0  0
 22 20  1  0  0  0  0
 23 24  1  0  0  0  0
 25 16  1  0  0  0  0
 26 25  1  0  0  0  0
 27 30  1  0  0  0  0
 28 29  1  0  0  0  0
 29 26  2  0  0  0  0
 30 26  1  0  0  0  0
 30 35  1  0  0  0  0
 31 27  2  0  0  0  0
 31 29  1  0  0  0  0
 32 31  1  0  0  0  0
 33 32  2  0  0  0  0
 34 32  1  0  0  0  0
 35 37  1  0  0  0  0
 37 36  1  0  0  0  0
M  END
>  <MODEL>
5

>  <REMARK>
 VINA RESULT:      -8.0      3.639      7.620
  Name = 
  9 active torsions:
  status: ('A' for Active; 'I' for Inactive)
    1  A    between atoms: C_3  and  C_27
    2  A    between atoms: C_4  and  C_13
    3  A    between atoms: C_4  and  C_37
    4  A    between atoms: C_5  and  N_25
    5  A    between atoms: C_5  and  C_33
    6  A    between atoms: C_6  and  C_18
    7  A    between atoms: O_7  and  C_29
    8  A    between atoms: C_12  and  C_26
    9  A    between atoms: O_21  and  C_27
                            x       y       z     vdW  Elec       q    Type
                         _______ _______ _______ _____ _____    ______ ____

>  <TORSDO>
F 9

$$$$
=
 OpenBabel10222419543D

 37 40  0  0  1  0  0  0  0  0999 V2000
  186.9190  178.6650  142.6920 C   0  0  0  0  0  3  0  0  0  0  0  0
  186.2240  178.6280  140.0210 C   0  0  0  0  0  0  0  0  0  0  0  0
  189.2740  177.8980  142.1370 C   0  0  0  0  0  0  0  0  0  0  0  0
  190.0790  177.3240  141.2290 C   0  0  0  0  0  3  0  0  0  0  0  0
  190.4360  176.4500  139.0320 C   0  0  0  0  0  0  0  0  0  0  0  0
  187.8950  178.3080  141.7240 C   0  0  0  0  0  0  0  0  0  0  0  0
  184.6850  179.3570  143.3780 C   0  0  0  0  0  1  0  0  0  0  0  0
  185.2950  178.9800  141.0360 C   0  0  0  0  0  0  0  0  0  0  0  0
  189.6760  177.1470  139.8290 C   0  0  0  0  0  0  0  0  0  0  0  0
  188.5240  177.9300  139.2710 C   0  0  1  0  0  3  0  0  0  0  0  0
  184.0980  179.2800  140.5130 N   0  0  0  0  0  0  0  0  0  0  0  0
  185.5540  178.7230  138.8240 C   0  0  0  0  0  3  0  0  0  0  0  0
  185.6410  179.0000  142.3450 N   0  0  0  0  0  0  0  0  0  0  0  0
  187.5320  178.2810  140.3470 C   0  0  0  0  0  0  0  0  0  0  0  0
  184.2570  179.1230  139.1730 C   0  0  0  0  0  3  0  0  0  0  0  0
  191.2000  175.7490  138.2440 C   0  0  0  0  0  3  0  0  0  0  0  0
  189.3640  177.2620  144.5130 C   0  0  0  0  0  3  0  0  0  0  0  0
  190.6840  179.0800  143.8360 O   0  0  0  0  0  1  0  0  0  0  0  0
  189.7740  178.0730  143.5340 C   0  0  0  0  0  0  0  0  0  0  0  0
  189.8350  177.3940  145.9260 C   0  0  0  0  0  2  0  0  0  0  0  0
  188.5390  177.7140  147.6760 C   0  0  0  0  0  1  0  0  0  0  0  0
  188.9600  176.7320  146.7850 O   0  0  0  0  0  0  0  0  0  0  0  0
  188.9990  179.0990  138.6700 O   0  0  0  0  0  0  0  0  0  0  0  0
  188.6940  178.9620  137.3600 N   0  0  0  0  0  1  0  0  0  0  0  0
  192.1930  176.4270  137.3700 C   0  0  0  0  0  2  0  0  0  0  0  0
  193.2970  175.4820  137.0290 C   0  0  0  0  0  0  0  0  0  0  0  0
  194.5430  174.1060  135.8670 N   0  0  0  0  0  0  0  0  0  0  0  0
  194.6950  175.7140  139.0540 O   0  0  0  0  0  1  0  0  0  0  0  0
  194.4050  175.2050  137.7950 C   0  0  0  0  0  0  0  0  0  0  0  0
  193.4190  174.8110  135.8670 N   0  0  0  0  0  0  0  0  0  0  0  0
  195.1680  174.3300  137.0420 C   0  0  0  0  0  0  0  0  0  0  0  0
  196.4570  173.7240  137.4090 C   0  0  0  0  0  0  0  0  0  0  0  0
  196.4800  172.7050  138.1490 O   0  0  0  0  0  0  0  0  0  0  0  0
  197.7460  174.2900  136.9210 C   0  0  0  0  0  1  0  0  0  0  0  0
  192.4780  174.8340  134.7540 C   0  0  0  0  0  2  0  0  0  0  0  0
  191.4970  172.5380  134.7980 C   0  0  0  0  0  1  0  0  0  0  0  0
  191.2440  174.0070  135.0730 C   0  0  0  0  0  2  0  0  0  0  0  0
  2 14  2  0  0  0  0
  2  8  1  0  0  0  0
  3 19  1  0  0  0  0
  4  3  2  0  0  0  0
  5  9  2  0  0  0  0
  6  3  1  0  0  0  0
  6  1  2  0  0  0  0
  8 13  1  0  0  0  0
  9  4  1  0  0  0  0
 10 23  1  1  0  0  0
 10  9  1  0  0  0  0
 10 14  1  0  0  0  0
 11  8  2  0  0  0  0
 12 15  2  0  0  0  0
 12  2  1  0  0  0  0
 13  1  1  0  0  0  0
 13  7  1  0  0  0  0
 14  6  1  0  0  0  0
 15 11  1  0  0  0  0
 16  5  2  0  0  0  0
 17 20  1  0  0  0  0
 19 18  1  0  0  0  0
 19 17  2  0  0  0  0
 20 22  1  0  0  0  0
 22 21  1  0  0  0  0
 24 23  1  0  0  0  0
 25 16  1  0  0  0  0
 26 25  1  0  0  0  0
 26 29  2  0  0  0  0
 27 30  1  0  0  0  0
 27 31  2  0  0  0  0
 29 28  1  0  0  0  0
 30 26  1  0  0  0  0
 31 32  1  0  0  0  0
 31 29  1  0  0  0  0
 32 33  2  0  0  0  0
 34 32  1  0  0  0  0
 35 37  1  0  0  0  0
 35 30  1  0  0  0  0
 36 37  1  0  0  0  0
M  END
>  <MODEL>
6

>  <REMARK>
 VINA RESULT:      -7.9      3.166      5.853
  Name = 
  9 active torsions:
  status: ('A' for Active; 'I' for Inactive)
    1  A    between atoms: C_3  and  C_27
    2  A    between atoms: C_4  and  C_13
    3  A    between atoms: C_4  and  C_37
    4  A    between atoms: C_5  and  N_25
    5  A    between atoms: C_5  and  C_33
    6  A    between atoms: C_6  and  C_18
    7  A    between atoms: O_7  and  C_29
    8  A    between atoms: C_12  and  C_26
    9  A    between atoms: O_21  and  C_27
                            x       y       z     vdW  Elec       q    Type
                         _______ _______ _______ _____ _____    ______ ____

>  <TORSDO>
F 9

$$$$
=
 OpenBabel10222419543D

 37 40  0  0  1  0  0  0  0  0999 V2000
  185.4640  177.8570  137.1120 C   0  0  0  0  0  3  0  0  0  0  0  0
  188.0190  176.8330  137.3130 C   0  0  0  0  0  0  0  0  0  0  0  0
  185.5320  178.6240  139.5310 C   0  0  0  0  0  0  0  0  0  0  0  0
  186.1270  178.4990  140.7280 C   0  0  0  0  0  3  0  0  0  0  0  0
  187.8700  177.5970  142.0930 C   0  0  0  0  0  0  0  0  0  0  0  0
  186.1720  177.9890  138.3360 C   0  0  0  0  0  0  0  0  0  0  0  0
  185.2370  177.1350  134.7950 C   0  0  0  0  0  1  0  0  0  0  0  0
  187.2610  176.7350  136.1160 C   0  0  0  0  0  0  0  0  0  0  0  0
  187.4170  177.8200  140.8920 C   0  0  0  0  0  0  0  0  0  0  0  0
  188.2990  177.5760  139.7020 C   0  0  1  0  0  3  0  0  0  0  0  0
  187.9530  176.1070  135.1540 N   0  0  0  0  0  0  0  0  0  0  0  0
  189.2320  176.2360  137.0600 C   0  0  0  0  0  3  0  0  0  0  0  0
  186.0090  177.2420  136.0200 N   0  0  0  0  0  0  0  0  0  0  0  0
  187.4870  177.4520  138.4400 C   0  0  0  0  0  0  0  0  0  0  0  0
  189.1460  175.8050  135.7290 C   0  0  0  0  0  3  0  0  0  0  0  0
  188.3140  177.3770  143.2980 C   0  0  0  0  0  3  0  0  0  0  0  0
  183.1100  178.8230  139.9210 C   0  0  0  0  0  3  0  0  0  0  0  0
  184.1820  180.6270  138.8710 O   0  0  0  0  0  1  0  0  0  0  0  0
  184.2360  179.3610  139.4440 C   0  0  0  0  0  0  0  0  0  0  0  0
  181.7890  179.5190  139.8600 C   0  0  0  0  0  2  0  0  0  0  0  0
  181.1360  177.4180  139.7980 C   0  0  0  0  0  1  0  0  0  0  0  0
  180.8310  178.6790  139.2950 O   0  0  0  0  0  0  0  0  0  0  0  0
  189.2110  178.6270  139.5720 O   0  0  0  0  0  0  0  0  0  0  0  0
  190.4210  178.0600  139.7790 N   0  0  0  0  0  1  0  0  0  0  0  0
  189.2760  178.3210  143.9240 C   0  0  0  0  0  2  0  0  0  0  0  0
  189.9090  177.6840  145.1160 C   0  0  0  0  0  0  0  0  0  0  0  0
  190.1820  176.9820  147.1720 N   0  0  0  0  0  0  0  0  0  0  0  0
  191.8760  176.6380  144.0460 O   0  0  0  0  0  1  0  0  0  0  0  0
  191.0570  176.9260  145.1290 C   0  0  0  0  0  0  0  0  0  0  0  0
  189.4010  177.6870  146.3640 N   0  0  0  0  0  0  0  0  0  0  0  0
  191.2080  176.5030  146.4370 C   0  0  0  0  0  0  0  0  0  0  0  0
  192.2830  175.6630  146.9870 C   0  0  0  0  0  0  0  0  0  0  0  0
  192.8030  174.7660  146.2720 O   0  0  0  0  0  0  0  0  0  0  0  0
  192.7760  175.8500  148.3800 C   0  0  0  0  0  1  0  0  0  0  0  0
  188.1790  178.3520  146.7970 C   0  0  0  0  0  2  0  0  0  0  0  0
  185.7550  178.3110  146.1970 C   0  0  0  0  0  1  0  0  0  0  0  0
  186.9670  177.4700  146.5470 C   0  0  0  0  0  2  0  0  0  0  0  0
  1  6  2  0  0  0  0
  2 14  2  0  0  0  0
  3  4  2  0  0  0  0
  4  9  1  0  0  0  0
  5 16  2  0  0  0  0
  6 14  1  0  0  0  0
  6  3  1  0  0  0  0
  7 13  1  0  0  0  0
  8  2  1  0  0  0  0
  9  5  2  0  0  0  0
 10 23  1  6  0  0  0
 10  9  1  0  0  0  0
 11 15  1  0  0  0  0
 11  8  2  0  0  0  0
 12  2  1  0  0  0  0
 13  8  1  0  0  0  0
 13  1  1  0  0  0  0
 14 10  1  0  0  0  0
 15 12  2  0  0  0  0
 16 25  1  0  0  0  0
 18 19  1  0  0  0  0
 19  3  1  0  0  0  0
 19 17  2  0  0  0  0
 20 17  1  0  0  0  0
 22 21  1  0  0  0  0
 22 20  1  0  0  0  0
 23 24  1  0  0  0  0
 25 26  1  0  0  0  0
 26 29  2  0  0  0  0
 26 30  1  0  0  0  0
 28 29  1  0  0  0  0
 29 31  1  0  0  0  0
 30 35  1  0  0  0  0
 30 27  1  0  0  0  0
 31 32  1  0  0  0  0
 31 27  2  0  0  0  0
 32 34  1  0  0  0  0
 33 32  2  0  0  0  0
 36 37  1  0  0  0  0
 37 35  1  0  0  0  0
M  END
>  <MODEL>
7

>  <REMARK>
 VINA RESULT:      -7.9      2.703      8.063
  Name = 
  9 active torsions:
  status: ('A' for Active; 'I' for Inactive)
    1  A    between atoms: C_3  and  C_27
    2  A    between atoms: C_4  and  C_13
    3  A    between atoms: C_4  and  C_37
    4  A    between atoms: C_5  and  N_25
    5  A    between atoms: C_5  and  C_33
    6  A    between atoms: C_6  and  C_18
    7  A    between atoms: O_7  and  C_29
    8  A    between atoms: C_12  and  C_26
    9  A    between atoms: O_21  and  C_27
                            x       y       z     vdW  Elec       q    Type
                         _______ _______ _______ _____ _____    ______ ____

>  <TORSDO>
F 9

$$$$
=
 OpenBabel10222419543D

 37 40  0  0  1  0  0  0  0  0999 V2000
  186.7150  177.9060  146.0060 C   0  0  0  0  0  3  0  0  0  0  0  0
  185.6690  178.2290  143.4720 C   0  0  0  0  0  0  0  0  0  0  0  0
  189.0280  177.4860  145.0470 C   0  0  0  0  0  0  0  0  0  0  0  0
  189.7460  177.1540  143.9630 C   0  0  0  0  0  3  0  0  0  0  0  0
  189.8710  176.6880  141.6210 C   0  0  0  0  0  0  0  0  0  0  0  0
  187.5760  177.8130  144.8800 C   0  0  0  0  0  0  0  0  0  0  0  0
  184.5460  178.2430  147.0650 C   0  0  0  0  0  1  0  0  0  0  0  0
  184.8610  178.3150  144.6370 C   0  0  0  0  0  0  0  0  0  0  0  0
  189.1720  177.1650  142.6130 C   0  0  0  0  0  0  0  0  0  0  0  0
  187.8950  177.9040  142.3410 C   0  0  1  0  0  3  0  0  0  0  0  0
  183.5830  178.5700  144.3220 N   0  0  0  0  0  0  0  0  0  0  0  0
  184.8370  178.4470  142.3990 C   0  0  0  0  0  3  0  0  0  0  0  0
  185.3790  178.1590  145.8780 N   0  0  0  0  0  0  0  0  0  0  0  0
  187.0330  177.9720  143.5740 C   0  0  0  0  0  0  0  0  0  0  0  0
  183.5710  178.6490  142.9650 C   0  0  0  0  0  3  0  0  0  0  0  0
  190.5750  176.2070  140.6370 C   0  0  0  0  0  3  0  0  0  0  0  0
  190.8800  176.8880  146.5540 C   0  0  0  0  0  3  0  0  0  0  0  0
  189.0990  178.1110  147.4710 O   0  0  0  0  0  1  0  0  0  0  0  0
  189.6970  177.4840  146.3830 C   0  0  0  0  0  0  0  0  0  0  0  0
  191.5900  176.8580  147.8680 C   0  0  0  0  0  2  0  0  0  0  0  0
  192.4300  175.2520  146.6190 C   0  0  0  0  0  1  0  0  0  0  0  0
  192.5540  175.8510  147.8690 O   0  0  0  0  0  0  0  0  0  0  0  0
  188.1870  179.1980  141.9010 O   0  0  0  0  0  0  0  0  0  0  0  0
  187.6750  179.2600  140.6500 N   0  0  0  0  0  1  0  0  0  0  0  0
  191.3820  177.1160  139.7810 C   0  0  0  0  0  2  0  0  0  0  0  0
  191.0650  176.8740  138.3430 C   0  0  0  0  0  0  0  0  0  0  0  0
  191.2860  176.1920  136.2740 N   0  0  0  0  0  0  0  0  0  0  0  0
  188.7120  177.6270  138.2930 O   0  0  0  0  0  1  0  0  0  0  0  0
  189.8590  177.0960  137.7200 C   0  0  0  0  0  0  0  0  0  0  0  0
  191.8990  176.3170  137.4430 N   0  0  0  0  0  0  0  0  0  0  0  0
  190.0290  176.6630  136.4170 C   0  0  0  0  0  0  0  0  0  0  0  0
  189.0370  176.6840  135.3310 C   0  0  0  0  0  0  0  0  0  0  0  0
  188.9390  177.7000  134.5940 O   0  0  0  0  0  0  0  0  0  0  0  0
  188.1390  175.5210  135.0810 C   0  0  0  0  0  1  0  0  0  0  0  0
  193.2760  175.9000  137.6840 C   0  0  0  0  0  2  0  0  0  0  0  0
  194.6520  174.0680  136.6940 C   0  0  0  0  0  1  0  0  0  0  0  0
  193.4220  174.3970  137.5150 C   0  0  0  0  0  2  0  0  0  0  0  0
  2 14  2  0  0  0  0
  2  8  1  0  0  0  0
  3 19  1  0  0  0  0
  4  3  2  0  0  0  0
  5  9  2  0  0  0  0
  6  3  1  0  0  0  0
  6  1  2  0  0  0  0
  8 13  1  0  0  0  0
  9  4  1  0  0  0  0
 10 23  1  1  0  0  0
 10  9  1  0  0  0  0
 10 14  1  0  0  0  0
 11  8  2  0  0  0  0
 12 15  2  0  0  0  0
 12  2  1  0  0  0  0
 13  1  1  0  0  0  0
 13  7  1  0  0  0  0
 14  6  1  0  0  0  0
 15 11  1  0  0  0  0
 16  5  2  0  0  0  0
 17 20  1  0  0  0  0
 19 17  2  0  0  0  0
 19 18  1  0  0  0  0
 20 22  1  0  0  0  0
 21 22  1  0  0  0  0
 24 23  1  0  0  0  0
 25 16  1  0  0  0  0
 26 25  1  0  0  0  0
 27 31  2  0  0  0  0
 27 30  1  0  0  0  0
 29 28  1  0  0  0  0
 29 26  2  0  0  0  0
 30 35  1  0  0  0  0
 30 26  1  0  0  0  0
 31 29  1  0  0  0  0
 32 31  1  0  0  0  0
 33 32  2  0  0  0  0
 34 32  1  0  0  0  0
 36 37  1  0  0  0  0
 37 35  1  0  0  0  0
M  END
>  <MODEL>
8

>  <REMARK>
 VINA RESULT:      -7.9      2.533      5.549
  Name = 
  9 active torsions:
  status: ('A' for Active; 'I' for Inactive)
    1  A    between atoms: C_3  and  C_27
    2  A    between atoms: C_4  and  C_13
    3  A    between atoms: C_4  and  C_37
    4  A    between atoms: C_5  and  N_25
    5  A    between atoms: C_5  and  C_33
    6  A    between atoms: C_6  and  C_18
    7  A    between atoms: O_7  and  C_29
    8  A    between atoms: C_12  and  C_26
    9  A    between atoms: O_21  and  C_27
                            x       y       z     vdW  Elec       q    Type
                         _______ _______ _______ _____ _____    ______ ____

>  <TORSDO>
F 9

$$$$
=
 OpenBabel10222419543D

 37 40  0  0  1  0  0  0  0  0999 V2000
  181.7210  178.3870  137.0290 C   0  0  0  0  0  3  0  0  0  0  0  0
  184.2660  177.4030  137.4440 C   0  0  0  0  0  0  0  0  0  0  0  0
  181.6280  179.2770  139.4050 C   0  0  0  0  0  0  0  0  0  0  0  0
  182.1460  179.2190  140.6420 C   0  0  0  0  0  3  0  0  0  0  0  0
  183.8070  178.4070  142.1600 C   0  0  0  0  0  0  0  0  0  0  0  0
  182.3490  178.5890  138.2870 C   0  0  0  0  0  0  0  0  0  0  0  0
  181.6490  177.5470  134.7430 C   0  0  0  0  0  1  0  0  0  0  0  0
  183.5880  177.2370  136.2080 C   0  0  0  0  0  0  0  0  0  0  0  0
  183.4290  178.5640  140.9220 C   0  0  0  0  0  0  0  0  0  0  0  0
  184.3870  178.2700  139.8050 C   0  0  1  0  0  3  0  0  0  0  0  0
  184.3440  176.5690  135.3260 N   0  0  0  0  0  0  0  0  0  0  0  0
  185.4980  176.8080  137.3000 C   0  0  0  0  0  3  0  0  0  0  0  0
  182.3400  177.7240  136.0080 N   0  0  0  0  0  0  0  0  0  0  0  0
  183.6590  178.0730  138.5020 C   0  0  0  0  0  0  0  0  0  0  0  0
  185.5010  176.3100  135.9900 C   0  0  0  0  0  3  0  0  0  0  0  0
  184.1740  178.2530  143.4000 C   0  0  0  0  0  3  0  0  0  0  0  0
  180.3050  181.3200  139.0420 C   0  0  0  0  0  3  0  0  0  0  0  0
  179.1370  179.2870  139.1580 O   0  0  0  0  0  1  0  0  0  0  0  0
  180.3340  179.9930  139.1990 C   0  0  0  0  0  0  0  0  0  0  0  0
  179.0370  182.0830  138.8320 C   0  0  0  0  0  2  0  0  0  0  0  0
  180.3830  183.3030  137.5880 C   0  0  0  0  0  1  0  0  0  0  0  0
  179.3250  183.4020  138.4870 O   0  0  0  0  0  0  0  0  0  0  0  0
  185.2970  179.3230  139.6800 O   0  0  0  0  0  0  0  0  0  0  0  0
  186.5120  178.7500  139.8420 N   0  0  0  0  0  1  0  0  0  0  0  0
  185.0870  179.2380  144.0370 C   0  0  0  0  0  2  0  0  0  0  0  0
  186.1530  178.5240  144.7990 C   0  0  0  0  0  0  0  0  0  0  0  0
  187.9240  177.3030  145.2060 N   0  0  0  0  0  0  0  0  0  0  0  0
  185.6800  179.3590  147.0760 O   0  0  0  0  0  1  0  0  0  0  0  0
  186.3990  178.6170  146.1480 C   0  0  0  0  0  0  0  0  0  0  0  0
  187.1000  177.7320  144.2590 N   0  0  0  0  0  0  0  0  0  0  0  0
  187.5160  177.8330  146.3780 C   0  0  0  0  0  0  0  0  0  0  0  0
  188.1900  177.5910  147.6620 C   0  0  0  0  0  0  0  0  0  0  0  0
  187.5660  177.7770  148.7400 O   0  0  0  0  0  0  0  0  0  0  0  0
  189.6040  177.1260  147.7190 C   0  0  0  0  0  1  0  0  0  0  0  0
  187.2310  177.3790  142.8510 C   0  0  0  0  0  2  0  0  0  0  0  0
  189.5490  177.8770  142.0670 C   0  0  0  0  0  1  0  0  0  0  0  0
  188.6060  176.8000  142.5650 C   0  0  0  0  0  2  0  0  0  0  0  0
  1  6  2  0  0  0  0
  2 14  2  0  0  0  0
  3  4  2  0  0  0  0
  4  9  1  0  0  0  0
  5 16  2  0  0  0  0
  6 14  1  0  0  0  0
  6  3  1  0  0  0  0
  7 13  1  0  0  0  0
  8  2  1  0  0  0  0
  9  5  2  0  0  0  0
 10 23  1  6  0  0  0
 10  9  1  0  0  0  0
 11 15  1  0  0  0  0
 11  8  2  0  0  0  0
 12  2  1  0  0  0  0
 13  8  1  0  0  0  0
 13  1  1  0  0  0  0
 14 10  1  0  0  0  0
 15 12  2  0  0  0  0
 16 25  1  0  0  0  0
 17 19  2  0  0  0  0
 18 19  1  0  0  0  0
 19  3  1  0  0  0  0
 20 17  1  0  0  0  0
 21 22  1  0  0  0  0
 22 20  1  0  0  0  0
 23 24  1  0  0  0  0
 25 26  1  0  0  0  0
 26 29  2  0  0  0  0
 27 31  2  0  0  0  0
 29 31  1  0  0  0  0
 29 28  1  0  0  0  0
 30 26  1  0  0  0  0
 30 27  1  0  0  0  0
 31 32  1  0  0  0  0
 32 34  1  0  0  0  0
 32 33  2  0  0  0  0
 35 30  1  0  0  0  0
 36 37  1  0  0  0  0
 37 35  1  0  0  0  0
M  END
>  <MODEL>
9

>  <REMARK>
 VINA RESULT:      -7.8      4.039      8.966
  Name = 
  9 active torsions:
  status: ('A' for Active; 'I' for Inactive)
    1  A    between atoms: C_3  and  C_27
    2  A    between atoms: C_4  and  C_13
    3  A    between atoms: C_4  and  C_37
    4  A    between atoms: C_5  and  N_25
    5  A    between atoms: C_5  and  C_33
    6  A    between atoms: C_6  and  C_18
    7  A    between atoms: O_7  and  C_29
    8  A    between atoms: C_12  and  C_26
    9  A    between atoms: O_21  and  C_27
                            x       y       z     vdW  Elec       q    Type
                         _______ _______ _______ _____ _____    ______ ____

>  <TORSDO>
F 9

$$$$
