=
 OpenBabel10222416043D

 32 36  0  0  1  0  0  0  0  0999 V2000
  183.1020  178.1590  140.6260 C   0  0  1  0  0  3  0  0  0  0  0  0
  182.7630  179.7950  137.9590 C   0  0  0  0  0  2  0  0  0  0  0  0
  183.5170  180.1040  139.1600 N   0  0  0  0  0  0  0  0  0  0  0  0
  181.3890  179.6770  139.9150 C   0  0  0  0  0  2  0  0  0  0  0  0
  181.3110  179.7100  138.4010 C   0  0  1  0  0  3  0  0  0  0  0  0
  184.8060  179.5510  139.0600 N   0  0  0  0  0  1  0  0  0  0  0  0
  182.8010  179.5760  140.2720 N   0  0  0  0  0  0  0  0  0  0  0  0
  180.0200  181.7950  138.9740 C   0  0  0  0  0  2  0  0  0  0  0  0
  180.3840  180.8470  137.9230 C   0  0  1  0  0  3  0  0  0  0  0  0
  181.0750  182.1480  138.0030 N   0  0  0  0  0  0  0  0  0  0  0  0
  180.4720  183.0160  136.9980 C   0  0  2  0  0  3  0  0  0  0  0  0
  180.6050  182.3760  135.6230 C   0  0  0  0  0  1  0  0  0  0  0  0
  181.3280  184.8510  135.7230 F   0  0  0  0  0  0  0  0  0  0  0  0
  182.3590  184.3410  137.6760 F   0  0  0  0  0  0  0  0  0  0  0  0
  181.1430  184.3890  137.0140 C   0  0  0  0  0  3  0  0  0  0  0  0
  183.7340  177.9240  142.0230 C   0  0  2  0  0  3  0  0  0  0  0  0
  183.3570  178.9510  142.9100 O   0  0  0  0  0  0  0  0  0  0  0  0
  184.6880  178.9860  142.4430 C   0  0  1  0  0  3  0  0  0  0  0  0
  187.5350  177.8440  147.7610 C   0  0  0  0  0  3  0  0  0  0  0  0
  185.6080  178.4830  143.5060 C   0  0  0  0  0  0  0  0  0  0  0  0
  187.3720  177.6120  145.4610 C   0  0  0  0  0  0  0  0  0  0  0  0
  186.2930  178.3690  145.8130 C   0  0  0  0  0  0  0  0  0  0  0  0
  185.3920  178.8340  144.8540 C   0  0  0  0  0  2  0  0  0  0  0  0
  186.2770  178.6010  147.2780 C   0  0  0  0  0  3  0  0  0  0  0  0
  187.6290  177.2650  144.1330 C   0  0  0  0  0  3  0  0  0  0  0  0
  188.1690  177.2660  146.5740 N   0  0  0  0  0  0  0  0  0  0  0  0
  186.7350  177.7110  143.1500 C   0  0  0  0  0  3  0  0  0  0  0  0
  182.0060  177.1860  140.1790 C   0  0  0  0  0  2  0  0  0  0  0  0
  182.5910  175.9910  139.4940 C   0  0  0  0  0  3  0  0  0  0  0  0
  183.2310  176.1150  138.3900 N   0  0  0  0  0  0  0  0  0  0  0  0
  183.7840  174.9500  137.7590 C   0  0  0  0  0  2  0  0  0  0  0  0
  185.0320  175.3290  136.9860 C   0  0  0  0  0  1  0  0  0  0  0  0
  1 28  1  1  0  0  0
  2  3  1  0  0  0  0
  3  7  1  0  0  0  0
  4  7  1  0  0  0  0
  5  2  1  6  0  0  0
  5  4  1  0  0  0  0
  6  3  1  0  0  0  0
  7  1  1  0  0  0  0
  9 10  1  0  0  0  0
  9  5  1  0  0  0  0
  9  8  1  1  0  0  0
 10  8  1  0  0  0  0
 11 12  1  6  0  0  0
 11 15  1  0  0  0  0
 11 10  1  0  0  0  0
 13 15  1  0  0  0  0
 15 14  1  0  0  0  0
 16  1  1  6  0  0  0
 16 18  1  0  0  0  0
 16 17  1  0  0  0  0
 18 17  1  0  0  0  0
 18 20  1  1  0  0  0
 20 23  1  0  0  0  0
 21 22  1  0  0  0  0
 21 26  1  0  0  0  0
 22 24  2  0  0  0  0
 23 22  1  0  0  0  0
 24 19  1  0  0  0  0
 25 21  2  0  0  0  0
 26 19  2  0  0  0  0
 27 20  2  0  0  0  0
 27 25  1  0  0  0  0
 29 28  1  0  0  0  0
 30 29  2  0  0  0  0
 31 30  1  0  0  0  0
 32 31  1  0  0  0  0
M  END
>  <MODEL>
1

>  <REMARK>
 VINA RESULT:      -7.3      0.000      0.000
  Name = 
  9 active torsions:
  status: ('A' for Active; 'I' for Inactive)
    1  A    between atoms: C_2  and  C_22
    2  A    between atoms: C_3  and  C_11
    3  A    between atoms: C_6  and  C_15
    4  A    between atoms: N_8  and  C_24
    5  A    between atoms: C_13  and  C_20
    6  A    between atoms: C_15  and  C_22
    7  A    between atoms: C_15  and  N_32
    8  A    between atoms: C_19  and  C_28
    9  A    between atoms: C_19  and  N_29
                            x       y       z     vdW  Elec       q    Type
                         _______ _______ _______ _____ _____    ______ ____

>  <TORSDO>
F 9

$$$$
=
 OpenBabel10222416043D

 32 36  0  0  1  0  0  0  0  0999 V2000
  184.0280  178.6410  141.5230 C   0  0  1  0  0  3  0  0  0  0  0  0
  181.5620  179.1970  139.6480 C   0  0  0  0  0  2  0  0  0  0  0  0
  181.6670  178.3790  140.8420 N   0  0  0  0  0  0  0  0  0  0  0  0
  183.3420  177.6080  139.4710 C   0  0  0  0  0  2  0  0  0  0  0  0
  182.5200  178.5770  138.6440 C   0  0  1  0  0  3  0  0  0  0  0  0
  181.4180  179.1710  141.9770 N   0  0  0  0  0  1  0  0  0  0  0  0
  182.9740  177.8130  140.8690 N   0  0  0  0  0  0  0  0  0  0  0  0
  182.8330  177.1450  136.5960 C   0  0  0  0  0  2  0  0  0  0  0  0
  181.8760  177.8600  137.4380 C   0  0  1  0  0  3  0  0  0  0  0  0
  182.0140  176.3970  137.5700 N   0  0  0  0  0  0  0  0  0  0  0  0
  180.9050  175.7950  136.8390 C   0  0  2  0  0  3  0  0  0  0  0  0
  179.5900  176.3930  137.3200 C   0  0  0  0  0  1  0  0  0  0  0  0
  180.6390  173.9640  138.3560 F   0  0  0  0  0  0  0  0  0  0  0  0
  182.1140  173.7260  136.6530 F   0  0  0  0  0  0  0  0  0  0  0  0
  180.9030  174.2790  137.0360 C   0  0  0  0  0  3  0  0  0  0  0  0
  184.5440  178.1310  142.8940 C   0  0  2  0  0  3  0  0  0  0  0  0
  183.5720  178.3400  143.8920 O   0  0  0  0  0  0  0  0  0  0  0  0
  184.6920  179.1980  143.9210 C   0  0  1  0  0  3  0  0  0  0  0  0
  189.3980  176.8790  147.1090 C   0  0  0  0  0  3  0  0  0  0  0  0
  185.6270  178.7670  145.0020 C   0  0  0  0  0  0  0  0  0  0  0  0
  187.3160  177.8950  147.0210 C   0  0  0  0  0  0  0  0  0  0  0  0
  187.6890  177.7480  145.7170 C   0  0  2  0  0  3  0  0  0  0  0  0
  186.8590  178.1660  144.6760 C   0  0  0  0  0  3  0  0  0  0  0  0
  189.0200  177.0980  145.6270 C   0  0  0  0  0  3  0  0  0  0  0  0
  186.0940  178.4660  147.3800 C   0  0  0  0  0  3  0  0  0  0  0  0
  188.2860  177.3890  147.9150 N   0  0  0  0  0  0  0  0  0  0  0  0
  185.2440  178.9020  146.3540 C   0  0  0  0  0  3  0  0  0  0  0  0
  185.0710  179.1700  140.5330 C   0  0  0  0  0  2  0  0  0  0  0  0
  186.4320  178.6290  140.8430 C   0  0  0  0  0  3  0  0  0  0  0  0
  187.3300  178.5520  139.9320 N   0  0  0  0  0  0  0  0  0  0  0  0
  188.6270  178.0330  140.2620 C   0  0  0  0  0  2  0  0  0  0  0  0
  188.6080  177.4570  141.6640 C   0  0  0  0  0  1  0  0  0  0  0  0
  1 28  1  6  0  0  0
  2  3  1  0  0  0  0
  3  7  1  0  0  0  0
  3  6  1  0  0  0  0
  4  7  1  0  0  0  0
  5  4  1  1  0  0  0
  5  2  1  0  0  0  0
  7  1  1  0  0  0  0
  8 10  1  0  0  0  0
  9  8  1  6  0  0  0
  9 10  1  0  0  0  0
  9  5  1  0  0  0  0
 11 15  1  0  0  0  0
 11 12  1  1  0  0  0
 11 10  1  0  0  0  0
 14 15  1  0  0  0  0
 15 13  1  0  0  0  0
 16  1  1  6  0  0  0
 16 17  1  0  0  0  0
 16 18  1  0  0  0  0
 17 18  1  0  0  0  0
 18 20  1  1  0  0  0
 19 26  1  0  0  0  0
 20 27  1  0  0  0  0
 21 25  1  0  0  0  0
 21 26  2  0  0  0  0
 22 23  1  6  0  0  0
 22 21  1  0  0  0  0
 23 20  2  0  0  0  0
 24 22  1  0  0  0  0
 24 19  2  0  0  0  0
 27 25  2  0  0  0  0
 28 29  1  0  0  0  0
 30 31  1  0  0  0  0
 30 29  2  0  0  0  0
 31 32  1  0  0  0  0
M  END
>  <MODEL>
2

>  <REMARK>
 VINA RESULT:      -7.2      3.621      4.899
  Name = 
  9 active torsions:
  status: ('A' for Active; 'I' for Inactive)
    1  A    between atoms: C_2  and  C_22
    2  A    between atoms: C_3  and  C_11
    3  A    between atoms: C_6  and  C_15
    4  A    between atoms: N_8  and  C_24
    5  A    between atoms: C_13  and  C_20
    6  A    between atoms: C_15  and  C_22
    7  A    between atoms: C_15  and  N_32
    8  A    between atoms: C_19  and  C_28
    9  A    between atoms: C_19  and  N_29
                            x       y       z     vdW  Elec       q    Type
                         _______ _______ _______ _____ _____    ______ ____

>  <TORSDO>
F 9

$$$$
=
 OpenBabel10222416043D

 32 36  0  0  1  0  0  0  0  0999 V2000
  185.0850  178.5650  142.8910 C   0  0  1  0  0  3  0  0  0  0  0  0
  182.2030  179.5190  142.0590 C   0  0  0  0  0  2  0  0  0  0  0  0
  182.6190  178.5290  143.0360 N   0  0  0  0  0  0  0  0  0  0  0  0
  183.6570  177.8820  141.0910 C   0  0  0  0  0  2  0  0  0  0  0  0
  182.7050  179.0040  140.7210 C   0  0  1  0  0  3  0  0  0  0  0  0
  182.8420  179.1570  144.2750 N   0  0  0  0  0  1  0  0  0  0  0  0
  183.7970  177.8990  142.5440 N   0  0  0  0  0  0  0  0  0  0  0  0
  182.1610  177.7080  138.6310 C   0  0  0  0  0  2  0  0  0  0  0  0
  181.6290  178.5070  139.7320 C   0  0  1  0  0  3  0  0  0  0  0  0
  181.5210  177.0370  139.7790 N   0  0  0  0  0  0  0  0  0  0  0  0
  180.1600  176.6950  139.3830 C   0  0  2  0  0  3  0  0  0  0  0  0
  179.1730  177.2800  140.3840 C   0  0  0  0  0  1  0  0  0  0  0  0
  181.1890  174.5850  138.9200 F   0  0  0  0  0  0  0  0  0  0  0  0
  178.9940  174.8290  138.4130 F   0  0  0  0  0  0  0  0  0  0  0  0
  179.9990  175.1770  139.3020 C   0  0  0  0  0  3  0  0  0  0  0  0
  186.0020  177.8050  143.8850 C   0  0  2  0  0  3  0  0  0  0  0  0
  185.3220  177.5700  145.0960 O   0  0  0  0  0  0  0  0  0  0  0  0
  186.3180  178.5690  145.1220 C   0  0  1  0  0  3  0  0  0  0  0  0
  191.9120  176.3190  146.2800 C   0  0  0  0  0  3  0  0  0  0  0  0
  187.5490  178.0340  145.7760 C   0  0  0  0  0  0  0  0  0  0  0  0
  189.8000  176.9590  146.9890 C   0  0  0  0  0  0  0  0  0  0  0  0
  189.8150  177.2240  145.6510 C   0  0  2  0  0  3  0  0  0  0  0  0
  188.6960  177.7540  145.0060 C   0  0  0  0  0  3  0  0  0  0  0  0
  191.1240  176.8520  145.0620 C   0  0  0  0  0  3  0  0  0  0  0  0
  188.6740  177.2030  147.7780 C   0  0  0  0  0  3  0  0  0  0  0  0
  191.0200  176.4070  147.4390 N   0  0  0  0  0  0  0  0  0  0  0  0
  187.5390  177.7440  147.1580 C   0  0  0  0  0  3  0  0  0  0  0  0
  185.7570  179.2290  141.6840 C   0  0  0  0  0  2  0  0  0  0  0  0
  187.1260  178.6710  141.4540 C   0  0  0  0  0  3  0  0  0  0  0  0
  187.5770  178.5050  140.2660 N   0  0  0  0  0  0  0  0  0  0  0  0
  188.8960  177.9710  140.0780 C   0  0  0  0  0  2  0  0  0  0  0  0
  189.4560  177.5080  141.4090 C   0  0  0  0  0  1  0  0  0  0  0  0
  1 28  1  6  0  0  0
  2  3  1  0  0  0  0
  3  6  1  0  0  0  0
  4  7  1  0  0  0  0
  5  4  1  1  0  0  0
  5  2  1  0  0  0  0
  7  1  1  0  0  0  0
  7  3  1  0  0  0  0
  8 10  1  0  0  0  0
  9  8  1  6  0  0  0
  9 10  1  0  0  0  0
  9  5  1  0  0  0  0
 11 10  1  0  0  0  0
 11 12  1  1  0  0  0
 13 15  1  0  0  0  0
 14 15  1  0  0  0  0
 15 11  1  0  0  0  0
 16  1  1  6  0  0  0
 16 17  1  0  0  0  0
 16 18  1  0  0  0  0
 17 18  1  0  0  0  0
 18 20  1  1  0  0  0
 19 26  1  0  0  0  0
 20 27  1  0  0  0  0
 21 26  2  0  0  0  0
 21 25  1  0  0  0  0
 22 23  1  6  0  0  0
 22 21  1  0  0  0  0
 23 20  2  0  0  0  0
 24 22  1  0  0  0  0
 24 19  2  0  0  0  0
 27 25  2  0  0  0  0
 29 28  1  0  0  0  0
 30 29  2  0  0  0  0
 31 30  1  0  0  0  0
 31 32  1  0  0  0  0
M  END
>  <MODEL>
3

>  <REMARK>
 VINA RESULT:      -7.1      3.878      5.312
  Name = 
  9 active torsions:
  status: ('A' for Active; 'I' for Inactive)
    1  A    between atoms: C_2  and  C_22
    2  A    between atoms: C_3  and  C_11
    3  A    between atoms: C_6  and  C_15
    4  A    between atoms: N_8  and  C_24
    5  A    between atoms: C_13  and  C_20
    6  A    between atoms: C_15  and  C_22
    7  A    between atoms: C_15  and  N_32
    8  A    between atoms: C_19  and  C_28
    9  A    between atoms: C_19  and  N_29
                            x       y       z     vdW  Elec       q    Type
                         _______ _______ _______ _____ _____    ______ ____

>  <TORSDO>
F 9

$$$$
=
 OpenBabel10222416043D

 32 36  0  0  1  0  0  0  0  0999 V2000
  185.1890  178.5300  142.8590 C   0  0  1  0  0  3  0  0  0  0  0  0
  182.3390  179.4670  141.9060 C   0  0  0  0  0  2  0  0  0  0  0  0
  182.7190  178.5010  142.9200 N   0  0  0  0  0  0  0  0  0  0  0  0
  183.8220  177.8070  141.0270 C   0  0  0  0  0  2  0  0  0  0  0  0
  182.8870  178.9210  140.5980 C   0  0  1  0  0  3  0  0  0  0  0  0
  182.9010  179.1580  144.1500 N   0  0  0  0  0  1  0  0  0  0  0  0
  183.9120  177.8570  142.4830 N   0  0  0  0  0  0  0  0  0  0  0  0
  180.5020  178.9450  139.7860 C   0  0  0  0  0  2  0  0  0  0  0  0
  181.8440  178.4020  139.5840 C   0  0  1  0  0  3  0  0  0  0  0  0
  181.3650  179.5010  138.7250 N   0  0  0  0  0  0  0  0  0  0  0  0
  180.9450  178.9060  137.4620 C   0  0  2  0  0  3  0  0  0  0  0  0
  182.0920  178.0980  136.8710 C   0  0  0  0  0  1  0  0  0  0  0  0
  181.2290  181.1540  136.6920 F   0  0  0  0  0  0  0  0  0  0  0  0
  179.1490  180.2590  136.6130 F   0  0  0  0  0  0  0  0  0  0  0  0
  180.5030  179.9950  136.4850 C   0  0  0  0  0  3  0  0  0  0  0  0
  186.0840  177.7780  143.8780 C   0  0  2  0  0  3  0  0  0  0  0  0
  185.3880  177.5790  145.0870 O   0  0  0  0  0  0  0  0  0  0  0  0
  186.4000  178.5630  145.1020 C   0  0  1  0  0  3  0  0  0  0  0  0
  191.9530  176.2680  146.3650 C   0  0  0  0  0  3  0  0  0  0  0  0
  187.6160  178.0230  145.7790 C   0  0  0  0  0  0  0  0  0  0  0  0
  189.8380  176.9400  147.0370 C   0  0  0  0  0  0  0  0  0  0  0  0
  189.8740  177.1870  145.6960 C   0  0  2  0  0  3  0  0  0  0  0  0
  188.7700  177.7210  145.0290 C   0  0  0  0  0  3  0  0  0  0  0  0
  191.1880  176.7940  145.1290 C   0  0  0  0  0  3  0  0  0  0  0  0
  188.7050  177.2060  147.8070 C   0  0  0  0  0  3  0  0  0  0  0  0
  191.0460  176.3810  147.5100 N   0  0  0  0  0  0  0  0  0  0  0  0
  187.5840  177.7500  147.1650 C   0  0  0  0  0  3  0  0  0  0  0  0
  185.8870  179.1920  141.6660 C   0  0  0  0  0  2  0  0  0  0  0  0
  187.2390  178.5930  141.4320 C   0  0  0  0  0  3  0  0  0  0  0  0
  187.7060  178.4710  140.2450 N   0  0  0  0  0  0  0  0  0  0  0  0
  189.0070  177.8970  140.0530 C   0  0  0  0  0  2  0  0  0  0  0  0
  189.5350  177.3690  141.3740 C   0  0  0  0  0  1  0  0  0  0  0  0
  1 28  1  6  0  0  0
  2  3  1  0  0  0  0
  3  6  1  0  0  0  0
  4  7  1  0  0  0  0
  5  4  1  1  0  0  0
  5  2  1  0  0  0  0
  7  1  1  0  0  0  0
  7  3  1  0  0  0  0
  9  8  1  1  0  0  0
  9  5  1  0  0  0  0
 10  9  1  0  0  0  0
 10  8  1  0  0  0  0
 11 12  1  6  0  0  0
 11 10  1  0  0  0  0
 15 14  1  0  0  0  0
 15 13  1  0  0  0  0
 15 11  1  0  0  0  0
 16  1  1  6  0  0  0
 16 17  1  0  0  0  0
 16 18  1  0  0  0  0
 17 18  1  0  0  0  0
 18 20  1  1  0  0  0
 19 26  1  0  0  0  0
 20 27  1  0  0  0  0
 21 26  2  0  0  0  0
 21 25  1  0  0  0  0
 22 23  1  6  0  0  0
 22 21  1  0  0  0  0
 23 20  2  0  0  0  0
 24 22  1  0  0  0  0
 24 19  2  0  0  0  0
 27 25  2  0  0  0  0
 29 28  1  0  0  0  0
 30 29  2  0  0  0  0
 31 30  1  0  0  0  0
 31 32  1  0  0  0  0
M  END
>  <MODEL>
4

>  <REMARK>
 VINA RESULT:      -7.1      2.588      4.219
  Name = 
  9 active torsions:
  status: ('A' for Active; 'I' for Inactive)
    1  A    between atoms: C_2  and  C_22
    2  A    between atoms: C_3  and  C_11
    3  A    between atoms: C_6  and  C_15
    4  A    between atoms: N_8  and  C_24
    5  A    between atoms: C_13  and  C_20
    6  A    between atoms: C_15  and  C_22
    7  A    between atoms: C_15  and  N_32
    8  A    between atoms: C_19  and  C_28
    9  A    between atoms: C_19  and  N_29
                            x       y       z     vdW  Elec       q    Type
                         _______ _______ _______ _____ _____    ______ ____

>  <TORSDO>
F 9

$$$$
=
 OpenBabel10222416043D

 32 36  0  0  1  0  0  0  0  0999 V2000
  182.1660  179.1090  140.3520 C   0  0  1  0  0  3  0  0  0  0  0  0
  181.0700  179.0830  137.4020 C   0  0  0  0  0  2  0  0  0  0  0  0
  182.4000  179.3740  137.9060 N   0  0  0  0  0  0  0  0  0  0  0  0
  181.0210  180.7880  139.0810 C   0  0  0  0  0  2  0  0  0  0  0  0
  180.1650  180.1410  138.0090 C   0  0  1  0  0  3  0  0  0  0  0  0
  183.1350  178.1790  138.0080 N   0  0  0  0  0  1  0  0  0  0  0  0
  182.2550  180.0140  139.1710 N   0  0  0  0  0  0  0  0  0  0  0  0
  178.9350  182.3180  137.7000 C   0  0  0  0  0  2  0  0  0  0  0  0
  179.6080  181.2030  137.0370 C   0  0  1  0  0  3  0  0  0  0  0  0
  180.3160  182.4860  137.2080 N   0  0  0  0  0  0  0  0  0  0  0  0
  180.2440  183.1890  135.9330 C   0  0  2  0  0  3  0  0  0  0  0  0
  180.8020  182.3030  134.8280 C   0  0  0  0  0  1  0  0  0  0  0  0
  181.9750  184.4410  137.0120 F   0  0  0  0  0  0  0  0  0  0  0  0
  180.1770  185.5740  136.2260 F   0  0  0  0  0  0  0  0  0  0  0  0
  181.0260  184.5010  136.0080 C   0  0  0  0  0  3  0  0  0  0  0  0
  183.2330  179.3220  141.4570 C   0  0  2  0  0  3  0  0  0  0  0  0
  184.5280  179.2640  140.9060 O   0  0  0  0  0  0  0  0  0  0  0  0
  184.1250  178.1500  141.6730 C   0  0  1  0  0  3  0  0  0  0  0  0
  187.9720  177.6710  146.4340 C   0  0  0  0  0  3  0  0  0  0  0  0
  184.7640  178.2100  143.0210 C   0  0  0  0  0  0  0  0  0  0  0  0
  185.9090  178.2480  145.5470 C   0  0  0  0  0  0  0  0  0  0  0  0
  186.6370  177.8050  144.4810 C   0  0  2  0  0  3  0  0  0  0  0  0
  186.0890  177.7620  143.1980 C   0  0  0  0  0  3  0  0  0  0  0  0
  187.9950  177.3950  144.9140 C   0  0  0  0  0  3  0  0  0  0  0  0
  184.5880  178.6780  145.4110 C   0  0  0  0  0  3  0  0  0  0  0  0
  186.6400  178.1900  146.7540 N   0  0  0  0  0  0  0  0  0  0  0  0
  184.0140  178.6530  144.1320 C   0  0  0  0  0  3  0  0  0  0  0  0
  180.7240  178.8620  140.8070 C   0  0  0  0  0  2  0  0  0  0  0  0
  180.3630  177.4140  140.6930 C   0  0  0  0  0  3  0  0  0  0  0  0
  181.0360  176.6270  139.9380 N   0  0  0  0  0  0  0  0  0  0  0  0
  180.6670  175.2420  139.8540 C   0  0  0  0  0  2  0  0  0  0  0  0
  179.4380  174.9860  140.7040 C   0  0  0  0  0  1  0  0  0  0  0  0
  1 28  1  1  0  0  0
  2  3  1  0  0  0  0
  3  6  1  0  0  0  0
  3  7  1  0  0  0  0
  4  7  1  0  0  0  0
  5  2  1  6  0  0  0
  5  4  1  0  0  0  0
  7  1  1  0  0  0  0
  9 10  1  0  0  0  0
  9  8  1  1  0  0  0
  9  5  1  0  0  0  0
 10  8  1  0  0  0  0
 11 12  1  6  0  0  0
 11 15  1  0  0  0  0
 11 10  1  0  0  0  0
 15 14  1  0  0  0  0
 15 13  1  0  0  0  0
 16  1  1  6  0  0  0
 16 18  1  0  0  0  0
 17 16  1  0  0  0  0
 17 18  1  0  0  0  0
 18 20  1  1  0  0  0
 19 26  1  0  0  0  0
 20 23  2  0  0  0  0
 20 27  1  0  0  0  0
 21 26  2  0  0  0  0
 22 23  1  1  0  0  0
 22 24  1  0  0  0  0
 22 21  1  0  0  0  0
 24 19  2  0  0  0  0
 25 21  1  0  0  0  0
 27 25  2  0  0  0  0
 29 28  1  0  0  0  0
 30 29  2  0  0  0  0
 31 30  1  0  0  0  0
 31 32  1  0  0  0  0
M  END
>  <MODEL>
5

>  <REMARK>
 VINA RESULT:      -7.0      1.761      2.351
  Name = 
  9 active torsions:
  status: ('A' for Active; 'I' for Inactive)
    1  A    between atoms: C_2  and  C_22
    2  A    between atoms: C_3  and  C_11
    3  A    between atoms: C_6  and  C_15
    4  A    between atoms: N_8  and  C_24
    5  A    between atoms: C_13  and  C_20
    6  A    between atoms: C_15  and  C_22
    7  A    between atoms: C_15  and  N_32
    8  A    between atoms: C_19  and  C_28
    9  A    between atoms: C_19  and  N_29
                            x       y       z     vdW  Elec       q    Type
                         _______ _______ _______ _____ _____    ______ ____

>  <TORSDO>
F 9

$$$$
=
 OpenBabel10222416043D

 32 36  0  0  1  0  0  0  0  0999 V2000
  191.2600  177.1290  145.7390 C   0  0  1  0  0  3  0  0  0  0  0  0
  190.4160  175.9860  142.9300 C   0  0  0  0  0  2  0  0  0  0  0  0
  191.7210  176.0530  143.5630 N   0  0  0  0  0  0  0  0  0  0  0  0
  190.9440  178.2150  143.6250 C   0  0  0  0  0  2  0  0  0  0  0  0
  189.9670  177.4290  142.7720 C   0  0  1  0  0  3  0  0  0  0  0  0
  191.9190  174.9060  144.3520 N   0  0  0  0  0  1  0  0  0  0  0  0
  191.7670  177.2450  144.3420 N   0  0  0  0  0  0  0  0  0  0  0  0
  190.8540  177.3090  140.4180 C   0  0  0  0  0  2  0  0  0  0  0  0
  189.9310  177.9800  141.3310 C   0  0  1  0  0  3  0  0  0  0  0  0
  189.4210  176.9570  140.3980 N   0  0  0  0  0  0  0  0  0  0  0  0
  188.8130  177.6650  139.2770 C   0  0  2  0  0  3  0  0  0  0  0  0
  187.4760  178.2530  139.7090 C   0  0  0  0  0  1  0  0  0  0  0  0
  189.6800  176.8220  137.2120 F   0  0  0  0  0  0  0  0  0  0  0  0
  187.4300  176.9780  137.4350 F   0  0  0  0  0  0  0  0  0  0  0  0
  188.6200  176.7160  138.0950 C   0  0  0  0  0  3  0  0  0  0  0  0
  189.8980  177.8120  146.0300 C   0  0  2  0  0  3  0  0  0  0  0  0
  189.4860  177.5390  147.3500 O   0  0  0  0  0  0  0  0  0  0  0  0
  188.7940  176.8590  146.3260 C   0  0  1  0  0  3  0  0  0  0  0  0
  183.6250  179.0920  143.8770 C   0  0  0  0  0  3  0  0  0  0  0  0
  187.4650  177.5020  146.1040 C   0  0  0  0  0  0  0  0  0  0  0  0
  185.0360  178.7760  145.6890 C   0  0  0  0  0  0  0  0  0  0  0  0
  185.6520  178.1410  144.6510 C   0  0  2  0  0  3  0  0  0  0  0  0
  186.8800  177.5000  144.8220 C   0  0  0  0  0  3  0  0  0  0  0  0
  184.8480  178.2700  143.4110 C   0  0  0  0  0  3  0  0  0  0  0  0
  185.5960  178.8170  146.9670 C   0  0  0  0  0  3  0  0  0  0  0  0
  183.8180  179.3780  145.3010 N   0  0  0  0  0  0  0  0  0  0  0  0
  186.8260  178.1750  147.1690 C   0  0  0  0  0  3  0  0  0  0  0  0
  191.4930  175.7400  146.3440 C   0  0  0  0  0  2  0  0  0  0  0  0
  192.6070  175.7670  147.3430 C   0  0  0  0  0  3  0  0  0  0  0  0
  192.4700  176.3730  148.4640 N   0  0  0  0  0  0  0  0  0  0  0  0
  193.5550  176.3780  149.4030 C   0  0  0  0  0  2  0  0  0  0  0  0
  193.5410  177.6700  150.1970 C   0  0  0  0  0  1  0  0  0  0  0  0
  1 28  1  6  0  0  0
  2  3  1  0  0  0  0
  3  7  1  0  0  0  0
  3  6  1  0  0  0  0
  4  7  1  0  0  0  0
  5  2  1  6  0  0  0
  5  4  1  0  0  0  0
  7  1  1  0  0  0  0
  9  8  1  6  0  0  0
  9  5  1  0  0  0  0
 10  8  1  0  0  0  0
 10  9  1  0  0  0  0
 11 12  1  1  0  0  0
 11 10  1  0  0  0  0
 13 15  1  0  0  0  0
 14 15  1  0  0  0  0
 15 11  1  0  0  0  0
 16  1  1  1  0  0  0
 16 18  1  0  0  0  0
 16 17  1  0  0  0  0
 18 20  1  6  0  0  0
 18 17  1  0  0  0  0
 19 26  1  0  0  0  0
 20 27  1  0  0  0  0
 21 25  1  0  0  0  0
 22 24  1  6  0  0  0
 22 23  1  0  0  0  0
 22 21  1  0  0  0  0
 23 20  2  0  0  0  0
 24 19  2  0  0  0  0
 25 27  2  0  0  0  0
 26 21  2  0  0  0  0
 28 29  1  0  0  0  0
 29 30  2  0  0  0  0
 30 31  1  0  0  0  0
 31 32  1  0  0  0  0
M  END
>  <MODEL>
6

>  <REMARK>
 VINA RESULT:      -7.0      5.563      9.381
  Name = 
  9 active torsions:
  status: ('A' for Active; 'I' for Inactive)
    1  A    between atoms: C_2  and  C_22
    2  A    between atoms: C_3  and  C_11
    3  A    between atoms: C_6  and  C_15
    4  A    between atoms: N_8  and  C_24
    5  A    between atoms: C_13  and  C_20
    6  A    between atoms: C_15  and  C_22
    7  A    between atoms: C_15  and  N_32
    8  A    between atoms: C_19  and  C_28
    9  A    between atoms: C_19  and  N_29
                            x       y       z     vdW  Elec       q    Type
                         _______ _______ _______ _____ _____    ______ ____

>  <TORSDO>
F 9

$$$$
=
 OpenBabel10222416043D

 32 36  0  0  1  0  0  0  0  0999 V2000
  189.3470  177.6050  139.5820 C   0  0  1  0  0  3  0  0  0  0  0  0
  188.6820  177.7440  136.5090 C   0  0  0  0  0  2  0  0  0  0  0  0
  188.1890  178.5480  137.6130 N   0  0  0  0  0  0  0  0  0  0  0  0
  187.7720  176.3800  138.2520 C   0  0  0  0  0  2  0  0  0  0  0  0
  188.2350  176.3230  136.8090 C   0  0  1  0  0  3  0  0  0  0  0  0
  189.0560  179.6350  137.8250 N   0  0  0  0  0  1  0  0  0  0  0  0
  188.1070  177.7070  138.7600 N   0  0  0  0  0  0  0  0  0  0  0  0
  187.5010  174.5030  135.2300 C   0  0  0  0  0  2  0  0  0  0  0  0
  187.1290  175.7480  135.9000 C   0  0  1  0  0  3  0  0  0  0  0  0
  186.6400  174.4600  136.4290 N   0  0  0  0  0  0  0  0  0  0  0  0
  185.2640  174.3050  135.9740 C   0  0  2  0  0  3  0  0  0  0  0  0
  184.4890  175.5880  136.2400 C   0  0  0  0  0  1  0  0  0  0  0  0
  185.1020  172.9940  137.9680 F   0  0  0  0  0  0  0  0  0  0  0  0
  184.7910  171.9480  135.9820 F   0  0  0  0  0  0  0  0  0  0  0  0
  184.6010  173.1260  136.6860 C   0  0  0  0  0  3  0  0  0  0  0  0
  189.2020  177.9590  141.0850 C   0  0  2  0  0  3  0  0  0  0  0  0
  190.2870  177.4410  141.8170 O   0  0  0  0  0  0  0  0  0  0  0  0
  189.0530  176.7760  141.9750 C   0  0  1  0  0  3  0  0  0  0  0  0
  187.9610  177.9420  147.9030 C   0  0  0  0  0  3  0  0  0  0  0  0
  188.4340  177.1650  143.2770 C   0  0  0  0  0  0  0  0  0  0  0  0
  187.2500  177.8100  145.7000 C   0  0  0  0  0  0  0  0  0  0  0  0
  188.5710  177.4720  145.6620 C   0  0  0  0  0  0  0  0  0  0  0  0
  189.1960  177.1310  144.4620 C   0  0  0  0  0  2  0  0  0  0  0  0
  189.1570  177.5120  147.0240 C   0  0  0  0  0  3  0  0  0  0  0  0
  186.4600  177.8330  144.5500 C   0  0  0  0  0  3  0  0  0  0  0  0
  186.8090  178.0970  147.0110 N   0  0  0  0  0  0  0  0  0  0  0  0
  187.0640  177.5030  143.3280 C   0  0  0  0  0  3  0  0  0  0  0  0
  190.1960  176.3790  139.2290 C   0  0  0  0  0  2  0  0  0  0  0  0
  191.4710  176.7820  138.5550 C   0  0  0  0  0  3  0  0  0  0  0  0
  192.2330  175.9050  138.0140 N   0  0  0  0  0  0  0  0  0  0  0  0
  193.4470  176.3230  137.3720 C   0  0  0  0  0  2  0  0  0  0  0  0
  194.3140  175.1140  137.0780 C   0  0  0  0  0  1  0  0  0  0  0  0
  1 28  1  1  0  0  0
  2  3  1  0  0  0  0
  3  6  1  0  0  0  0
  3  7  1  0  0  0  0
  4  7  1  0  0  0  0
  5  2  1  6  0  0  0
  5  4  1  0  0  0  0
  7  1  1  0  0  0  0
  8 10  1  0  0  0  0
  9  8  1  6  0  0  0
  9 10  1  0  0  0  0
  9  5  1  0  0  0  0
 11 12  1  1  0  0  0
 11 10  1  0  0  0  0
 11 15  1  0  0  0  0
 14 15  1  0  0  0  0
 15 13  1  0  0  0  0
 16  1  1  6  0  0  0
 16 17  1  0  0  0  0
 16 18  1  0  0  0  0
 17 18  1  0  0  0  0
 18 20  1  1  0  0  0
 20 27  2  0  0  0  0
 20 23  1  0  0  0  0
 21 26  1  0  0  0  0
 22 21  1  0  0  0  0
 22 24  2  0  0  0  0
 23 22  1  0  0  0  0
 24 19  1  0  0  0  0
 25 21  2  0  0  0  0
 26 19  2  0  0  0  0
 27 25  1  0  0  0  0
 29 28  1  0  0  0  0
 30 29  2  0  0  0  0
 31 30  1  0  0  0  0
 32 31  1  0  0  0  0
M  END
>  <MODEL>
7

>  <REMARK>
 VINA RESULT:      -6.8      5.693      7.413
  Name = 
  9 active torsions:
  status: ('A' for Active; 'I' for Inactive)
    1  A    between atoms: C_2  and  C_22
    2  A    between atoms: C_3  and  C_11
    3  A    between atoms: C_6  and  C_15
    4  A    between atoms: N_8  and  C_24
    5  A    between atoms: C_13  and  C_20
    6  A    between atoms: C_15  and  C_22
    7  A    between atoms: C_15  and  N_32
    8  A    between atoms: C_19  and  C_28
    9  A    between atoms: C_19  and  N_29
                            x       y       z     vdW  Elec       q    Type
                         _______ _______ _______ _____ _____    ______ ____

>  <TORSDO>
F 9

$$$$
=
 OpenBabel10222416043D

 32 36  0  0  1  0  0  0  0  0999 V2000
  188.9230  177.9670  139.5390 C   0  0  1  0  0  3  0  0  0  0  0  0
  188.1350  177.9960  136.4920 C   0  0  0  0  0  2  0  0  0  0  0  0
  187.9300  178.9960  137.5240 N   0  0  0  0  0  0  0  0  0  0  0  0
  187.0120  177.0790  138.3960 C   0  0  0  0  0  2  0  0  0  0  0  0
  187.3600  176.7730  136.9510 C   0  0  1  0  0  3  0  0  0  0  0  0
  189.0560  179.8360  137.5930 N   0  0  0  0  0  1  0  0  0  0  0  0
  187.7040  178.3140  138.7530 N   0  0  0  0  0  0  0  0  0  0  0  0
  186.0410  175.0360  135.6920 C   0  0  0  0  0  2  0  0  0  0  0  0
  186.0910  176.4250  136.1440 C   0  0  1  0  0  3  0  0  0  0  0  0
  185.2620  175.4480  136.8750 N   0  0  0  0  0  0  0  0  0  0  0  0
  183.8840  175.6490  136.4450 C   0  0  2  0  0  3  0  0  0  0  0  0
  183.5460  177.1330  136.4830 C   0  0  0  0  0  1  0  0  0  0  0  0
  183.1510  175.1740  138.6720 F   0  0  0  0  0  0  0  0  0  0  0  0
  183.0720  173.4990  137.1490 F   0  0  0  0  0  0  0  0  0  0  0  0
  182.9290  174.8630  137.3430 C   0  0  0  0  0  3  0  0  0  0  0  0
  188.8490  178.2320  141.0650 C   0  0  2  0  0  3  0  0  0  0  0  0
  189.9590  177.6590  141.7160 O   0  0  0  0  0  0  0  0  0  0  0  0
  188.7240  176.9990  141.8890 C   0  0  1  0  0  3  0  0  0  0  0  0
  187.9330  177.8780  147.9140 C   0  0  0  0  0  3  0  0  0  0  0  0
  188.1700  177.3160  143.2380 C   0  0  0  0  0  0  0  0  0  0  0  0
  187.1060  177.8250  145.7490 C   0  0  0  0  0  0  0  0  0  0  0  0
  188.4300  177.5220  145.6250 C   0  0  0  0  0  0  0  0  0  0  0  0
  188.9960  177.2500  144.3790 C   0  0  0  0  0  3  0  0  0  0  0  0
  189.0890  177.5170  146.9540 C   0  0  0  0  0  3  0  0  0  0  0  0
  186.2530  177.8780  144.6450 C   0  0  0  0  0  2  0  0  0  0  0  0
  186.7310  178.0440  147.0930 N   0  0  0  0  0  0  0  0  0  0  0  0
  186.7970  177.6170  143.3790 C   0  0  0  0  0  3  0  0  0  0  0  0
  189.5720  176.6560  139.0850 C   0  0  0  0  0  2  0  0  0  0  0  0
  190.9520  176.8930  138.5540 C   0  0  0  0  0  3  0  0  0  0  0  0
  191.6970  175.9120  138.2020 N   0  0  0  0  0  0  0  0  0  0  0  0
  193.0140  176.1710  137.6940 C   0  0  0  0  0  2  0  0  0  0  0  0
  193.7900  174.8720  137.5930 C   0  0  0  0  0  1  0  0  0  0  0  0
  1 28  1  1  0  0  0
  2  3  1  0  0  0  0
  3  6  1  0  0  0  0
  3  7  1  0  0  0  0
  4  7  1  0  0  0  0
  5  2  1  6  0  0  0
  5  4  1  0  0  0  0
  7  1  1  0  0  0  0
  8 10  1  0  0  0  0
  9  8  1  6  0  0  0
  9 10  1  0  0  0  0
  9  5  1  0  0  0  0
 11 12  1  1  0  0  0
 11 10  1  0  0  0  0
 11 15  1  0  0  0  0
 14 15  1  0  0  0  0
 15 13  1  0  0  0  0
 16  1  1  6  0  0  0
 16 17  1  0  0  0  0
 16 18  1  0  0  0  0
 17 18  1  0  0  0  0
 18 20  1  1  0  0  0
 20 27  2  0  0  0  0
 20 23  1  0  0  0  0
 21 26  2  0  0  0  0
 22 21  1  0  0  0  0
 22 24  1  0  0  0  0
 23 22  2  0  0  0  0
 24 19  2  0  0  0  0
 25 21  1  0  0  0  0
 26 19  1  0  0  0  0
 27 25  1  0  0  0  0
 29 28  1  0  0  0  0
 30 29  2  0  0  0  0
 31 30  1  0  0  0  0
 32 31  1  0  0  0  0
M  END
>  <MODEL>
8

>  <REMARK>
 VINA RESULT:      -6.8      4.636      6.535
  Name = 
  9 active torsions:
  status: ('A' for Active; 'I' for Inactive)
    1  A    between atoms: C_2  and  C_22
    2  A    between atoms: C_3  and  C_11
    3  A    between atoms: C_6  and  C_15
    4  A    between atoms: N_8  and  C_24
    5  A    between atoms: C_13  and  C_20
    6  A    between atoms: C_15  and  C_22
    7  A    between atoms: C_15  and  N_32
    8  A    between atoms: C_19  and  C_28
    9  A    between atoms: C_19  and  N_29
                            x       y       z     vdW  Elec       q    Type
                         _______ _______ _______ _____ _____    ______ ____

>  <TORSDO>
F 9

$$$$
=
 OpenBabel10222416043D

 32 36  0  0  1  0  0  0  0  0999 V2000
  188.8150  177.8030  139.2810 C   0  0  1  0  0  3  0  0  0  0  0  0
  187.3370  178.1150  136.5200 C   0  0  0  0  0  2  0  0  0  0  0  0
  187.7370  179.1190  137.4890 N   0  0  0  0  0  0  0  0  0  0  0  0
  186.4960  177.6140  138.7040 C   0  0  0  0  0  2  0  0  0  0  0  0
  186.3480  177.2190  137.2470 C   0  0  1  0  0  3  0  0  0  0  0  0
  189.0540  179.5320  137.2210 N   0  0  0  0  0  1  0  0  0  0  0  0
  187.6190  178.5430  138.7870 N   0  0  0  0  0  0  0  0  0  0  0  0
  184.3890  176.1390  136.0890 C   0  0  0  0  0  2  0  0  0  0  0  0
  184.8750  177.3210  136.7970 C   0  0  1  0  0  3  0  0  0  0  0  0
  184.0450  176.3330  137.5110 N   0  0  0  0  0  0  0  0  0  0  0  0
  182.6900  176.8690  137.5640 C   0  0  2  0  0  3  0  0  0  0  0  0
  182.7350  178.3300  137.9900 C   0  0  0  0  0  1  0  0  0  0  0  0
  180.7610  176.8060  138.9790 F   0  0  0  0  0  0  0  0  0  0  0  0
  182.5890  175.6310  139.6230 F   0  0  0  0  0  0  0  0  0  0  0  0
  181.8380  176.0570  138.5390 C   0  0  0  0  0  3  0  0  0  0  0  0
  189.1840  178.0190  140.7720 C   0  0  2  0  0  3  0  0  0  0  0  0
  190.4630  177.4950  141.0410 O   0  0  0  0  0  0  0  0  0  0  0  0
  189.3680  176.7570  141.5400 C   0  0  1  0  0  3  0  0  0  0  0  0
  187.2040  177.8770  147.1750 C   0  0  0  0  0  3  0  0  0  0  0  0
  189.2230  177.0020  143.0060 C   0  0  0  0  0  0  0  0  0  0  0  0
  188.9720  177.5410  145.7150 C   0  0  0  0  0  0  0  0  0  0  0  0
  187.8540  177.4180  144.9440 C   0  0  2  0  0  3  0  0  0  0  0  0
  187.9430  177.1580  143.5750 C   0  0  0  0  0  3  0  0  0  0  0  0
  186.6330  177.6160  145.7630 C   0  0  0  0  0  3  0  0  0  0  0  0
  190.2560  177.4150  145.1800 C   0  0  0  0  0  3  0  0  0  0  0  0
  188.6630  177.8250  147.0640 N   0  0  0  0  0  0  0  0  0  0  0  0
  190.3750  177.1450  143.8090 C   0  0  0  0  0  3  0  0  0  0  0  0
  188.8970  176.3720  138.7380 C   0  0  0  0  0  2  0  0  0  0  0  0
  190.1680  176.1570  137.9770 C   0  0  0  0  0  3  0  0  0  0  0  0
  191.0100  175.2630  138.3440 N   0  0  0  0  0  0  0  0  0  0  0  0
  192.2180  175.0780  137.5910 C   0  0  0  0  0  2  0  0  0  0  0  0
  193.1890  176.2030  137.8930 C   0  0  0  0  0  1  0  0  0  0  0  0
  1 28  1  1  0  0  0
  2  3  1  0  0  0  0
  3  7  1  0  0  0  0
  4  7  1  0  0  0  0
  5  2  1  6  0  0  0
  5  4  1  0  0  0  0
  6  3  1  0  0  0  0
  7  1  1  0  0  0  0
  8 10  1  0  0  0  0
  9  8  1  6  0  0  0
  9  5  1  0  0  0  0
  9 10  1  0  0  0  0
 10 11  1  0  0  0  0
 11 12  1  1  0  0  0
 11 15  1  0  0  0  0
 15 13  1  0  0  0  0
 15 14  1  0  0  0  0
 16  1  1  6  0  0  0
 16 17  1  0  0  0  0
 16 18  1  0  0  0  0
 17 18  1  0  0  0  0
 18 20  1  1  0  0  0
 20 23  2  0  0  0  0
 20 27  1  0  0  0  0
 21 26  2  0  0  0  0
 22 23  1  6  0  0  0
 22 21  1  0  0  0  0
 22 24  1  0  0  0  0
 24 19  2  0  0  0  0
 25 21  1  0  0  0  0
 26 19  1  0  0  0  0
 27 25  2  0  0  0  0
 29 30  2  0  0  0  0
 29 28  1  0  0  0  0
 31 32  1  0  0  0  0
 31 30  1  0  0  0  0
M  END
>  <MODEL>
9

>  <REMARK>
 VINA RESULT:      -6.7      4.235      5.898
  Name = 
  9 active torsions:
  status: ('A' for Active; 'I' for Inactive)
    1  A    between atoms: C_2  and  C_22
    2  A    between atoms: C_3  and  C_11
    3  A    between atoms: C_6  and  C_15
    4  A    between atoms: N_8  and  C_24
    5  A    between atoms: C_13  and  C_20
    6  A    between atoms: C_15  and  C_22
    7  A    between atoms: C_15  and  N_32
    8  A    between atoms: C_19  and  C_28
    9  A    between atoms: C_19  and  N_29
                            x       y       z     vdW  Elec       q    Type
                         _______ _______ _______ _____ _____    ______ ____

>  <TORSDO>
F 9

$$$$
