=
 OpenBabel10222417403D

 30 32  0  0  1  0  0  0  0  0999 V2000
  185.9870  178.6690  145.6740 C   0  0  0  0  0  0  0  0  0  0  0  0
  187.0760  177.7270  145.6380 N   0  0  0  0  0  0  0  0  0  0  0  0
  185.8950  179.4690  146.6440 O   0  0  0  0  0  0  0  0  0  0  0  0
  183.6130  178.9470  144.9510 C   0  0  0  0  0  3  0  0  0  0  0  0
  184.9510  178.6930  144.6180 C   0  0  0  0  0  0  0  0  0  0  0  0
  182.9580  178.6960  142.6290 C   0  0  0  0  0  0  0  0  0  0  0  0
  185.2820  178.4250  143.2810 C   0  0  0  0  0  3  0  0  0  0  0  0
  184.2940  178.4300  142.2920 C   0  0  0  0  0  3  0  0  0  0  0  0
  182.6250  178.9530  143.9630 C   0  0  0  0  0  3  0  0  0  0  0  0
  180.6450  179.2140  141.9280 C   0  0  0  0  0  1  0  0  0  0  0  0
  181.9470  178.7080  141.6650 O   0  0  0  0  0  0  0  0  0  0  0  0
  187.8540  177.5040  144.4430 C   0  0  0  0  0  0  0  0  0  0  0  0
  189.2840  178.3430  142.6660 C   0  0  0  0  0  3  0  0  0  0  0  0
  188.5230  178.5660  143.8160 C   0  0  0  0  0  3  0  0  0  0  0  0
  188.7360  175.9920  142.7540 C   0  0  0  0  0  3  0  0  0  0  0  0
  189.3950  177.0540  142.1270 C   0  0  0  0  0  0  0  0  0  0  0  0
  187.9740  176.2130  143.9040 C   0  0  0  0  0  3  0  0  0  0  0  0
  189.7980  177.0890  139.5940 C   0  0  0  0  0  0  0  0  0  0  0  0
  188.7140  177.6750  139.3290 O   0  0  0  0  0  0  0  0  0  0  0  0
  190.1650  176.7860  140.9470 N   0  0  0  0  0  2  0  0  0  0  0  0
  191.1770  175.4140  138.6460 O   0  0  0  0  0  0  0  0  0  0  0  0
  190.1820  175.6260  137.6780 C   0  0  0  0  0  2  0  0  0  0  0  0
  190.7320  176.7390  138.4840 C   0  0  1  0  0  3  0  0  0  0  0  0
  187.4630  177.0690  146.8850 C   0  0  0  0  0  2  0  0  0  0  0  0
  189.0780  178.7390  147.3820 O   0  0  0  0  0  0  0  0  0  0  0  0
  188.8260  177.5070  147.3050 C   0  0  0  0  0  0  0  0  0  0  0  0
  189.8260  176.5140  147.5820 N   0  0  0  0  0  0  0  0  0  0  0  0
  190.9430  176.3140  146.9430 C   0  0  0  0  0  3  0  0  0  0  0  0
  191.7150  177.7120  144.8910 N   0  0  0  0  0  0  0  0  0  0  0  0
  191.3700  177.0900  145.8050 C   0  0  0  0  0  0  0  0  0  0  0  0
  1  3  2  0  0  0  0
  2  1  1  0  0  0  0
  2 24  1  0  0  0  0
  5  4  1  0  0  0  0
  5  1  1  0  0  0  0
  6  9  1  0  0  0  0
  7  5  2  0  0  0  0
  8  6  2  0  0  0  0
  8  7  1  0  0  0  0
  9  4  2  0  0  0  0
 11 10  1  0  0  0  0
 11  6  1  0  0  0  0
 12  2  1  0  0  0  0
 13 14  1  0  0  0  0
 14 12  2  0  0  0  0
 15 17  2  0  0  0  0
 16 13  2  0  0  0  0
 16 15  1  0  0  0  0
 17 12  1  0  0  0  0
 18 20  1  0  0  0  0
 19 18  2  0  0  0  0
 20 16  1  0  0  0  0
 22 23  1  0  0  0  0
 22 21  1  0  0  0  0
 23 21  1  0  0  0  0
 23 18  1  1  0  0  0
 24 26  1  0  0  0  0
 26 25  2  0  0  0  0
 26 27  1  0  0  0  0
 28 27  2  0  0  0  0
 29 30  3  0  0  0  0
 30 28  1  0  0  0  0
M  END
>  <MODEL>
1

>  <REMARK>
 VINA RESULT:      -7.3      0.000      0.000
  Name = 
  9 active torsions:
  status: ('A' for Active; 'I' for Inactive)
    1  A    between atoms: C_2  and  C_29
    2  A    between atoms: C_3  and  C_16
    3  A    between atoms: N_7  and  C_30
    4  A    between atoms: C_8  and  N_17
    5  A    between atoms: C_10  and  O_27
    6  A    between atoms: C_11  and  C_24
    7  A    between atoms: N_17  and  C_22
    8  A    between atoms: N_19  and  C_23
    9  A    between atoms: C_22  and  C_30
                            x       y       z     vdW  Elec       q    Type
                         _______ _______ _______ _____ _____    ______ ____

>  <TORSDO>
F 9

$$$$
=
 OpenBabel10222417403D

 30 32  0  0  1  0  0  0  0  0999 V2000
  190.7880  177.4520  141.6170 C   0  0  0  0  0  0  0  0  0  0  0  0
  189.5030  177.1170  141.0600 N   0  0  0  0  0  0  0  0  0  0  0  0
  191.6960  177.8850  140.8560 O   0  0  0  0  0  0  0  0  0  0  0  0
  191.0340  178.3560  143.9320 C   0  0  0  0  0  3  0  0  0  0  0  0
  191.0810  177.2630  143.0540 C   0  0  0  0  0  0  0  0  0  0  0  0
  191.6800  176.9310  145.7850 C   0  0  0  0  0  0  0  0  0  0  0  0
  191.4450  176.0030  143.5530 C   0  0  0  0  0  3  0  0  0  0  0  0
  191.7390  175.8360  144.9090 C   0  0  0  0  0  3  0  0  0  0  0  0
  191.3280  178.1900  145.2870 C   0  0  0  0  0  3  0  0  0  0  0  0
  192.4840  175.5990  147.7060 C   0  0  0  0  0  1  0  0  0  0  0  0
  191.9680  176.7980  147.1460 O   0  0  0  0  0  0  0  0  0  0  0  0
  188.2690  177.5370  141.6800 C   0  0  0  0  0  0  0  0  0  0  0  0
  186.6060  177.3170  143.4390 C   0  0  0  0  0  3  0  0  0  0  0  0
  187.7960  176.9000  142.8360 C   0  0  0  0  0  3  0  0  0  0  0  0
  186.3470  179.0260  141.7510 C   0  0  0  0  0  3  0  0  0  0  0  0
  185.8730  178.3830  142.9000 C   0  0  0  0  0  0  0  0  0  0  0  0
  187.5350  178.6090  141.1470 C   0  0  0  0  0  3  0  0  0  0  0  0
  183.3500  178.8390  142.8790 C   0  0  0  0  0  0  0  0  0  0  0  0
  183.1760  178.3850  141.7170 O   0  0  0  0  0  0  0  0  0  0  0  0
  184.6490  178.8380  143.4890 N   0  0  0  0  0  2  0  0  0  0  0  0
  181.1830  179.7860  142.7520 O   0  0  0  0  0  0  0  0  0  0  0  0
  180.9760  178.5380  143.3610 C   0  0  0  0  0  2  0  0  0  0  0  0
  182.1780  179.3520  143.6480 C   0  0  1  0  0  3  0  0  0  0  0  0
  189.4660  176.4280  139.7710 C   0  0  0  0  0  2  0  0  0  0  0  0
  189.5580  178.4390  138.5100 O   0  0  0  0  0  0  0  0  0  0  0  0
  188.9660  177.3430  138.7040 C   0  0  0  0  0  0  0  0  0  0  0  0
  187.8080  176.9660  137.9430 N   0  0  0  0  0  0  0  0  0  0  0  0
  187.7770  176.4600  136.7440 C   0  0  0  0  0  3  0  0  0  0  0  0
  189.8970  175.9700  135.3210 N   0  0  0  0  0  0  0  0  0  0  0  0
  188.9530  176.1870  135.9550 C   0  0  0  0  0  0  0  0  0  0  0  0
  1  5  1  0  0  0  0
  2  1  1  0  0  0  0
  2 12  1  0  0  0  0
  3  1  2  0  0  0  0
  4  9  1  0  0  0  0
  5  7  1  0  0  0  0
  5  4  2  0  0  0  0
  6 11  1  0  0  0  0
  7  8  2  0  0  0  0
  8  6  1  0  0  0  0
  9  6  2  0  0  0  0
 11 10  1  0  0  0  0
 12 14  1  0  0  0  0
 14 13  2  0  0  0  0
 15 16  2  0  0  0  0
 16 13  1  0  0  0  0
 16 20  1  0  0  0  0
 17 12  2  0  0  0  0
 17 15  1  0  0  0  0
 18 20  1  0  0  0  0
 19 18  2  0  0  0  0
 21 22  1  0  0  0  0
 21 23  1  0  0  0  0
 22 23  1  0  0  0  0
 23 18  1  6  0  0  0
 24  2  1  0  0  0  0
 25 26  2  0  0  0  0
 26 24  1  0  0  0  0
 27 26  1  0  0  0  0
 28 27  2  0  0  0  0
 29 30  3  0  0  0  0
 30 28  1  0  0  0  0
M  END
>  <MODEL>
2

>  <REMARK>
 VINA RESULT:      -6.4      2.611      8.215
  Name = 
  9 active torsions:
  status: ('A' for Active; 'I' for Inactive)
    1  A    between atoms: C_2  and  C_29
    2  A    between atoms: C_3  and  C_16
    3  A    between atoms: N_7  and  C_30
    4  A    between atoms: C_8  and  N_17
    5  A    between atoms: C_10  and  O_27
    6  A    between atoms: C_11  and  C_24
    7  A    between atoms: N_17  and  C_22
    8  A    between atoms: N_19  and  C_23
    9  A    between atoms: C_22  and  C_30
                            x       y       z     vdW  Elec       q    Type
                         _______ _______ _______ _____ _____    ______ ____

>  <TORSDO>
F 9

$$$$
=
 OpenBabel10222417403D

 30 32  0  0  1  0  0  0  0  0999 V2000
  189.1280  177.4230  141.0990 C   0  0  0  0  0  0  0  0  0  0  0  0
  189.7600  177.7940  139.8590 N   0  0  0  0  0  0  0  0  0  0  0  0
  187.8800  177.2490  141.1280 O   0  0  0  0  0  0  0  0  0  0  0  0
  190.4210  176.0280  142.7180 C   0  0  0  0  0  3  0  0  0  0  0  0
  189.9060  177.2790  142.3490 C   0  0  0  0  0  0  0  0  0  0  0  0
  191.3480  176.9760  144.7480 C   0  0  0  0  0  0  0  0  0  0  0  0
  190.1060  178.3760  143.2000 C   0  0  0  0  0  3  0  0  0  0  0  0
  190.8250  178.2280  144.3890 C   0  0  0  0  0  3  0  0  0  0  0  0
  191.1400  175.8790  143.9060 C   0  0  0  0  0  3  0  0  0  0  0  0
  191.4570  176.4130  147.1530 C   0  0  0  0  0  1  0  0  0  0  0  0
  192.0710  176.7940  145.9300 O   0  0  0  0  0  0  0  0  0  0  0  0
  190.9670  177.1540  139.3950 C   0  0  0  0  0  0  0  0  0  0  0  0
  193.3910  176.9630  139.3930 C   0  0  0  0  0  3  0  0  0  0  0  0
  192.2250  177.5920  139.8360 C   0  0  0  0  0  3  0  0  0  0  0  0
  192.0660  175.4350  138.0710 C   0  0  0  0  0  3  0  0  0  0  0  0
  193.3180  175.8790  138.5060 C   0  0  0  0  0  0  0  0  0  0  0  0
  190.8990  176.0640  138.5120 C   0  0  0  0  0  3  0  0  0  0  0  0
  195.2310  175.5140  136.8370 C   0  0  0  0  0  0  0  0  0  0  0  0
  194.8970  176.4730  136.0910 O   0  0  0  0  0  0  0  0  0  0  0  0
  194.4920  175.2090  138.0280 N   0  0  0  0  0  2  0  0  0  0  0  0
  197.5880  175.5110  136.6100 O   0  0  0  0  0  0  0  0  0  0  0  0
  197.3440  174.6110  137.6610 C   0  0  0  0  0  2  0  0  0  0  0  0
  196.4380  174.7070  136.4950 C   0  0  1  0  0  3  0  0  0  0  0  0
  189.0850  178.7700  139.0040 C   0  0  0  0  0  2  0  0  0  0  0  0
  189.2580  178.6560  136.6380 O   0  0  0  0  0  0  0  0  0  0  0  0
  188.7530  178.1640  137.6820 C   0  0  0  0  0  0  0  0  0  0  0  0
  187.8450  177.0530  137.6290 N   0  0  0  0  0  0  0  0  0  0  0  0
  186.5670  177.0600  137.8820 C   0  0  0  0  0  3  0  0  0  0  0  0
  185.2390  179.1800  138.5890 N   0  0  0  0  0  0  0  0  0  0  0  0
  185.8310  178.2370  138.2730 C   0  0  0  0  0  0  0  0  0  0  0  0
  1  3  2  0  0  0  0
  1  5  1  0  0  0  0
  2  1  1  0  0  0  0
  4  9  1  0  0  0  0
  5  4  2  0  0  0  0
  5  7  1  0  0  0  0
  6 11  1  0  0  0  0
  7  8  2  0  0  0  0
  8  6  1  0  0  0  0
  9  6  2  0  0  0  0
 11 10  1  0  0  0  0
 12 14  1  0  0  0  0
 12  2  1  0  0  0  0
 13 14  2  0  0  0  0
 15 16  2  0  0  0  0
 15 17  1  0  0  0  0
 16 13  1  0  0  0  0
 17 12  2  0  0  0  0
 18 20  1  0  0  0  0
 19 18  2  0  0  0  0
 20 16  1  0  0  0  0
 21 22  1  0  0  0  0
 23 21  1  0  0  0  0
 23 18  1  1  0  0  0
 23 22  1  0  0  0  0
 24  2  1  0  0  0  0
 25 26  2  0  0  0  0
 26 24  1  0  0  0  0
 27 26  1  0  0  0  0
 27 28  2  0  0  0  0
 28 30  1  0  0  0  0
 30 29  3  0  0  0  0
M  END
>  <MODEL>
3

>  <REMARK>
 VINA RESULT:      -6.3      4.270      7.785
  Name = 
  9 active torsions:
  status: ('A' for Active; 'I' for Inactive)
    1  A    between atoms: C_2  and  C_29
    2  A    between atoms: C_3  and  C_16
    3  A    between atoms: N_7  and  C_30
    4  A    between atoms: C_8  and  N_17
    5  A    between atoms: C_10  and  O_27
    6  A    between atoms: C_11  and  C_24
    7  A    between atoms: N_17  and  C_22
    8  A    between atoms: N_19  and  C_23
    9  A    between atoms: C_22  and  C_30
                            x       y       z     vdW  Elec       q    Type
                         _______ _______ _______ _____ _____    ______ ____

>  <TORSDO>
F 9

$$$$
=
 OpenBabel10222417403D

 30 32  0  0  1  0  0  0  0  0999 V2000
  189.6380  177.1400  140.8140 C   0  0  0  0  0  0  0  0  0  0  0  0
  189.0690  177.8640  141.9210 N   0  0  0  0  0  0  0  0  0  0  0  0
  190.5430  176.2900  141.0320 O   0  0  0  0  0  0  0  0  0  0  0  0
  188.6110  176.3810  138.6680 C   0  0  0  0  0  3  0  0  0  0  0  0
  189.2130  177.3990  139.4210 C   0  0  0  0  0  0  0  0  0  0  0  0
  188.4390  177.8600  136.7530 C   0  0  0  0  0  0  0  0  0  0  0  0
  189.4380  178.6470  138.8220 C   0  0  0  0  0  3  0  0  0  0  0  0
  189.0500  178.8790  137.4990 C   0  0  0  0  0  3  0  0  0  0  0  0
  188.2230  176.6110  137.3450 C   0  0  0  0  0  3  0  0  0  0  0  0
  186.7130  177.8140  134.9830 C   0  0  0  0  0  1  0  0  0  0  0  0
  188.0400  178.0580  135.4280 O   0  0  0  0  0  0  0  0  0  0  0  0
  187.6440  178.0420  142.0660 C   0  0  0  0  0  0  0  0  0  0  0  0
  185.5790  177.6490  143.2870 C   0  0  0  0  0  3  0  0  0  0  0  0
  186.9570  177.4660  143.1450 C   0  0  0  0  0  3  0  0  0  0  0  0
  185.5500  179.0010  141.2850 C   0  0  0  0  0  3  0  0  0  0  0  0
  184.8660  178.4190  142.3570 C   0  0  0  0  0  0  0  0  0  0  0  0
  186.9270  178.8170  141.1410 C   0  0  0  0  0  3  0  0  0  0  0  0
  182.7610  179.2620  143.5540 C   0  0  0  0  0  0  0  0  0  0  0  0
  183.3890  179.7350  144.5390 O   0  0  0  0  0  0  0  0  0  0  0  0
  183.4530  178.6290  142.4690 N   0  0  0  0  0  2  0  0  0  0  0  0
  180.7520  178.4510  142.5990 O   0  0  0  0  0  0  0  0  0  0  0  0
  180.6260  178.1530  143.9660 C   0  0  0  0  0  2  0  0  0  0  0  0
  181.2760  179.3980  143.5000 C   0  0  1  0  0  3  0  0  0  0  0  0
  189.9660  178.3280  142.9780 C   0  0  0  0  0  2  0  0  0  0  0  0
  190.6000  176.2500  143.9370 O   0  0  0  0  0  0  0  0  0  0  0  0
  190.0020  177.3470  144.1000 C   0  0  0  0  0  0  0  0  0  0  0  0
  189.3310  177.6630  145.3300 N   0  0  0  0  0  0  0  0  0  0  0  0
  189.7610  177.4600  146.5430 C   0  0  0  0  0  3  0  0  0  0  0  0
  192.0560  176.3750  147.1040 N   0  0  0  0  0  0  0  0  0  0  0  0
  191.0330  176.8570  146.8560 C   0  0  0  0  0  0  0  0  0  0  0  0
  1  3  2  0  0  0  0
  1  2  1  0  0  0  0
  2 12  1  0  0  0  0
  2 24  1  0  0  0  0
  4  5  1  0  0  0  0
  5  1  1  0  0  0  0
  6  9  1  0  0  0  0
  6  8  2  0  0  0  0
  7  5  2  0  0  0  0
  8  7  1  0  0  0  0
  9  4  2  0  0  0  0
 10 11  1  0  0  0  0
 11  6  1  0  0  0  0
 12 14  1  0  0  0  0
 14 13  2  0  0  0  0
 15 16  2  0  0  0  0
 16 20  1  0  0  0  0
 16 13  1  0  0  0  0
 17 15  1  0  0  0  0
 17 12  2  0  0  0  0
 18 19  2  0  0  0  0
 20 18  1  0  0  0  0
 21 23  1  0  0  0  0
 21 22  1  0  0  0  0
 23 18  1  6  0  0  0
 23 22  1  0  0  0  0
 24 26  1  0  0  0  0
 25 26  2  0  0  0  0
 26 27  1  0  0  0  0
 27 28  2  0  0  0  0
 28 30  1  0  0  0  0
 30 29  3  0  0  0  0
M  END
>  <MODEL>
4

>  <REMARK>
 VINA RESULT:      -6.1      2.435      6.733
  Name = 
  9 active torsions:
  status: ('A' for Active; 'I' for Inactive)
    1  A    between atoms: C_2  and  C_29
    2  A    between atoms: C_3  and  C_16
    3  A    between atoms: N_7  and  C_30
    4  A    between atoms: C_8  and  N_17
    5  A    between atoms: C_10  and  O_27
    6  A    between atoms: C_11  and  C_24
    7  A    between atoms: N_17  and  C_22
    8  A    between atoms: N_19  and  C_23
    9  A    between atoms: C_22  and  C_30
                            x       y       z     vdW  Elec       q    Type
                         _______ _______ _______ _____ _____    ______ ____

>  <TORSDO>
F 9

$$$$
=
 OpenBabel10222417403D

 30 32  0  0  1  0  0  0  0  0999 V2000
  186.6210  177.9500  144.8470 C   0  0  0  0  0  0  0  0  0  0  0  0
  186.6550  178.5050  143.5190 N   0  0  0  0  0  0  0  0  0  0  0  0
  185.5070  177.7010  145.3840 O   0  0  0  0  0  0  0  0  0  0  0  0
  189.1090  178.0100  145.0510 C   0  0  0  0  0  3  0  0  0  0  0  0
  187.8620  177.7010  145.6130 C   0  0  0  0  0  0  0  0  0  0  0  0
  190.2370  177.1930  147.0360 C   0  0  0  0  0  0  0  0  0  0  0  0
  187.8140  177.1220  146.8890 C   0  0  0  0  0  3  0  0  0  0  0  0
  188.9920  176.8720  147.5990 C   0  0  0  0  0  3  0  0  0  0  0  0
  190.2870  177.7610  145.7590 C   0  0  0  0  0  3  0  0  0  0  0  0
  192.1410  175.7270  147.6210 C   0  0  0  0  0  1  0  0  0  0  0  0
  191.4340  176.9560  147.7180 O   0  0  0  0  0  0  0  0  0  0  0  0
  187.5440  177.9980  142.5020 C   0  0  0  0  0  0  0  0  0  0  0  0
  188.5730  178.1920  140.3080 C   0  0  0  0  0  3  0  0  0  0  0  0
  187.7030  178.6800  141.2850 C   0  0  0  0  0  3  0  0  0  0  0  0
  189.1530  176.3390  141.7460 C   0  0  0  0  0  3  0  0  0  0  0  0
  189.3040  177.0160  140.5310 C   0  0  0  0  0  0  0  0  0  0  0  0
  188.2830  176.8260  142.7240 C   0  0  0  0  0  3  0  0  0  0  0  0
  191.6070  176.7590  139.4340 C   0  0  0  0  0  0  0  0  0  0  0  0
  192.1930  177.5180  140.2520 O   0  0  0  0  0  0  0  0  0  0  0  0
  190.2040  176.4840  139.5520 N   0  0  0  0  0  2  0  0  0  0  0  0
  191.6850  174.9960  137.8550 O   0  0  0  0  0  0  0  0  0  0  0  0
  191.6510  176.1590  137.0680 C   0  0  0  0  0  2  0  0  0  0  0  0
  192.3950  176.1080  138.3470 C   0  0  1  0  0  3  0  0  0  0  0  0
  185.6770  179.5360  143.1750 C   0  0  0  0  0  2  0  0  0  0  0  0
  183.3580  179.3740  143.6660 O   0  0  0  0  0  0  0  0  0  0  0  0
  184.3260  178.9330  142.9900 C   0  0  0  0  0  0  0  0  0  0  0  0
  184.1650  177.8440  142.0660 N   0  0  0  0  0  0  0  0  0  0  0  0
  184.0970  177.9110  140.7670 C   0  0  0  0  0  3  0  0  0  0  0  0
  184.2380  180.1270  139.4160 N   0  0  0  0  0  0  0  0  0  0  0  0
  184.1740  179.1410  140.0180 C   0  0  0  0  0  0  0  0  0  0  0  0
  1  3  2  0  0  0  0
  1  5  1  0  0  0  0
  2  1  1  0  0  0  0
  4  5  2  0  0  0  0
  4  9  1  0  0  0  0
  5  7  1  0  0  0  0
  6  8  1  0  0  0  0
  6 11  1  0  0  0  0
  7  8  2  0  0  0  0
  9  6  2  0  0  0  0
 10 11  1  0  0  0  0
 12 17  1  0  0  0  0
 12  2  1  0  0  0  0
 13 16  2  0  0  0  0
 13 14  1  0  0  0  0
 14 12  2  0  0  0  0
 15 17  2  0  0  0  0
 16 15  1  0  0  0  0
 18 20  1  0  0  0  0
 18 19  2  0  0  0  0
 20 16  1  0  0  0  0
 21 23  1  0  0  0  0
 22 21  1  0  0  0  0
 22 23  1  0  0  0  0
 23 18  1  1  0  0  0
 24  2  1  0  0  0  0
 26 24  1  0  0  0  0
 26 25  2  0  0  0  0
 27 26  1  0  0  0  0
 28 27  2  0  0  0  0
 29 30  3  0  0  0  0
 30 28  1  0  0  0  0
M  END
>  <MODEL>
5

>  <REMARK>
 VINA RESULT:      -6.0      2.245      5.955
  Name = 
  9 active torsions:
  status: ('A' for Active; 'I' for Inactive)
    1  A    between atoms: C_2  and  C_29
    2  A    between atoms: C_3  and  C_16
    3  A    between atoms: N_7  and  C_30
    4  A    between atoms: C_8  and  N_17
    5  A    between atoms: C_10  and  O_27
    6  A    between atoms: C_11  and  C_24
    7  A    between atoms: N_17  and  C_22
    8  A    between atoms: N_19  and  C_23
    9  A    between atoms: C_22  and  C_30
                            x       y       z     vdW  Elec       q    Type
                         _______ _______ _______ _____ _____    ______ ____

>  <TORSDO>
F 9

$$$$
=
 OpenBabel10222417403D

 30 32  0  0  1  0  0  0  0  0999 V2000
  189.7290  176.9410  140.2170 C   0  0  0  0  0  0  0  0  0  0  0  0
  189.4710  177.5840  141.4790 N   0  0  0  0  0  0  0  0  0  0  0  0
  190.5750  176.0070  140.1620 O   0  0  0  0  0  0  0  0  0  0  0  0
  189.3560  178.6260  138.4120 C   0  0  0  0  0  3  0  0  0  0  0  0
  189.0550  177.3770  138.9740 C   0  0  0  0  0  0  0  0  0  0  0  0
  187.7490  178.2450  136.6360 C   0  0  0  0  0  0  0  0  0  0  0  0
  188.0830  176.5710  138.3640 C   0  0  0  0  0  3  0  0  0  0  0  0
  187.4370  176.9990  137.2010 C   0  0  0  0  0  3  0  0  0  0  0  0
  188.7110  179.0540  137.2500 C   0  0  0  0  0  3  0  0  0  0  0  0
  186.4150  177.8390  134.5940 C   0  0  0  0  0  1  0  0  0  0  0  0
  187.1210  178.7020  135.4740 O   0  0  0  0  0  0  0  0  0  0  0  0
  188.1300  177.8530  141.9380 C   0  0  0  0  0  0  0  0  0  0  0  0
  186.3090  177.4450  143.4970 C   0  0  0  0  0  3  0  0  0  0  0  0
  187.6040  177.1740  143.0480 C   0  0  0  0  0  3  0  0  0  0  0  0
  186.0430  179.0880  141.7460 C   0  0  0  0  0  3  0  0  0  0  0  0
  185.5190  178.4040  142.8470 C   0  0  0  0  0  0  0  0  0  0  0  0
  187.3380  178.8180  141.2960 C   0  0  0  0  0  3  0  0  0  0  0  0
  182.9960  178.6720  142.4770 C   0  0  0  0  0  0  0  0  0  0  0  0
  183.0350  178.3210  141.2670 O   0  0  0  0  0  0  0  0  0  0  0  0
  184.1860  178.7080  143.2770 N   0  0  0  0  0  2  0  0  0  0  0  0
  180.9780  179.8890  142.2440 O   0  0  0  0  0  0  0  0  0  0  0  0
  180.5690  178.5460  142.2450 C   0  0  0  0  0  2  0  0  0  0  0  0
  181.6840  179.0190  143.0960 C   0  0  1  0  0  3  0  0  0  0  0  0
  190.6050  177.8660  142.3570 C   0  0  0  0  0  2  0  0  0  0  0  0
  190.3320  175.5950  142.9980 O   0  0  0  0  0  0  0  0  0  0  0  0
  190.8700  176.7050  143.2560 C   0  0  0  0  0  0  0  0  0  0  0  0
  191.7070  176.8880  144.4090 N   0  0  0  0  0  0  0  0  0  0  0  0
  191.3300  177.0700  145.6420 C   0  0  0  0  0  3  0  0  0  0  0  0
  188.8460  177.1620  146.4020 N   0  0  0  0  0  0  0  0  0  0  0  0
  189.9510  177.1190  146.0630 C   0  0  0  0  0  0  0  0  0  0  0  0
  1  2  1  0  0  0  0
  2 12  1  0  0  0  0
  2 24  1  0  0  0  0
  3  1  2  0  0  0  0
  4  5  1  0  0  0  0
  5  1  1  0  0  0  0
  6  8  2  0  0  0  0
  6  9  1  0  0  0  0
  7  5  2  0  0  0  0
  8  7  1  0  0  0  0
  9  4  2  0  0  0  0
 10 11  1  0  0  0  0
 11  6  1  0  0  0  0
 12 14  1  0  0  0  0
 14 13  2  0  0  0  0
 15 16  2  0  0  0  0
 16 20  1  0  0  0  0
 16 13  1  0  0  0  0
 17 15  1  0  0  0  0
 17 12  2  0  0  0  0
 18 20  1  0  0  0  0
 19 18  2  0  0  0  0
 21 22  1  0  0  0  0
 21 23  1  0  0  0  0
 22 23  1  0  0  0  0
 23 18  1  6  0  0  0
 24 26  1  0  0  0  0
 25 26  2  0  0  0  0
 26 27  1  0  0  0  0
 27 28  2  0  0  0  0
 28 30  1  0  0  0  0
 30 29  3  0  0  0  0
M  END
>  <MODEL>
6

>  <REMARK>
 VINA RESULT:      -6.0      2.334      6.652
  Name = 
  9 active torsions:
  status: ('A' for Active; 'I' for Inactive)
    1  A    between atoms: C_2  and  C_29
    2  A    between atoms: C_3  and  C_16
    3  A    between atoms: N_7  and  C_30
    4  A    between atoms: C_8  and  N_17
    5  A    between atoms: C_10  and  O_27
    6  A    between atoms: C_11  and  C_24
    7  A    between atoms: N_17  and  C_22
    8  A    between atoms: N_19  and  C_23
    9  A    between atoms: C_22  and  C_30
                            x       y       z     vdW  Elec       q    Type
                         _______ _______ _______ _____ _____    ______ ____

>  <TORSDO>
F 9

$$$$
=
 OpenBabel10222417403D

 30 32  0  0  1  0  0  0  0  0999 V2000
  186.9010  177.6950  144.9000 C   0  0  0  0  0  0  0  0  0  0  0  0
  186.7560  178.3400  143.6200 N   0  0  0  0  0  0  0  0  0  0  0  0
  185.8710  177.3180  145.5210 O   0  0  0  0  0  0  0  0  0  0  0  0
  189.3940  177.8190  144.8060 C   0  0  0  0  0  3  0  0  0  0  0  0
  188.2300  177.5010  145.5210 C   0  0  0  0  0  0  0  0  0  0  0  0
  190.7690  177.0960  146.6680 C   0  0  0  0  0  0  0  0  0  0  0  0
  188.3480  176.9650  146.8110 C   0  0  0  0  0  3  0  0  0  0  0  0
  189.6080  176.7670  147.3840 C   0  0  0  0  0  3  0  0  0  0  0  0
  190.6530  177.6210  145.3770 C   0  0  0  0  0  3  0  0  0  0  0  0
  192.4800  175.6620  147.7310 C   0  0  0  0  0  1  0  0  0  0  0  0
  192.0430  176.9100  147.2110 O   0  0  0  0  0  0  0  0  0  0  0  0
  187.5720  177.9790  142.4860 C   0  0  0  0  0  0  0  0  0  0  0  0
  188.4700  178.4830  140.2840 C   0  0  0  0  0  3  0  0  0  0  0  0
  187.6700  178.8300  141.3750 C   0  0  0  0  0  3  0  0  0  0  0  0
  189.1030  176.4340  141.3970 C   0  0  0  0  0  3  0  0  0  0  0  0
  189.1920  177.2800  140.2880 C   0  0  0  0  0  0  0  0  0  0  0  0
  188.3020  176.7790  142.4880 C   0  0  0  0  0  3  0  0  0  0  0  0
  191.4520  176.9770  139.1140 C   0  0  0  0  0  0  0  0  0  0  0  0
  192.1280  177.4090  140.0860 O   0  0  0  0  0  0  0  0  0  0  0  0
  190.0220  176.8880  139.1870 N   0  0  0  0  0  2  0  0  0  0  0  0
  193.4230  176.0140  138.2250 O   0  0  0  0  0  0  0  0  0  0  0  0
  192.4260  175.0630  137.9530 C   0  0  0  0  0  2  0  0  0  0  0  0
  192.1540  176.5160  137.8810 C   0  0  1  0  0  3  0  0  0  0  0  0
  185.6710  179.3050  143.4510 C   0  0  0  0  0  2  0  0  0  0  0  0
  184.3450  177.8780  142.0920 O   0  0  0  0  0  0  0  0  0  0  0  0
  184.3970  178.6050  143.1200 C   0  0  0  0  0  0  0  0  0  0  0  0
  183.2510  178.7980  143.9650 N   0  0  0  0  0  0  0  0  0  0  0  0
  182.0160  178.9840  143.5950 C   0  0  0  0  0  3  0  0  0  0  0  0
  181.2370  179.0660  141.1170 N   0  0  0  0  0  0  0  0  0  0  0  0
  181.5850  179.0280  142.2200 C   0  0  0  0  0  0  0  0  0  0  0  0
  1  5  1  0  0  0  0
  1  3  2  0  0  0  0
  2  1  1  0  0  0  0
  4  9  2  0  0  0  0
  4  5  1  0  0  0  0
  5  7  2  0  0  0  0
  6 11  1  0  0  0  0
  6  8  2  0  0  0  0
  7  8  1  0  0  0  0
  9  6  1  0  0  0  0
 11 10  1  0  0  0  0
 12 17  1  0  0  0  0
 12  2  1  0  0  0  0
 13 16  2  0  0  0  0
 13 14  1  0  0  0  0
 14 12  2  0  0  0  0
 15 17  2  0  0  0  0
 16 15  1  0  0  0  0
 18 20  1  0  0  0  0
 18 19  2  0  0  0  0
 20 16  1  0  0  0  0
 22 21  1  0  0  0  0
 23 22  1  0  0  0  0
 23 21  1  0  0  0  0
 23 18  1  1  0  0  0
 24  2  1  0  0  0  0
 25 26  2  0  0  0  0
 26 24  1  0  0  0  0
 26 27  1  0  0  0  0
 28 27  2  0  0  0  0
 29 30  3  0  0  0  0
 30 28  1  0  0  0  0
M  END
>  <MODEL>
7

>  <REMARK>
 VINA RESULT:      -6.0      2.296      6.262
  Name = 
  9 active torsions:
  status: ('A' for Active; 'I' for Inactive)
    1  A    between atoms: C_2  and  C_29
    2  A    between atoms: C_3  and  C_16
    3  A    between atoms: N_7  and  C_30
    4  A    between atoms: C_8  and  N_17
    5  A    between atoms: C_10  and  O_27
    6  A    between atoms: C_11  and  C_24
    7  A    between atoms: N_17  and  C_22
    8  A    between atoms: N_19  and  C_23
    9  A    between atoms: C_22  and  C_30
                            x       y       z     vdW  Elec       q    Type
                         _______ _______ _______ _____ _____    ______ ____

>  <TORSDO>
F 9

$$$$
=
 OpenBabel10222417403D

 30 32  0  0  1  0  0  0  0  0999 V2000
  188.0610  177.6340  140.8560 C   0  0  0  0  0  0  0  0  0  0  0  0
  189.4840  177.7640  141.0320 N   0  0  0  0  0  0  0  0  0  0  0  0
  187.6120  177.1800  139.7690 O   0  0  0  0  0  0  0  0  0  0  0  0
  187.1770  177.4950  143.1870 C   0  0  0  0  0  3  0  0  0  0  0  0
  187.1100  178.0610  141.9060 C   0  0  0  0  0  0  0  0  0  0  0  0
  185.2810  178.8250  143.9050 C   0  0  0  0  0  0  0  0  0  0  0  0
  186.1100  179.0040  141.6290 C   0  0  0  0  0  3  0  0  0  0  0  0
  185.2030  179.3870  142.6220 C   0  0  0  0  0  3  0  0  0  0  0  0
  186.2720  177.8770  144.1800 C   0  0  0  0  0  3  0  0  0  0  0  0
  184.4530  178.6330  146.2270 C   0  0  0  0  0  1  0  0  0  0  0  0
  184.3900  179.1860  144.9200 O   0  0  0  0  0  0  0  0  0  0  0  0
  190.1470  177.3280  142.2370 C   0  0  0  0  0  0  0  0  0  0  0  0
  191.3040  177.8360  144.3140 C   0  0  0  0  0  3  0  0  0  0  0  0
  190.6730  178.2620  143.1430 C   0  0  0  0  0  3  0  0  0  0  0  0
  190.8860  175.5360  143.7060 C   0  0  0  0  0  3  0  0  0  0  0  0
  191.4160  176.4690  144.6030 C   0  0  0  0  0  0  0  0  0  0  0  0
  190.2550  175.9600  142.5340 C   0  0  0  0  0  3  0  0  0  0  0  0
  191.5180  176.0000  147.1220 C   0  0  0  0  0  0  0  0  0  0  0  0
  190.3550  176.4260  147.3500 O   0  0  0  0  0  0  0  0  0  0  0  0
  192.0580  175.9930  145.7930 N   0  0  0  0  0  2  0  0  0  0  0  0
  193.6930  175.7440  148.0230 O   0  0  0  0  0  0  0  0  0  0  0  0
  193.0290  176.5550  148.9580 C   0  0  0  0  0  2  0  0  0  0  0  0
  192.3330  175.4580  148.2480 C   0  0  1  0  0  3  0  0  0  0  0  0
  190.2800  178.2480  139.9040 C   0  0  0  0  0  2  0  0  0  0  0  0
  192.4680  177.4040  139.5330 O   0  0  0  0  0  0  0  0  0  0  0  0
  191.2290  177.1940  139.4440 C   0  0  0  0  0  0  0  0  0  0  0  0
  190.7080  175.9770  138.8860 N   0  0  0  0  0  0  0  0  0  0  0  0
  190.0370  175.8370  137.7790 C   0  0  0  0  0  3  0  0  0  0  0  0
  189.4220  177.8060  136.1980 N   0  0  0  0  0  0  0  0  0  0  0  0
  189.6950  176.9280  136.9010 C   0  0  0  0  0  0  0  0  0  0  0  0
  1  2  1  0  0  0  0
  1  5  1  0  0  0  0
  2 12  1  0  0  0  0
  3  1  2  0  0  0  0
  4  9  1  0  0  0  0
  5  4  2  0  0  0  0
  6  9  2  0  0  0  0
  6 11  1  0  0  0  0
  7  5  1  0  0  0  0
  7  8  2  0  0  0  0
  8  6  1  0  0  0  0
 11 10  1  0  0  0  0
 12 17  2  0  0  0  0
 12 14  1  0  0  0  0
 13 16  1  0  0  0  0
 14 13  2  0  0  0  0
 15 16  2  0  0  0  0
 16 20  1  0  0  0  0
 17 15  1  0  0  0  0
 18 19  2  0  0  0  0
 20 18  1  0  0  0  0
 21 23  1  0  0  0  0
 21 22  1  0  0  0  0
 23 18  1  6  0  0  0
 23 22  1  0  0  0  0
 24  2  1  0  0  0  0
 26 25  2  0  0  0  0
 26 24  1  0  0  0  0
 27 26  1  0  0  0  0
 28 27  2  0  0  0  0
 29 30  3  0  0  0  0
 30 28  1  0  0  0  0
M  END
>  <MODEL>
8

>  <REMARK>
 VINA RESULT:      -6.0      2.291      6.524
  Name = 
  9 active torsions:
  status: ('A' for Active; 'I' for Inactive)
    1  A    between atoms: C_2  and  C_29
    2  A    between atoms: C_3  and  C_16
    3  A    between atoms: N_7  and  C_30
    4  A    between atoms: C_8  and  N_17
    5  A    between atoms: C_10  and  O_27
    6  A    between atoms: C_11  and  C_24
    7  A    between atoms: N_17  and  C_22
    8  A    between atoms: N_19  and  C_23
    9  A    between atoms: C_22  and  C_30
                            x       y       z     vdW  Elec       q    Type
                         _______ _______ _______ _____ _____    ______ ____

>  <TORSDO>
F 9

$$$$
=
 OpenBabel10222417403D

 30 32  0  0  1  0  0  0  0  0999 V2000
  189.0330  177.7170  140.2060 C   0  0  0  0  0  0  0  0  0  0  0  0
  189.7410  177.8570  138.9600 N   0  0  0  0  0  0  0  0  0  0  0  0
  187.7990  177.9750  140.2470 O   0  0  0  0  0  0  0  0  0  0  0  0
  189.0140  176.6980  142.4860 C   0  0  0  0  0  3  0  0  0  0  0  0
  189.7280  177.3160  141.4490 C   0  0  0  0  0  0  0  0  0  0  0  0
  191.0230  176.5890  143.8400 C   0  0  0  0  0  0  0  0  0  0  0  0
  191.0940  177.5800  141.6250 C   0  0  0  0  0  3  0  0  0  0  0  0
  191.7390  177.2160  142.8100 C   0  0  0  0  0  3  0  0  0  0  0  0
  189.6580  176.3340  143.6710 C   0  0  0  0  0  3  0  0  0  0  0  0
  191.2600  176.7530  146.2960 C   0  0  0  0  0  1  0  0  0  0  0  0
  191.6380  176.2120  145.0380 O   0  0  0  0  0  0  0  0  0  0  0  0
  190.6570  176.8490  138.4850 C   0  0  0  0  0  0  0  0  0  0  0  0
  191.0760  174.6240  137.5980 C   0  0  0  0  0  3  0  0  0  0  0  0
  190.1870  175.5940  138.0680 C   0  0  0  0  0  3  0  0  0  0  0  0
  192.9200  176.1480  137.9370 C   0  0  0  0  0  3  0  0  0  0  0  0
  192.4500  174.8950  137.5300 C   0  0  0  0  0  0  0  0  0  0  0  0
  192.0330  177.1180  138.4080 C   0  0  0  0  0  3  0  0  0  0  0  0
  194.6540  173.5890  137.6520 C   0  0  0  0  0  0  0  0  0  0  0  0
  195.0350  174.1370  138.7200 O   0  0  0  0  0  0  0  0  0  0  0  0
  193.3930  173.9260  137.0550 N   0  0  0  0  0  2  0  0  0  0  0  0
  196.5140  172.1490  137.9220 O   0  0  0  0  0  0  0  0  0  0  0  0
  195.4240  171.2760  137.7730 C   0  0  0  0  0  2  0  0  0  0  0  0
  195.5110  172.5450  137.0170 C   0  0  1  0  0  3  0  0  0  0  0  0
  189.4270  179.0060  138.1110 C   0  0  0  0  0  2  0  0  0  0  0  0
  189.0540  178.1280  135.9360 O   0  0  0  0  0  0  0  0  0  0  0  0
  188.5380  178.5950  136.9860 C   0  0  0  0  0  0  0  0  0  0  0  0
  187.1180  178.7690  137.1150 N   0  0  0  0  0  0  0  0  0  0  0  0
  186.2110  177.8390  137.2130 C   0  0  0  0  0  3  0  0  0  0  0  0
  186.7340  175.2920  137.1990 N   0  0  0  0  0  0  0  0  0  0  0  0
  186.5030  176.4260  137.2040 C   0  0  0  0  0  0  0  0  0  0  0  0
  1  3  2  0  0  0  0
  1  5  1  0  0  0  0
  2  1  1  0  0  0  0
  4  9  1  0  0  0  0
  5  7  1  0  0  0  0
  5  4  2  0  0  0  0
  6 11  1  0  0  0  0
  7  8  2  0  0  0  0
  8  6  1  0  0  0  0
  9  6  2  0  0  0  0
 11 10  1  0  0  0  0
 12  2  1  0  0  0  0
 13 14  1  0  0  0  0
 14 12  2  0  0  0  0
 15 17  2  0  0  0  0
 16 13  2  0  0  0  0
 16 15  1  0  0  0  0
 17 12  1  0  0  0  0
 18 19  2  0  0  0  0
 20 16  1  0  0  0  0
 20 18  1  0  0  0  0
 22 21  1  0  0  0  0
 23 18  1  1  0  0  0
 23 22  1  0  0  0  0
 23 21  1  0  0  0  0
 24  2  1  0  0  0  0
 25 26  2  0  0  0  0
 26 27  1  0  0  0  0
 26 24  1  0  0  0  0
 27 28  2  0  0  0  0
 29 30  3  0  0  0  0
 30 28  1  0  0  0  0
M  END
>  <MODEL>
9

>  <REMARK>
 VINA RESULT:      -5.9      4.507      8.056
  Name = 
  9 active torsions:
  status: ('A' for Active; 'I' for Inactive)
    1  A    between atoms: C_2  and  C_29
    2  A    between atoms: C_3  and  C_16
    3  A    between atoms: N_7  and  C_30
    4  A    between atoms: C_8  and  N_17
    5  A    between atoms: C_10  and  O_27
    6  A    between atoms: C_11  and  C_24
    7  A    between atoms: N_17  and  C_22
    8  A    between atoms: N_19  and  C_23
    9  A    between atoms: C_22  and  C_30
                            x       y       z     vdW  Elec       q    Type
                         _______ _______ _______ _____ _____    ______ ____

>  <TORSDO>
F 9

$$$$
