=
 OpenBabel10222415223D

 60 65  0  0  1  0  0  0  0  0999 V2000
  183.7900  178.8430  143.3480 C   0  0  0  0  0  0  0  0  0  0  0  0
  182.3420  178.5690  143.1030 C   0  0  1  0  0  3  0  0  0  0  0  0
  181.5030  179.5780  143.8720 C   0  0  0  0  0  1  0  0  0  0  0  0
  186.7570  178.0860  138.4490 C   0  0  0  0  0  0  0  0  0  0  0  0
  180.5760  178.5480  141.2300 C   0  0  0  0  0  3  0  0  0  0  0  0
  182.3320  178.2530  138.2300 N   0  0  0  0  0  0  0  0  0  0  0  0
  183.7280  178.4060  138.4100 N   0  0  2  0  0  0  0  0  0  0  0  0
  185.7880  178.1230  137.2930 C   0  0  0  0  0  2  0  0  0  0  0  0
  185.3950  178.6750  141.6890 O   0  0  0  0  0  0  0  0  0  0  0  0
  184.3320  178.3920  144.4360 N   0  0  0  0  0  0  0  0  0  0  0  0
  184.4640  177.4600  137.6050 C   0  0  0  0  0  2  0  0  0  0  0  0
  181.9130  178.4880  141.6560 C   0  0  0  0  0  0  0  0  0  0  0  0
  184.6050  179.6040  142.3570 C   0  0  0  0  0  2  0  0  0  0  0  0
  185.2090  178.8790  140.3180 C   0  0  2  0  0  3  0  0  0  0  0  0
  180.5250  178.4480  139.9120 O   0  0  0  0  0  0  0  0  0  0  0  0
  182.6500  178.3110  140.4880 C   0  0  0  0  0  0  0  0  0  0  0  0
  183.9880  178.0790  139.8310 C   0  0  1  0  0  3  0  0  0  0  0  0
  181.7580  178.3070  139.5130 C   0  0  0  0  0  0  0  0  0  0  0  0
  186.4470  178.4120  139.6760 N   0  0  0  0  0  0  0  0  0  0  0  0
  181.1070  179.8770  136.8280 C   0  0  0  0  0  3  0  0  0  0  0  0
  180.2910  179.2490  134.6370 C   0  0  0  0  0  3  0  0  0  0  0  0
  180.8140  177.9660  134.8130 C   0  0  0  0  0  3  0  0  0  0  0  0
  180.4380  180.2050  135.6450 C   0  0  0  0  0  3  0  0  0  0  0  0
  181.6400  178.5920  137.0140 C   0  0  0  0  0  0  0  0  0  0  0  0
  181.4850  177.6390  135.9950 C   0  0  0  0  0  3  0  0  0  0  0  0
  188.0820  177.7090  138.2110 O   0  0  0  0  0  0  0  0  0  0  0  0
  188.8140  178.0690  137.0450 C   0  0  1  0  0  3  0  0  0  0  0  0
  189.3340  179.3580  137.1810 O   0  0  0  0  0  1  0  0  0  0  0  0
  189.9460  177.0720  136.8240 C   0  0  0  0  0  2  0  0  0  0  0  0
  189.5930  175.7070  137.4050 C   0  0  0  0  0  2  0  0  0  0  0  0
  190.4050  174.6670  136.7800 N   0  0  0  0  0  0  0  0  0  0  0  0
  192.6470  173.8440  137.1570 C   0  0  0  0  0  3  0  0  0  0  0  0
  191.8320  174.7820  136.6790 C   0  0  0  0  0  3  0  0  0  0  0  0
  194.1300  173.9740  137.0670 C   0  0  1  0  0  3  0  0  0  0  0  0
  194.7640  172.6140  137.0390 C   0  0  0  0  0  0  0  0  0  0  0  0
  195.5380  172.2350  138.0540 C   0  0  0  0  0  2  0  0  0  0  0  0
  194.3560  171.6000  136.0210 C   0  0  0  0  0  1  0  0  0  0  0  0
  194.5010  174.7320  135.8780 N   0  0  0  0  0  2  0  0  0  0  0  0
  197.8070  176.0130  136.4220 O   0  0  0  0  0  0  0  0  0  0  0  0
  196.8860  175.2240  136.0860 C   0  0  0  0  0  3  0  0  0  0  0  0
  195.5260  175.6070  136.2590 N   0  0  0  0  0  2  0  0  0  0  0  0
  189.7270  173.6370  136.0120 C   0  0  0  0  0  2  0  0  0  0  0  0
  188.6060  173.0100  136.8280 C   0  0  0  0  0  2  0  0  0  0  0  0
  187.3830  173.2080  136.1880 O   0  0  0  0  0  1  0  0  0  0  0  0
  185.6710  178.5690  144.7150 O   0  0  0  0  0  0  0  0  0  0  0  0
  186.2320  178.0780  145.8940 C   0  0  0  0  0  0  0  0  0  0  0  0
  185.7770  178.5130  147.0610 C   0  0  0  0  0  2  0  0  0  0  0  0
  187.3380  177.0730  145.8690 C   0  0  0  0  0  2  0  0  0  0  0  0
  188.6970  177.7610  145.9400 C   0  0  2  0  0  3  0  0  0  0  0  0
  190.8260  178.2130  144.6100 C   0  0  0  0  0  2  0  0  0  0  0  0
  187.8410  176.2120  143.5690 O   0  0  0  0  0  1  0  0  0  0  0  0
  188.8300  177.1930  143.4650 C   0  0  1  0  0  3  0  0  0  0  0  0
  189.6010  177.3130  144.7850 C   0  0  2  0  0  3  0  0  0  0  0  0
  190.2770  175.5540  142.3980 O   0  0  0  0  0  1  0  0  0  0  0  0
  189.7880  176.8640  142.3120 C   0  0  2  0  0  3  0  0  0  0  0  0
  191.6260  177.7270  143.4050 C   0  0  0  0  0  2  0  0  0  0  0  0
  190.8470  177.8020  142.2290 O   0  0  0  0  0  0  0  0  0  0  0  0
  190.1570  176.5230  147.5470 O   0  0  0  0  0  0  0  0  0  0  0  0
  189.1030  178.4470  148.2090 O   0  0  0  0  0  1  0  0  0  0  0  0
  189.3360  177.6150  147.2920 C   0  0  0  0  0  0  0  0  0  0  0  0
  1 10  2  0  0  0  0
  2  1  1  0  0  0  0
  2  3  1  1  0  0  0
  4 19  2  0  0  0  0
  5 12  2  0  0  0  0
  6  7  1  0  0  0  0
  6 18  1  0  0  0  0
  7 11  1  6  0  0  0
  7 17  1  0  0  0  0
  8 11  1  0  0  0  0
  8  4  1  0  0  0  0
  9 13  1  0  0  0  0
 10 45  1  0  0  0  0
 12  2  1  0  0  0  0
 13  1  1  0  0  0  0
 14 19  1  6  0  0  0
 14  9  1  0  0  0  0
 15  5  1  0  0  0  0
 16 12  1  0  0  0  0
 17 14  1  0  0  0  0
 17 16  1  1  0  0  0
 18 15  1  0  0  0  0
 18 16  2  0  0  0  0
 20 24  1  0  0  0  0
 21 22  2  0  0  0  0
 21 23  1  0  0  0  0
 22 25  1  0  0  0  0
 23 20  2  0  0  0  0
 24  6  1  0  0  0  0
 25 24  2  0  0  0  0
 26  4  1  0  0  0  0
 27 28  1  1  0  0  0
 27 26  1  0  0  0  0
 29 27  1  0  0  0  0
 29 30  1  0  0  0  0
 31 30  1  0  0  0  0
 33 31  1  0  0  0  0
 33 32  2  0  0  0  0
 34 32  1  6  0  0  0
 35 34  1  0  0  0  0
 35 36  2  0  0  0  0
 37 35  1  0  0  0  0
 38 41  1  0  0  0  0
 38 34  1  0  0  0  0
 40 41  1  0  0  0  0
 40 39  2  0  0  0  0
 42 31  1  0  0  0  0
 42 43  1  0  0  0  0
 44 43  1  0  0  0  0
 45 46  1  0  0  0  0
 46 47  2  0  0  0  0
 48 46  1  0  0  0  0
 49 48  1  1  0  0  0
 49 60  1  0  0  0  0
 50 53  1  0  0  0  0
 52 51  1  1  0  0  0
 52 53  1  0  0  0  0
 53 49  1  1  0  0  0
 55 54  1  1  0  0  0
 55 52  1  0  0  0  0
 56 50  1  0  0  0  0
 57 55  1  0  0  0  0
 57 56  1  0  0  0  0
 60 58  2  0  0  0  0
 60 59  1  0  0  0  0
M  END
>  <MODEL>
1

>  <REMARK>
 VINA RESULT:      -8.2      0.000      0.000
  Name = 
  19 active torsions:
  status: ('A' for Active; 'I' for Inactive)
    1  A    between atoms: C_1  and  C_12
    2  A    between atoms: N_5  and  C_12
    3  A    between atoms: N_5  and  N_58
    4  A    between atoms: C_8  and  C_32
    5  A    between atoms: C_8  and  C_50
    6  A    between atoms: C_9  and  C_12
    7  A    between atoms: C_10  and  O_57
    8  A    between atoms: N_15  and  C_51
    9  A    between atoms: C_16  and  C_42
   10  A    between atoms: O_18  and  N_27
   11  A    between atoms: O_18  and  C_32
   12  A    between atoms: C_19  and  C_49
   13  A    between atoms: C_19  and  O_57
   14  A    between atoms: N_24  and  C_37
   15  A    between atoms: N_24  and  C_38
   16  A    between atoms: N_24  and  C_42
   17  A    between atoms: C_28  and  C_50
   18  A    between atoms: C_36  and  C_50
   19  A    between atoms: C_37  and  C_49
                            x       y       z     vdW  Elec       q    Type
                         _______ _______ _______ _____ _____    ______ ____

>  <TORSDO>
F 19

$$$$
=
 OpenBabel10222415223D

 60 65  0  0  1  0  0  0  0  0999 V2000
  184.7490  178.6890  143.9460 C   0  0  0  0  0  0  0  0  0  0  0  0
  185.0710  178.8860  145.3920 C   0  0  1  0  0  3  0  0  0  0  0  0
  184.0020  178.2140  146.2400 C   0  0  0  0  0  1  0  0  0  0  0  0
  189.6160  177.6810  141.0010 C   0  0  0  0  0  0  0  0  0  0  0  0
  186.8360  178.2930  147.1700 C   0  0  0  0  0  3  0  0  0  0  0  0
  189.7580  177.5170  145.4290 N   0  0  0  0  0  0  0  0  0  0  0  0
  189.5390  177.4130  144.0350 N   0  0  2  0  0  0  0  0  0  0  0  0
  190.6880  177.2660  141.9780 C   0  0  0  0  0  2  0  0  0  0  0  0
  186.3680  178.2560  142.3500 O   0  0  0  0  0  0  0  0  0  0  0  0
  183.8820  179.4780  143.3900 N   0  0  0  0  0  0  0  0  0  0  0  0
  190.6200  178.0160  143.2910 C   0  0  0  0  0  2  0  0  0  0  0  0
  186.4580  178.4740  145.8290 C   0  0  0  0  0  0  0  0  0  0  0  0
  185.4220  177.6230  143.1490 C   0  0  0  0  0  2  0  0  0  0  0  0
  187.5860  177.5980  142.5480 C   0  0  2  0  0  3  0  0  0  0  0  0
  188.1080  177.9370  147.2280 O   0  0  0  0  0  0  0  0  0  0  0  0
  187.6170  178.2300  145.0970 C   0  0  0  0  0  0  0  0  0  0  0  0
  188.3160  178.2020  143.7610 C   0  0  1  0  0  3  0  0  0  0  0  0
  188.5330  177.9140  145.9950 C   0  0  0  0  0  0  0  0  0  0  0  0
  188.3520  177.7990  141.3080 N   0  0  0  0  0  0  0  0  0  0  0  0
  191.0840  177.0970  147.4720 C   0  0  0  0  0  3  0  0  0  0  0  0
  192.7890  175.3790  147.5060 C   0  0  0  0  0  3  0  0  0  0  0  0
  192.5020  175.0710  146.1740 C   0  0  0  0  0  3  0  0  0  0  0  0
  192.0780  176.3910  148.1550 C   0  0  0  0  0  3  0  0  0  0  0  0
  190.7850  176.7940  146.1340 C   0  0  0  0  0  0  0  0  0  0  0  0
  191.5060  175.7750  145.4910 C   0  0  0  0  0  3  0  0  0  0  0  0
  189.9710  177.9340  139.6730 O   0  0  0  0  0  0  0  0  0  0  0  0
  189.0310  178.0990  138.6170 C   0  0  1  0  0  3  0  0  0  0  0  0
  188.9630  179.4430  138.2380 O   0  0  0  0  0  1  0  0  0  0  0  0
  189.4450  177.2440  137.4250 C   0  0  0  0  0  2  0  0  0  0  0  0
  190.9110  176.8360  137.5290 C   0  0  0  0  0  2  0  0  0  0  0  0
  191.0500  175.3960  137.3350 N   0  0  0  0  0  0  0  0  0  0  0  0
  193.4380  175.1140  137.5850 C   0  0  0  0  0  3  0  0  0  0  0  0
  192.3020  174.8000  136.9650 C   0  0  0  0  0  3  0  0  0  0  0  0
  194.7410  174.5070  137.1860 C   0  0  1  0  0  3  0  0  0  0  0  0
  195.2790  175.2010  135.9690 C   0  0  0  0  0  0  0  0  0  0  0  0
  194.7470  176.3630  135.5930 C   0  0  0  0  0  2  0  0  0  0  0  0
  196.5410  174.7380  135.3190 C   0  0  0  0  0  1  0  0  0  0  0  0
  195.6970  174.5910  138.2840 N   0  0  0  0  0  2  0  0  0  0  0  0
  195.4670  171.0180  138.4890 O   0  0  0  0  0  0  0  0  0  0  0  0
  195.2830  172.1920  138.0740 C   0  0  0  0  0  3  0  0  0  0  0  0
  195.8940  173.2850  138.7490 N   0  0  0  0  0  2  0  0  0  0  0  0
  189.8390  174.5970  137.2490 C   0  0  0  0  0  2  0  0  0  0  0  0
  190.0940  173.3190  136.4640 C   0  0  0  0  0  2  0  0  0  0  0  0
  188.8920  172.6470  136.2450 O   0  0  0  0  0  1  0  0  0  0  0  0
  183.5610  179.3860  142.0520 O   0  0  0  0  0  0  0  0  0  0  0  0
  182.4600  178.6430  141.6260 C   0  0  0  0  0  0  0  0  0  0  0  0
  181.3310  178.6970  142.3180 C   0  0  0  0  0  2  0  0  0  0  0  0
  182.5280  177.7850  140.4040 C   0  0  0  0  0  2  0  0  0  0  0  0
  182.6910  178.6380  139.1500 C   0  0  2  0  0  3  0  0  0  0  0  0
  180.8940  178.4850  137.3470 C   0  0  0  0  0  2  0  0  0  0  0  0
  183.2520  175.8100  138.4790 O   0  0  0  0  0  1  0  0  0  0  0  0
  182.0200  176.3900  138.1690 C   0  0  1  0  0  3  0  0  0  0  0  0
  182.1870  177.8910  137.9080 C   0  0  2  0  0  3  0  0  0  0  0  0
  182.2950  175.6350  135.8730 O   0  0  0  0  0  1  0  0  0  0  0  0
  181.3980  175.6990  136.9460 C   0  0  2  0  0  3  0  0  0  0  0  0
  180.4410  177.6430  136.1580 C   0  0  0  0  0  2  0  0  0  0  0  0
  180.1810  176.3140  136.5620 O   0  0  0  0  0  0  0  0  0  0  0  0
  185.1540  178.2790  138.9230 O   0  0  0  0  0  0  0  0  0  0  0  0
  184.3110  180.4080  138.9960 O   0  0  0  0  0  1  0  0  0  0  0  0
  184.0890  179.1680  139.0040 C   0  0  0  0  0  0  0  0  0  0  0  0
  1  2  1  0  0  0  0
  2 12  1  0  0  0  0
  2  3  1  1  0  0  0
  4 19  2  0  0  0  0
  4  8  1  0  0  0  0
  5 15  1  0  0  0  0
  6 18  1  0  0  0  0
  6 24  1  0  0  0  0
  7 11  1  6  0  0  0
  7  6  1  0  0  0  0
  8 11  1  0  0  0  0
  9 14  1  0  0  0  0
  9 13  1  0  0  0  0
 10  1  2  0  0  0  0
 12  5  2  0  0  0  0
 13  1  1  0  0  0  0
 14 19  1  6  0  0  0
 14 17  1  0  0  0  0
 16 12  1  0  0  0  0
 16 18  2  0  0  0  0
 17  7  1  0  0  0  0
 17 16  1  1  0  0  0
 18 15  1  0  0  0  0
 20 23  1  0  0  0  0
 21 23  2  0  0  0  0
 22 21  1  0  0  0  0
 24 20  2  0  0  0  0
 25 24  1  0  0  0  0
 25 22  2  0  0  0  0
 26  4  1  0  0  0  0
 27 28  1  6  0  0  0
 27 26  1  0  0  0  0
 29 30  1  0  0  0  0
 29 27  1  0  0  0  0
 31 30  1  0  0  0  0
 33 31  1  0  0  0  0
 33 32  2  0  0  0  0
 34 32  1  1  0  0  0
 34 38  1  0  0  0  0
 35 34  1  0  0  0  0
 36 35  2  0  0  0  0
 37 35  1  0  0  0  0
 38 41  1  0  0  0  0
 40 39  2  0  0  0  0
 40 41  1  0  0  0  0
 42 31  1  0  0  0  0
 43 42  1  0  0  0  0
 44 43  1  0  0  0  0
 45 10  1  0  0  0  0
 46 45  1  0  0  0  0
 46 47  2  0  0  0  0
 48 46  1  0  0  0  0
 49 48  1  1  0  0  0
 50 53  1  0  0  0  0
 52 51  1  6  0  0  0
 53 52  1  0  0  0  0
 53 49  1  1  0  0  0
 55 54  1  6  0  0  0
 55 52  1  0  0  0  0
 56 57  1  0  0  0  0
 56 50  1  0  0  0  0
 57 55  1  0  0  0  0
 58 60  2  0  0  0  0
 59 60  1  0  0  0  0
 60 49  1  0  0  0  0
M  END
>  <MODEL>
2

>  <REMARK>
 VINA RESULT:      -7.9      2.359      8.003
  Name = 
  19 active torsions:
  status: ('A' for Active; 'I' for Inactive)
    1  A    between atoms: C_1  and  C_12
    2  A    between atoms: N_5  and  C_12
    3  A    between atoms: N_5  and  N_58
    4  A    between atoms: C_8  and  C_32
    5  A    between atoms: C_8  and  C_50
    6  A    between atoms: C_9  and  C_12
    7  A    between atoms: C_10  and  O_57
    8  A    between atoms: N_15  and  C_51
    9  A    between atoms: C_16  and  C_42
   10  A    between atoms: O_18  and  N_27
   11  A    between atoms: O_18  and  C_32
   12  A    between atoms: C_19  and  C_49
   13  A    between atoms: C_19  and  O_57
   14  A    between atoms: N_24  and  C_37
   15  A    between atoms: N_24  and  C_38
   16  A    between atoms: N_24  and  C_42
   17  A    between atoms: C_28  and  C_50
   18  A    between atoms: C_36  and  C_50
   19  A    between atoms: C_37  and  C_49
                            x       y       z     vdW  Elec       q    Type
                         _______ _______ _______ _____ _____    ______ ____

>  <TORSDO>
F 19

$$$$
=
 OpenBabel10222415223D

 60 65  0  0  1  0  0  0  0  0999 V2000
  184.4880  178.6070  143.6510 C   0  0  0  0  0  0  0  0  0  0  0  0
  182.9980  178.4980  143.6100 C   0  0  1  0  0  3  0  0  0  0  0  0
  182.3940  179.5000  144.5810 C   0  0  0  0  0  1  0  0  0  0  0  0
  186.6150  178.0620  138.3070 C   0  0  0  0  0  0  0  0  0  0  0  0
  180.9890  178.8310  142.0360 C   0  0  0  0  0  3  0  0  0  0  0  0
  182.2500  178.6700  138.7880 N   0  0  0  0  0  0  0  0  0  0  0  0
  183.6650  178.6710  138.7630 N   0  0  2  0  0  0  0  0  0  0  0  0
  185.4990  178.3050  137.3220 C   0  0  0  0  0  2  0  0  0  0  0  0
  185.8080  178.4530  141.7560 O   0  0  0  0  0  0  0  0  0  0  0  0
  185.1300  178.0000  144.6010 N   0  0  0  0  0  0  0  0  0  0  0  0
  184.1700  177.7440  137.7770 C   0  0  0  0  0  2  0  0  0  0  0  0
  182.3580  178.6020  142.2450 C   0  0  0  0  0  0  0  0  0  0  0  0
  185.2290  179.3820  142.6130 C   0  0  0  0  0  2  0  0  0  0  0  0
  185.4490  178.8090  140.4530 C   0  0  2  0  0  3  0  0  0  0  0  0
  180.7370  178.8680  140.7390 O   0  0  0  0  0  0  0  0  0  0  0  0
  182.8950  178.4720  140.9660 C   0  0  0  0  0  0  0  0  0  0  0  0
  184.0910  178.1810  140.0940 C   0  0  1  0  0  3  0  0  0  0  0  0
  181.8770  178.6510  140.1440 C   0  0  0  0  0  0  0  0  0  0  0  0
  186.5230  178.2920  139.5900 N   0  0  0  0  0  0  0  0  0  0  0  0
  181.4040  180.5690  137.4530 C   0  0  0  0  0  3  0  0  0  0  0  0
  179.8300  180.2080  135.6500 C   0  0  0  0  0  3  0  0  0  0  0  0
  179.8450  178.8360  135.9150 C   0  0  0  0  0  3  0  0  0  0  0  0
  180.6110  181.0740  136.4180 C   0  0  0  0  0  3  0  0  0  0  0  0
  181.4300  179.1930  137.7250 C   0  0  0  0  0  0  0  0  0  0  0  0
  180.6400  178.3320  136.9470 C   0  0  0  0  0  3  0  0  0  0  0  0
  187.8420  177.5860  137.8370 O   0  0  0  0  0  0  0  0  0  0  0  0
  188.5960  178.2130  136.8050 C   0  0  1  0  0  3  0  0  0  0  0  0
  189.0130  179.4820  137.2160 O   0  0  0  0  0  1  0  0  0  0  0  0
  189.8080  177.3530  136.4630 C   0  0  0  0  0  2  0  0  0  0  0  0
  189.3770  176.0120  135.8770 C   0  0  0  0  0  2  0  0  0  0  0  0
  189.8540  174.9180  136.7180 N   0  0  0  0  0  0  0  0  0  0  0  0
  192.2140  175.2040  137.1550 C   0  0  0  0  0  3  0  0  0  0  0  0
  190.9690  175.0800  137.6080 C   0  0  0  0  0  3  0  0  0  0  0  0
  193.3730  175.3540  138.0830 C   0  0  1  0  0  3  0  0  0  0  0  0
  194.5480  174.5750  137.5670 C   0  0  0  0  0  0  0  0  0  0  0  0
  194.8160  174.5880  136.2620 C   0  0  0  0  0  2  0  0  0  0  0  0
  195.5490  173.9870  138.5070 C   0  0  0  0  0  1  0  0  0  0  0  0
  193.7230  176.7610  138.2340 N   0  0  0  0  0  2  0  0  0  0  0  0
  192.2310  177.6380  141.3760 O   0  0  0  0  0  0  0  0  0  0  0  0
  192.3350  177.3740  140.1500 C   0  0  0  0  0  3  0  0  0  0  0  0
  193.6080  177.0630  139.5970 N   0  0  0  0  0  2  0  0  0  0  0  0
  189.3620  173.5790  136.4440 C   0  0  0  0  0  2  0  0  0  0  0  0
  187.8450  173.5320  136.5500 C   0  0  0  0  0  2  0  0  0  0  0  0
  187.4460  172.3350  137.1430 O   0  0  0  0  0  1  0  0  0  0  0  0
  186.5060  178.0210  144.6840 O   0  0  0  0  0  0  0  0  0  0  0  0
  187.1500  178.1830  145.9100 C   0  0  0  0  0  0  0  0  0  0  0  0
  186.4560  178.0540  147.0320 C   0  0  0  0  0  2  0  0  0  0  0  0
  188.6080  178.5040  145.9850 C   0  0  0  0  0  2  0  0  0  0  0  0
  189.4090  177.6130  145.0410 C   0  0  2  0  0  3  0  0  0  0  0  0
  191.3620  175.9780  144.9040 C   0  0  0  0  0  2  0  0  0  0  0  0
  189.8310  177.4830  147.9680 O   0  0  0  0  0  1  0  0  0  0  0  0
  190.2960  176.4660  147.1310 C   0  0  1  0  0  3  0  0  0  0  0  0
  190.6400  177.0300  145.7470 C   0  0  2  0  0  3  0  0  0  0  0  0
  192.4990  176.7130  148.1330 O   0  0  0  0  0  1  0  0  0  0  0  0
  191.5230  175.7830  147.7520 C   0  0  2  0  0  3  0  0  0  0  0  0
  192.5290  175.4160  145.7100 C   0  0  0  0  0  2  0  0  0  0  0  0
  192.0630  174.7970  146.8910 O   0  0  0  0  0  0  0  0  0  0  0  0
  189.0820  177.9140  142.5820 O   0  0  0  0  0  0  0  0  0  0  0  0
  190.6140  179.2020  143.6980 O   0  0  0  0  0  1  0  0  0  0  0  0
  189.7320  178.3040  143.7470 C   0  0  0  0  0  0  0  0  0  0  0  0
  1 10  2  0  0  0  0
  2  1  1  0  0  0  0
  2  3  1  1  0  0  0
  4 19  2  0  0  0  0
  5 12  2  0  0  0  0
  6 18  1  0  0  0  0
  7 11  1  6  0  0  0
  7  6  1  0  0  0  0
  7 17  1  0  0  0  0
  8 11  1  0  0  0  0
  8  4  1  0  0  0  0
  9 13  1  0  0  0  0
 10 45  1  0  0  0  0
 12  2  1  0  0  0  0
 13  1  1  0  0  0  0
 14 19  1  6  0  0  0
 14  9  1  0  0  0  0
 15  5  1  0  0  0  0
 16 12  1  0  0  0  0
 17 14  1  0  0  0  0
 17 16  1  1  0  0  0
 18 15  1  0  0  0  0
 18 16  2  0  0  0  0
 20 24  1  0  0  0  0
 21 22  2  0  0  0  0
 21 23  1  0  0  0  0
 22 25  1  0  0  0  0
 23 20  2  0  0  0  0
 24  6  1  0  0  0  0
 25 24  2  0  0  0  0
 26  4  1  0  0  0  0
 27 28  1  1  0  0  0
 27 26  1  0  0  0  0
 29 27  1  0  0  0  0
 30 29  1  0  0  0  0
 30 31  1  0  0  0  0
 31 33  1  0  0  0  0
 32 33  2  0  0  0  0
 34 32  1  6  0  0  0
 34 38  1  0  0  0  0
 35 34  1  0  0  0  0
 35 37  1  0  0  0  0
 36 35  2  0  0  0  0
 38 41  1  0  0  0  0
 40 39  2  0  0  0  0
 41 40  1  0  0  0  0
 42 43  1  0  0  0  0
 42 31  1  0  0  0  0
 43 44  1  0  0  0  0
 45 46  1  0  0  0  0
 46 48  1  0  0  0  0
 46 47  2  0  0  0  0
 49 48  1  1  0  0  0
 50 56  1  0  0  0  0
 50 53  1  0  0  0  0
 52 55  1  0  0  0  0
 52 51  1  1  0  0  0
 53 49  1  6  0  0  0
 53 52  1  0  0  0  0
 55 54  1  6  0  0  0
 56 57  1  0  0  0  0
 57 55  1  0  0  0  0
 58 60  2  0  0  0  0
 59 60  1  0  0  0  0
 60 49  1  0  0  0  0
M  END
>  <MODEL>
3

>  <REMARK>
 VINA RESULT:      -7.7      1.648      2.657
  Name = 
  19 active torsions:
  status: ('A' for Active; 'I' for Inactive)
    1  A    between atoms: C_1  and  C_12
    2  A    between atoms: N_5  and  C_12
    3  A    between atoms: N_5  and  N_58
    4  A    between atoms: C_8  and  C_32
    5  A    between atoms: C_8  and  C_50
    6  A    between atoms: C_9  and  C_12
    7  A    between atoms: C_10  and  O_57
    8  A    between atoms: N_15  and  C_51
    9  A    between atoms: C_16  and  C_42
   10  A    between atoms: O_18  and  N_27
   11  A    between atoms: O_18  and  C_32
   12  A    between atoms: C_19  and  C_49
   13  A    between atoms: C_19  and  O_57
   14  A    between atoms: N_24  and  C_37
   15  A    between atoms: N_24  and  C_38
   16  A    between atoms: N_24  and  C_42
   17  A    between atoms: C_28  and  C_50
   18  A    between atoms: C_36  and  C_50
   19  A    between atoms: C_37  and  C_49
                            x       y       z     vdW  Elec       q    Type
                         _______ _______ _______ _____ _____    ______ ____

>  <TORSDO>
F 19

$$$$
=
 OpenBabel10222415223D

 60 65  0  0  1  0  0  0  0  0999 V2000
  185.4800  177.9210  144.4340 C   0  0  0  0  0  0  0  0  0  0  0  0
  185.6510  178.4660  145.8150 C   0  0  1  0  0  3  0  0  0  0  0  0
  184.5420  177.9310  146.7070 C   0  0  0  0  0  1  0  0  0  0  0  0
  190.6520  176.6220  142.2130 C   0  0  0  0  0  0  0  0  0  0  0  0
  187.2670  178.4270  147.8190 C   0  0  0  0  0  3  0  0  0  0  0  0
  190.3780  177.4890  146.5520 N   0  0  0  0  0  0  0  0  0  0  0  0
  190.2990  177.0520  145.2070 N   0  0  2  0  0  0  0  0  0  0  0  0
  191.6460  176.5220  143.3430 C   0  0  0  0  0  2  0  0  0  0  0  0
  187.2640  177.2520  143.1210 O   0  0  0  0  0  0  0  0  0  0  0  0
  184.6290  178.4950  143.6400 N   0  0  0  0  0  0  0  0  0  0  0  0
  191.4130  177.5450  144.4330 C   0  0  0  0  0  2  0  0  0  0  0  0
  187.0090  178.2680  146.4470 C   0  0  0  0  0  0  0  0  0  0  0  0
  186.2800  176.7520  143.9670 C   0  0  0  0  0  2  0  0  0  0  0  0
  188.4900  176.7480  143.5660 C   0  0  2  0  0  3  0  0  0  0  0  0
  188.5440  178.1880  148.0620 O   0  0  0  0  0  0  0  0  0  0  0  0
  188.2450  177.9480  145.8890 C   0  0  0  0  0  0  0  0  0  0  0  0
  189.0680  177.6660  144.6580 C   0  0  1  0  0  3  0  0  0  0  0  0
  189.0860  177.9140  146.9080 C   0  0  0  0  0  0  0  0  0  0  0  0
  189.3600  176.7150  142.3790 N   0  0  0  0  0  0  0  0  0  0  0  0
  191.7370  177.8100  148.5900 C   0  0  0  0  0  3  0  0  0  0  0  0
  193.3020  176.1090  149.3110 C   0  0  0  0  0  3  0  0  0  0  0  0
  192.9470  175.3200  148.2150 C   0  0  0  0  0  3  0  0  0  0  0  0
  192.6960  177.3540  149.4990 C   0  0  0  0  0  3  0  0  0  0  0  0
  191.3690  177.0230  147.4870 C   0  0  0  0  0  0  0  0  0  0  0  0
  191.9850  175.7750  147.3080 C   0  0  0  0  0  3  0  0  0  0  0  0
  191.1180  176.5890  140.8950 O   0  0  0  0  0  0  0  0  0  0  0  0
  190.2730  176.6340  139.7510 C   0  0  1  0  0  3  0  0  0  0  0  0
  189.9400  177.9580  139.4500 O   0  0  0  0  0  1  0  0  0  0  0  0
  190.9830  175.9940  138.5640 C   0  0  0  0  0  2  0  0  0  0  0  0
  190.6140  176.6990  137.2620 C   0  0  0  0  0  2  0  0  0  0  0  0
  190.3540  175.7180  136.2130 N   0  0  0  0  0  0  0  0  0  0  0  0
  188.1160  175.0520  136.8440 C   0  0  0  0  0  3  0  0  0  0  0  0
  189.0220  175.2860  135.8960 C   0  0  0  0  0  3  0  0  0  0  0  0
  186.7380  174.5870  136.5120 C   0  0  1  0  0  3  0  0  0  0  0  0
  186.4560  173.2850  137.2040 C   0  0  0  0  0  0  0  0  0  0  0  0
  185.2260  173.0360  137.6490 C   0  0  0  0  0  2  0  0  0  0  0  0
  187.4600  172.1780  137.1920 C   0  0  0  0  0  1  0  0  0  0  0  0
  185.7560  175.5920  136.9000 N   0  0  0  0  0  2  0  0  0  0  0  0
  186.7430  178.9100  137.8390 O   0  0  0  0  0  0  0  0  0  0  0  0
  186.1140  177.9810  137.2690 C   0  0  0  0  0  3  0  0  0  0  0  0
  186.4620  176.6260  137.5280 N   0  0  0  0  0  2  0  0  0  0  0  0
  191.4800  174.9730  135.6780 C   0  0  0  0  0  2  0  0  0  0  0  0
  192.5830  175.9180  135.2270 C   0  0  0  0  0  2  0  0  0  0  0  0
  193.7520  175.6620  135.9420 O   0  0  0  0  0  1  0  0  0  0  0  0
  184.4430  178.0760  142.3400 O   0  0  0  0  0  0  0  0  0  0  0  0
  184.8260  178.8760  141.2640 C   0  0  0  0  0  0  0  0  0  0  0  0
  186.0300  179.4300  141.2620 C   0  0  0  0  0  2  0  0  0  0  0  0
  183.9050  179.1240  140.1130 C   0  0  0  0  0  2  0  0  0  0  0  0
  182.7230  178.1600  140.1480 C   0  0  2  0  0  3  0  0  0  0  0  0
  182.5460  178.3690  137.6120 C   0  0  0  0  0  2  0  0  0  0  0  0
  181.4900  175.4970  139.7650 O   0  0  0  0  0  1  0  0  0  0  0  0
  181.3550  176.4960  138.7970 C   0  0  1  0  0  3  0  0  0  0  0  0
  182.5770  177.4210  138.8120 C   0  0  2  0  0  3  0  0  0  0  0  0
  182.1660  174.9220  137.1280 O   0  0  0  0  0  1  0  0  0  0  0  0
  181.1720  175.8700  137.4070 C   0  0  2  0  0  3  0  0  0  0  0  0
  182.3380  177.5500  136.3420 C   0  0  0  0  0  2  0  0  0  0  0  0
  181.1080  176.8580  136.3940 O   0  0  0  0  0  0  0  0  0  0  0  0
  180.7210  178.2750  141.6400 O   0  0  0  0  0  1  0  0  0  0  0  0
  181.0350  179.8680  140.0240 O   0  0  0  0  0  0  0  0  0  0  0  0
  181.4570  178.8320  140.6020 C   0  0  0  0  0  0  0  0  0  0  0  0
  1  2  1  0  0  0  0
  2 12  1  0  0  0  0
  2  3  1  1  0  0  0
  4 19  2  0  0  0  0
  4  8  1  0  0  0  0
  5 15  1  0  0  0  0
  6 18  1  0  0  0  0
  6 24  1  0  0  0  0
  7 11  1  6  0  0  0
  7  6  1  0  0  0  0
  8 11  1  0  0  0  0
  9 14  1  0  0  0  0
  9 13  1  0  0  0  0
 10  1  2  0  0  0  0
 12  5  2  0  0  0  0
 13  1  1  0  0  0  0
 14 19  1  6  0  0  0
 14 17  1  0  0  0  0
 16 12  1  0  0  0  0
 16 18  2  0  0  0  0
 17  7  1  0  0  0  0
 17 16  1  1  0  0  0
 18 15  1  0  0  0  0
 20 23  1  0  0  0  0
 21 23  2  0  0  0  0
 22 21  1  0  0  0  0
 24 20  2  0  0  0  0
 25 24  1  0  0  0  0
 25 22  2  0  0  0  0
 26  4  1  0  0  0  0
 27 28  1  6  0  0  0
 27 26  1  0  0  0  0
 29 27  1  0  0  0  0
 30 29  1  0  0  0  0
 31 30  1  0  0  0  0
 33 31  1  0  0  0  0
 33 32  2  0  0  0  0
 34 32  1  1  0  0  0
 34 38  1  0  0  0  0
 34 35  1  0  0  0  0
 35 36  2  0  0  0  0
 37 35  1  0  0  0  0
 38 41  1  0  0  0  0
 40 41  1  0  0  0  0
 40 39  2  0  0  0  0
 42 31  1  0  0  0  0
 43 42  1  0  0  0  0
 43 44  1  0  0  0  0
 45 10  1  0  0  0  0
 46 45  1  0  0  0  0
 47 46  2  0  0  0  0
 48 46  1  0  0  0  0
 49 48  1  6  0  0  0
 49 60  1  0  0  0  0
 50 53  1  0  0  0  0
 52 53  1  0  0  0  0
 52 51  1  1  0  0  0
 53 49  1  1  0  0  0
 55 54  1  6  0  0  0
 55 52  1  0  0  0  0
 56 57  1  0  0  0  0
 56 50  1  0  0  0  0
 57 55  1  0  0  0  0
 59 60  2  0  0  0  0
 60 58  1  0  0  0  0
M  END
>  <MODEL>
4

>  <REMARK>
 VINA RESULT:      -7.6      2.490      9.138
  Name = 
  19 active torsions:
  status: ('A' for Active; 'I' for Inactive)
    1  A    between atoms: C_1  and  C_12
    2  A    between atoms: N_5  and  C_12
    3  A    between atoms: N_5  and  N_58
    4  A    between atoms: C_8  and  C_32
    5  A    between atoms: C_8  and  C_50
    6  A    between atoms: C_9  and  C_12
    7  A    between atoms: C_10  and  O_57
    8  A    between atoms: N_15  and  C_51
    9  A    between atoms: C_16  and  C_42
   10  A    between atoms: O_18  and  N_27
   11  A    between atoms: O_18  and  C_32
   12  A    between atoms: C_19  and  C_49
   13  A    between atoms: C_19  and  O_57
   14  A    between atoms: N_24  and  C_37
   15  A    between atoms: N_24  and  C_38
   16  A    between atoms: N_24  and  C_42
   17  A    between atoms: C_28  and  C_50
   18  A    between atoms: C_36  and  C_50
   19  A    between atoms: C_37  and  C_49
                            x       y       z     vdW  Elec       q    Type
                         _______ _______ _______ _____ _____    ______ ____

>  <TORSDO>
F 19

$$$$
=
 OpenBabel10222415223D

 60 65  0  0  1  0  0  0  0  0999 V2000
  188.4270  171.6790  135.2320 C   0  0  0  0  0  0  0  0  0  0  0  0
  187.1550  171.2220  134.5940 C   0  0  1  0  0  3  0  0  0  0  0  0
  186.9150  169.7610  134.9420 C   0  0  0  0  0  1  0  0  0  0  0  0
  187.7670  177.0660  137.2130 C   0  0  0  0  0  0  0  0  0  0  0  0
  184.6140  171.6340  134.6250 C   0  0  0  0  0  3  0  0  0  0  0  0
  184.1540  174.8210  135.9670 N   0  0  0  0  0  0  0  0  0  0  0  0
  185.3510  175.3530  136.5030 N   0  0  2  0  0  0  0  0  0  0  0  0
  186.2920  177.3600  137.3160 C   0  0  0  0  0  2  0  0  0  0  0  0
  188.6690  173.7770  136.1800 O   0  0  0  0  0  0  0  0  0  0  0  0
  189.5500  171.4050  134.6450 N   0  0  0  0  0  0  0  0  0  0  0  0
  185.4840  176.7560  136.1880 C   0  0  0  0  0  2  0  0  0  0  0  0
  185.9290  172.0610  134.8710 C   0  0  0  0  0  0  0  0  0  0  0  0
  188.4090  172.4510  136.5090 C   0  0  0  0  0  2  0  0  0  0  0  0
  187.6640  174.5550  136.7630 C   0  0  2  0  0  3  0  0  0  0  0  0
  183.7660  172.5880  134.9680 O   0  0  0  0  0  0  0  0  0  0  0  0
  185.7950  173.3600  135.3560 C   0  0  0  0  0  0  0  0  0  0  0  0
  186.4510  174.6370  135.8190 C   0  0  1  0  0  3  0  0  0  0  0  0
  184.4940  173.5850  135.3890 C   0  0  0  0  0  0  0  0  0  0  0  0
  188.2650  175.8800  136.9800 N   0  0  0  0  0  0  0  0  0  0  0  0
  181.9410  175.8690  135.6360 C   0  0  0  0  0  3  0  0  0  0  0  0
  180.2770  175.8210  137.3930 C   0  0  0  0  0  3  0  0  0  0  0  0
  181.1640  175.1200  138.2120 C   0  0  0  0  0  3  0  0  0  0  0  0
  180.6650  176.1950  136.1040 C   0  0  0  0  0  3  0  0  0  0  0  0
  182.8400  175.1610  136.4490 C   0  0  0  0  0  0  0  0  0  0  0  0
  182.4390  174.7910  137.7420 C   0  0  0  0  0  3  0  0  0  0  0  0
  188.6810  178.1080  137.4010 O   0  0  0  0  0  0  0  0  0  0  0  0
  189.3600  178.3590  138.6270 C   0  0  1  0  0  3  0  0  0  0  0  0
  188.6230  179.2490  139.4120 O   0  0  0  0  0  1  0  0  0  0  0  0
  189.5620  177.0480  139.3770 C   0  0  0  0  0  2  0  0  0  0  0  0
  190.3660  177.2690  140.6550 C   0  0  0  0  0  2  0  0  0  0  0  0
  189.5670  176.9080  141.8220 N   0  0  0  0  0  0  0  0  0  0  0  0
  187.3930  177.1310  142.8580 C   0  0  0  0  0  3  0  0  0  0  0  0
  188.4270  177.6830  142.2260 C   0  0  0  0  0  3  0  0  0  0  0  0
  186.2030  177.9350  143.2610 C   0  0  1  0  0  3  0  0  0  0  0  0
  186.1720  178.0930  144.7530 C   0  0  0  0  0  0  0  0  0  0  0  0
  187.1060  177.4950  145.4920 C   0  0  0  0  0  2  0  0  0  0  0  0
  185.2660  179.0900  145.3990 C   0  0  0  0  0  1  0  0  0  0  0  0
  186.2290  179.2400  142.6120 N   0  0  0  0  0  2  0  0  0  0  0  0
  183.1470  178.3690  140.9980 O   0  0  0  0  0  0  0  0  0  0  0  0
  184.0880  178.3560  141.8330 C   0  0  0  0  0  3  0  0  0  0  0  0
  185.1850  179.2490  141.6790 N   0  0  0  0  0  2  0  0  0  0  0  0
  190.1000  175.9130  142.7360 C   0  0  0  0  0  2  0  0  0  0  0  0
  191.2350  176.4970  143.5640 C   0  0  0  0  0  2  0  0  0  0  0  0
  190.7750  176.8250  144.8390 O   0  0  0  0  0  1  0  0  0  0  0  0
  190.7620  171.8260  135.1500 O   0  0  0  0  0  0  0  0  0  0  0  0
  191.9340  171.1150  134.8950 C   0  0  0  0  0  0  0  0  0  0  0  0
  191.8680  169.8100  134.6710 C   0  0  0  0  0  2  0  0  0  0  0  0
  193.2660  171.7940  134.8720 C   0  0  0  0  0  2  0  0  0  0  0  0
  193.5660  172.4450  136.2180 C   0  0  2  0  0  3  0  0  0  0  0  0
  194.6100  174.7340  135.7980 C   0  0  0  0  0  2  0  0  0  0  0  0
  191.4680  173.9460  137.6700 O   0  0  0  0  0  1  0  0  0  0  0  0
  192.7310  174.5040  137.4560 C   0  0  1  0  0  3  0  0  0  0  0  0
  193.3400  173.9610  136.1580 C   0  0  2  0  0  3  0  0  0  0  0  0
  191.6500  176.4650  136.5060 O   0  0  0  0  0  1  0  0  0  0  0  0
  192.6350  176.0360  137.4040 C   0  0  2  0  0  3  0  0  0  0  0  0
  194.3020  176.2280  135.8230 C   0  0  0  0  0  2  0  0  0  0  0  0
  193.8880  176.6280  137.1140 O   0  0  0  0  0  0  0  0  0  0  0  0
  195.1430  172.0460  138.1150 O   0  0  0  0  0  1  0  0  0  0  0  0
  195.8660  171.7960  135.9560 O   0  0  0  0  0  0  0  0  0  0  0  0
  194.9200  172.0620  136.7440 C   0  0  0  0  0  0  0  0  0  0  0  0
  1 13  1  0  0  0  0
  2 12  1  0  0  0  0
  2  3  1  1  0  0  0
  2  1  1  0  0  0  0
  4  8  1  0  0  0  0
  4 26  1  0  0  0  0
  5 12  2  0  0  0  0
  5 15  1  0  0  0  0
  6 24  1  0  0  0  0
  6  7  1  0  0  0  0
  7 11  1  6  0  0  0
  9 13  1  0  0  0  0
 10 45  1  0  0  0  0
 10  1  2  0  0  0  0
 11  8  1  0  0  0  0
 12 16  1  0  0  0  0
 14  9  1  6  0  0  0
 14 19  1  0  0  0  0
 15 18  1  0  0  0  0
 16 18  2  0  0  0  0
 17 16  1  1  0  0  0
 17  7  1  0  0  0  0
 17 14  1  0  0  0  0
 18  6  1  0  0  0  0
 19  4  2  0  0  0  0
 20 23  2  0  0  0  0
 20 24  1  0  0  0  0
 21 22  2  0  0  0  0
 23 21  1  0  0  0  0
 24 25  2  0  0  0  0
 25 22  1  0  0  0  0
 26 27  1  0  0  0  0
 27 29  1  0  0  0  0
 27 28  1  1  0  0  0
 29 30  1  0  0  0  0
 30 31  1  0  0  0  0
 31 33  1  0  0  0  0
 31 42  1  0  0  0  0
 33 32  2  0  0  0  0
 34 32  1  1  0  0  0
 34 35  1  0  0  0  0
 35 37  1  0  0  0  0
 35 36  2  0  0  0  0
 38 34  1  0  0  0  0
 39 40  2  0  0  0  0
 41 40  1  0  0  0  0
 41 38  1  0  0  0  0
 42 43  1  0  0  0  0
 43 44  1  0  0  0  0
 46 45  1  0  0  0  0
 47 46  2  0  0  0  0
 48 46  1  0  0  0  0
 49 48  1  6  0  0  0
 49 60  1  0  0  0  0
 50 56  1  0  0  0  0
 50 53  1  0  0  0  0
 52 51  1  6  0  0  0
 53 49  1  1  0  0  0
 53 52  1  0  0  0  0
 55 54  1  6  0  0  0
 55 52  1  0  0  0  0
 56 57  1  0  0  0  0
 57 55  1  0  0  0  0
 59 60  2  0  0  0  0
 60 58  1  0  0  0  0
M  END
>  <MODEL>
5

>  <REMARK>
 VINA RESULT:      -7.4      2.769      9.343
  Name = 
  19 active torsions:
  status: ('A' for Active; 'I' for Inactive)
    1  A    between atoms: C_1  and  C_12
    2  A    between atoms: N_5  and  C_12
    3  A    between atoms: N_5  and  N_58
    4  A    between atoms: C_8  and  C_32
    5  A    between atoms: C_8  and  C_50
    6  A    between atoms: C_9  and  C_12
    7  A    between atoms: C_10  and  O_57
    8  A    between atoms: N_15  and  C_51
    9  A    between atoms: C_16  and  C_42
   10  A    between atoms: O_18  and  N_27
   11  A    between atoms: O_18  and  C_32
   12  A    between atoms: C_19  and  C_49
   13  A    between atoms: C_19  and  O_57
   14  A    between atoms: N_24  and  C_37
   15  A    between atoms: N_24  and  C_38
   16  A    between atoms: N_24  and  C_42
   17  A    between atoms: C_28  and  C_50
   18  A    between atoms: C_36  and  C_50
   19  A    between atoms: C_37  and  C_49
                            x       y       z     vdW  Elec       q    Type
                         _______ _______ _______ _____ _____    ______ ____

>  <TORSDO>
F 19

$$$$
=
 OpenBabel10222415223D

 60 65  0  0  1  0  0  0  0  0999 V2000
  183.1270  179.0480  143.7380 C   0  0  0  0  0  0  0  0  0  0  0  0
  181.7680  178.5050  143.4350 C   0  0  1  0  0  3  0  0  0  0  0  0
  180.7140  179.4370  144.0130 C   0  0  0  0  0  1  0  0  0  0  0  0
  186.5880  178.2540  139.1820 C   0  0  0  0  0  0  0  0  0  0  0  0
  180.1970  177.9690  141.4670 C   0  0  0  0  0  3  0  0  0  0  0  0
  182.2300  177.6380  138.6510 N   0  0  0  0  0  0  0  0  0  0  0  0
  183.5620  178.0470  138.9030 N   0  0  2  0  0  0  0  0  0  0  0  0
  185.7300  177.9930  137.9690 C   0  0  0  0  0  2  0  0  0  0  0  0
  184.8750  178.9680  142.2240 O   0  0  0  0  0  0  0  0  0  0  0  0
  183.6390  178.8220  144.9090 N   0  0  0  0  0  0  0  0  0  0  0  0
  184.5080  177.1550  138.2740 C   0  0  0  0  0  2  0  0  0  0  0  0
  181.4840  178.1870  141.9850 C   0  0  0  0  0  0  0  0  0  0  0  0
  183.8900  179.8180  142.7140 C   0  0  0  0  0  2  0  0  0  0  0  0
  184.7770  178.9790  140.8290 C   0  0  2  0  0  3  0  0  0  0  0  0
  180.2770  177.7130  140.1720 O   0  0  0  0  0  0  0  0  0  0  0  0
  182.3390  178.0060  140.9000 C   0  0  0  0  0  0  0  0  0  0  0  0
  183.7480  177.9330  140.3670 C   0  0  1  0  0  3  0  0  0  0  0  0
  181.5460  177.7400  139.8760 C   0  0  0  0  0  0  0  0  0  0  0  0
  186.1250  178.6590  140.3340 N   0  0  0  0  0  0  0  0  0  0  0  0
  181.4930  178.9410  136.6850 C   0  0  0  0  0  3  0  0  0  0  0  0
  180.3700  177.8550  134.8360 C   0  0  0  0  0  3  0  0  0  0  0  0
  180.4680  176.6300  135.4990 C   0  0  0  0  0  3  0  0  0  0  0  0
  180.8840  179.0110  135.4290 C   0  0  0  0  0  3  0  0  0  0  0  0
  181.6000  177.7140  137.3590 C   0  0  0  0  0  0  0  0  0  0  0  0
  181.0790  176.5590  136.7530 C   0  0  0  0  0  3  0  0  0  0  0  0
  187.9720  178.0830  139.0820 O   0  0  0  0  0  0  0  0  0  0  0  0
  188.7130  178.2780  137.8820 C   0  0  1  0  0  3  0  0  0  0  0  0
  188.7640  179.6370  137.5620 O   0  0  0  0  0  1  0  0  0  0  0  0
  190.1250  177.7310  138.0580 C   0  0  0  0  0  2  0  0  0  0  0  0
  190.0940  176.2690  138.4930 C   0  0  0  0  0  2  0  0  0  0  0  0
  190.6730  175.4220  137.4550 N   0  0  0  0  0  0  0  0  0  0  0  0
  188.5280  174.6400  136.6570 C   0  0  0  0  0  3  0  0  0  0  0  0
  189.8520  174.6940  136.5280 C   0  0  0  0  0  3  0  0  0  0  0  0
  187.6790  173.8690  135.7030 C   0  0  1  0  0  3  0  0  0  0  0  0
  187.0650  172.6900  136.4010 C   0  0  0  0  0  0  0  0  0  0  0  0
  185.8470  172.8060  136.9280 C   0  0  0  0  0  2  0  0  0  0  0  0
  187.6890  171.3360  136.3100 C   0  0  0  0  0  1  0  0  0  0  0  0
  186.6410  174.7240  135.1420 N   0  0  0  0  0  2  0  0  0  0  0  0
  187.3060  178.2450  134.9820 O   0  0  0  0  0  0  0  0  0  0  0  0
  187.0620  177.0700  134.6030 C   0  0  0  0  0  3  0  0  0  0  0  0
  186.9210  176.0300  135.5630 N   0  0  0  0  0  2  0  0  0  0  0  0
  192.0870  175.1030  137.5410 C   0  0  0  0  0  2  0  0  0  0  0  0
  192.9210  176.3730  137.6110 C   0  0  0  0  0  2  0  0  0  0  0  0
  193.8010  176.3070  138.6900 O   0  0  0  0  0  1  0  0  0  0  0  0
  184.9020  179.2560  145.2510 O   0  0  0  0  0  0  0  0  0  0  0  0
  185.9090  178.3490  145.5810 C   0  0  0  0  0  0  0  0  0  0  0  0
  185.5970  177.2420  146.2400 C   0  0  0  0  0  2  0  0  0  0  0  0
  187.3350  178.6020  145.2100 C   0  0  0  0  0  2  0  0  0  0  0  0
  188.0890  177.2890  145.0280 C   0  0  2  0  0  3  0  0  0  0  0  0
  190.5820  176.7790  144.8500 C   0  0  0  0  0  2  0  0  0  0  0  0
  188.5540  177.2940  147.9510 O   0  0  0  0  0  1  0  0  0  0  0  0
  189.4360  176.6430  147.0860 C   0  0  1  0  0  3  0  0  0  0  0  0
  189.4570  177.3400  145.7210 C   0  0  2  0  0  3  0  0  0  0  0  0
  191.2690  177.8760  148.1030 O   0  0  0  0  0  1  0  0  0  0  0  0
  190.8470  176.6060  147.6920 C   0  0  2  0  0  3  0  0  0  0  0  0
  191.8850  176.8150  145.6440 C   0  0  0  0  0  2  0  0  0  0  0  0
  191.7800  176.0170  146.8050 O   0  0  0  0  0  0  0  0  0  0  0  0
  188.5880  177.7880  142.6310 O   0  0  0  0  0  0  0  0  0  0  0  0
  187.8060  175.7190  143.2300 O   0  0  0  0  0  1  0  0  0  0  0  0
  188.1630  176.8730  143.5860 C   0  0  0  0  0  0  0  0  0  0  0  0
  1 10  2  0  0  0  0
  2  1  1  0  0  0  0
  2  3  1  6  0  0  0
  4 19  2  0  0  0  0
  5 12  2  0  0  0  0
  6  7  1  0  0  0  0
  6 18  1  0  0  0  0
  7 11  1  6  0  0  0
  7 17  1  0  0  0  0
  8 11  1  0  0  0  0
  8  4  1  0  0  0  0
  9 13  1  0  0  0  0
 10 45  1  0  0  0  0
 12  2  1  0  0  0  0
 13  1  1  0  0  0  0
 14 19  1  6  0  0  0
 14  9  1  0  0  0  0
 15  5  1  0  0  0  0
 16 12  1  0  0  0  0
 17 14  1  0  0  0  0
 17 16  1  1  0  0  0
 18 15  1  0  0  0  0
 18 16  2  0  0  0  0
 20 24  1  0  0  0  0
 21 23  1  0  0  0  0
 21 22  2  0  0  0  0
 22 25  1  0  0  0  0
 23 20  2  0  0  0  0
 24  6  1  0  0  0  0
 25 24  2  0  0  0  0
 26  4  1  0  0  0  0
 27 28  1  1  0  0  0
 27 29  1  0  0  0  0
 27 26  1  0  0  0  0
 29 30  1  0  0  0  0
 31 42  1  0  0  0  0
 31 30  1  0  0  0  0
 33 32  2  0  0  0  0
 33 31  1  0  0  0  0
 34 35  1  0  0  0  0
 34 32  1  1  0  0  0
 35 36  2  0  0  0  0
 37 35  1  0  0  0  0
 38 41  1  0  0  0  0
 38 34  1  0  0  0  0
 40 39  2  0  0  0  0
 40 41  1  0  0  0  0
 42 43  1  0  0  0  0
 43 44  1  0  0  0  0
 45 46  1  0  0  0  0
 46 47  2  0  0  0  0
 48 46  1  0  0  0  0
 49 48  1  6  0  0  0
 50 56  1  0  0  0  0
 50 53  1  0  0  0  0
 52 55  1  0  0  0  0
 52 51  1  1  0  0  0
 53 49  1  6  0  0  0
 53 52  1  0  0  0  0
 55 54  1  6  0  0  0
 56 57  1  0  0  0  0
 57 55  1  0  0  0  0
 58 60  2  0  0  0  0
 59 60  1  0  0  0  0
 60 49  1  0  0  0  0
M  END
>  <MODEL>
6

>  <REMARK>
 VINA RESULT:      -7.2      1.985      4.021
  Name = 
  19 active torsions:
  status: ('A' for Active; 'I' for Inactive)
    1  A    between atoms: C_1  and  C_12
    2  A    between atoms: N_5  and  C_12
    3  A    between atoms: N_5  and  N_58
    4  A    between atoms: C_8  and  C_32
    5  A    between atoms: C_8  and  C_50
    6  A    between atoms: C_9  and  C_12
    7  A    between atoms: C_10  and  O_57
    8  A    between atoms: N_15  and  C_51
    9  A    between atoms: C_16  and  C_42
   10  A    between atoms: O_18  and  N_27
   11  A    between atoms: O_18  and  C_32
   12  A    between atoms: C_19  and  C_49
   13  A    between atoms: C_19  and  O_57
   14  A    between atoms: N_24  and  C_37
   15  A    between atoms: N_24  and  C_38
   16  A    between atoms: N_24  and  C_42
   17  A    between atoms: C_28  and  C_50
   18  A    between atoms: C_36  and  C_50
   19  A    between atoms: C_37  and  C_49
                            x       y       z     vdW  Elec       q    Type
                         _______ _______ _______ _____ _____    ______ ____

>  <TORSDO>
F 19

$$$$
=
 OpenBabel10222415223D

 60 65  0  0  1  0  0  0  0  0999 V2000
  185.4490  177.8820  144.4620 C   0  0  0  0  0  0  0  0  0  0  0  0
  185.6340  178.5100  145.8050 C   0  0  1  0  0  3  0  0  0  0  0  0
  184.5160  178.0560  146.7300 C   0  0  0  0  0  1  0  0  0  0  0  0
  190.5880  176.3300  142.3260 C   0  0  0  0  0  0  0  0  0  0  0  0
  187.2520  178.5620  147.8070 C   0  0  0  0  0  3  0  0  0  0  0  0
  190.3400  177.4760  146.6010 N   0  0  0  0  0  0  0  0  0  0  0  0
  190.2490  176.9570  145.2870 N   0  0  2  0  0  0  0  0  0  0  0  0
  191.5810  176.2800  143.4600 C   0  0  0  0  0  2  0  0  0  0  0  0
  187.2160  177.0920  143.1930 O   0  0  0  0  0  0  0  0  0  0  0  0
  184.6100  178.4230  143.6330 N   0  0  0  0  0  0  0  0  0  0  0  0
  191.3730  177.3750  144.4830 C   0  0  0  0  0  2  0  0  0  0  0  0
  186.9890  178.3220  146.4480 C   0  0  0  0  0  0  0  0  0  0  0  0
  186.2230  176.6680  144.0690 C   0  0  0  0  0  2  0  0  0  0  0  0
  188.4310  176.5900  143.6690 C   0  0  2  0  0  3  0  0  0  0  0  0
  188.5240  178.3110  148.0640 O   0  0  0  0  0  0  0  0  0  0  0  0
  188.2160  177.9400  145.9120 C   0  0  0  0  0  0  0  0  0  0  0  0
  189.0320  177.5620  144.7000 C   0  0  1  0  0  3  0  0  0  0  0  0
  189.0580  177.9520  146.9300 C   0  0  0  0  0  0  0  0  0  0  0  0
  189.2980  176.4620  142.4860 N   0  0  0  0  0  0  0  0  0  0  0  0
  191.6720  177.8760  148.6440 C   0  0  0  0  0  3  0  0  0  0  0  0
  193.2380  176.2100  149.4420 C   0  0  0  0  0  3  0  0  0  0  0  0
  192.9000  175.3820  148.3690 C   0  0  0  0  0  3  0  0  0  0  0  0
  192.6230  177.4570  149.5790 C   0  0  0  0  0  3  0  0  0  0  0  0
  191.3220  177.0490  147.5640 C   0  0  0  0  0  0  0  0  0  0  0  0
  191.9470  175.7990  147.4360 C   0  0  0  0  0  3  0  0  0  0  0  0
  191.0510  176.2030  141.0130 O   0  0  0  0  0  0  0  0  0  0  0  0
  191.4460  177.3020  140.1990 C   0  0  1  0  0  3  0  0  0  0  0  0
  192.8240  177.5100  140.3060 O   0  0  0  0  0  1  0  0  0  0  0  0
  191.0730  177.0230  138.7480 C   0  0  0  0  0  2  0  0  0  0  0  0
  189.9490  175.9960  138.6600 C   0  0  0  0  0  2  0  0  0  0  0  0
  188.8160  176.5490  137.9240 N   0  0  0  0  0  0  0  0  0  0  0  0
  187.1330  175.0280  137.0880 C   0  0  0  0  0  3  0  0  0  0  0  0
  188.1770  175.8230  136.8640 C   0  0  0  0  0  3  0  0  0  0  0  0
  186.4820  174.2610  135.9870 C   0  0  1  0  0  3  0  0  0  0  0  0
  186.3380  172.8200  136.3820 C   0  0  0  0  0  0  0  0  0  0  0  0
  187.4320  172.0960  136.6180 C   0  0  0  0  0  2  0  0  0  0  0  0
  185.0030  172.2540  136.7410 C   0  0  0  0  0  1  0  0  0  0  0  0
  185.1790  174.8340  135.6700 N   0  0  0  0  0  2  0  0  0  0  0  0
  183.7180  177.6450  137.3500 O   0  0  0  0  0  0  0  0  0  0  0  0
  183.9920  176.8290  136.4330 C   0  0  0  0  0  3  0  0  0  0  0  0
  184.8800  175.7470  136.6890 N   0  0  0  0  0  2  0  0  0  0  0  0
  188.5150  177.9600  138.0910 C   0  0  0  0  0  2  0  0  0  0  0  0
  188.3830  178.6440  136.7380 C   0  0  0  0  0  2  0  0  0  0  0  0
  187.5530  179.7590  136.8470 O   0  0  0  0  0  1  0  0  0  0  0  0
  184.4130  177.9260  142.3620 O   0  0  0  0  0  0  0  0  0  0  0  0
  184.0400  178.7650  141.3120 C   0  0  0  0  0  0  0  0  0  0  0  0
  184.9270  179.0650  140.3740 C   0  0  0  0  0  2  0  0  0  0  0  0
  182.6610  179.3340  141.2230 C   0  0  0  0  0  2  0  0  0  0  0  0
  181.9080  178.7480  140.0330 C   0  0  2  0  0  3  0  0  0  0  0  0
  179.7230  179.2760  138.8290 C   0  0  0  0  0  2  0  0  0  0  0  0
  182.9340  181.1930  138.7170 O   0  0  0  0  0  1  0  0  0  0  0  0
  181.8220  180.5170  138.2080 C   0  0  1  0  0  3  0  0  0  0  0  0
  181.0580  179.8210  139.3400 C   0  0  2  0  0  3  0  0  0  0  0  0
  180.5920  182.6160  138.2380 O   0  0  0  0  0  1  0  0  0  0  0  0
  180.9020  181.4930  137.4600 C   0  0  2  0  0  3  0  0  0  0  0  0
  178.9790  180.3950  138.1040 C   0  0  0  0  0  2  0  0  0  0  0  0
  179.7280  180.8510  136.9960 O   0  0  0  0  0  0  0  0  0  0  0  0
  181.3070  176.3510  139.6660 O   0  0  0  0  0  0  0  0  0  0  0  0
  180.2980  177.5380  141.3450 O   0  0  0  0  0  1  0  0  0  0  0  0
  181.1330  177.5160  140.4030 C   0  0  0  0  0  0  0  0  0  0  0  0
  1  2  1  0  0  0  0
  2 12  1  0  0  0  0
  2  3  1  1  0  0  0
  4 19  2  0  0  0  0
  4  8  1  0  0  0  0
  5 15  1  0  0  0  0
  6 18  1  0  0  0  0
  6 24  1  0  0  0  0
  7 11  1  6  0  0  0
  7  6  1  0  0  0  0
  8 11  1  0  0  0  0
  9 14  1  0  0  0  0
  9 13  1  0  0  0  0
 10  1  2  0  0  0  0
 12  5  2  0  0  0  0
 13  1  1  0  0  0  0
 14 19  1  6  0  0  0
 14 17  1  0  0  0  0
 16 12  1  0  0  0  0
 16 18  2  0  0  0  0
 17  7  1  0  0  0  0
 17 16  1  1  0  0  0
 18 15  1  0  0  0  0
 20 23  1  0  0  0  0
 21 23  2  0  0  0  0
 22 21  1  0  0  0  0
 24 20  2  0  0  0  0
 25 24  1  0  0  0  0
 25 22  2  0  0  0  0
 26  4  1  0  0  0  0
 27 28  1  6  0  0  0
 27 26  1  0  0  0  0
 29 27  1  0  0  0  0
 30 29  1  0  0  0  0
 31 42  1  0  0  0  0
 31 30  1  0  0  0  0
 33 32  2  0  0  0  0
 33 31  1  0  0  0  0
 34 35  1  0  0  0  0
 34 32  1  1  0  0  0
 35 36  2  0  0  0  0
 35 37  1  0  0  0  0
 38 34  1  0  0  0  0
 38 41  1  0  0  0  0
 40 41  1  0  0  0  0
 40 39  2  0  0  0  0
 43 44  1  0  0  0  0
 43 42  1  0  0  0  0
 45 10  1  0  0  0  0
 46 45  1  0  0  0  0
 47 46  2  0  0  0  0
 48 46  1  0  0  0  0
 49 60  1  0  0  0  0
 49 48  1  1  0  0  0
 50 53  1  0  0  0  0
 52 51  1  1  0  0  0
 52 53  1  0  0  0  0
 53 49  1  6  0  0  0
 55 52  1  0  0  0  0
 55 54  1  1  0  0  0
 56 50  1  0  0  0  0
 57 55  1  0  0  0  0
 57 56  1  0  0  0  0
 58 60  2  0  0  0  0
 60 59  1  0  0  0  0
M  END
>  <MODEL>
7

>  <REMARK>
 VINA RESULT:      -7.1      3.088      9.622
  Name = 
  19 active torsions:
  status: ('A' for Active; 'I' for Inactive)
    1  A    between atoms: C_1  and  C_12
    2  A    between atoms: N_5  and  C_12
    3  A    between atoms: N_5  and  N_58
    4  A    between atoms: C_8  and  C_32
    5  A    between atoms: C_8  and  C_50
    6  A    between atoms: C_9  and  C_12
    7  A    between atoms: C_10  and  O_57
    8  A    between atoms: N_15  and  C_51
    9  A    between atoms: C_16  and  C_42
   10  A    between atoms: O_18  and  N_27
   11  A    between atoms: O_18  and  C_32
   12  A    between atoms: C_19  and  C_49
   13  A    between atoms: C_19  and  O_57
   14  A    between atoms: N_24  and  C_37
   15  A    between atoms: N_24  and  C_38
   16  A    between atoms: N_24  and  C_42
   17  A    between atoms: C_28  and  C_50
   18  A    between atoms: C_36  and  C_50
   19  A    between atoms: C_37  and  C_49
                            x       y       z     vdW  Elec       q    Type
                         _______ _______ _______ _____ _____    ______ ____

>  <TORSDO>
F 19

$$$$
=
 OpenBabel10222415223D

 60 65  0  0  1  0  0  0  0  0999 V2000
  189.4190  177.5570  141.3180 C   0  0  0  0  0  0  0  0  0  0  0  0
  190.8880  177.7720  141.4950 C   0  0  1  0  0  3  0  0  0  0  0  0
  191.3350  177.1280  142.7980 C   0  0  0  0  0  1  0  0  0  0  0  0
  188.2870  176.4360  135.7640 C   0  0  0  0  0  0  0  0  0  0  0  0
  193.1600  177.1830  140.4380 C   0  0  0  0  0  3  0  0  0  0  0  0
  192.5080  176.3400  137.1170 N   0  0  0  0  0  0  0  0  0  0  0  0
  191.1210  176.2180  136.8580 N   0  0  2  0  0  0  0  0  0  0  0  0
  189.5710  176.0230  135.0890 C   0  0  0  0  0  2  0  0  0  0  0  0
  188.4630  177.0760  139.2660 O   0  0  0  0  0  0  0  0  0  0  0  0
  188.5970  178.3480  141.9340 N   0  0  0  0  0  0  0  0  0  0  0  0
  190.7770  176.7930  135.5800 C   0  0  0  0  0  2  0  0  0  0  0  0
  191.7690  177.3480  140.3430 C   0  0  0  0  0  0  0  0  0  0  0  0
  188.9050  176.4690  140.4360 C   0  0  0  0  0  2  0  0  0  0  0  0
  189.0640  176.4060  138.1960 C   0  0  2  0  0  3  0  0  0  0  0  0
  193.6450  176.8110  139.2660 O   0  0  0  0  0  0  0  0  0  0  0  0
  191.4700  177.0770  139.0090 C   0  0  0  0  0  0  0  0  0  0  0  0
  190.4460  177.0190  137.9040 C   0  0  1  0  0  3  0  0  0  0  0  0
  192.6270  176.7620  138.4530 C   0  0  0  0  0  0  0  0  0  0  0  0
  188.1500  176.5770  137.0560 N   0  0  0  0  0  0  0  0  0  0  0  0
  193.5130  174.2110  136.3700 C   0  0  0  0  0  3  0  0  0  0  0  0
  195.5070  174.2010  134.9960 C   0  0  0  0  0  3  0  0  0  0  0  0
  195.5280  175.5970  135.0220 C   0  0  0  0  0  3  0  0  0  0  0  0
  194.4980  173.5080  135.6700 C   0  0  0  0  0  3  0  0  0  0  0  0
  193.5230  175.6140  136.3990 C   0  0  0  0  0  0  0  0  0  0  0  0
  194.5420  176.3000  135.7190 C   0  0  0  0  0  3  0  0  0  0  0  0
  187.1520  176.6630  134.9810 O   0  0  0  0  0  0  0  0  0  0  0  0
  185.9680  175.8750  135.0480 C   0  0  1  0  0  3  0  0  0  0  0  0
  186.1960  174.7280  135.8130 O   0  0  0  0  0  1  0  0  0  0  0  0
  184.8410  176.6960  135.6640 C   0  0  0  0  0  2  0  0  0  0  0  0
  184.2500  175.9860  136.8780 C   0  0  0  0  0  2  0  0  0  0  0  0
  184.2000  176.8960  138.0190 N   0  0  0  0  0  0  0  0  0  0  0  0
  182.0020  176.2480  138.7900 C   0  0  0  0  0  3  0  0  0  0  0  0
  183.2000  176.7720  139.0410 C   0  0  0  0  0  3  0  0  0  0  0  0
  180.9590  176.1360  139.8500 C   0  0  1  0  0  3  0  0  0  0  0  0
  180.3460  177.4820  140.1100 C   0  0  0  0  0  0  0  0  0  0  0  0
  179.1440  177.7590  139.6050 C   0  0  0  0  0  2  0  0  0  0  0  0
  180.9460  178.4160  141.1090 C   0  0  0  0  0  1  0  0  0  0  0  0
  179.9340  175.1780  139.4550 N   0  0  0  0  0  2  0  0  0  0  0  0
  180.1820  173.3930  136.3540 O   0  0  0  0  0  0  0  0  0  0  0  0
  179.6890  174.0830  137.2840 C   0  0  0  0  0  3  0  0  0  0  0  0
  180.4790  174.4050  138.4230 N   0  0  0  0  0  2  0  0  0  0  0  0
  185.0060  178.1040  137.9670 C   0  0  0  0  0  2  0  0  0  0  0  0
  184.9310  178.8560  139.2880 C   0  0  0  0  0  2  0  0  0  0  0  0
  184.3890  180.1240  139.0830 O   0  0  0  0  0  1  0  0  0  0  0  0
  187.2300  178.2390  141.7900 O   0  0  0  0  0  0  0  0  0  0  0  0
  186.3740  178.4360  142.8740 C   0  0  0  0  0  0  0  0  0  0  0  0
  185.4730  179.4060  142.8230 C   0  0  0  0  0  2  0  0  0  0  0  0
  186.4550  177.5750  144.0930 C   0  0  0  0  0  2  0  0  0  0  0  0
  186.4190  178.4240  145.3600 C   0  0  2  0  0  3  0  0  0  0  0  0
  187.2620  178.5960  147.7610 C   0  0  0  0  0  2  0  0  0  0  0  0
  188.9840  177.0490  144.8220 O   0  0  0  0  0  1  0  0  0  0  0  0
  188.8370  177.8840  145.9320 C   0  0  1  0  0  3  0  0  0  0  0  0
  187.3830  177.8730  146.4180 C   0  0  2  0  0  3  0  0  0  0  0  0
  189.6570  176.0770  147.3400 O   0  0  0  0  0  1  0  0  0  0  0  0
  189.7830  177.4440  147.0590 C   0  0  2  0  0  3  0  0  0  0  0  0
  188.2970  178.0230  148.7240 C   0  0  0  0  0  2  0  0  0  0  0  0
  189.6030  178.2260  148.2260 O   0  0  0  0  0  0  0  0  0  0  0  0
  184.2520  179.6700  145.3740 O   0  0  0  0  0  0  0  0  0  0  0  0
  184.5490  177.8780  146.7700 O   0  0  0  0  0  1  0  0  0  0  0  0
  185.0190  178.6230  145.8700 C   0  0  0  0  0  0  0  0  0  0  0  0
  1  2  1  0  0  0  0
  1 10  2  0  0  0  0
  2  3  1  1  0  0  0
  4 19  2  0  0  0  0
  6 18  1  0  0  0  0
  7 11  1  6  0  0  0
  7  6  1  0  0  0  0
  7 17  1  0  0  0  0
  8 11  1  0  0  0  0
  8  4  1  0  0  0  0
  9 13  1  0  0  0  0
 12  5  2  0  0  0  0
 12  2  1  0  0  0  0
 13  1  1  0  0  0  0
 14 19  1  6  0  0  0
 14  9  1  0  0  0  0
 15  5  1  0  0  0  0
 16 12  1  0  0  0  0
 17 14  1  0  0  0  0
 17 16  1  1  0  0  0
 18 16  2  0  0  0  0
 18 15  1  0  0  0  0
 20 24  1  0  0  0  0
 21 22  2  0  0  0  0
 21 23  1  0  0  0  0
 22 25  1  0  0  0  0
 23 20  2  0  0  0  0
 24  6  1  0  0  0  0
 25 24  2  0  0  0  0
 26 27  1  0  0  0  0
 26  4  1  0  0  0  0
 27 29  1  0  0  0  0
 27 28  1  1  0  0  0
 29 30  1  0  0  0  0
 30 31  1  0  0  0  0
 31 33  1  0  0  0  0
 32 33  2  0  0  0  0
 34 32  1  6  0  0  0
 34 35  1  0  0  0  0
 35 37  1  0  0  0  0
 36 35  2  0  0  0  0
 38 34  1  0  0  0  0
 39 40  2  0  0  0  0
 40 41  1  0  0  0  0
 41 38  1  0  0  0  0
 42 31  1  0  0  0  0
 42 43  1  0  0  0  0
 44 43  1  0  0  0  0
 45 10  1  0  0  0  0
 45 46  1  0  0  0  0
 46 48  1  0  0  0  0
 47 46  2  0  0  0  0
 49 48  1  6  0  0  0
 49 60  1  0  0  0  0
 50 56  1  0  0  0  0
 52 51  1  6  0  0  0
 52 53  1  0  0  0  0
 52 55  1  0  0  0  0
 53 49  1  6  0  0  0
 53 50  1  0  0  0  0
 55 54  1  1  0  0  0
 55 57  1  0  0  0  0
 57 56  1  0  0  0  0
 58 60  2  0  0  0  0
 60 59  1  0  0  0  0
M  END
>  <MODEL>
8

>  <REMARK>
 VINA RESULT:      -7.1      2.466      9.484
  Name = 
  19 active torsions:
  status: ('A' for Active; 'I' for Inactive)
    1  A    between atoms: C_1  and  C_12
    2  A    between atoms: N_5  and  C_12
    3  A    between atoms: N_5  and  N_58
    4  A    between atoms: C_8  and  C_32
    5  A    between atoms: C_8  and  C_50
    6  A    between atoms: C_9  and  C_12
    7  A    between atoms: C_10  and  O_57
    8  A    between atoms: N_15  and  C_51
    9  A    between atoms: C_16  and  C_42
   10  A    between atoms: O_18  and  N_27
   11  A    between atoms: O_18  and  C_32
   12  A    between atoms: C_19  and  C_49
   13  A    between atoms: C_19  and  O_57
   14  A    between atoms: N_24  and  C_37
   15  A    between atoms: N_24  and  C_38
   16  A    between atoms: N_24  and  C_42
   17  A    between atoms: C_28  and  C_50
   18  A    between atoms: C_36  and  C_50
   19  A    between atoms: C_37  and  C_49
                            x       y       z     vdW  Elec       q    Type
                         _______ _______ _______ _____ _____    ______ ____

>  <TORSDO>
F 19

$$$$
=
 OpenBabel10222415223D

 60 65  0  0  1  0  0  0  0  0999 V2000
  182.3520  178.8610  142.0780 C   0  0  0  0  0  0  0  0  0  0  0  0
  182.4020  179.1190  143.5490 C   0  0  1  0  0  3  0  0  0  0  0  0
  181.2900  178.3400  144.2340 C   0  0  0  0  0  1  0  0  0  0  0  0
  187.7260  178.3860  140.0140 C   0  0  0  0  0  0  0  0  0  0  0  0
  183.9000  178.7710  145.6140 C   0  0  0  0  0  3  0  0  0  0  0  0
  187.1420  178.3180  144.4080 N   0  0  0  0  0  0  0  0  0  0  0  0
  187.1730  178.1640  143.0000 N   0  0  2  0  0  0  0  0  0  0  0  0
  188.6600  178.1180  141.1680 C   0  0  0  0  0  2  0  0  0  0  0  0
  184.2540  178.5940  140.7870 O   0  0  0  0  0  0  0  0  0  0  0  0
  181.5050  179.5310  141.3580 N   0  0  0  0  0  0  0  0  0  0  0  0
  188.2870  178.8770  142.4230 C   0  0  0  0  0  2  0  0  0  0  0  0
  183.7340  178.8830  144.2240 C   0  0  0  0  0  0  0  0  0  0  0  0
  183.2660  177.8680  141.4430 C   0  0  0  0  0  2  0  0  0  0  0  0
  185.4880  178.0900  141.2070 C   0  0  2  0  0  3  0  0  0  0  0  0
  185.1770  178.5700  145.8930 O   0  0  0  0  0  0  0  0  0  0  0  0
  185.0200  178.7650  143.7020 C   0  0  0  0  0  0  0  0  0  0  0  0
  185.9310  178.7980  142.5000 C   0  0  1  0  0  3  0  0  0  0  0  0
  185.8020  178.5760  144.7490 C   0  0  0  0  0  0  0  0  0  0  0  0
  186.4230  178.3580  140.1030 N   0  0  0  0  0  0  0  0  0  0  0  0
  189.3750  177.3450  144.8240 C   0  0  0  0  0  3  0  0  0  0  0  0
  190.0010  176.5940  147.0390 C   0  0  0  0  0  3  0  0  0  0  0  0
  188.7450  176.9730  147.5200 C   0  0  0  0  0  3  0  0  0  0  0  0
  190.3160  176.7810  145.6900 C   0  0  0  0  0  3  0  0  0  0  0  0
  188.1110  177.7330  145.2980 C   0  0  0  0  0  0  0  0  0  0  0  0
  187.8060  177.5400  146.6540 C   0  0  0  0  0  3  0  0  0  0  0  0
  188.2670  178.6550  138.7530 O   0  0  0  0  0  0  0  0  0  0  0  0
  188.1090  177.8060  137.6210 C   0  0  1  0  0  3  0  0  0  0  0  0
  187.8010  178.5650  136.4890 O   0  0  0  0  0  1  0  0  0  0  0  0
  189.3940  177.0210  137.3870 C   0  0  0  0  0  2  0  0  0  0  0  0
  189.2400  176.0610  136.2110 C   0  0  0  0  0  2  0  0  0  0  0  0
  190.1190  174.9080  136.3830 N   0  0  0  0  0  0  0  0  0  0  0  0
  192.3650  174.0160  136.2920 C   0  0  0  0  0  3  0  0  0  0  0  0
  191.5450  175.0510  136.4650 C   0  0  0  0  0  3  0  0  0  0  0  0
  193.8460  174.1650  136.3950 C   0  0  1  0  0  3  0  0  0  0  0  0
  194.4400  172.9420  137.0310 C   0  0  0  0  0  0  0  0  0  0  0  0
  195.0660  173.0550  138.2020 C   0  0  0  0  0  2  0  0  0  0  0  0
  194.1390  171.5790  136.4990 C   0  0  0  0  0  1  0  0  0  0  0  0
  194.4270  174.3860  135.0770 N   0  0  0  0  0  2  0  0  0  0  0  0
  197.3190  176.3890  135.7740 O   0  0  0  0  0  0  0  0  0  0  0  0
  196.1140  176.0790  135.5850 C   0  0  0  0  0  3  0  0  0  0  0  0
  195.7680  174.7330  135.2780 N   0  0  0  0  0  2  0  0  0  0  0  0
  189.5560  173.5830  136.1940 C   0  0  0  0  0  2  0  0  0  0  0  0
  188.1430  173.5150  136.7550 C   0  0  0  0  0  2  0  0  0  0  0  0
  187.8790  172.2300  137.2270 O   0  0  0  0  0  1  0  0  0  0  0  0
  181.4260  179.3780  139.9900 O   0  0  0  0  0  0  0  0  0  0  0  0
  180.1930  179.2540  139.3510 C   0  0  0  0  0  0  0  0  0  0  0  0
  179.3730  180.2940  139.3110 C   0  0  0  0  0  2  0  0  0  0  0  0
  179.7760  177.9690  138.7100 C   0  0  0  0  0  2  0  0  0  0  0  0
  180.6180  176.8070  139.2270 C   0  0  2  0  0  3  0  0  0  0  0  0
  179.9630  174.8100  137.7820 C   0  0  0  0  0  2  0  0  0  0  0  0
  183.3890  176.1820  138.3970 O   0  0  0  0  0  1  0  0  0  0  0  0
  182.3860  175.2120  138.3330 C   0  0  1  0  0  3  0  0  0  0  0  0
  181.0240  175.8700  138.0820 C   0  0  2  0  0  3  0  0  0  0  0  0
  182.9820  174.8160  136.0080 O   0  0  0  0  0  1  0  0  0  0  0  0
  182.7000  174.1910  137.2300 C   0  0  2  0  0  3  0  0  0  0  0  0
  180.4810  173.8930  136.6770 C   0  0  0  0  0  2  0  0  0  0  0  0
  181.6620  173.2370  137.0900 O   0  0  0  0  0  0  0  0  0  0  0  0
  180.0900  174.7190  140.4950 O   0  0  0  0  0  0  0  0  0  0  0  0
  179.2590  176.7310  141.2090 O   0  0  0  0  0  1  0  0  0  0  0  0
  179.9600  176.0970  140.3770 C   0  0  0  0  0  0  0  0  0  0  0  0
  1  2  1  0  0  0  0
  2 12  1  0  0  0  0
  2  3  1  1  0  0  0
  4 19  2  0  0  0  0
  4  8  1  0  0  0  0
  5 15  1  0  0  0  0
  6 18  1  0  0  0  0
  6 24  1  0  0  0  0
  7 11  1  6  0  0  0
  7  6  1  0  0  0  0
  8 11  1  0  0  0  0
  9 14  1  0  0  0  0
  9 13  1  0  0  0  0
 10  1  2  0  0  0  0
 12  5  2  0  0  0  0
 13  1  1  0  0  0  0
 14 19  1  6  0  0  0
 14 17  1  0  0  0  0
 16 12  1  0  0  0  0
 16 18  2  0  0  0  0
 17  7  1  0  0  0  0
 17 16  1  1  0  0  0
 18 15  1  0  0  0  0
 20 24  2  0  0  0  0
 20 23  1  0  0  0  0
 21 22  1  0  0  0  0
 23 21  2  0  0  0  0
 24 25  1  0  0  0  0
 25 22  2  0  0  0  0
 26  4  1  0  0  0  0
 27 28  1  6  0  0  0
 27 26  1  0  0  0  0
 29 27  1  0  0  0  0
 30 31  1  0  0  0  0
 30 29  1  0  0  0  0
 31 33  1  0  0  0  0
 32 33  2  0  0  0  0
 34 32  1  6  0  0  0
 34 35  1  0  0  0  0
 35 36  2  0  0  0  0
 37 35  1  0  0  0  0
 38 41  1  0  0  0  0
 38 34  1  0  0  0  0
 40 39  2  0  0  0  0
 41 40  1  0  0  0  0
 42 31  1  0  0  0  0
 42 43  1  0  0  0  0
 43 44  1  0  0  0  0
 45 10  1  0  0  0  0
 46 45  1  0  0  0  0
 47 46  2  0  0  0  0
 48 46  1  0  0  0  0
 49 48  1  6  0  0  0
 49 60  1  0  0  0  0
 50 53  1  0  0  0  0
 52 51  1  6  0  0  0
 53 52  1  0  0  0  0
 53 49  1  1  0  0  0
 55 54  1  6  0  0  0
 55 52  1  0  0  0  0
 56 57  1  0  0  0  0
 56 50  1  0  0  0  0
 57 55  1  0  0  0  0
 60 58  2  0  0  0  0
 60 59  1  0  0  0  0
M  END
>  <MODEL>
9

>  <REMARK>
 VINA RESULT:      -7.1      2.254      7.387
  Name = 
  19 active torsions:
  status: ('A' for Active; 'I' for Inactive)
    1  A    between atoms: C_1  and  C_12
    2  A    between atoms: N_5  and  C_12
    3  A    between atoms: N_5  and  N_58
    4  A    between atoms: C_8  and  C_32
    5  A    between atoms: C_8  and  C_50
    6  A    between atoms: C_9  and  C_12
    7  A    between atoms: C_10  and  O_57
    8  A    between atoms: N_15  and  C_51
    9  A    between atoms: C_16  and  C_42
   10  A    between atoms: O_18  and  N_27
   11  A    between atoms: O_18  and  C_32
   12  A    between atoms: C_19  and  C_49
   13  A    between atoms: C_19  and  O_57
   14  A    between atoms: N_24  and  C_37
   15  A    between atoms: N_24  and  C_38
   16  A    between atoms: N_24  and  C_42
   17  A    between atoms: C_28  and  C_50
   18  A    between atoms: C_36  and  C_50
   19  A    between atoms: C_37  and  C_49
                            x       y       z     vdW  Elec       q    Type
                         _______ _______ _______ _____ _____    ______ ____

>  <TORSDO>
F 19

$$$$
