=
 OpenBabel10222419353D

 39 40  0  0  1  0  0  0  0  0999 V2000
  188.6900  177.2170  138.1300 C   0  0  1  0  0  3  0  0  0  0  0  0
  188.9480  178.7040  138.3130 C   0  0  0  0  0  1  0  0  0  0  0  0
  190.5150  175.6680  138.4930 O   0  0  0  0  0  1  0  0  0  0  0  0
  189.5220  176.4210  139.1350 C   0  0  1  0  0  3  0  0  0  0  0  0
  190.1350  177.3050  140.2150 C   0  0  0  0  0  2  0  0  0  0  0  0
  190.2660  177.2910  142.7330 C   0  0  0  0  0  0  0  0  0  0  0  0
  190.4320  176.5440  143.9420 N   0  0  0  0  0  2  0  0  0  0  0  0
  190.1940  178.5510  142.7610 O   0  0  0  0  0  0  0  0  0  0  0  0
  190.2210  176.5990  141.4840 N   0  0  0  0  0  2  0  0  0  0  0  0
  188.9830  177.3350  145.7820 C   0  0  0  0  0  0  0  0  0  0  0  0
  190.1630  177.0300  145.2650 C   0  0  1  0  0  3  0  0  0  0  0  0
  187.7110  177.2880  145.2040 C   0  0  0  0  0  3  0  0  0  0  0  0
  189.1580  177.6950  147.0950 C   0  0  0  0  0  0  0  0  0  0  0  0
  186.6080  177.6470  145.9970 C   0  0  0  0  0  3  0  0  0  0  0  0
  191.1970  177.1930  146.3420 C   0  0  1  0  0  3  0  0  0  0  0  0
  186.7930  178.0330  147.3400 C   0  0  0  0  0  3  0  0  0  0  0  0
  188.0790  178.0570  147.9030 C   0  0  0  0  0  3  0  0  0  0  0  0
  190.3890  177.6400  147.4810 N   0  0  0  0  0  2  0  0  0  0  0  0
  191.8590  175.8940  146.6750 C   0  0  0  0  0  3  0  0  0  0  0  0
  193.0460  175.5510  148.8990 O   0  0  0  0  0  0  0  0  0  0  0  0
  192.4680  175.7210  147.8160 C   0  0  0  0  0  0  0  0  0  0  0  0
  187.2680  176.9390  138.2970 N   0  0  0  0  0  2  0  0  0  0  0  0
  186.5630  178.2130  138.3440 C   0  0  1  0  0  3  0  0  0  0  0  0
  185.6740  178.2920  137.2700 O   0  0  0  0  0  1  0  0  0  0  0  0
  185.7970  178.3340  139.6590 C   0  0  2  0  0  3  0  0  0  0  0  0
  184.5330  180.3410  139.1300 O   0  0  0  0  0  1  0  0  0  0  0  0
  183.2910  177.0690  139.7820 O   0  0  0  0  0  0  0  0  0  0  0  0
  184.5270  179.0260  139.4550 N   0  0  0  0  0  0  0  0  0  0  0  0
  183.2870  178.3230  139.6440 C   0  0  0  0  0  0  0  0  0  0  0  0
  181.9700  179.0420  139.6870 C   0  0  1  0  0  3  0  0  0  0  0  0
  181.3170  178.9860  138.4540 O   0  0  0  0  0  1  0  0  0  0  0  0
  181.0680  178.5420  140.8140 C   0  0  0  0  0  2  0  0  0  0  0  0
  181.6170  178.8240  142.0690 O   0  0  0  0  0  0  0  0  0  0  0  0
  180.0740  178.3870  143.8220 C   0  0  0  0  0  1  0  0  0  0  0  0
  180.5700  179.3890  142.8010 C   0  0  0  0  0  2  0  0  0  0  0  0
  186.5950  179.0560  140.6440 N   0  0  0  0  0  2  0  0  0  0  0  0
  186.6580  178.2300  141.8400 C   0  0  0  0  0  2  0  0  0  0  0  0
  185.3050  178.2070  142.5270 C   0  0  0  0  0  2  0  0  0  0  0  0
  185.0690  179.4320  143.1520 O   0  0  0  0  0  1  0  0  0  0  0  0
  1 22  1  0  0  0  0
  1  2  1  1  0  0  0
  1  4  1  0  0  0  0
  4  3  1  6  0  0  0
  4  5  1  0  0  0  0
  5  9  1  0  0  0  0
  6  8  2  0  0  0  0
  6  7  1  0  0  0  0
  9  6  1  0  0  0  0
 10 13  1  0  0  0  0
 11  7  1  1  0  0  0
 11 10  1  0  0  0  0
 11 15  1  0  0  0  0
 12 10  2  0  0  0  0
 12 14  1  0  0  0  0
 13 18  1  0  0  0  0
 13 17  2  0  0  0  0
 14 16  2  0  0  0  0
 15 19  1  1  0  0  0
 15 18  1  0  0  0  0
 16 17  1  0  0  0  0
 19 21  2  0  0  0  0
 21 20  2  0  0  0  0
 22 23  1  0  0  0  0
 23 24  1  6  0  0  0
 23 25  1  0  0  0  0
 25 36  1  1  0  0  0
 26 28  1  0  0  0  0
 28 29  1  0  0  0  0
 28 25  1  0  0  0  0
 29 30  1  0  0  0  0
 29 27  2  0  0  0  0
 30 31  1  6  0  0  0
 30 32  1  0  0  0  0
 32 33  1  0  0  0  0
 33 35  1  0  0  0  0
 35 34  1  0  0  0  0
 36 37  1  0  0  0  0
 37 38  1  0  0  0  0
 38 39  1  0  0  0  0
M  END
>  <MODEL>
1

>  <REMARK>
 VINA RESULT:      -7.3      0.000      0.000
  Name = 
  16 active torsions:
  status: ('A' for Active; 'I' for Inactive)
    1  A    between atoms: C_1  and  C_19
    2  A    between atoms: C_1  and  N_35
    3  A    between atoms: C_3  and  C_25
    4  A    between atoms: C_4  and  N_14
    5  A    between atoms: C_11  and  O_32
    6  A    between atoms: N_13  and  C_23
    7  A    between atoms: N_13  and  C_27
    8  A    between atoms: C_15  and  C_19
    9  A    between atoms: C_15  and  N_34
   10  A    between atoms: N_18  and  C_27
   11  A    between atoms: C_22  and  C_27
   12  A    between atoms: C_22  and  N_34
   13  A    between atoms: C_23  and  C_24
   14  A    between atoms: C_26  and  C_28
   15  A    between atoms: C_26  and  C_38
   16  A    between atoms: C_28  and  O_32
                            x       y       z     vdW  Elec       q    Type
                         _______ _______ _______ _____ _____    ______ ____

>  <TORSDO>
F 16

$$$$
=
 OpenBabel10222419353D

 39 40  0  0  1  0  0  0  0  0999 V2000
  189.5150  177.9030  137.7000 C   0  0  1  0  0  3  0  0  0  0  0  0
  189.0500  179.2650  137.2150 C   0  0  0  0  0  1  0  0  0  0  0  0
  188.3800  177.3450  139.7640 O   0  0  0  0  0  1  0  0  0  0  0  0
  189.5560  177.8850  139.2280 C   0  0  1  0  0  3  0  0  0  0  0  0
  190.7770  177.1510  139.7690 C   0  0  0  0  0  2  0  0  0  0  0  0
  190.5660  177.0960  142.2810 C   0  0  0  0  0  0  0  0  0  0  0  0
  190.3220  176.3360  143.4690 N   0  0  0  0  0  2  0  0  0  0  0  0
  190.8980  178.3120  142.3540 O   0  0  0  0  0  0  0  0  0  0  0  0
  190.4650  176.4560  141.0090 N   0  0  0  0  0  2  0  0  0  0  0  0
  188.8700  177.2000  145.2740 C   0  0  0  0  0  0  0  0  0  0  0  0
  190.0520  176.8830  144.7680 C   0  0  1  0  0  3  0  0  0  0  0  0
  187.5970  177.1090  144.7040 C   0  0  0  0  0  3  0  0  0  0  0  0
  189.0450  177.6260  146.5670 C   0  0  0  0  0  0  0  0  0  0  0  0
  186.4920  177.4930  145.4830 C   0  0  0  0  0  3  0  0  0  0  0  0
  191.0870  177.1110  145.8310 C   0  0  1  0  0  3  0  0  0  0  0  0
  186.6770  177.9470  146.8040 C   0  0  0  0  0  3  0  0  0  0  0  0
  187.9650  178.0140  147.3610 C   0  0  0  0  0  3  0  0  0  0  0  0
  190.2790  177.6040  146.9500 N   0  0  0  0  0  2  0  0  0  0  0  0
  191.7660  175.8380  146.2250 C   0  0  0  0  0  3  0  0  0  0  0  0
  192.9360  175.6080  148.4730 O   0  0  0  0  0  0  0  0  0  0  0  0
  192.3670  175.7230  147.3780 C   0  0  0  0  0  0  0  0  0  0  0  0
  188.6240  176.8660  137.1930 N   0  0  0  0  0  2  0  0  0  0  0  0
  187.5890  177.5140  136.3970 C   0  0  1  0  0  3  0  0  0  0  0  0
  187.9260  177.4370  135.0430 O   0  0  0  0  0  1  0  0  0  0  0  0
  186.2460  176.8280  136.6340 C   0  0  2  0  0  3  0  0  0  0  0  0
  185.9360  178.5840  138.2840 O   0  0  0  0  0  1  0  0  0  0  0  0
  183.4390  176.7240  136.5580 O   0  0  0  0  0  0  0  0  0  0  0  0
  185.3800  177.6600  137.4640 N   0  0  0  0  0  0  0  0  0  0  0  0
  183.9560  177.4640  137.4390 C   0  0  0  0  0  0  0  0  0  0  0  0
  183.0510  178.1170  138.4430 C   0  0  1  0  0  3  0  0  0  0  0  0
  181.7450  178.2270  137.9590 O   0  0  0  0  0  1  0  0  0  0  0  0
  183.0810  177.4160  139.8000 C   0  0  0  0  0  2  0  0  0  0  0  0
  182.7810  178.3010  140.8390 O   0  0  0  0  0  0  0  0  0  0  0  0
  184.6540  178.1680  142.2940 C   0  0  0  0  0  1  0  0  0  0  0  0
  183.9950  178.9140  141.1530 C   0  0  0  0  0  2  0  0  0  0  0  0
  186.4460  175.5340  137.2780 N   0  0  0  0  0  2  0  0  0  0  0  0
  186.0520  174.5090  136.3230 C   0  0  0  0  0  2  0  0  0  0  0  0
  187.2670  173.7130  135.8840 C   0  0  0  0  0  2  0  0  0  0  0  0
  187.2470  172.4510  136.4780 O   0  0  0  0  0  1  0  0  0  0  0  0
  1  2  1  1  0  0  0
  1  4  1  0  0  0  0
  4  3  1  1  0  0  0
  4  5  1  0  0  0  0
  5  9  1  0  0  0  0
  6  8  2  0  0  0  0
  6  7  1  0  0  0  0
  9  6  1  0  0  0  0
 10 13  1  0  0  0  0
 11  7  1  1  0  0  0
 11 10  1  0  0  0  0
 11 15  1  0  0  0  0
 12 10  2  0  0  0  0
 12 14  1  0  0  0  0
 13 18  1  0  0  0  0
 13 17  2  0  0  0  0
 14 16  2  0  0  0  0
 15 19  1  1  0  0  0
 15 18  1  0  0  0  0
 16 17  1  0  0  0  0
 19 21  2  0  0  0  0
 21 20  2  0  0  0  0
 22  1  1  0  0  0  0
 23 24  1  6  0  0  0
 23 25  1  0  0  0  0
 23 22  1  0  0  0  0
 25 36  1  1  0  0  0
 25 28  1  0  0  0  0
 27 29  2  0  0  0  0
 28 26  1  0  0  0  0
 29 28  1  0  0  0  0
 29 30  1  0  0  0  0
 30 31  1  6  0  0  0
 30 32  1  0  0  0  0
 32 33  1  0  0  0  0
 33 35  1  0  0  0  0
 35 34  1  0  0  0  0
 37 36  1  0  0  0  0
 38 37  1  0  0  0  0
 38 39  1  0  0  0  0
M  END
>  <MODEL>
2

>  <REMARK>
 VINA RESULT:      -7.1      1.879      3.063
  Name = 
  16 active torsions:
  status: ('A' for Active; 'I' for Inactive)
    1  A    between atoms: C_1  and  C_19
    2  A    between atoms: C_1  and  N_35
    3  A    between atoms: C_3  and  C_25
    4  A    between atoms: C_4  and  N_14
    5  A    between atoms: C_11  and  O_32
    6  A    between atoms: N_13  and  C_23
    7  A    between atoms: N_13  and  C_27
    8  A    between atoms: C_15  and  C_19
    9  A    between atoms: C_15  and  N_34
   10  A    between atoms: N_18  and  C_27
   11  A    between atoms: C_22  and  C_27
   12  A    between atoms: C_22  and  N_34
   13  A    between atoms: C_23  and  C_24
   14  A    between atoms: C_26  and  C_28
   15  A    between atoms: C_26  and  C_38
   16  A    between atoms: C_28  and  O_32
                            x       y       z     vdW  Elec       q    Type
                         _______ _______ _______ _____ _____    ______ ____

>  <TORSDO>
F 16

$$$$
=
 OpenBabel10222419353D

 39 40  0  0  1  0  0  0  0  0999 V2000
  189.5780  176.5020  138.0640 C   0  0  1  0  0  3  0  0  0  0  0  0
  190.2370  175.3410  137.3370 C   0  0  0  0  0  1  0  0  0  0  0  0
  191.5970  177.0830  139.2670 O   0  0  0  0  0  1  0  0  0  0  0  0
  190.2540  176.7140  139.4180 C   0  0  1  0  0  3  0  0  0  0  0  0
  189.5150  177.7270  140.2850 C   0  0  0  0  0  2  0  0  0  0  0  0
  188.5260  177.5070  142.5940 C   0  0  0  0  0  0  0  0  0  0  0  0
  187.7120  176.7630  143.5070 N   0  0  0  0  0  2  0  0  0  0  0  0
  189.1620  178.5250  142.9830 O   0  0  0  0  0  0  0  0  0  0  0  0
  188.6420  177.0630  141.2410 N   0  0  0  0  0  2  0  0  0  0  0  0
  187.9180  177.4080  145.8840 C   0  0  0  0  0  0  0  0  0  0  0  0
  187.2250  177.2420  144.7680 C   0  0  1  0  0  3  0  0  0  0  0  0
  189.2690  177.1610  146.1450 C   0  0  0  0  0  3  0  0  0  0  0  0
  187.0930  177.9500  146.8390 C   0  0  0  0  0  0  0  0  0  0  0  0
  189.7610  177.4570  147.4280 C   0  0  0  0  0  3  0  0  0  0  0  0
  185.8260  177.7310  145.0150 C   0  0  1  0  0  3  0  0  0  0  0  0
  188.9070  177.9950  148.4110 C   0  0  0  0  0  3  0  0  0  0  0  0
  187.5570  178.2510  148.1200 C   0  0  0  0  0  3  0  0  0  0  0  0
  185.8900  178.1570  146.4160 N   0  0  0  0  0  2  0  0  0  0  0  0
  185.4880  178.9020  144.1480 C   0  0  0  0  0  3  0  0  0  0  0  0
  183.5690  178.7970  142.4810 O   0  0  0  0  0  0  0  0  0  0  0  0
  184.5040  178.8450  143.2930 C   0  0  0  0  0  0  0  0  0  0  0  0
  189.6620  177.7080  137.2470 N   0  0  0  0  0  2  0  0  0  0  0  0
  188.4240  177.8220  136.4870 C   0  0  1  0  0  3  0  0  0  0  0  0
  188.4700  176.9590  135.3900 O   0  0  0  0  0  1  0  0  0  0  0  0
  187.2340  177.4660  137.3750 C   0  0  2  0  0  3  0  0  0  0  0  0
  185.4220  177.5130  135.7570 O   0  0  0  0  0  1  0  0  0  0  0  0
  186.8020  174.6910  137.4310 O   0  0  0  0  0  0  0  0  0  0  0  0
  186.1960  176.7900  136.6010 N   0  0  0  0  0  0  0  0  0  0  0  0
  185.9760  175.3800  136.7740 C   0  0  0  0  0  0  0  0  0  0  0  0
  184.7740  174.6920  136.1930 C   0  0  1  0  0  3  0  0  0  0  0  0
  185.1090  173.4480  135.6540 O   0  0  0  0  0  1  0  0  0  0  0  0
  183.6290  174.5710  137.1970 C   0  0  0  0  0  2  0  0  0  0  0  0
  182.5350  175.3550  136.8190 O   0  0  0  0  0  0  0  0  0  0  0  0
  182.5610  175.7020  139.1690 C   0  0  0  0  0  1  0  0  0  0  0  0
  181.7160  175.4010  137.9500 C   0  0  0  0  0  2  0  0  0  0  0  0
  186.6840  178.6700  137.9870 N   0  0  0  0  0  2  0  0  0  0  0  0
  185.9330  178.2540  139.1620 C   0  0  0  0  0  2  0  0  0  0  0  0
  184.5320  178.8370  139.1170 C   0  0  0  0  0  2  0  0  0  0  0  0
  184.6000  180.2270  139.0170 O   0  0  0  0  0  1  0  0  0  0  0  0
  1  2  1  6  0  0  0
  1  4  1  0  0  0  0
  4  3  1  6  0  0  0
  4  5  1  0  0  0  0
  5  9  1  0  0  0  0
  6  8  2  0  0  0  0
  6  7  1  0  0  0  0
  9  6  1  0  0  0  0
 10 12  2  0  0  0  0
 10 13  1  0  0  0  0
 11  7  1  6  0  0  0
 11 15  1  0  0  0  0
 11 10  1  0  0  0  0
 12 14  1  0  0  0  0
 13 17  2  0  0  0  0
 14 16  2  0  0  0  0
 15 19  1  6  0  0  0
 15 18  1  0  0  0  0
 17 16  1  0  0  0  0
 18 13  1  0  0  0  0
 20 21  2  0  0  0  0
 21 19  2  0  0  0  0
 22  1  1  0  0  0  0
 23 24  1  6  0  0  0
 23 22  1  0  0  0  0
 23 25  1  0  0  0  0
 25 36  1  6  0  0  0
 26 28  1  0  0  0  0
 28 29  1  0  0  0  0
 28 25  1  0  0  0  0
 29 27  2  0  0  0  0
 30 31  1  1  0  0  0
 30 29  1  0  0  0  0
 30 32  1  0  0  0  0
 33 32  1  0  0  0  0
 33 35  1  0  0  0  0
 35 34  1  0  0  0  0
 36 37  1  0  0  0  0
 38 37  1  0  0  0  0
 39 38  1  0  0  0  0
M  END
>  <MODEL>
3

>  <REMARK>
 VINA RESULT:      -6.9      2.522      4.593
  Name = 
  16 active torsions:
  status: ('A' for Active; 'I' for Inactive)
    1  A    between atoms: C_1  and  C_19
    2  A    between atoms: C_1  and  N_35
    3  A    between atoms: C_3  and  C_25
    4  A    between atoms: C_4  and  N_14
    5  A    between atoms: C_11  and  O_32
    6  A    between atoms: N_13  and  C_23
    7  A    between atoms: N_13  and  C_27
    8  A    between atoms: C_15  and  C_19
    9  A    between atoms: C_15  and  N_34
   10  A    between atoms: N_18  and  C_27
   11  A    between atoms: C_22  and  C_27
   12  A    between atoms: C_22  and  N_34
   13  A    between atoms: C_23  and  C_24
   14  A    between atoms: C_26  and  C_28
   15  A    between atoms: C_26  and  C_38
   16  A    between atoms: C_28  and  O_32
                            x       y       z     vdW  Elec       q    Type
                         _______ _______ _______ _____ _____    ______ ____

>  <TORSDO>
F 16

$$$$
=
 OpenBabel10222419353D

 39 40  0  0  1  0  0  0  0  0999 V2000
  187.9530  177.9000  137.9160 C   0  0  1  0  0  3  0  0  0  0  0  0
  189.0510  178.7310  137.2730 C   0  0  0  0  0  1  0  0  0  0  0  0
  187.4930  175.7580  136.8860 O   0  0  0  0  0  1  0  0  0  0  0  0
  187.1930  177.1260  136.8390 C   0  0  1  0  0  3  0  0  0  0  0  0
  185.6880  177.3470  136.9150 C   0  0  0  0  0  2  0  0  0  0  0  0
  184.2630  178.0780  138.8640 C   0  0  0  0  0  0  0  0  0  0  0  0
  183.9310  179.0890  139.8210 N   0  0  0  0  0  2  0  0  0  0  0  0
  183.5860  177.0150  138.7910 O   0  0  0  0  0  0  0  0  0  0  0  0
  185.3490  178.2990  137.9630 N   0  0  0  0  0  2  0  0  0  0  0  0
  183.5140  178.9220  142.2520 C   0  0  0  0  0  0  0  0  0  0  0  0
  183.1190  178.8960  140.9880 C   0  0  1  0  0  3  0  0  0  0  0  0
  184.7890  179.1220  142.7890 C   0  0  0  0  0  3  0  0  0  0  0  0
  182.4150  178.7610  143.0590 C   0  0  0  0  0  0  0  0  0  0  0  0
  184.9250  179.1280  144.1880 C   0  0  0  0  0  3  0  0  0  0  0  0
  181.6290  178.7150  140.9720 C   0  0  1  0  0  3  0  0  0  0  0  0
  183.7980  178.9450  145.0140 C   0  0  0  0  0  3  0  0  0  0  0  0
  182.5250  178.7620  144.4500 C   0  0  0  0  0  3  0  0  0  0  0  0
  181.3110  178.6360  142.4010 N   0  0  0  0  0  2  0  0  0  0  0  0
  180.9350  179.8950  140.3680 C   0  0  0  0  0  3  0  0  0  0  0  0
  180.1200  179.8540  137.9580 O   0  0  0  0  0  0  0  0  0  0  0  0
  180.5190  179.8720  139.1310 C   0  0  0  0  0  0  0  0  0  0  0  0
  188.5320  176.9900  138.8980 N   0  0  0  0  0  2  0  0  0  0  0  0
  188.9310  177.7770  140.0580 C   0  0  1  0  0  3  0  0  0  0  0  0
  187.8450  177.9060  140.9270 O   0  0  0  0  0  1  0  0  0  0  0  0
  190.0890  177.0900  140.7780 C   0  0  2  0  0  3  0  0  0  0  0  0
  189.9090  178.6910  142.5970 O   0  0  0  0  0  1  0  0  0  0  0  0
  190.2490  175.1540  142.8070 O   0  0  0  0  0  0  0  0  0  0  0  0
  190.0710  177.4050  142.2040 N   0  0  0  0  0  0  0  0  0  0  0  0
  190.2670  176.3610  143.1730 C   0  0  0  0  0  0  0  0  0  0  0  0
  190.5000  176.6640  144.6240 C   0  0  1  0  0  3  0  0  0  0  0  0
  191.5300  177.5920  144.7930 O   0  0  0  0  0  1  0  0  0  0  0  0
  189.2270  177.1140  145.3390 C   0  0  0  0  0  2  0  0  0  0  0  0
  189.5040  178.0710  146.3200 O   0  0  0  0  0  0  0  0  0  0  0  0
  187.2100  177.7760  146.8610 C   0  0  0  0  0  1  0  0  0  0  0  0
  188.6350  177.7720  147.3710 C   0  0  0  0  0  2  0  0  0  0  0  0
  191.3610  177.5090  140.2000 N   0  0  0  0  0  2  0  0  0  0  0  0
  191.7000  176.5510  139.1580 C   0  0  0  0  0  2  0  0  0  0  0  0
  193.1250  176.7770  138.6880 C   0  0  0  0  0  2  0  0  0  0  0  0
  193.9310  177.1370  139.7690 O   0  0  0  0  0  1  0  0  0  0  0  0
  1  2  1  6  0  0  0
  1 22  1  0  0  0  0
  4  3  1  1  0  0  0
  4  5  1  0  0  0  0
  4  1  1  0  0  0  0
  5  9  1  0  0  0  0
  6  7  1  0  0  0  0
  8  6  2  0  0  0  0
  9  6  1  0  0  0  0
 10 12  2  0  0  0  0
 10 13  1  0  0  0  0
 11  7  1  1  0  0  0
 11 10  1  0  0  0  0
 12 14  1  0  0  0  0
 13 17  2  0  0  0  0
 14 16  2  0  0  0  0
 15 19  1  1  0  0  0
 15 11  1  0  0  0  0
 15 18  1  0  0  0  0
 17 16  1  0  0  0  0
 18 13  1  0  0  0  0
 20 21  2  0  0  0  0
 21 19  2  0  0  0  0
 22 23  1  0  0  0  0
 23 25  1  0  0  0  0
 23 24  1  1  0  0  0
 25 36  1  6  0  0  0
 25 28  1  0  0  0  0
 27 29  2  0  0  0  0
 28 26  1  0  0  0  0
 28 29  1  0  0  0  0
 29 30  1  0  0  0  0
 30 31  1  6  0  0  0
 30 32  1  0  0  0  0
 32 33  1  0  0  0  0
 33 35  1  0  0  0  0
 34 35  1  0  0  0  0
 37 36  1  0  0  0  0
 38 37  1  0  0  0  0
 38 39  1  0  0  0  0
M  END
>  <MODEL>
4

>  <REMARK>
 VINA RESULT:      -6.7      2.257      8.084
  Name = 
  16 active torsions:
  status: ('A' for Active; 'I' for Inactive)
    1  A    between atoms: C_1  and  C_19
    2  A    between atoms: C_1  and  N_35
    3  A    between atoms: C_3  and  C_25
    4  A    between atoms: C_4  and  N_14
    5  A    between atoms: C_11  and  O_32
    6  A    between atoms: N_13  and  C_23
    7  A    between atoms: N_13  and  C_27
    8  A    between atoms: C_15  and  C_19
    9  A    between atoms: C_15  and  N_34
   10  A    between atoms: N_18  and  C_27
   11  A    between atoms: C_22  and  C_27
   12  A    between atoms: C_22  and  N_34
   13  A    between atoms: C_23  and  C_24
   14  A    between atoms: C_26  and  C_28
   15  A    between atoms: C_26  and  C_38
   16  A    between atoms: C_28  and  O_32
                            x       y       z     vdW  Elec       q    Type
                         _______ _______ _______ _____ _____    ______ ____

>  <TORSDO>
F 16

$$$$
=
 OpenBabel10222419353D

 39 40  0  0  1  0  0  0  0  0999 V2000
  189.6620  177.2310  137.8970 C   0  0  1  0  0  3  0  0  0  0  0  0
  189.2240  178.6370  138.2720 C   0  0  0  0  0  1  0  0  0  0  0  0
  191.8470  176.5180  138.6550 O   0  0  0  0  0  1  0  0  0  0  0  0
  190.5010  176.6330  139.0260 C   0  0  1  0  0  3  0  0  0  0  0  0
  190.3700  177.4150  140.3270 C   0  0  0  0  0  2  0  0  0  0  0  0
  189.2000  177.2590  142.5550 C   0  0  0  0  0  0  0  0  0  0  0  0
  188.4680  176.4670  143.4970 N   0  0  0  0  0  2  0  0  0  0  0  0
  189.5530  178.4360  142.8440 O   0  0  0  0  0  0  0  0  0  0  0  0
  189.5600  176.6920  141.2950 N   0  0  0  0  0  2  0  0  0  0  0  0
  188.2460  177.2730  145.8230 C   0  0  0  0  0  0  0  0  0  0  0  0
  187.7520  176.9730  144.6320 C   0  0  1  0  0  3  0  0  0  0  0  0
  189.5560  177.1720  146.3020 C   0  0  0  0  0  3  0  0  0  0  0  0
  187.2390  177.7900  146.6000 C   0  0  0  0  0  0  0  0  0  0  0  0
  189.8150  177.5910  147.6180 C   0  0  0  0  0  3  0  0  0  0  0  0
  186.2960  177.3400  144.6300 C   0  0  1  0  0  3  0  0  0  0  0  0
  188.7750  178.1040  148.4190 C   0  0  0  0  0  3  0  0  0  0  0  0
  187.4710  178.2110  147.9100 C   0  0  0  0  0  3  0  0  0  0  0  0
  186.1040  177.8550  145.9880 N   0  0  0  0  0  2  0  0  0  0  0  0
  185.9980  178.4180  143.6360 C   0  0  0  0  0  3  0  0  0  0  0  0
  183.9230  178.3220  142.1670 O   0  0  0  0  0  0  0  0  0  0  0  0
  184.9340  178.3660  142.8830 C   0  0  0  0  0  0  0  0  0  0  0  0
  188.4900  176.4040  137.6280 N   0  0  0  0  0  2  0  0  0  0  0  0
  187.6580  177.1070  136.6610 C   0  0  1  0  0  3  0  0  0  0  0  0
  188.2160  176.9790  135.3870 O   0  0  0  0  0  1  0  0  0  0  0  0
  186.2470  176.5210  136.6670 C   0  0  2  0  0  3  0  0  0  0  0  0
  185.8340  178.1080  138.4600 O   0  0  0  0  0  1  0  0  0  0  0  0
  183.5110  176.8070  136.0970 O   0  0  0  0  0  0  0  0  0  0  0  0
  185.3410  177.3650  137.4400 N   0  0  0  0  0  0  0  0  0  0  0  0
  183.9340  177.3680  137.1450 C   0  0  0  0  0  0  0  0  0  0  0  0
  182.9360  178.0210  138.0570 C   0  0  1  0  0  3  0  0  0  0  0  0
  181.8710  178.5710  137.3400 O   0  0  0  0  0  1  0  0  0  0  0  0
  182.4380  177.0770  139.1500 C   0  0  0  0  0  2  0  0  0  0  0  0
  181.1290  176.6560  138.9030 O   0  0  0  0  0  0  0  0  0  0  0  0
  179.9870  174.6030  139.2530 C   0  0  0  0  0  1  0  0  0  0  0  0
  181.2250  175.2780  138.7020 C   0  0  0  0  0  2  0  0  0  0  0  0
  186.2630  175.1750  137.2290 N   0  0  0  0  0  2  0  0  0  0  0  0
  185.9040  174.2550  136.1600 C   0  0  0  0  0  2  0  0  0  0  0  0
  184.8870  173.2470  136.6610 C   0  0  0  0  0  2  0  0  0  0  0  0
  185.1430  172.9380  137.9970 O   0  0  0  0  0  1  0  0  0  0  0  0
  1  2  1  1  0  0  0
  1  4  1  0  0  0  0
  4  3  1  6  0  0  0
  4  5  1  0  0  0  0
  5  9  1  0  0  0  0
  6  8  2  0  0  0  0
  6  7  1  0  0  0  0
  9  6  1  0  0  0  0
 10 12  2  0  0  0  0
 10 13  1  0  0  0  0
 11  7  1  6  0  0  0
 11 10  1  0  0  0  0
 12 14  1  0  0  0  0
 13 17  2  0  0  0  0
 14 16  2  0  0  0  0
 15 19  1  6  0  0  0
 15 11  1  0  0  0  0
 15 18  1  0  0  0  0
 17 16  1  0  0  0  0
 18 13  1  0  0  0  0
 20 21  2  0  0  0  0
 21 19  2  0  0  0  0
 22  1  1  0  0  0  0
 23 24  1  6  0  0  0
 23 25  1  0  0  0  0
 23 22  1  0  0  0  0
 25 36  1  1  0  0  0
 25 28  1  0  0  0  0
 27 29  2  0  0  0  0
 28 26  1  0  0  0  0
 29 28  1  0  0  0  0
 29 30  1  0  0  0  0
 30 31  1  6  0  0  0
 30 32  1  0  0  0  0
 33 32  1  0  0  0  0
 35 33  1  0  0  0  0
 35 34  1  0  0  0  0
 37 38  1  0  0  0  0
 37 36  1  0  0  0  0
 38 39  1  0  0  0  0
M  END
>  <MODEL>
5

>  <REMARK>
 VINA RESULT:      -6.7      2.490      4.341
  Name = 
  16 active torsions:
  status: ('A' for Active; 'I' for Inactive)
    1  A    between atoms: C_1  and  C_19
    2  A    between atoms: C_1  and  N_35
    3  A    between atoms: C_3  and  C_25
    4  A    between atoms: C_4  and  N_14
    5  A    between atoms: C_11  and  O_32
    6  A    between atoms: N_13  and  C_23
    7  A    between atoms: N_13  and  C_27
    8  A    between atoms: C_15  and  C_19
    9  A    between atoms: C_15  and  N_34
   10  A    between atoms: N_18  and  C_27
   11  A    between atoms: C_22  and  C_27
   12  A    between atoms: C_22  and  N_34
   13  A    between atoms: C_23  and  C_24
   14  A    between atoms: C_26  and  C_28
   15  A    between atoms: C_26  and  C_38
   16  A    between atoms: C_28  and  O_32
                            x       y       z     vdW  Elec       q    Type
                         _______ _______ _______ _____ _____    ______ ____

>  <TORSDO>
F 16

$$$$
=
 OpenBabel10222419353D

 39 40  0  0  1  0  0  0  0  0999 V2000
  184.8900  178.2510  140.3560 C   0  0  1  0  0  3  0  0  0  0  0  0
  183.6570  177.9390  141.1870 C   0  0  0  0  0  1  0  0  0  0  0  0
  184.4710  180.3280  139.1860 O   0  0  0  0  0  1  0  0  0  0  0  0
  184.4770  178.9330  139.0530 C   0  0  1  0  0  3  0  0  0  0  0  0
  185.3460  178.5120  137.8740 C   0  0  0  0  0  2  0  0  0  0  0  0
  187.5340  177.2800  137.6380 C   0  0  0  0  0  0  0  0  0  0  0  0
  188.3450  176.1550  137.9910 N   0  0  0  0  0  2  0  0  0  0  0  0
  187.9290  178.1110  136.7740 O   0  0  0  0  0  0  0  0  0  0  0  0
  186.2520  177.4350  138.2470 N   0  0  0  0  0  2  0  0  0  0  0  0
  190.7420  176.4820  138.4990 C   0  0  0  0  0  0  0  0  0  0  0  0
  189.7530  176.0320  137.7420 C   0  0  1  0  0  3  0  0  0  0  0  0
  190.7000  177.1910  139.7020 C   0  0  0  0  0  3  0  0  0  0  0  0
  191.9350  176.0950  137.9380 C   0  0  0  0  0  0  0  0  0  0  0  0
  191.9180  177.5250  140.3180 C   0  0  0  0  0  3  0  0  0  0  0  0
  190.3550  175.2740  136.5940 C   0  0  1  0  0  3  0  0  0  0  0  0
  193.1410  177.1430  139.7310 C   0  0  0  0  0  3  0  0  0  0  0  0
  193.1570  176.4170  138.5290 C   0  0  0  0  0  3  0  0  0  0  0  0
  191.7910  175.4080  136.8540 N   0  0  0  0  0  2  0  0  0  0  0  0
  189.9720  173.8280  136.6240 C   0  0  0  0  0  3  0  0  0  0  0  0
  187.7690  173.0280  135.6330 O   0  0  0  0  0  0  0  0  0  0  0  0
  188.8410  173.4210  136.1160 C   0  0  0  0  0  0  0  0  0  0  0  0
  185.7990  179.0990  141.1210 N   0  0  0  0  0  2  0  0  0  0  0  0
  187.0100  178.3340  141.3860 C   0  0  1  0  0  3  0  0  0  0  0  0
  188.0930  178.9400  140.7440 O   0  0  0  0  0  1  0  0  0  0  0  0
  187.2690  178.2760  142.8900 C   0  0  2  0  0  3  0  0  0  0  0  0
  187.7520  175.9160  143.2080 O   0  0  0  0  0  1  0  0  0  0  0  0
  190.0000  178.6670  143.4180 O   0  0  0  0  0  0  0  0  0  0  0  0
  188.1960  177.1950  143.2130 N   0  0  0  0  0  0  0  0  0  0  0  0
  189.5540  177.4980  143.5760 C   0  0  0  0  0  0  0  0  0  0  0  0
  190.4690  176.4560  144.1500 C   0  0  1  0  0  3  0  0  0  0  0  0
  191.3020  175.9120  143.1690 O   0  0  0  0  0  1  0  0  0  0  0  0
  191.2790  176.9770  145.3360 C   0  0  0  0  0  2  0  0  0  0  0  0
  190.4460  177.3770  146.3850 O   0  0  0  0  0  0  0  0  0  0  0  0
  192.0560  176.0420  147.5100 C   0  0  0  0  0  1  0  0  0  0  0  0
  190.5910  176.3860  147.3580 C   0  0  0  0  0  2  0  0  0  0  0  0
  186.0150  178.0780  143.6100 N   0  0  0  0  0  2  0  0  0  0  0  0
  186.2920  178.2780  145.0240 C   0  0  0  0  0  2  0  0  0  0  0  0
  185.0050  178.5870  145.7670 C   0  0  0  0  0  2  0  0  0  0  0  0
  183.9660  178.7780  144.8560 O   0  0  0  0  0  1  0  0  0  0  0  0
  1 22  1  0  0  0  0
  1  2  1  1  0  0  0
  4  3  1  1  0  0  0
  4  1  1  0  0  0  0
  5  9  1  0  0  0  0
  5  4  1  0  0  0  0
  6  7  1  0  0  0  0
  6  9  1  0  0  0  0
  8  6  2  0  0  0  0
 10 12  1  0  0  0  0
 11  7  1  1  0  0  0
 11 10  1  0  0  0  0
 12 14  2  0  0  0  0
 13 10  2  0  0  0  0
 13 17  1  0  0  0  0
 15 19  1  1  0  0  0
 15 18  1  0  0  0  0
 15 11  1  0  0  0  0
 16 14  1  0  0  0  0
 17 16  2  0  0  0  0
 18 13  1  0  0  0  0
 20 21  2  0  0  0  0
 21 19  2  0  0  0  0
 22 23  1  0  0  0  0
 23 24  1  6  0  0  0
 23 25  1  0  0  0  0
 25 28  1  0  0  0  0
 25 36  1  1  0  0  0
 26 28  1  0  0  0  0
 27 29  2  0  0  0  0
 28 29  1  0  0  0  0
 29 30  1  0  0  0  0
 30 31  1  6  0  0  0
 30 32  1  0  0  0  0
 32 33  1  0  0  0  0
 33 35  1  0  0  0  0
 35 34  1  0  0  0  0
 36 37  1  0  0  0  0
 37 38  1  0  0  0  0
 39 38  1  0  0  0  0
M  END
>  <MODEL>
6

>  <REMARK>
 VINA RESULT:      -6.5      2.390      8.118
  Name = 
  16 active torsions:
  status: ('A' for Active; 'I' for Inactive)
    1  A    between atoms: C_1  and  C_19
    2  A    between atoms: C_1  and  N_35
    3  A    between atoms: C_3  and  C_25
    4  A    between atoms: C_4  and  N_14
    5  A    between atoms: C_11  and  O_32
    6  A    between atoms: N_13  and  C_23
    7  A    between atoms: N_13  and  C_27
    8  A    between atoms: C_15  and  C_19
    9  A    between atoms: C_15  and  N_34
   10  A    between atoms: N_18  and  C_27
   11  A    between atoms: C_22  and  C_27
   12  A    between atoms: C_22  and  N_34
   13  A    between atoms: C_23  and  C_24
   14  A    between atoms: C_26  and  C_28
   15  A    between atoms: C_26  and  C_38
   16  A    between atoms: C_28  and  O_32
                            x       y       z     vdW  Elec       q    Type
                         _______ _______ _______ _____ _____    ______ ____

>  <TORSDO>
F 16

$$$$
=
 OpenBabel10222419353D

 39 40  0  0  1  0  0  0  0  0999 V2000
  189.4000  177.3730  138.4900 C   0  0  1  0  0  3  0  0  0  0  0  0
  190.0700  176.0820  138.0480 C   0  0  0  0  0  1  0  0  0  0  0  0
  187.4250  176.2760  137.6200 O   0  0  0  0  0  1  0  0  0  0  0  0
  188.0480  177.5190  137.7920 C   0  0  1  0  0  3  0  0  0  0  0  0
  187.1200  178.4870  138.5170 C   0  0  0  0  0  2  0  0  0  0  0  0
  184.7280  178.6280  139.3020 C   0  0  0  0  0  0  0  0  0  0  0  0
  183.4250  178.0380  139.3580 N   0  0  0  0  0  2  0  0  0  0  0  0
  184.9800  179.6900  139.9350 O   0  0  0  0  0  0  0  0  0  0  0  0
  185.7560  177.9820  138.5500 N   0  0  0  0  0  2  0  0  0  0  0  0
  181.8230  178.9410  141.0090 C   0  0  0  0  0  0  0  0  0  0  0  0
  182.2250  178.7070  139.7690 C   0  0  1  0  0  3  0  0  0  0  0  0
  182.4220  178.6030  142.2260 C   0  0  0  0  0  3  0  0  0  0  0  0
  180.6570  179.6660  140.9640 C   0  0  0  0  0  0  0  0  0  0  0  0
  181.7860  179.0030  143.4130 C   0  0  0  0  0  3  0  0  0  0  0  0
  181.2410  179.3480  138.8340 C   0  0  1  0  0  3  0  0  0  0  0  0
  180.5800  179.7320  143.3630 C   0  0  0  0  0  3  0  0  0  0  0  0
  180.0060  180.0740  142.1280 C   0  0  0  0  0  3  0  0  0  0  0  0
  180.2670  179.9320  139.7610 N   0  0  0  0  0  2  0  0  0  0  0  0
  181.8750  180.4340  138.0230 C   0  0  0  0  0  3  0  0  0  0  0  0
  180.8480  182.7590  137.9000 O   0  0  0  0  0  0  0  0  0  0  0  0
  181.3450  181.6250  137.9600 C   0  0  0  0  0  0  0  0  0  0  0  0
  189.2380  177.3740  139.9400 N   0  0  0  0  0  2  0  0  0  0  0  0
  190.4710  176.8680  140.5300 C   0  0  1  0  0  3  0  0  0  0  0  0
  191.5030  177.7830  140.3090 O   0  0  0  0  0  1  0  0  0  0  0  0
  190.2800  176.6560  142.0300 C   0  0  2  0  0  3  0  0  0  0  0  0
  189.3100  178.8540  142.3920 O   0  0  0  0  0  1  0  0  0  0  0  0
  187.9300  175.6790  143.2190 O   0  0  0  0  0  0  0  0  0  0  0  0
  189.2120  177.5110  142.5410 N   0  0  0  0  0  0  0  0  0  0  0  0
  188.0940  176.9290  143.2320 C   0  0  0  0  0  0  0  0  0  0  0  0
  187.1050  177.7710  143.9830 C   0  0  1  0  0  3  0  0  0  0  0  0
  185.8640  177.7960  143.3420 O   0  0  0  0  0  1  0  0  0  0  0  0
  186.9640  177.3460  145.4440 C   0  0  0  0  0  2  0  0  0  0  0  0
  187.8530  178.0440  146.2660 O   0  0  0  0  0  0  0  0  0  0  0  0
  188.8940  177.8780  148.3940 C   0  0  0  0  0  1  0  0  0  0  0  0
  188.2060  177.1380  147.2680 C   0  0  0  0  0  2  0  0  0  0  0  0
  191.5210  176.9440  142.7410 N   0  0  0  0  0  2  0  0  0  0  0  0
  191.5370  176.1140  143.9360 C   0  0  0  0  0  2  0  0  0  0  0  0
  191.3400  176.9750  145.1700 C   0  0  0  0  0  2  0  0  0  0  0  0
  191.7480  176.2770  146.3070 O   0  0  0  0  0  1  0  0  0  0  0  0
  1  2  1  6  0  0  0
  1 22  1  0  0  0  0
  4  3  1  1  0  0  0
  4  1  1  0  0  0  0
  4  5  1  0  0  0  0
  5  9  1  0  0  0  0
  6  7  1  0  0  0  0
  6  8  2  0  0  0  0
  9  6  1  0  0  0  0
 10 12  1  0  0  0  0
 11  7  1  1  0  0  0
 11 10  1  0  0  0  0
 12 14  2  0  0  0  0
 13 10  2  0  0  0  0
 13 17  1  0  0  0  0
 15 19  1  1  0  0  0
 15 18  1  0  0  0  0
 15 11  1  0  0  0  0
 16 14  1  0  0  0  0
 17 16  2  0  0  0  0
 18 13  1  0  0  0  0
 20 21  2  0  0  0  0
 21 19  2  0  0  0  0
 22 23  1  0  0  0  0
 23 24  1  1  0  0  0
 23 25  1  0  0  0  0
 25 28  1  0  0  0  0
 25 36  1  1  0  0  0
 26 28  1  0  0  0  0
 27 29  2  0  0  0  0
 28 29  1  0  0  0  0
 29 30  1  0  0  0  0
 30 31  1  6  0  0  0
 30 32  1  0  0  0  0
 32 33  1  0  0  0  0
 33 35  1  0  0  0  0
 35 34  1  0  0  0  0
 36 37  1  0  0  0  0
 37 38  1  0  0  0  0
 38 39  1  0  0  0  0
M  END
>  <MODEL>
7

>  <REMARK>
 VINA RESULT:      -6.5      2.035      8.237
  Name = 
  16 active torsions:
  status: ('A' for Active; 'I' for Inactive)
    1  A    between atoms: C_1  and  C_19
    2  A    between atoms: C_1  and  N_35
    3  A    between atoms: C_3  and  C_25
    4  A    between atoms: C_4  and  N_14
    5  A    between atoms: C_11  and  O_32
    6  A    between atoms: N_13  and  C_23
    7  A    between atoms: N_13  and  C_27
    8  A    between atoms: C_15  and  C_19
    9  A    between atoms: C_15  and  N_34
   10  A    between atoms: N_18  and  C_27
   11  A    between atoms: C_22  and  C_27
   12  A    between atoms: C_22  and  N_34
   13  A    between atoms: C_23  and  C_24
   14  A    between atoms: C_26  and  C_28
   15  A    between atoms: C_26  and  C_38
   16  A    between atoms: C_28  and  O_32
                            x       y       z     vdW  Elec       q    Type
                         _______ _______ _______ _____ _____    ______ ____

>  <TORSDO>
F 16

$$$$
=
 OpenBabel10222419353D

 39 40  0  0  1  0  0  0  0  0999 V2000
  187.0910  177.3670  138.0350 C   0  0  1  0  0  3  0  0  0  0  0  0
  187.1980  176.1520  137.1280 C   0  0  0  0  0  1  0  0  0  0  0  0
  188.2150  179.3660  137.2610 O   0  0  0  0  0  1  0  0  0  0  0  0
  188.3880  178.1730  137.9750 C   0  0  1  0  0  3  0  0  0  0  0  0
  188.9630  178.4540  139.3580 C   0  0  0  0  0  2  0  0  0  0  0  0
  188.4900  177.8410  141.7580 C   0  0  0  0  0  0  0  0  0  0  0  0
  187.9610  176.8970  142.6950 N   0  0  0  0  0  2  0  0  0  0  0  0
  189.0810  178.8820  142.1590 O   0  0  0  0  0  0  0  0  0  0  0  0
  188.3770  177.5750  140.3590 N   0  0  0  0  0  2  0  0  0  0  0  0
  188.5650  177.1870  145.0740 C   0  0  0  0  0  0  0  0  0  0  0  0
  187.6920  177.1590  144.0790 C   0  0  1  0  0  3  0  0  0  0  0  0
  189.9450  176.9620  145.0620 C   0  0  0  0  0  3  0  0  0  0  0  0
  187.9080  177.5420  146.2260 C   0  0  0  0  0  0  0  0  0  0  0  0
  190.6470  177.0840  146.2740 C   0  0  0  0  0  3  0  0  0  0  0  0
  186.3490  177.5430  144.6310 C   0  0  1  0  0  3  0  0  0  0  0  0
  189.9670  177.4310  147.4590 C   0  0  0  0  0  3  0  0  0  0  0  0
  188.5820  177.6670  147.4420 C   0  0  0  0  0  3  0  0  0  0  0  0
  186.6470  177.7570  146.0500 N   0  0  0  0  0  2  0  0  0  0  0  0
  185.8450  178.8150  144.0260 C   0  0  0  0  0  3  0  0  0  0  0  0
  183.4120  179.5180  144.2710 O   0  0  0  0  0  0  0  0  0  0  0  0
  184.5960  179.1720  144.1520 C   0  0  0  0  0  0  0  0  0  0  0  0
  185.9520  178.1840  137.6310 N   0  0  0  0  0  2  0  0  0  0  0  0
  185.1090  178.3890  138.8020 C   0  0  1  0  0  3  0  0  0  0  0  0
  185.1560  179.7340  139.1790 O   0  0  0  0  0  1  0  0  0  0  0  0
  183.6700  177.9930  138.4820 C   0  0  2  0  0  3  0  0  0  0  0  0
  182.8970  178.6760  140.6820 O   0  0  0  0  0  1  0  0  0  0  0  0
  181.5740  179.5880  137.5060 O   0  0  0  0  0  0  0  0  0  0  0  0
  182.7320  178.7150  139.3380 N   0  0  0  0  0  0  0  0  0  0  0  0
  181.6240  179.4200  138.7540 C   0  0  0  0  0  0  0  0  0  0  0  0
  180.5050  179.9650  139.5930 C   0  0  1  0  0  3  0  0  0  0  0  0
  179.8900  181.0580  138.9770 O   0  0  0  0  0  1  0  0  0  0  0  0
  179.4820  178.8950  139.9720 C   0  0  0  0  0  2  0  0  0  0  0  0
  179.5940  177.7700  139.1510 O   0  0  0  0  0  0  0  0  0  0  0  0
  179.5190  177.1790  141.4500 C   0  0  0  0  0  1  0  0  0  0  0  0
  179.7100  176.6920  140.0310 C   0  0  0  0  0  2  0  0  0  0  0  0
  183.4910  176.5560  138.6620 N   0  0  0  0  0  2  0  0  0  0  0  0
  183.3510  175.9680  137.3380 C   0  0  0  0  0  2  0  0  0  0  0  0
  181.9690  175.3590  137.1840 C   0  0  0  0  0  2  0  0  0  0  0  0
  181.4590  175.6530  135.9180 O   0  0  0  0  0  1  0  0  0  0  0  0
  1  2  1  6  0  0  0
  4  3  1  1  0  0  0
  4  1  1  0  0  0  0
  4  5  1  0  0  0  0
  5  9  1  0  0  0  0
  6  8  2  0  0  0  0
  6  7  1  0  0  0  0
  9  6  1  0  0  0  0
 10 13  1  0  0  0  0
 11  7  1  6  0  0  0
 11 15  1  0  0  0  0
 11 10  1  0  0  0  0
 12 10  2  0  0  0  0
 12 14  1  0  0  0  0
 13 17  2  0  0  0  0
 14 16  2  0  0  0  0
 15 19  1  6  0  0  0
 15 18  1  0  0  0  0
 17 16  1  0  0  0  0
 18 13  1  0  0  0  0
 19 21  2  0  0  0  0
 21 20  2  0  0  0  0
 22  1  1  0  0  0  0
 22 23  1  0  0  0  0
 23 24  1  6  0  0  0
 25 36  1  1  0  0  0
 25 23  1  0  0  0  0
 25 28  1  0  0  0  0
 27 29  2  0  0  0  0
 28 26  1  0  0  0  0
 29 28  1  0  0  0  0
 29 30  1  0  0  0  0
 30 31  1  6  0  0  0
 30 32  1  0  0  0  0
 33 32  1  0  0  0  0
 33 35  1  0  0  0  0
 35 34  1  0  0  0  0
 37 36  1  0  0  0  0
 38 37  1  0  0  0  0
 39 38  1  0  0  0  0
M  END
>  <MODEL>
8

>  <REMARK>
 VINA RESULT:      -6.4      2.363      4.235
  Name = 
  16 active torsions:
  status: ('A' for Active; 'I' for Inactive)
    1  A    between atoms: C_1  and  C_19
    2  A    between atoms: C_1  and  N_35
    3  A    between atoms: C_3  and  C_25
    4  A    between atoms: C_4  and  N_14
    5  A    between atoms: C_11  and  O_32
    6  A    between atoms: N_13  and  C_23
    7  A    between atoms: N_13  and  C_27
    8  A    between atoms: C_15  and  C_19
    9  A    between atoms: C_15  and  N_34
   10  A    between atoms: N_18  and  C_27
   11  A    between atoms: C_22  and  C_27
   12  A    between atoms: C_22  and  N_34
   13  A    between atoms: C_23  and  C_24
   14  A    between atoms: C_26  and  C_28
   15  A    between atoms: C_26  and  C_38
   16  A    between atoms: C_28  and  O_32
                            x       y       z     vdW  Elec       q    Type
                         _______ _______ _______ _____ _____    ______ ____

>  <TORSDO>
F 16

$$$$
=
 OpenBabel10222419353D

 39 40  0  0  1  0  0  0  0  0999 V2000
  183.2010  178.1530  138.6300 C   0  0  1  0  0  3  0  0  0  0  0  0
  181.7720  178.2540  139.1380 C   0  0  0  0  0  1  0  0  0  0  0  0
  184.5200  180.1270  139.0970 O   0  0  0  0  0  1  0  0  0  0  0  0
  184.1440  178.8720  139.5920 C   0  0  1  0  0  3  0  0  0  0  0  0
  183.5580  179.0030  140.9930 C   0  0  0  0  0  2  0  0  0  0  0  0
  185.3800  178.2730  142.5770 C   0  0  0  0  0  0  0  0  0  0  0  0
  185.9450  177.2440  143.3960 N   0  0  0  0  0  2  0  0  0  0  0  0
  185.9790  179.3740  142.4240 O   0  0  0  0  0  0  0  0  0  0  0  0
  184.1450  178.0300  141.9020 N   0  0  0  0  0  2  0  0  0  0  0  0
  188.2740  177.4910  144.1840 C   0  0  0  0  0  0  0  0  0  0  0  0
  186.9660  177.4340  144.3850 C   0  0  1  0  0  3  0  0  0  0  0  0
  189.0060  177.3740  142.9990 C   0  0  0  0  0  3  0  0  0  0  0  0
  188.8910  177.7520  145.3830 C   0  0  0  0  0  0  0  0  0  0  0  0
  190.4040  177.5040  143.0680 C   0  0  0  0  0  3  0  0  0  0  0  0
  186.7090  177.6930  145.8410 C   0  0  1  0  0  3  0  0  0  0  0  0
  191.0360  177.7540  144.3020 C   0  0  0  0  0  3  0  0  0  0  0  0
  190.2770  177.8840  145.4770 C   0  0  0  0  0  3  0  0  0  0  0  0
  188.0640  177.8770  146.3670 N   0  0  0  0  0  2  0  0  0  0  0  0
  185.9160  178.9440  146.0490 C   0  0  0  0  0  3  0  0  0  0  0  0
  183.4060  178.9980  145.6300 O   0  0  0  0  0  0  0  0  0  0  0  0
  184.6290  178.9690  145.8320 C   0  0  0  0  0  0  0  0  0  0  0  0
  183.5760  176.7500  138.4860 N   0  0  0  0  0  2  0  0  0  0  0  0
  183.7510  176.4750  137.0660 C   0  0  1  0  0  3  0  0  0  0  0  0
  183.5990  177.6590  136.3400 O   0  0  0  0  0  1  0  0  0  0  0  0
  185.1410  175.8930  136.8170 C   0  0  2  0  0  3  0  0  0  0  0  0
  186.0660  177.2710  135.0430 O   0  0  0  0  0  1  0  0  0  0  0  0
  186.8500  177.3390  138.5140 O   0  0  0  0  0  0  0  0  0  0  0  0
  186.0600  176.9290  136.3530 N   0  0  0  0  0  0  0  0  0  0  0  0
  186.9760  177.5420  137.2760 C   0  0  0  0  0  0  0  0  0  0  0  0
  188.0960  178.4240  136.8070 C   0  0  1  0  0  3  0  0  0  0  0  0
  187.7340  179.7730  136.8440 O   0  0  0  0  0  1  0  0  0  0  0  0
  189.3940  178.1790  137.5750 C   0  0  0  0  0  2  0  0  0  0  0  0
  189.9240  176.9170  137.2900 O   0  0  0  0  0  0  0  0  0  0  0  0
  190.5870  177.4760  139.5010 C   0  0  0  0  0  1  0  0  0  0  0  0
  190.2330  176.3660  138.5350 C   0  0  0  0  0  2  0  0  0  0  0  0
  185.0690  174.8220  135.8280 N   0  0  0  0  0  2  0  0  0  0  0  0
  185.4010  173.5800  136.5100 C   0  0  0  0  0  2  0  0  0  0  0  0
  186.8760  173.2690  136.3330 C   0  0  0  0  0  2  0  0  0  0  0  0
  187.3180  172.4530  137.3750 O   0  0  0  0  0  1  0  0  0  0  0  0
  1  2  1  1  0  0  0
  1  4  1  0  0  0  0
  4  3  1  6  0  0  0
  4  5  1  0  0  0  0
  5  9  1  0  0  0  0
  6  7  1  0  0  0  0
  8  6  2  0  0  0  0
  9  6  1  0  0  0  0
 10 11  1  0  0  0  0
 10 13  1  0  0  0  0
 11  7  1  6  0  0  0
 11 15  1  0  0  0  0
 12 14  1  0  0  0  0
 12 10  2  0  0  0  0
 13 17  2  0  0  0  0
 13 18  1  0  0  0  0
 14 16  2  0  0  0  0
 15 19  1  6  0  0  0
 15 18  1  0  0  0  0
 16 17  1  0  0  0  0
 20 21  2  0  0  0  0
 21 19  2  0  0  0  0
 22  1  1  0  0  0  0
 23 24  1  6  0  0  0
 23 22  1  0  0  0  0
 25 36  1  6  0  0  0
 25 23  1  0  0  0  0
 26 28  1  0  0  0  0
 28 25  1  0  0  0  0
 28 29  1  0  0  0  0
 29 27  2  0  0  0  0
 30 31  1  1  0  0  0
 30 29  1  0  0  0  0
 30 32  1  0  0  0  0
 33 32  1  0  0  0  0
 33 35  1  0  0  0  0
 35 34  1  0  0  0  0
 36 37  1  0  0  0  0
 38 37  1  0  0  0  0
 38 39  1  0  0  0  0
M  END
>  <MODEL>
9

>  <REMARK>
 VINA RESULT:      -6.4      2.884      6.331
  Name = 
  16 active torsions:
  status: ('A' for Active; 'I' for Inactive)
    1  A    between atoms: C_1  and  C_19
    2  A    between atoms: C_1  and  N_35
    3  A    between atoms: C_3  and  C_25
    4  A    between atoms: C_4  and  N_14
    5  A    between atoms: C_11  and  O_32
    6  A    between atoms: N_13  and  C_23
    7  A    between atoms: N_13  and  C_27
    8  A    between atoms: C_15  and  C_19
    9  A    between atoms: C_15  and  N_34
   10  A    between atoms: N_18  and  C_27
   11  A    between atoms: C_22  and  C_27
   12  A    between atoms: C_22  and  N_34
   13  A    between atoms: C_23  and  C_24
   14  A    between atoms: C_26  and  C_28
   15  A    between atoms: C_26  and  C_38
   16  A    between atoms: C_28  and  O_32
                            x       y       z     vdW  Elec       q    Type
                         _______ _______ _______ _____ _____    ______ ____

>  <TORSDO>
F 16

$$$$
