=
 OpenBabel10222418503D

 42 44  0  0  1  0  0  0  0  0999 V2000
  187.1200  178.1530  137.2390 C   0  0  1  0  0  3  0  0  0  0  0  0
  188.4230  178.4790  137.9860 C   0  0  1  0  0  3  0  0  0  0  0  0
  188.9760  179.6630  137.4940 O   0  0  0  0  0  1  0  0  0  0  0  0
  190.2280  177.7420  140.0590 O   0  0  0  0  0  0  0  0  0  0  0  0
  188.1690  178.6250  139.4130 N   0  0  0  0  0  2  0  0  0  0  0  0
  188.8110  178.4590  141.7870 N   0  0  0  0  0  2  0  0  0  0  0  0
  189.1260  178.2490  140.4040 C   0  0  0  0  0  0  0  0  0  0  0  0
  191.6830  178.4900  144.3160 C   0  0  0  0  0  2  0  0  0  0  0  0
  189.2200  175.6890  143.0920 C   0  0  0  0  0  1  0  0  0  0  0  0
  189.1590  177.0170  143.8280 C   0  0  1  0  0  3  0  0  0  0  0  0
  189.9310  176.9120  145.1500 C   0  0  1  0  0  3  0  0  0  0  0  0
  191.4290  177.1130  144.9170 C   0  0  0  0  0  2  0  0  0  0  0  0
  190.8080  178.7470  143.1220 C   0  0  0  0  0  3  0  0  0  0  0  0
  189.6280  178.1360  142.9240 C   0  0  0  0  0  0  0  0  0  0  0  0
  188.8700  177.1060  147.0820 C   0  0  0  0  0  1  0  0  0  0  0  0
  189.4530  177.8570  146.0620 O   0  0  0  0  0  0  0  0  0  0  0  0
  186.7800  177.5370  134.7900 C   0  0  0  0  0  1  0  0  0  0  0  0
  187.3390  177.1070  136.1370 C   0  0  1  0  0  3  0  0  0  0  0  0
  189.0990  176.6810  135.9780 S   0  0  0  0  0  0  0  0  0  0  0  0
  188.7850  174.9420  136.3970 C   0  0  1  0  0  3  0  0  0  0  0  0
  190.5560  173.3520  136.3900 O   0  0  0  0  0  0  0  0  0  0  0  0
  190.5730  174.8340  138.1400 O   0  0  0  0  0  1  0  0  0  0  0  0
  190.0150  174.3280  136.9710 C   0  0  0  0  0  0  0  0  0  0  0  0
  187.7380  174.8630  137.3190 O   0  0  0  0  0  0  0  0  0  0  0  0
  186.8400  173.4960  136.8710 P   0  0  0  0  0  0  0  0  0  0  0  0
  186.6530  173.4490  135.1900 O   0  0  0  0  0  0  0  0  0  0  0  0
  185.3160  173.5370  137.6060 O   0  0  0  0  0  1  0  0  0  0  0  0
  187.5710  172.2530  137.3220 O   0  0  0  0  0  1  0  0  0  0  0  0
  185.9400  177.7820  138.1570 C   0  0  2  0  0  3  0  0  0  0  0  0
  184.9270  176.9200  137.4280 C   0  0  0  0  0  1  0  0  0  0  0  0
  185.2940  178.9630  138.7180 N   0  0  0  0  0  2  0  0  0  0  0  0
  184.7000  178.8170  143.6040 N   0  0  0  0  0  0  0  0  0  0  0  0
  183.4270  178.8160  145.6910 N   0  0  0  0  0  1  0  0  0  0  0  0
  182.3250  178.9620  141.0080 C   0  0  0  0  0  3  0  0  0  0  0  0
  182.4330  178.8860  143.4600 N   0  0  0  0  0  0  0  0  0  0  0  0
  183.5230  178.8370  144.2710 C   0  0  0  0  0  0  0  0  0  0  0  0
  184.3470  178.8520  142.3130 C   0  0  0  0  0  0  0  0  0  0  0  0
  186.0420  178.7830  144.1650 C   0  0  0  0  0  1  0  0  0  0  0  0
  184.5280  178.9270  139.9240 C   0  0  0  0  0  0  0  0  0  0  0  0
  182.9850  178.8970  142.2310 C   0  0  0  0  0  0  0  0  0  0  0  0
  185.1630  178.8640  141.1840 C   0  0  0  0  0  3  0  0  0  0  0  0
  183.1170  178.9790  139.8440 C   0  0  0  0  0  3  0  0  0  0  0  0
  1 18  1  6  0  0  0
  1  2  1  0  0  0  0
  1 29  1  0  0  0  0
  2  3  1  6  0  0  0
  2  5  1  0  0  0  0
  4  7  2  0  0  0  0
  5  7  1  0  0  0  0
  6 14  1  0  0  0  0
  7  6  1  0  0  0  0
  8 12  1  0  0  0  0
 10  9  1  6  0  0  0
 10 11  1  0  0  0  0
 11 16  1  1  0  0  0
 12 11  1  0  0  0  0
 13  8  1  0  0  0  0
 14 13  2  0  0  0  0
 14 10  1  0  0  0  0
 16 15  1  0  0  0  0
 18 17  1  6  0  0  0
 19 18  1  0  0  0  0
 20 19  1  1  0  0  0
 20 23  1  0  0  0  0
 20 24  1  0  0  0  0
 21 23  2  0  0  0  0
 23 22  1  0  0  0  0
 25 24  1  0  0  0  0
 25 28  1  0  0  0  0
 25 27  1  0  0  0  0
 26 25  2  0  0  0  0
 29 30  1  6  0  0  0
 29 31  1  0  0  0  0
 31 39  1  0  0  0  0
 32 38  1  0  0  0  0
 32 36  1  0  0  0  0
 34 40  1  0  0  0  0
 35 36  2  0  0  0  0
 36 33  1  0  0  0  0
 37 32  1  0  0  0  0
 39 41  2  0  0  0  0
 40 37  2  0  0  0  0
 40 35  1  0  0  0  0
 41 37  1  0  0  0  0
 42 39  1  0  0  0  0
 42 34  2  0  0  0  0
M  END
>  <MODEL>
1

>  <REMARK>
 VINA RESULT:      -7.9      0.000      0.000
  Name = 
  13 active torsions:
  status: ('A' for Active; 'I' for Inactive)
    1  A    between atoms: N_3  and  C_19
    2  A    between atoms: N_3  and  C_29
    3  A    between atoms: P_7  and  O_42
    4  A    between atoms: C_12  and  N_15
    5  A    between atoms: C_12  and  C_36
    6  A    between atoms: C_16  and  S_27
    7  A    between atoms: C_16  and  C_41
    8  A    between atoms: C_16  and  O_42
    9  A    between atoms: N_22  and  C_33
   10  A    between atoms: C_25  and  O_30
   11  A    between atoms: S_27  and  C_38
   12  A    between atoms: C_29  and  C_36
   13  A    between atoms: C_36  and  C_38
                            x       y       z     vdW  Elec       q    Type
                         _______ _______ _______ _____ _____    ______ ____

>  <TORSDO>
F 13

$$$$
=
 OpenBabel10222418503D

 42 44  0  0  1  0  0  0  0  0999 V2000
  187.0560  178.1580  137.3070 C   0  0  1  0  0  3  0  0  0  0  0  0
  188.4030  178.4660  137.9810 C   0  0  1  0  0  3  0  0  0  0  0  0
  189.0110  179.5590  137.3610 O   0  0  0  0  0  1  0  0  0  0  0  0
  189.9630  177.4050  140.1110 O   0  0  0  0  0  0  0  0  0  0  0  0
  188.2080  178.7630  139.3940 N   0  0  0  0  0  2  0  0  0  0  0  0
  188.8020  178.5790  141.7800 N   0  0  0  0  0  2  0  0  0  0  0  0
  189.0380  178.2080  140.4150 C   0  0  0  0  0  0  0  0  0  0  0  0
  191.6080  177.9750  144.3100 C   0  0  0  0  0  2  0  0  0  0  0  0
  188.4220  175.9160  143.2970 C   0  0  0  0  0  1  0  0  0  0  0  0
  188.7590  177.2580  143.9280 C   0  0  1  0  0  3  0  0  0  0  0  0
  189.4920  177.0350  145.2570 C   0  0  1  0  0  3  0  0  0  0  0  0
  190.9800  176.7770  145.0150 C   0  0  0  0  0  2  0  0  0  0  0  0
  190.8210  178.3810  143.0960 C   0  0  0  0  0  3  0  0  0  0  0  0
  189.5120  178.1220  142.9410 C   0  0  0  0  0  0  0  0  0  0  0  0
  188.7050  177.6390  147.2340 C   0  0  0  0  0  1  0  0  0  0  0  0
  189.3220  178.1430  146.0910 O   0  0  0  0  0  0  0  0  0  0  0  0
  186.7350  177.6520  134.8300 C   0  0  0  0  0  1  0  0  0  0  0  0
  187.2060  177.1280  136.1780 C   0  0  1  0  0  3  0  0  0  0  0  0
  188.9190  176.5330  136.0550 S   0  0  0  0  0  0  0  0  0  0  0  0
  188.3930  174.7980  136.1560 C   0  0  1  0  0  3  0  0  0  0  0  0
  190.1130  173.4730  135.1790 O   0  0  0  0  0  0  0  0  0  0  0  0
  190.1290  173.5690  137.4690 O   0  0  0  0  0  1  0  0  0  0  0  0
  189.5870  173.9090  136.2350 C   0  0  0  0  0  0  0  0  0  0  0  0
  187.5880  174.6140  137.2830 O   0  0  0  0  0  0  0  0  0  0  0  0
  186.4340  173.4550  136.8340 P   0  0  0  0  0  0  0  0  0  0  0  0
  185.5260  174.0170  135.5220 O   0  0  0  0  0  0  0  0  0  0  0  0
  185.4030  173.1310  138.1360 O   0  0  0  0  0  1  0  0  0  0  0  0
  187.1420  172.1810  136.4360 O   0  0  0  0  0  1  0  0  0  0  0  0
  185.9310  177.7770  138.2860 C   0  0  2  0  0  3  0  0  0  0  0  0
  184.9110  176.8680  137.6250 C   0  0  0  0  0  1  0  0  0  0  0  0
  185.2750  178.9530  138.8480 N   0  0  0  0  0  2  0  0  0  0  0  0
  181.3690  178.7560  141.8390 N   0  0  0  0  0  0  0  0  0  0  0  0
  180.2210  178.6770  143.9960 N   0  0  0  0  0  1  0  0  0  0  0  0
  184.8090  178.9670  142.5680 C   0  0  0  0  0  3  0  0  0  0  0  0
  182.6430  178.8450  143.7200 N   0  0  0  0  0  0  0  0  0  0  0  0
  181.3930  178.7600  143.1920 C   0  0  0  0  0  0  0  0  0  0  0  0
  182.6580  178.8450  141.4870 C   0  0  0  0  0  0  0  0  0  0  0  0
  180.2080  178.6600  140.9680 C   0  0  0  0  0  1  0  0  0  0  0  0
  184.6230  178.9440  140.1190 C   0  0  0  0  0  0  0  0  0  0  0  0
  183.4190  178.8940  142.6190 C   0  0  0  0  0  0  0  0  0  0  0  0
  183.2160  178.8680  140.2120 C   0  0  0  0  0  3  0  0  0  0  0  0
  185.4090  178.9900  141.2940 C   0  0  0  0  0  3  0  0  0  0  0  0
  1 18  1  6  0  0  0
  1  2  1  0  0  0  0
  1 29  1  0  0  0  0
  2  3  1  6  0  0  0
  2  5  1  0  0  0  0
  4  7  2  0  0  0  0
  5  7  1  0  0  0  0
  6 14  1  0  0  0  0
  7  6  1  0  0  0  0
  8 12  1  0  0  0  0
 10  9  1  6  0  0  0
 10 11  1  0  0  0  0
 11 16  1  1  0  0  0
 12 11  1  0  0  0  0
 13  8  1  0  0  0  0
 14 13  2  0  0  0  0
 14 10  1  0  0  0  0
 16 15  1  0  0  0  0
 18 17  1  6  0  0  0
 19 18  1  0  0  0  0
 20 19  1  1  0  0  0
 20 23  1  0  0  0  0
 20 24  1  0  0  0  0
 21 23  2  0  0  0  0
 23 22  1  0  0  0  0
 25 24  1  0  0  0  0
 25 27  1  0  0  0  0
 26 25  2  0  0  0  0
 28 25  1  0  0  0  0
 29 30  1  6  0  0  0
 29 31  1  0  0  0  0
 31 39  1  0  0  0  0
 32 36  1  0  0  0  0
 34 40  1  0  0  0  0
 36 35  2  0  0  0  0
 36 33  1  0  0  0  0
 37 32  1  0  0  0  0
 37 40  2  0  0  0  0
 38 32  1  0  0  0  0
 39 41  2  0  0  0  0
 39 42  1  0  0  0  0
 40 35  1  0  0  0  0
 41 37  1  0  0  0  0
 42 34  2  0  0  0  0
M  END
>  <MODEL>
2

>  <REMARK>
 VINA RESULT:      -7.7      0.828      1.643
  Name = 
  13 active torsions:
  status: ('A' for Active; 'I' for Inactive)
    1  A    between atoms: N_3  and  C_19
    2  A    between atoms: N_3  and  C_29
    3  A    between atoms: P_7  and  O_42
    4  A    between atoms: C_12  and  N_15
    5  A    between atoms: C_12  and  C_36
    6  A    between atoms: C_16  and  S_27
    7  A    between atoms: C_16  and  C_41
    8  A    between atoms: C_16  and  O_42
    9  A    between atoms: N_22  and  C_33
   10  A    between atoms: C_25  and  O_30
   11  A    between atoms: S_27  and  C_38
   12  A    between atoms: C_29  and  C_36
   13  A    between atoms: C_36  and  C_38
                            x       y       z     vdW  Elec       q    Type
                         _______ _______ _______ _____ _____    ______ ____

>  <TORSDO>
F 13

$$$$
=
 OpenBabel10222418503D

 42 44  0  0  1  0  0  0  0  0999 V2000
  187.0790  178.2710  137.2190 C   0  0  1  0  0  3  0  0  0  0  0  0
  188.3940  178.5040  137.9800 C   0  0  1  0  0  3  0  0  0  0  0  0
  189.0140  179.6680  137.5220 O   0  0  0  0  0  1  0  0  0  0  0  0
  190.2420  177.8410  140.0400 O   0  0  0  0  0  0  0  0  0  0  0  0
  188.1390  178.6260  139.4090 N   0  0  0  0  0  2  0  0  0  0  0  0
  188.7990  178.4730  141.7790 N   0  0  0  0  0  2  0  0  0  0  0  0
  189.1170  178.2910  140.3930 C   0  0  0  0  0  0  0  0  0  0  0  0
  191.6700  178.6340  144.3030 C   0  0  0  0  0  2  0  0  0  0  0  0
  189.3660  175.7150  143.0460 C   0  0  0  0  0  1  0  0  0  0  0  0
  189.2320  177.0280  143.8010 C   0  0  1  0  0  3  0  0  0  0  0  0
  190.0130  176.9490  145.1200 C   0  0  1  0  0  3  0  0  0  0  0  0
  191.4960  177.2360  144.8870 C   0  0  0  0  0  2  0  0  0  0  0  0
  190.7790  178.8560  143.1140 C   0  0  0  0  0  3  0  0  0  0  0  0
  189.6350  178.1820  142.9100 C   0  0  0  0  0  0  0  0  0  0  0  0
  188.9120  177.0570  147.0360 C   0  0  0  0  0  1  0  0  0  0  0  0
  189.4840  177.8530  146.0450 O   0  0  0  0  0  0  0  0  0  0  0  0
  186.4820  177.8090  134.7840 C   0  0  0  0  0  1  0  0  0  0  0  0
  187.2800  177.3600  135.9990 C   0  0  1  0  0  3  0  0  0  0  0  0
  189.0410  177.2120  135.5730 S   0  0  0  0  0  0  0  0  0  0  0  0
  189.1590  175.5740  136.3470 C   0  0  1  0  0  3  0  0  0  0  0  0
  187.2610  174.2310  136.8580 O   0  0  0  0  0  1  0  0  0  0  0  0
  187.6680  174.5460  134.6240 O   0  0  0  0  0  0  0  0  0  0  0  0
  187.9810  174.7450  135.9640 C   0  0  0  0  0  0  0  0  0  0  0  0
  190.3370  174.9440  135.9370 O   0  0  0  0  0  0  0  0  0  0  0  0
  191.4120  175.0970  137.2400 P   0  0  0  0  0  0  0  0  0  0  0  0
  190.5520  175.1980  138.6940 O   0  0  0  0  0  1  0  0  0  0  0  0
  192.3610  176.4850  137.0480 O   0  0  0  0  0  0  0  0  0  0  0  0
  192.3140  173.8850  137.2820 O   0  0  0  0  0  1  0  0  0  0  0  0
  185.9110  177.7980  138.1020 C   0  0  2  0  0  3  0  0  0  0  0  0
  185.0190  176.8210  137.3590 C   0  0  0  0  0  1  0  0  0  0  0  0
  185.1250  178.9170  138.6120 N   0  0  0  0  0  2  0  0  0  0  0  0
  181.3400  178.7140  141.7540 N   0  0  0  0  0  0  0  0  0  0  0  0
  180.2760  178.6460  143.9540 N   0  0  0  0  0  1  0  0  0  0  0  0
  184.8020  178.9630  142.3470 C   0  0  0  0  0  3  0  0  0  0  0  0
  182.6840  178.8330  143.5830 N   0  0  0  0  0  0  0  0  0  0  0  0
  181.4150  178.7310  143.1050 C   0  0  0  0  0  0  0  0  0  0  0  0
  182.6120  178.8110  141.3520 C   0  0  0  0  0  0  0  0  0  0  0  0
  180.1470  178.5990  140.9300 C   0  0  0  0  0  1  0  0  0  0  0  0
  184.5230  178.9140  139.9080 C   0  0  0  0  0  0  0  0  0  0  0  0
  183.4170  178.8780  142.4530 C   0  0  0  0  0  0  0  0  0  0  0  0
  183.1210  178.8260  140.0560 C   0  0  0  0  0  3  0  0  0  0  0  0
  185.3530  178.9780  141.0510 C   0  0  0  0  0  3  0  0  0  0  0  0
  1 18  1  6  0  0  0
  1  2  1  0  0  0  0
  1 29  1  0  0  0  0
  2  3  1  6  0  0  0
  2  5  1  0  0  0  0
  4  7  2  0  0  0  0
  5  7  1  0  0  0  0
  6 14  1  0  0  0  0
  7  6  1  0  0  0  0
  8 12  1  0  0  0  0
 10  9  1  6  0  0  0
 10 11  1  0  0  0  0
 11 16  1  1  0  0  0
 12 11  1  0  0  0  0
 13  8  1  0  0  0  0
 14 13  2  0  0  0  0
 14 10  1  0  0  0  0
 16 15  1  0  0  0  0
 18 17  1  6  0  0  0
 19 18  1  0  0  0  0
 20 19  1  6  0  0  0
 22 23  2  0  0  0  0
 23 20  1  0  0  0  0
 23 21  1  0  0  0  0
 24 20  1  0  0  0  0
 24 25  1  0  0  0  0
 25 28  1  0  0  0  0
 25 26  1  0  0  0  0
 27 25  2  0  0  0  0
 29 30  1  6  0  0  0
 29 31  1  0  0  0  0
 31 39  1  0  0  0  0
 32 36  1  0  0  0  0
 34 40  1  0  0  0  0
 36 35  2  0  0  0  0
 36 33  1  0  0  0  0
 37 32  1  0  0  0  0
 37 40  2  0  0  0  0
 38 32  1  0  0  0  0
 39 41  2  0  0  0  0
 39 42  1  0  0  0  0
 40 35  1  0  0  0  0
 41 37  1  0  0  0  0
 42 34  2  0  0  0  0
M  END
>  <MODEL>
3

>  <REMARK>
 VINA RESULT:      -7.2      1.215      2.623
  Name = 
  13 active torsions:
  status: ('A' for Active; 'I' for Inactive)
    1  A    between atoms: N_3  and  C_19
    2  A    between atoms: N_3  and  C_29
    3  A    between atoms: P_7  and  O_42
    4  A    between atoms: C_12  and  N_15
    5  A    between atoms: C_12  and  C_36
    6  A    between atoms: C_16  and  S_27
    7  A    between atoms: C_16  and  C_41
    8  A    between atoms: C_16  and  O_42
    9  A    between atoms: N_22  and  C_33
   10  A    between atoms: C_25  and  O_30
   11  A    between atoms: S_27  and  C_38
   12  A    between atoms: C_29  and  C_36
   13  A    between atoms: C_36  and  C_38
                            x       y       z     vdW  Elec       q    Type
                         _______ _______ _______ _____ _____    ______ ____

>  <TORSDO>
F 13

$$$$
=
 OpenBabel10222418503D

 42 44  0  0  1  0  0  0  0  0999 V2000
  187.1810  176.9980  137.3370 C   0  0  1  0  0  3  0  0  0  0  0  0
  187.9780  178.2240  137.8110 C   0  0  1  0  0  3  0  0  0  0  0  0
  187.6020  179.3530  137.0800 O   0  0  0  0  0  1  0  0  0  0  0  0
  189.7880  177.5910  139.9140 O   0  0  0  0  0  0  0  0  0  0  0  0
  187.7390  178.4690  139.2280 N   0  0  0  0  0  2  0  0  0  0  0  0
  188.4000  178.4470  141.6020 N   0  0  0  0  0  2  0  0  0  0  0  0
  188.6980  178.1410  140.2340 C   0  0  0  0  0  0  0  0  0  0  0  0
  191.2790  178.6140  144.1170 C   0  0  0  0  0  2  0  0  0  0  0  0
  188.8210  175.7480  143.0430 C   0  0  0  0  0  1  0  0  0  0  0  0
  188.7580  177.1110  143.7120 C   0  0  1  0  0  3  0  0  0  0  0  0
  189.5350  177.0750  145.0350 C   0  0  1  0  0  3  0  0  0  0  0  0
  191.0310  177.2680  144.7880 C   0  0  0  0  0  2  0  0  0  0  0  0
  190.3990  178.8080  142.9150 C   0  0  0  0  0  3  0  0  0  0  0  0
  189.2210  178.1840  142.7520 C   0  0  0  0  0  0  0  0  0  0  0  0
  187.7090  177.7550  146.0830 C   0  0  0  0  0  1  0  0  0  0  0  0
  189.0560  178.0620  145.9000 O   0  0  0  0  0  0  0  0  0  0  0  0
  185.7830  177.5490  135.2780 C   0  0  0  0  0  1  0  0  0  0  0  0
  185.8010  177.3910  136.7910 C   0  0  1  0  0  3  0  0  0  0  0  0
  184.5270  176.2030  137.3130 S   0  0  0  0  0  0  0  0  0  0  0  0
  183.6960  177.4460  138.3440 C   0  0  1  0  0  3  0  0  0  0  0  0
  181.9060  176.1970  139.2930 O   0  0  0  0  0  1  0  0  0  0  0  0
  181.2900  177.7800  137.7540 O   0  0  0  0  0  0  0  0  0  0  0  0
  182.2540  177.1010  138.4900 C   0  0  0  0  0  0  0  0  0  0  0  0
  184.3030  177.4960  139.6010 O   0  0  0  0  0  0  0  0  0  0  0  0
  184.0850  179.0870  140.1480 P   0  0  0  0  0  0  0  0  0  0  0  0
  182.5280  179.2740  140.7830 O   0  0  0  0  0  1  0  0  0  0  0  0
  184.3080  180.1740  138.8710 O   0  0  0  0  0  0  0  0  0  0  0  0
  185.0990  179.3810  141.2290 O   0  0  0  0  0  1  0  0  0  0  0  0
  187.9460  176.0850  136.3620 C   0  0  2  0  0  3  0  0  0  0  0  0
  188.2080  174.7220  136.9750 C   0  0  0  0  0  1  0  0  0  0  0  0
  189.1960  176.6900  135.9150 N   0  0  0  0  0  2  0  0  0  0  0  0
  193.4160  175.9890  138.3530 N   0  0  0  0  0  0  0  0  0  0  0  0
  195.5770  174.9390  138.8030 N   0  0  0  0  0  1  0  0  0  0  0  0
  192.1630  174.4470  135.4460 C   0  0  0  0  0  3  0  0  0  0  0  0
  194.1290  174.3790  136.9170 N   0  0  0  0  0  0  0  0  0  0  0  0
  194.3890  175.1040  138.0370 C   0  0  0  0  0  0  0  0  0  0  0  0
  192.4960  175.8240  137.3950 C   0  0  0  0  0  0  0  0  0  0  0  0
  193.3740  176.9000  139.4870 C   0  0  0  0  0  1  0  0  0  0  0  0
  190.4720  176.0870  136.1380 C   0  0  0  0  0  0  0  0  0  0  0  0
  192.9260  174.8530  136.5370 C   0  0  0  0  0  0  0  0  0  0  0  0
  191.2740  176.4710  137.2360 C   0  0  0  0  0  3  0  0  0  0  0  0
  190.9190  175.0780  135.2540 C   0  0  0  0  0  3  0  0  0  0  0  0
  1 29  1  6  0  0  0
  1  2  1  0  0  0  0
  2  3  1  6  0  0  0
  2  5  1  0  0  0  0
  4  7  2  0  0  0  0
  5  7  1  0  0  0  0
  6 14  1  0  0  0  0
  7  6  1  0  0  0  0
  8 12  1  0  0  0  0
 10  9  1  6  0  0  0
 10 11  1  0  0  0  0
 11 16  1  1  0  0  0
 12 11  1  0  0  0  0
 13  8  1  0  0  0  0
 14 13  2  0  0  0  0
 14 10  1  0  0  0  0
 16 15  1  0  0  0  0
 18 17  1  6  0  0  0
 18 19  1  0  0  0  0
 18  1  1  0  0  0  0
 20 19  1  6  0  0  0
 20 23  1  0  0  0  0
 20 24  1  0  0  0  0
 22 23  2  0  0  0  0
 23 21  1  0  0  0  0
 24 25  1  0  0  0  0
 25 26  1  0  0  0  0
 25 28  1  0  0  0  0
 27 25  2  0  0  0  0
 29 30  1  1  0  0  0
 31 39  1  0  0  0  0
 31 29  1  0  0  0  0
 32 38  1  0  0  0  0
 34 40  1  0  0  0  0
 35 36  2  0  0  0  0
 36 32  1  0  0  0  0
 36 33  1  0  0  0  0
 37 32  1  0  0  0  0
 39 41  2  0  0  0  0
 40 35  1  0  0  0  0
 40 37  2  0  0  0  0
 41 37  1  0  0  0  0
 42 34  2  0  0  0  0
 42 39  1  0  0  0  0
M  END
>  <MODEL>
4

>  <REMARK>
 VINA RESULT:      -6.9      3.571      6.966
  Name = 
  13 active torsions:
  status: ('A' for Active; 'I' for Inactive)
    1  A    between atoms: N_3  and  C_19
    2  A    between atoms: N_3  and  C_29
    3  A    between atoms: P_7  and  O_42
    4  A    between atoms: C_12  and  N_15
    5  A    between atoms: C_12  and  C_36
    6  A    between atoms: C_16  and  S_27
    7  A    between atoms: C_16  and  C_41
    8  A    between atoms: C_16  and  O_42
    9  A    between atoms: N_22  and  C_33
   10  A    between atoms: C_25  and  O_30
   11  A    between atoms: S_27  and  C_38
   12  A    between atoms: C_29  and  C_36
   13  A    between atoms: C_36  and  C_38
                            x       y       z     vdW  Elec       q    Type
                         _______ _______ _______ _____ _____    ______ ____

>  <TORSDO>
F 13

$$$$
=
 OpenBabel10222418503D

 42 44  0  0  1  0  0  0  0  0999 V2000
  188.6610  177.1800  142.6850 C   0  0  1  0  0  3  0  0  0  0  0  0
  189.3720  178.2170  141.8020 C   0  0  1  0  0  3  0  0  0  0  0  0
  190.4760  177.6370  141.1740 O   0  0  0  0  0  1  0  0  0  0  0  0
  188.7410  176.9230  139.3480 O   0  0  0  0  0  0  0  0  0  0  0  0
  188.4610  178.7340  140.7900 N   0  0  0  0  0  2  0  0  0  0  0  0
  187.2380  178.5880  138.6540 N   0  0  0  0  0  2  0  0  0  0  0  0
  188.1740  178.0260  139.5840 C   0  0  0  0  0  0  0  0  0  0  0  0
  187.0270  177.9150  134.8940 C   0  0  0  0  0  2  0  0  0  0  0  0
  184.4060  177.6930  137.8080 C   0  0  0  0  0  1  0  0  0  0  0  0
  185.7090  177.0270  137.3940 C   0  0  1  0  0  3  0  0  0  0  0  0
  185.5150  176.2980  136.0580 C   0  0  1  0  0  3  0  0  0  0  0  0
  185.6440  177.2740  134.8870 C   0  0  0  0  0  2  0  0  0  0  0  0
  187.3720  178.4810  136.2420 C   0  0  0  0  0  3  0  0  0  0  0  0
  186.8320  178.0410  137.3900 C   0  0  0  0  0  0  0  0  0  0  0  0
  185.7370  174.1020  136.2080 C   0  0  0  0  0  1  0  0  0  0  0  0
  186.4510  175.2680  135.9340 O   0  0  0  0  0  0  0  0  0  0  0  0
  190.5000  175.4830  143.1670 C   0  0  0  0  0  1  0  0  0  0  0  0
  189.6080  176.5760  143.7330 C   0  0  1  0  0  3  0  0  0  0  0  0
  190.6170  177.8640  144.5240 S   0  0  0  0  0  0  0  0  0  0  0  0
  190.2300  177.2420  146.1850 C   0  0  1  0  0  3  0  0  0  0  0  0
  191.8760  177.1040  147.8990 O   0  0  0  0  0  1  0  0  0  0  0  0
  192.1170  175.6020  146.1830 O   0  0  0  0  0  0  0  0  0  0  0  0
  191.4510  176.6530  146.8040 C   0  0  0  0  0  0  0  0  0  0  0  0
  189.7510  178.2870  146.9790 O   0  0  0  0  0  0  0  0  0  0  0  0
  188.3270  177.7020  147.6910 P   0  0  0  0  0  0  0  0  0  0  0  0
  186.9760  178.3610  146.9140 O   0  0  0  0  0  0  0  0  0  0  0  0
  188.2890  178.1110  149.3320 O   0  0  0  0  0  1  0  0  0  0  0  0
  188.2890  176.1970  147.5570 O   0  0  0  0  0  1  0  0  0  0  0  0
  187.3490  177.6800  143.3180 C   0  0  2  0  0  3  0  0  0  0  0  0
  186.7850  176.6630  144.2920 C   0  0  0  0  0  1  0  0  0  0  0  0
  186.3530  178.0240  142.3090 N   0  0  0  0  0  2  0  0  0  0  0  0
  181.5410  178.5170  141.3910 N   0  0  0  0  0  0  0  0  0  0  0  0
  179.2160  179.0460  141.9310 N   0  0  0  0  0  1  0  0  0  0  0  0
  183.4010  179.1830  144.3070 C   0  0  0  0  0  3  0  0  0  0  0  0
  181.0890  179.2840  143.4820 N   0  0  0  0  0  0  0  0  0  0  0  0
  180.5980  178.9500  142.2590 C   0  0  0  0  0  0  0  0  0  0  0  0
  182.6820  178.5780  142.0870 C   0  0  0  0  0  0  0  0  0  0  0  0
  181.3520  178.0700  140.0200 C   0  0  0  0  0  1  0  0  0  0  0  0
  185.0070  178.3730  142.6360 C   0  0  0  0  0  0  0  0  0  0  0  0
  182.4060  179.0350  143.3440 C   0  0  0  0  0  0  0  0  0  0  0  0
  183.9710  178.2340  141.6860 C   0  0  0  0  0  3  0  0  0  0  0  0
  184.7160  178.8430  143.9370 C   0  0  0  0  0  3  0  0  0  0  0  0
  1  2  1  1  0  0  0
  1 29  1  0  0  0  0
  1 18  1  0  0  0  0
  2  3  1  6  0  0  0
  4  7  2  0  0  0  0
  5  2  1  0  0  0  0
  6  7  1  0  0  0  0
  7  5  1  0  0  0  0
  8 13  1  0  0  0  0
 10  9  1  6  0  0  0
 11 16  1  6  0  0  0
 11 10  1  0  0  0  0
 12  8  1  0  0  0  0
 12 11  1  0  0  0  0
 13 14  2  0  0  0  0
 14 10  1  0  0  0  0
 14  6  1  0  0  0  0
 16 15  1  0  0  0  0
 18 17  1  6  0  0  0
 18 19  1  0  0  0  0
 20 19  1  6  0  0  0
 20 23  1  0  0  0  0
 20 24  1  0  0  0  0
 22 23  2  0  0  0  0
 23 21  1  0  0  0  0
 24 25  1  0  0  0  0
 25 27  1  0  0  0  0
 26 25  2  0  0  0  0
 28 25  1  0  0  0  0
 29 30  1  1  0  0  0
 31 39  1  0  0  0  0
 31 29  1  0  0  0  0
 32 37  1  0  0  0  0
 32 36  1  0  0  0  0
 33 36  1  0  0  0  0
 36 35  2  0  0  0  0
 37 40  1  0  0  0  0
 38 32  1  0  0  0  0
 39 42  2  0  0  0  0
 40 35  1  0  0  0  0
 40 34  2  0  0  0  0
 41 37  2  0  0  0  0
 41 39  1  0  0  0  0
 42 34  1  0  0  0  0
M  END
>  <MODEL>
5

>  <REMARK>
 VINA RESULT:      -6.9      3.013      7.692
  Name = 
  13 active torsions:
  status: ('A' for Active; 'I' for Inactive)
    1  A    between atoms: N_3  and  C_19
    2  A    between atoms: N_3  and  C_29
    3  A    between atoms: P_7  and  O_42
    4  A    between atoms: C_12  and  N_15
    5  A    between atoms: C_12  and  C_36
    6  A    between atoms: C_16  and  S_27
    7  A    between atoms: C_16  and  C_41
    8  A    between atoms: C_16  and  O_42
    9  A    between atoms: N_22  and  C_33
   10  A    between atoms: C_25  and  O_30
   11  A    between atoms: S_27  and  C_38
   12  A    between atoms: C_29  and  C_36
   13  A    between atoms: C_36  and  C_38
                            x       y       z     vdW  Elec       q    Type
                         _______ _______ _______ _____ _____    ______ ____

>  <TORSDO>
F 13

$$$$
=
 OpenBabel10222418503D

 42 44  0  0  1  0  0  0  0  0999 V2000
  184.9260  177.8530  139.1630 C   0  0  1  0  0  3  0  0  0  0  0  0
  185.7250  178.7080  140.1600 C   0  0  1  0  0  3  0  0  0  0  0  0
  184.9360  179.7600  140.6300 O   0  0  0  0  0  1  0  0  0  0  0  0
  188.3900  178.5770  141.1490 O   0  0  0  0  0  0  0  0  0  0  0  0
  186.1640  177.8970  141.2870 N   0  0  0  0  0  2  0  0  0  0  0  0
  187.8600  177.0880  142.8840 N   0  0  0  0  0  2  0  0  0  0  0  0
  187.5160  177.8880  141.7450 C   0  0  0  0  0  0  0  0  0  0  0  0
  191.3810  175.7890  143.6250 C   0  0  0  0  0  2  0  0  0  0  0  0
  188.6320  177.4980  145.8460 C   0  0  0  0  0  1  0  0  0  0  0  0
  189.5010  177.8390  144.6460 C   0  0  1  0  0  3  0  0  0  0  0  0
  190.9810  177.8030  145.0520 C   0  0  1  0  0  3  0  0  0  0  0  0
  191.5130  176.3700  145.0290 C   0  0  0  0  0  2  0  0  0  0  0  0
  189.9950  175.9680  143.0760 C   0  0  0  0  0  3  0  0  0  0  0  0
  189.1570  176.9360  143.4820 C   0  0  0  0  0  0  0  0  0  0  0  0
  190.9240  179.7220  143.9510 C   0  0  0  0  0  1  0  0  0  0  0  0
  191.7330  178.6130  144.1970 O   0  0  0  0  0  0  0  0  0  0  0  0
  182.8340  178.2820  137.7720 C   0  0  0  0  0  1  0  0  0  0  0  0
  183.4340  178.2160  139.1670 C   0  0  1  0  0  3  0  0  0  0  0  0
  182.4820  177.0660  140.2050 S   0  0  0  0  0  0  0  0  0  0  0  0
  181.1340  178.2650  140.4140 C   0  0  1  0  0  3  0  0  0  0  0  0
  180.8360  178.5250  142.7610 O   0  0  0  0  0  1  0  0  0  0  0  0
  179.2850  177.1990  141.7160 O   0  0  0  0  0  0  0  0  0  0  0  0
  180.4180  178.0050  141.6950 C   0  0  0  0  0  0  0  0  0  0  0  0
  181.6540  179.5620  140.4150 O   0  0  0  0  0  0  0  0  0  0  0  0
  180.4460  180.5360  139.7310 P   0  0  0  0  0  0  0  0  0  0  0  0
  179.3770  179.5870  138.8260 O   0  0  0  0  0  1  0  0  0  0  0  0
  181.1450  181.7090  138.7310 O   0  0  0  0  0  0  0  0  0  0  0  0
  179.6810  181.2250  140.8380 O   0  0  0  0  0  1  0  0  0  0  0  0
  185.5080  177.8330  137.7380 C   0  0  2  0  0  3  0  0  0  0  0  0
  185.7560  176.4140  137.2640 C   0  0  0  0  0  1  0  0  0  0  0  0
  186.7300  178.6240  137.6370 N   0  0  0  0  0  2  0  0  0  0  0  0
  191.2690  176.9450  138.5400 N   0  0  0  0  0  0  0  0  0  0  0  0
  193.4170  175.9250  137.9740 N   0  0  0  0  0  1  0  0  0  0  0  0
  189.4440  177.1200  135.5330 C   0  0  0  0  0  3  0  0  0  0  0  0
  191.6320  176.3790  136.3690 N   0  0  0  0  0  0  0  0  0  0  0  0
  192.1230  176.4120  137.6360 C   0  0  0  0  0  0  0  0  0  0  0  0
  190.1880  177.2680  137.8210 C   0  0  0  0  0  0  0  0  0  0  0  0
  191.4760  177.1130  139.9710 C   0  0  0  0  0  1  0  0  0  0  0  0
  187.9910  178.0580  137.2760 C   0  0  0  0  0  0  0  0  0  0  0  0
  190.4080  176.9230  136.5180 C   0  0  0  0  0  0  0  0  0  0  0  0
  188.9920  177.8410  138.2480 C   0  0  0  0  0  3  0  0  0  0  0  0
  188.2210  177.6950  135.9290 C   0  0  0  0  0  3  0  0  0  0  0  0
  1 29  1  6  0  0  0
  1 18  1  0  0  0  0
  1  2  1  0  0  0  0
  2  3  1  1  0  0  0
  2  5  1  0  0  0  0
  4  7  2  0  0  0  0
  5  7  1  0  0  0  0
  6 14  1  0  0  0  0
  7  6  1  0  0  0  0
  8 12  1  0  0  0  0
 10 11  1  0  0  0  0
 10  9  1  1  0  0  0
 11 16  1  6  0  0  0
 12 11  1  0  0  0  0
 13 14  2  0  0  0  0
 13  8  1  0  0  0  0
 14 10  1  0  0  0  0
 15 16  1  0  0  0  0
 18 17  1  6  0  0  0
 18 19  1  0  0  0  0
 20 19  1  1  0  0  0
 20 24  1  0  0  0  0
 20 23  1  0  0  0  0
 23 22  2  0  0  0  0
 23 21  1  0  0  0  0
 25 24  1  0  0  0  0
 25 28  1  0  0  0  0
 26 25  1  0  0  0  0
 27 25  2  0  0  0  0
 29 30  1  1  0  0  0
 31 29  1  0  0  0  0
 32 38  1  0  0  0  0
 34 42  2  0  0  0  0
 34 40  1  0  0  0  0
 35 40  1  0  0  0  0
 35 36  2  0  0  0  0
 36 33  1  0  0  0  0
 36 32  1  0  0  0  0
 37 41  1  0  0  0  0
 37 32  1  0  0  0  0
 39 31  1  0  0  0  0
 39 41  2  0  0  0  0
 40 37  2  0  0  0  0
 42 39  1  0  0  0  0
M  END
>  <MODEL>
6

>  <REMARK>
 VINA RESULT:      -6.6      4.354      7.166
  Name = 
  13 active torsions:
  status: ('A' for Active; 'I' for Inactive)
    1  A    between atoms: N_3  and  C_19
    2  A    between atoms: N_3  and  C_29
    3  A    between atoms: P_7  and  O_42
    4  A    between atoms: C_12  and  N_15
    5  A    between atoms: C_12  and  C_36
    6  A    between atoms: C_16  and  S_27
    7  A    between atoms: C_16  and  C_41
    8  A    between atoms: C_16  and  O_42
    9  A    between atoms: N_22  and  C_33
   10  A    between atoms: C_25  and  O_30
   11  A    between atoms: S_27  and  C_38
   12  A    between atoms: C_29  and  C_36
   13  A    between atoms: C_36  and  C_38
                            x       y       z     vdW  Elec       q    Type
                         _______ _______ _______ _____ _____    ______ ____

>  <TORSDO>
F 13

$$$$
=
 OpenBabel10222418503D

 42 44  0  0  1  0  0  0  0  0999 V2000
  188.5480  177.3530  140.5560 C   0  0  1  0  0  3  0  0  0  0  0  0
  187.7960  178.2740  141.5300 C   0  0  1  0  0  3  0  0  0  0  0  0
  188.5140  179.4550  141.7250 O   0  0  0  0  0  1  0  0  0  0  0  0
  185.3770  178.2190  143.0280 O   0  0  0  0  0  0  0  0  0  0  0  0
  186.4750  178.5970  141.0060 N   0  0  0  0  0  2  0  0  0  0  0  0
  184.0430  178.9320  141.2330 N   0  0  0  0  0  2  0  0  0  0  0  0
  185.3010  178.5660  141.8170 C   0  0  0  0  0  0  0  0  0  0  0  0
  181.3430  179.0020  143.9440 C   0  0  0  0  0  2  0  0  0  0  0  0
  181.4530  177.5280  140.3070 C   0  0  0  0  0  1  0  0  0  0  0  0
  181.5330  178.8840  140.9890 C   0  0  1  0  0  3  0  0  0  0  0  0
  180.2140  179.1750  141.7190 C   0  0  1  0  0  3  0  0  0  0  0  0
  180.1920  178.4900  143.0860 C   0  0  0  0  0  2  0  0  0  0  0  0
  182.6540  178.9340  143.2140 C   0  0  0  0  0  3  0  0  0  0  0  0
  182.7580  178.9490  141.8750 C   0  0  0  0  0  0  0  0  0  0  0  0
  179.6790  181.0050  140.5970 C   0  0  0  0  0  1  0  0  0  0  0  0
  180.0410  180.5530  141.8650 O   0  0  0  0  0  0  0  0  0  0  0  0
  189.4300  178.8110  138.6610 C   0  0  0  0  0  1  0  0  0  0  0  0
  188.3780  177.8030  139.0980 C   0  0  1  0  0  3  0  0  0  0  0  0
  188.3670  176.3780  137.9690 S   0  0  0  0  0  0  0  0  0  0  0  0
  186.9620  177.0460  137.0330 C   0  0  1  0  0  3  0  0  0  0  0  0
  186.9330  178.6090  135.2380 O   0  0  0  0  0  1  0  0  0  0  0  0
  188.4110  176.8720  135.0030 O   0  0  0  0  0  0  0  0  0  0  0  0
  187.4270  177.5530  135.7110 C   0  0  0  0  0  0  0  0  0  0  0  0
  186.0030  176.0460  136.8470 O   0  0  0  0  0  0  0  0  0  0  0  0
  184.5090  176.7860  137.1630 P   0  0  0  0  0  0  0  0  0  0  0  0
  184.7400  178.2080  138.0490 O   0  0  0  0  0  1  0  0  0  0  0  0
  183.5150  175.7320  138.0370 O   0  0  0  0  0  1  0  0  0  0  0  0
  183.8370  177.1230  135.8520 O   0  0  0  0  0  0  0  0  0  0  0  0
  190.0260  177.1220  140.9180 C   0  0  2  0  0  3  0  0  0  0  0  0
  190.8380  176.7370  139.6950 C   0  0  0  0  0  1  0  0  0  0  0  0
  190.1810  176.1190  141.9660 N   0  0  0  0  0  2  0  0  0  0  0  0
  188.3560  177.4870  146.3300 N   0  0  0  0  0  0  0  0  0  0  0  0
  188.4510  178.0090  148.7160 N   0  0  0  0  0  1  0  0  0  0  0  0
  191.6480  176.6850  145.3690 C   0  0  0  0  0  3  0  0  0  0  0  0
  190.3800  177.3770  147.3560 N   0  0  0  0  0  0  0  0  0  0  0  0
  189.0500  177.6310  147.4810 C   0  0  0  0  0  0  0  0  0  0  0  0
  189.2790  177.1270  145.4300 C   0  0  0  0  0  0  0  0  0  0  0  0
  186.9270  177.6660  146.1220 C   0  0  0  0  0  1  0  0  0  0  0  0
  190.2670  176.4540  143.3520 C   0  0  0  0  0  0  0  0  0  0  0  0
  190.4930  177.0580  146.0520 C   0  0  0  0  0  0  0  0  0  0  0  0
  189.1170  176.8340  144.0790 C   0  0  0  0  0  3  0  0  0  0  0  0
  191.5210  176.3790  144.0010 C   0  0  0  0  0  3  0  0  0  0  0  0
  1 18  1  6  0  0  0
  1 29  1  0  0  0  0
  1  2  1  0  0  0  0
  2  3  1  6  0  0  0
  5  2  1  0  0  0  0
  5  7  1  0  0  0  0
  6  7  1  0  0  0  0
  6 14  1  0  0  0  0
  7  4  2  0  0  0  0
 10  9  1  1  0  0  0
 10 11  1  0  0  0  0
 10 14  1  0  0  0  0
 11 16  1  1  0  0  0
 11 12  1  0  0  0  0
 12  8  1  0  0  0  0
 13  8  1  0  0  0  0
 14 13  2  0  0  0  0
 15 16  1  0  0  0  0
 18 17  1  6  0  0  0
 19 18  1  0  0  0  0
 20 23  1  6  0  0  0
 20 19  1  0  0  0  0
 21 23  1  0  0  0  0
 22 23  2  0  0  0  0
 24 20  1  0  0  0  0
 24 25  1  0  0  0  0
 25 27  1  0  0  0  0
 25 26  1  0  0  0  0
 28 25  2  0  0  0  0
 29 30  1  6  0  0  0
 29 31  1  0  0  0  0
 31 39  1  0  0  0  0
 32 36  1  0  0  0  0
 34 40  1  0  0  0  0
 35 36  2  0  0  0  0
 36 33  1  0  0  0  0
 37 40  2  0  0  0  0
 37 32  1  0  0  0  0
 38 32  1  0  0  0  0
 39 42  1  0  0  0  0
 39 41  2  0  0  0  0
 40 35  1  0  0  0  0
 41 37  1  0  0  0  0
 42 34  2  0  0  0  0
M  END
>  <MODEL>
7

>  <REMARK>
 VINA RESULT:      -6.5      3.071      6.734
  Name = 
  13 active torsions:
  status: ('A' for Active; 'I' for Inactive)
    1  A    between atoms: N_3  and  C_19
    2  A    between atoms: N_3  and  C_29
    3  A    between atoms: P_7  and  O_42
    4  A    between atoms: C_12  and  N_15
    5  A    between atoms: C_12  and  C_36
    6  A    between atoms: C_16  and  S_27
    7  A    between atoms: C_16  and  C_41
    8  A    between atoms: C_16  and  O_42
    9  A    between atoms: N_22  and  C_33
   10  A    between atoms: C_25  and  O_30
   11  A    between atoms: S_27  and  C_38
   12  A    between atoms: C_29  and  C_36
   13  A    between atoms: C_36  and  C_38
                            x       y       z     vdW  Elec       q    Type
                         _______ _______ _______ _____ _____    ______ ____

>  <TORSDO>
F 13

$$$$
=
 OpenBabel10222418503D

 42 44  0  0  1  0  0  0  0  0999 V2000
  188.5540  177.2240  139.2190 C   0  0  1  0  0  3  0  0  0  0  0  0
  187.5650  177.6190  138.1110 C   0  0  1  0  0  3  0  0  0  0  0  0
  186.8490  176.4990  137.6850 O   0  0  0  0  0  1  0  0  0  0  0  0
  184.7510  177.2750  138.3480 O   0  0  0  0  0  0  0  0  0  0  0  0
  186.6340  178.6280  138.5970 N   0  0  0  0  0  2  0  0  0  0  0  0
  184.3860  179.4210  139.2270 N   0  0  0  0  0  2  0  0  0  0  0  0
  185.2310  178.3860  138.7070 C   0  0  0  0  0  0  0  0  0  0  0  0
  180.6680  180.2670  138.9170 C   0  0  0  0  0  2  0  0  0  0  0  0
  182.8170  178.6360  141.7690 C   0  0  0  0  0  1  0  0  0  0  0  0
  182.4020  178.3310  140.3390 C   0  0  1  0  0  3  0  0  0  0  0  0
  180.8770  178.1710  140.2660 C   0  0  1  0  0  3  0  0  0  0  0  0
  180.1960  179.5370  140.1700 C   0  0  0  0  0  2  0  0  0  0  0  0
  182.1660  180.2890  138.8170 C   0  0  0  0  0  3  0  0  0  0  0  0
  182.9610  179.3770  139.4000 C   0  0  0  0  0  0  0  0  0  0  0  0
  181.1430  176.1500  139.4060 C   0  0  0  0  0  1  0  0  0  0  0  0
  180.5300  177.3790  139.1690 O   0  0  0  0  0  0  0  0  0  0  0  0
  190.9550  176.3780  139.3450 C   0  0  0  0  0  1  0  0  0  0  0  0
  190.0120  177.4300  138.7840 C   0  0  1  0  0  3  0  0  0  0  0  0
  190.1530  177.4970  136.9730 S   0  0  0  0  0  0  0  0  0  0  0  0
  190.9490  175.8660  136.9080 C   0  0  1  0  0  3  0  0  0  0  0  0
  189.0430  174.9720  135.7970 O   0  0  0  0  0  0  0  0  0  0  0  0
  189.9410  173.6400  137.4330 O   0  0  0  0  0  1  0  0  0  0  0  0
  189.9230  174.8090  136.6810 C   0  0  0  0  0  0  0  0  0  0  0  0
  191.8910  175.8440  135.8760 O   0  0  0  0  0  0  0  0  0  0  0  0
  193.3760  175.5050  136.6240 P   0  0  0  0  0  0  0  0  0  0  0  0
  193.2370  174.1260  137.5940 O   0  0  0  0  0  1  0  0  0  0  0  0
  193.8570  176.8180  137.5760 O   0  0  0  0  0  1  0  0  0  0  0  0
  194.4200  175.2580  135.5600 O   0  0  0  0  0  0  0  0  0  0  0  0
  188.2660  177.8720  140.5860 C   0  0  2  0  0  3  0  0  0  0  0  0
  189.1160  179.1100  140.7980 C   0  0  0  0  0  1  0  0  0  0  0  0
  188.4540  176.9310  141.6860 N   0  0  0  0  0  2  0  0  0  0  0  0
  189.0140  177.3750  146.5570 N   0  0  0  0  0  0  0  0  0  0  0  0
  188.3040  177.8780  148.8410 N   0  0  0  0  0  1  0  0  0  0  0  0
  186.1880  177.8790  144.5180 C   0  0  0  0  0  3  0  0  0  0  0  0
  186.8520  177.9960  146.8800 N   0  0  0  0  0  0  0  0  0  0  0  0
  188.0640  177.7490  147.4440 C   0  0  0  0  0  0  0  0  0  0  0  0
  188.3840  177.3810  145.3770 C   0  0  0  0  0  0  0  0  0  0  0  0
  190.4080  177.0550  146.8260 C   0  0  0  0  0  1  0  0  0  0  0  0
  188.0070  177.1960  143.0170 C   0  0  0  0  0  0  0  0  0  0  0  0
  187.0870  177.7590  145.5740 C   0  0  0  0  0  0  0  0  0  0  0  0
  188.8910  177.0890  144.1130 C   0  0  0  0  0  3  0  0  0  0  0  0
  186.6660  177.5930  143.2250 C   0  0  0  0  0  3  0  0  0  0  0  0
  1  2  1  6  0  0  0
  1 29  1  0  0  0  0
  2  3  1  1  0  0  0
  2  5  1  0  0  0  0
  4  7  2  0  0  0  0
  5  7  1  0  0  0  0
  6 14  1  0  0  0  0
  7  6  1  0  0  0  0
  8 12  1  0  0  0  0
 10  9  1  1  0  0  0
 11 16  1  6  0  0  0
 11 10  1  0  0  0  0
 12 11  1  0  0  0  0
 13  8  1  0  0  0  0
 13 14  2  0  0  0  0
 14 10  1  0  0  0  0
 16 15  1  0  0  0  0
 18  1  1  0  0  0  0
 18 17  1  6  0  0  0
 19 18  1  0  0  0  0
 20 24  1  6  0  0  0
 20 19  1  0  0  0  0
 21 23  2  0  0  0  0
 23 20  1  0  0  0  0
 23 22  1  0  0  0  0
 24 25  1  0  0  0  0
 25 27  1  0  0  0  0
 25 26  1  0  0  0  0
 28 25  2  0  0  0  0
 29 30  1  1  0  0  0
 29 31  1  0  0  0  0
 31 39  1  0  0  0  0
 32 38  1  0  0  0  0
 32 36  1  0  0  0  0
 34 40  1  0  0  0  0
 35 36  2  0  0  0  0
 36 33  1  0  0  0  0
 37 40  2  0  0  0  0
 37 32  1  0  0  0  0
 39 42  1  0  0  0  0
 39 41  2  0  0  0  0
 40 35  1  0  0  0  0
 41 37  1  0  0  0  0
 42 34  2  0  0  0  0
M  END
>  <MODEL>
8

>  <REMARK>
 VINA RESULT:      -6.5      2.815      6.452
  Name = 
  13 active torsions:
  status: ('A' for Active; 'I' for Inactive)
    1  A    between atoms: N_3  and  C_19
    2  A    between atoms: N_3  and  C_29
    3  A    between atoms: P_7  and  O_42
    4  A    between atoms: C_12  and  N_15
    5  A    between atoms: C_12  and  C_36
    6  A    between atoms: C_16  and  S_27
    7  A    between atoms: C_16  and  C_41
    8  A    between atoms: C_16  and  O_42
    9  A    between atoms: N_22  and  C_33
   10  A    between atoms: C_25  and  O_30
   11  A    between atoms: S_27  and  C_38
   12  A    between atoms: C_29  and  C_36
   13  A    between atoms: C_36  and  C_38
                            x       y       z     vdW  Elec       q    Type
                         _______ _______ _______ _____ _____    ______ ____

>  <TORSDO>
F 13

$$$$
=
 OpenBabel10222418503D

 42 44  0  0  1  0  0  0  0  0999 V2000
  183.8730  178.0060  139.0250 C   0  0  1  0  0  3  0  0  0  0  0  0
  184.5260  179.0170  139.9800 C   0  0  1  0  0  3  0  0  0  0  0  0
  183.6100  180.0130  140.3250 O   0  0  0  0  0  1  0  0  0  0  0  0
  187.2490  178.7020  140.7460 O   0  0  0  0  0  0  0  0  0  0  0  0
  184.9870  178.3500  141.1900 N   0  0  0  0  0  2  0  0  0  0  0  0
  186.7380  177.5970  142.7530 N   0  0  0  0  0  2  0  0  0  0  0  0
  186.3700  178.2390  141.5250 C   0  0  0  0  0  0  0  0  0  0  0  0
  190.2370  176.1230  143.2280 C   0  0  0  0  0  2  0  0  0  0  0  0
  187.7360  177.9280  145.6570 C   0  0  0  0  0  1  0  0  0  0  0  0
  188.5340  178.2440  144.4020 C   0  0  1  0  0  3  0  0  0  0  0  0
  190.0360  178.1330  144.7020 C   0  0  1  0  0  3  0  0  0  0  0  0
  190.4950  176.6770  144.6250 C   0  0  0  0  0  2  0  0  0  0  0  0
  188.8260  176.3740  142.7810 C   0  0  0  0  0  3  0  0  0  0  0  0
  188.0660  177.3750  143.2560 C   0  0  0  0  0  0  0  0  0  0  0  0
  192.0320  179.0280  144.3710 C   0  0  0  0  0  1  0  0  0  0  0  0
  190.7630  178.9180  143.8030 O   0  0  0  0  0  0  0  0  0  0  0  0
  182.0310  178.3910  137.3060 C   0  0  0  0  0  1  0  0  0  0  0  0
  182.3910  178.3250  138.7820 C   0  0  1  0  0  3  0  0  0  0  0  0
  181.3150  177.1360  139.6380 S   0  0  0  0  0  0  0  0  0  0  0  0
  180.6530  178.4230  140.7350 C   0  0  1  0  0  3  0  0  0  0  0  0
  179.0740  179.2200  139.1420 O   0  0  0  0  0  0  0  0  0  0  0  0
  180.4510  180.8170  140.0420 O   0  0  0  0  0  1  0  0  0  0  0  0
  180.0160  179.5010  139.9260 C   0  0  0  0  0  0  0  0  0  0  0  0
  179.7130  177.8630  141.6040 O   0  0  0  0  0  0  0  0  0  0  0  0
  179.9420  178.6500  143.0890 P   0  0  0  0  0  0  0  0  0  0  0  0
  181.5100  179.2770  143.1790 O   0  0  0  0  0  0  0  0  0  0  0  0
  179.6940  177.5650  144.3640 O   0  0  0  0  0  1  0  0  0  0  0  0
  178.9480  179.7830  143.2060 O   0  0  0  0  0  1  0  0  0  0  0  0
  184.6390  177.7960  137.7060 C   0  0  2  0  0  3  0  0  0  0  0  0
  184.9280  176.3260  137.4660 C   0  0  0  0  0  1  0  0  0  0  0  0
  185.8740  178.5710  137.6630 N   0  0  0  0  0  2  0  0  0  0  0  0
  190.4120  176.6670  137.8330 N   0  0  0  0  0  0  0  0  0  0  0  0
  192.4740  175.7470  136.8980 N   0  0  0  0  0  1  0  0  0  0  0  0
  188.3660  177.4800  135.0830 C   0  0  0  0  0  3  0  0  0  0  0  0
  190.5860  176.5480  135.5700 N   0  0  0  0  0  0  0  0  0  0  0  0
  191.1750  176.3150  136.7730 C   0  0  0  0  0  0  0  0  0  0  0  0
  189.2890  177.1480  137.2850 C   0  0  0  0  0  0  0  0  0  0  0  0
  190.7330  176.5380  139.2460 C   0  0  0  0  0  1  0  0  0  0  0  0
  187.0850  178.0690  137.0930 C   0  0  0  0  0  0  0  0  0  0  0  0
  189.3960  177.0710  135.9260 C   0  0  0  0  0  0  0  0  0  0  0  0
  188.1500  177.6420  137.9160 C   0  0  0  0  0  3  0  0  0  0  0  0
  187.1970  177.9830  135.6860 C   0  0  0  0  0  3  0  0  0  0  0  0
  1 29  1  6  0  0  0
  1  2  1  0  0  0  0
  2  3  1  1  0  0  0
  2  5  1  0  0  0  0
  4  7  2  0  0  0  0
  5  7  1  0  0  0  0
  6 14  1  0  0  0  0
  7  6  1  0  0  0  0
  8 12  1  0  0  0  0
 10 11  1  0  0  0  0
 10  9  1  1  0  0  0
 11 16  1  6  0  0  0
 12 11  1  0  0  0  0
 13  8  1  0  0  0  0
 13 14  2  0  0  0  0
 14 10  1  0  0  0  0
 16 15  1  0  0  0  0
 18 17  1  6  0  0  0
 18  1  1  0  0  0  0
 18 19  1  0  0  0  0
 20 19  1  6  0  0  0
 20 24  1  0  0  0  0
 21 23  2  0  0  0  0
 23 22  1  0  0  0  0
 23 20  1  0  0  0  0
 24 25  1  0  0  0  0
 25 26  2  0  0  0  0
 25 28  1  0  0  0  0
 25 27  1  0  0  0  0
 29 30  1  1  0  0  0
 31 29  1  0  0  0  0
 32 38  1  0  0  0  0
 34 42  2  0  0  0  0
 34 40  1  0  0  0  0
 35 40  1  0  0  0  0
 35 36  2  0  0  0  0
 36 33  1  0  0  0  0
 36 32  1  0  0  0  0
 37 32  1  0  0  0  0
 37 41  1  0  0  0  0
 39 31  1  0  0  0  0
 39 41  2  0  0  0  0
 40 37  2  0  0  0  0
 42 39  1  0  0  0  0
M  END
>  <MODEL>
9

>  <REMARK>
 VINA RESULT:      -6.5      4.590      7.372
  Name = 
  13 active torsions:
  status: ('A' for Active; 'I' for Inactive)
    1  A    between atoms: N_3  and  C_19
    2  A    between atoms: N_3  and  C_29
    3  A    between atoms: P_7  and  O_42
    4  A    between atoms: C_12  and  N_15
    5  A    between atoms: C_12  and  C_36
    6  A    between atoms: C_16  and  S_27
    7  A    between atoms: C_16  and  C_41
    8  A    between atoms: C_16  and  O_42
    9  A    between atoms: N_22  and  C_33
   10  A    between atoms: C_25  and  O_30
   11  A    between atoms: S_27  and  C_38
   12  A    between atoms: C_29  and  C_36
   13  A    between atoms: C_36  and  C_38
                            x       y       z     vdW  Elec       q    Type
                         _______ _______ _______ _____ _____    ______ ____

>  <TORSDO>
F 13

$$$$
