=
 OpenBabel10222418003D

 35 39  0  0  1  0  0  0  0  0999 V2000
  189.6390  176.9270  143.5350 C   0  0  0  0  0  0  0  0  0  0  0  0
  189.2530  175.6160  143.2880 O   0  0  0  0  0  1  0  0  0  0  0  0
  189.9020  178.8570  144.5400 O   0  0  0  0  0  0  0  0  0  0  0  0
  189.4380  177.6370  144.6990 C   0  0  0  0  0  0  0  0  0  0  0  0
  190.4230  178.9830  143.3350 C   0  0  0  0  0  3  0  0  0  0  0  0
  190.2780  177.7790  142.6620 C   0  0  0  0  0  0  0  0  0  0  0  0
  192.1070  177.0740  139.5390 N   0  0  0  0  0  0  0  0  0  0  0  0
  188.7040  178.2840  138.3640 C   0  0  0  0  0  0  0  0  0  0  0  0
  190.5910  177.0360  137.7030 N   0  0  0  0  0  0  0  0  0  0  0  0
  187.8170  179.0130  137.7430 O   0  0  0  0  0  0  0  0  0  0  0  0
  189.8570  177.0780  140.1490 C   0  0  2  0  0  3  0  0  0  0  0  0
  188.8510  178.1150  139.6840 C   0  0  0  0  0  3  0  0  0  0  0  0
  190.7240  177.4930  141.2870 C   0  0  0  0  0  0  0  0  0  0  0  0
  191.9980  177.4130  140.9180 C   0  0  0  0  0  3  0  0  0  0  0  0
  189.5070  177.6990  137.4230 C   0  0  0  0  0  0  0  0  0  0  0  0
  188.0520  178.8730  136.4460 C   0  0  0  0  0  3  0  0  0  0  0  0
  190.9110  176.8780  139.0950 C   0  0  0  0  0  0  0  0  0  0  0  0
  189.1120  178.0580  136.1910 N   0  0  0  0  0  0  0  0  0  0  0  0
  188.7640  177.1750  145.9240 C   0  0  0  0  0  0  0  0  0  0  0  0
  187.4900  177.4830  146.2270 C   0  0  0  0  0  3  0  0  0  0  0  0
  184.7180  179.7710  145.0130 C   0  0  0  0  0  3  0  0  0  0  0  0
  185.6140  179.1230  145.8680 C   0  0  0  0  0  3  0  0  0  0  0  0
  186.4950  177.8660  144.0000 C   0  0  0  0  0  3  0  0  0  0  0  0
  184.7090  179.4620  143.6510 C   0  0  0  0  0  3  0  0  0  0  0  0
  185.6000  178.5080  143.1370 C   0  0  0  0  0  0  0  0  0  0  0  0
  186.4940  178.1520  145.3700 C   0  0  0  0  0  0  0  0  0  0  0  0
  185.6200  178.1840  141.7440 N   0  0  0  0  0  2  0  0  0  0  0  0
  184.5860  178.5960  140.8070 C   0  0  1  0  0  3  0  0  0  0  0  0
  185.1500  178.5620  139.3980 C   0  0  0  0  0  1  0  0  0  0  0  0
  183.3930  177.6590  140.9090 C   0  0  0  0  0  2  0  0  0  0  0  0
  182.1070  178.4510  141.0420 C   0  0  0  0  0  1  0  0  0  0  0  0
  189.5380  176.3860  146.8360 N   0  0  0  0  0  2  0  0  0  0  0  0
  190.7760  176.8370  147.4650 C   0  0  0  0  0  2  0  0  0  0  0  0
  191.9520  175.9980  146.9930 C   0  0  0  0  0  2  0  0  0  0  0  0
  192.8410  175.6290  148.1650 C   0  0  0  0  0  1  0  0  0  0  0  0
  1  4  2  0  0  0  0
  2  1  1  0  0  0  0
  3  4  1  0  0  0  0
  4 19  1  0  0  0  0
  5  3  1  0  0  0  0
  6  5  2  0  0  0  0
  6  1  1  0  0  0  0
  7 14  1  0  0  0  0
  8 12  2  0  0  0  0
  9 17  1  0  0  0  0
 10  8  1  0  0  0  0
 11 12  1  6  0  0  0
 11 13  1  0  0  0  0
 13  6  1  0  0  0  0
 14 13  2  0  0  0  0
 15  9  2  0  0  0  0
 15  8  1  0  0  0  0
 16 10  1  0  0  0  0
 17  7  2  0  0  0  0
 17 11  1  0  0  0  0
 18 16  2  0  0  0  0
 18 15  1  0  0  0  0
 19 20  2  0  0  0  0
 19 32  1  0  0  0  0
 21 22  1  0  0  0  0
 23 26  1  0  0  0  0
 24 21  2  0  0  0  0
 25 24  1  0  0  0  0
 25 23  2  0  0  0  0
 26 22  2  0  0  0  0
 26 20  1  0  0  0  0
 27 25  1  0  0  0  0
 28 29  1  6  0  0  0
 28 30  1  0  0  0  0
 28 27  1  0  0  0  0
 30 31  1  0  0  0  0
 32 33  1  0  0  0  0
 34 33  1  0  0  0  0
 34 35  1  0  0  0  0
M  END
>  <MODEL>
1

>  <REMARK>
 VINA RESULT:      -8.9      0.000      0.000
  Name = 
  9 active torsions:
  status: ('A' for Active; 'I' for Inactive)
    1  A    between atoms: C_5  and  C_8
    2  A    between atoms: C_8  and  N_19
    3  A    between atoms: C_10  and  C_23
    4  A    between atoms: N_14  and  C_23
    5  A    between atoms: N_14  and  C_28
    6  A    between atoms: C_15  and  N_19
    7  A    between atoms: C_15  and  C_30
    8  A    between atoms: C_17  and  C_35
    9  A    between atoms: C_25  and  C_31
                            x       y       z     vdW  Elec       q    Type
                         _______ _______ _______ _____ _____    ______ ____

>  <TORSDO>
F 9

$$$$
=
 OpenBabel10222418003D

 35 39  0  0  1  0  0  0  0  0999 V2000
  189.8270  177.9250  143.2300 C   0  0  0  0  0  0  0  0  0  0  0  0
  190.2940  179.2340  143.2170 O   0  0  0  0  0  1  0  0  0  0  0  0
  189.3240  175.9100  143.9310 O   0  0  0  0  0  0  0  0  0  0  0  0
  189.7900  177.0770  144.3160 C   0  0  0  0  0  0  0  0  0  0  0  0
  189.0280  175.9500  142.6460 C   0  0  0  0  0  3  0  0  0  0  0  0
  189.3310  177.2130  142.1610 C   0  0  0  0  0  0  0  0  0  0  0  0
  188.2330  178.7050  138.9730 N   0  0  0  0  0  0  0  0  0  0  0  0
  190.7140  176.0240  137.9330 C   0  0  0  0  0  0  0  0  0  0  0  0
  189.6850  178.0190  137.2150 N   0  0  0  0  0  0  0  0  0  0  0  0
  191.1820  174.9610  137.3370 O   0  0  0  0  0  0  0  0  0  0  0  0
  190.1740  177.6320  139.6910 C   0  0  2  0  0  3  0  0  0  0  0  0
  190.5910  176.2410  139.2490 C   0  0  0  0  0  3  0  0  0  0  0  0
  189.1520  177.6790  140.7750 C   0  0  0  0  0  0  0  0  0  0  0  0
  188.0910  178.3540  140.3460 C   0  0  0  0  0  3  0  0  0  0  0  0
  190.3390  176.9210  136.9700 C   0  0  0  0  0  0  0  0  0  0  0  0
  191.1150  175.1970  136.0340 C   0  0  0  0  0  3  0  0  0  0  0  0
  189.4020  178.3090  138.5940 C   0  0  0  0  0  0  0  0  0  0  0  0
  190.5840  176.4180  135.7500 N   0  0  0  0  0  0  0  0  0  0  0  0
  190.2450  177.3610  145.6890 C   0  0  0  0  0  0  0  0  0  0  0  0
  189.4420  177.8620  146.6440 C   0  0  0  0  0  3  0  0  0  0  0  0
  185.8570  178.6430  147.6100 C   0  0  0  0  0  3  0  0  0  0  0  0
  187.2340  178.4250  147.7150 C   0  0  0  0  0  3  0  0  0  0  0  0
  187.3410  177.9380  145.3490 C   0  0  0  0  0  3  0  0  0  0  0  0
  185.2230  178.5050  146.3740 C   0  0  0  0  0  3  0  0  0  0  0  0
  185.9640  178.1520  145.2350 C   0  0  0  0  0  0  0  0  0  0  0  0
  187.9810  178.0510  146.5880 C   0  0  0  0  0  0  0  0  0  0  0  0
  185.3400  178.0170  143.9550 N   0  0  0  0  0  2  0  0  0  0  0  0
  184.3790  178.9730  143.4230 C   0  0  1  0  0  3  0  0  0  0  0  0
  184.2390  178.7560  141.9270 C   0  0  0  0  0  1  0  0  0  0  0  0
  183.0320  178.7830  144.1010 C   0  0  0  0  0  2  0  0  0  0  0  0
  181.9050  179.0750  143.1310 C   0  0  0  0  0  1  0  0  0  0  0  0
  191.6260  177.1120  145.9820 N   0  0  0  0  0  2  0  0  0  0  0  0
  192.1830  175.7910  146.2560 C   0  0  0  0  0  2  0  0  0  0  0  0
  191.9190  175.3880  147.6980 C   0  0  0  0  0  2  0  0  0  0  0  0
  193.0080  175.9290  148.6040 C   0  0  0  0  0  1  0  0  0  0  0  0
  1  4  2  0  0  0  0
  2  1  1  0  0  0  0
  3  4  1  0  0  0  0
  4 19  1  0  0  0  0
  5  3  1  0  0  0  0
  6  5  2  0  0  0  0
  6  1  1  0  0  0  0
  7 14  1  0  0  0  0
  8 12  2  0  0  0  0
  9 17  1  0  0  0  0
 10  8  1  0  0  0  0
 11 12  1  6  0  0  0
 11 13  1  0  0  0  0
 13  6  1  0  0  0  0
 14 13  2  0  0  0  0
 15  9  2  0  0  0  0
 15  8  1  0  0  0  0
 16 10  1  0  0  0  0
 17  7  2  0  0  0  0
 17 11  1  0  0  0  0
 18 16  2  0  0  0  0
 18 15  1  0  0  0  0
 19 32  1  0  0  0  0
 19 20  2  0  0  0  0
 21 22  1  0  0  0  0
 23 26  1  0  0  0  0
 24 21  2  0  0  0  0
 25 23  2  0  0  0  0
 25 24  1  0  0  0  0
 26 20  1  0  0  0  0
 26 22  2  0  0  0  0
 27 25  1  0  0  0  0
 28 29  1  6  0  0  0
 28 27  1  0  0  0  0
 28 30  1  0  0  0  0
 31 30  1  0  0  0  0
 32 33  1  0  0  0  0
 33 34  1  0  0  0  0
 34 35  1  0  0  0  0
M  END
>  <MODEL>
2

>  <REMARK>
 VINA RESULT:      -8.3      1.773      2.647
  Name = 
  9 active torsions:
  status: ('A' for Active; 'I' for Inactive)
    1  A    between atoms: C_5  and  C_8
    2  A    between atoms: C_8  and  N_19
    3  A    between atoms: C_10  and  C_23
    4  A    between atoms: N_14  and  C_23
    5  A    between atoms: N_14  and  C_28
    6  A    between atoms: C_15  and  N_19
    7  A    between atoms: C_15  and  C_30
    8  A    between atoms: C_17  and  C_35
    9  A    between atoms: C_25  and  C_31
                            x       y       z     vdW  Elec       q    Type
                         _______ _______ _______ _____ _____    ______ ____

>  <TORSDO>
F 9

$$$$
=
 OpenBabel10222418003D

 35 39  0  0  1  0  0  0  0  0999 V2000
  190.0770  177.1530  141.3450 C   0  0  0  0  0  0  0  0  0  0  0  0
  188.7740  176.8290  141.7030 O   0  0  0  0  0  1  0  0  0  0  0  0
  191.8140  177.7220  140.1360 O   0  0  0  0  0  0  0  0  0  0  0  0
  190.5120  177.5440  140.0970 C   0  0  0  0  0  0  0  0  0  0  0  0
  192.2590  177.4930  141.3560 C   0  0  0  0  0  3  0  0  0  0  0  0
  191.1880  177.1290  142.1570 C   0  0  0  0  0  0  0  0  0  0  0  0
  191.7980  175.6880  145.4960 N   0  0  0  0  0  0  0  0  0  0  0  0
  188.7030  177.8380  145.9690 C   0  0  0  0  0  0  0  0  0  0  0  0
  190.4970  176.8380  147.1260 N   0  0  0  0  0  0  0  0  0  0  0  0
  187.4740  178.1550  146.2710 O   0  0  0  0  0  0  0  0  0  0  0  0
  190.7930  177.6430  144.7200 C   0  0  2  0  0  3  0  0  0  0  0  0
  189.3010  177.9130  144.7730 C   0  0  0  0  0  3  0  0  0  0  0  0
  191.2490  176.7870  143.5890 C   0  0  0  0  0  0  0  0  0  0  0  0
  191.8730  175.7180  144.0740 C   0  0  0  0  0  3  0  0  0  0  0  0
  189.3170  177.3860  147.1060 C   0  0  0  0  0  0  0  0  0  0  0  0
  187.3300  177.9210  147.5690 C   0  0  0  0  0  3  0  0  0  0  0  0
  191.1980  176.7670  145.8730 C   0  0  0  0  0  0  0  0  0  0  0  0
  188.4630  177.4290  148.1400 N   0  0  0  0  0  0  0  0  0  0  0  0
  189.7060  177.6900  138.8730 C   0  0  0  0  0  0  0  0  0  0  0  0
  190.0330  177.1180  137.7000 C   0  0  0  0  0  3  0  0  0  0  0  0
  191.8760  173.8480  137.1450 C   0  0  0  0  0  3  0  0  0  0  0  0
  190.8500  174.7500  137.4430 C   0  0  0  0  0  3  0  0  0  0  0  0
  192.3720  176.5990  137.1020 C   0  0  0  0  0  3  0  0  0  0  0  0
  193.1500  174.3230  136.8300 C   0  0  0  0  0  3  0  0  0  0  0  0
  193.4050  175.7030  136.8060 C   0  0  0  0  0  0  0  0  0  0  0  0
  191.0980  176.1310  137.4430 C   0  0  0  0  0  0  0  0  0  0  0  0
  194.6980  176.2150  136.4720 N   0  0  0  0  0  2  0  0  0  0  0  0
  195.1590  176.4080  135.1050 C   0  0  1  0  0  3  0  0  0  0  0  0
  195.6870  177.8230  134.9550 C   0  0  0  0  0  1  0  0  0  0  0  0
  196.2600  175.4090  134.7850 C   0  0  0  0  0  2  0  0  0  0  0  0
  197.1730  175.2270  135.9820 C   0  0  0  0  0  1  0  0  0  0  0  0
  188.5380  178.5170  138.9560 N   0  0  0  0  0  2  0  0  0  0  0  0
  187.1760  178.0390  138.7390 C   0  0  0  0  0  2  0  0  0  0  0  0
  186.7340  178.3130  137.3100 C   0  0  0  0  0  2  0  0  0  0  0  0
  186.3050  177.0240  136.6350 C   0  0  0  0  0  1  0  0  0  0  0  0
  1  2  1  0  0  0  0
  1  6  1  0  0  0  0
  3  5  1  0  0  0  0
  4  3  1  0  0  0  0
  4  1  2  0  0  0  0
  5  6  2  0  0  0  0
  6 13  1  0  0  0  0
  7 17  2  0  0  0  0
  8 10  1  0  0  0  0
  8 15  1  0  0  0  0
 10 16  1  0  0  0  0
 11 12  1  6  0  0  0
 11 17  1  0  0  0  0
 12  8  2  0  0  0  0
 13 14  2  0  0  0  0
 13 11  1  0  0  0  0
 14  7  1  0  0  0  0
 15  9  2  0  0  0  0
 15 18  1  0  0  0  0
 16 18  2  0  0  0  0
 17  9  1  0  0  0  0
 19 32  1  0  0  0  0
 19  4  1  0  0  0  0
 20 19  2  0  0  0  0
 21 22  1  0  0  0  0
 22 26  2  0  0  0  0
 23 26  1  0  0  0  0
 24 21  2  0  0  0  0
 25 24  1  0  0  0  0
 25 23  2  0  0  0  0
 26 20  1  0  0  0  0
 27 25  1  0  0  0  0
 28 29  1  1  0  0  0
 28 27  1  0  0  0  0
 30 28  1  0  0  0  0
 30 31  1  0  0  0  0
 33 32  1  0  0  0  0
 34 33  1  0  0  0  0
 35 34  1  0  0  0  0
M  END
>  <MODEL>
3

>  <REMARK>
 VINA RESULT:      -7.9      3.129      9.180
  Name = 
  9 active torsions:
  status: ('A' for Active; 'I' for Inactive)
    1  A    between atoms: C_5  and  C_8
    2  A    between atoms: C_8  and  N_19
    3  A    between atoms: C_10  and  C_23
    4  A    between atoms: N_14  and  C_23
    5  A    between atoms: N_14  and  C_28
    6  A    between atoms: C_15  and  N_19
    7  A    between atoms: C_15  and  C_30
    8  A    between atoms: C_17  and  C_35
    9  A    between atoms: C_25  and  C_31
                            x       y       z     vdW  Elec       q    Type
                         _______ _______ _______ _____ _____    ______ ____

>  <TORSDO>
F 9

$$$$
=
 OpenBabel10222418003D

 35 39  0  0  1  0  0  0  0  0999 V2000
  183.8420  178.6890  142.0890 C   0  0  0  0  0  0  0  0  0  0  0  0
  182.6700  178.2240  142.6740 O   0  0  0  0  0  1  0  0  0  0  0  0
  185.2760  179.3730  140.5790 O   0  0  0  0  0  0  0  0  0  0  0  0
  184.0240  179.0140  140.7630 C   0  0  0  0  0  0  0  0  0  0  0  0
  185.9260  179.3240  141.7260 C   0  0  0  0  0  3  0  0  0  0  0  0
  185.0520  178.8950  142.7130 C   0  0  0  0  0  0  0  0  0  0  0  0
  185.2920  178.9350  146.3920 N   0  0  0  0  0  0  0  0  0  0  0  0
  188.6070  177.4610  145.2640 C   0  0  0  0  0  0  0  0  0  0  0  0
  187.1310  177.5970  147.0980 N   0  0  0  0  0  0  0  0  0  0  0  0
  189.8970  177.3270  145.1270 O   0  0  0  0  0  0  0  0  0  0  0  0
  186.2340  177.6260  144.7070 C   0  0  2  0  0  3  0  0  0  0  0  0
  187.6970  177.6780  144.3070 C   0  0  0  0  0  3  0  0  0  0  0  0
  185.3750  178.7020  144.1370 C   0  0  0  0  0  0  0  0  0  0  0  0
  184.8080  179.3810  145.1290 C   0  0  0  0  0  3  0  0  0  0  0  0
  188.3070  177.3530  146.5960 C   0  0  0  0  0  0  0  0  0  0  0  0
  190.3890  177.1250  146.3430 C   0  0  0  0  0  3  0  0  0  0  0  0
  186.0910  177.9450  146.1700 C   0  0  0  0  0  0  0  0  0  0  0  0
  189.4260  177.1390  147.3050 N   0  0  0  0  0  0  0  0  0  0  0  0
  183.0320  178.9310  139.6760 C   0  0  0  0  0  0  0  0  0  0  0  0
  183.3140  178.4390  138.4560 C   0  0  0  0  0  3  0  0  0  0  0  0
  185.7130  175.8020  137.1600 C   0  0  0  0  0  3  0  0  0  0  0  0
  184.5370  176.4070  137.6130 C   0  0  0  0  0  3  0  0  0  0  0  0
  185.7260  178.4880  137.9340 C   0  0  0  0  0  3  0  0  0  0  0  0
  186.8970  176.5410  137.0980 C   0  0  0  0  0  3  0  0  0  0  0  0
  186.9080  177.8900  137.4840 C   0  0  0  0  0  0  0  0  0  0  0  0
  184.5420  177.7490  138.0220 C   0  0  0  0  0  0  0  0  0  0  0  0
  188.1050  178.6720  137.4170 N   0  0  0  0  0  2  0  0  0  0  0  0
  189.2200  178.5180  138.3400 C   0  0  1  0  0  3  0  0  0  0  0  0
  188.6820  178.1660  139.7140 C   0  0  0  0  0  1  0  0  0  0  0  0
  190.1460  177.4160  137.8490 C   0  0  0  0  0  2  0  0  0  0  0  0
  190.4350  176.4310  138.9660 C   0  0  0  0  0  1  0  0  0  0  0  0
  181.7200  179.4380  139.9510 N   0  0  0  0  0  2  0  0  0  0  0  0
  180.4830  178.7560  139.5850 C   0  0  0  0  0  2  0  0  0  0  0  0
  180.2790  177.5190  140.4450 C   0  0  0  0  0  2  0  0  0  0  0  0
  180.4640  176.2630  139.6150 C   0  0  0  0  0  1  0  0  0  0  0  0
  1  2  1  0  0  0  0
  1  6  1  0  0  0  0
  3  4  1  0  0  0  0
  3  5  1  0  0  0  0
  4  1  2  0  0  0  0
  5  6  2  0  0  0  0
  6 13  1  0  0  0  0
  8 15  1  0  0  0  0
 10  8  1  0  0  0  0
 10 16  1  0  0  0  0
 11 12  1  6  0  0  0
 11 17  1  0  0  0  0
 12  8  2  0  0  0  0
 13 11  1  0  0  0  0
 13 14  2  0  0  0  0
 14  7  1  0  0  0  0
 15  9  2  0  0  0  0
 15 18  1  0  0  0  0
 16 18  2  0  0  0  0
 17  7  2  0  0  0  0
 17  9  1  0  0  0  0
 19 32  1  0  0  0  0
 19  4  1  0  0  0  0
 20 19  2  0  0  0  0
 21 22  1  0  0  0  0
 22 26  2  0  0  0  0
 23 26  1  0  0  0  0
 24 21  2  0  0  0  0
 24 25  1  0  0  0  0
 25 23  2  0  0  0  0
 26 20  1  0  0  0  0
 27 25  1  0  0  0  0
 27 28  1  0  0  0  0
 28 29  1  1  0  0  0
 30 28  1  0  0  0  0
 30 31  1  0  0  0  0
 33 32  1  0  0  0  0
 33 34  1  0  0  0  0
 35 34  1  0  0  0  0
M  END
>  <MODEL>
4

>  <REMARK>
 VINA RESULT:      -7.8      2.385      8.422
  Name = 
  9 active torsions:
  status: ('A' for Active; 'I' for Inactive)
    1  A    between atoms: C_5  and  C_8
    2  A    between atoms: C_8  and  N_19
    3  A    between atoms: C_10  and  C_23
    4  A    between atoms: N_14  and  C_23
    5  A    between atoms: N_14  and  C_28
    6  A    between atoms: C_15  and  N_19
    7  A    between atoms: C_15  and  C_30
    8  A    between atoms: C_17  and  C_35
    9  A    between atoms: C_25  and  C_31
                            x       y       z     vdW  Elec       q    Type
                         _______ _______ _______ _____ _____    ______ ____

>  <TORSDO>
F 9

$$$$
=
 OpenBabel10222418003D

 35 39  0  0  1  0  0  0  0  0999 V2000
  190.1670  176.8060  143.0210 C   0  0  0  0  0  0  0  0  0  0  0  0
  190.1300  175.4210  142.9150 O   0  0  0  0  0  1  0  0  0  0  0  0
  190.2540  178.8180  143.8870 O   0  0  0  0  0  0  0  0  0  0  0  0
  190.3060  177.5370  144.1810 C   0  0  0  0  0  0  0  0  0  0  0  0
  190.1100  178.9710  142.5850 C   0  0  0  0  0  3  0  0  0  0  0  0
  190.0520  177.7170  141.9960 C   0  0  0  0  0  0  0  0  0  0  0  0
  188.9070  176.9230  138.5820 N   0  0  0  0  0  0  0  0  0  0  0  0
  192.6580  176.3370  138.4590 C   0  0  0  0  0  0  0  0  0  0  0  0
  190.7750  176.7840  137.1120 N   0  0  0  0  0  0  0  0  0  0  0  0
  193.7890  175.7100  138.2840 O   0  0  0  0  0  0  0  0  0  0  0  0
  190.9090  177.6920  139.4950 C   0  0  2  0  0  3  0  0  0  0  0  0
  192.1760  176.8610  139.5920 C   0  0  0  0  0  3  0  0  0  0  0  0
  189.8950  177.4390  140.5570 C   0  0  0  0  0  0  0  0  0  0  0  0
  188.7520  177.0670  139.9900 C   0  0  0  0  0  3  0  0  0  0  0  0
  192.0020  176.3730  137.2580 C   0  0  0  0  0  0  0  0  0  0  0  0
  193.8420  175.3760  137.0010 C   0  0  0  0  0  3  0  0  0  0  0  0
  190.1140  177.2750  138.2890 C   0  0  0  0  0  0  0  0  0  0  0  0
  192.7360  175.7670  136.3120 N   0  0  0  0  0  0  0  0  0  0  0  0
  190.4320  177.0210  145.5550 C   0  0  0  0  0  0  0  0  0  0  0  0
  189.4600  177.1340  146.4780 C   0  0  0  0  0  3  0  0  0  0  0  0
  186.0610  178.7180  147.0530 C   0  0  0  0  0  3  0  0  0  0  0  0
  187.3530  178.2440  147.2960 C   0  0  0  0  0  3  0  0  0  0  0  0
  187.5060  177.4760  145.0080 C   0  0  0  0  0  3  0  0  0  0  0  0
  185.4910  178.5660  145.7870 C   0  0  0  0  0  3  0  0  0  0  0  0
  186.2120  177.9440  144.7570 C   0  0  0  0  0  0  0  0  0  0  0  0
  188.0760  177.6020  146.2800 C   0  0  0  0  0  0  0  0  0  0  0  0
  185.6560  177.7900  143.4480 N   0  0  0  0  0  2  0  0  0  0  0  0
  184.9550  178.8520  142.7400 C   0  0  1  0  0  3  0  0  0  0  0  0
  185.6150  179.0680  141.3910 C   0  0  0  0  0  1  0  0  0  0  0  0
  183.4970  178.4680  142.5470 C   0  0  0  0  0  2  0  0  0  0  0  0
  182.6510  179.0100  143.6830 C   0  0  0  0  0  1  0  0  0  0  0  0
  191.6760  176.4020  145.9080 N   0  0  0  0  0  2  0  0  0  0  0  0
  191.8920  175.6270  147.1260 C   0  0  0  0  0  2  0  0  0  0  0  0
  192.5180  176.4930  148.2070 C   0  0  0  0  0  2  0  0  0  0  0  0
  193.1480  175.6250  149.2790 C   0  0  0  0  0  1  0  0  0  0  0  0
  1  4  2  0  0  0  0
  2  1  1  0  0  0  0
  3  4  1  0  0  0  0
  4 19  1  0  0  0  0
  5  3  1  0  0  0  0
  6  5  2  0  0  0  0
  6  1  1  0  0  0  0
  7 14  1  0  0  0  0
  8 12  2  0  0  0  0
  9 15  2  0  0  0  0
  9 17  1  0  0  0  0
 10  8  1  0  0  0  0
 11 12  1  1  0  0  0
 11 13  1  0  0  0  0
 13  6  1  0  0  0  0
 14 13  2  0  0  0  0
 15  8  1  0  0  0  0
 16 10  1  0  0  0  0
 17  7  2  0  0  0  0
 17 11  1  0  0  0  0
 18 16  2  0  0  0  0
 18 15  1  0  0  0  0
 19 32  1  0  0  0  0
 19 20  2  0  0  0  0
 21 22  1  0  0  0  0
 23 26  1  0  0  0  0
 24 21  2  0  0  0  0
 25 23  2  0  0  0  0
 25 24  1  0  0  0  0
 26 20  1  0  0  0  0
 26 22  2  0  0  0  0
 27 25  1  0  0  0  0
 28 29  1  6  0  0  0
 28 27  1  0  0  0  0
 30 28  1  0  0  0  0
 30 31  1  0  0  0  0
 32 33  1  0  0  0  0
 33 34  1  0  0  0  0
 34 35  1  0  0  0  0
M  END
>  <MODEL>
5

>  <REMARK>
 VINA RESULT:      -7.8      1.862      2.685
  Name = 
  9 active torsions:
  status: ('A' for Active; 'I' for Inactive)
    1  A    between atoms: C_5  and  C_8
    2  A    between atoms: C_8  and  N_19
    3  A    between atoms: C_10  and  C_23
    4  A    between atoms: N_14  and  C_23
    5  A    between atoms: N_14  and  C_28
    6  A    between atoms: C_15  and  N_19
    7  A    between atoms: C_15  and  C_30
    8  A    between atoms: C_17  and  C_35
    9  A    between atoms: C_25  and  C_31
                            x       y       z     vdW  Elec       q    Type
                         _______ _______ _______ _____ _____    ______ ____

>  <TORSDO>
F 9

$$$$
=
 OpenBabel10222418003D

 35 39  0  0  1  0  0  0  0  0999 V2000
  186.1470  177.8730  142.8890 C   0  0  0  0  0  0  0  0  0  0  0  0
  186.0360  176.9560  143.9260 O   0  0  0  0  0  1  0  0  0  0  0  0
  185.6100  179.3450  141.3560 O   0  0  0  0  0  0  0  0  0  0  0  0
  185.1280  178.6250  142.3450 C   0  0  0  0  0  0  0  0  0  0  0  0
  186.9050  179.1240  141.2340 C   0  0  0  0  0  3  0  0  0  0  0  0
  187.2880  178.1960  142.1900 C   0  0  0  0  0  0  0  0  0  0  0  0
  190.5900  176.5660  142.0000 N   0  0  0  0  0  0  0  0  0  0  0  0
  190.1130  177.2600  145.7030 C   0  0  0  0  0  0  0  0  0  0  0  0
  191.7520  176.8460  144.0600 N   0  0  0  0  0  0  0  0  0  0  0  0
  190.0130  177.0280  146.9840 O   0  0  0  0  0  0  0  0  0  0  0  0
  189.6020  178.0890  143.4630 C   0  0  2  0  0  3  0  0  0  0  0  0
  189.1790  177.7540  144.8820 C   0  0  0  0  0  3  0  0  0  0  0  0
  188.6490  177.6710  142.3960 C   0  0  0  0  0  0  0  0  0  0  0  0
  189.2710  176.8580  141.5490 C   0  0  0  0  0  3  0  0  0  0  0  0
  191.3710  176.8950  145.3030 C   0  0  0  0  0  0  0  0  0  0  0  0
  191.1840  176.5460  147.3750 C   0  0  0  0  0  3  0  0  0  0  0  0
  190.7910  177.2560  143.0720 C   0  0  0  0  0  0  0  0  0  0  0  0
  192.0740  176.4370  146.3500 N   0  0  0  0  0  0  0  0  0  0  0  0
  183.7050  178.6150  142.7280 C   0  0  0  0  0  0  0  0  0  0  0  0
  182.7020  178.5070  141.8380 C   0  0  0  0  0  3  0  0  0  0  0  0
  182.9560  178.8920  138.0730 C   0  0  0  0  0  3  0  0  0  0  0  0
  182.8100  179.2150  139.4250 C   0  0  0  0  0  3  0  0  0  0  0  0
  182.9800  176.8740  140.0070 C   0  0  0  0  0  3  0  0  0  0  0  0
  183.1100  177.5580  137.6890 C   0  0  0  0  0  3  0  0  0  0  0  0
  183.1230  176.5410  138.6560 C   0  0  0  0  0  0  0  0  0  0  0  0
  182.8010  178.2050  140.3980 C   0  0  0  0  0  0  0  0  0  0  0  0
  183.2930  175.1690  138.2890 N   0  0  0  0  0  2  0  0  0  0  0  0
  184.1410  174.7280  137.1910 C   0  0  1  0  0  3  0  0  0  0  0  0
  185.4690  175.4580  137.2660 C   0  0  0  0  0  1  0  0  0  0  0  0
  184.3700  173.2280  137.2870 C   0  0  0  0  0  2  0  0  0  0  0  0
  185.8250  172.9330  137.5940 C   0  0  0  0  0  1  0  0  0  0  0  0
  183.4040  178.7650  144.1210 N   0  0  0  0  0  2  0  0  0  0  0  0
  184.2470  179.4830  145.0710 C   0  0  0  0  0  2  0  0  0  0  0  0
  184.4940  178.6390  146.3120 C   0  0  0  0  0  2  0  0  0  0  0  0
  185.8980  178.8710  146.8370 C   0  0  0  0  0  1  0  0  0  0  0  0
  1  2  1  0  0  0  0
  3  4  1  0  0  0  0
  4 19  1  0  0  0  0
  4  1  2  0  0  0  0
  5  3  1  0  0  0  0
  5  6  2  0  0  0  0
  6 13  1  0  0  0  0
  6  1  1  0  0  0  0
  7 17  2  0  0  0  0
  8 10  1  0  0  0  0
  9 15  2  0  0  0  0
 10 16  1  0  0  0  0
 11 12  1  1  0  0  0
 12  8  2  0  0  0  0
 13 11  1  0  0  0  0
 14  7  1  0  0  0  0
 14 13  2  0  0  0  0
 15  8  1  0  0  0  0
 15 18  1  0  0  0  0
 17 11  1  0  0  0  0
 17  9  1  0  0  0  0
 18 16  2  0  0  0  0
 19 32  1  0  0  0  0
 20 19  2  0  0  0  0
 21 22  1  0  0  0  0
 22 26  2  0  0  0  0
 23 26  1  0  0  0  0
 24 21  2  0  0  0  0
 24 25  1  0  0  0  0
 25 23  2  0  0  0  0
 26 20  1  0  0  0  0
 27 25  1  0  0  0  0
 28 29  1  1  0  0  0
 28 30  1  0  0  0  0
 28 27  1  0  0  0  0
 30 31  1  0  0  0  0
 32 33  1  0  0  0  0
 33 34  1  0  0  0  0
 34 35  1  0  0  0  0
M  END
>  <MODEL>
6

>  <REMARK>
 VINA RESULT:      -7.8      2.764      6.330
  Name = 
  9 active torsions:
  status: ('A' for Active; 'I' for Inactive)
    1  A    between atoms: C_5  and  C_8
    2  A    between atoms: C_8  and  N_19
    3  A    between atoms: C_10  and  C_23
    4  A    between atoms: N_14  and  C_23
    5  A    between atoms: N_14  and  C_28
    6  A    between atoms: C_15  and  N_19
    7  A    between atoms: C_15  and  C_30
    8  A    between atoms: C_17  and  C_35
    9  A    between atoms: C_25  and  C_31
                            x       y       z     vdW  Elec       q    Type
                         _______ _______ _______ _____ _____    ______ ____

>  <TORSDO>
F 9

$$$$
=
 OpenBabel10222418003D

 35 39  0  0  1  0  0  0  0  0999 V2000
  183.9170  178.7600  141.5910 C   0  0  0  0  0  0  0  0  0  0  0  0
  182.6610  178.5280  142.1380 O   0  0  0  0  0  1  0  0  0  0  0  0
  185.5090  179.0970  140.1230 O   0  0  0  0  0  0  0  0  0  0  0  0
  184.2090  178.9520  140.2580 C   0  0  0  0  0  0  0  0  0  0  0  0
  186.0900  179.0360  141.3060 C   0  0  0  0  0  3  0  0  0  0  0  0
  185.1140  178.8230  142.2670 C   0  0  0  0  0  0  0  0  0  0  0  0
  185.1030  179.0240  145.9490 N   0  0  0  0  0  0  0  0  0  0  0  0
  188.4700  177.4760  145.1180 C   0  0  0  0  0  0  0  0  0  0  0  0
  186.8750  177.7050  146.8380 N   0  0  0  0  0  0  0  0  0  0  0  0
  189.7660  177.3250  145.0770 O   0  0  0  0  0  0  0  0  0  0  0  0
  186.1430  177.6350  144.3930 C   0  0  2  0  0  3  0  0  0  0  0  0
  187.6310  177.6570  144.0910 C   0  0  0  0  0  3  0  0  0  0  0  0
  185.3380  178.6910  143.7180 C   0  0  0  0  0  0  0  0  0  0  0  0
  184.7110  179.4170  144.6380 C   0  0  0  0  0  3  0  0  0  0  0  0
  188.0790  177.4290  146.4290 C   0  0  0  0  0  0  0  0  0  0  0  0
  190.1710  177.1740  146.3300 C   0  0  0  0  0  3  0  0  0  0  0  0
  185.9040  178.0200  145.8260 C   0  0  0  0  0  0  0  0  0  0  0  0
  189.1450  177.2380  147.2220 N   0  0  0  0  0  0  0  0  0  0  0  0
  183.2680  178.9410  139.1250 C   0  0  0  0  0  0  0  0  0  0  0  0
  183.4810  178.2430  137.9950 C   0  0  0  0  0  3  0  0  0  0  0  0
  185.2880  174.9920  137.2490 C   0  0  0  0  0  3  0  0  0  0  0  0
  184.2610  175.8910  137.5470 C   0  0  0  0  0  3  0  0  0  0  0  0
  185.8550  177.7100  137.5730 C   0  0  0  0  0  3  0  0  0  0  0  0
  186.6000  175.4520  137.1170 C   0  0  0  0  0  3  0  0  0  0  0  0
  186.8890  176.8160  137.2780 C   0  0  0  0  0  0  0  0  0  0  0  0
  184.5420  177.2530  137.7310 C   0  0  0  0  0  0  0  0  0  0  0  0
  188.2230  177.3140  137.1340 N   0  0  0  0  0  2  0  0  0  0  0  0
  189.3510  176.8350  137.9200 C   0  0  1  0  0  3  0  0  0  0  0  0
  190.5410  176.6260  137.0020 C   0  0  0  0  0  1  0  0  0  0  0  0
  189.6990  177.8520  138.9950 C   0  0  0  0  0  2  0  0  0  0  0  0
  189.1410  177.4160  140.3360 C   0  0  0  0  0  1  0  0  0  0  0  0
  182.0910  179.7490  139.2470 N   0  0  0  0  0  2  0  0  0  0  0  0
  181.4440  180.4330  138.1310 C   0  0  0  0  0  2  0  0  0  0  0  0
  181.4920  181.9400  138.3260 C   0  0  0  0  0  2  0  0  0  0  0  0
  180.7510  182.6410  137.2040 C   0  0  0  0  0  1  0  0  0  0  0  0
  1  2  1  0  0  0  0
  1  6  1  0  0  0  0
  3  4  1  0  0  0  0
  3  5  1  0  0  0  0
  4  1  2  0  0  0  0
  5  6  2  0  0  0  0
  6 13  1  0  0  0  0
  8 15  1  0  0  0  0
 10  8  1  0  0  0  0
 10 16  1  0  0  0  0
 11 12  1  6  0  0  0
 11 17  1  0  0  0  0
 12  8  2  0  0  0  0
 13 11  1  0  0  0  0
 13 14  2  0  0  0  0
 14  7  1  0  0  0  0
 15  9  2  0  0  0  0
 15 18  1  0  0  0  0
 16 18  2  0  0  0  0
 17  7  2  0  0  0  0
 17  9  1  0  0  0  0
 19 32  1  0  0  0  0
 19  4  1  0  0  0  0
 20 19  2  0  0  0  0
 21 22  1  0  0  0  0
 22 26  2  0  0  0  0
 23 26  1  0  0  0  0
 24 21  2  0  0  0  0
 24 25  1  0  0  0  0
 25 23  2  0  0  0  0
 26 20  1  0  0  0  0
 27 25  1  0  0  0  0
 27 28  1  0  0  0  0
 28 29  1  6  0  0  0
 28 30  1  0  0  0  0
 30 31  1  0  0  0  0
 33 34  1  0  0  0  0
 33 32  1  0  0  0  0
 35 34  1  0  0  0  0
M  END
>  <MODEL>
7

>  <REMARK>
 VINA RESULT:      -7.8      2.736      8.702
  Name = 
  9 active torsions:
  status: ('A' for Active; 'I' for Inactive)
    1  A    between atoms: C_5  and  C_8
    2  A    between atoms: C_8  and  N_19
    3  A    between atoms: C_10  and  C_23
    4  A    between atoms: N_14  and  C_23
    5  A    between atoms: N_14  and  C_28
    6  A    between atoms: C_15  and  N_19
    7  A    between atoms: C_15  and  C_30
    8  A    between atoms: C_17  and  C_35
    9  A    between atoms: C_25  and  C_31
                            x       y       z     vdW  Elec       q    Type
                         _______ _______ _______ _____ _____    ______ ____

>  <TORSDO>
F 9

$$$$
=
 OpenBabel10222418003D

 35 39  0  0  1  0  0  0  0  0999 V2000
  187.6560  177.9630  142.2750 C   0  0  0  0  0  0  0  0  0  0  0  0
  187.4270  179.1260  141.5500 O   0  0  0  0  0  1  0  0  0  0  0  0
  187.4890  176.4130  143.8150 O   0  0  0  0  0  0  0  0  0  0  0  0
  186.9510  177.5300  143.3770 C   0  0  0  0  0  0  0  0  0  0  0  0
  188.5010  176.0720  143.0420 C   0  0  0  0  0  3  0  0  0  0  0  0
  188.6420  177.0300  142.0490 C   0  0  0  0  0  0  0  0  0  0  0  0
  191.6450  177.3090  139.9270 N   0  0  0  0  0  0  0  0  0  0  0  0
  188.7750  177.1150  137.4470 C   0  0  0  0  0  0  0  0  0  0  0  0
  191.0960  176.7740  137.6730 N   0  0  0  0  0  0  0  0  0  0  0  0
  187.9840  177.4610  136.4680 O   0  0  0  0  0  0  0  0  0  0  0  0
  189.5290  176.3700  139.6480 C   0  0  2  0  0  3  0  0  0  0  0  0
  188.4580  176.9410  138.7360 C   0  0  0  0  0  3  0  0  0  0  0  0
  189.6550  177.0300  140.9790 C   0  0  0  0  0  0  0  0  0  0  0  0
  190.8920  177.4920  141.1220 C   0  0  0  0  0  3  0  0  0  0  0  0
  190.0370  176.9600  136.9400 C   0  0  0  0  0  0  0  0  0  0  0  0
  188.7330  177.5050  135.3740 C   0  0  0  0  0  3  0  0  0  0  0  0
  190.8920  176.6750  139.0920 C   0  0  0  0  0  0  0  0  0  0  0  0
  190.0370  177.2030  135.6200 N   0  0  0  0  0  0  0  0  0  0  0  0
  185.8160  178.2020  144.0350 C   0  0  0  0  0  0  0  0  0  0  0  0
  185.7680  178.4440  145.3570 C   0  0  0  0  0  3  0  0  0  0  0  0
  187.8150  178.6430  148.5440 C   0  0  0  0  0  3  0  0  0  0  0  0
  186.7970  178.8710  147.6150 C   0  0  0  0  0  3  0  0  0  0  0  0
  187.9060  177.4130  146.0360 C   0  0  0  0  0  3  0  0  0  0  0  0
  188.8810  177.8030  148.2160 C   0  0  0  0  0  3  0  0  0  0  0  0
  188.9310  177.1820  146.9590 C   0  0  0  0  0  0  0  0  0  0  0  0
  186.8470  178.2720  146.3470 C   0  0  0  0  0  0  0  0  0  0  0  0
  190.0050  176.3060  146.6050 N   0  0  0  0  0  2  0  0  0  0  0  0
  191.3770  176.7520  146.4100 C   0  0  1  0  0  3  0  0  0  0  0  0
  192.3230  175.7180  146.9910 C   0  0  0  0  0  1  0  0  0  0  0  0
  191.6550  176.9310  144.9260 C   0  0  0  0  0  2  0  0  0  0  0  0
  191.3580  178.3550  144.4990 C   0  0  0  0  0  1  0  0  0  0  0  0
  184.7090  178.5730  143.2050 N   0  0  0  0  0  2  0  0  0  0  0  0
  183.4110  179.0060  143.7120 C   0  0  0  0  0  2  0  0  0  0  0  0
  182.4100  179.1410  142.5760 C   0  0  0  0  0  2  0  0  0  0  0  0
  180.9920  179.0630  143.1100 C   0  0  0  0  0  1  0  0  0  0  0  0
  1  4  2  0  0  0  0
  2  1  1  0  0  0  0
  4  3  1  0  0  0  0
  4 19  1  0  0  0  0
  5  3  1  0  0  0  0
  6  1  1  0  0  0  0
  6  5  2  0  0  0  0
  7 14  1  0  0  0  0
  8 12  2  0  0  0  0
  9 17  1  0  0  0  0
 10  8  1  0  0  0  0
 11 12  1  6  0  0  0
 11 13  1  0  0  0  0
 13 14  2  0  0  0  0
 13  6  1  0  0  0  0
 15  8  1  0  0  0  0
 15  9  2  0  0  0  0
 16 18  2  0  0  0  0
 16 10  1  0  0  0  0
 17 11  1  0  0  0  0
 17  7  2  0  0  0  0
 18 15  1  0  0  0  0
 19 20  2  0  0  0  0
 20 26  1  0  0  0  0
 22 21  2  0  0  0  0
 23 26  2  0  0  0  0
 23 25  1  0  0  0  0
 24 21  1  0  0  0  0
 25 24  2  0  0  0  0
 26 22  1  0  0  0  0
 27 25  1  0  0  0  0
 28 27  1  0  0  0  0
 28 29  1  6  0  0  0
 30 28  1  0  0  0  0
 31 30  1  0  0  0  0
 32 33  1  0  0  0  0
 32 19  1  0  0  0  0
 34 35  1  0  0  0  0
 34 33  1  0  0  0  0
M  END
>  <MODEL>
8

>  <REMARK>
 VINA RESULT:      -7.7      1.625      5.457
  Name = 
  9 active torsions:
  status: ('A' for Active; 'I' for Inactive)
    1  A    between atoms: C_5  and  C_8
    2  A    between atoms: C_8  and  N_19
    3  A    between atoms: C_10  and  C_23
    4  A    between atoms: N_14  and  C_23
    5  A    between atoms: N_14  and  C_28
    6  A    between atoms: C_15  and  N_19
    7  A    between atoms: C_15  and  C_30
    8  A    between atoms: C_17  and  C_35
    9  A    between atoms: C_25  and  C_31
                            x       y       z     vdW  Elec       q    Type
                         _______ _______ _______ _____ _____    ______ ____

>  <TORSDO>
F 9

$$$$
=
 OpenBabel10222418003D

 35 39  0  0  1  0  0  0  0  0999 V2000
  185.9170  178.5780  142.1210 C   0  0  0  0  0  0  0  0  0  0  0  0
  187.3030  178.5730  142.0160 O   0  0  0  0  0  1  0  0  0  0  0  0
  183.7970  178.6470  141.5710 O   0  0  0  0  0  0  0  0  0  0  0  0
  185.0150  178.6080  141.0790 C   0  0  0  0  0  0  0  0  0  0  0  0
  183.8470  178.6200  142.8890 C   0  0  0  0  0  3  0  0  0  0  0  0
  185.1760  178.5750  143.2810 C   0  0  0  0  0  0  0  0  0  0  0  0
  185.9060  179.0530  146.8630 N   0  0  0  0  0  0  0  0  0  0  0  0
  188.9370  177.1830  145.5440 C   0  0  0  0  0  0  0  0  0  0  0  0
  187.7310  177.6670  147.5100 N   0  0  0  0  0  0  0  0  0  0  0  0
  190.1870  176.9270  145.2680 O   0  0  0  0  0  0  0  0  0  0  0  0
  186.5270  177.4720  145.2670 C   0  0  2  0  0  3  0  0  0  0  0  0
  187.9240  177.3530  144.6850 C   0  0  0  0  0  3  0  0  0  0  0  0
  185.6730  178.5360  144.6670 C   0  0  0  0  0  0  0  0  0  0  0  0
  185.2880  179.3760  145.6210 C   0  0  0  0  0  3  0  0  0  0  0  0
  188.8110  177.2670  146.9040 C   0  0  0  0  0  0  0  0  0  0  0  0
  190.8210  176.8390  146.4290 C   0  0  0  0  0  3  0  0  0  0  0  0
  186.6010  177.9820  146.6790 C   0  0  0  0  0  0  0  0  0  0  0  0
  189.9970  177.0510  147.4920 N   0  0  0  0  0  0  0  0  0  0  0  0
  185.3150  178.6540  139.6370 C   0  0  0  0  0  0  0  0  0  0  0  0
  184.3660  178.7630  138.6900 C   0  0  0  0  0  3  0  0  0  0  0  0
  180.6900  178.3440  139.5290 C   0  0  0  0  0  3  0  0  0  0  0  0
  182.0370  178.0390  139.3150 C   0  0  0  0  0  3  0  0  0  0  0  0
  182.4640  180.3370  138.6970 C   0  0  0  0  0  3  0  0  0  0  0  0
  180.2310  179.6470  139.3230 C   0  0  0  0  0  3  0  0  0  0  0  0
  181.1170  180.6510  138.9060 C   0  0  0  0  0  0  0  0  0  0  0  0
  182.9280  179.0300  138.8770 C   0  0  0  0  0  0  0  0  0  0  0  0
  180.6740  181.9960  138.7020 N   0  0  0  0  0  2  0  0  0  0  0  0
  180.7300  182.6750  137.4150 C   0  0  1  0  0  3  0  0  0  0  0  0
  179.8480  181.9370  136.4260 C   0  0  0  0  0  1  0  0  0  0  0  0
  180.2490  184.1100  137.5680 C   0  0  0  0  0  2  0  0  0  0  0  0
  180.9140  185.0030  136.5390 C   0  0  0  0  0  1  0  0  0  0  0  0
  186.6910  178.5420  139.2530 N   0  0  0  0  0  2  0  0  0  0  0  0
  187.1860  177.6260  138.2310 C   0  0  0  0  0  2  0  0  0  0  0  0
  187.7150  178.3970  137.0320 C   0  0  0  0  0  2  0  0  0  0  0  0
  189.0500  179.0350  137.3630 C   0  0  0  0  0  1  0  0  0  0  0  0
  1  6  1  0  0  0  0
  2  1  1  0  0  0  0
  3  5  1  0  0  0  0
  4  3  1  0  0  0  0
  4  1  2  0  0  0  0
  5  6  2  0  0  0  0
  6 13  1  0  0  0  0
  8 15  1  0  0  0  0
 10  8  1  0  0  0  0
 10 16  1  0  0  0  0
 11 12  1  6  0  0  0
 11 17  1  0  0  0  0
 12  8  2  0  0  0  0
 13 11  1  0  0  0  0
 13 14  2  0  0  0  0
 14  7  1  0  0  0  0
 15 18  1  0  0  0  0
 15  9  2  0  0  0  0
 16 18  2  0  0  0  0
 17  7  2  0  0  0  0
 17  9  1  0  0  0  0
 19  4  1  0  0  0  0
 20 26  1  0  0  0  0
 20 19  2  0  0  0  0
 22 21  2  0  0  0  0
 23 26  2  0  0  0  0
 23 25  1  0  0  0  0
 24 21  1  0  0  0  0
 25 24  2  0  0  0  0
 26 22  1  0  0  0  0
 27 25  1  0  0  0  0
 28 29  1  6  0  0  0
 28 30  1  0  0  0  0
 28 27  1  0  0  0  0
 31 30  1  0  0  0  0
 32 19  1  0  0  0  0
 33 32  1  0  0  0  0
 34 35  1  0  0  0  0
 34 33  1  0  0  0  0
M  END
>  <MODEL>
9

>  <REMARK>
 VINA RESULT:      -7.7      3.264      7.930
  Name = 
  9 active torsions:
  status: ('A' for Active; 'I' for Inactive)
    1  A    between atoms: C_5  and  C_8
    2  A    between atoms: C_8  and  N_19
    3  A    between atoms: C_10  and  C_23
    4  A    between atoms: N_14  and  C_23
    5  A    between atoms: N_14  and  C_28
    6  A    between atoms: C_15  and  N_19
    7  A    between atoms: C_15  and  C_30
    8  A    between atoms: C_17  and  C_35
    9  A    between atoms: C_25  and  C_31
                            x       y       z     vdW  Elec       q    Type
                         _______ _______ _______ _____ _____    ______ ____

>  <TORSDO>
F 9

$$$$
