=
 OpenBabel10222421093D

 29 32  0  0  1  0  0  0  0  0999 V2000
  188.6800  176.9640  141.4760 C   0  0  2  0  0  3  0  0  0  0  0  0
  188.3610  177.5460  140.1240 C   0  0  0  0  0  2  0  0  0  0  0  0
  189.4250  177.2300  139.0770 C   0  0  0  0  0  2  0  0  0  0  0  0
  187.0640  177.8490  144.7500 C   0  0  0  0  0  0  0  0  0  0  0  0
  189.2200  176.7640  144.3530 C   0  0  0  0  0  0  0  0  0  0  0  0
  190.2030  175.6660  143.3240 S   0  0  0  0  0  0  0  0  0  0  0  0
  187.9570  177.1700  143.8840 C   0  0  0  0  0  0  0  0  0  0  0  0
  191.0750  176.6410  140.8290 C   0  0  0  0  0  2  0  0  0  0  0  0
  188.7680  177.8090  146.4900 C   0  0  0  0  0  3  0  0  0  0  0  0
  187.6620  177.0560  142.4830 N   0  0  0  0  0  2  0  0  0  0  0  0
  189.9320  176.5860  141.8080 C   0  0  1  0  0  3  0  0  0  0  0  0
  190.7940  177.5630  139.6440 C   0  0  1  0  0  3  0  0  0  0  0  0
  189.6410  177.1090  145.6500 C   0  0  0  0  0  0  0  0  0  0  0  0
  187.4950  178.1660  146.0470 C   0  0  0  0  0  3  0  0  0  0  0  0
  184.0160  178.6070  142.6050 C   0  0  0  0  0  3  0  0  0  0  0  0
  185.7010  178.2720  144.3300 C   0  0  0  0  0  0  0  0  0  0  0  0
  183.0930  179.0340  143.5640 C   0  0  0  0  0  0  0  0  0  0  0  0
  183.4770  179.0740  144.9090 C   0  0  0  0  0  3  0  0  0  0  0  0
  184.7670  178.6950  145.2890 C   0  0  0  0  0  3  0  0  0  0  0  0
  185.3050  178.2260  142.9840 C   0  0  0  0  0  3  0  0  0  0  0  0
  180.5390  178.8400  143.5510 C   0  0  0  0  0  0  0  0  0  0  0  0
  179.2620  179.4260  143.0670 C   0  0  0  0  0  1  0  0  0  0  0  0
  180.5080  177.8320  144.3060 O   0  0  0  0  0  0  0  0  0  0  0  0
  181.7810  179.4230  143.1360 N   0  0  0  0  0  2  0  0  0  0  0  0
  190.9870  176.6900  146.1590 C   0  0  2  0  0  3  0  0  0  0  0  0
  191.0400  176.7720  147.6740 C   0  0  0  0  0  1  0  0  0  0  0  0
  191.9920  177.4860  145.6050 O   0  0  0  0  0  1  0  0  0  0  0  0
  191.8480  177.3720  138.5720 C   0  0  0  0  0  2  0  0  0  0  0  0
  193.1200  177.0250  139.1810 N   0  0  0  0  0  1  0  0  0  0  0  0
  1  2  1  1  0  0  0
  1 11  1  0  0  0  0
  1 10  1  0  0  0  0
  3 12  1  0  0  0  0
  3  2  1  0  0  0  0
  4 14  1  0  0  0  0
  5 13  2  0  0  0  0
  6  5  1  0  0  0  0
  7  5  1  0  0  0  0
  7  4  2  0  0  0  0
 10  7  1  0  0  0  0
 11  8  1  6  0  0  0
 11  6  1  0  0  0  0
 12 28  1  6  0  0  0
 12  8  1  0  0  0  0
 13 25  1  0  0  0  0
 13  9  1  0  0  0  0
 14  9  2  0  0  0  0
 15 20  2  0  0  0  0
 15 17  1  0  0  0  0
 16  4  1  0  0  0  0
 16 19  2  0  0  0  0
 17 18  2  0  0  0  0
 18 19  1  0  0  0  0
 20 16  1  0  0  0  0
 21 23  2  0  0  0  0
 22 21  1  0  0  0  0
 24 21  1  0  0  0  0
 24 17  1  0  0  0  0
 25 26  1  1  0  0  0
 27 25  1  0  0  0  0
 28 29  1  0  0  0  0
M  END
>  <MODEL>
1

>  <REMARK>
 VINA RESULT:      -9.0      0.000      0.000
  Name = 
  4 active torsions:
  status: ('A' for Active; 'I' for Inactive)
    1  A    between atoms: C_1  and  C_24
    2  A    between atoms: C_4  and  C_25
    3  A    between atoms: C_8  and  C_10
    4  A    between atoms: C_14  and  N_29
                            x       y       z     vdW  Elec       q    Type
                         _______ _______ _______ _____ _____    ______ ____

>  <TORSDO>
F 4

$$$$
=
 OpenBabel10222421093D

 29 32  0  0  1  0  0  0  0  0999 V2000
  190.1440  176.5280  143.8530 C   0  0  2  0  0  3  0  0  0  0  0  0
  191.4900  176.5000  144.5280 C   0  0  0  0  0  2  0  0  0  0  0  0
  191.3900  176.4350  146.0490 C   0  0  0  0  0  2  0  0  0  0  0  0
  189.4330  177.4300  140.2760 C   0  0  0  0  0  0  0  0  0  0  0  0
  187.8970  177.3990  142.1790 C   0  0  0  0  0  0  0  0  0  0  0  0
  187.4250  176.6420  143.7400 S   0  0  0  0  0  0  0  0  0  0  0  0
  189.1250  177.0310  141.6000 C   0  0  0  0  0  0  0  0  0  0  0  0
  189.0270  177.1810  145.9940 C   0  0  0  0  0  2  0  0  0  0  0  0
  187.3320  178.6610  140.1920 C   0  0  0  0  0  3  0  0  0  0  0  0
  190.1280  176.4130  142.4230 N   0  0  0  0  0  2  0  0  0  0  0  0
  189.0240  176.8770  144.5190 C   0  0  1  0  0  3  0  0  0  0  0  0
  190.4220  177.5030  146.5270 C   0  0  1  0  0  3  0  0  0  0  0  0
  187.0090  178.2410  141.4860 C   0  0  0  0  0  0  0  0  0  0  0  0
  188.5250  178.2530  139.5940 C   0  0  0  0  0  3  0  0  0  0  0  0
  191.8740  175.9450  137.7650 C   0  0  0  0  0  3  0  0  0  0  0  0
  190.6960  177.0440  139.5910 C   0  0  0  0  0  0  0  0  0  0  0  0
  193.1030  176.3650  138.2820 C   0  0  0  0  0  0  0  0  0  0  0  0
  193.1250  177.1300  139.4540 C   0  0  0  0  0  3  0  0  0  0  0  0
  191.9330  177.4680  140.1010 C   0  0  0  0  0  3  0  0  0  0  0  0
  190.6830  176.2850  138.4100 C   0  0  0  0  0  3  0  0  0  0  0  0
  194.9370  174.7060  137.6150 C   0  0  0  0  0  0  0  0  0  0  0  0
  196.1390  174.4720  136.7740 C   0  0  0  0  0  1  0  0  0  0  0  0
  194.5020  173.7740  138.3420 O   0  0  0  0  0  0  0  0  0  0  0  0
  194.3060  175.9920  137.5950 N   0  0  0  0  0  2  0  0  0  0  0  0
  185.7010  178.6470  142.0950 C   0  0  2  0  0  3  0  0  0  0  0  0
  184.5440  178.2720  141.1870 C   0  0  0  0  0  1  0  0  0  0  0  0
  185.6810  180.0200  142.3450 O   0  0  0  0  0  1  0  0  0  0  0  0
  190.4070  177.5330  148.0430 C   0  0  0  0  0  2  0  0  0  0  0  0
  189.2290  178.2390  148.5150 N   0  0  0  0  0  1  0  0  0  0  0  0
  1 11  1  0  0  0  0
  1  2  1  6  0  0  0
  2  3  1  0  0  0  0
  3 12  1  0  0  0  0
  4  7  1  0  0  0  0
  5  6  1  0  0  0  0
  6 11  1  0  0  0  0
  7  5  2  0  0  0  0
  7 10  1  0  0  0  0
  8 12  1  0  0  0  0
  9 13  2  0  0  0  0
 10  1  1  0  0  0  0
 11  8  1  1  0  0  0
 12 28  1  1  0  0  0
 13 25  1  0  0  0  0
 13  5  1  0  0  0  0
 14  9  1  0  0  0  0
 14  4  2  0  0  0  0
 15 17  2  0  0  0  0
 15 20  1  0  0  0  0
 16 19  1  0  0  0  0
 16  4  1  0  0  0  0
 17 18  1  0  0  0  0
 18 19  2  0  0  0  0
 20 16  2  0  0  0  0
 21 23  2  0  0  0  0
 22 21  1  0  0  0  0
 24 21  1  0  0  0  0
 24 17  1  0  0  0  0
 25 26  1  6  0  0  0
 25 27  1  0  0  0  0
 28 29  1  0  0  0  0
M  END
>  <MODEL>
2

>  <REMARK>
 VINA RESULT:      -8.6      3.259      8.950
  Name = 
  4 active torsions:
  status: ('A' for Active; 'I' for Inactive)
    1  A    between atoms: C_1  and  C_24
    2  A    between atoms: C_4  and  C_25
    3  A    between atoms: C_8  and  C_10
    4  A    between atoms: C_14  and  N_29
                            x       y       z     vdW  Elec       q    Type
                         _______ _______ _______ _____ _____    ______ ____

>  <TORSDO>
F 4

$$$$
=
 OpenBabel10222421093D

 29 32  0  0  1  0  0  0  0  0999 V2000
  188.2820  177.1870  142.1960 C   0  0  2  0  0  3  0  0  0  0  0  0
  188.3960  177.5990  140.7510 C   0  0  0  0  0  2  0  0  0  0  0  0
  189.7610  177.2820  140.1500 C   0  0  0  0  0  2  0  0  0  0  0  0
  185.6280  178.2390  144.6380 C   0  0  0  0  0  0  0  0  0  0  0  0
  187.8510  177.3260  145.0940 C   0  0  0  0  0  0  0  0  0  0  0  0
  189.1790  176.2270  144.5810 S   0  0  0  0  0  0  0  0  0  0  0  0
  186.7930  177.5630  144.1980 C   0  0  0  0  0  0  0  0  0  0  0  0
  190.7690  177.0270  142.3990 C   0  0  0  0  0  2  0  0  0  0  0  0
  186.6620  178.5310  146.8250 C   0  0  0  0  0  3  0  0  0  0  0  0
  186.9850  177.2840  142.8020 N   0  0  0  0  0  2  0  0  0  0  0  0
  189.3730  176.9620  142.9570 C   0  0  1  0  0  3  0  0  0  0  0  0
  190.8450  177.7960  141.0810 C   0  0  1  0  0  3  0  0  0  0  0  0
  187.8000  177.8360  146.4040 C   0  0  0  0  0  0  0  0  0  0  0  0
  185.5890  178.7220  145.9550 C   0  0  0  0  0  3  0  0  0  0  0  0
  183.4680  178.6510  141.5350 C   0  0  0  0  0  3  0  0  0  0  0  0
  184.4590  178.4890  143.7530 C   0  0  0  0  0  0  0  0  0  0  0  0
  182.2160  178.9190  142.0950 C   0  0  0  0  0  0  0  0  0  0  0  0
  182.0870  178.9680  143.4880 C   0  0  0  0  0  3  0  0  0  0  0  0
  183.1980  178.7520  144.3090 C   0  0  0  0  0  3  0  0  0  0  0  0
  184.5770  178.4330  142.3550 C   0  0  0  0  0  3  0  0  0  0  0  0
  180.0540  180.1050  141.4000 C   0  0  0  0  0  0  0  0  0  0  0  0
  179.0170  180.2570  140.3460 C   0  0  0  0  0  1  0  0  0  0  0  0
  179.9870  180.8150  142.4380 O   0  0  0  0  0  0  0  0  0  0  0  0
  181.1010  179.1430  141.2210 N   0  0  0  0  0  2  0  0  0  0  0  0
  188.9240  177.5960  147.3670 C   0  0  2  0  0  3  0  0  0  0  0  0
  188.5880  178.1570  148.7370 C   0  0  0  0  0  1  0  0  0  0  0  0
  190.1060  178.1700  146.8960 O   0  0  0  0  0  1  0  0  0  0  0  0
  192.2030  177.5990  140.4370 C   0  0  0  0  0  2  0  0  0  0  0  0
  192.0570  176.9050  139.1690 N   0  0  0  0  0  1  0  0  0  0  0  0
  1  2  1  1  0  0  0
  1 10  1  0  0  0  0
  1 11  1  0  0  0  0
  3  2  1  0  0  0  0
  3 12  1  0  0  0  0
  4 14  1  0  0  0  0
  5 13  2  0  0  0  0
  6  5  1  0  0  0  0
  7  4  2  0  0  0  0
  7  5  1  0  0  0  0
 10  7  1  0  0  0  0
 11  8  1  6  0  0  0
 11  6  1  0  0  0  0
 12 28  1  6  0  0  0
 12  8  1  0  0  0  0
 13  9  1  0  0  0  0
 13 25  1  0  0  0  0
 14  9  2  0  0  0  0
 15 17  2  0  0  0  0
 15 20  1  0  0  0  0
 16 19  1  0  0  0  0
 16  4  1  0  0  0  0
 17 18  1  0  0  0  0
 18 19  2  0  0  0  0
 20 16  2  0  0  0  0
 21 23  2  0  0  0  0
 22 21  1  0  0  0  0
 24 21  1  0  0  0  0
 24 17  1  0  0  0  0
 25 26  1  1  0  0  0
 27 25  1  0  0  0  0
 29 28  1  0  0  0  0
M  END
>  <MODEL>
3

>  <REMARK>
 VINA RESULT:      -8.5      1.531      1.902
  Name = 
  4 active torsions:
  status: ('A' for Active; 'I' for Inactive)
    1  A    between atoms: C_1  and  C_24
    2  A    between atoms: C_4  and  C_25
    3  A    between atoms: C_8  and  C_10
    4  A    between atoms: C_14  and  N_29
                            x       y       z     vdW  Elec       q    Type
                         _______ _______ _______ _____ _____    ______ ____

>  <TORSDO>
F 4

$$$$
=
 OpenBabel10222421093D

 29 32  0  0  1  0  0  0  0  0999 V2000
  189.2000  177.0660  141.3340 C   0  0  2  0  0  3  0  0  0  0  0  0
  189.5350  177.5470  139.9460 C   0  0  0  0  0  2  0  0  0  0  0  0
  190.9740  177.2390  139.5430 C   0  0  0  0  0  2  0  0  0  0  0  0
  186.2140  178.0350  143.3960 C   0  0  0  0  0  0  0  0  0  0  0  0
  188.3340  177.0680  144.1370 C   0  0  0  0  0  0  0  0  0  0  0  0
  189.7170  175.9760  143.7760 S   0  0  0  0  0  0  0  0  0  0  0  0
  187.4270  177.3650  143.1040 C   0  0  0  0  0  0  0  0  0  0  0  0
  191.6270  176.8590  141.9040 C   0  0  0  0  0  2  0  0  0  0  0  0
  186.9050  178.2040  145.7270 C   0  0  0  0  0  3  0  0  0  0  0  0
  187.8270  177.1520  141.7410 N   0  0  0  0  0  2  0  0  0  0  0  0
  190.1610  176.7880  142.2390 C   0  0  1  0  0  3  0  0  0  0  0  0
  191.9070  177.6910  140.6530 C   0  0  1  0  0  3  0  0  0  0  0  0
  188.0880  177.5140  145.4480 C   0  0  0  0  0  0  0  0  0  0  0  0
  185.9780  178.4540  144.7150 C   0  0  0  0  0  3  0  0  0  0  0  0
  182.8750  178.6280  141.6730 C   0  0  0  0  0  3  0  0  0  0  0  0
  185.1950  178.3470  142.3580 C   0  0  0  0  0  0  0  0  0  0  0  0
  183.2810  178.9890  140.3860 C   0  0  0  0  0  0  0  0  0  0  0  0
  184.6480  179.0330  140.0880 C   0  0  0  0  0  3  0  0  0  0  0  0
  185.5950  178.7170  141.0660 C   0  0  0  0  0  3  0  0  0  0  0  0
  183.8220  178.3140  142.6510 C   0  0  0  0  0  3  0  0  0  0  0  0
  182.2230  180.4700  138.5830 C   0  0  0  0  0  0  0  0  0  0  0  0
  181.1540  180.5890  137.5580 C   0  0  0  0  0  1  0  0  0  0  0  0
  183.0540  181.4070  138.7190 O   0  0  0  0  0  0  0  0  0  0  0  0
  182.2790  179.2990  139.4070 N   0  0  0  0  0  2  0  0  0  0  0  0
  189.0510  177.2100  146.5570 C   0  0  2  0  0  3  0  0  0  0  0  0
  188.3830  177.3720  147.9100 C   0  0  0  0  0  1  0  0  0  0  0  0
  190.1700  178.0420  146.4780 O   0  0  0  0  0  1  0  0  0  0  0  0
  193.3460  177.5050  140.2140 C   0  0  0  0  0  2  0  0  0  0  0  0
  193.3920  176.7950  138.9470 N   0  0  0  0  0  1  0  0  0  0  0  0
  1  2  1  1  0  0  0
  1 10  1  0  0  0  0
  1 11  1  0  0  0  0
  3  2  1  0  0  0  0
  3 12  1  0  0  0  0
  4 14  1  0  0  0  0
  5 13  2  0  0  0  0
  6  5  1  0  0  0  0
  7  4  2  0  0  0  0
  7  5  1  0  0  0  0
 10  7  1  0  0  0  0
 11  8  1  6  0  0  0
 11  6  1  0  0  0  0
 12 28  1  6  0  0  0
 12  8  1  0  0  0  0
 13  9  1  0  0  0  0
 13 25  1  0  0  0  0
 14  9  2  0  0  0  0
 15 20  1  0  0  0  0
 16 20  2  0  0  0  0
 16  4  1  0  0  0  0
 17 15  2  0  0  0  0
 18 17  1  0  0  0  0
 18 19  2  0  0  0  0
 19 16  1  0  0  0  0
 21 23  2  0  0  0  0
 21 24  1  0  0  0  0
 22 21  1  0  0  0  0
 24 17  1  0  0  0  0
 25 26  1  1  0  0  0
 27 25  1  0  0  0  0
 29 28  1  0  0  0  0
M  END
>  <MODEL>
4

>  <REMARK>
 VINA RESULT:      -8.4      2.381      2.866
  Name = 
  4 active torsions:
  status: ('A' for Active; 'I' for Inactive)
    1  A    between atoms: C_1  and  C_24
    2  A    between atoms: C_4  and  C_25
    3  A    between atoms: C_8  and  C_10
    4  A    between atoms: C_14  and  N_29
                            x       y       z     vdW  Elec       q    Type
                         _______ _______ _______ _____ _____    ______ ____

>  <TORSDO>
F 4

$$$$
=
 OpenBabel10222421093D

 29 32  0  0  1  0  0  0  0  0999 V2000
  189.4470  177.7800  145.2860 C   0  0  2  0  0  3  0  0  0  0  0  0
  188.9660  177.2570  146.6140 C   0  0  0  0  0  2  0  0  0  0  0  0
  190.1070  176.9340  147.5730 C   0  0  0  0  0  2  0  0  0  0  0  0
  187.4380  178.1030  142.1280 C   0  0  0  0  0  0  0  0  0  0  0  0
  189.8690  178.0410  142.3940 C   0  0  0  0  0  0  0  0  0  0  0  0
  191.2990  178.4490  143.4050 S   0  0  0  0  0  0  0  0  0  0  0  0
  188.5870  178.2000  142.9520 C   0  0  0  0  0  0  0  0  0  0  0  0
  191.7500  176.9070  145.7180 C   0  0  0  0  0  2  0  0  0  0  0  0
  188.8780  177.5650  140.2370 C   0  0  0  0  0  3  0  0  0  0  0  0
  188.4500  178.2750  144.3800 N   0  0  0  0  0  2  0  0  0  0  0  0
  190.7130  177.5860  144.8630 C   0  0  1  0  0  3  0  0  0  0  0  0
  191.1370  176.0840  146.8500 C   0  0  1  0  0  3  0  0  0  0  0  0
  190.0160  177.6930  141.0400 C   0  0  0  0  0  0  0  0  0  0  0  0
  187.6080  177.7750  140.7740 C   0  0  0  0  0  3  0  0  0  0  0  0
  184.4670  178.3700  144.4870 C   0  0  0  0  0  3  0  0  0  0  0  0
  186.0570  178.2990  142.6450 C   0  0  0  0  0  0  0  0  0  0  0  0
  183.4390  178.7230  143.6090 C   0  0  0  0  0  0  0  0  0  0  0  0
  183.7240  178.8680  142.2460 C   0  0  0  0  0  3  0  0  0  0  0  0
  185.0210  178.6600  141.7700 C   0  0  0  0  0  3  0  0  0  0  0  0
  185.7640  178.1650  144.0110 C   0  0  0  0  0  3  0  0  0  0  0  0
  180.8820  178.6910  143.4460 C   0  0  0  0  0  0  0  0  0  0  0  0
  179.6000  178.8700  144.1750 C   0  0  0  0  0  1  0  0  0  0  0  0
  180.8610  178.3550  142.2320 O   0  0  0  0  0  0  0  0  0  0  0  0
  182.1190  178.9200  144.1340 N   0  0  0  0  0  2  0  0  0  0  0  0
  191.3760  177.5120  140.4350 C   0  0  2  0  0  3  0  0  0  0  0  0
  191.2880  176.7420  139.1300 C   0  0  0  0  0  1  0  0  0  0  0  0
  192.2240  176.8460  141.3230 O   0  0  0  0  0  1  0  0  0  0  0  0
  192.2150  175.6530  147.8260 C   0  0  0  0  0  2  0  0  0  0  0  0
  192.6870  176.7990  148.5840 N   0  0  0  0  0  1  0  0  0  0  0  0
  1  2  1  6  0  0  0
  2  3  1  0  0  0  0
  4 16  1  0  0  0  0
  4  7  1  0  0  0  0
  5  7  2  0  0  0  0
  5  6  1  0  0  0  0
  6 11  1  0  0  0  0
  7 10  1  0  0  0  0
  8 12  1  0  0  0  0
  9 14  1  0  0  0  0
  9 13  2  0  0  0  0
 10  1  1  0  0  0  0
 11  1  1  0  0  0  0
 11  8  1  1  0  0  0
 12  3  1  0  0  0  0
 12 28  1  1  0  0  0
 13  5  1  0  0  0  0
 14  4  2  0  0  0  0
 16 20  2  0  0  0  0
 17 24  1  0  0  0  0
 17 15  2  0  0  0  0
 18 17  1  0  0  0  0
 19 18  2  0  0  0  0
 19 16  1  0  0  0  0
 20 15  1  0  0  0  0
 21 24  1  0  0  0  0
 21 22  1  0  0  0  0
 23 21  2  0  0  0  0
 25 26  1  6  0  0  0
 25 13  1  0  0  0  0
 25 27  1  0  0  0  0
 28 29  1  0  0  0  0
M  END
>  <MODEL>
5

>  <REMARK>
 VINA RESULT:      -8.2      2.107      4.836
  Name = 
  4 active torsions:
  status: ('A' for Active; 'I' for Inactive)
    1  A    between atoms: C_1  and  C_24
    2  A    between atoms: C_4  and  C_25
    3  A    between atoms: C_8  and  C_10
    4  A    between atoms: C_14  and  N_29
                            x       y       z     vdW  Elec       q    Type
                         _______ _______ _______ _____ _____    ______ ____

>  <TORSDO>
F 4

$$$$
=
 OpenBabel10222421093D

 29 32  0  0  1  0  0  0  0  0999 V2000
  188.8720  177.6410  140.6140 C   0  0  2  0  0  3  0  0  0  0  0  0
  190.1120  176.8250  140.3570 C   0  0  0  0  0  2  0  0  0  0  0  0
  190.4040  176.6410  138.8720 C   0  0  0  0  0  2  0  0  0  0  0  0
  187.0100  177.9520  143.8620 C   0  0  0  0  0  0  0  0  0  0  0  0
  186.2210  178.4250  141.5950 C   0  0  0  0  0  0  0  0  0  0  0  0
  186.6130  179.0030  139.9380 S   0  0  0  0  0  0  0  0  0  0  0  0
  187.2800  178.1920  142.4920 C   0  0  0  0  0  0  0  0  0  0  0  0
  188.0870  177.2810  138.2670 C   0  0  0  0  0  2  0  0  0  0  0  0
  184.6240  178.0590  143.3780 C   0  0  0  0  0  3  0  0  0  0  0  0
  188.6080  178.0170  141.9730 N   0  0  0  0  0  2  0  0  0  0  0  0
  187.9300  177.8160  139.6650 C   0  0  1  0  0  3  0  0  0  0  0  0
  189.1390  176.1760  138.1720 C   0  0  1  0  0  3  0  0  0  0  0  0
  184.8870  178.3300  142.0310 C   0  0  0  0  0  0  0  0  0  0  0  0
  185.6720  177.8810  144.2800 C   0  0  0  0  0  3  0  0  0  0  0  0
  188.7950  177.2810  147.1520 C   0  0  0  0  0  3  0  0  0  0  0  0
  188.0830  177.7360  144.8690 C   0  0  0  0  0  0  0  0  0  0  0  0
  190.1350  177.2800  146.7530 C   0  0  0  0  0  0  0  0  0  0  0  0
  190.4460  177.5020  145.4060 C   0  0  0  0  0  3  0  0  0  0  0  0
  189.4290  177.7260  144.4730 C   0  0  0  0  0  3  0  0  0  0  0  0
  187.7800  177.5030  146.2200 C   0  0  0  0  0  3  0  0  0  0  0  0
  192.1500  176.0280  147.7180 C   0  0  0  0  0  0  0  0  0  0  0  0
  193.1810  175.9930  148.7890 C   0  0  0  0  0  1  0  0  0  0  0  0
  192.1660  175.1470  146.8180 O   0  0  0  0  0  0  0  0  0  0  0  0
  191.1500  177.0540  147.7400 N   0  0  0  0  0  2  0  0  0  0  0  0
  183.7490  178.5680  141.0850 C   0  0  2  0  0  3  0  0  0  0  0  0
  182.4610  178.8250  141.8440 C   0  0  0  0  0  1  0  0  0  0  0  0
  183.5860  177.4770  140.2290 O   0  0  0  0  0  1  0  0  0  0  0  0
  189.4450  175.8700  136.7190 C   0  0  0  0  0  2  0  0  0  0  0  0
  189.7720  177.0950  136.0100 N   0  0  0  0  0  1  0  0  0  0  0  0
  1  2  1  1  0  0  0
  1 10  1  0  0  0  0
  3  2  1  0  0  0  0
  4 14  1  0  0  0  0
  4 16  1  0  0  0  0
  5 13  2  0  0  0  0
  5  7  1  0  0  0  0
  6  5  1  0  0  0  0
  7  4  2  0  0  0  0
  9 14  2  0  0  0  0
 10  7  1  0  0  0  0
 11  8  1  6  0  0  0
 11  6  1  0  0  0  0
 11  1  1  0  0  0  0
 12 28  1  6  0  0  0
 12  8  1  0  0  0  0
 12  3  1  0  0  0  0
 13  9  1  0  0  0  0
 16 20  1  0  0  0  0
 17 15  1  0  0  0  0
 17 24  1  0  0  0  0
 18 17  2  0  0  0  0
 19 16  2  0  0  0  0
 19 18  1  0  0  0  0
 20 15  2  0  0  0  0
 21 24  1  0  0  0  0
 21 22  1  0  0  0  0
 23 21  2  0  0  0  0
 25 26  1  1  0  0  0
 25 13  1  0  0  0  0
 27 25  1  0  0  0  0
 29 28  1  0  0  0  0
M  END
>  <MODEL>
6

>  <REMARK>
 VINA RESULT:      -8.1      2.575      6.861
  Name = 
  4 active torsions:
  status: ('A' for Active; 'I' for Inactive)
    1  A    between atoms: C_1  and  C_24
    2  A    between atoms: C_4  and  C_25
    3  A    between atoms: C_8  and  C_10
    4  A    between atoms: C_14  and  N_29
                            x       y       z     vdW  Elec       q    Type
                         _______ _______ _______ _____ _____    ______ ____

>  <TORSDO>
F 4

$$$$
=
 OpenBabel10222421093D

 29 32  0  0  1  0  0  0  0  0999 V2000
  189.3800  177.5810  141.2500 C   0  0  2  0  0  3  0  0  0  0  0  0
  190.5580  176.7580  140.7980 C   0  0  0  0  0  2  0  0  0  0  0  0
  190.6980  176.7040  139.2800 C   0  0  0  0  0  2  0  0  0  0  0  0
  187.8540  177.6410  144.6820 C   0  0  0  0  0  0  0  0  0  0  0  0
  186.8670  178.3440  142.5570 C   0  0  0  0  0  0  0  0  0  0  0  0
  187.1180  179.0620  140.9280 S   0  0  0  0  0  0  0  0  0  0  0  0
  187.9990  178.0000  143.3190 C   0  0  0  0  0  0  0  0  0  0  0  0
  188.3590  177.4630  138.9700 C   0  0  0  0  0  2  0  0  0  0  0  0
  185.4390  177.8590  144.4500 C   0  0  0  0  0  3  0  0  0  0  0  0
  189.2630  177.8360  142.6570 N   0  0  0  0  0  2  0  0  0  0  0  0
  188.3570  177.8700  140.4190 C   0  0  1  0  0  3  0  0  0  0  0  0
  189.3540  176.3430  138.6710 C   0  0  1  0  0  3  0  0  0  0  0  0
  185.5800  178.2460  143.1140 C   0  0  0  0  0  0  0  0  0  0  0  0
  186.5620  177.5680  145.2240 C   0  0  0  0  0  3  0  0  0  0  0  0
  191.3890  176.8760  145.8590 C   0  0  0  0  0  3  0  0  0  0  0  0
  189.0110  177.3020  145.5530 C   0  0  0  0  0  0  0  0  0  0  0  0
  191.1990  176.7070  147.2340 C   0  0  0  0  0  0  0  0  0  0  0  0
  189.9120  176.8420  147.7670 C   0  0  0  0  0  3  0  0  0  0  0  0
  188.8290  177.1380  146.9350 C   0  0  0  0  0  3  0  0  0  0  0  0
  190.3070  177.1750  145.0280 C   0  0  0  0  0  3  0  0  0  0  0  0
  192.8120  177.1520  149.1740 C   0  0  0  0  0  0  0  0  0  0  0  0
  193.9580  176.6350  149.9660 C   0  0  0  0  0  1  0  0  0  0  0  0
  192.2890  178.2530  149.4920 O   0  0  0  0  0  0  0  0  0  0  0  0
  192.3340  176.3960  148.0550 N   0  0  0  0  0  2  0  0  0  0  0  0
  184.3650  178.6030  142.3110 C   0  0  2  0  0  3  0  0  0  0  0  0
  183.2150  178.9980  143.2190 C   0  0  0  0  0  1  0  0  0  0  0  0
  183.9820  177.5340  141.4980 O   0  0  0  0  0  1  0  0  0  0  0  0
  189.5070  176.1640  137.1730 C   0  0  0  0  0  2  0  0  0  0  0  0
  189.7390  177.4510  136.5400 N   0  0  0  0  0  1  0  0  0  0  0  0
  1  2  1  1  0  0  0
  1 10  1  0  0  0  0
  3  2  1  0  0  0  0
  4 14  1  0  0  0  0
  4 16  1  0  0  0  0
  5 13  2  0  0  0  0
  5  7  1  0  0  0  0
  6  5  1  0  0  0  0
  7  4  2  0  0  0  0
  9 14  2  0  0  0  0
 10  7  1  0  0  0  0
 11  8  1  6  0  0  0
 11  6  1  0  0  0  0
 11  1  1  0  0  0  0
 12 28  1  6  0  0  0
 12  8  1  0  0  0  0
 12  3  1  0  0  0  0
 13  9  1  0  0  0  0
 15 17  1  0  0  0  0
 16 19  2  0  0  0  0
 17 18  2  0  0  0  0
 17 24  1  0  0  0  0
 19 18  1  0  0  0  0
 20 16  1  0  0  0  0
 20 15  2  0  0  0  0
 21 23  2  0  0  0  0
 21 22  1  0  0  0  0
 24 21  1  0  0  0  0
 25 13  1  0  0  0  0
 25 26  1  1  0  0  0
 27 25  1  0  0  0  0
 29 28  1  0  0  0  0
M  END
>  <MODEL>
7

>  <REMARK>
 VINA RESULT:      -8.1      2.528      6.976
  Name = 
  4 active torsions:
  status: ('A' for Active; 'I' for Inactive)
    1  A    between atoms: C_1  and  C_24
    2  A    between atoms: C_4  and  C_25
    3  A    between atoms: C_8  and  C_10
    4  A    between atoms: C_14  and  N_29
                            x       y       z     vdW  Elec       q    Type
                         _______ _______ _______ _____ _____    ______ ____

>  <TORSDO>
F 4

$$$$
=
 OpenBabel10222421093D

 29 32  0  0  1  0  0  0  0  0999 V2000
  184.3630  178.7170  141.4490 C   0  0  2  0  0  3  0  0  0  0  0  0
  183.7380  178.2150  140.1730 C   0  0  0  0  0  2  0  0  0  0  0  0
  182.2340  178.4600  140.1120 C   0  0  0  0  0  2  0  0  0  0  0  0
  187.7800  177.8850  142.7680 C   0  0  0  0  0  0  0  0  0  0  0  0
  185.8470  178.7670  143.9790 C   0  0  0  0  0  0  0  0  0  0  0  0
  184.3740  179.7980  143.9490 S   0  0  0  0  0  0  0  0  0  0  0  0
  186.5050  178.5020  142.7640 C   0  0  0  0  0  0  0  0  0  0  0  0
  182.1240  178.8260  142.5610 C   0  0  0  0  0  2  0  0  0  0  0  0
  187.6490  177.7000  145.1940 C   0  0  0  0  0  3  0  0  0  0  0  0
  185.7950  178.6910  141.5300 N   0  0  0  0  0  2  0  0  0  0  0  0
  183.6240  178.9600  142.5520 C   0  0  1  0  0  3  0  0  0  0  0  0
  181.6000  177.9760  141.4040 C   0  0  1  0  0  3  0  0  0  0  0  0
  186.4050  178.3390  145.1970 C   0  0  0  0  0  0  0  0  0  0  0  0
  188.3290  177.4840  143.9960 C   0  0  0  0  0  3  0  0  0  0  0  0
  188.8300  177.8140  139.1130 C   0  0  0  0  0  3  0  0  0  0  0  0
  188.5460  177.6110  141.5230 C   0  0  0  0  0  0  0  0  0  0  0  0
  190.0420  177.1220  139.1800 C   0  0  0  0  0  0  0  0  0  0  0  0
  190.5080  176.6790  140.4230 C   0  0  0  0  0  3  0  0  0  0  0  0
  189.7680  176.9230  141.5840 C   0  0  0  0  0  3  0  0  0  0  0  0
  188.0910  178.0600  140.2730 C   0  0  0  0  0  3  0  0  0  0  0  0
  190.9480  175.6200  137.3120 C   0  0  0  0  0  0  0  0  0  0  0  0
  191.6650  175.5700  136.0120 C   0  0  0  0  0  1  0  0  0  0  0  0
  190.5220  174.5510  137.8240 O   0  0  0  0  0  0  0  0  0  0  0  0
  190.7700  176.8830  137.9670 N   0  0  0  0  0  2  0  0  0  0  0  0
  185.7110  178.6080  146.4990 C   0  0  2  0  0  3  0  0  0  0  0  0
  186.6670  178.4380  147.6650 C   0  0  0  0  0  1  0  0  0  0  0  0
  184.6150  177.7580  146.6550 O   0  0  0  0  0  1  0  0  0  0  0  0
  180.0920  178.0990  141.3070 C   0  0  0  0  0  2  0  0  0  0  0  0
  179.4830  177.7760  142.5860 N   0  0  0  0  0  1  0  0  0  0  0  0
  1  2  1  1  0  0  0
  1 10  1  0  0  0  0
  1 11  1  0  0  0  0
  3  2  1  0  0  0  0
  3 12  1  0  0  0  0
  4 14  1  0  0  0  0
  5 13  2  0  0  0  0
  6  5  1  0  0  0  0
  7  4  2  0  0  0  0
  7  5  1  0  0  0  0
  9 13  1  0  0  0  0
 10  7  1  0  0  0  0
 11  8  1  6  0  0  0
 11  6  1  0  0  0  0
 12 28  1  6  0  0  0
 12  8  1  0  0  0  0
 13 25  1  0  0  0  0
 14  9  2  0  0  0  0
 15 17  2  0  0  0  0
 15 20  1  0  0  0  0
 16 19  1  0  0  0  0
 16  4  1  0  0  0  0
 17 18  1  0  0  0  0
 18 19  2  0  0  0  0
 20 16  2  0  0  0  0
 21 23  2  0  0  0  0
 21 24  1  0  0  0  0
 22 21  1  0  0  0  0
 24 17  1  0  0  0  0
 25 27  1  0  0  0  0
 25 26  1  1  0  0  0
 28 29  1  0  0  0  0
M  END
>  <MODEL>
8

>  <REMARK>
 VINA RESULT:      -8.0      2.803      7.826
  Name = 
  4 active torsions:
  status: ('A' for Active; 'I' for Inactive)
    1  A    between atoms: C_1  and  C_24
    2  A    between atoms: C_4  and  C_25
    3  A    between atoms: C_8  and  C_10
    4  A    between atoms: C_14  and  N_29
                            x       y       z     vdW  Elec       q    Type
                         _______ _______ _______ _____ _____    ______ ____

>  <TORSDO>
F 4

$$$$
=
 OpenBabel10222421093D

 29 32  0  0  1  0  0  0  0  0999 V2000
  182.4390  176.7700  139.4540 C   0  0  2  0  0  3  0  0  0  0  0  0
  183.0890  175.6280  138.7160 C   0  0  0  0  0  2  0  0  0  0  0  0
  182.1580  174.9670  137.7060 C   0  0  0  0  0  2  0  0  0  0  0  0
  183.6880  178.4410  142.5770 C   0  0  0  0  0  0  0  0  0  0  0  0
  181.4280  178.4420  141.6420 C   0  0  0  0  0  0  0  0  0  0  0  0
  180.3890  178.4120  140.1750 S   0  0  0  0  0  0  0  0  0  0  0  0
  182.8080  178.2100  141.4910 C   0  0  0  0  0  0  0  0  0  0  0  0
  180.1650  175.9750  138.7800 C   0  0  0  0  0  2  0  0  0  0  0  0
  181.7720  179.0070  143.9710 C   0  0  0  0  0  3  0  0  0  0  0  0
  183.2820  177.5670  140.2980 N   0  0  0  0  0  2  0  0  0  0  0  0
  181.0970  176.9040  139.5110 C   0  0  1  0  0  3  0  0  0  0  0  0
  180.8320  174.6600  138.3810 C   0  0  1  0  0  3  0  0  0  0  0  0
  180.9030  178.8130  142.8930 C   0  0  0  0  0  0  0  0  0  0  0  0
  183.1460  178.8310  143.8110 C   0  0  0  0  0  3  0  0  0  0  0  0
  187.2790  178.6420  141.3400 C   0  0  0  0  0  3  0  0  0  0  0  0
  185.1600  178.2530  142.4740 C   0  0  0  0  0  0  0  0  0  0  0  0
  187.9600  177.9240  142.3280 C   0  0  0  0  0  0  0  0  0  0  0  0
  187.2360  177.3740  143.3920 C   0  0  0  0  0  3  0  0  0  0  0  0
  185.8500  177.5390  143.4660 C   0  0  0  0  0  3  0  0  0  0  0  0
  185.8950  178.8090  141.4150 C   0  0  0  0  0  3  0  0  0  0  0  0
  190.3580  178.0830  143.2150 C   0  0  0  0  0  0  0  0  0  0  0  0
  191.7890  177.7800  142.9560 C   0  0  0  0  0  1  0  0  0  0  0  0
  190.0290  178.6250  144.3030 O   0  0  0  0  0  0  0  0  0  0  0  0
  189.3810  177.7690  142.2140 N   0  0  0  0  0  2  0  0  0  0  0  0
  179.4330  179.0550  143.0690 C   0  0  2  0  0  3  0  0  0  0  0  0
  179.1030  180.5250  142.8850 C   0  0  0  0  0  1  0  0  0  0  0  0
  179.0130  178.6290  144.3300 O   0  0  0  0  0  1  0  0  0  0  0  0
  179.9410  173.8900  137.4260 C   0  0  0  0  0  2  0  0  0  0  0  0
  180.1420  172.4620  137.6000 N   0  0  0  0  0  1  0  0  0  0  0  0
  1  2  1  1  0  0  0
  1 11  1  0  0  0  0
  1 10  1  0  0  0  0
  3 12  1  0  0  0  0
  3  2  1  0  0  0  0
  4 14  1  0  0  0  0
  5 13  2  0  0  0  0
  6  5  1  0  0  0  0
  7  5  1  0  0  0  0
  7  4  2  0  0  0  0
 10  7  1  0  0  0  0
 11  8  1  6  0  0  0
 11  6  1  0  0  0  0
 12 28  1  6  0  0  0
 12  8  1  0  0  0  0
 13 25  1  0  0  0  0
 13  9  1  0  0  0  0
 14  9  2  0  0  0  0
 15 20  2  0  0  0  0
 15 17  1  0  0  0  0
 16  4  1  0  0  0  0
 16 19  2  0  0  0  0
 17 18  2  0  0  0  0
 18 19  1  0  0  0  0
 20 16  1  0  0  0  0
 21 23  2  0  0  0  0
 22 21  1  0  0  0  0
 24 17  1  0  0  0  0
 24 21  1  0  0  0  0
 25 26  1  1  0  0  0
 25 27  1  0  0  0  0
 28 29  1  0  0  0  0
M  END
>  <MODEL>
9

>  <REMARK>
 VINA RESULT:      -7.8      4.129      8.722
  Name = 
  4 active torsions:
  status: ('A' for Active; 'I' for Inactive)
    1  A    between atoms: C_1  and  C_24
    2  A    between atoms: C_4  and  C_25
    3  A    between atoms: C_8  and  C_10
    4  A    between atoms: C_14  and  N_29
                            x       y       z     vdW  Elec       q    Type
                         _______ _______ _______ _____ _____    ______ ____

>  <TORSDO>
F 4

$$$$
