=
 OpenBabel10222420463D

 39 45  0  0  0  0  0  0  0  0999 V2000
  186.8490  177.9590  141.3480 O   0  0  0  0  0  1  0  0  0  0  0  0
  187.9040  177.6310  142.1980 C   0  0  0  0  0  0  0  0  0  0  0  0
  184.8040  178.3940  145.8100 N   0  0  0  0  0  2  0  0  0  0  0  0
  190.3470  176.9410  142.0710 C   0  0  0  0  0  0  0  0  0  0  0  0
  190.4510  176.9820  139.8910 C   0  0  0  0  0  0  0  0  0  0  0  0
  186.1340  178.0260  145.4940 C   0  0  0  0  0  0  0  0  0  0  0  0
  188.6450  177.3420  144.5800 C   0  0  0  0  0  0  0  0  0  0  0  0
  187.1100  177.7170  146.4390 C   0  0  0  0  0  3  0  0  0  0  0  0
  190.7530  176.7820  143.3810 C   0  0  0  0  0  3  0  0  0  0  0  0
  185.1400  178.3780  143.3910 C   0  0  0  0  0  2  0  0  0  0  0  0
  184.2060  178.6070  144.5360 C   0  0  0  0  0  0  0  0  0  0  0  0
  188.3640  177.3770  145.9430 C   0  0  0  0  0  0  0  0  0  0  0  0
  190.4050  176.8020  145.8030 C   0  0  0  0  0  0  0  0  0  0  0  0
  189.9680  176.9680  144.4980 C   0  0  0  0  0  0  0  0  0  0  0  0
  189.1100  177.3090  141.5520 C   0  0  0  0  0  0  0  0  0  0  0  0
  182.9610  178.9620  144.3940 C   0  0  0  0  0  0  0  0  0  0  0  0
  191.7300  176.4120  146.1690 N   0  0  0  0  0  2  0  0  0  0  0  0
  189.1900  177.3300  140.2050 N   0  0  0  0  0  0  0  0  0  0  0  0
  189.4270  177.0500  146.7010 N   0  0  0  0  0  0  0  0  0  0  0  0
  186.3900  177.9980  144.1240 C   0  0  0  0  0  0  0  0  0  0  0  0
  187.6720  177.6510  143.5980 C   0  0  0  0  0  0  0  0  0  0  0  0
  192.1220  176.2540  147.5590 C   0  0  0  0  0  1  0  0  0  0  0  0
  191.2080  176.7300  141.0140 C   0  0  0  0  0  3  0  0  0  0  0  0
  181.7150  179.3180  144.2510 C   0  0  0  0  0  3  0  0  0  0  0  0
  192.1720  176.2070  138.2410 N   0  0  0  0  0  2  0  0  0  0  0  0
  190.9400  176.8870  138.5110 C   0  0  0  0  0  0  0  0  0  0  0  0
  192.1890  176.4950  135.9200 O   0  0  0  0  0  0  0  0  0  0  0  0
  190.2720  177.4030  137.5760 O   0  0  0  0  0  0  0  0  0  0  0  0
  192.7610  176.0300  136.9440 C   0  0  0  0  0  0  0  0  0  0  0  0
  194.0060  175.3220  136.8130 N   0  0  0  0  0  0  0  0  0  0  0  0
  195.3170  176.5560  135.1460 C   0  0  0  0  0  2  0  0  0  0  0  0
  194.6700  175.2290  135.5120 C   0  0  0  0  0  3  0  0  0  0  0  0
  196.1680  175.4270  135.6780 C   0  0  0  0  0  2  0  0  0  0  0  0
  194.7530  174.9430  138.0090 C   0  0  0  0  0  2  0  0  0  0  0  0
  196.1010  172.8760  138.1900 C   0  0  0  0  0  1  0  0  0  0  0  0
  194.6960  173.4400  138.2090 C   0  0  0  0  0  2  0  0  0  0  0  0
  181.0510  179.1870  142.9270 C   0  0  0  0  0  3  0  0  0  0  0  0
  179.8460  180.1050  142.8830 C   0  0  0  0  0  2  0  0  0  0  0  0
  179.6590  178.6240  143.1270 C   0  0  0  0  0  2  0  0  0  0  0  0
  1  2  1  0  0  0  0
  2 21  1  0  0  0  0
  4  9  1  0  0  0  0
  5 18  2  0  0  0  0
  5 23  1  0  0  0  0
  6  3  1  0  0  0  0
  6  8  1  0  0  0  0
  7 12  1  0  0  0  0
  9 14  2  0  0  0  0
 10 20  1  0  0  0  0
 10 11  1  0  0  0  0
 11  3  1  0  0  0  0
 12  8  2  0  0  0  0
 12 19  1  0  0  0  0
 13 17  1  0  0  0  0
 13 19  2  0  0  0  0
 14  7  1  0  0  0  0
 14 13  1  0  0  0  0
 15  4  1  0  0  0  0
 15  2  2  0  0  0  0
 16 11  2  0  0  0  0
 17 22  1  0  0  0  0
 18 15  1  0  0  0  0
 20  6  2  0  0  0  0
 21 20  1  0  0  0  0
 21  7  2  0  0  0  0
 23  4  2  0  0  0  0
 24 16  2  0  0  0  0
 25 26  1  0  0  0  0
 26  5  1  0  0  0  0
 27 29  2  0  0  0  0
 28 26  2  0  0  0  0
 29 25  1  0  0  0  0
 30 29  1  0  0  0  0
 30 34  1  0  0  0  0
 31 32  1  0  0  0  0
 31 33  1  0  0  0  0
 32 33  1  0  0  0  0
 32 30  1  0  0  0  0
 34 36  1  0  0  0  0
 35 36  1  0  0  0  0
 37 39  1  0  0  0  0
 37 24  1  0  0  0  0
 38 37  1  0  0  0  0
 38 39  1  0  0  0  0
M  END
>  <MODEL>
1

>  <REMARK>
 VINA RESULT:     -10.6      0.000      0.000
  Name = 
  5 active torsions:
  status: ('A' for Active; 'I' for Inactive)
    1  A    between atoms: C_2  and  C_39
    2  A    between atoms: C_8  and  C_20
    3  A    between atoms: C_8  and  N_38
    4  A    between atoms: C_9  and  C_12
    5  A    between atoms: C_32  and  N_38
                            x       y       z     vdW  Elec       q    Type
                         _______ _______ _______ _____ _____    ______ ____

>  <TORSDO>
F 5

$$$$
=
 OpenBabel10222420463D

 39 45  0  0  0  0  0  0  0  0999 V2000
  186.0030  178.1100  141.0560 O   0  0  0  0  0  1  0  0  0  0  0  0
  186.6150  178.0300  142.3050 C   0  0  0  0  0  0  0  0  0  0  0  0
  182.2590  178.9750  144.1400 N   0  0  0  0  0  2  0  0  0  0  0  0
  188.9100  177.5990  143.3110 C   0  0  0  0  0  0  0  0  0  0  0  0
  189.9180  177.3290  141.3930 C   0  0  0  0  0  0  0  0  0  0  0  0
  183.6120  178.7120  144.4660 C   0  0  0  0  0  0  0  0  0  0  0  0
  186.2980  178.1790  144.7920 C   0  0  0  0  0  0  0  0  0  0  0  0
  184.1110  178.6550  145.7640 C   0  0  0  0  0  3  0  0  0  0  0  0
  188.7340  177.6810  144.6770 C   0  0  0  0  0  3  0  0  0  0  0  0
  183.5790  178.6380  142.1140 C   0  0  0  0  0  2  0  0  0  0  0  0
  182.2440  178.9300  142.7180 C   0  0  0  0  0  0  0  0  0  0  0  0
  185.4700  178.3840  145.8920 C   0  0  0  0  0  0  0  0  0  0  0  0
  187.4010  178.0210  146.7010 C   0  0  0  0  0  0  0  0  0  0  0  0
  187.5460  177.9440  145.3250 C   0  0  0  0  0  0  0  0  0  0  0  0
  187.9920  177.7490  142.2760 C   0  0  0  0  0  0  0  0  0  0  0  0
  181.1610  179.1230  142.0200 C   0  0  0  0  0  0  0  0  0  0  0  0
  188.4630  177.8370  147.6380 N   0  0  0  0  0  2  0  0  0  0  0  0
  188.6290  177.5800  141.0980 N   0  0  0  0  0  0  0  0  0  0  0  0
  186.1280  178.2900  147.0620 N   0  0  0  0  0  0  0  0  0  0  0  0
  184.4200  178.5100  143.3470 C   0  0  0  0  0  0  0  0  0  0  0  0
  185.8160  178.2310  143.4610 C   0  0  0  0  0  0  0  0  0  0  0  0
  188.2420  177.9300  149.0710 C   0  0  0  0  0  1  0  0  0  0  0  0
  190.1430  177.3300  142.7530 C   0  0  0  0  0  3  0  0  0  0  0  0
  180.0770  179.3150  141.3200 C   0  0  0  0  0  3  0  0  0  0  0  0
  190.6480  176.2380  139.2560 N   0  0  0  0  0  2  0  0  0  0  0  0
  190.9440  177.0840  140.3740 C   0  0  0  0  0  0  0  0  0  0  0  0
  192.7170  176.4010  138.1790 O   0  0  0  0  0  0  0  0  0  0  0  0
  192.0780  177.6220  140.4900 O   0  0  0  0  0  0  0  0  0  0  0  0
  191.5490  175.9220  138.1860 C   0  0  0  0  0  0  0  0  0  0  0  0
  191.1210  175.0570  137.1200 N   0  0  0  0  0  0  0  0  0  0  0  0
  192.8390  173.4090  136.5230 C   0  0  0  0  0  2  0  0  0  0  0  0
  192.0650  174.6420  136.0810 C   0  0  0  0  0  3  0  0  0  0  0  0
  191.6870  173.2650  135.5570 C   0  0  0  0  0  2  0  0  0  0  0  0
  189.8400  174.3630  137.2210 C   0  0  0  0  0  2  0  0  0  0  0  0
  187.7140  174.1630  135.9710 C   0  0  0  0  0  1  0  0  0  0  0  0
  188.7680  175.1290  136.4670 C   0  0  0  0  0  2  0  0  0  0  0  0
  180.0360  178.9180  139.8890 C   0  0  0  0  0  3  0  0  0  0  0  0
  178.9400  177.8900  139.6900 C   0  0  0  0  0  2  0  0  0  0  0  0
  180.3830  177.4470  139.7750 C   0  0  0  0  0  2  0  0  0  0  0  0
  1  2  1  0  0  0  0
  2 21  1  0  0  0  0
  3  6  1  0  0  0  0
  4  9  1  0  0  0  0
  5 23  1  0  0  0  0
  6  8  1  0  0  0  0
  7 14  1  0  0  0  0
  7 12  1  0  0  0  0
  8 12  2  0  0  0  0
  9 14  2  0  0  0  0
 10 11  1  0  0  0  0
 10 20  1  0  0  0  0
 11  3  1  0  0  0  0
 12 19  1  0  0  0  0
 13 19  2  0  0  0  0
 13 17  1  0  0  0  0
 14 13  1  0  0  0  0
 15  2  2  0  0  0  0
 15  4  1  0  0  0  0
 16 11  2  0  0  0  0
 17 22  1  0  0  0  0
 18  5  2  0  0  0  0
 18 15  1  0  0  0  0
 20 21  1  0  0  0  0
 20  6  2  0  0  0  0
 21  7  2  0  0  0  0
 23  4  2  0  0  0  0
 24 16  2  0  0  0  0
 25 26  1  0  0  0  0
 26 28  2  0  0  0  0
 26  5  1  0  0  0  0
 27 29  2  0  0  0  0
 29 25  1  0  0  0  0
 30 34  1  0  0  0  0
 30 29  1  0  0  0  0
 32 31  1  0  0  0  0
 32 30  1  0  0  0  0
 33 32  1  0  0  0  0
 33 31  1  0  0  0  0
 35 36  1  0  0  0  0
 36 34  1  0  0  0  0
 37 24  1  0  0  0  0
 38 39  1  0  0  0  0
 38 37  1  0  0  0  0
 39 37  1  0  0  0  0
M  END
>  <MODEL>
2

>  <REMARK>
 VINA RESULT:     -10.5      2.113      3.365
  Name = 
  5 active torsions:
  status: ('A' for Active; 'I' for Inactive)
    1  A    between atoms: C_2  and  C_39
    2  A    between atoms: C_8  and  C_20
    3  A    between atoms: C_8  and  N_38
    4  A    between atoms: C_9  and  C_12
    5  A    between atoms: C_32  and  N_38
                            x       y       z     vdW  Elec       q    Type
                         _______ _______ _______ _____ _____    ______ ____

>  <TORSDO>
F 5

$$$$
=
 OpenBabel10222420463D

 39 45  0  0  0  0  0  0  0  0999 V2000
  186.8020  177.7200  141.7460 O   0  0  0  0  0  1  0  0  0  0  0  0
  187.8410  177.5180  142.6520 C   0  0  0  0  0  0  0  0  0  0  0  0
  184.6210  178.5640  146.0830 N   0  0  0  0  0  2  0  0  0  0  0  0
  190.3060  176.8930  142.6610 C   0  0  0  0  0  0  0  0  0  0  0  0
  190.4690  176.7060  140.4910 C   0  0  0  0  0  0  0  0  0  0  0  0
  185.9700  178.2060  145.8420 C   0  0  0  0  0  0  0  0  0  0  0  0
  188.5230  177.5070  145.0690 C   0  0  0  0  0  0  0  0  0  0  0  0
  186.9270  178.0290  146.8390 C   0  0  0  0  0  3  0  0  0  0  0  0
  190.6790  176.8870  143.9890 C   0  0  0  0  0  3  0  0  0  0  0  0
  185.0250  178.3020  143.6900 C   0  0  0  0  0  2  0  0  0  0  0  0
  184.0540  178.6210  144.7800 C   0  0  0  0  0  0  0  0  0  0  0  0
  188.2040  177.6770  146.4130 C   0  0  0  0  0  0  0  0  0  0  0  0
  190.2630  177.1530  146.3860 C   0  0  0  0  0  0  0  0  0  0  0  0
  189.8580  177.1670  145.0610 C   0  0  0  0  0  0  0  0  0  0  0  0
  189.0730  177.1660  142.0740 C   0  0  0  0  0  0  0  0  0  0  0  0
  182.8040  178.9220  144.5700 C   0  0  0  0  0  0  0  0  0  0  0  0
  191.5870  176.8460  146.8250 N   0  0  0  0  0  2  0  0  0  0  0  0
  189.1900  177.0470  140.7350 N   0  0  0  0  0  0  0  0  0  0  0  0
  189.2540  177.4650  147.2270 N   0  0  0  0  0  0  0  0  0  0  0  0
  186.2650  178.0400  144.4890 C   0  0  0  0  0  0  0  0  0  0  0  0
  187.5700  177.6790  144.0360 C   0  0  0  0  0  0  0  0  0  0  0  0
  191.9450  176.8490  148.2330 C   0  0  0  0  0  1  0  0  0  0  0  0
  191.2020  176.5980  141.6540 C   0  0  0  0  0  3  0  0  0  0  0  0
  181.5520  179.2220  144.3580 C   0  0  0  0  0  3  0  0  0  0  0  0
  190.3580  175.5350  138.2770 N   0  0  0  0  0  2  0  0  0  0  0  0
  190.9990  176.4800  139.1420 C   0  0  0  0  0  0  0  0  0  0  0  0
  191.7620  175.7990  136.4260 O   0  0  0  0  0  0  0  0  0  0  0  0
  192.0140  177.1200  138.7570 O   0  0  0  0  0  0  0  0  0  0  0  0
  190.7620  175.2230  136.9360 C   0  0  0  0  0  0  0  0  0  0  0  0
  190.0250  174.2520  136.1730 N   0  0  0  0  0  0  0  0  0  0  0  0
  191.5540  172.7660  134.9580 C   0  0  0  0  0  2  0  0  0  0  0  0
  190.4900  173.8470  134.8460 C   0  0  0  0  0  3  0  0  0  0  0  0
  190.1380  172.3900  134.5940 C   0  0  0  0  0  2  0  0  0  0  0  0
  188.9840  173.4600  136.8220 C   0  0  0  0  0  2  0  0  0  0  0  0
  186.5570  173.2490  137.2530 C   0  0  0  0  0  1  0  0  0  0  0  0
  187.6150  174.0350  136.5090 C   0  0  0  0  0  2  0  0  0  0  0  0
  180.9300  178.9300  143.0400 C   0  0  0  0  0  3  0  0  0  0  0  0
  180.0210  180.0810  142.6550 C   0  0  0  0  0  2  0  0  0  0  0  0
  179.4300  178.8080  143.2190 C   0  0  0  0  0  2  0  0  0  0  0  0
  1  2  1  0  0  0  0
  2 21  1  0  0  0  0
  4  9  1  0  0  0  0
  5 18  2  0  0  0  0
  5 23  1  0  0  0  0
  6  3  1  0  0  0  0
  6  8  1  0  0  0  0
  7 12  1  0  0  0  0
  9 14  2  0  0  0  0
 10 20  1  0  0  0  0
 10 11  1  0  0  0  0
 11  3  1  0  0  0  0
 12  8  2  0  0  0  0
 12 19  1  0  0  0  0
 13 17  1  0  0  0  0
 13 19  2  0  0  0  0
 14  7  1  0  0  0  0
 14 13  1  0  0  0  0
 15  2  2  0  0  0  0
 15  4  1  0  0  0  0
 16 11  2  0  0  0  0
 17 22  1  0  0  0  0
 18 15  1  0  0  0  0
 20  6  2  0  0  0  0
 21 20  1  0  0  0  0
 21  7  2  0  0  0  0
 23  4  2  0  0  0  0
 24 16  2  0  0  0  0
 25 26  1  0  0  0  0
 26  5  1  0  0  0  0
 27 29  2  0  0  0  0
 28 26  2  0  0  0  0
 29 25  1  0  0  0  0
 30 34  1  0  0  0  0
 30 29  1  0  0  0  0
 32 31  1  0  0  0  0
 32 30  1  0  0  0  0
 33 32  1  0  0  0  0
 33 31  1  0  0  0  0
 36 34  1  0  0  0  0
 36 35  1  0  0  0  0
 37 39  1  0  0  0  0
 37 24  1  0  0  0  0
 38 37  1  0  0  0  0
 38 39  1  0  0  0  0
M  END
>  <MODEL>
3

>  <REMARK>
 VINA RESULT:     -10.4      2.129      2.851
  Name = 
  5 active torsions:
  status: ('A' for Active; 'I' for Inactive)
    1  A    between atoms: C_2  and  C_39
    2  A    between atoms: C_8  and  C_20
    3  A    between atoms: C_8  and  N_38
    4  A    between atoms: C_9  and  C_12
    5  A    between atoms: C_32  and  N_38
                            x       y       z     vdW  Elec       q    Type
                         _______ _______ _______ _____ _____    ______ ____

>  <TORSDO>
F 5

$$$$
=
 OpenBabel10222420463D

 39 45  0  0  0  0  0  0  0  0999 V2000
  187.2730  178.1230  142.2950 O   0  0  0  0  0  1  0  0  0  0  0  0
  185.9910  178.3650  141.8070 C   0  0  0  0  0  0  0  0  0  0  0  0
  184.6320  178.6240  146.4250 N   0  0  0  0  0  2  0  0  0  0  0  0
  184.7780  178.5930  139.5840 C   0  0  0  0  0  0  0  0  0  0  0  0
  186.5530  178.2580  138.3560 C   0  0  0  0  0  0  0  0  0  0  0  0
  184.1790  178.7080  145.0860 C   0  0  0  0  0  0  0  0  0  0  0  0
  183.5910  178.8180  142.3940 C   0  0  0  0  0  0  0  0  0  0  0  0
  182.8590  178.9580  144.7170 C   0  0  0  0  0  3  0  0  0  0  0  0
  183.4600  178.8430  139.9070 C   0  0  0  0  0  3  0  0  0  0  0  0
  186.4810  178.2730  144.8680 C   0  0  0  0  0  2  0  0  0  0  0  0
  186.0240  178.3600  146.2890 C   0  0  0  0  0  0  0  0  0  0  0  0
  182.5980  179.0070  143.3510 C   0  0  0  0  0  0  0  0  0  0  0  0
  181.6150  179.1920  141.4770 C   0  0  0  0  0  0  0  0  0  0  0  0
  182.9460  178.9400  141.1830 C   0  0  0  0  0  0  0  0  0  0  0  0
  185.8820  178.3850  140.4060 C   0  0  0  0  0  0  0  0  0  0  0  0
  186.8150  178.2140  147.3130 C   0  0  0  0  0  0  0  0  0  0  0  0
  180.5920  179.3850  140.4980 N   0  0  0  0  0  2  0  0  0  0  0  0
  186.9700  178.1790  139.6330 N   0  0  0  0  0  0  0  0  0  0  0  0
  181.3890  179.2350  142.8070 N   0  0  0  0  0  0  0  0  0  0  0  0
  185.1910  178.5170  144.1460 C   0  0  0  0  0  0  0  0  0  0  0  0
  184.9410  178.5630  142.7410 C   0  0  0  0  0  0  0  0  0  0  0  0
  179.2140  179.6460  140.8750 C   0  0  0  0  0  1  0  0  0  0  0  0
  185.2010  178.5130  138.2730 C   0  0  0  0  0  3  0  0  0  0  0  0
  187.6080  178.0670  148.3380 C   0  0  0  0  0  3  0  0  0  0  0  0
  188.6100  177.2610  137.3250 N   0  0  0  0  0  2  0  0  0  0  0  0
  187.4470  178.0900  137.2060 C   0  0  0  0  0  0  0  0  0  0  0  0
  189.4090  177.5240  135.1440 O   0  0  0  0  0  0  0  0  0  0  0  0
  187.1830  178.6750  136.1210 O   0  0  0  0  0  0  0  0  0  0  0  0
  189.5600  177.0020  136.2820 C   0  0  0  0  0  0  0  0  0  0  0  0
  190.6870  176.1450  136.5370 N   0  0  0  0  0  0  0  0  0  0  0  0
  192.4010  174.6100  135.6840 C   0  0  0  0  0  2  0  0  0  0  0  0
  191.7190  175.9590  135.5160 C   0  0  0  0  0  3  0  0  0  0  0  0
  191.3520  174.7920  134.6130 C   0  0  0  0  0  2  0  0  0  0  0  0
  190.9570  175.6890  137.8970 C   0  0  0  0  0  2  0  0  0  0  0  0
  191.0520  176.9870  140.0020 C   0  0  0  0  0  1  0  0  0  0  0  0
  191.7220  176.7510  138.6650 C   0  0  0  0  0  2  0  0  0  0  0  0
  189.0810  178.1440  148.1560 C   0  0  0  0  0  3  0  0  0  0  0  0
  189.4160  177.8860  146.7000 C   0  0  0  0  0  2  0  0  0  0  0  0
  189.5960  176.7870  147.7230 C   0  0  0  0  0  2  0  0  0  0  0  0
  2  1  1  0  0  0  0
  2 21  1  0  0  0  0
  4  9  1  0  0  0  0
  4 15  1  0  0  0  0
  5 18  2  0  0  0  0
  6  3  1  0  0  0  0
  7 21  2  0  0  0  0
  7 12  1  0  0  0  0
  8  6  1  0  0  0  0
  9 14  2  0  0  0  0
 10 11  1  0  0  0  0
 11  3  1  0  0  0  0
 11 16  2  0  0  0  0
 12  8  2  0  0  0  0
 13 19  2  0  0  0  0
 14 13  1  0  0  0  0
 14  7  1  0  0  0  0
 15  2  2  0  0  0  0
 16 24  2  0  0  0  0
 17 22  1  0  0  0  0
 17 13  1  0  0  0  0
 18 15  1  0  0  0  0
 19 12  1  0  0  0  0
 20 10  1  0  0  0  0
 20  6  2  0  0  0  0
 21 20  1  0  0  0  0
 23  5  1  0  0  0  0
 23  4  2  0  0  0  0
 26 25  1  0  0  0  0
 26  5  1  0  0  0  0
 27 29  2  0  0  0  0
 28 26  2  0  0  0  0
 29 30  1  0  0  0  0
 29 25  1  0  0  0  0
 30 34  1  0  0  0  0
 32 31  1  0  0  0  0
 32 30  1  0  0  0  0
 33 32  1  0  0  0  0
 33 31  1  0  0  0  0
 34 36  1  0  0  0  0
 36 35  1  0  0  0  0
 37 24  1  0  0  0  0
 38 39  1  0  0  0  0
 38 37  1  0  0  0  0
 39 37  1  0  0  0  0
M  END
>  <MODEL>
4

>  <REMARK>
 VINA RESULT:      -9.4      2.671      6.343
  Name = 
  5 active torsions:
  status: ('A' for Active; 'I' for Inactive)
    1  A    between atoms: C_2  and  C_39
    2  A    between atoms: C_8  and  C_20
    3  A    between atoms: C_8  and  N_38
    4  A    between atoms: C_9  and  C_12
    5  A    between atoms: C_32  and  N_38
                            x       y       z     vdW  Elec       q    Type
                         _______ _______ _______ _____ _____    ______ ____

>  <TORSDO>
F 5

$$$$
=
 OpenBabel10222420463D

 39 45  0  0  0  0  0  0  0  0999 V2000
  186.4970  177.8760  141.0710 O   0  0  0  0  0  1  0  0  0  0  0  0
  186.5350  177.9450  142.4620 C   0  0  0  0  0  0  0  0  0  0  0  0
  191.1690  176.6760  142.0780 N   0  0  0  0  0  2  0  0  0  0  0  0
  184.9940  178.4710  144.4150 C   0  0  0  0  0  0  0  0  0  0  0  0
  183.2400  178.8730  143.1780 C   0  0  0  0  0  0  0  0  0  0  0  0
  190.1390  177.0050  142.9920 C   0  0  0  0  0  0  0  0  0  0  0  0
  187.9470  177.6820  144.5230 C   0  0  0  0  0  0  0  0  0  0  0  0
  190.2960  177.0420  144.3750 C   0  0  0  0  0  3  0  0  0  0  0  0
  185.7710  178.3260  145.5460 C   0  0  0  0  0  3  0  0  0  0  0  0
  189.0930  177.1670  140.8900 C   0  0  0  0  0  2  0  0  0  0  0  0
  190.5330  176.7740  140.8090 C   0  0  0  0  0  0  0  0  0  0  0  0
  189.1710  177.3860  145.1160 C   0  0  0  0  0  0  0  0  0  0  0  0
  187.8570  177.8320  146.7260 C   0  0  0  0  0  0  0  0  0  0  0  0
  187.1020  177.9690  145.5720 C   0  0  0  0  0  0  0  0  0  0  0  0
  185.3210  178.3070  143.0720 C   0  0  0  0  0  0  0  0  0  0  0  0
  191.1580  176.5450  139.6900 C   0  0  0  0  0  0  0  0  0  0  0  0
  187.3590  178.0420  148.0490 N   0  0  0  0  0  2  0  0  0  0  0  0
  184.2280  178.5580  142.3210 N   0  0  0  0  0  0  0  0  0  0  0  0
  189.1310  177.4740  146.4580 N   0  0  0  0  0  0  0  0  0  0  0  0
  188.9240  177.2970  142.3730 C   0  0  0  0  0  0  0  0  0  0  0  0
  187.7590  177.6530  143.1190 C   0  0  0  0  0  0  0  0  0  0  0  0
  188.2060  177.8800  149.2180 C   0  0  0  0  0  1  0  0  0  0  0  0
  183.6650  178.8340  144.4890 C   0  0  0  0  0  3  0  0  0  0  0  0
  191.7830  176.3160  138.5680 C   0  0  0  0  0  3  0  0  0  0  0  0
  181.6150  179.4630  141.3620 N   0  0  0  0  0  2  0  0  0  0  0  0
  181.8800  179.2170  142.7480 C   0  0  0  0  0  0  0  0  0  0  0  0
  179.3250  179.8970  141.5500 O   0  0  0  0  0  0  0  0  0  0  0  0
  180.9560  179.2900  143.6020 O   0  0  0  0  0  0  0  0  0  0  0  0
  180.3360  179.7970  140.8030 C   0  0  0  0  0  0  0  0  0  0  0  0
  180.2090  180.0170  139.3870 N   0  0  0  0  0  0  0  0  0  0  0  0
  178.9380  181.9700  138.6160 C   0  0  0  0  0  2  0  0  0  0  0  0
  178.9350  180.4630  138.8210 C   0  0  0  0  0  3  0  0  0  0  0  0
  179.1600  181.0530  137.4370 C   0  0  0  0  0  2  0  0  0  0  0  0
  181.4060  180.0770  138.5530 C   0  0  0  0  0  2  0  0  0  0  0  0
  183.2870  178.4930  138.2820 C   0  0  0  0  0  1  0  0  0  0  0  0
  181.7970  178.6840  138.0960 C   0  0  0  0  0  2  0  0  0  0  0  0
  191.1900  176.7650  137.2810 C   0  0  0  0  0  3  0  0  0  0  0  0
  190.4690  175.6000  136.6340 C   0  0  0  0  0  2  0  0  0  0  0  0
  191.8430  176.0030  136.1460 C   0  0  0  0  0  2  0  0  0  0  0  0
  1  2  1  0  0  0  0
  2 15  2  0  0  0  0
  2 21  1  0  0  0  0
  3  6  1  0  0  0  0
  4 23  2  0  0  0  0
  4  9  1  0  0  0  0
  5 23  1  0  0  0  0
  6  8  1  0  0  0  0
  7 12  1  0  0  0  0
  7 14  1  0  0  0  0
  8 12  2  0  0  0  0
  9 14  2  0  0  0  0
 10 20  1  0  0  0  0
 11 10  1  0  0  0  0
 11  3  1  0  0  0  0
 12 19  1  0  0  0  0
 13 17  1  0  0  0  0
 14 13  1  0  0  0  0
 15  4  1  0  0  0  0
 16 11  2  0  0  0  0
 17 22  1  0  0  0  0
 18 15  1  0  0  0  0
 18  5  2  0  0  0  0
 19 13  2  0  0  0  0
 20  6  2  0  0  0  0
 20 21  1  0  0  0  0
 21  7  2  0  0  0  0
 24 16  2  0  0  0  0
 25 26  1  0  0  0  0
 26  5  1  0  0  0  0
 26 28  2  0  0  0  0
 29 25  1  0  0  0  0
 29 27  2  0  0  0  0
 30 29  1  0  0  0  0
 31 32  1  0  0  0  0
 32 30  1  0  0  0  0
 33 31  1  0  0  0  0
 33 32  1  0  0  0  0
 34 30  1  0  0  0  0
 36 35  1  0  0  0  0
 36 34  1  0  0  0  0
 37 24  1  0  0  0  0
 38 37  1  0  0  0  0
 39 38  1  0  0  0  0
 39 37  1  0  0  0  0
M  END
>  <MODEL>
5

>  <REMARK>
 VINA RESULT:      -9.3      3.215      9.814
  Name = 
  5 active torsions:
  status: ('A' for Active; 'I' for Inactive)
    1  A    between atoms: C_2  and  C_39
    2  A    between atoms: C_8  and  C_20
    3  A    between atoms: C_8  and  N_38
    4  A    between atoms: C_9  and  C_12
    5  A    between atoms: C_32  and  N_38
                            x       y       z     vdW  Elec       q    Type
                         _______ _______ _______ _____ _____    ______ ____

>  <TORSDO>
F 5

$$$$
=
 OpenBabel10222420463D

 39 45  0  0  0  0  0  0  0  0999 V2000
  188.6090  177.7210  142.4420 O   0  0  0  0  0  1  0  0  0  0  0  0
  187.2620  178.0450  142.2910 C   0  0  0  0  0  0  0  0  0  0  0  0
  187.0120  177.8780  147.1020 N   0  0  0  0  0  2  0  0  0  0  0  0
  185.5850  178.5280  140.4410 C   0  0  0  0  0  0  0  0  0  0  0  0
  187.0130  178.2690  138.8090 C   0  0  0  0  0  0  0  0  0  0  0  0
  186.2680  178.1080  145.9190 C   0  0  0  0  0  0  0  0  0  0  0  0
  185.0860  178.5030  143.4590 C   0  0  0  0  0  0  0  0  0  0  0  0
  184.9140  178.4290  145.8910 C   0  0  0  0  0  3  0  0  0  0  0  0
  184.3900  178.7790  141.0840 C   0  0  0  0  0  3  0  0  0  0  0  0
  188.4350  177.6350  145.1330 C   0  0  0  0  0  2  0  0  0  0  0  0
  188.3200  177.5910  146.6220 C   0  0  0  0  0  0  0  0  0  0  0  0
  184.3500  178.6210  144.6340 C   0  0  0  0  0  0  0  0  0  0  0  0
  182.9730  179.0190  143.0650 C   0  0  0  0  0  0  0  0  0  0  0  0
  184.1870  178.7630  142.4480 C   0  0  0  0  0  0  0  0  0  0  0  0
  186.8370  178.2090  140.9610 C   0  0  0  0  0  0  0  0  0  0  0  0
  189.3170  177.3220  147.4170 C   0  0  0  0  0  0  0  0  0  0  0  0
  181.7650  179.3380  142.3730 N   0  0  0  0  0  2  0  0  0  0  0  0
  187.7070  178.0520  139.9420 N   0  0  0  0  0  0  0  0  0  0  0  0
  183.0610  178.9360  144.4100 N   0  0  0  0  0  0  0  0  0  0  0  0
  187.0280  177.9850  144.7560 C   0  0  0  0  0  0  0  0  0  0  0  0
  186.4650  178.1780  143.4580 C   0  0  0  0  0  0  0  0  0  0  0  0
  180.5240  179.5970  143.0830 C   0  0  0  0  0  1  0  0  0  0  0  0
  185.6920  178.5680  139.0670 C   0  0  0  0  0  3  0  0  0  0  0  0
  190.3150  177.0520  148.2110 C   0  0  0  0  0  3  0  0  0  0  0  0
  188.6640  177.2560  137.2170 N   0  0  0  0  0  2  0  0  0  0  0  0
  187.6100  178.1930  137.4720 C   0  0  0  0  0  0  0  0  0  0  0  0
  188.9980  177.7640  134.9590 O   0  0  0  0  0  0  0  0  0  0  0  0
  187.1900  178.9520  136.5580 O   0  0  0  0  0  0  0  0  0  0  0  0
  189.3280  177.0690  135.9590 C   0  0  0  0  0  0  0  0  0  0  0  0
  190.3730  176.0880  135.8400 N   0  0  0  0  0  0  0  0  0  0  0  0
  192.5780  176.3780  134.8030 C   0  0  0  0  0  2  0  0  0  0  0  0
  191.1300  175.9620  134.5940 C   0  0  0  0  0  3  0  0  0  0  0  0
  192.2180  174.9120  134.7510 C   0  0  0  0  0  2  0  0  0  0  0  0
  190.8740  175.4150  137.0350 C   0  0  0  0  0  2  0  0  0  0  0  0
  192.7620  176.3550  138.3290 C   0  0  0  0  0  1  0  0  0  0  0  0
  191.2700  176.4360  138.0850 C   0  0  0  0  0  2  0  0  0  0  0  0
  191.7100  177.1070  147.6990 C   0  0  0  0  0  3  0  0  0  0  0  0
  191.9090  176.0020  146.6810 C   0  0  0  0  0  2  0  0  0  0  0  0
  192.4300  175.8330  148.0910 C   0  0  0  0  0  2  0  0  0  0  0  0
  2  1  1  0  0  0  0
  2 21  1  0  0  0  0
  4 15  1  0  0  0  0
  4  9  1  0  0  0  0
  5 23  1  0  0  0  0
  5 18  2  0  0  0  0
  6  3  1  0  0  0  0
  7 12  1  0  0  0  0
  8  6  1  0  0  0  0
  9 14  2  0  0  0  0
 10 11  1  0  0  0  0
 11  3  1  0  0  0  0
 11 16  2  0  0  0  0
 12  8  2  0  0  0  0
 13 19  2  0  0  0  0
 14 13  1  0  0  0  0
 14  7  1  0  0  0  0
 15  2  2  0  0  0  0
 16 24  2  0  0  0  0
 17 13  1  0  0  0  0
 17 22  1  0  0  0  0
 18 15  1  0  0  0  0
 19 12  1  0  0  0  0
 20 10  1  0  0  0  0
 20  6  2  0  0  0  0
 21  7  2  0  0  0  0
 21 20  1  0  0  0  0
 23  4  2  0  0  0  0
 25 26  1  0  0  0  0
 26  5  1  0  0  0  0
 27 29  2  0  0  0  0
 28 26  2  0  0  0  0
 29 25  1  0  0  0  0
 30 29  1  0  0  0  0
 30 34  1  0  0  0  0
 32 33  1  0  0  0  0
 32 31  1  0  0  0  0
 32 30  1  0  0  0  0
 33 31  1  0  0  0  0
 34 36  1  0  0  0  0
 36 35  1  0  0  0  0
 37 39  1  0  0  0  0
 37 24  1  0  0  0  0
 38 37  1  0  0  0  0
 38 39  1  0  0  0  0
M  END
>  <MODEL>
6

>  <REMARK>
 VINA RESULT:      -9.0      2.372      6.238
  Name = 
  5 active torsions:
  status: ('A' for Active; 'I' for Inactive)
    1  A    between atoms: C_2  and  C_39
    2  A    between atoms: C_8  and  C_20
    3  A    between atoms: C_8  and  N_38
    4  A    between atoms: C_9  and  C_12
    5  A    between atoms: C_32  and  N_38
                            x       y       z     vdW  Elec       q    Type
                         _______ _______ _______ _____ _____    ______ ____

>  <TORSDO>
F 5

$$$$
=
 OpenBabel10222420463D

 39 45  0  0  0  0  0  0  0  0999 V2000
  186.9370  178.0700  141.4860 O   0  0  0  0  0  1  0  0  0  0  0  0
  185.6780  178.2960  142.0380 C   0  0  0  0  0  0  0  0  0  0  0  0
  184.0750  178.4940  137.4970 N   0  0  0  0  0  2  0  0  0  0  0  0
  184.5800  178.5230  144.3200 C   0  0  0  0  0  0  0  0  0  0  0  0
  186.4220  178.2250  145.4550 C   0  0  0  0  0  0  0  0  0  0  0  0
  183.6910  178.5840  138.8570 C   0  0  0  0  0  0  0  0  0  0  0  0
  183.2430  178.7060  141.5760 C   0  0  0  0  0  0  0  0  0  0  0  0
  182.3880  178.8140  139.2930 C   0  0  0  0  0  3  0  0  0  0  0  0
  183.2420  178.7480  144.0650 C   0  0  0  0  0  3  0  0  0  0  0  0
  186.0080  178.1870  138.9560 C   0  0  0  0  0  2  0  0  0  0  0  0
  185.4760  178.2550  137.5610 C   0  0  0  0  0  0  0  0  0  0  0  0
  182.1990  178.8710  140.6700 C   0  0  0  0  0  0  0  0  0  0  0  0
  181.3120  179.0550  142.5920 C   0  0  0  0  0  0  0  0  0  0  0  0
  182.6610  178.8270  142.8180 C   0  0  0  0  0  0  0  0  0  0  0  0
  185.6420  178.3250  143.4430 C   0  0  0  0  0  0  0  0  0  0  0  0
  186.2130  178.1080  136.4970 C   0  0  0  0  0  0  0  0  0  0  0  0
  180.3390  179.2390  143.6220 N   0  0  0  0  0  2  0  0  0  0  0  0
  186.7720  178.1430  144.1590 N   0  0  0  0  0  0  0  0  0  0  0  0
  181.0160  179.0840  141.2750 N   0  0  0  0  0  0  0  0  0  0  0  0
  184.7540  178.4150  139.7440 C   0  0  0  0  0  0  0  0  0  0  0  0
  184.5770  178.4700  141.1600 C   0  0  0  0  0  0  0  0  0  0  0  0
  178.9390  179.4750  143.3160 C   0  0  0  0  0  1  0  0  0  0  0  0
  185.0720  178.4600  145.6080 C   0  0  0  0  0  3  0  0  0  0  0  0
  186.9530  177.9590  135.4340 C   0  0  0  0  0  3  0  0  0  0  0  0
  188.7020  177.6030  146.2920 N   0  0  0  0  0  2  0  0  0  0  0  0
  187.3770  178.0780  146.5590 C   0  0  0  0  0  0  0  0  0  0  0  0
  189.5140  177.6850  148.4830 O   0  0  0  0  0  0  0  0  0  0  0  0
  187.0230  178.3720  147.7320 O   0  0  0  0  0  0  0  0  0  0  0  0
  189.7360  177.4220  147.2690 C   0  0  0  0  0  0  0  0  0  0  0  0
  191.0290  176.9390  146.8640 N   0  0  0  0  0  0  0  0  0  0  0  0
  191.9820  175.1940  148.3010 C   0  0  0  0  0  2  0  0  0  0  0  0
  192.0570  176.6480  147.8650 C   0  0  0  0  0  3  0  0  0  0  0  0
  193.0410  175.6280  147.3160 C   0  0  0  0  0  2  0  0  0  0  0  0
  191.2290  176.4670  145.4960 C   0  0  0  0  0  2  0  0  0  0  0  0
  191.3560  177.2330  143.1470 C   0  0  0  0  0  1  0  0  0  0  0  0
  191.5940  177.6280  144.5890 C   0  0  0  0  0  2  0  0  0  0  0  0
  188.3130  177.3730  135.5490 C   0  0  0  0  0  3  0  0  0  0  0  0
  188.4280  176.1950  134.6030 C   0  0  0  0  0  2  0  0  0  0  0  0
  188.1970  175.9580  136.0780 C   0  0  0  0  0  2  0  0  0  0  0  0
  1  2  1  0  0  0  0
  2 15  1  0  0  0  0
  3 11  1  0  0  0  0
  3  6  1  0  0  0  0
  4 23  1  0  0  0  0
  5 23  2  0  0  0  0
  5 26  1  0  0  0  0
  6  8  1  0  0  0  0
  6 20  2  0  0  0  0
  7 14  2  0  0  0  0
  8 12  2  0  0  0  0
  9  4  2  0  0  0  0
 10 20  1  0  0  0  0
 11 10  1  0  0  0  0
 12 19  1  0  0  0  0
 12  7  1  0  0  0  0
 13 14  1  0  0  0  0
 13 17  1  0  0  0  0
 14  9  1  0  0  0  0
 15 18  2  0  0  0  0
 15  4  1  0  0  0  0
 16 11  2  0  0  0  0
 18  5  1  0  0  0  0
 19 13  2  0  0  0  0
 20 21  1  0  0  0  0
 21  7  1  0  0  0  0
 21  2  2  0  0  0  0
 22 17  1  0  0  0  0
 24 37  1  0  0  0  0
 24 16  2  0  0  0  0
 25 26  1  0  0  0  0
 25 29  1  0  0  0  0
 26 28  2  0  0  0  0
 29 27  2  0  0  0  0
 30 29  1  0  0  0  0
 30 32  1  0  0  0  0
 32 31  1  0  0  0  0
 33 32  1  0  0  0  0
 33 31  1  0  0  0  0
 34 30  1  0  0  0  0
 35 36  1  0  0  0  0
 36 34  1  0  0  0  0
 37 39  1  0  0  0  0
 38 37  1  0  0  0  0
 38 39  1  0  0  0  0
M  END
>  <MODEL>
7

>  <REMARK>
 VINA RESULT:      -8.6      4.230      9.088
  Name = 
  5 active torsions:
  status: ('A' for Active; 'I' for Inactive)
    1  A    between atoms: C_2  and  C_39
    2  A    between atoms: C_8  and  C_20
    3  A    between atoms: C_8  and  N_38
    4  A    between atoms: C_9  and  C_12
    5  A    between atoms: C_32  and  N_38
                            x       y       z     vdW  Elec       q    Type
                         _______ _______ _______ _____ _____    ______ ____

>  <TORSDO>
F 5

$$$$
=
 OpenBabel10222420463D

 39 45  0  0  0  0  0  0  0  0999 V2000
  190.4560  176.7380  141.4500 O   0  0  0  0  0  1  0  0  0  0  0  0
  189.3030  177.2190  140.8340 C   0  0  0  0  0  0  0  0  0  0  0  0
  187.6310  177.9860  145.2900 N   0  0  0  0  0  2  0  0  0  0  0  0
  188.3670  177.5860  138.4990 C   0  0  0  0  0  0  0  0  0  0  0  0
  190.1300  176.8260  137.4590 C   0  0  0  0  0  0  0  0  0  0  0  0
  187.3250  178.0970  143.9120 C   0  0  0  0  0  0  0  0  0  0  0  0
  187.0130  178.1940  141.1730 C   0  0  0  0  0  0  0  0  0  0  0  0
  186.1270  178.6000  143.4100 C   0  0  0  0  0  3  0  0  0  0  0  0
  187.1090  178.1220  138.6860 C   0  0  0  0  0  3  0  0  0  0  0  0
  189.4910  177.1790  143.9300 C   0  0  0  0  0  2  0  0  0  0  0  0
  188.9400  177.4300  145.2970 C   0  0  0  0  0  0  0  0  0  0  0  0
  186.0030  178.6340  142.0250 C   0  0  0  0  0  0  0  0  0  0  0  0
  185.2500  178.9280  140.0600 C   0  0  0  0  0  0  0  0  0  0  0  0
  186.5170  178.3890  139.9030 C   0  0  0  0  0  0  0  0  0  0  0  0
  189.3240  177.1920  139.4290 C   0  0  0  0  0  0  0  0  0  0  0  0
  189.5890  177.1720  146.3970 C   0  0  0  0  0  0  0  0  0  0  0  0
  184.3830  179.2830  138.9820 N   0  0  0  0  0  2  0  0  0  0  0  0
  190.4060  176.7250  138.7720 N   0  0  0  0  0  0  0  0  0  0  0  0
  184.9230  179.0840  141.3610 N   0  0  0  0  0  0  0  0  0  0  0  0
  188.3520  177.6520  143.0800 C   0  0  0  0  0  0  0  0  0  0  0  0
  188.2410  177.6800  141.6570 C   0  0  0  0  0  0  0  0  0  0  0  0
  183.0640  179.8450  139.2170 C   0  0  0  0  0  1  0  0  0  0  0  0
  188.8760  177.3550  137.2380 C   0  0  0  0  0  3  0  0  0  0  0  0
  190.2390  176.9130  147.4970 C   0  0  0  0  0  3  0  0  0  0  0  0
  192.4020  176.0380  136.7510 N   0  0  0  0  0  2  0  0  0  0  0  0
  191.0640  176.4170  136.4050 C   0  0  0  0  0  0  0  0  0  0  0  0
  193.1580  175.5450  134.5940 O   0  0  0  0  0  0  0  0  0  0  0  0
  190.6820  176.4030  135.2040 O   0  0  0  0  0  0  0  0  0  0  0  0
  193.4130  175.6100  135.8270 C   0  0  0  0  0  0  0  0  0  0  0  0
  194.7210  175.2540  136.3110 N   0  0  0  0  0  0  0  0  0  0  0  0
  196.4790  176.1810  134.8720 C   0  0  0  0  0  2  0  0  0  0  0  0
  195.7900  174.9200  135.3700 C   0  0  0  0  0  3  0  0  0  0  0  0
  197.1350  175.3400  135.9420 C   0  0  0  0  0  2  0  0  0  0  0  0
  195.0680  175.5000  137.7080 C   0  0  0  0  0  2  0  0  0  0  0  0
  196.2590  174.2360  139.4710 C   0  0  0  0  0  1  0  0  0  0  0  0
  195.1210  174.1900  138.4730 C   0  0  0  0  0  2  0  0  0  0  0  0
  191.7050  176.6710  147.4550 C   0  0  0  0  0  3  0  0  0  0  0  0
  192.0130  175.6750  146.3540 C   0  0  0  0  0  2  0  0  0  0  0  0
  191.9750  175.2190  147.7960 C   0  0  0  0  0  2  0  0  0  0  0  0
  2  1  1  0  0  0  0
  2 21  1  0  0  0  0
  3 11  1  0  0  0  0
  4  9  1  0  0  0  0
  4 15  1  0  0  0  0
  5 18  2  0  0  0  0
  6  3  1  0  0  0  0
  7 21  2  0  0  0  0
  7 12  1  0  0  0  0
  8  6  1  0  0  0  0
  9 14  2  0  0  0  0
 10 11  1  0  0  0  0
 11 16  2  0  0  0  0
 12  8  2  0  0  0  0
 13 19  2  0  0  0  0
 14 13  1  0  0  0  0
 14  7  1  0  0  0  0
 15  2  2  0  0  0  0
 16 24  2  0  0  0  0
 17 22  1  0  0  0  0
 17 13  1  0  0  0  0
 18 15  1  0  0  0  0
 19 12  1  0  0  0  0
 20  6  2  0  0  0  0
 20 10  1  0  0  0  0
 21 20  1  0  0  0  0
 23  5  1  0  0  0  0
 23  4  2  0  0  0  0
 26 25  1  0  0  0  0
 26  5  1  0  0  0  0
 27 29  2  0  0  0  0
 28 26  2  0  0  0  0
 29 30  1  0  0  0  0
 29 25  1  0  0  0  0
 30 34  1  0  0  0  0
 31 32  1  0  0  0  0
 31 33  1  0  0  0  0
 32 33  1  0  0  0  0
 32 30  1  0  0  0  0
 34 36  1  0  0  0  0
 36 35  1  0  0  0  0
 37 24  1  0  0  0  0
 37 39  1  0  0  0  0
 38 37  1  0  0  0  0
 38 39  1  0  0  0  0
M  END
>  <MODEL>
8

>  <REMARK>
 VINA RESULT:      -8.6      2.319      5.833
  Name = 
  5 active torsions:
  status: ('A' for Active; 'I' for Inactive)
    1  A    between atoms: C_2  and  C_39
    2  A    between atoms: C_8  and  C_20
    3  A    between atoms: C_8  and  N_38
    4  A    between atoms: C_9  and  C_12
    5  A    between atoms: C_32  and  N_38
                            x       y       z     vdW  Elec       q    Type
                         _______ _______ _______ _____ _____    ______ ____

>  <TORSDO>
F 5

$$$$
=
 OpenBabel10222420463D

 39 45  0  0  0  0  0  0  0  0999 V2000
  187.5120  177.4110  139.4710 O   0  0  0  0  0  1  0  0  0  0  0  0
  188.8310  177.1730  139.0920 C   0  0  0  0  0  0  0  0  0  0  0  0
  187.0960  176.5220  134.6420 N   0  0  0  0  0  2  0  0  0  0  0  0
  191.1540  177.0860  140.1220 C   0  0  0  0  0  0  0  0  0  0  0  0
  190.4900  177.5630  142.1470 C   0  0  0  0  0  0  0  0  0  0  0  0
  188.2740  176.5280  135.4280 C   0  0  0  0  0  0  0  0  0  0  0  0
  190.3850  176.6120  137.2000 C   0  0  0  0  0  0  0  0  0  0  0  0
  189.5510  176.2750  134.9320 C   0  0  0  0  0  3  0  0  0  0  0  0
  192.0070  176.7780  139.0810 C   0  0  0  0  0  3  0  0  0  0  0  0
  186.5730  177.0400  136.9700 C   0  0  0  0  0  2  0  0  0  0  0  0
  186.0700  176.8310  135.5790 C   0  0  0  0  0  0  0  0  0  0  0  0
  190.5920  176.3240  135.8540 C   0  0  0  0  0  0  0  0  0  0  0  0
  192.5190  176.2590  136.7450 C   0  0  0  0  0  0  0  0  0  0  0  0
  191.6390  176.5680  137.7700 C   0  0  0  0  0  0  0  0  0  0  0  0
  189.7730  177.2590  140.1320 C   0  0  0  0  0  0  0  0  0  0  0  0
  184.8150  176.9230  135.2410 C   0  0  0  0  0  0  0  0  0  0  0  0
  193.9320  176.1170  136.9080 N   0  0  0  0  0  2  0  0  0  0  0  0
  189.3780  177.5530  141.3880 N   0  0  0  0  0  0  0  0  0  0  0  0
  191.8870  176.1080  135.5620 N   0  0  0  0  0  0  0  0  0  0  0  0
  188.0410  176.8200  136.7720 C   0  0  0  0  0  0  0  0  0  0  0  0
  189.0980  176.8750  137.7300 C   0  0  0  0  0  0  0  0  0  0  0  0
  194.8000  175.7920  135.7890 C   0  0  0  0  0  1  0  0  0  0  0  0
  191.6180  177.2800  141.4070 C   0  0  0  0  0  3  0  0  0  0  0  0
  183.5580  177.0170  134.9050 C   0  0  0  0  0  3  0  0  0  0  0  0
  189.2440  177.8090  144.3080 N   0  0  0  0  0  2  0  0  0  0  0  0
  190.4800  177.8460  143.5860 C   0  0  0  0  0  0  0  0  0  0  0  0
  190.0970  178.3330  146.4210 O   0  0  0  0  0  0  0  0  0  0  0  0
  191.5610  178.1190  144.1740 O   0  0  0  0  0  0  0  0  0  0  0  0
  189.0910  178.0530  145.7140 C   0  0  0  0  0  0  0  0  0  0  0  0
  187.7870  177.9800  146.3160 N   0  0  0  0  0  0  0  0  0  0  0  0
  187.6480  177.0890  148.5980 C   0  0  0  0  0  2  0  0  0  0  0  0
  187.6020  178.3330  147.7240 C   0  0  0  0  0  3  0  0  0  0  0  0
  188.8560  177.9910  148.5140 C   0  0  0  0  0  2  0  0  0  0  0  0
  186.6050  177.8350  145.4690 C   0  0  0  0  0  2  0  0  0  0  0  0
  184.4150  178.8240  144.8810 C   0  0  0  0  0  1  0  0  0  0  0  0
  185.5190  178.7950  145.9170 C   0  0  0  0  0  2  0  0  0  0  0  0
  182.5900  177.6740  135.8210 C   0  0  0  0  0  3  0  0  0  0  0  0
  181.2160  177.0690  135.6080 C   0  0  0  0  0  2  0  0  0  0  0  0
  181.5540  178.4110  134.9970 C   0  0  0  0  0  2  0  0  0  0  0  0
  2  1  1  0  0  0  0
  2 15  1  0  0  0  0
  3  6  1  0  0  0  0
  3 11  1  0  0  0  0
  4 15  1  0  0  0  0
  4 23  1  0  0  0  0
  5 26  1  0  0  0  0
  6 20  2  0  0  0  0
  7 21  1  0  0  0  0
  7 14  2  0  0  0  0
  8  6  1  0  0  0  0
  8 12  2  0  0  0  0
  9  4  2  0  0  0  0
 11 10  1  0  0  0  0
 12  7  1  0  0  0  0
 13 17  1  0  0  0  0
 13 14  1  0  0  0  0
 14  9  1  0  0  0  0
 15 18  2  0  0  0  0
 16 11  2  0  0  0  0
 18  5  1  0  0  0  0
 19 12  1  0  0  0  0
 19 13  2  0  0  0  0
 20 10  1  0  0  0  0
 20 21  1  0  0  0  0
 21  2  2  0  0  0  0
 22 17  1  0  0  0  0
 23  5  2  0  0  0  0
 24 16  2  0  0  0  0
 24 37  1  0  0  0  0
 25 29  1  0  0  0  0
 26 28  2  0  0  0  0
 26 25  1  0  0  0  0
 29 30  1  0  0  0  0
 29 27  2  0  0  0  0
 30 32  1  0  0  0  0
 32 33  1  0  0  0  0
 32 31  1  0  0  0  0
 33 31  1  0  0  0  0
 34 36  1  0  0  0  0
 34 30  1  0  0  0  0
 35 36  1  0  0  0  0
 38 37  1  0  0  0  0
 39 38  1  0  0  0  0
 39 37  1  0  0  0  0
M  END
>  <MODEL>
9

>  <REMARK>
 VINA RESULT:      -8.2      3.770      9.290
  Name = 
  5 active torsions:
  status: ('A' for Active; 'I' for Inactive)
    1  A    between atoms: C_2  and  C_39
    2  A    between atoms: C_8  and  C_20
    3  A    between atoms: C_8  and  N_38
    4  A    between atoms: C_9  and  C_12
    5  A    between atoms: C_32  and  N_38
                            x       y       z     vdW  Elec       q    Type
                         _______ _______ _______ _____ _____    ______ ____

>  <TORSDO>
F 5

$$$$
