=
 OpenBabel10222417083D

 25 28  0  0  1  0  0  0  0  0999 V2000
  183.5050  179.1750  145.4900 N   0  0  0  0  0  1  0  0  0  0  0  0
  186.5570  178.6260  141.6700 C   0  0  0  0  0  3  0  0  0  0  0  0
  184.1740  178.7290  142.4890 C   0  0  0  0  0  1  0  0  0  0  0  0
  186.5500  178.2560  147.0890 C   0  0  1  0  0  3  0  0  0  0  0  0
  187.7970  177.3070  145.1680 C   0  0  0  0  0  0  0  0  0  0  0  0
  185.5930  178.3220  142.6730 C   0  0  0  0  0  0  0  0  0  0  0  0
  188.3160  177.7530  143.0840 C   0  0  0  0  0  0  0  0  0  0  0  0
  184.7540  178.6490  145.9220 C   0  0  0  0  0  0  0  0  0  0  0  0
  187.6260  178.6380  147.9420 N   0  0  0  0  0  1  0  0  0  0  0  0
  189.4770  177.8660  143.8410 C   0  0  0  0  0  0  0  0  0  0  0  0
  187.3620  177.3570  143.9530 C   0  0  0  0  0  0  0  0  0  0  0  0
  185.2950  178.9510  147.0640 N   0  0  0  0  0  0  0  0  0  0  0  0
  186.6990  177.5580  145.9730 C   0  0  2  0  0  3  0  0  0  0  0  0
  185.5950  177.7270  145.1710 C   0  0  2  0  0  3  0  0  0  0  0  0
  189.1400  177.6660  145.1990 C   0  0  0  0  0  2  0  0  0  0  0  0
  186.0370  177.6850  143.8460 C   0  0  0  0  0  0  0  0  0  0  0  0
  187.9410  178.3820  141.8870 C   0  0  0  0  0  3  0  0  0  0  0  0
  190.7600  178.4660  143.3640 C   0  0  0  0  0  2  0  0  0  0  0  0
  191.6230  177.4240  142.6650 C   0  0  1  0  0  3  0  0  0  0  0  0
  191.6750  176.1560  143.4970 C   0  0  0  0  0  1  0  0  0  0  0  0
  191.8450  177.1210  140.1630 C   0  0  0  0  0  0  0  0  0  0  0  0
  191.0620  177.1150  141.3580 N   0  0  0  0  0  2  0  0  0  0  0  0
  193.0790  177.3800  140.2090 O   0  0  0  0  0  0  0  0  0  0  0  0
  191.9360  176.8290  137.7650 O   0  0  0  0  0  1  0  0  0  0  0  0
  191.2210  176.8300  138.9150 N   0  0  0  0  0  2  0  0  0  0  0  0
  1  8  1  0  0  0  0
  2 17  2  0  0  0  0
  2  6  1  0  0  0  0
  3  6  1  0  0  0  0
  4  9  1  6  0  0  0
  5 15  1  0  0  0  0
  6 16  2  0  0  0  0
  7 10  2  0  0  0  0
  7 11  1  0  0  0  0
  8 12  2  0  0  0  0
 10 15  1  0  0  0  0
 11  5  2  0  0  0  0
 12  4  1  0  0  0  0
 13  5  1  6  0  0  0
 13  4  1  0  0  0  0
 14 16  1  6  0  0  0
 14  8  1  0  0  0  0
 14 13  1  0  0  0  0
 16 11  1  0  0  0  0
 17  7  1  0  0  0  0
 18 10  1  0  0  0  0
 19 18  1  0  0  0  0
 19 20  1  1  0  0  0
 21 23  2  0  0  0  0
 21 22  1  0  0  0  0
 22 19  1  0  0  0  0
 24 25  1  0  0  0  0
 25 21  1  0  0  0  0
M  END
>  <MODEL>
1

>  <REMARK>
 VINA RESULT:     -10.2      0.000      0.000
  Name = 
  3 active torsions:
  status: ('A' for Active; 'I' for Inactive)
    1  A    between atoms: C_4  and  C_6
    2  A    between atoms: C_4  and  C_13
    3  A    between atoms: C_6  and  N_16
                            x       y       z     vdW  Elec       q    Type
                         _______ _______ _______ _____ _____    ______ ____

>  <TORSDO>
F 3

$$$$
=
 OpenBabel10222417083D

 25 28  0  0  1  0  0  0  0  0999 V2000
  191.6740  177.8330  145.7370 N   0  0  0  0  0  1  0  0  0  0  0  0
  187.2400  178.3880  147.7970 C   0  0  0  0  0  3  0  0  0  0  0  0
  189.6780  177.8310  148.1190 C   0  0  0  0  0  1  0  0  0  0  0  0
  189.5020  177.5520  142.9300 C   0  0  1  0  0  3  0  0  0  0  0  0
  187.3470  177.1110  144.0730 C   0  0  0  0  0  0  0  0  0  0  0  0
  188.4290  177.7700  147.3150 C   0  0  0  0  0  0  0  0  0  0  0  0
  186.1100  177.8520  145.7260 C   0  0  0  0  0  0  0  0  0  0  0  0
  190.6470  177.5940  144.7820 C   0  0  0  0  0  0  0  0  0  0  0  0
  189.0430  178.1100  141.7020 N   0  0  0  0  0  1  0  0  0  0  0  0
  185.4650  178.1790  144.5380 C   0  0  0  0  0  0  0  0  0  0  0  0
  187.2070  177.1590  145.3560 C   0  0  2  0  0  3  0  0  0  0  0  0
  190.7540  177.9170  143.5280 N   0  0  0  0  0  0  0  0  0  0  0  0
  188.7080  177.0130  143.8440 C   0  0  2  0  0  3  0  0  0  0  0  0
  189.3570  176.9760  145.0560 C   0  0  2  0  0  3  0  0  0  0  0  0
  186.2940  177.7840  143.4630 C   0  0  0  0  0  3  0  0  0  0  0  0
  188.3900  177.1610  146.0470 C   0  0  0  0  0  0  0  0  0  0  0  0
  186.0760  178.4730  146.9840 C   0  0  0  0  0  3  0  0  0  0  0  0
  184.3060  179.1150  144.4170 C   0  0  0  0  0  2  0  0  0  0  0  0
  183.4380  178.7550  143.2200 C   0  0  1  0  0  3  0  0  0  0  0  0
  181.9870  179.0860  143.5170 C   0  0  0  0  0  1  0  0  0  0  0  0
  184.1870  178.8840  140.8060 C   0  0  0  0  0  0  0  0  0  0  0  0
  183.8700  179.5090  142.0520 N   0  0  0  0  0  2  0  0  0  0  0  0
  184.0780  177.6340  140.6720 O   0  0  0  0  0  0  0  0  0  0  0  0
  184.9330  179.1240  138.5200 O   0  0  0  0  0  1  0  0  0  0  0  0
  184.6260  179.6860  139.7130 N   0  0  0  0  0  2  0  0  0  0  0  0
  4  9  1  1  0  0  0
  4 12  1  0  0  0  0
  4 13  1  0  0  0  0
  6  2  1  0  0  0  0
  6  3  1  0  0  0  0
  7 17  1  0  0  0  0
  8  1  1  0  0  0  0
 10  7  2  0  0  0  0
 11  5  1  6  0  0  0
 11  7  1  0  0  0  0
 11 16  1  0  0  0  0
 12  8  2  0  0  0  0
 13  5  1  1  0  0  0
 13 14  1  0  0  0  0
 14  8  1  6  0  0  0
 14 16  1  0  0  0  0
 15  5  2  0  0  0  0
 15 10  1  0  0  0  0
 16  6  2  0  0  0  0
 17  2  2  0  0  0  0
 18 10  1  0  0  0  0
 19 20  1  1  0  0  0
 19 18  1  0  0  0  0
 21 22  1  0  0  0  0
 22 19  1  0  0  0  0
 23 21  2  0  0  0  0
 24 25  1  0  0  0  0
 25 21  1  0  0  0  0
M  END
>  <MODEL>
2

>  <REMARK>
 VINA RESULT:     -10.2      3.170      6.254
  Name = 
  3 active torsions:
  status: ('A' for Active; 'I' for Inactive)
    1  A    between atoms: C_4  and  C_6
    2  A    between atoms: C_4  and  C_13
    3  A    between atoms: C_6  and  N_16
                            x       y       z     vdW  Elec       q    Type
                         _______ _______ _______ _____ _____    ______ ____

>  <TORSDO>
F 3

$$$$
=
 OpenBabel10222417083D

 25 28  0  0  1  0  0  0  0  0999 V2000
  191.5440  177.5120  146.2410 N   0  0  0  0  0  1  0  0  0  0  0  0
  186.8510  178.5380  147.3040 C   0  0  0  0  0  3  0  0  0  0  0  0
  189.1160  177.8270  148.1540 C   0  0  0  0  0  1  0  0  0  0  0  0
  189.9690  177.1940  143.0640 C   0  0  1  0  0  3  0  0  0  0  0  0
  187.5970  176.9950  143.7570 C   0  0  0  0  0  0  0  0  0  0  0  0
  188.0540  177.8010  147.1130 C   0  0  0  0  0  0  0  0  0  0  0  0
  186.1200  177.9420  145.0760 C   0  0  0  0  0  0  0  0  0  0  0  0
  190.7150  177.2820  145.1080 C   0  0  0  0  0  0  0  0  0  0  0  0
  189.8170  177.6950  141.7390 N   0  0  0  0  0  1  0  0  0  0  0  0
  185.7600  178.2300  143.7640 C   0  0  0  0  0  0  0  0  0  0  0  0
  187.2060  177.1450  144.9790 C   0  0  2  0  0  3  0  0  0  0  0  0
  191.1010  177.5070  143.8880 N   0  0  0  0  0  0  0  0  0  0  0  0
  188.9630  176.7820  143.8220 C   0  0  2  0  0  3  0  0  0  0  0  0
  189.3470  176.7830  145.1420 C   0  0  2  0  0  3  0  0  0  0  0  0
  186.7510  177.7000  142.9070 C   0  0  0  0  0  3  0  0  0  0  0  0
  188.2200  177.1080  145.9000 C   0  0  0  0  0  0  0  0  0  0  0  0
  185.8880  178.6510  146.2640 C   0  0  0  0  0  3  0  0  0  0  0  0
  184.7350  179.2380  143.3550 C   0  0  0  0  0  2  0  0  0  0  0  0
  183.3570  178.6010  143.2480 C   0  0  1  0  0  3  0  0  0  0  0  0
  182.5350  178.9390  144.4780 C   0  0  0  0  0  1  0  0  0  0  0  0
  182.7190  178.4260  140.8060 C   0  0  0  0  0  0  0  0  0  0  0  0
  182.6720  179.1000  142.0650 N   0  0  0  0  0  2  0  0  0  0  0  0
  183.3510  177.3410  140.6840 O   0  0  0  0  0  0  0  0  0  0  0  0
  182.0680  178.3730  138.4790 O   0  0  0  0  0  1  0  0  0  0  0  0
  182.0420  178.9880  139.6850 N   0  0  0  0  0  2  0  0  0  0  0  0
  4  9  1  1  0  0  0
  4 13  1  0  0  0  0
  4 12  1  0  0  0  0
  6  2  1  0  0  0  0
  6  3  1  0  0  0  0
  7 17  1  0  0  0  0
  8  1  1  0  0  0  0
 10  7  2  0  0  0  0
 11  5  1  6  0  0  0
 11  7  1  0  0  0  0
 11 16  1  0  0  0  0
 12  8  2  0  0  0  0
 13  5  1  1  0  0  0
 13 14  1  0  0  0  0
 14  8  1  6  0  0  0
 14 16  1  0  0  0  0
 15  5  2  0  0  0  0
 15 10  1  0  0  0  0
 16  6  2  0  0  0  0
 17  2  2  0  0  0  0
 18 10  1  0  0  0  0
 19 18  1  0  0  0  0
 19 20  1  1  0  0  0
 21 22  1  0  0  0  0
 22 19  1  0  0  0  0
 23 21  2  0  0  0  0
 24 25  1  0  0  0  0
 25 21  1  0  0  0  0
M  END
>  <MODEL>
3

>  <REMARK>
 VINA RESULT:      -9.9      3.435      6.571
  Name = 
  3 active torsions:
  status: ('A' for Active; 'I' for Inactive)
    1  A    between atoms: C_4  and  C_6
    2  A    between atoms: C_4  and  C_13
    3  A    between atoms: C_6  and  N_16
                            x       y       z     vdW  Elec       q    Type
                         _______ _______ _______ _____ _____    ______ ____

>  <TORSDO>
F 3

$$$$
=
 OpenBabel10222417083D

 25 28  0  0  1  0  0  0  0  0999 V2000
  187.6890  178.3480  148.3170 N   0  0  0  0  0  1  0  0  0  0  0  0
  185.1850  178.8410  144.1110 C   0  0  0  0  0  3  0  0  0  0  0  0
  185.1000  178.6260  146.6210 C   0  0  0  0  0  1  0  0  0  0  0  0
  190.0650  177.2630  145.8980 C   0  0  1  0  0  3  0  0  0  0  0  0
  188.5740  176.8400  143.9630 C   0  0  0  0  0  0  0  0  0  0  0  0
  185.6990  178.2670  145.3080 C   0  0  0  0  0  0  0  0  0  0  0  0
  186.9400  177.7720  142.8340 C   0  0  0  0  0  0  0  0  0  0  0  0
  188.4300  177.8080  147.2300 C   0  0  0  0  0  0  0  0  0  0  0  0
  191.3020  177.5030  145.2330 N   0  0  0  0  0  1  0  0  0  0  0  0
  188.0690  177.7760  142.0220 C   0  0  0  0  0  0  0  0  0  0  0  0
  187.3170  177.1380  143.9640 C   0  0  2  0  0  3  0  0  0  0  0  0
  189.7260  177.8750  147.1500 N   0  0  0  0  0  0  0  0  0  0  0  0
  188.9650  176.8440  145.2910 C   0  0  2  0  0  3  0  0  0  0  0  0
  187.8690  177.1270  146.0710 C   0  0  2  0  0  3  0  0  0  0  0  0
  189.1510  177.2570  142.7680 C   0  0  0  0  0  3  0  0  0  0  0  0
  186.8080  177.4080  145.2070 C   0  0  0  0  0  0  0  0  0  0  0  0
  185.8320  178.6320  142.8610 C   0  0  0  0  0  3  0  0  0  0  0  0
  188.2070  178.5370  140.7430 C   0  0  0  0  0  2  0  0  0  0  0  0
  188.6800  177.6300  139.6160 C   0  0  1  0  0  3  0  0  0  0  0  0
  187.8810  177.9110  138.3570 C   0  0  0  0  0  1  0  0  0  0  0  0
  190.9990  176.8170  139.0160 C   0  0  0  0  0  0  0  0  0  0  0  0
  190.0900  177.8680  139.3500 N   0  0  0  0  0  2  0  0  0  0  0  0
  190.5930  175.6260  138.9190 O   0  0  0  0  0  0  0  0  0  0  0  0
  193.2580  176.1500  138.4730 O   0  0  0  0  0  1  0  0  0  0  0  0
  192.3730  177.1230  138.7910 N   0  0  0  0  0  2  0  0  0  0  0  0
  2  6  1  0  0  0  0
  4  9  1  6  0  0  0
  4 12  1  0  0  0  0
  5 11  1  0  0  0  0
  6  3  1  0  0  0  0
  7 17  1  0  0  0  0
  8  1  1  0  0  0  0
 10 15  1  0  0  0  0
 10  7  2  0  0  0  0
 11  7  1  6  0  0  0
 11 16  1  0  0  0  0
 12  8  2  0  0  0  0
 13  5  1  6  0  0  0
 13  4  1  0  0  0  0
 13 14  1  0  0  0  0
 14 16  1  6  0  0  0
 14  8  1  0  0  0  0
 15  5  2  0  0  0  0
 16  6  2  0  0  0  0
 17  2  2  0  0  0  0
 18 10  1  0  0  0  0
 19 20  1  6  0  0  0
 19 18  1  0  0  0  0
 21 22  1  0  0  0  0
 22 19  1  0  0  0  0
 23 21  2  0  0  0  0
 24 25  1  0  0  0  0
 25 21  1  0  0  0  0
M  END
>  <MODEL>
4

>  <REMARK>
 VINA RESULT:      -9.8      1.840      3.266
  Name = 
  3 active torsions:
  status: ('A' for Active; 'I' for Inactive)
    1  A    between atoms: C_4  and  C_6
    2  A    between atoms: C_4  and  C_13
    3  A    between atoms: C_6  and  N_16
                            x       y       z     vdW  Elec       q    Type
                         _______ _______ _______ _____ _____    ______ ____

>  <TORSDO>
F 3

$$$$
=
 OpenBabel10222417083D

 25 28  0  0  1  0  0  0  0  0999 V2000
  191.0690  177.3740  146.8390 N   0  0  0  0  0  1  0  0  0  0  0  0
  186.3710  178.7460  147.3400 C   0  0  0  0  0  3  0  0  0  0  0  0
  188.4520  177.8510  148.4460 C   0  0  0  0  0  1  0  0  0  0  0  0
  189.8820  177.2210  143.4870 C   0  0  1  0  0  3  0  0  0  0  0  0
  187.4340  177.1980  143.8780 C   0  0  0  0  0  0  0  0  0  0  0  0
  187.5300  177.9210  147.2810 C   0  0  0  0  0  0  0  0  0  0  0  0
  185.8800  178.2390  145.0260 C   0  0  0  0  0  0  0  0  0  0  0  0
  190.3720  177.2240  145.6080 C   0  0  0  0  0  0  0  0  0  0  0  0
  189.9350  177.7500  142.1650 N   0  0  0  0  0  1  0  0  0  0  0  0
  185.7090  178.5720  143.6860 C   0  0  0  0  0  0  0  0  0  0  0  0
  186.9060  177.3610  145.0450 C   0  0  2  0  0  3  0  0  0  0  0  0
  190.9230  177.4350  144.4500 N   0  0  0  0  0  0  0  0  0  0  0  0
  188.7610  176.8780  144.1050 C   0  0  2  0  0  3  0  0  0  0  0  0
  188.9770  176.8320  145.4620 C   0  0  2  0  0  3  0  0  0  0  0  0
  186.7560  177.9770  142.9460 C   0  0  0  0  0  3  0  0  0  0  0  0
  187.7920  177.2340  146.0820 C   0  0  0  0  0  0  0  0  0  0  0  0
  185.5560  178.9480  146.1920 C   0  0  0  0  0  3  0  0  0  0  0  0
  184.8220  179.6610  143.1770 C   0  0  0  0  0  2  0  0  0  0  0  0
  183.5970  179.0860  142.4810 C   0  0  1  0  0  3  0  0  0  0  0  0
  183.9890  177.8620  141.6740 C   0  0  0  0  0  1  0  0  0  0  0  0
  181.1990  178.9050  143.2670 C   0  0  0  0  0  0  0  0  0  0  0  0
  182.5990  178.7060  143.4700 N   0  0  0  0  0  2  0  0  0  0  0  0
  180.7740  179.4070  142.1900 O   0  0  0  0  0  0  0  0  0  0  0  0
  178.9500  178.7040  144.1290 O   0  0  0  0  0  1  0  0  0  0  0  0
  180.2820  178.5290  144.2910 N   0  0  0  0  0  2  0  0  0  0  0  0
  4  9  1  1  0  0  0
  4 13  1  0  0  0  0
  4 12  1  0  0  0  0
  6  2  1  0  0  0  0
  6  3  1  0  0  0  0
  7 11  1  0  0  0  0
  7 17  1  0  0  0  0
  8  1  1  0  0  0  0
 10  7  2  0  0  0  0
 11  5  1  6  0  0  0
 11 16  1  0  0  0  0
 12  8  2  0  0  0  0
 13  5  1  1  0  0  0
 13 14  1  0  0  0  0
 14  8  1  6  0  0  0
 14 16  1  0  0  0  0
 15 10  1  0  0  0  0
 15  5  2  0  0  0  0
 16  6  2  0  0  0  0
 17  2  2  0  0  0  0
 18 10  1  0  0  0  0
 19 20  1  1  0  0  0
 19 18  1  0  0  0  0
 19 22  1  0  0  0  0
 21 22  1  0  0  0  0
 21 25  1  0  0  0  0
 23 21  2  0  0  0  0
 24 25  1  0  0  0  0
M  END
>  <MODEL>
5

>  <REMARK>
 VINA RESULT:      -9.7      4.185      7.219
  Name = 
  3 active torsions:
  status: ('A' for Active; 'I' for Inactive)
    1  A    between atoms: C_4  and  C_6
    2  A    between atoms: C_4  and  C_13
    3  A    between atoms: C_6  and  N_16
                            x       y       z     vdW  Elec       q    Type
                         _______ _______ _______ _____ _____    ______ ____

>  <TORSDO>
F 3

$$$$
=
 OpenBabel10222417083D

 25 28  0  0  1  0  0  0  0  0999 V2000
  190.7750  177.5290  147.2060 N   0  0  0  0  0  1  0  0  0  0  0  0
  186.0150  178.6510  146.6610 C   0  0  0  0  0  3  0  0  0  0  0  0
  187.8660  177.9430  148.2190 C   0  0  0  0  0  1  0  0  0  0  0  0
  190.3030  177.1180  143.7010 C   0  0  1  0  0  3  0  0  0  0  0  0
  187.8310  176.9740  143.5940 C   0  0  0  0  0  0  0  0  0  0  0  0
  187.1980  177.8930  146.8910 C   0  0  0  0  0  0  0  0  0  0  0  0
  186.0300  177.9860  144.3350 C   0  0  0  0  0  0  0  0  0  0  0  0
  190.3510  177.2690  145.8730 C   0  0  0  0  0  0  0  0  0  0  0  0
  190.6000  177.5730  142.3840 N   0  0  0  0  0  1  0  0  0  0  0  0
  186.1210  178.2320  142.9690 C   0  0  0  0  0  0  0  0  0  0  0  0
  187.0690  177.1720  144.6190 C   0  0  2  0  0  3  0  0  0  0  0  0
  191.1150  177.4450  144.8370 N   0  0  0  0  0  0  0  0  0  0  0  0
  189.0970  176.7450  144.1040 C   0  0  2  0  0  3  0  0  0  0  0  0
  189.0340  176.7880  145.4760 C   0  0  2  0  0  3  0  0  0  0  0  0
  187.3220  177.6590  142.4960 C   0  0  0  0  0  3  0  0  0  0  0  0
  187.7300  177.1550  145.8180 C   0  0  0  0  0  0  0  0  0  0  0  0
  185.4430  178.7400  145.3620 C   0  0  0  0  0  3  0  0  0  0  0  0
  185.3070  179.2370  142.2210 C   0  0  0  0  0  2  0  0  0  0  0  0
  184.7910  178.6560  140.9120 C   0  0  1  0  0  3  0  0  0  0  0  0
  183.3950  179.1810  140.6290 C   0  0  0  0  0  1  0  0  0  0  0  0
  185.7010  178.3390  138.5730 C   0  0  0  0  0  0  0  0  0  0  0  0
  185.6740  179.0360  139.8200 N   0  0  0  0  0  2  0  0  0  0  0  0
  184.9270  177.3640  138.3680 O   0  0  0  0  0  0  0  0  0  0  0  0
  186.6600  178.1150  136.3650 O   0  0  0  0  0  1  0  0  0  0  0  0
  186.6100  178.7540  137.5570 N   0  0  0  0  0  2  0  0  0  0  0  0
  2  6  1  0  0  0  0
  4  9  1  6  0  0  0
  4 13  1  0  0  0  0
  4 12  1  0  0  0  0
  6  3  1  0  0  0  0
  7 11  1  0  0  0  0
  7 17  1  0  0  0  0
  8  1  1  0  0  0  0
 10  7  2  0  0  0  0
 11  5  1  6  0  0  0
 11 16  1  0  0  0  0
 12  8  2  0  0  0  0
 13  5  1  6  0  0  0
 13 14  1  0  0  0  0
 14 16  1  6  0  0  0
 14  8  1  0  0  0  0
 15 10  1  0  0  0  0
 15  5  2  0  0  0  0
 16  6  2  0  0  0  0
 17  2  2  0  0  0  0
 18 10  1  0  0  0  0
 19 20  1  6  0  0  0
 19 18  1  0  0  0  0
 21 22  1  0  0  0  0
 22 19  1  0  0  0  0
 23 21  2  0  0  0  0
 24 25  1  0  0  0  0
 25 21  1  0  0  0  0
M  END
>  <MODEL>
6

>  <REMARK>
 VINA RESULT:      -9.5      2.961      5.471
  Name = 
  3 active torsions:
  status: ('A' for Active; 'I' for Inactive)
    1  A    between atoms: C_4  and  C_6
    2  A    between atoms: C_4  and  C_13
    3  A    between atoms: C_6  and  N_16
                            x       y       z     vdW  Elec       q    Type
                         _______ _______ _______ _____ _____    ______ ____

>  <TORSDO>
F 3

$$$$
=
 OpenBabel10222417083D

 25 28  0  0  1  0  0  0  0  0999 V2000
  185.2860  178.7790  147.2970 N   0  0  0  0  0  1  0  0  0  0  0  0
  184.9240  179.2770  142.4160 C   0  0  0  0  0  3  0  0  0  0  0  0
  183.7290  179.1230  144.6300 C   0  0  0  0  0  1  0  0  0  0  0  0
  188.4340  177.5460  146.1820 C   0  0  1  0  0  3  0  0  0  0  0  0
  187.9340  177.1390  143.7880 C   0  0  0  0  0  0  0  0  0  0  0  0
  184.8290  178.7100  143.7180 C   0  0  0  0  0  0  0  0  0  0  0  0
  187.0110  178.1100  142.0500 C   0  0  0  0  0  0  0  0  0  0  0  0
  186.4060  178.1860  146.6520 C   0  0  0  0  0  0  0  0  0  0  0  0
  189.8470  177.7210  146.1330 N   0  0  0  0  0  1  0  0  0  0  0  0
  188.3820  178.0500  141.8210 C   0  0  0  0  0  0  0  0  0  0  0  0
  186.8210  177.4870  143.2330 C   0  0  2  0  0  3  0  0  0  0  0  0
  187.6050  178.2000  147.1530 N   0  0  0  0  0  0  0  0  0  0  0  0
  187.6970  177.1570  145.1520 C   0  0  2  0  0  3  0  0  0  0  0  0
  186.3840  177.5020  145.3660 C   0  0  2  0  0  3  0  0  0  0  0  0
  188.9980  177.5060  142.9710 C   0  0  0  0  0  3  0  0  0  0  0  0
  185.8280  177.8060  144.1210 C   0  0  0  0  0  0  0  0  0  0  0  0
  186.0460  179.0140  141.5820 C   0  0  0  0  0  3  0  0  0  0  0  0
  189.1050  178.7760  140.7330 C   0  0  0  0  0  2  0  0  0  0  0  0
  189.4800  177.8300  139.6020 C   0  0  1  0  0  3  0  0  0  0  0  0
  190.4080  176.7470  140.1210 C   0  0  0  0  0  1  0  0  0  0  0  0
  187.5350  177.7870  137.9840 C   0  0  0  0  0  0  0  0  0  0  0  0
  188.2810  177.2100  139.0580 N   0  0  0  0  0  2  0  0  0  0  0  0
  187.9140  178.8640  137.4480 O   0  0  0  0  0  0  0  0  0  0  0  0
  185.6280  177.6550  136.5040 O   0  0  0  0  0  1  0  0  0  0  0  0
  186.3560  177.1340  137.5200 N   0  0  0  0  0  2  0  0  0  0  0  0
  2  6  1  0  0  0  0
  4  9  1  6  0  0  0
  4 12  1  0  0  0  0
  6 16  2  0  0  0  0
  6  3  1  0  0  0  0
  8 12  2  0  0  0  0
  8  1  1  0  0  0  0
 10  7  2  0  0  0  0
 10 15  1  0  0  0  0
 11  7  1  6  0  0  0
 11  5  1  0  0  0  0
 11 16  1  0  0  0  0
 13  5  1  6  0  0  0
 13 14  1  0  0  0  0
 13  4  1  0  0  0  0
 14 16  1  6  0  0  0
 14  8  1  0  0  0  0
 15  5  2  0  0  0  0
 17  7  1  0  0  0  0
 17  2  2  0  0  0  0
 18 10  1  0  0  0  0
 19 20  1  1  0  0  0
 19 18  1  0  0  0  0
 21 22  1  0  0  0  0
 22 19  1  0  0  0  0
 23 21  2  0  0  0  0
 24 25  1  0  0  0  0
 25 21  1  0  0  0  0
M  END
>  <MODEL>
7

>  <REMARK>
 VINA RESULT:      -9.3      2.406      3.107
  Name = 
  3 active torsions:
  status: ('A' for Active; 'I' for Inactive)
    1  A    between atoms: C_4  and  C_6
    2  A    between atoms: C_4  and  C_13
    3  A    between atoms: C_6  and  N_16
                            x       y       z     vdW  Elec       q    Type
                         _______ _______ _______ _____ _____    ______ ____

>  <TORSDO>
F 3

$$$$
=
 OpenBabel10222417083D

 25 28  0  0  1  0  0  0  0  0999 V2000
  182.8600  179.6520  143.3070 N   0  0  0  0  0  1  0  0  0  0  0  0
  187.2440  178.6310  141.3190 C   0  0  0  0  0  3  0  0  0  0  0  0
  184.7720  178.9680  140.9540 C   0  0  0  0  0  1  0  0  0  0  0  0
  184.7440  178.6060  146.1410 C   0  0  1  0  0  3  0  0  0  0  0  0
  186.6280  177.4450  145.0250 C   0  0  0  0  0  0  0  0  0  0  0  0
  185.9050  178.4660  141.7760 C   0  0  0  0  0  0  0  0  0  0  0  0
  188.0770  177.7180  143.3990 C   0  0  0  0  0  0  0  0  0  0  0  0
  183.7200  179.0610  144.2740 C   0  0  0  0  0  0  0  0  0  0  0  0
  185.3470  178.9580  147.3830 N   0  0  0  0  0  1  0  0  0  0  0  0
  188.7730  177.7890  144.6010 C   0  0  0  0  0  0  0  0  0  0  0  0
  186.7990  177.4510  143.7440 C   0  0  0  0  0  0  0  0  0  0  0  0
  183.7110  179.3920  145.5300 N   0  0  0  0  0  0  0  0  0  0  0  0
  185.3150  177.8300  145.2320 C   0  0  2  0  0  3  0  0  0  0  0  0
  184.7170  178.0310  144.0110 C   0  0  2  0  0  3  0  0  0  0  0  0
  187.8390  177.7020  145.6580 C   0  0  0  0  0  3  0  0  0  0  0  0
  185.7050  177.8720  143.0360 C   0  0  0  0  0  0  0  0  0  0  0  0
  188.3480  178.2960  142.1510 C   0  0  0  0  0  2  0  0  0  0  0  0
  190.1840  178.2580  144.7510 C   0  0  0  0  0  2  0  0  0  0  0  0
  191.1540  177.0850  144.7230 C   0  0  1  0  0  3  0  0  0  0  0  0
  191.9880  177.1360  143.4560 C   0  0  0  0  0  1  0  0  0  0  0  0
  191.9650  176.2060  146.9530 C   0  0  0  0  0  0  0  0  0  0  0  0
  192.0370  177.1460  145.8780 N   0  0  0  0  0  2  0  0  0  0  0  0
  191.1290  175.2610  146.9210 O   0  0  0  0  0  0  0  0  0  0  0  0
  192.8040  175.4690  149.0960 O   0  0  0  0  0  1  0  0  0  0  0  0
  192.8470  176.3430  148.0630 N   0  0  0  0  0  2  0  0  0  0  0  0
  1  8  1  0  0  0  0
  2  6  2  0  0  0  0
  2 17  1  0  0  0  0
  3  6  1  0  0  0  0
  4  9  1  6  0  0  0
  5 15  2  0  0  0  0
  6 16  1  0  0  0  0
  7 11  1  0  0  0  0
  7 10  2  0  0  0  0
  8 12  2  0  0  0  0
 10 18  1  0  0  0  0
 10 15  1  0  0  0  0
 11  5  1  0  0  0  0
 12  4  1  0  0  0  0
 13  5  1  6  0  0  0
 13  4  1  0  0  0  0
 14 16  1  6  0  0  0
 14  8  1  0  0  0  0
 14 13  1  0  0  0  0
 16 11  2  0  0  0  0
 17  7  1  0  0  0  0
 19 20  1  6  0  0  0
 19 18  1  0  0  0  0
 19 22  1  0  0  0  0
 21 25  1  0  0  0  0
 22 21  1  0  0  0  0
 23 21  2  0  0  0  0
 25 24  1  0  0  0  0
M  END
>  <MODEL>
8

>  <REMARK>
 VINA RESULT:      -8.9      3.123      3.932
  Name = 
  3 active torsions:
  status: ('A' for Active; 'I' for Inactive)
    1  A    between atoms: C_4  and  C_6
    2  A    between atoms: C_4  and  C_13
    3  A    between atoms: C_6  and  N_16
                            x       y       z     vdW  Elec       q    Type
                         _______ _______ _______ _____ _____    ______ ____

>  <TORSDO>
F 3

$$$$
=
 OpenBabel10222417083D

 25 28  0  0  1  0  0  0  0  0999 V2000
  186.6420  177.2950  137.0780 N   0  0  0  0  0  1  0  0  0  0  0  0
  184.1750  178.2210  141.2330 C   0  0  0  0  0  3  0  0  0  0  0  0
  184.2290  178.3670  138.7170 C   0  0  0  0  0  1  0  0  0  0  0  0
  189.2230  177.1660  139.5270 C   0  0  1  0  0  3  0  0  0  0  0  0
  188.1080  178.3240  141.4150 C   0  0  0  0  0  0  0  0  0  0  0  0
  184.9150  178.4330  140.0350 C   0  0  0  0  0  0  0  0  0  0  0  0
  186.2170  178.3430  142.5260 C   0  0  0  0  0  0  0  0  0  0  0  0
  187.5420  177.4420  138.1700 C   0  0  0  0  0  0  0  0  0  0  0  0
  190.1810  176.3780  140.2270 N   0  0  0  0  0  1  0  0  0  0  0  0
  187.1930  177.8170  143.3650 C   0  0  0  0  0  0  0  0  0  0  0  0
  186.8660  178.6760  141.3900 C   0  0  0  0  0  0  0  0  0  0  0  0
  188.6400  176.7560  138.2830 N   0  0  0  0  0  0  0  0  0  0  0  0
  188.4610  178.0880  140.0970 C   0  0  2  0  0  3  0  0  0  0  0  0
  187.3730  178.3480  139.2980 C   0  0  2  0  0  3  0  0  0  0  0  0
  188.3980  177.7190  142.6330 C   0  0  0  0  0  3  0  0  0  0  0  0
  186.3010  178.6460  140.1420 C   0  0  0  0  0  0  0  0  0  0  0  0
  184.8310  178.1300  142.4930 C   0  0  0  0  0  2  0  0  0  0  0  0
  186.9310  177.1280  144.6650 C   0  0  0  0  0  2  0  0  0  0  0  0
  187.2930  178.0240  145.8410 C   0  0  1  0  0  3  0  0  0  0  0  0
  186.0490  178.3460  146.6470 C   0  0  0  0  0  1  0  0  0  0  0  0
  189.6660  177.4160  146.4750 C   0  0  0  0  0  0  0  0  0  0  0  0
  188.2560  177.3480  146.6980 N   0  0  0  0  0  2  0  0  0  0  0  0
  190.1310  178.0970  145.5200 O   0  0  0  0  0  0  0  0  0  0  0  0
  191.8880  176.7530  147.1590 O   0  0  0  0  0  1  0  0  0  0  0  0
  190.5470  176.7090  147.3440 N   0  0  0  0  0  2  0  0  0  0  0  0
  1  8  1  0  0  0  0
  2 17  1  0  0  0  0
  3  6  1  0  0  0  0
  4 13  1  0  0  0  0
  4  9  1  1  0  0  0
  5 15  2  0  0  0  0
  6 16  1  0  0  0  0
  6  2  2  0  0  0  0
  7 10  2  0  0  0  0
  8 12  2  0  0  0  0
 10 18  1  0  0  0  0
 11  5  1  0  0  0  0
 11  7  1  0  0  0  0
 12  4  1  0  0  0  0
 13  5  1  1  0  0  0
 14  8  1  1  0  0  0
 14 13  1  0  0  0  0
 14 16  1  0  0  0  0
 15 10  1  0  0  0  0
 16 11  2  0  0  0  0
 17  7  1  0  0  0  0
 18 19  1  0  0  0  0
 19 20  1  1  0  0  0
 19 22  1  0  0  0  0
 21 22  1  0  0  0  0
 21 25  1  0  0  0  0
 23 21  2  0  0  0  0
 24 25  1  0  0  0  0
M  END
>  <MODEL>
9

>  <REMARK>
 VINA RESULT:      -8.8      2.858      6.084
  Name = 
  3 active torsions:
  status: ('A' for Active; 'I' for Inactive)
    1  A    between atoms: C_4  and  C_6
    2  A    between atoms: C_4  and  C_13
    3  A    between atoms: C_6  and  N_16
                            x       y       z     vdW  Elec       q    Type
                         _______ _______ _______ _____ _____    ______ ____

>  <TORSDO>
F 3

$$$$
