=
 OpenBabel10222420193D

 27 30  0  0  1  0  0  0  0  0999 V2000
  190.0980  176.1720  142.8610 C   0  0  0  0  0  3  0  0  0  0  0  0
  186.6840  178.2260  142.1470 O   0  0  0  0  0  0  0  0  0  0  0  0
  187.8410  177.6230  142.2180 C   0  0  0  0  0  0  0  0  0  0  0  0
  188.9260  177.3070  138.8200 C   0  0  0  0  0  2  0  0  0  0  0  0
  190.4050  177.2250  138.4270 C   0  0  1  0  0  3  0  0  0  0  0  0
  188.6880  178.2830  139.9630 C   0  0  0  0  0  2  0  0  0  0  0  0
  190.0370  176.8440  141.6190 C   0  0  0  0  0  0  0  0  0  0  0  0
  186.7950  177.1730  144.1210 N   0  0  0  0  0  0  0  0  0  0  0  0
  187.9200  176.9800  143.4140 C   0  0  0  0  0  0  0  0  0  0  0  0
  189.0350  176.2330  143.7780 C   0  0  0  0  0  3  0  0  0  0  0  0
  191.3970  177.5420  139.5530 C   0  0  0  0  0  2  0  0  0  0  0  0
  191.1660  176.7260  140.7400 N   0  0  0  0  0  2  0  0  0  0  0  0
  188.8700  177.5860  141.2760 C   0  0  0  0  0  0  0  0  0  0  0  0
  186.0640  177.9550  143.2850 C   0  0  0  0  0  0  0  0  0  0  0  0
  191.2670  173.5010  136.4380 C   0  0  0  0  0  0  0  0  0  0  0  0
  189.9450  173.8540  136.7610 C   0  0  0  0  0  0  0  0  0  0  0  0
  192.0420  175.5870  137.4190 C   0  0  0  0  0  3  0  0  0  0  0  0
  188.8100  172.9500  136.4210 C   0  0  0  0  0  1  0  0  0  0  0  0
  190.7220  175.9330  137.7410 C   0  0  0  0  0  0  0  0  0  0  0  0
  192.3120  174.3780  136.7720 C   0  0  0  0  0  3  0  0  0  0  0  0
  189.6800  175.0640  137.4080 C   0  0  0  0  0  3  0  0  0  0  0  0
  191.5220  172.2860  135.7890 O   0  0  0  0  0  0  0  0  0  0  0  0
  192.8360  171.7940  135.5680 C   0  0  0  0  0  1  0  0  0  0  0  0
  184.7170  178.4380  143.6380 C   0  0  0  0  0  3  0  0  0  0  0  0
  184.4080  179.0140  144.7610 N   0  0  0  0  0  0  0  0  0  0  0  0
  185.3420  179.2730  145.8460 C   0  0  0  0  0  2  0  0  0  0  0  0
  184.9520  178.5060  147.0140 N   0  0  0  0  0  1  0  0  0  0  0  0
  1 10  1  0  0  0  0
  2  3  1  0  0  0  0
  2 14  1  0  0  0  0
  3  9  1  0  0  0  0
  4  6  1  0  0  0  0
  5 19  1  1  0  0  0
  5  4  1  0  0  0  0
  5 11  1  0  0  0  0
  6 13  1  0  0  0  0
  7  1  2  0  0  0  0
  9 10  2  0  0  0  0
  9  8  1  0  0  0  0
 11 12  1  0  0  0  0
 12  7  1  0  0  0  0
 13  7  1  0  0  0  0
 13  3  2  0  0  0  0
 14 24  1  0  0  0  0
 14  8  2  0  0  0  0
 15 16  2  0  0  0  0
 15 20  1  0  0  0  0
 16 21  1  0  0  0  0
 17 19  1  0  0  0  0
 18 16  1  0  0  0  0
 20 17  2  0  0  0  0
 21 19  2  0  0  0  0
 22 15  1  0  0  0  0
 23 22  1  0  0  0  0
 24 25  2  0  0  0  0
 25 26  1  0  0  0  0
 26 27  1  0  0  0  0
M  END
>  <MODEL>
1

>  <REMARK>
 VINA RESULT:      -7.0      0.000      0.000
  Name = 
  4 active torsions:
  status: ('A' for Active; 'I' for Inactive)
    1  A    between atoms: C_3  and  C_26
    2  A    between atoms: O_6  and  C_7
    3  A    between atoms: C_8  and  C_15
    4  A    between atoms: C_17  and  N_20
                            x       y       z     vdW  Elec       q    Type
                         _______ _______ _______ _____ _____    ______ ____

>  <TORSDO>
F 4

$$$$
=
 OpenBabel10222420193D

 27 30  0  0  1  0  0  0  0  0999 V2000
  180.7570  178.7140  142.8150 C   0  0  0  0  0  3  0  0  0  0  0  0
  184.7520  178.7210  143.4620 O   0  0  0  0  0  0  0  0  0  0  0  0
  183.5040  178.6890  143.0820 C   0  0  0  0  0  0  0  0  0  0  0  0
  183.5860  179.4390  139.5820 C   0  0  0  0  0  2  0  0  0  0  0  0
  182.5100  178.9540  138.6040 C   0  0  1  0  0  3  0  0  0  0  0  0
  183.9190  178.3950  140.6360 C   0  0  0  0  0  2  0  0  0  0  0  0
  181.5620  178.5290  141.6680 C   0  0  0  0  0  0  0  0  0  0  0  0
  183.4690  178.9960  145.2780 N   0  0  0  0  0  0  0  0  0  0  0  0
  182.7140  178.8550  144.1770 C   0  0  0  0  0  0  0  0  0  0  0  0
  181.3260  178.8790  144.0900 C   0  0  0  0  0  3  0  0  0  0  0  0
  181.5340  177.9170  139.1720 C   0  0  0  0  0  2  0  0  0  0  0  0
  180.9000  178.3710  140.4050 N   0  0  0  0  0  2  0  0  0  0  0  0
  182.9810  178.5260  141.7980 C   0  0  0  0  0  0  0  0  0  0  0  0
  184.7270  178.9040  144.7730 C   0  0  0  0  0  0  0  0  0  0  0  0
  180.4390  182.2170  136.6990 C   0  0  0  0  0  0  0  0  0  0  0  0
  180.4240  180.9300  136.1350 C   0  0  0  0  0  0  0  0  0  0  0  0
  181.8160  181.3810  138.5210 C   0  0  0  0  0  3  0  0  0  0  0  0
  179.6910  180.6620  134.8660 C   0  0  0  0  0  1  0  0  0  0  0  0
  181.8010  180.1000  137.9520 C   0  0  0  0  0  0  0  0  0  0  0  0
  181.1400  182.4330  137.8970 C   0  0  0  0  0  3  0  0  0  0  0  0
  181.1030  179.8810  136.7620 C   0  0  0  0  0  3  0  0  0  0  0  0
  179.7560  183.2620  136.0630 O   0  0  0  0  0  0  0  0  0  0  0  0
  179.2950  184.4130  136.7550 C   0  0  0  0  0  1  0  0  0  0  0  0
  185.9250  179.0020  145.6270 C   0  0  0  0  0  3  0  0  0  0  0  0
  186.9490  178.2060  145.5610 N   0  0  0  0  0  0  0  0  0  0  0  0
  187.0750  177.0910  144.6340 C   0  0  0  0  0  2  0  0  0  0  0  0
  188.0100  177.4400  143.5810 N   0  0  0  0  0  1  0  0  0  0  0  0
  1 10  1  0  0  0  0
  2 14  1  0  0  0  0
  3  2  1  0  0  0  0
  3  9  1  0  0  0  0
  4  6  1  0  0  0  0
  5 19  1  1  0  0  0
  5 11  1  0  0  0  0
  5  4  1  0  0  0  0
  6 13  1  0  0  0  0
  7 13  1  0  0  0  0
  7  1  2  0  0  0  0
  9  8  1  0  0  0  0
 10  9  2  0  0  0  0
 11 12  1  0  0  0  0
 12  7  1  0  0  0  0
 13  3  2  0  0  0  0
 14  8  2  0  0  0  0
 14 24  1  0  0  0  0
 15 20  1  0  0  0  0
 16 15  2  0  0  0  0
 16 21  1  0  0  0  0
 18 16  1  0  0  0  0
 19 17  1  0  0  0  0
 20 17  2  0  0  0  0
 21 19  2  0  0  0  0
 22 15  1  0  0  0  0
 22 23  1  0  0  0  0
 25 24  2  0  0  0  0
 26 25  1  0  0  0  0
 27 26  1  0  0  0  0
M  END
>  <MODEL>
2

>  <REMARK>
 VINA RESULT:      -7.0      6.276      9.287
  Name = 
  4 active torsions:
  status: ('A' for Active; 'I' for Inactive)
    1  A    between atoms: C_3  and  C_26
    2  A    between atoms: O_6  and  C_7
    3  A    between atoms: C_8  and  C_15
    4  A    between atoms: C_17  and  N_20
                            x       y       z     vdW  Elec       q    Type
                         _______ _______ _______ _____ _____    ______ ____

>  <TORSDO>
F 4

$$$$
=
 OpenBabel10222420193D

 27 30  0  0  1  0  0  0  0  0999 V2000
  187.7100  178.2980  140.4060 C   0  0  0  0  0  3  0  0  0  0  0  0
  186.3680  178.0040  144.2130 O   0  0  0  0  0  0  0  0  0  0  0  0
  186.6350  178.1500  142.9430 C   0  0  0  0  0  0  0  0  0  0  0  0
  183.4660  177.8780  141.2980 C   0  0  0  0  0  2  0  0  0  0  0  0
  183.1720  178.5440  139.9500 C   0  0  1  0  0  3  0  0  0  0  0  0
  184.3280  178.7520  142.1960 C   0  0  0  0  0  2  0  0  0  0  0  0
  186.3420  178.5960  140.5970 C   0  0  0  0  0  0  0  0  0  0  0  0
  188.5400  177.5500  143.9070 N   0  0  0  0  0  0  0  0  0  0  0  0
  187.9520  177.8770  142.7450 C   0  0  0  0  0  0  0  0  0  0  0  0
  188.5360  177.9330  141.4840 C   0  0  0  0  0  3  0  0  0  0  0  0
  184.2340  179.5420  139.4710 C   0  0  0  0  0  2  0  0  0  0  0  0
  185.5700  178.9570  139.4420 N   0  0  0  0  0  2  0  0  0  0  0  0
  185.7780  178.5110  141.9030 C   0  0  0  0  0  0  0  0  0  0  0  0
  187.5070  177.6470  144.7840 C   0  0  0  0  0  0  0  0  0  0  0  0
  182.2090  175.6710  136.8860 C   0  0  0  0  0  0  0  0  0  0  0  0
  182.3650  177.0320  136.5710 C   0  0  0  0  0  0  0  0  0  0  0  0
  182.6800  176.1770  139.2170 C   0  0  0  0  0  3  0  0  0  0  0  0
  182.2030  177.5140  135.1700 C   0  0  0  0  0  1  0  0  0  0  0  0
  182.8320  177.5340  138.8980 C   0  0  0  0  0  0  0  0  0  0  0  0
  182.3690  175.2520  138.2170 C   0  0  0  0  0  3  0  0  0  0  0  0
  182.6750  177.9540  137.5750 C   0  0  0  0  0  3  0  0  0  0  0  0
  181.8970  174.7560  135.8730 O   0  0  0  0  0  0  0  0  0  0  0  0
  181.8790  173.3510  136.0840 C   0  0  0  0  0  1  0  0  0  0  0  0
  187.6720  177.3740  146.2240 C   0  0  0  0  0  3  0  0  0  0  0  0
  187.0340  177.9910  147.1720 N   0  0  0  0  0  0  0  0  0  0  0  0
  186.0560  179.0480  146.9630 C   0  0  0  0  0  2  0  0  0  0  0  0
  184.7200  178.4810  146.9690 N   0  0  0  0  0  1  0  0  0  0  0  0
  1  7  2  0  0  0  0
  1 10  1  0  0  0  0
  2 14  1  0  0  0  0
  3  2  1  0  0  0  0
  4  6  1  0  0  0  0
  5 19  1  6  0  0  0
  5  4  1  0  0  0  0
  7 13  1  0  0  0  0
  8 14  2  0  0  0  0
  9  3  1  0  0  0  0
  9  8  1  0  0  0  0
 10  9  2  0  0  0  0
 11  5  1  0  0  0  0
 12 11  1  0  0  0  0
 12  7  1  0  0  0  0
 13  6  1  0  0  0  0
 13  3  2  0  0  0  0
 14 24  1  0  0  0  0
 15 20  1  0  0  0  0
 16 15  2  0  0  0  0
 16 21  1  0  0  0  0
 18 16  1  0  0  0  0
 19 17  1  0  0  0  0
 20 17  2  0  0  0  0
 21 19  2  0  0  0  0
 22 23  1  0  0  0  0
 22 15  1  0  0  0  0
 24 25  2  0  0  0  0
 26 27  1  0  0  0  0
 26 25  1  0  0  0  0
M  END
>  <MODEL>
3

>  <REMARK>
 VINA RESULT:      -7.0      4.460      6.294
  Name = 
  4 active torsions:
  status: ('A' for Active; 'I' for Inactive)
    1  A    between atoms: C_3  and  C_26
    2  A    between atoms: O_6  and  C_7
    3  A    between atoms: C_8  and  C_15
    4  A    between atoms: C_17  and  N_20
                            x       y       z     vdW  Elec       q    Type
                         _______ _______ _______ _____ _____    ______ ____

>  <TORSDO>
F 4

$$$$
=
 OpenBabel10222420193D

 27 30  0  0  1  0  0  0  0  0999 V2000
  188.6560  178.6140  139.4500 C   0  0  0  0  0  3  0  0  0  0  0  0
  190.7360  175.2140  138.7440 O   0  0  0  0  0  0  0  0  0  0  0  0
  190.1430  176.3110  139.1330 C   0  0  0  0  0  0  0  0  0  0  0  0
  190.2240  176.1840  142.7100 C   0  0  0  0  0  2  0  0  0  0  0  0
  190.2040  177.4420  143.5850 C   0  0  1  0  0  3  0  0  0  0  0  0
  191.0620  176.3690  141.4540 C   0  0  0  0  0  2  0  0  0  0  0  0
  189.4630  178.1570  140.5180 C   0  0  0  0  0  0  0  0  0  0  0  0
  189.4700  175.9530  137.0500 N   0  0  0  0  0  0  0  0  0  0  0  0
  189.3710  176.7700  138.1110 C   0  0  0  0  0  0  0  0  0  0  0  0
  188.6010  177.9220  138.2280 C   0  0  0  0  0  3  0  0  0  0  0  0
  190.4050  178.7630  142.8310 C   0  0  0  0  0  2  0  0  0  0  0  0
  189.4580  178.9220  141.7320 N   0  0  0  0  0  2  0  0  0  0  0  0
  190.2250  176.9630  140.3630 C   0  0  0  0  0  0  0  0  0  0  0  0
  190.3320  175.0050  137.5010 C   0  0  0  0  0  0  0  0  0  0  0  0
  186.7710  177.5650  146.1850 C   0  0  0  0  0  0  0  0  0  0  0  0
  188.0700  177.6870  146.7060 C   0  0  0  0  0  0  0  0  0  0  0  0
  187.7070  177.3570  143.9500 C   0  0  0  0  0  3  0  0  0  0  0  0
  188.2930  177.8640  148.1680 C   0  0  0  0  0  1  0  0  0  0  0  0
  189.0010  177.4770  144.4750 C   0  0  0  0  0  0  0  0  0  0  0  0
  186.5990  177.3990  144.8000 C   0  0  0  0  0  3  0  0  0  0  0  0
  189.1760  177.6430  145.8510 C   0  0  0  0  0  3  0  0  0  0  0  0
  185.6700  177.6090  147.0500 O   0  0  0  0  0  0  0  0  0  0  0  0
  184.5010  178.3670  146.7690 C   0  0  0  0  0  1  0  0  0  0  0  0
  190.7560  173.8680  136.6640 C   0  0  0  0  0  3  0  0  0  0  0  0
  191.9700  173.6650  136.2500 N   0  0  0  0  0  0  0  0  0  0  0  0
  193.1030  174.5280  136.5460 C   0  0  0  0  0  2  0  0  0  0  0  0
  193.8660  173.9670  137.6450 N   0  0  0  0  0  1  0  0  0  0  0  0
  1  7  1  0  0  0  0
  2  3  1  0  0  0  0
  3 13  1  0  0  0  0
  4  5  1  0  0  0  0
  5 19  1  6  0  0  0
  6  4  1  0  0  0  0
  7 12  1  0  0  0  0
  8 14  2  0  0  0  0
  8  9  1  0  0  0  0
  9 10  1  0  0  0  0
  9  3  2  0  0  0  0
 10  1  2  0  0  0  0
 11  5  1  0  0  0  0
 12 11  1  0  0  0  0
 13  7  2  0  0  0  0
 13  6  1  0  0  0  0
 14  2  1  0  0  0  0
 15 16  1  0  0  0  0
 15 22  1  0  0  0  0
 16 18  1  0  0  0  0
 17 19  2  0  0  0  0
 17 20  1  0  0  0  0
 19 21  1  0  0  0  0
 20 15  2  0  0  0  0
 21 16  2  0  0  0  0
 23 22  1  0  0  0  0
 24 14  1  0  0  0  0
 25 26  1  0  0  0  0
 25 24  2  0  0  0  0
 26 27  1  0  0  0  0
M  END
>  <MODEL>
4

>  <REMARK>
 VINA RESULT:      -7.0      2.687      8.821
  Name = 
  4 active torsions:
  status: ('A' for Active; 'I' for Inactive)
    1  A    between atoms: C_3  and  C_26
    2  A    between atoms: O_6  and  C_7
    3  A    between atoms: C_8  and  C_15
    4  A    between atoms: C_17  and  N_20
                            x       y       z     vdW  Elec       q    Type
                         _______ _______ _______ _____ _____    ______ ____

>  <TORSDO>
F 4

$$$$
=
 OpenBabel10222420193D

 27 30  0  0  1  0  0  0  0  0999 V2000
  188.9230  174.3860  137.0470 C   0  0  0  0  0  3  0  0  0  0  0  0
  192.9630  174.6240  137.0400 O   0  0  0  0  0  0  0  0  0  0  0  0
  191.6630  174.7090  137.1190 C   0  0  0  0  0  0  0  0  0  0  0  0
  191.0500  177.0740  139.7360 C   0  0  0  0  0  2  0  0  0  0  0  0
  189.7790  177.9260  139.8030 C   0  0  1  0  0  3  0  0  0  0  0  0
  191.5540  176.9010  138.3120 C   0  0  0  0  0  2  0  0  0  0  0  0
  189.4670  175.5560  137.6220 C   0  0  0  0  0  0  0  0  0  0  0  0
  192.0930  172.7800  136.1130 N   0  0  0  0  0  0  0  0  0  0  0  0
  191.1230  173.5930  136.5590 C   0  0  0  0  0  0  0  0  0  0  0  0
  189.7480  173.3850  136.5050 C   0  0  0  0  0  3  0  0  0  0  0  0
  188.9020  177.8880  138.5450 C   0  0  0  0  0  2  0  0  0  0  0  0
  188.5530  176.5260  138.1550 N   0  0  0  0  0  2  0  0  0  0  0  0
  190.8820  175.7240  137.6720 C   0  0  0  0  0  0  0  0  0  0  0  0
  193.2150  173.4720  136.4380 C   0  0  0  0  0  0  0  0  0  0  0  0
  187.4740  177.1490  143.3600 C   0  0  0  0  0  0  0  0  0  0  0  0
  187.0090  178.0490  142.3850 C   0  0  0  0  0  0  0  0  0  0  0  0
  189.4600  176.7500  142.0150 C   0  0  0  0  0  3  0  0  0  0  0  0
  185.7070  178.7530  142.5560 C   0  0  0  0  0  1  0  0  0  0  0  0
  188.9930  177.6490  141.0470 C   0  0  0  0  0  0  0  0  0  0  0  0
  188.7060  176.5030  143.1640 C   0  0  0  0  0  3  0  0  0  0  0  0
  187.7680  178.2930  141.2370 C   0  0  0  0  0  3  0  0  0  0  0  0
  186.7070  176.9120  144.5070 O   0  0  0  0  0  0  0  0  0  0  0  0
  186.9390  177.5790  145.7400 C   0  0  0  0  0  1  0  0  0  0  0  0
  194.5660  172.9640  136.1380 C   0  0  0  0  0  3  0  0  0  0  0  0
  195.4170  172.5520  137.0290 N   0  0  0  0  0  0  0  0  0  0  0  0
  195.1720  172.5270  138.4630 C   0  0  0  0  0  2  0  0  0  0  0  0
  195.7920  173.6840  139.0810 N   0  0  0  0  0  1  0  0  0  0  0  0
  1  7  1  0  0  0  0
  2  3  1  0  0  0  0
  3 13  1  0  0  0  0
  4  5  1  0  0  0  0
  5 19  1  1  0  0  0
  6  4  1  0  0  0  0
  7 13  2  0  0  0  0
  7 12  1  0  0  0  0
  8 14  2  0  0  0  0
  8  9  1  0  0  0  0
  9  3  2  0  0  0  0
 10  9  1  0  0  0  0
 10  1  2  0  0  0  0
 11  5  1  0  0  0  0
 12 11  1  0  0  0  0
 13  6  1  0  0  0  0
 14  2  1  0  0  0  0
 15 22  1  0  0  0  0
 16 18  1  0  0  0  0
 16 15  2  0  0  0  0
 17 20  2  0  0  0  0
 19 21  2  0  0  0  0
 19 17  1  0  0  0  0
 20 15  1  0  0  0  0
 21 16  1  0  0  0  0
 22 23  1  0  0  0  0
 24 14  1  0  0  0  0
 24 25  2  0  0  0  0
 25 26  1  0  0  0  0
 26 27  1  0  0  0  0
M  END
>  <MODEL>
5

>  <REMARK>
 VINA RESULT:      -7.0      3.073      8.719
  Name = 
  4 active torsions:
  status: ('A' for Active; 'I' for Inactive)
    1  A    between atoms: C_3  and  C_26
    2  A    between atoms: O_6  and  C_7
    3  A    between atoms: C_8  and  C_15
    4  A    between atoms: C_17  and  N_20
                            x       y       z     vdW  Elec       q    Type
                         _______ _______ _______ _____ _____    ______ ____

>  <TORSDO>
F 4

$$$$
=
 OpenBabel10222420193D

 27 30  0  0  1  0  0  0  0  0999 V2000
  189.4470  176.1690  143.0390 C   0  0  0  0  0  3  0  0  0  0  0  0
  186.4660  178.6620  141.9070 O   0  0  0  0  0  0  0  0  0  0  0  0
  187.5160  177.9190  142.1290 C   0  0  0  0  0  0  0  0  0  0  0  0
  189.1440  177.6500  138.9520 C   0  0  0  0  0  2  0  0  0  0  0  0
  190.6500  177.4060  138.8100 C   0  0  1  0  0  3  0  0  0  0  0  0
  188.8180  178.5860  140.1050 C   0  0  0  0  0  2  0  0  0  0  0  0
  189.6830  176.9070  141.8570 C   0  0  0  0  0  0  0  0  0  0  0  0
  186.1060  177.5030  143.7900 N   0  0  0  0  0  0  0  0  0  0  0  0
  187.3090  177.2100  143.2710 C   0  0  0  0  0  0  0  0  0  0  0  0
  188.2510  176.3130  143.7640 C   0  0  0  0  0  3  0  0  0  0  0  0
  191.4570  177.5400  140.1080 C   0  0  0  0  0  2  0  0  0  0  0  0
  190.9280  176.6980  141.1760 N   0  0  0  0  0  2  0  0  0  0  0  0
  188.6850  177.8050  141.3760 C   0  0  0  0  0  0  0  0  0  0  0  0
  185.6280  178.4110  142.9010 C   0  0  0  0  0  0  0  0  0  0  0  0
  191.4270  173.7120  136.7330 C   0  0  0  0  0  0  0  0  0  0  0  0
  190.1100  174.1690  136.9180 C   0  0  0  0  0  0  0  0  0  0  0  0
  192.2520  175.6720  137.9120 C   0  0  0  0  0  3  0  0  0  0  0  0
  188.9520  173.3890  136.3990 C   0  0  0  0  0  1  0  0  0  0  0  0
  190.9370  176.1220  138.0960 C   0  0  0  0  0  0  0  0  0  0  0  0
  192.4940  174.4740  137.2350 C   0  0  0  0  0  3  0  0  0  0  0  0
  189.8720  175.3680  137.5960 C   0  0  0  0  0  3  0  0  0  0  0  0
  191.6540  172.5090  136.0530 O   0  0  0  0  0  0  0  0  0  0  0  0
  192.9480  172.0900  135.6420 C   0  0  0  0  0  1  0  0  0  0  0  0
  184.3020  179.0370  143.0540 C   0  0  0  0  0  3  0  0  0  0  0  0
  183.3200  178.9080  142.2130 N   0  0  0  0  0  0  0  0  0  0  0  0
  183.3740  178.1250  140.9880 C   0  0  0  0  0  2  0  0  0  0  0  0
  183.6600  178.9990  139.8670 N   0  0  0  0  0  1  0  0  0  0  0  0
  1 10  1  0  0  0  0
  2  3  1  0  0  0  0
  2 14  1  0  0  0  0
  3  9  1  0  0  0  0
  4  6  1  0  0  0  0
  5 19  1  1  0  0  0
  5  4  1  0  0  0  0
  5 11  1  0  0  0  0
  6 13  1  0  0  0  0
  7  1  2  0  0  0  0
  9 10  2  0  0  0  0
  9  8  1  0  0  0  0
 11 12  1  0  0  0  0
 12  7  1  0  0  0  0
 13  7  1  0  0  0  0
 13  3  2  0  0  0  0
 14 24  1  0  0  0  0
 14  8  2  0  0  0  0
 15 16  2  0  0  0  0
 15 20  1  0  0  0  0
 16 21  1  0  0  0  0
 17 19  1  0  0  0  0
 18 16  1  0  0  0  0
 20 17  2  0  0  0  0
 21 19  2  0  0  0  0
 22 15  1  0  0  0  0
 23 22  1  0  0  0  0
 25 24  2  0  0  0  0
 26 25  1  0  0  0  0
 27 26  1  0  0  0  0
M  END
>  <MODEL>
6

>  <REMARK>
 VINA RESULT:      -6.9      1.338      1.892
  Name = 
  4 active torsions:
  status: ('A' for Active; 'I' for Inactive)
    1  A    between atoms: C_3  and  C_26
    2  A    between atoms: O_6  and  C_7
    3  A    between atoms: C_8  and  C_15
    4  A    between atoms: C_17  and  N_20
                            x       y       z     vdW  Elec       q    Type
                         _______ _______ _______ _____ _____    ______ ____

>  <TORSDO>
F 4

$$$$
=
 OpenBabel10222420193D

 27 30  0  0  1  0  0  0  0  0999 V2000
  179.3710  175.4500  141.0340 C   0  0  0  0  0  3  0  0  0  0  0  0
  181.1930  174.5140  137.5430 O   0  0  0  0  0  0  0  0  0  0  0  0
  180.6930  174.9710  138.6590 C   0  0  0  0  0  0  0  0  0  0  0  0
  183.0130  177.4700  139.7530 C   0  0  0  0  0  2  0  0  0  0  0  0
  182.6010  178.6540  140.6350 C   0  0  1  0  0  3  0  0  0  0  0  0
  181.9530  177.1270  138.7180 C   0  0  0  0  0  2  0  0  0  0  0  0
  180.2570  176.4260  140.5260 C   0  0  0  0  0  0  0  0  0  0  0  0
  179.7720  172.9780  138.3440 N   0  0  0  0  0  0  0  0  0  0  0  0
  179.8280  174.0460  139.1560 C   0  0  0  0  0  0  0  0  0  0  0  0
  179.1440  174.2420  140.3500 C   0  0  0  0  0  3  0  0  0  0  0  0
  181.0890  178.8410  140.8090 C   0  0  0  0  0  2  0  0  0  0  0  0
  180.4330  177.6300  141.2880 N   0  0  0  0  0  2  0  0  0  0  0  0
  180.9510  176.1810  139.3050 C   0  0  0  0  0  0  0  0  0  0  0  0
  180.6400  173.3250  137.3590 C   0  0  0  0  0  0  0  0  0  0  0  0
  184.7290  178.6210  144.3810 C   0  0  0  0  0  0  0  0  0  0  0  0
  185.3700  178.2460  143.1890 C   0  0  0  0  0  0  0  0  0  0  0  0
  182.6810  179.0200  143.1330 C   0  0  0  0  0  3  0  0  0  0  0  0
  186.8010  177.8310  143.1890 C   0  0  0  0  0  1  0  0  0  0  0  0
  183.3240  178.6420  141.9460 C   0  0  0  0  0  0  0  0  0  0  0  0
  183.3790  179.0080  144.3420 C   0  0  0  0  0  3  0  0  0  0  0  0
  184.6680  178.2590  141.9800 C   0  0  0  0  0  3  0  0  0  0  0  0
  185.4420  178.6040  145.5870 O   0  0  0  0  0  0  0  0  0  0  0  0
  184.8430  178.2650  146.8300 C   0  0  0  0  0  1  0  0  0  0  0  0
  180.9180  172.4430  136.2110 C   0  0  0  0  0  3  0  0  0  0  0  0
  181.9400  171.6450  136.1200 N   0  0  0  0  0  0  0  0  0  0  0  0
  182.9710  171.4970  137.1370 C   0  0  0  0  0  2  0  0  0  0  0  0
  184.1350  172.2780  136.7640 N   0  0  0  0  0  1  0  0  0  0  0  0
  2  3  1  0  0  0  0
  3  9  2  0  0  0  0
  3 13  1  0  0  0  0
  4  5  1  0  0  0  0
  5 11  1  0  0  0  0
  5 19  1  1  0  0  0
  6 13  1  0  0  0  0
  6  4  1  0  0  0  0
  7  1  1  0  0  0  0
  7 12  1  0  0  0  0
  8  9  1  0  0  0  0
  9 10  1  0  0  0  0
 10  1  2  0  0  0  0
 11 12  1  0  0  0  0
 13  7  2  0  0  0  0
 14  2  1  0  0  0  0
 14  8  2  0  0  0  0
 15 22  1  0  0  0  0
 16 18  1  0  0  0  0
 16 15  2  0  0  0  0
 17 20  2  0  0  0  0
 19 21  2  0  0  0  0
 19 17  1  0  0  0  0
 20 15  1  0  0  0  0
 21 16  1  0  0  0  0
 22 23  1  0  0  0  0
 24 14  1  0  0  0  0
 25 24  2  0  0  0  0
 25 26  1  0  0  0  0
 27 26  1  0  0  0  0
M  END
>  <MODEL>
7

>  <REMARK>
 VINA RESULT:      -6.6      6.137     10.250
  Name = 
  4 active torsions:
  status: ('A' for Active; 'I' for Inactive)
    1  A    between atoms: C_3  and  C_26
    2  A    between atoms: O_6  and  C_7
    3  A    between atoms: C_8  and  C_15
    4  A    between atoms: C_17  and  N_20
                            x       y       z     vdW  Elec       q    Type
                         _______ _______ _______ _____ _____    ______ ____

>  <TORSDO>
F 4

$$$$
=
 OpenBabel10222420193D

 27 30  0  0  1  0  0  0  0  0999 V2000
  188.4330  178.4830  140.4090 C   0  0  0  0  0  3  0  0  0  0  0  0
  190.8780  175.6240  138.9130 O   0  0  0  0  0  0  0  0  0  0  0  0
  190.2090  176.5630  139.5270 C   0  0  0  0  0  0  0  0  0  0  0  0
  191.3590  176.4480  142.9160 C   0  0  0  0  0  2  0  0  0  0  0  0
  191.3340  177.6690  143.8420 C   0  0  1  0  0  3  0  0  0  0  0  0
  191.7340  176.8150  141.4890 C   0  0  0  0  0  2  0  0  0  0  0  0
  189.5940  178.2120  141.1690 C   0  0  0  0  0  0  0  0  0  0  0  0
  189.0450  176.0720  137.7040 N   0  0  0  0  0  0  0  0  0  0  0  0
  189.0940  176.8440  138.8010 C   0  0  0  0  0  0  0  0  0  0  0  0
  188.1690  177.7990  139.2090 C   0  0  0  0  0  3  0  0  0  0  0  0
  191.0240  179.0030  143.1520 C   0  0  0  0  0  2  0  0  0  0  0  0
  189.7860  178.9540  142.3820 N   0  0  0  0  0  2  0  0  0  0  0  0
  190.5090  177.2140  140.7240 C   0  0  0  0  0  0  0  0  0  0  0  0
  190.1800  175.3340  137.8260 C   0  0  0  0  0  0  0  0  0  0  0  0
  188.7890  176.9990  147.2540 C   0  0  0  0  0  0  0  0  0  0  0  0
  188.2540  177.4620  146.0400 C   0  0  0  0  0  0  0  0  0  0  0  0
  191.0020  176.9720  146.2470 C   0  0  0  0  0  3  0  0  0  0  0  0
  186.7950  177.7310  145.9010 C   0  0  0  0  0  1  0  0  0  0  0  0
  190.4650  177.4370  145.0380 C   0  0  0  0  0  0  0  0  0  0  0  0
  190.1690  176.7550  147.3470 C   0  0  0  0  0  3  0  0  0  0  0  0
  189.0910  177.6780  144.9410 C   0  0  0  0  0  3  0  0  0  0  0  0
  187.9410  176.7860  148.3480 O   0  0  0  0  0  0  0  0  0  0  0  0
  187.5730  177.8220  149.2490 C   0  0  0  0  0  1  0  0  0  0  0  0
  190.5680  174.3200  136.8300 C   0  0  0  0  0  3  0  0  0  0  0  0
  189.8110  173.3400  136.4370 N   0  0  0  0  0  0  0  0  0  0  0  0
  188.4610  173.0890  136.9200 C   0  0  0  0  0  2  0  0  0  0  0  0
  187.5110  173.3350  135.8510 N   0  0  0  0  0  1  0  0  0  0  0  0
  1  7  1  0  0  0  0
  2  3  1  0  0  0  0
  3 13  1  0  0  0  0
  4  5  1  0  0  0  0
  5 19  1  1  0  0  0
  6  4  1  0  0  0  0
  7 12  1  0  0  0  0
  8 14  2  0  0  0  0
  8  9  1  0  0  0  0
  9 10  1  0  0  0  0
  9  3  2  0  0  0  0
 10  1  2  0  0  0  0
 11  5  1  0  0  0  0
 12 11  1  0  0  0  0
 13  7  2  0  0  0  0
 13  6  1  0  0  0  0
 14  2  1  0  0  0  0
 15 20  1  0  0  0  0
 15 22  1  0  0  0  0
 16 15  2  0  0  0  0
 17 20  2  0  0  0  0
 18 16  1  0  0  0  0
 19 17  1  0  0  0  0
 21 19  2  0  0  0  0
 21 16  1  0  0  0  0
 22 23  1  0  0  0  0
 24 14  1  0  0  0  0
 25 24  2  0  0  0  0
 25 26  1  0  0  0  0
 27 26  1  0  0  0  0
M  END
>  <MODEL>
8

>  <REMARK>
 VINA RESULT:      -6.5      3.152      8.478
  Name = 
  4 active torsions:
  status: ('A' for Active; 'I' for Inactive)
    1  A    between atoms: C_3  and  C_26
    2  A    between atoms: O_6  and  C_7
    3  A    between atoms: C_8  and  C_15
    4  A    between atoms: C_17  and  N_20
                            x       y       z     vdW  Elec       q    Type
                         _______ _______ _______ _____ _____    ______ ____

>  <TORSDO>
F 4

$$$$
=
 OpenBabel10222420193D

 27 30  0  0  1  0  0  0  0  0999 V2000
  181.8040  179.2550  143.4800 C   0  0  0  0  0  3  0  0  0  0  0  0
  185.2480  177.9330  141.8140 O   0  0  0  0  0  0  0  0  0  0  0  0
  184.0650  178.3420  142.1890 C   0  0  0  0  0  0  0  0  0  0  0  0
  182.4990  179.5040  139.1860 C   0  0  0  0  0  2  0  0  0  0  0  0
  180.9780  179.5170  138.9960 C   0  0  1  0  0  3  0  0  0  0  0  0
  182.9740  178.2740  139.9430 C   0  0  0  0  0  2  0  0  0  0  0  0
  181.7490  178.9890  142.0940 C   0  0  0  0  0  0  0  0  0  0  0  0
  185.3220  178.3390  144.0160 N   0  0  0  0  0  0  0  0  0  0  0  0
  184.0980  178.5920  143.5250 C   0  0  0  0  0  0  0  0  0  0  0  0
  182.9850  179.0580  144.2170 C   0  0  0  0  0  3  0  0  0  0  0  0
  180.1810  178.7660  140.0700 C   0  0  0  0  0  2  0  0  0  0  0  0
  180.5040  179.2200  141.4180 N   0  0  0  0  0  2  0  0  0  0  0  0
  182.9170  178.5270  141.4190 C   0  0  0  0  0  0  0  0  0  0  0  0
  185.9940  177.9320  142.9080 C   0  0  0  0  0  0  0  0  0  0  0  0
  179.5130  183.5110  138.3140 C   0  0  0  0  0  0  0  0  0  0  0  0
  180.5580  182.9870  137.5350 C   0  0  0  0  0  0  0  0  0  0  0  0
  179.4170  181.4220  139.5540 C   0  0  0  0  0  3  0  0  0  0  0  0
  181.1840  183.7980  136.4520 C   0  0  0  0  0  1  0  0  0  0  0  0
  180.4610  180.9040  138.7760 C   0  0  0  0  0  0  0  0  0  0  0  0
  178.9470  182.7170  139.3250 C   0  0  0  0  0  3  0  0  0  0  0  0
  181.0260  181.6910  137.7680 C   0  0  0  0  0  3  0  0  0  0  0  0
  179.0520  184.8120  138.0720 O   0  0  0  0  0  0  0  0  0  0  0  0
  178.9310  185.7870  139.0980 C   0  0  0  0  0  1  0  0  0  0  0  0
  187.4130  177.5350  142.9510 C   0  0  0  0  0  3  0  0  0  0  0  0
  188.3290  177.9730  142.1410 N   0  0  0  0  0  0  0  0  0  0  0  0
  188.1000  178.9240  141.0640 C   0  0  0  0  0  2  0  0  0  0  0  0
  188.5160  178.3380  139.8040 N   0  0  0  0  0  1  0  0  0  0  0  0
  1 10  1  0  0  0  0
  2  3  1  0  0  0  0
  2 14  1  0  0  0  0
  3  9  1  0  0  0  0
  4  6  1  0  0  0  0
  5 19  1  1  0  0  0
  5  4  1  0  0  0  0
  5 11  1  0  0  0  0
  6 13  1  0  0  0  0
  7  1  2  0  0  0  0
  9  8  1  0  0  0  0
  9 10  2  0  0  0  0
 11 12  1  0  0  0  0
 12  7  1  0  0  0  0
 13  7  1  0  0  0  0
 13  3  2  0  0  0  0
 14 24  1  0  0  0  0
 14  8  2  0  0  0  0
 15 20  1  0  0  0  0
 16 21  1  0  0  0  0
 16 15  2  0  0  0  0
 18 16  1  0  0  0  0
 19 17  1  0  0  0  0
 20 17  2  0  0  0  0
 21 19  2  0  0  0  0
 22 15  1  0  0  0  0
 22 23  1  0  0  0  0
 25 24  2  0  0  0  0
 26 25  1  0  0  0  0
 27 26  1  0  0  0  0
M  END
>  <MODEL>
9

>  <REMARK>
 VINA RESULT:      -6.5      5.789     10.241
  Name = 
  4 active torsions:
  status: ('A' for Active; 'I' for Inactive)
    1  A    between atoms: C_3  and  C_26
    2  A    between atoms: O_6  and  C_7
    3  A    between atoms: C_8  and  C_15
    4  A    between atoms: C_17  and  N_20
                            x       y       z     vdW  Elec       q    Type
                         _______ _______ _______ _____ _____    ______ ____

>  <TORSDO>
F 4

$$$$
