=
 OpenBabel10222420293D

 31 35  0  0  1  0  0  0  0  0999 V2000
  187.4600  177.3250  139.0710 N   0  0  1  0  0  0  0  0  0  0  0  0
  187.3880  178.1340  137.8380 C   0  0  1  0  0  3  0  0  0  0  0  0
  190.0290  177.1000  140.6970 C   0  0  0  0  0  3  0  0  0  0  0  0
  188.2670  177.3790  142.7520 S   0  0  0  0  0  0  0  0  0  0  0  0
  188.8270  177.5490  141.0680 C   0  0  0  0  0  0  0  0  0  0  0  0
  189.8000  177.8680  138.2270 C   0  0  0  0  0  2  0  0  0  0  0  0
  188.4650  177.1540  137.9860 C   0  0  1  0  0  3  0  0  0  0  0  0
  186.6940  178.5750  140.9810 C   0  0  0  0  0  3  0  0  0  0  0  0
  187.8730  178.2340  140.1420 C   0  0  2  0  0  3  0  0  0  0  0  0
  186.7570  178.2120  142.2570 C   0  0  0  0  0  0  0  0  0  0  0  0
  190.5640  177.1980  139.3270 C   0  0  0  0  0  0  0  0  0  0  0  0
  191.6970  176.7130  139.0760 O   0  0  0  0  0  0  0  0  0  0  0  0
  184.8350  178.6380  145.4890 C   0  0  0  0  0  3  0  0  0  0  0  0
  185.8770  178.4020  144.5870 C   0  0  0  0  0  3  0  0  0  0  0  0
  185.6500  178.4670  143.2040 C   0  0  0  0  0  0  0  0  0  0  0  0
  183.5560  178.9410  145.0160 C   0  0  0  0  0  3  0  0  0  0  0  0
  184.3600  178.7720  142.7390 C   0  0  0  0  0  3  0  0  0  0  0  0
  183.3190  179.0080  143.6410 C   0  0  0  0  0  3  0  0  0  0  0  0
  185.5520  177.3260  134.7720 O   0  0  0  0  0  0  0  0  0  0  0  0
  187.6300  178.2540  134.9830 O   0  0  0  0  0  1  0  0  0  0  0  0
  186.3320  177.6160  136.9660 N   0  0  0  0  0  0  0  0  0  0  0  0
  186.4740  177.7140  135.5370 C   0  0  0  0  0  0  0  0  0  0  0  0
  184.1940  178.0080  138.1050 C   0  0  0  0  0  3  0  0  0  0  0  0
  184.7950  175.7390  137.5310 C   0  0  0  0  0  0  0  0  0  0  0  0
  182.7120  176.1750  138.5960 C   0  0  0  0  0  0  0  0  0  0  0  0
  185.1110  177.1130  137.5420 C   0  0  0  0  0  0  0  0  0  0  0  0
  182.9910  177.5420  138.6350 C   0  0  0  0  0  0  0  0  0  0  0  0
  183.6130  175.3130  138.0550 N   0  0  0  0  0  0  0  0  0  0  0  0
  181.5480  175.7020  139.1040 F   0  0  0  0  0  0  0  0  0  0  0  0
  182.1050  178.4130  139.1770 F   0  0  0  0  0  0  0  0  0  0  0  0
  185.7450  174.7250  136.9940 C   0  0  0  0  0  1  0  0  0  0  0  0
  1  9  1  0  0  0  0
  2  7  1  0  0  0  0
  2  1  1  0  0  0  0
  3  5  2  0  0  0  0
  5  4  1  0  0  0  0
  6 11  1  0  0  0  0
  7  6  1  0  0  0  0
  7  1  1  0  0  0  0
  8 10  2  0  0  0  0
  9  8  1  0  0  0  0
  9  5  1  0  0  0  0
 10  4  1  0  0  0  0
 10 15  1  0  0  0  0
 11  3  1  0  0  0  0
 12 11  2  0  0  0  0
 14 13  2  0  0  0  0
 15 14  1  0  0  0  0
 16 13  1  0  0  0  0
 17 15  2  0  0  0  0
 17 18  1  0  0  0  0
 18 16  2  0  0  0  0
 19 22  2  0  0  0  0
 20 22  1  0  0  0  0
 21 26  1  0  0  0  0
 21  2  1  0  0  0  0
 22 21  1  0  0  0  0
 23 27  1  0  0  0  0
 24 26  1  0  0  0  0
 24 28  2  0  0  0  0
 25 27  2  0  0  0  0
 25 29  1  0  0  0  0
 26 23  2  0  0  0  0
 27 30  1  0  0  0  0
 28 25  1  0  0  0  0
 31 24  1  0  0  0  0
M  END
>  <MODEL>
1

>  <REMARK>
 VINA RESULT:      -8.2      0.000      0.000
  Name = 
  3 active torsions:
  status: ('A' for Active; 'I' for Inactive)
    1  A    between atoms: C_2  and  N_16
    2  A    between atoms: C_11  and  N_16
    3  A    between atoms: C_21  and  C_26
                            x       y       z     vdW  Elec       q    Type
                         _______ _______ _______ _____ _____    ______ ____

>  <TORSDO>
F 3

$$$$
=
 OpenBabel10222420293D

 31 35  0  0  1  0  0  0  0  0999 V2000
  187.9440  177.1810  139.2390 N   0  0  1  0  0  0  0  0  0  0  0  0
  187.4210  178.1780  138.2830 C   0  0  1  0  0  3  0  0  0  0  0  0
  190.9360  176.7360  139.6190 C   0  0  0  0  0  3  0  0  0  0  0  0
  190.1750  176.6520  142.2310 S   0  0  0  0  0  0  0  0  0  0  0  0
  190.0130  177.1000  140.5120 C   0  0  0  0  0  0  0  0  0  0  0  0
  189.7660  177.8890  137.6080 C   0  0  0  0  0  2  0  0  0  0  0  0
  188.4130  177.2040  137.8260 C   0  0  1  0  0  3  0  0  0  0  0  0
  188.0840  178.0950  141.4620 C   0  0  0  0  0  3  0  0  0  0  0  0
  188.8020  177.9110  140.1740 C   0  0  2  0  0  3  0  0  0  0  0  0
  188.6390  177.5310  142.5290 C   0  0  0  0  0  0  0  0  0  0  0  0
  190.8750  177.0630  138.1830 C   0  0  0  0  0  0  0  0  0  0  0  0
  191.7820  176.6420  137.4200 O   0  0  0  0  0  0  0  0  0  0  0  0
  188.2420  177.5060  146.2930 C   0  0  0  0  0  3  0  0  0  0  0  0
  188.8140  177.4340  145.0190 C   0  0  0  0  0  3  0  0  0  0  0  0
  188.0260  177.6130  143.8720 C   0  0  0  0  0  0  0  0  0  0  0  0
  186.8740  177.7570  146.4310 C   0  0  0  0  0  3  0  0  0  0  0  0
  186.6510  177.8630  144.0230 C   0  0  0  0  0  3  0  0  0  0  0  0
  186.0790  177.9360  145.2960 C   0  0  0  0  0  3  0  0  0  0  0  0
  183.7660  178.1460  138.0400 O   0  0  0  0  0  0  0  0  0  0  0  0
  185.1010  179.5800  139.2170 O   0  0  0  0  0  1  0  0  0  0  0  0
  186.0770  177.7910  137.8490 N   0  0  0  0  0  0  0  0  0  0  0  0
  184.9320  178.5010  138.3570 C   0  0  0  0  0  0  0  0  0  0  0  0
  185.5410  175.4120  137.5810 C   0  0  0  0  0  3  0  0  0  0  0  0
  186.0530  176.7070  135.6070 C   0  0  0  0  0  0  0  0  0  0  0  0
  185.4850  174.4070  135.3930 C   0  0  0  0  0  0  0  0  0  0  0  0
  185.9020  176.6360  137.0070 C   0  0  0  0  0  0  0  0  0  0  0  0
  185.3330  174.2920  136.7760 C   0  0  0  0  0  0  0  0  0  0  0  0
  185.8430  175.5990  134.8460 N   0  0  0  0  0  0  0  0  0  0  0  0
  185.2850  173.3320  134.5940 F   0  0  0  0  0  0  0  0  0  0  0  0
  184.9830  173.1080  137.3360 F   0  0  0  0  0  0  0  0  0  0  0  0
  186.4840  177.9650  134.9330 C   0  0  0  0  0  1  0  0  0  0  0  0
  1  9  1  0  0  0  0
  2  1  1  0  0  0  0
  3  5  2  0  0  0  0
  4 10  1  0  0  0  0
  5  4  1  0  0  0  0
  6  7  1  0  0  0  0
  6 11  1  0  0  0  0
  7  2  1  0  0  0  0
  7  1  1  0  0  0  0
  8 10  2  0  0  0  0
  9  5  1  0  0  0  0
  9  8  1  0  0  0  0
 10 15  1  0  0  0  0
 11  3  1  0  0  0  0
 12 11  2  0  0  0  0
 13 16  1  0  0  0  0
 14 13  2  0  0  0  0
 15 17  2  0  0  0  0
 15 14  1  0  0  0  0
 17 18  1  0  0  0  0
 18 16  2  0  0  0  0
 19 22  2  0  0  0  0
 21  2  1  0  0  0  0
 21 22  1  0  0  0  0
 22 20  1  0  0  0  0
 24 26  2  0  0  0  0
 25 27  1  0  0  0  0
 26 23  1  0  0  0  0
 26 21  1  0  0  0  0
 27 30  1  0  0  0  0
 27 23  2  0  0  0  0
 28 25  2  0  0  0  0
 28 24  1  0  0  0  0
 29 25  1  0  0  0  0
 31 24  1  0  0  0  0
M  END
>  <MODEL>
2

>  <REMARK>
 VINA RESULT:      -8.1      2.397      3.133
  Name = 
  3 active torsions:
  status: ('A' for Active; 'I' for Inactive)
    1  A    between atoms: C_2  and  N_16
    2  A    between atoms: C_11  and  N_16
    3  A    between atoms: C_21  and  C_26
                            x       y       z     vdW  Elec       q    Type
                         _______ _______ _______ _____ _____    ______ ____

>  <TORSDO>
F 3

$$$$
=
 OpenBabel10222420293D

 31 35  0  0  1  0  0  0  0  0999 V2000
  189.0550  176.9620  140.9330 N   0  0  1  0  0  0  0  0  0  0  0  0
  189.9390  177.6990  140.0070 C   0  0  1  0  0  3  0  0  0  0  0  0
  189.6140  176.8370  143.9280 C   0  0  0  0  0  3  0  0  0  0  0  0
  186.9230  177.2300  144.0300 S   0  0  0  0  0  0  0  0  0  0  0  0
  188.5410  177.3040  143.2840 C   0  0  0  0  0  0  0  0  0  0  0  0
  191.2900  177.4620  142.0460 C   0  0  0  0  0  2  0  0  0  0  0  0
  190.5260  176.7320  140.9360 C   0  0  1  0  0  3  0  0  0  0  0  0
  187.1900  178.3180  141.6240 C   0  0  0  0  0  3  0  0  0  0  0  0
  188.5930  177.9320  141.9270 C   0  0  2  0  0  3  0  0  0  0  0  0
  186.2870  178.0290  142.5550 C   0  0  0  0  0  0  0  0  0  0  0  0
  190.9830  176.8590  143.3810 C   0  0  0  0  0  0  0  0  0  0  0  0
  191.9200  176.3630  144.0580 O   0  0  0  0  0  0  0  0  0  0  0  0
  182.7000  178.9490  143.3370 C   0  0  0  0  0  3  0  0  0  0  0  0
  184.0600  178.6620  143.4930 C   0  0  0  0  0  3  0  0  0  0  0  0
  184.8510  178.3350  142.3800 C   0  0  0  0  0  0  0  0  0  0  0  0
  182.1180  178.9110  142.0670 C   0  0  0  0  0  3  0  0  0  0  0  0
  184.2540  178.2990  141.1080 C   0  0  0  0  0  3  0  0  0  0  0  0
  182.8960  178.5860  140.9530 C   0  0  0  0  0  3  0  0  0  0  0  0
  190.9490  176.1780  136.8310 O   0  0  0  0  0  0  0  0  0  0  0  0
  192.2340  176.6240  138.6680 O   0  0  0  0  0  1  0  0  0  0  0  0
  189.8330  177.1290  138.6620 N   0  0  0  0  0  0  0  0  0  0  0  0
  191.0100  176.6200  138.0090 C   0  0  0  0  0  0  0  0  0  0  0  0
  187.7700  176.0390  137.9030 C   0  0  0  0  0  3  0  0  0  0  0  0
  188.1150  178.3650  137.3490 C   0  0  0  0  0  0  0  0  0  0  0  0
  186.1100  177.2760  136.6740 C   0  0  0  0  0  0  0  0  0  0  0  0
  188.5760  177.1810  137.9600 C   0  0  0  0  0  0  0  0  0  0  0  0
  186.5340  176.0820  137.2580 C   0  0  0  0  0  0  0  0  0  0  0  0
  186.9050  178.3790  136.7280 N   0  0  0  0  0  0  0  0  0  0  0  0
  184.9120  177.3400  136.0440 F   0  0  0  0  0  0  0  0  0  0  0  0
  185.7550  174.9740  137.2070 F   0  0  0  0  0  0  0  0  0  0  0  0
  188.9430  179.6040  137.3280 C   0  0  0  0  0  1  0  0  0  0  0  0
  1  7  1  0  0  0  0
  1  9  1  0  0  0  0
  2  1  1  0  0  0  0
  2  7  1  0  0  0  0
  5  3  2  0  0  0  0
  5  4  1  0  0  0  0
  6 11  1  0  0  0  0
  7  6  1  0  0  0  0
  8  9  1  0  0  0  0
  8 10  2  0  0  0  0
  9  5  1  0  0  0  0
 10  4  1  0  0  0  0
 11  3  1  0  0  0  0
 11 12  2  0  0  0  0
 13 14  1  0  0  0  0
 15 10  1  0  0  0  0
 15 14  2  0  0  0  0
 16 13  2  0  0  0  0
 17 15  1  0  0  0  0
 18 17  2  0  0  0  0
 18 16  1  0  0  0  0
 19 22  2  0  0  0  0
 21  2  1  0  0  0  0
 22 21  1  0  0  0  0
 22 20  1  0  0  0  0
 23 26  1  0  0  0  0
 24 26  2  0  0  0  0
 25 28  2  0  0  0  0
 25 27  1  0  0  0  0
 26 21  1  0  0  0  0
 27 23  2  0  0  0  0
 28 24  1  0  0  0  0
 29 25  1  0  0  0  0
 30 27  1  0  0  0  0
 31 24  1  0  0  0  0
M  END
>  <MODEL>
3

>  <REMARK>
 VINA RESULT:      -8.0      2.429      3.825
  Name = 
  3 active torsions:
  status: ('A' for Active; 'I' for Inactive)
    1  A    between atoms: C_2  and  N_16
    2  A    between atoms: C_11  and  N_16
    3  A    between atoms: C_21  and  C_26
                            x       y       z     vdW  Elec       q    Type
                         _______ _______ _______ _____ _____    ______ ____

>  <TORSDO>
F 3

$$$$
=
 OpenBabel10222420293D

 31 35  0  0  1  0  0  0  0  0999 V2000
  188.1270  177.1330  139.6320 N   0  0  1  0  0  0  0  0  0  0  0  0
  187.9660  177.9160  138.3910 C   0  0  1  0  0  3  0  0  0  0  0  0
  190.7620  177.0750  141.1650 C   0  0  0  0  0  3  0  0  0  0  0  0
  189.0630  177.2920  143.2800 S   0  0  0  0  0  0  0  0  0  0  0  0
  189.5510  177.4640  141.5740 C   0  0  0  0  0  0  0  0  0  0  0  0
  190.4010  177.7880  138.6950 C   0  0  0  0  0  2  0  0  0  0  0  0
  189.1000  176.9990  138.5140 C   0  0  1  0  0  3  0  0  0  0  0  0
  187.3630  178.3710  141.5500 C   0  0  0  0  0  3  0  0  0  0  0  0
  188.5280  178.0800  140.6730 C   0  0  2  0  0  3  0  0  0  0  0  0
  187.4920  178.0330  142.8290 C   0  0  0  0  0  0  0  0  0  0  0  0
  191.2410  177.1790  139.7750 C   0  0  0  0  0  0  0  0  0  0  0  0
  192.3890  176.7520  139.4900 O   0  0  0  0  0  0  0  0  0  0  0  0
  185.6320  178.2510  146.1170 C   0  0  0  0  0  3  0  0  0  0  0  0
  186.6530  178.0590  145.1810 C   0  0  0  0  0  3  0  0  0  0  0  0
  186.4080  178.2430  143.8120 C   0  0  0  0  0  0  0  0  0  0  0  0
  184.3560  178.6310  145.6920 C   0  0  0  0  0  3  0  0  0  0  0  0
  185.1210  178.6240  143.3960 C   0  0  0  0  0  3  0  0  0  0  0  0
  184.1010  178.8170  144.3320 C   0  0  0  0  0  3  0  0  0  0  0  0
  184.6480  177.3550  136.9430 O   0  0  0  0  0  0  0  0  0  0  0  0
  185.3140  179.0060  138.3770 O   0  0  0  0  0  1  0  0  0  0  0  0
  186.9090  177.3270  137.5660 N   0  0  0  0  0  0  0  0  0  0  0  0
  185.5830  177.8830  137.6010 C   0  0  0  0  0  0  0  0  0  0  0  0
  186.8390  174.8830  137.3530 C   0  0  0  0  0  3  0  0  0  0  0  0
  187.7410  176.1740  135.5200 C   0  0  0  0  0  0  0  0  0  0  0  0
  187.6110  173.8050  135.3430 C   0  0  0  0  0  0  0  0  0  0  0  0
  187.1750  176.1290  136.8110 C   0  0  0  0  0  0  0  0  0  0  0  0
  187.0570  173.7160  136.6210 C   0  0  0  0  0  0  0  0  0  0  0  0
  187.9410  175.0200  134.8280 N   0  0  0  0  0  0  0  0  0  0  0  0
  187.8290  172.6830  134.6140 F   0  0  0  0  0  0  0  0  0  0  0  0
  186.7290  172.5120  137.1490 F   0  0  0  0  0  0  0  0  0  0  0  0
  188.1690  177.4610  134.9020 C   0  0  0  0  0  1  0  0  0  0  0  0
  1  9  1  0  0  0  0
  2  7  1  0  0  0  0
  2  1  1  0  0  0  0
  3  5  2  0  0  0  0
  5  4  1  0  0  0  0
  6 11  1  0  0  0  0
  7  6  1  0  0  0  0
  7  1  1  0  0  0  0
  8 10  2  0  0  0  0
  9  8  1  0  0  0  0
  9  5  1  0  0  0  0
 10  4  1  0  0  0  0
 10 15  1  0  0  0  0
 11  3  1  0  0  0  0
 12 11  2  0  0  0  0
 14 13  2  0  0  0  0
 15 14  1  0  0  0  0
 16 13  1  0  0  0  0
 17 15  2  0  0  0  0
 17 18  1  0  0  0  0
 18 16  2  0  0  0  0
 19 22  2  0  0  0  0
 21 22  1  0  0  0  0
 21  2  1  0  0  0  0
 22 20  1  0  0  0  0
 24 26  2  0  0  0  0
 25 27  1  0  0  0  0
 26 23  1  0  0  0  0
 26 21  1  0  0  0  0
 27 30  1  0  0  0  0
 27 23  2  0  0  0  0
 28 25  2  0  0  0  0
 28 24  1  0  0  0  0
 29 25  1  0  0  0  0
 31 24  1  0  0  0  0
M  END
>  <MODEL>
4

>  <REMARK>
 VINA RESULT:      -7.9      2.426      3.272
  Name = 
  3 active torsions:
  status: ('A' for Active; 'I' for Inactive)
    1  A    between atoms: C_2  and  N_16
    2  A    between atoms: C_11  and  N_16
    3  A    between atoms: C_21  and  C_26
                            x       y       z     vdW  Elec       q    Type
                         _______ _______ _______ _____ _____    ______ ____

>  <TORSDO>
F 3

$$$$
=
 OpenBabel10222420293D

 31 35  0  0  1  0  0  0  0  0999 V2000
  187.4640  177.3570  139.1190 N   0  0  1  0  0  0  0  0  0  0  0  0
  187.3940  178.1800  137.8960 C   0  0  1  0  0  3  0  0  0  0  0  0
  190.0330  177.1090  140.7440 C   0  0  0  0  0  3  0  0  0  0  0  0
  188.2710  177.3680  142.8020 S   0  0  0  0  0  0  0  0  0  0  0  0
  188.8310  177.5560  141.1190 C   0  0  0  0  0  0  0  0  0  0  0  0
  189.8050  177.9050  138.2830 C   0  0  0  0  0  2  0  0  0  0  0  0
  188.4700  177.1970  138.0330 C   0  0  1  0  0  3  0  0  0  0  0  0
  186.7000  178.5870  141.0430 C   0  0  0  0  0  3  0  0  0  0  0  0
  187.8790  178.2530  140.2000 C   0  0  2  0  0  3  0  0  0  0  0  0
  186.7620  178.2090  142.3150 C   0  0  0  0  0  0  0  0  0  0  0  0
  190.5680  177.2220  139.3750 C   0  0  0  0  0  0  0  0  0  0  0  0
  191.7000  176.7380  139.1190 O   0  0  0  0  0  0  0  0  0  0  0  0
  183.3210  179.0030  143.6760 C   0  0  0  0  0  3  0  0  0  0  0  0
  184.3730  178.7650  142.7860 C   0  0  0  0  0  3  0  0  0  0  0  0
  185.6550  178.4560  143.2640 C   0  0  0  0  0  0  0  0  0  0  0  0
  183.5420  178.9340  145.0540 C   0  0  0  0  0  3  0  0  0  0  0  0
  185.8660  178.3900  144.6520 C   0  0  0  0  0  3  0  0  0  0  0  0
  184.8150  178.6280  145.5410 C   0  0  0  0  0  3  0  0  0  0  0  0
  185.5040  177.5030  134.8310 O   0  0  0  0  0  0  0  0  0  0  0  0
  187.5410  178.5150  135.0520 O   0  0  0  0  0  1  0  0  0  0  0  0
  186.3370  177.6730  137.0170 N   0  0  0  0  0  0  0  0  0  0  0  0
  186.4300  177.8800  135.5960 C   0  0  0  0  0  0  0  0  0  0  0  0
  184.9210  175.7050  137.3930 C   0  0  0  0  0  3  0  0  0  0  0  0
  184.2510  177.8100  138.3710 C   0  0  0  0  0  0  0  0  0  0  0  0
  182.9350  175.8640  138.7440 C   0  0  0  0  0  0  0  0  0  0  0  0
  185.1610  177.0700  137.5890 C   0  0  0  0  0  0  0  0  0  0  0  0
  183.8060  175.0970  137.9690 C   0  0  0  0  0  0  0  0  0  0  0  0
  183.1720  177.1910  138.9220 N   0  0  0  0  0  0  0  0  0  0  0  0
  181.8460  175.2920  139.3140 F   0  0  0  0  0  0  0  0  0  0  0  0
  183.5780  173.7750  137.7780 F   0  0  0  0  0  0  0  0  0  0  0  0
  184.4170  179.2760  138.5800 C   0  0  0  0  0  1  0  0  0  0  0  0
  1  9  1  0  0  0  0
  2  7  1  0  0  0  0
  2  1  1  0  0  0  0
  3  5  2  0  0  0  0
  5  4  1  0  0  0  0
  6 11  1  0  0  0  0
  7  6  1  0  0  0  0
  7  1  1  0  0  0  0
  8 10  2  0  0  0  0
  9  8  1  0  0  0  0
  9  5  1  0  0  0  0
 10  4  1  0  0  0  0
 10 15  1  0  0  0  0
 11  3  1  0  0  0  0
 12 11  2  0  0  0  0
 13 16  1  0  0  0  0
 14 15  1  0  0  0  0
 14 13  2  0  0  0  0
 15 17  2  0  0  0  0
 16 18  2  0  0  0  0
 17 18  1  0  0  0  0
 19 22  2  0  0  0  0
 20 22  1  0  0  0  0
 21 26  1  0  0  0  0
 21  2  1  0  0  0  0
 22 21  1  0  0  0  0
 23 26  2  0  0  0  0
 23 27  1  0  0  0  0
 24 31  1  0  0  0  0
 24 28  2  0  0  0  0
 25 28  1  0  0  0  0
 25 29  1  0  0  0  0
 26 24  1  0  0  0  0
 27 25  2  0  0  0  0
 30 27  1  0  0  0  0
M  END
>  <MODEL>
5

>  <REMARK>
 VINA RESULT:      -7.9      0.776      1.777
  Name = 
  3 active torsions:
  status: ('A' for Active; 'I' for Inactive)
    1  A    between atoms: C_2  and  N_16
    2  A    between atoms: C_11  and  N_16
    3  A    between atoms: C_21  and  C_26
                            x       y       z     vdW  Elec       q    Type
                         _______ _______ _______ _____ _____    ______ ____

>  <TORSDO>
F 3

$$$$
=
 OpenBabel10222420293D

 31 35  0  0  1  0  0  0  0  0999 V2000
  188.8180  177.1990  140.4740 N   0  0  1  0  0  0  0  0  0  0  0  0
  189.5890  178.0650  139.5600 C   0  0  1  0  0  3  0  0  0  0  0  0
  189.7660  176.6130  143.3130 C   0  0  0  0  0  3  0  0  0  0  0  0
  187.1230  176.9970  143.8350 S   0  0  0  0  0  0  0  0  0  0  0  0
  188.6290  177.1780  142.8980 C   0  0  0  0  0  0  0  0  0  0  0  0
  191.1930  177.5110  141.3380 C   0  0  0  0  0  2  0  0  0  0  0  0
  190.2700  176.9640  140.2440 C   0  0  1  0  0  3  0  0  0  0  0  0
  187.0950  178.4420  141.6080 C   0  0  0  0  0  3  0  0  0  0  0  0
  188.5160  178.0060  141.6570 C   0  0  2  0  0  3  0  0  0  0  0  0
  186.3170  178.0170  142.5970 C   0  0  0  0  0  0  0  0  0  0  0  0
  191.0500  176.7110  142.5960 C   0  0  0  0  0  0  0  0  0  0  0  0
  192.0550  176.1130  143.0570 O   0  0  0  0  0  0  0  0  0  0  0  0
  182.9380  179.0300  143.9680 C   0  0  0  0  0  3  0  0  0  0  0  0
  184.2980  178.7140  143.8920 C   0  0  0  0  0  3  0  0  0  0  0  0
  184.8790  178.3530  142.6670 C   0  0  0  0  0  0  0  0  0  0  0  0
  182.1450  178.9870  142.8180 C   0  0  0  0  0  3  0  0  0  0  0  0
  184.0720  178.3120  141.5180 C   0  0  0  0  0  3  0  0  0  0  0  0
  182.7130  178.6280  141.5930 C   0  0  0  0  0  3  0  0  0  0  0  0
  188.6900  178.4550  136.0300 O   0  0  0  0  0  0  0  0  0  0  0  0
  189.0560  180.0820  137.5940 O   0  0  0  0  0  1  0  0  0  0  0  0
  189.2920  177.7080  138.1710 N   0  0  0  0  0  0  0  0  0  0  0  0
  189.0040  178.7440  137.2150 C   0  0  0  0  0  0  0  0  0  0  0  0
  187.9160  175.7240  137.7320 C   0  0  0  0  0  3  0  0  0  0  0  0
  190.3110  175.5490  137.4620 C   0  0  0  0  0  0  0  0  0  0  0  0
  188.9310  173.6660  137.0050 C   0  0  0  0  0  0  0  0  0  0  0  0
  189.1800  176.3220  137.7970 C   0  0  0  0  0  0  0  0  0  0  0  0
  187.7870  174.3930  137.3370 C   0  0  0  0  0  0  0  0  0  0  0  0
  190.1550  174.2530  137.0790 N   0  0  0  0  0  0  0  0  0  0  0  0
  188.8270  172.3710  136.6170 F   0  0  0  0  0  0  0  0  0  0  0  0
  186.5610  173.8190  137.2740 F   0  0  0  0  0  0  0  0  0  0  0  0
  191.6900  176.1050  137.5560 C   0  0  0  0  0  1  0  0  0  0  0  0
  1  9  1  0  0  0  0
  2  7  1  0  0  0  0
  2  1  1  0  0  0  0
  5  3  2  0  0  0  0
  5  4  1  0  0  0  0
  6 11  1  0  0  0  0
  7  1  1  0  0  0  0
  7  6  1  0  0  0  0
  8  9  1  0  0  0  0
  8 10  2  0  0  0  0
  9  5  1  0  0  0  0
 10 15  1  0  0  0  0
 10  4  1  0  0  0  0
 11 12  2  0  0  0  0
 11  3  1  0  0  0  0
 14 13  1  0  0  0  0
 15 14  2  0  0  0  0
 16 13  2  0  0  0  0
 17 18  2  0  0  0  0
 17 15  1  0  0  0  0
 18 16  1  0  0  0  0
 19 22  2  0  0  0  0
 21  2  1  0  0  0  0
 22 20  1  0  0  0  0
 22 21  1  0  0  0  0
 23 26  1  0  0  0  0
 24 31  1  0  0  0  0
 24 26  2  0  0  0  0
 25 28  2  0  0  0  0
 25 27  1  0  0  0  0
 26 21  1  0  0  0  0
 27 23  2  0  0  0  0
 28 24  1  0  0  0  0
 29 25  1  0  0  0  0
 30 27  1  0  0  0  0
M  END
>  <MODEL>
6

>  <REMARK>
 VINA RESULT:      -7.8      2.858      3.981
  Name = 
  3 active torsions:
  status: ('A' for Active; 'I' for Inactive)
    1  A    between atoms: C_2  and  N_16
    2  A    between atoms: C_11  and  N_16
    3  A    between atoms: C_21  and  C_26
                            x       y       z     vdW  Elec       q    Type
                         _______ _______ _______ _____ _____    ______ ____

>  <TORSDO>
F 3

$$$$
=
 OpenBabel10222420293D

 31 35  0  0  1  0  0  0  0  0999 V2000
  189.2570  177.0270  140.7490 N   0  0  1  0  0  0  0  0  0  0  0  0
  190.1760  177.8740  139.9620 C   0  0  1  0  0  3  0  0  0  0  0  0
  189.7670  176.4060  143.6900 C   0  0  0  0  0  3  0  0  0  0  0  0
  187.0880  176.8630  143.8270 S   0  0  0  0  0  0  0  0  0  0  0  0
  188.7180  177.0040  143.1190 C   0  0  0  0  0  0  0  0  0  0  0  0
  191.4890  177.2710  141.9490 C   0  0  0  0  0  2  0  0  0  0  0  0
  190.7200  176.7530  140.7290 C   0  0  1  0  0  3  0  0  0  0  0  0
  187.4230  178.3140  141.6300 C   0  0  0  0  0  3  0  0  0  0  0  0
  188.8090  177.8390  141.8810 C   0  0  2  0  0  3  0  0  0  0  0  0
  186.4970  177.9080  142.4930 C   0  0  0  0  0  0  0  0  0  0  0  0
  191.1440  176.4710  143.1670 C   0  0  0  0  0  0  0  0  0  0  0  0
  192.0550  175.8440  143.7650 O   0  0  0  0  0  0  0  0  0  0  0  0
  182.9830  179.0030  143.3680 C   0  0  0  0  0  3  0  0  0  0  0  0
  184.3300  178.6500  143.4880 C   0  0  0  0  0  3  0  0  0  0  0  0
  185.0740  178.2840  142.3560 C   0  0  0  0  0  0  0  0  0  0  0  0
  182.3660  178.9930  142.1140 C   0  0  0  0  0  3  0  0  0  0  0  0
  184.4430  178.2760  141.1000 C   0  0  0  0  0  3  0  0  0  0  0  0
  183.0970  178.6290  140.9810 C   0  0  0  0  0  3  0  0  0  0  0  0
  189.0570  177.9750  136.4750 O   0  0  0  0  0  0  0  0  0  0  0  0
  188.4960  179.3780  138.1900 O   0  0  0  0  0  1  0  0  0  0  0  0
  190.0730  177.5310  138.5420 N   0  0  0  0  0  0  0  0  0  0  0  0
  189.2020  178.2910  137.6850 C   0  0  0  0  0  0  0  0  0  0  0  0
  192.1540  176.3780  137.9410 C   0  0  0  0  0  3  0  0  0  0  0  0
  190.0630  175.2020  137.6590 C   0  0  0  0  0  0  0  0  0  0  0  0
  192.1100  174.1110  137.1330 C   0  0  0  0  0  0  0  0  0  0  0  0
  190.7580  176.3690  138.0360 C   0  0  0  0  0  0  0  0  0  0  0  0
  192.8360  175.2490  137.4870 C   0  0  0  0  0  0  0  0  0  0  0  0
  190.7530  174.1140  137.2210 N   0  0  0  0  0  0  0  0  0  0  0  0
  192.7530  173.0020  136.6910 F   0  0  0  0  0  0  0  0  0  0  0  0
  194.1880  175.2610  137.3990 F   0  0  0  0  0  0  0  0  0  0  0  0
  188.5740  175.1380  137.6870 C   0  0  0  0  0  1  0  0  0  0  0  0
  1  9  1  0  0  0  0
  2  7  1  0  0  0  0
  2  1  1  0  0  0  0
  5  3  2  0  0  0  0
  5  4  1  0  0  0  0
  6 11  1  0  0  0  0
  7  1  1  0  0  0  0
  7  6  1  0  0  0  0
  8  9  1  0  0  0  0
  8 10  2  0  0  0  0
  9  5  1  0  0  0  0
 10  4  1  0  0  0  0
 11  3  1  0  0  0  0
 11 12  2  0  0  0  0
 13 14  1  0  0  0  0
 15 10  1  0  0  0  0
 15 14  2  0  0  0  0
 16 13  2  0  0  0  0
 17 15  1  0  0  0  0
 18 17  2  0  0  0  0
 18 16  1  0  0  0  0
 19 22  2  0  0  0  0
 21  2  1  0  0  0  0
 22 20  1  0  0  0  0
 22 21  1  0  0  0  0
 23 26  1  0  0  0  0
 24 31  1  0  0  0  0
 24 26  2  0  0  0  0
 25 28  2  0  0  0  0
 25 27  1  0  0  0  0
 26 21  1  0  0  0  0
 27 23  2  0  0  0  0
 28 24  1  0  0  0  0
 29 25  1  0  0  0  0
 30 27  1  0  0  0  0
M  END
>  <MODEL>
7

>  <REMARK>
 VINA RESULT:      -7.8      3.988      5.337
  Name = 
  3 active torsions:
  status: ('A' for Active; 'I' for Inactive)
    1  A    between atoms: C_2  and  N_16
    2  A    between atoms: C_11  and  N_16
    3  A    between atoms: C_21  and  C_26
                            x       y       z     vdW  Elec       q    Type
                         _______ _______ _______ _____ _____    ______ ____

>  <TORSDO>
F 3

$$$$
=
 OpenBabel10222420293D

 31 35  0  0  1  0  0  0  0  0999 V2000
  185.9990  178.0440  143.3380 N   0  0  1  0  0  0  0  0  0  0  0  0
  186.6270  178.8350  144.4160 C   0  0  1  0  0  3  0  0  0  0  0  0
  183.1700  178.6260  142.3600 C   0  0  0  0  0  3  0  0  0  0  0  0
  184.3600  178.2090  139.9480 S   0  0  0  0  0  0  0  0  0  0  0  0
  184.3200  178.6290  141.6800 C   0  0  0  0  0  0  0  0  0  0  0  0
  184.2380  179.3780  144.6040 C   0  0  0  0  0  2  0  0  0  0  0  0
  185.2950  178.2680  144.6310 C   0  0  1  0  0  3  0  0  0  0  0  0
  186.6190  178.8820  141.1680 C   0  0  0  0  0  3  0  0  0  0  0  0
  185.6410  178.9920  142.2820 C   0  0  2  0  0  3  0  0  0  0  0  0
  186.1290  178.5070  139.9910 C   0  0  0  0  0  0  0  0  0  0  0  0
  183.0530  178.9570  143.7920 C   0  0  0  0  0  0  0  0  0  0  0  0
  181.9250  178.8920  144.3440 O   0  0  0  0  0  0  0  0  0  0  0  0
  189.2010  178.0950  137.8200 C   0  0  0  0  0  3  0  0  0  0  0  0
  188.3820  178.2550  138.9420 C   0  0  0  0  0  3  0  0  0  0  0  0
  186.9880  178.3340  138.8000 C   0  0  0  0  0  0  0  0  0  0  0  0
  188.6340  178.0140  136.5450 C   0  0  0  0  0  3  0  0  0  0  0  0
  186.4290  178.2530  137.5130 C   0  0  0  0  0  3  0  0  0  0  0  0
  187.2480  178.0930  136.3930 C   0  0  0  0  0  3  0  0  0  0  0  0
  188.3190  176.9420  147.0580 O   0  0  0  0  0  0  0  0  0  0  0  0
  186.2340  177.8780  147.0900 O   0  0  0  0  0  1  0  0  0  0  0  0
  187.6480  178.0300  145.0910 N   0  0  0  0  0  0  0  0  0  0  0  0
  187.4290  177.5860  146.4420 C   0  0  0  0  0  0  0  0  0  0  0  0
  189.9940  178.6280  144.6900 C   0  0  0  0  0  3  0  0  0  0  0  0
  189.0930  176.6850  143.5710 C   0  0  0  0  0  0  0  0  0  0  0  0
  191.3740  177.2800  143.2500 C   0  0  0  0  0  0  0  0  0  0  0  0
  188.9080  177.7810  144.4390 C   0  0  0  0  0  0  0  0  0  0  0  0
  191.2310  178.3810  144.0950 C   0  0  0  0  0  0  0  0  0  0  0  0
  190.3110  176.4680  143.0050 N   0  0  0  0  0  0  0  0  0  0  0  0
  192.5680  177.0210  142.6630 F   0  0  0  0  0  0  0  0  0  0  0  0
  192.2800  179.2020  144.3440 F   0  0  0  0  0  0  0  0  0  0  0  0
  187.9690  175.7720  143.2190 C   0  0  0  0  0  1  0  0  0  0  0  0
  1  2  1  0  0  0  0
  1  7  1  0  0  0  0
  2  7  1  0  0  0  0
  2 21  1  0  0  0  0
  3 11  1  0  0  0  0
  4 10  1  0  0  0  0
  4  5  1  0  0  0  0
  5  9  1  0  0  0  0
  5  3  2  0  0  0  0
  6  7  1  0  0  0  0
  8  9  1  0  0  0  0
  9  1  1  0  0  0  0
 10  8  2  0  0  0  0
 11 12  2  0  0  0  0
 11  6  1  0  0  0  0
 13 14  1  0  0  0  0
 15 14  2  0  0  0  0
 15 10  1  0  0  0  0
 16 13  2  0  0  0  0
 17 15  1  0  0  0  0
 18 16  1  0  0  0  0
 18 17  2  0  0  0  0
 21 22  1  0  0  0  0
 22 19  2  0  0  0  0
 22 20  1  0  0  0  0
 24 26  2  0  0  0  0
 25 27  1  0  0  0  0
 26 23  1  0  0  0  0
 26 21  1  0  0  0  0
 27 30  1  0  0  0  0
 27 23  2  0  0  0  0
 28 25  2  0  0  0  0
 28 24  1  0  0  0  0
 29 25  1  0  0  0  0
 31 24  1  0  0  0  0
M  END
>  <MODEL>
8

>  <REMARK>
 VINA RESULT:      -7.6      5.016      8.273
  Name = 
  3 active torsions:
  status: ('A' for Active; 'I' for Inactive)
    1  A    between atoms: C_2  and  N_16
    2  A    between atoms: C_11  and  N_16
    3  A    between atoms: C_21  and  C_26
                            x       y       z     vdW  Elec       q    Type
                         _______ _______ _______ _____ _____    ______ ____

>  <TORSDO>
F 3

$$$$
=
 OpenBabel10222420293D

 31 35  0  0  1  0  0  0  0  0999 V2000
  188.9040  177.8650  144.9500 N   0  0  1  0  0  0  0  0  0  0  0  0
  187.7810  177.2840  145.7130 C   0  0  1  0  0  3  0  0  0  0  0  0
  191.7460  176.7930  145.2080 C   0  0  0  0  0  3  0  0  0  0  0  0
  191.6810  177.1320  142.5090 S   0  0  0  0  0  0  0  0  0  0  0  0
  190.9700  176.8860  144.1260 C   0  0  0  0  0  0  0  0  0  0  0  0
  189.7780  176.4280  146.8620 C   0  0  0  0  0  2  0  0  0  0  0  0
  189.0000  177.6740  146.4240 C   0  0  1  0  0  3  0  0  0  0  0  0
  189.0460  176.9120  142.7440 C   0  0  0  0  0  3  0  0  0  0  0  0
  189.4780  176.7750  144.1600 C   0  0  2  0  0  3  0  0  0  0  0  0
  190.0120  177.0950  141.8500 C   0  0  0  0  0  0  0  0  0  0  0  0
  191.2390  176.5930  146.5780 C   0  0  0  0  0  0  0  0  0  0  0  0
  192.0550  176.5520  147.5330 O   0  0  0  0  0  0  0  0  0  0  0  0
  188.2980  178.1170  138.6350 C   0  0  0  0  0  3  0  0  0  0  0  0
  188.5760  177.9530  139.9950 C   0  0  0  0  0  3  0  0  0  0  0  0
  189.7280  177.2670  140.4090 C   0  0  0  0  0  0  0  0  0  0  0  0
  189.1710  177.5980  137.6750 C   0  0  0  0  0  3  0  0  0  0  0  0
  190.5980  176.7480  139.4350 C   0  0  0  0  0  3  0  0  0  0  0  0
  190.3200  176.9140  138.0760 C   0  0  0  0  0  3  0  0  0  0  0  0
  185.6800  179.8040  147.3440 O   0  0  0  0  0  0  0  0  0  0  0  0
  187.5180  178.7290  148.1760 O   0  0  0  0  0  1  0  0  0  0  0  0
  186.7310  178.2890  145.8930 N   0  0  0  0  0  0  0  0  0  0  0  0
  186.6120  178.9790  147.1510 C   0  0  0  0  0  0  0  0  0  0  0  0
  186.1890  178.8590  143.5690 C   0  0  0  0  0  3  0  0  0  0  0  0
  184.3780  178.3300  145.0780 C   0  0  0  0  0  0  0  0  0  0  0  0
  183.9060  178.8450  142.8040 C   0  0  0  0  0  0  0  0  0  0  0  0
  185.7580  178.5020  144.8520 C   0  0  0  0  0  0  0  0  0  0  0  0
  185.2630  179.0340  142.5400 C   0  0  0  0  0  0  0  0  0  0  0  0
  183.4970  178.5060  144.0560 N   0  0  0  0  0  0  0  0  0  0  0  0
  182.9900  179.0080  141.8180 F   0  0  0  0  0  0  0  0  0  0  0  0
  185.6840  179.3780  141.2990 F   0  0  0  0  0  0  0  0  0  0  0  0
  183.8450  177.9990  146.4300 C   0  0  0  0  0  1  0  0  0  0  0  0
  1  2  1  0  0  0  0
  1  7  1  0  0  0  0
  2 21  1  0  0  0  0
  2  7  1  0  0  0  0
  3 11  1  0  0  0  0
  4  5  1  0  0  0  0
  5  9  1  0  0  0  0
  5  3  2  0  0  0  0
  7  6  1  0  0  0  0
  8  9  1  0  0  0  0
  9  1  1  0  0  0  0
 10  4  1  0  0  0  0
 10  8  2  0  0  0  0
 11  6  1  0  0  0  0
 11 12  2  0  0  0  0
 13 14  1  0  0  0  0
 14 15  2  0  0  0  0
 15 10  1  0  0  0  0
 16 18  1  0  0  0  0
 16 13  2  0  0  0  0
 17 15  1  0  0  0  0
 18 17  2  0  0  0  0
 21 22  1  0  0  0  0
 22 19  2  0  0  0  0
 22 20  1  0  0  0  0
 23 26  1  0  0  0  0
 24 31  1  0  0  0  0
 25 28  2  0  0  0  0
 26 24  2  0  0  0  0
 26 21  1  0  0  0  0
 27 25  1  0  0  0  0
 27 23  2  0  0  0  0
 28 24  1  0  0  0  0
 29 25  1  0  0  0  0
 30 27  1  0  0  0  0
M  END
>  <MODEL>
9

>  <REMARK>
 VINA RESULT:      -7.3      4.821      7.520
  Name = 
  3 active torsions:
  status: ('A' for Active; 'I' for Inactive)
    1  A    between atoms: C_2  and  N_16
    2  A    between atoms: C_11  and  N_16
    3  A    between atoms: C_21  and  C_26
                            x       y       z     vdW  Elec       q    Type
                         _______ _______ _______ _____ _____    ______ ____

>  <TORSDO>
F 3

$$$$
