=
 OpenBabel10222417293D

 44 48  0  0  1  0  0  0  0  0999 V2000
  190.6580  177.0850  140.2520 N   0  0  0  0  0  0  0  0  0  0  0  0
  189.1410  177.4740  138.8020 C   0  0  0  0  0  0  0  0  0  0  0  0
  189.7180  177.9590  139.9180 N   0  0  0  0  0  0  0  0  0  0  0  0
  189.5160  175.4450  137.3720 N   0  0  0  0  0  2  0  0  0  0  0  0
  190.7380  176.0670  139.4090 N   0  0  0  0  0  0  0  0  0  0  0  0
  189.7850  176.2950  138.4890 C   0  0  0  0  0  0  0  0  0  0  0  0
  188.0420  178.1340  138.0780 C   0  0  0  0  0  0  0  0  0  0  0  0
  188.3250  179.3140  137.3080 N   0  0  0  0  0  2  0  0  0  0  0  0
  186.8480  177.6220  138.1660 N   0  0  0  0  0  0  0  0  0  0  0  0
  187.3960  179.9930  136.5960 O   0  0  0  0  0  1  0  0  0  0  0  0
  185.6490  178.1440  137.5250 C   0  0  0  0  0  2  0  0  0  0  0  0
  183.8660  178.6060  140.8200 C   0  0  0  0  0  0  0  0  0  0  0  0
  181.5540  178.7640  141.7350 S   0  0  0  0  0  0  0  0  0  0  0  0
  182.1890  178.4130  139.0690 C   0  0  0  0  0  3  0  0  0  0  0  0
  184.5700  178.3110  138.5340 C   0  0  0  0  0  0  0  0  0  0  0  0
  182.8040  178.8860  142.8720 C   0  0  0  0  0  3  0  0  0  0  0  0
  182.5470  178.5780  140.4040 C   0  0  0  0  0  0  0  0  0  0  0  0
  184.8990  178.4700  139.8920 C   0  0  0  0  0  3  0  0  0  0  0  0
  184.0240  178.7770  142.1960 C   0  0  0  0  0  3  0  0  0  0  0  0
  183.2210  178.2770  138.1270 C   0  0  0  0  0  3  0  0  0  0  0  0
  190.2890  174.2400  137.1130 C   0  0  0  0  0  2  0  0  0  0  0  0
  191.5790  174.5950  136.3990 C   0  0  0  0  0  2  0  0  0  0  0  0
  192.7490  173.9590  137.1250 C   0  0  0  0  0  2  0  0  0  0  0  0
  193.3830  176.3560  136.9240 C   0  0  0  0  0  1  0  0  0  0  0  0
  193.7310  175.0290  137.5720 C   0  0  2  0  0  3  0  0  0  0  0  0
  195.0790  174.6450  137.1840 N   0  0  0  0  0  2  0  0  0  0  0  0
  195.3320  172.8130  139.1200 O   0  0  0  0  0  1  0  0  0  0  0  0
  195.7430  175.2930  139.8360 O   0  0  0  0  0  1  0  0  0  0  0  0
  197.5640  173.9070  138.2960 O   0  0  0  0  0  0  0  0  0  0  0  0
  195.9200  174.1190  138.6330 P   0  0  0  0  0  0  0  0  0  0  0  0
  191.5590  177.2680  141.3770 C   0  0  0  0  0  2  0  0  0  0  0  0
  190.7640  177.2830  142.6670 C   0  0  0  0  0  2  0  0  0  0  0  0
  190.1580  175.9170  142.9070 C   0  0  0  0  0  2  0  0  0  0  0  0
  188.6730  176.0670  143.1540 C   0  0  0  0  0  2  0  0  0  0  0  0
  188.3260  177.5360  143.2900 C   0  0  0  0  0  2  0  0  0  0  0  0
  188.7120  177.8280  148.4790 C   0  0  0  0  0  3  0  0  0  0  0  0
  188.1220  177.7620  145.7750 C   0  0  0  0  0  0  0  0  0  0  0  0
  186.2770  177.9580  144.6600 C   0  0  0  0  0  3  0  0  0  0  0  0
  185.9300  178.0940  146.0080 C   0  0  0  0  0  3  0  0  0  0  0  0
  187.1260  177.9640  146.6890 C   0  0  0  0  0  0  0  0  0  0  0  0
  189.4510  177.5830  146.1590 C   0  0  0  0  0  3  0  0  0  0  0  0
  187.3810  178.0040  148.0580 C   0  0  0  0  0  3  0  0  0  0  0  0
  187.6110  177.7640  144.5370 N   0  0  0  0  0  0  0  0  0  0  0  0
  189.7400  177.6180  147.5350 C   0  0  0  0  0  3  0  0  0  0  0  0
  1 31  1  0  0  0  0
  2  3  2  0  0  0  0
  3  1  1  0  0  0  0
  4  6  1  0  0  0  0
  5  1  1  0  0  0  0
  6  2  1  0  0  0  0
  6  5  2  0  0  0  0
  7  9  2  0  0  0  0
  7  2  1  0  0  0  0
  8  7  1  0  0  0  0
 10  8  1  0  0  0  0
 11  9  1  0  0  0  0
 11 15  1  0  0  0  0
 12 19  1  0  0  0  0
 13 16  1  0  0  0  0
 14 17  2  0  0  0  0
 15 18  1  0  0  0  0
 17 12  1  0  0  0  0
 17 13  1  0  0  0  0
 18 12  2  0  0  0  0
 19 16  2  0  0  0  0
 20 15  2  0  0  0  0
 20 14  1  0  0  0  0
 21  4  1  0  0  0  0
 22 21  1  0  0  0  0
 22 23  1  0  0  0  0
 23 25  1  0  0  0  0
 25 24  1  6  0  0  0
 26 25  1  0  0  0  0
 26 30  1  0  0  0  0
 29 30  2  0  0  0  0
 30 27  1  0  0  0  0
 30 28  1  0  0  0  0
 31 32  1  0  0  0  0
 32 33  1  0  0  0  0
 33 34  1  0  0  0  0
 34 35  1  0  0  0  0
 35 43  1  0  0  0  0
 37 41  2  0  0  0  0
 37 40  1  0  0  0  0
 38 39  2  0  0  0  0
 39 40  1  0  0  0  0
 40 42  2  0  0  0  0
 41 44  1  0  0  0  0
 42 36  1  0  0  0  0
 43 38  1  0  0  0  0
 43 37  1  0  0  0  0
 44 36  2  0  0  0  0
M  END
>  <MODEL>
1

>  <REMARK>
 VINA RESULT:      -9.0      0.000      0.000
  Name = 
  15 active torsions:
  status: ('A' for Active; 'I' for Inactive)
    1  A    between atoms: C_3  and  C_16
    2  A    between atoms: C_8  and  C_12
    3  A    between atoms: C_8  and  C_24
    4  A    between atoms: N_9  and  C_24
    5  A    between atoms: C_10  and  C_21
    6  A    between atoms: C_10  and  N_23
    7  A    between atoms: C_11  and  C_25
    8  A    between atoms: C_11  and  N_38
    9  A    between atoms: C_12  and  C_22
   10  A    between atoms: N_13  and  P_39
   11  A    between atoms: N_13  and  C_42
   12  A    between atoms: C_21  and  C_33
   13  A    between atoms: C_22  and  C_36
   14  A    between atoms: C_33  and  C_42
   15  A    between atoms: C_36  and  N_40
                            x       y       z     vdW  Elec       q    Type
                         _______ _______ _______ _____ _____    ______ ____

>  <TORSDO>
F 15

$$$$
=
 OpenBabel10222417293D

 44 48  0  0  1  0  0  0  0  0999 V2000
  188.8740  178.4350  138.7920 N   0  0  0  0  0  0  0  0  0  0  0  0
  189.3720  177.7250  140.7430 C   0  0  0  0  0  0  0  0  0  0  0  0
  189.8460  177.8610  139.4900 N   0  0  0  0  0  0  0  0  0  0  0  0
  187.2180  178.3320  141.8810 N   0  0  0  0  0  2  0  0  0  0  0  0
  187.7990  178.6930  139.5220 N   0  0  0  0  0  0  0  0  0  0  0  0
  188.0960  178.2490  140.7560 C   0  0  0  0  0  0  0  0  0  0  0  0
  190.1280  177.1350  141.8600 C   0  0  0  0  0  0  0  0  0  0  0  0
  190.1060  175.7090  142.0390 N   0  0  0  0  0  2  0  0  0  0  0  0
  190.7910  177.9320  142.6490 N   0  0  0  0  0  0  0  0  0  0  0  0
  190.7720  175.0610  143.0220 O   0  0  0  0  0  1  0  0  0  0  0  0
  191.5830  177.5240  143.8000 C   0  0  0  0  0  2  0  0  0  0  0  0
  188.6120  177.8800  146.1010 C   0  0  0  0  0  0  0  0  0  0  0  0
  187.9840  177.5030  148.4830 S   0  0  0  0  0  0  0  0  0  0  0  0
  190.4720  176.9940  147.3930 C   0  0  0  0  0  3  0  0  0  0  0  0
  190.7240  177.4790  145.0130 C   0  0  0  0  0  0  0  0  0  0  0  0
  186.7590  178.1210  147.4890 C   0  0  0  0  0  3  0  0  0  0  0  0
  189.1530  177.4260  147.2910 C   0  0  0  0  0  0  0  0  0  0  0  0
  189.3900  177.9160  144.9430 C   0  0  0  0  0  3  0  0  0  0  0  0
  187.2760  178.2720  146.1970 C   0  0  0  0  0  3  0  0  0  0  0  0
  191.2630  177.0260  146.2340 C   0  0  0  0  0  3  0  0  0  0  0  0
  185.9020  178.9460  141.7920 C   0  0  0  0  0  2  0  0  0  0  0  0
  184.9550  178.2870  142.7760 C   0  0  0  0  0  2  0  0  0  0  0  0
  183.5360  178.7400  142.4920 C   0  0  0  0  0  2  0  0  0  0  0  0
  183.8680  179.1810  144.9170 C   0  0  0  0  0  1  0  0  0  0  0  0
  182.8700  179.2130  143.7740 C   0  0  2  0  0  3  0  0  0  0  0  0
  181.7500  178.3410  144.0910 N   0  0  0  0  0  2  0  0  0  0  0  0
  180.5040  180.4010  142.9200 O   0  0  0  0  0  1  0  0  0  0  0  0
  178.9590  178.6620  144.1130 O   0  0  0  0  0  1  0  0  0  0  0  0
  180.2260  178.0830  141.7320 O   0  0  0  0  0  0  0  0  0  0  0  0
  180.3550  178.9210  143.1960 P   0  0  0  0  0  0  0  0  0  0  0  0
  189.0040  178.8120  137.3960 C   0  0  0  0  0  2  0  0  0  0  0  0
  189.2800  177.5780  136.5600 C   0  0  0  0  0  2  0  0  0  0  0  0
  188.1270  176.6050  136.6940 C   0  0  0  0  0  2  0  0  0  0  0  0
  187.5320  176.3470  135.3270 C   0  0  0  0  0  2  0  0  0  0  0  0
  186.1470  176.9600  135.2520 C   0  0  0  0  0  2  0  0  0  0  0  0
  182.9560  176.7940  139.3690 C   0  0  0  0  0  3  0  0  0  0  0  0
  184.5250  176.5110  137.1070 C   0  0  0  0  0  0  0  0  0  0  0  0
  184.8980  174.8550  135.7640 C   0  0  0  0  0  3  0  0  0  0  0  0
  183.9930  174.3820  136.7200 C   0  0  0  0  0  3  0  0  0  0  0  0
  183.7780  175.4590  137.5580 C   0  0  0  0  0  0  0  0  0  0  0  0
  184.5300  177.7460  137.7550 C   0  0  0  0  0  3  0  0  0  0  0  0
  182.9760  175.5600  138.6920 C   0  0  0  0  0  3  0  0  0  0  0  0
  185.2040  176.1500  136.0090 N   0  0  0  0  0  0  0  0  0  0  0  0
  183.7290  177.8790  138.9030 C   0  0  0  0  0  3  0  0  0  0  0  0
  1  3  1  0  0  0  0
  1  5  1  0  0  0  0
  2  6  1  0  0  0  0
  2  7  1  0  0  0  0
  3  2  2  0  0  0  0
  5  6  2  0  0  0  0
  6  4  1  0  0  0  0
  7  8  1  0  0  0  0
  7  9  2  0  0  0  0
  8 10  1  0  0  0  0
  9 11  1  0  0  0  0
 11 15  1  0  0  0  0
 12 19  1  0  0  0  0
 12 17  1  0  0  0  0
 15 20  2  0  0  0  0
 16 13  1  0  0  0  0
 17 14  2  0  0  0  0
 17 13  1  0  0  0  0
 18 15  1  0  0  0  0
 18 12  2  0  0  0  0
 19 16  2  0  0  0  0
 20 14  1  0  0  0  0
 21  4  1  0  0  0  0
 21 22  1  0  0  0  0
 23 22  1  0  0  0  0
 23 25  1  0  0  0  0
 25 26  1  0  0  0  0
 25 24  1  1  0  0  0
 27 30  1  0  0  0  0
 29 30  2  0  0  0  0
 30 26  1  0  0  0  0
 30 28  1  0  0  0  0
 31  1  1  0  0  0  0
 32 33  1  0  0  0  0
 32 31  1  0  0  0  0
 34 33  1  0  0  0  0
 35 34  1  0  0  0  0
 35 43  1  0  0  0  0
 37 40  2  0  0  0  0
 37 41  1  0  0  0  0
 38 43  1  0  0  0  0
 38 39  2  0  0  0  0
 39 40  1  0  0  0  0
 40 42  1  0  0  0  0
 41 44  2  0  0  0  0
 42 36  2  0  0  0  0
 43 37  1  0  0  0  0
 44 36  1  0  0  0  0
M  END
>  <MODEL>
2

>  <REMARK>
 VINA RESULT:      -8.7      4.521      9.825
  Name = 
  15 active torsions:
  status: ('A' for Active; 'I' for Inactive)
    1  A    between atoms: C_3  and  C_16
    2  A    between atoms: C_8  and  C_12
    3  A    between atoms: C_8  and  C_24
    4  A    between atoms: N_9  and  C_24
    5  A    between atoms: C_10  and  C_21
    6  A    between atoms: C_10  and  N_23
    7  A    between atoms: C_11  and  C_25
    8  A    between atoms: C_11  and  N_38
    9  A    between atoms: C_12  and  C_22
   10  A    between atoms: N_13  and  P_39
   11  A    between atoms: N_13  and  C_42
   12  A    between atoms: C_21  and  C_33
   13  A    between atoms: C_22  and  C_36
   14  A    between atoms: C_33  and  C_42
   15  A    between atoms: C_36  and  N_40
                            x       y       z     vdW  Elec       q    Type
                         _______ _______ _______ _____ _____    ______ ____

>  <TORSDO>
F 15

$$$$
=
 OpenBabel10222417293D

 44 48  0  0  1  0  0  0  0  0999 V2000
  190.5890  177.1860  141.0330 N   0  0  0  0  0  0  0  0  0  0  0  0
  189.4020  177.4590  139.2800 C   0  0  0  0  0  0  0  0  0  0  0  0
  189.5800  177.8940  140.5420 N   0  0  0  0  0  0  0  0  0  0  0  0
  190.5430  175.7520  137.8350 N   0  0  0  0  0  2  0  0  0  0  0  0
  191.0880  176.3250  140.1600 N   0  0  0  0  0  0  0  0  0  0  0  0
  190.3480  176.4820  139.0480 C   0  0  0  0  0  0  0  0  0  0  0  0
  188.3820  177.9790  138.3550 C   0  0  0  0  0  0  0  0  0  0  0  0
  188.6330  179.2160  137.6670 N   0  0  0  0  0  2  0  0  0  0  0  0
  187.2840  177.2970  138.1960 N   0  0  0  0  0  0  0  0  0  0  0  0
  187.7720  179.7800  136.7880 O   0  0  0  0  0  1  0  0  0  0  0  0
  186.1720  177.6640  137.3310 C   0  0  0  0  0  2  0  0  0  0  0  0
  182.8650  177.0850  139.0570 C   0  0  0  0  0  0  0  0  0  0  0  0
  181.2110  178.2970  140.4730 S   0  0  0  0  0  0  0  0  0  0  0  0
  183.5640  179.3710  139.5010 C   0  0  0  0  0  3  0  0  0  0  0  0
  184.9490  177.8830  138.1480 C   0  0  0  0  0  0  0  0  0  0  0  0
  180.8220  176.6900  140.1000 C   0  0  0  0  0  3  0  0  0  0  0  0
  182.6590  178.3230  139.6390 C   0  0  0  0  0  0  0  0  0  0  0  0
  184.0120  176.8460  138.3000 C   0  0  0  0  0  3  0  0  0  0  0  0
  181.8460  176.1640  139.3060 C   0  0  0  0  0  3  0  0  0  0  0  0
  184.7220  179.1410  138.7420 C   0  0  0  0  0  3  0  0  0  0  0  0
  191.6050  174.7680  137.6860 C   0  0  0  0  0  2  0  0  0  0  0  0
  191.4670  174.0540  136.3550 C   0  0  0  0  0  2  0  0  0  0  0  0
  192.7340  174.2480  135.5440 C   0  0  0  0  0  2  0  0  0  0  0  0
  194.1360  176.2900  135.7630 C   0  0  0  0  0  1  0  0  0  0  0  0
  193.7900  174.9490  136.3830 C   0  0  2  0  0  3  0  0  0  0  0  0
  194.9870  174.1260  136.4450 N   0  0  0  0  0  2  0  0  0  0  0  0
  195.1070  172.8380  138.7890 O   0  0  0  0  0  1  0  0  0  0  0  0
  194.8690  175.4380  138.9260 O   0  0  0  0  0  1  0  0  0  0  0  0
  197.2290  174.2350  138.1530 O   0  0  0  0  0  0  0  0  0  0  0  0
  195.5420  174.1190  138.1100 P   0  0  0  0  0  0  0  0  0  0  0  0
  191.1390  177.3910  142.3620 C   0  0  0  0  0  2  0  0  0  0  0  0
  190.0740  177.9730  143.2690 C   0  0  0  0  0  2  0  0  0  0  0  0
  190.6030  178.0570  144.6850 C   0  0  0  0  0  2  0  0  0  0  0  0
  189.4380  178.1040  145.6500 C   0  0  0  0  0  2  0  0  0  0  0  0
  188.3480  177.1620  145.1780 C   0  0  0  0  0  2  0  0  0  0  0  0
  183.7880  178.8920  143.3430 C   0  0  0  0  0  3  0  0  0  0  0  0
  186.0580  178.0420  144.6800 C   0  0  0  0  0  0  0  0  0  0  0  0
  186.6180  178.0140  146.7700 C   0  0  0  0  0  3  0  0  0  0  0  0
  185.3290  178.5550  146.7230 C   0  0  0  0  0  3  0  0  0  0  0  0
  185.0030  178.5590  145.3800 C   0  0  0  0  0  0  0  0  0  0  0  0
  186.0350  177.9240  143.2900 C   0  0  0  0  0  3  0  0  0  0  0  0
  183.8440  178.9980  144.7450 C   0  0  0  0  0  3  0  0  0  0  0  0
  187.0420  177.7010  145.5240 N   0  0  0  0  0  0  0  0  0  0  0  0
  184.8770  178.3590  142.6210 C   0  0  0  0  0  3  0  0  0  0  0  0
  1 31  1  0  0  0  0
  2  3  2  0  0  0  0
  3  1  1  0  0  0  0
  4  6  1  0  0  0  0
  5  1  1  0  0  0  0
  6  2  1  0  0  0  0
  6  5  2  0  0  0  0
  7  2  1  0  0  0  0
  8  7  1  0  0  0  0
  9  7  2  0  0  0  0
 10  8  1  0  0  0  0
 11 15  1  0  0  0  0
 11  9  1  0  0  0  0
 12 19  1  0  0  0  0
 12 17  1  0  0  0  0
 14 17  2  0  0  0  0
 15 18  1  0  0  0  0
 15 20  2  0  0  0  0
 16 13  1  0  0  0  0
 17 13  1  0  0  0  0
 18 12  2  0  0  0  0
 19 16  2  0  0  0  0
 20 14  1  0  0  0  0
 21  4  1  0  0  0  0
 22 21  1  0  0  0  0
 23 22  1  0  0  0  0
 23 25  1  0  0  0  0
 25 24  1  6  0  0  0
 25 26  1  0  0  0  0
 26 30  1  0  0  0  0
 30 29  2  0  0  0  0
 30 27  1  0  0  0  0
 30 28  1  0  0  0  0
 31 32  1  0  0  0  0
 32 33  1  0  0  0  0
 33 34  1  0  0  0  0
 35 43  1  0  0  0  0
 35 34  1  0  0  0  0
 36 42  1  0  0  0  0
 37 40  1  0  0  0  0
 37 43  1  0  0  0  0
 39 38  2  0  0  0  0
 40 39  1  0  0  0  0
 41 37  2  0  0  0  0
 42 40  2  0  0  0  0
 43 38  1  0  0  0  0
 44 41  1  0  0  0  0
 44 36  2  0  0  0  0
M  END
>  <MODEL>
3

>  <REMARK>
 VINA RESULT:      -8.5      1.170      2.451
  Name = 
  15 active torsions:
  status: ('A' for Active; 'I' for Inactive)
    1  A    between atoms: C_3  and  C_16
    2  A    between atoms: C_8  and  C_12
    3  A    between atoms: C_8  and  C_24
    4  A    between atoms: N_9  and  C_24
    5  A    between atoms: C_10  and  C_21
    6  A    between atoms: C_10  and  N_23
    7  A    between atoms: C_11  and  C_25
    8  A    between atoms: C_11  and  N_38
    9  A    between atoms: C_12  and  C_22
   10  A    between atoms: N_13  and  P_39
   11  A    between atoms: N_13  and  C_42
   12  A    between atoms: C_21  and  C_33
   13  A    between atoms: C_22  and  C_36
   14  A    between atoms: C_33  and  C_42
   15  A    between atoms: C_36  and  N_40
                            x       y       z     vdW  Elec       q    Type
                         _______ _______ _______ _____ _____    ______ ____

>  <TORSDO>
F 15

$$$$
=
 OpenBabel10222417293D

 44 48  0  0  1  0  0  0  0  0999 V2000
  190.3100  177.3300  140.9300 N   0  0  0  0  0  0  0  0  0  0  0  0
  188.9710  177.6930  139.3070 C   0  0  0  0  0  0  0  0  0  0  0  0
  189.3110  178.1120  140.5410 N   0  0  0  0  0  0  0  0  0  0  0  0
  189.8260  175.9080  137.7620 N   0  0  0  0  0  2  0  0  0  0  0  0
  190.6500  176.4350  140.0150 N   0  0  0  0  0  0  0  0  0  0  0  0
  189.8130  176.6490  138.9850 C   0  0  0  0  0  0  0  0  0  0  0  0
  187.9020  178.2890  138.4900 C   0  0  0  0  0  0  0  0  0  0  0  0
  188.2610  179.1600  137.4040 N   0  0  0  0  0  2  0  0  0  0  0  0
  186.6660  178.0060  138.7840 N   0  0  0  0  0  0  0  0  0  0  0  0
  187.3630  179.7530  136.5820 O   0  0  0  0  0  1  0  0  0  0  0  0
  185.4890  178.5090  138.0900 C   0  0  0  0  0  2  0  0  0  0  0  0
  183.5180  178.7470  141.3010 C   0  0  0  0  0  0  0  0  0  0  0  0
  181.1600  178.9210  142.0870 S   0  0  0  0  0  0  0  0  0  0  0  0
  181.9510  178.7870  139.4420 C   0  0  0  0  0  3  0  0  0  0  0  0
  184.3550  178.6300  139.0440 C   0  0  0  0  0  0  0  0  0  0  0  0
  182.3390  178.8840  143.3030 C   0  0  0  0  0  3  0  0  0  0  0  0
  182.2280  178.8140  140.8060 C   0  0  0  0  0  0  0  0  0  0  0  0
  184.6020  178.6510  140.4280 C   0  0  0  0  0  3  0  0  0  0  0  0
  183.5950  178.7850  142.6940 C   0  0  0  0  0  3  0  0  0  0  0  0
  183.0340  178.6920  138.5550 C   0  0  0  0  0  3  0  0  0  0  0  0
  190.7900  174.8480  137.5100 C   0  0  0  0  0  2  0  0  0  0  0  0
  192.0640  175.4330  136.9320 C   0  0  0  0  0  2  0  0  0  0  0  0
  193.1770  174.4060  137.0200 C   0  0  0  0  0  2  0  0  0  0  0  0
  194.4400  176.1690  135.8020 C   0  0  0  0  0  1  0  0  0  0  0  0
  194.5280  175.0830  136.8580 C   0  0  2  0  0  3  0  0  0  0  0  0
  195.5200  174.1000  136.4530 N   0  0  0  0  0  2  0  0  0  0  0  0
  197.2940  175.1670  138.1510 O   0  0  0  0  0  1  0  0  0  0  0  0
  197.7850  172.7190  137.3770 O   0  0  0  0  0  0  0  0  0  0  0  0
  195.7510  173.3000  139.1480 O   0  0  0  0  0  1  0  0  0  0  0  0
  196.6140  173.8610  137.8050 P   0  0  0  0  0  0  0  0  0  0  0  0
  191.0080  177.4910  142.1930 C   0  0  0  0  0  2  0  0  0  0  0  0
  190.7980  176.2600  143.0510 C   0  0  0  0  0  2  0  0  0  0  0  0
  191.6260  176.3720  144.3130 C   0  0  0  0  0  2  0  0  0  0  0  0
  190.9590  177.3420  145.2630 C   0  0  0  0  0  2  0  0  0  0  0  0
  190.4620  176.5960  146.4860 C   0  0  0  0  0  2  0  0  0  0  0  0
  185.6180  178.3010  145.5950 C   0  0  0  0  0  3  0  0  0  0  0  0
  188.1420  177.5370  146.4380 C   0  0  0  0  0  0  0  0  0  0  0  0
  189.2370  177.8330  148.2810 C   0  0  0  0  0  3  0  0  0  0  0  0
  187.9940  178.4480  148.4670 C   0  0  0  0  0  3  0  0  0  0  0  0
  187.3230  178.2410  147.2760 C   0  0  0  0  0  0  0  0  0  0  0  0
  187.7480  177.1820  145.1480 C   0  0  0  0  0  3  0  0  0  0  0  0
  186.0470  178.6450  146.8910 C   0  0  0  0  0  3  0  0  0  0  0  0
  189.3060  177.2790  147.0480 N   0  0  0  0  0  0  0  0  0  0  0  0
  186.4640  177.5750  144.7290 C   0  0  0  0  0  3  0  0  0  0  0  0
  1 31  1  0  0  0  0
  2  3  2  0  0  0  0
  3  1  1  0  0  0  0
  4  6  1  0  0  0  0
  5  1  1  0  0  0  0
  6  2  1  0  0  0  0
  6  5  2  0  0  0  0
  7  9  2  0  0  0  0
  7  2  1  0  0  0  0
  8  7  1  0  0  0  0
 10  8  1  0  0  0  0
 11  9  1  0  0  0  0
 11 15  1  0  0  0  0
 12 19  1  0  0  0  0
 13 16  1  0  0  0  0
 14 17  2  0  0  0  0
 15 18  1  0  0  0  0
 17 12  1  0  0  0  0
 17 13  1  0  0  0  0
 18 12  2  0  0  0  0
 19 16  2  0  0  0  0
 20 15  2  0  0  0  0
 20 14  1  0  0  0  0
 21  4  1  0  0  0  0
 22 23  1  0  0  0  0
 22 21  1  0  0  0  0
 25 24  1  6  0  0  0
 25 23  1  0  0  0  0
 26 25  1  0  0  0  0
 26 30  1  0  0  0  0
 28 30  2  0  0  0  0
 30 27  1  0  0  0  0
 30 29  1  0  0  0  0
 31 32  1  0  0  0  0
 32 33  1  0  0  0  0
 33 34  1  0  0  0  0
 34 35  1  0  0  0  0
 35 43  1  0  0  0  0
 36 42  1  0  0  0  0
 37 43  1  0  0  0  0
 37 40  1  0  0  0  0
 38 39  2  0  0  0  0
 40 39  1  0  0  0  0
 41 37  2  0  0  0  0
 42 40  2  0  0  0  0
 43 38  1  0  0  0  0
 44 41  1  0  0  0  0
 44 36  2  0  0  0  0
M  END
>  <MODEL>
4

>  <REMARK>
 VINA RESULT:      -8.5      1.033      1.954
  Name = 
  15 active torsions:
  status: ('A' for Active; 'I' for Inactive)
    1  A    between atoms: C_3  and  C_16
    2  A    between atoms: C_8  and  C_12
    3  A    between atoms: C_8  and  C_24
    4  A    between atoms: N_9  and  C_24
    5  A    between atoms: C_10  and  C_21
    6  A    between atoms: C_10  and  N_23
    7  A    between atoms: C_11  and  C_25
    8  A    between atoms: C_11  and  N_38
    9  A    between atoms: C_12  and  C_22
   10  A    between atoms: N_13  and  P_39
   11  A    between atoms: N_13  and  C_42
   12  A    between atoms: C_21  and  C_33
   13  A    between atoms: C_22  and  C_36
   14  A    between atoms: C_33  and  C_42
   15  A    between atoms: C_36  and  N_40
                            x       y       z     vdW  Elec       q    Type
                         _______ _______ _______ _____ _____    ______ ____

>  <TORSDO>
F 15

$$$$
=
 OpenBabel10222417293D

 44 48  0  0  1  0  0  0  0  0999 V2000
  188.4320  177.6700  138.0850 N   0  0  0  0  0  0  0  0  0  0  0  0
  189.7600  177.0640  139.6420 C   0  0  0  0  0  0  0  0  0  0  0  0
  188.7280  177.8830  139.3600 N   0  0  0  0  0  0  0  0  0  0  0  0
  191.0590  175.3620  138.3310 N   0  0  0  0  0  2  0  0  0  0  0  0
  189.2010  176.7500  137.5230 N   0  0  0  0  0  0  0  0  0  0  0  0
  190.0470  176.3590  138.4920 C   0  0  0  0  0  0  0  0  0  0  0  0
  190.4110  176.9670  140.9590 C   0  0  0  0  0  0  0  0  0  0  0  0
  191.7120  177.5510  141.1360 N   0  0  0  0  0  2  0  0  0  0  0  0
  189.7810  176.3510  141.9180 N   0  0  0  0  0  0  0  0  0  0  0  0
  192.3960  177.5310  142.3040 O   0  0  0  0  0  1  0  0  0  0  0  0
  190.2740  176.1570  143.2730 C   0  0  0  0  0  2  0  0  0  0  0  0
  188.7820  177.5260  146.4590 C   0  0  0  0  0  0  0  0  0  0  0  0
  186.6050  178.3480  147.3500 S   0  0  0  0  0  0  0  0  0  0  0  0
  187.0320  177.4470  144.7730 C   0  0  0  0  0  3  0  0  0  0  0  0
  189.3040  176.7220  144.2490 C   0  0  0  0  0  0  0  0  0  0  0  0
  187.8980  178.3590  148.4450 C   0  0  0  0  0  3  0  0  0  0  0  0
  187.4730  177.7330  146.0620 C   0  0  0  0  0  0  0  0  0  0  0  0
  189.7180  177.0140  145.5600 C   0  0  0  0  0  3  0  0  0  0  0  0
  189.0330  177.8710  147.7890 C   0  0  0  0  0  3  0  0  0  0  0  0
  187.9650  176.9330  143.8600 C   0  0  0  0  0  3  0  0  0  0  0  0
  191.2480  174.6460  137.0780 C   0  0  0  0  0  2  0  0  0  0  0  0
  192.5810  173.9250  137.0900 C   0  0  0  0  0  2  0  0  0  0  0  0
  193.6620  174.8680  137.5810 C   0  0  0  0  0  2  0  0  0  0  0  0
  194.8100  172.6750  137.8250 C   0  0  0  0  0  1  0  0  0  0  0  0
  195.0080  174.1620  137.5940 C   0  0  2  0  0  3  0  0  0  0  0  0
  195.8330  174.7060  138.6600 N   0  0  0  0  0  2  0  0  0  0  0  0
  198.0360  173.4690  137.7740 O   0  0  0  0  0  1  0  0  0  0  0  0
  198.4330  175.6260  139.1960 O   0  0  0  0  0  1  0  0  0  0  0  0
  197.4700  175.7490  136.6140 O   0  0  0  0  0  0  0  0  0  0  0  0
  197.4720  174.8470  138.0450 P   0  0  0  0  0  0  0  0  0  0  0  0
  187.3280  178.3200  137.4000 C   0  0  0  0  0  2  0  0  0  0  0  0
  186.0680  178.1940  138.2320 C   0  0  0  0  0  2  0  0  0  0  0  0
  185.0670  177.3180  137.5100 C   0  0  0  0  0  2  0  0  0  0  0  0
  183.8060  177.2140  138.3400 C   0  0  0  0  0  2  0  0  0  0  0  0
  183.2530  178.6010  138.6010 C   0  0  0  0  0  2  0  0  0  0  0  0
  183.7730  179.0550  143.7670 C   0  0  0  0  0  3  0  0  0  0  0  0
  183.1050  178.7870  141.0940 C   0  0  0  0  0  0  0  0  0  0  0  0
  181.2350  178.4250  140.0670 C   0  0  0  0  0  3  0  0  0  0  0  0
  180.9250  178.4710  141.4310 C   0  0  0  0  0  3  0  0  0  0  0  0
  182.1360  178.7020  142.0540 C   0  0  0  0  0  0  0  0  0  0  0  0
  184.4450  179.0070  141.4140 C   0  0  0  0  0  3  0  0  0  0  0  0
  182.4310  178.8310  143.4090 C   0  0  0  0  0  3  0  0  0  0  0  0
  182.5600  178.6260  139.8810 N   0  0  0  0  0  0  0  0  0  0  0  0
  184.7740  179.1410  142.7750 C   0  0  0  0  0  3  0  0  0  0  0  0
  1  3  1  0  0  0  0
  2  7  1  0  0  0  0
  3  2  2  0  0  0  0
  4  6  1  0  0  0  0
  5  1  1  0  0  0  0
  5  6  2  0  0  0  0
  6  2  1  0  0  0  0
  7  8  1  0  0  0  0
  7  9  2  0  0  0  0
  8 10  1  0  0  0  0
  9 11  1  0  0  0  0
 11 15  1  0  0  0  0
 12 19  1  0  0  0  0
 13 16  1  0  0  0  0
 14 17  2  0  0  0  0
 15 18  1  0  0  0  0
 17 12  1  0  0  0  0
 17 13  1  0  0  0  0
 18 12  2  0  0  0  0
 19 16  2  0  0  0  0
 20 15  2  0  0  0  0
 20 14  1  0  0  0  0
 21 22  1  0  0  0  0
 21  4  1  0  0  0  0
 22 23  1  0  0  0  0
 23 25  1  0  0  0  0
 25 24  1  1  0  0  0
 25 26  1  0  0  0  0
 27 30  1  0  0  0  0
 29 30  2  0  0  0  0
 30 26  1  0  0  0  0
 30 28  1  0  0  0  0
 31  1  1  0  0  0  0
 31 32  1  0  0  0  0
 33 32  1  0  0  0  0
 33 34  1  0  0  0  0
 34 35  1  0  0  0  0
 35 43  1  0  0  0  0
 37 41  2  0  0  0  0
 37 40  1  0  0  0  0
 38 39  2  0  0  0  0
 39 40  1  0  0  0  0
 40 42  2  0  0  0  0
 41 44  1  0  0  0  0
 42 36  1  0  0  0  0
 43 38  1  0  0  0  0
 43 37  1  0  0  0  0
 44 36  2  0  0  0  0
M  END
>  <MODEL>
5

>  <REMARK>
 VINA RESULT:      -8.5      2.136      5.726
  Name = 
  15 active torsions:
  status: ('A' for Active; 'I' for Inactive)
    1  A    between atoms: C_3  and  C_16
    2  A    between atoms: C_8  and  C_12
    3  A    between atoms: C_8  and  C_24
    4  A    between atoms: N_9  and  C_24
    5  A    between atoms: C_10  and  C_21
    6  A    between atoms: C_10  and  N_23
    7  A    between atoms: C_11  and  C_25
    8  A    between atoms: C_11  and  N_38
    9  A    between atoms: C_12  and  C_22
   10  A    between atoms: N_13  and  P_39
   11  A    between atoms: N_13  and  C_42
   12  A    between atoms: C_21  and  C_33
   13  A    between atoms: C_22  and  C_36
   14  A    between atoms: C_33  and  C_42
   15  A    between atoms: C_36  and  N_40
                            x       y       z     vdW  Elec       q    Type
                         _______ _______ _______ _____ _____    ______ ____

>  <TORSDO>
F 15

$$$$
=
 OpenBabel10222417293D

 44 48  0  0  1  0  0  0  0  0999 V2000
  189.6990  177.6700  141.0170 N   0  0  0  0  0  0  0  0  0  0  0  0
  187.7460  178.2730  140.4040 C   0  0  0  0  0  0  0  0  0  0  0  0
  188.4740  177.8940  141.4720 N   0  0  0  0  0  0  0  0  0  0  0  0
  188.2520  178.6290  137.9710 N   0  0  0  0  0  2  0  0  0  0  0  0
  189.8160  177.8950  139.7180 N   0  0  0  0  0  0  0  0  0  0  0  0
  188.5910  178.2740  139.3140 C   0  0  0  0  0  0  0  0  0  0  0  0
  186.3180  178.6290  140.4530 C   0  0  0  0  0  0  0  0  0  0  0  0
  185.7290  178.9660  141.7200 N   0  0  0  0  0  2  0  0  0  0  0  0
  185.6390  178.6220  139.3420 N   0  0  0  0  0  0  0  0  0  0  0  0
  184.4320  179.3180  141.8800 O   0  0  0  0  0  1  0  0  0  0  0  0
  184.2250  178.9390  139.2070 C   0  0  0  0  0  2  0  0  0  0  0  0
  182.7880  176.0760  137.2100 C   0  0  0  0  0  0  0  0  0  0  0  0
  181.2610  174.1270  137.4920 S   0  0  0  0  0  0  0  0  0  0  0  0
  181.9310  175.9250  139.4810 C   0  0  0  0  0  3  0  0  0  0  0  0
  183.4660  177.7130  138.8430 C   0  0  0  0  0  0  0  0  0  0  0  0
  181.9170  174.3280  135.9430 C   0  0  0  0  0  3  0  0  0  0  0  0
  182.0140  175.4540  138.1740 C   0  0  0  0  0  0  0  0  0  0  0  0
  183.5240  177.2180  137.5290 C   0  0  0  0  0  3  0  0  0  0  0  0
  182.7420  175.4580  135.9590 C   0  0  0  0  0  3  0  0  0  0  0  0
  182.6680  177.0710  139.8120 C   0  0  0  0  0  3  0  0  0  0  0  0
  189.2380  178.6360  136.9010 C   0  0  0  0  0  2  0  0  0  0  0  0
  188.7940  177.7140  135.7820 C   0  0  0  0  0  2  0  0  0  0  0  0
  188.5930  176.3150  136.3300 C   0  0  0  0  0  2  0  0  0  0  0  0
  186.4220  176.8880  135.2580 C   0  0  0  0  0  1  0  0  0  0  0  0
  187.2220  175.7900  135.9340 C   0  0  2  0  0  3  0  0  0  0  0  0
  186.5110  175.3410  137.1210 N   0  0  0  0  0  2  0  0  0  0  0  0
  187.3730  172.8070  137.1840 O   0  0  0  0  0  1  0  0  0  0  0  0
  185.6380  173.3750  135.3130 O   0  0  0  0  0  0  0  0  0  0  0  0
  184.9020  173.1840  137.9650 O   0  0  0  0  0  1  0  0  0  0  0  0
  186.1400  173.6380  136.9060 P   0  0  0  0  0  0  0  0  0  0  0  0
  190.8140  177.2940  141.8690 C   0  0  0  0  0  2  0  0  0  0  0  0
  190.3590  177.2550  143.3140 C   0  0  0  0  0  2  0  0  0  0  0  0
  191.3200  178.0500  144.1720 C   0  0  0  0  0  2  0  0  0  0  0  0
  191.3000  177.5020  145.5820 C   0  0  0  0  0  2  0  0  0  0  0  0
  190.0880  176.6090  145.7630 C   0  0  0  0  0  2  0  0  0  0  0  0
  185.3010  178.6350  146.1420 C   0  0  0  0  0  3  0  0  0  0  0  0
  187.8810  177.6470  146.3280 C   0  0  0  0  0  0  0  0  0  0  0  0
  189.3440  177.6260  147.9230 C   0  0  0  0  0  3  0  0  0  0  0  0
  188.2120  178.2620  148.4440 C   0  0  0  0  0  3  0  0  0  0  0  0
  187.3020  178.2590  147.4050 C   0  0  0  0  0  0  0  0  0  0  0  0
  187.2100  177.4990  145.1140 C   0  0  0  0  0  3  0  0  0  0  0  0
  186.0070  178.7690  147.3520 C   0  0  0  0  0  3  0  0  0  0  0  0
  189.1230  177.2540  146.6410 N   0  0  0  0  0  0  0  0  0  0  0  0
  185.9000  178.0050  145.0300 C   0  0  0  0  0  3  0  0  0  0  0  0
  1  3  1  0  0  0  0
  1 31  1  0  0  0  0
  2  7  1  0  0  0  0
  2  3  2  0  0  0  0
  4  6  1  0  0  0  0
  5  1  1  0  0  0  0
  6  5  2  0  0  0  0
  6  2  1  0  0  0  0
  7  8  1  0  0  0  0
  8 10  1  0  0  0  0
  9  7  2  0  0  0  0
 11  9  1  0  0  0  0
 12 18  2  0  0  0  0
 12 17  1  0  0  0  0
 13 17  1  0  0  0  0
 14 20  1  0  0  0  0
 15 11  1  0  0  0  0
 15 20  2  0  0  0  0
 16 19  2  0  0  0  0
 16 13  1  0  0  0  0
 17 14  2  0  0  0  0
 18 15  1  0  0  0  0
 19 12  1  0  0  0  0
 21  4  1  0  0  0  0
 22 23  1  0  0  0  0
 22 21  1  0  0  0  0
 25 24  1  1  0  0  0
 25 23  1  0  0  0  0
 25 26  1  0  0  0  0
 28 30  2  0  0  0  0
 30 26  1  0  0  0  0
 30 27  1  0  0  0  0
 30 29  1  0  0  0  0
 31 32  1  0  0  0  0
 32 33  1  0  0  0  0
 33 34  1  0  0  0  0
 34 35  1  0  0  0  0
 35 43  1  0  0  0  0
 36 42  1  0  0  0  0
 37 43  1  0  0  0  0
 37 40  1  0  0  0  0
 38 39  2  0  0  0  0
 40 39  1  0  0  0  0
 41 37  2  0  0  0  0
 42 40  2  0  0  0  0
 43 38  1  0  0  0  0
 44 41  1  0  0  0  0
 44 36  2  0  0  0  0
M  END
>  <MODEL>
6

>  <REMARK>
 VINA RESULT:      -8.4      3.875      5.091
  Name = 
  15 active torsions:
  status: ('A' for Active; 'I' for Inactive)
    1  A    between atoms: C_3  and  C_16
    2  A    between atoms: C_8  and  C_12
    3  A    between atoms: C_8  and  C_24
    4  A    between atoms: N_9  and  C_24
    5  A    between atoms: C_10  and  C_21
    6  A    between atoms: C_10  and  N_23
    7  A    between atoms: C_11  and  C_25
    8  A    between atoms: C_11  and  N_38
    9  A    between atoms: C_12  and  C_22
   10  A    between atoms: N_13  and  P_39
   11  A    between atoms: N_13  and  C_42
   12  A    between atoms: C_21  and  C_33
   13  A    between atoms: C_22  and  C_36
   14  A    between atoms: C_33  and  C_42
   15  A    between atoms: C_36  and  N_40
                            x       y       z     vdW  Elec       q    Type
                         _______ _______ _______ _____ _____    ______ ____

>  <TORSDO>
F 15

$$$$
=
 OpenBabel10222417293D

 44 48  0  0  1  0  0  0  0  0999 V2000
  187.7660  177.5690  138.1010 N   0  0  0  0  0  0  0  0  0  0  0  0
  189.5350  177.1290  139.2120 C   0  0  0  0  0  0  0  0  0  0  0  0
  188.5050  177.9920  139.1180 N   0  0  0  0  0  0  0  0  0  0  0  0
  190.2110  175.0610  137.9600 N   0  0  0  0  0  2  0  0  0  0  0  0
  188.2460  176.4720  137.5360 N   0  0  0  0  0  0  0  0  0  0  0  0
  189.3640  176.1820  138.2230 C   0  0  0  0  0  0  0  0  0  0  0  0
  190.6060  177.2170  140.2170 C   0  0  0  0  0  0  0  0  0  0  0  0
  191.9510  177.4760  139.7800 N   0  0  0  0  0  2  0  0  0  0  0  0
  190.2950  177.0540  141.4710 N   0  0  0  0  0  0  0  0  0  0  0  0
  193.0090  177.5880  140.6150 O   0  0  0  0  0  1  0  0  0  0  0  0
  191.2230  177.1020  142.5920 C   0  0  0  0  0  2  0  0  0  0  0  0
  188.3840  177.3790  145.0640 C   0  0  0  0  0  0  0  0  0  0  0  0
  187.9920  177.4490  147.5240 S   0  0  0  0  0  0  0  0  0  0  0  0
  190.4640  177.2130  146.3120 C   0  0  0  0  0  3  0  0  0  0  0  0
  190.4660  177.1690  143.8700 C   0  0  0  0  0  0  0  0  0  0  0  0
  186.6060  177.5590  146.5560 C   0  0  0  0  0  3  0  0  0  0  0  0
  189.0780  177.3340  146.2590 C   0  0  0  0  0  0  0  0  0  0  0  0
  189.0660  177.3000  143.8500 C   0  0  0  0  0  3  0  0  0  0  0  0
  187.0010  177.5050  145.2150 C   0  0  0  0  0  3  0  0  0  0  0  0
  191.1610  177.1310  145.0960 C   0  0  0  0  0  3  0  0  0  0  0  0
  189.9130  174.0950  136.9130 C   0  0  0  0  0  2  0  0  0  0  0  0
  191.1980  173.4850  136.3890 C   0  0  0  0  0  2  0  0  0  0  0  0
  192.1110  174.5860  135.8830 C   0  0  0  0  0  2  0  0  0  0  0  0
  193.8920  173.1960  134.8430 C   0  0  0  0  0  1  0  0  0  0  0  0
  193.5630  174.1470  135.9780 C   0  0  2  0  0  3  0  0  0  0  0  0
  193.7860  173.4740  137.2470 N   0  0  0  0  0  2  0  0  0  0  0  0
  195.7530  173.3110  139.0570 O   0  0  0  0  0  1  0  0  0  0  0  0
  194.6480  175.6640  138.7810 O   0  0  0  0  0  1  0  0  0  0  0  0
  196.3350  174.6190  136.8640 O   0  0  0  0  0  0  0  0  0  0  0  0
  195.1610  174.2430  138.0230 P   0  0  0  0  0  0  0  0  0  0  0  0
  186.5190  178.1970  137.7010 C   0  0  0  0  0  2  0  0  0  0  0  0
  185.4220  177.1530  137.6350 C   0  0  0  0  0  2  0  0  0  0  0  0
  184.1000  177.8230  137.3250 C   0  0  0  0  0  2  0  0  0  0  0  0
  183.8170  178.8750  138.3750 C   0  0  0  0  0  2  0  0  0  0  0  0
  183.1980  178.2210  139.5950 C   0  0  0  0  0  2  0  0  0  0  0  0
  183.0890  179.1000  144.7310 C   0  0  0  0  0  3  0  0  0  0  0  0
  183.5420  178.6800  142.0330 C   0  0  0  0  0  0  0  0  0  0  0  0
  185.3170  178.7820  140.7990 C   0  0  0  0  0  3  0  0  0  0  0  0
  185.7320  179.0900  142.0990 C   0  0  0  0  0  3  0  0  0  0  0  0
  184.5790  179.0160  142.8580 C   0  0  0  0  0  0  0  0  0  0  0  0
  182.2380  178.5390  142.5060 C   0  0  0  0  0  3  0  0  0  0  0  0
  184.3930  179.2360  144.2200 C   0  0  0  0  0  3  0  0  0  0  0  0
  183.9880  178.5300  140.7780 N   0  0  0  0  0  0  0  0  0  0  0  0
  182.0180  178.7550  143.8790 C   0  0  0  0  0  3  0  0  0  0  0  0
  1  3  1  0  0  0  0
  2  7  1  0  0  0  0
  3  2  2  0  0  0  0
  4  6  1  0  0  0  0
  5  1  1  0  0  0  0
  5  6  2  0  0  0  0
  6  2  1  0  0  0  0
  7  9  2  0  0  0  0
  8  7  1  0  0  0  0
  8 10  1  0  0  0  0
  9 11  1  0  0  0  0
 11 15  1  0  0  0  0
 12 19  1  0  0  0  0
 12 17  1  0  0  0  0
 15 20  2  0  0  0  0
 16 13  1  0  0  0  0
 17 14  2  0  0  0  0
 17 13  1  0  0  0  0
 18 15  1  0  0  0  0
 18 12  2  0  0  0  0
 19 16  2  0  0  0  0
 20 14  1  0  0  0  0
 21  4  1  0  0  0  0
 22 21  1  0  0  0  0
 23 25  1  0  0  0  0
 23 22  1  0  0  0  0
 25 24  1  6  0  0  0
 25 26  1  0  0  0  0
 26 30  1  0  0  0  0
 29 30  2  0  0  0  0
 30 28  1  0  0  0  0
 30 27  1  0  0  0  0
 31  1  1  0  0  0  0
 32 31  1  0  0  0  0
 33 32  1  0  0  0  0
 33 34  1  0  0  0  0
 34 35  1  0  0  0  0
 35 43  1  0  0  0  0
 37 41  2  0  0  0  0
 37 40  1  0  0  0  0
 38 39  2  0  0  0  0
 39 40  1  0  0  0  0
 40 42  2  0  0  0  0
 41 44  1  0  0  0  0
 42 36  1  0  0  0  0
 43 38  1  0  0  0  0
 43 37  1  0  0  0  0
 44 36  2  0  0  0  0
M  END
>  <MODEL>
7

>  <REMARK>
 VINA RESULT:      -8.2      2.217      5.639
  Name = 
  15 active torsions:
  status: ('A' for Active; 'I' for Inactive)
    1  A    between atoms: C_3  and  C_16
    2  A    between atoms: C_8  and  C_12
    3  A    between atoms: C_8  and  C_24
    4  A    between atoms: N_9  and  C_24
    5  A    between atoms: C_10  and  C_21
    6  A    between atoms: C_10  and  N_23
    7  A    between atoms: C_11  and  C_25
    8  A    between atoms: C_11  and  N_38
    9  A    between atoms: C_12  and  C_22
   10  A    between atoms: N_13  and  P_39
   11  A    between atoms: N_13  and  C_42
   12  A    between atoms: C_21  and  C_33
   13  A    between atoms: C_22  and  C_36
   14  A    between atoms: C_33  and  C_42
   15  A    between atoms: C_36  and  N_40
                            x       y       z     vdW  Elec       q    Type
                         _______ _______ _______ _____ _____    ______ ____

>  <TORSDO>
F 15

$$$$
=
 OpenBabel10222417293D

 44 48  0  0  1  0  0  0  0  0999 V2000
  185.2000  178.4310  143.9340 N   0  0  0  0  0  0  0  0  0  0  0  0
  184.5320  178.5900  141.9130 C   0  0  0  0  0  0  0  0  0  0  0  0
  184.1060  178.5150  143.1890 N   0  0  0  0  0  0  0  0  0  0  0  0
  186.7900  178.6320  140.8160 N   0  0  0  0  0  2  0  0  0  0  0  0
  186.3150  178.4620  143.2190 N   0  0  0  0  0  0  0  0  0  0  0  0
  185.9110  178.5600  141.9410 C   0  0  0  0  0  0  0  0  0  0  0  0
  183.6450  178.7030  140.7440 C   0  0  0  0  0  0  0  0  0  0  0  0
  183.8770  179.7550  139.7930 N   0  0  0  0  0  2  0  0  0  0  0  0
  182.6770  177.8410  140.6160 N   0  0  0  0  0  0  0  0  0  0  0  0
  183.1320  179.9450  138.6790 O   0  0  0  0  0  1  0  0  0  0  0  0
  181.7060  177.8070  139.5320 C   0  0  0  0  0  2  0  0  0  0  0  0
  183.2310  174.7890  137.8540 C   0  0  0  0  0  0  0  0  0  0  0  0
  182.5570  172.8190  136.4860 S   0  0  0  0  0  0  0  0  0  0  0  0
  180.8340  174.7520  137.4500 C   0  0  0  0  0  3  0  0  0  0  0  0
  181.8510  176.5400  138.7660 C   0  0  0  0  0  0  0  0  0  0  0  0
  184.2120  172.9440  136.8270 C   0  0  0  0  0  3  0  0  0  0  0  0
  182.1050  174.2050  137.3020 C   0  0  0  0  0  0  0  0  0  0  0  0
  183.1230  175.9670  138.5920 C   0  0  0  0  0  3  0  0  0  0  0  0
  184.4150  174.0950  137.5960 C   0  0  0  0  0  3  0  0  0  0  0  0
  180.7130  175.9370  138.1920 C   0  0  0  0  0  3  0  0  0  0  0  0
  188.2370  178.6340  140.9640 C   0  0  0  0  0  2  0  0  0  0  0  0
  188.8070  177.3080  140.5010 C   0  0  0  0  0  2  0  0  0  0  0  0
  190.0160  177.5570  139.6200 C   0  0  0  0  0  2  0  0  0  0  0  0
  190.9650  176.7340  137.4730 C   0  0  0  0  0  1  0  0  0  0  0  0
  189.7000  177.1860  138.1800 C   0  0  2  0  0  3  0  0  0  0  0  0
  189.1510  178.3410  137.4880 N   0  0  0  0  0  2  0  0  0  0  0  0
  187.1990  176.5120  137.3900 O   0  0  0  0  0  1  0  0  0  0  0  0
  187.4930  177.9830  135.2490 O   0  0  0  0  0  0  0  0  0  0  0  0
  186.4110  179.0030  137.5730 O   0  0  0  0  0  1  0  0  0  0  0  0
  187.5400  177.9150  136.9370 P   0  0  0  0  0  0  0  0  0  0  0  0
  185.1800  178.3910  145.3860 C   0  0  0  0  0  2  0  0  0  0  0  0
  186.3950  177.6390  145.8910 C   0  0  0  0  0  2  0  0  0  0  0  0
  186.8750  178.2610  147.1850 C   0  0  0  0  0  2  0  0  0  0  0  0
  187.8840  177.3390  147.8360 C   0  0  0  0  0  2  0  0  0  0  0  0
  189.2210  178.0450  147.9450 C   0  0  0  0  0  2  0  0  0  0  0  0
  191.2900  177.2700  143.2250 C   0  0  0  0  0  3  0  0  0  0  0  0
  190.4650  177.4230  145.8630 C   0  0  0  0  0  0  0  0  0  0  0  0
  191.0610  176.3760  147.6610 C   0  0  0  0  0  3  0  0  0  0  0  0
  191.8590  175.8640  146.6330 C   0  0  0  0  0  3  0  0  0  0  0  0
  191.4540  176.5500  145.5040 C   0  0  0  0  0  0  0  0  0  0  0  0
  189.8410  178.2550  144.9340 C   0  0  0  0  0  3  0  0  0  0  0  0
  191.8970  176.4430  144.1880 C   0  0  0  0  0  3  0  0  0  0  0  0
  190.2270  177.3260  147.1780 N   0  0  0  0  0  0  0  0  0  0  0  0
  190.2680  178.1700  143.5960 C   0  0  0  0  0  3  0  0  0  0  0  0
  1 31  1  0  0  0  0
  2  6  1  0  0  0  0
  2  3  2  0  0  0  0
  3  1  1  0  0  0  0
  4 21  1  0  0  0  0
  4  6  1  0  0  0  0
  5  1  1  0  0  0  0
  6  5  2  0  0  0  0
  7  2  1  0  0  0  0
  8  7  1  0  0  0  0
  9  7  2  0  0  0  0
 10  8  1  0  0  0  0
 11  9  1  0  0  0  0
 12 18  1  0  0  0  0
 13 16  1  0  0  0  0
 13 17  1  0  0  0  0
 14 20  2  0  0  0  0
 15 11  1  0  0  0  0
 16 19  2  0  0  0  0
 17 14  1  0  0  0  0
 17 12  2  0  0  0  0
 18 15  2  0  0  0  0
 19 12  1  0  0  0  0
 20 15  1  0  0  0  0
 22 21  1  0  0  0  0
 23 22  1  0  0  0  0
 25 24  1  6  0  0  0
 25 23  1  0  0  0  0
 26 25  1  0  0  0  0
 28 30  2  0  0  0  0
 30 27  1  0  0  0  0
 30 26  1  0  0  0  0
 30 29  1  0  0  0  0
 31 32  1  0  0  0  0
 32 33  1  0  0  0  0
 33 34  1  0  0  0  0
 34 35  1  0  0  0  0
 36 44  2  0  0  0  0
 36 42  1  0  0  0  0
 37 43  1  0  0  0  0
 39 38  2  0  0  0  0
 40 37  1  0  0  0  0
 40 39  1  0  0  0  0
 41 37  2  0  0  0  0
 42 40  2  0  0  0  0
 43 38  1  0  0  0  0
 43 35  1  0  0  0  0
 44 41  1  0  0  0  0
M  END
>  <MODEL>
8

>  <REMARK>
 VINA RESULT:      -8.2      3.802      6.015
  Name = 
  15 active torsions:
  status: ('A' for Active; 'I' for Inactive)
    1  A    between atoms: C_3  and  C_16
    2  A    between atoms: C_8  and  C_12
    3  A    between atoms: C_8  and  C_24
    4  A    between atoms: N_9  and  C_24
    5  A    between atoms: C_10  and  C_21
    6  A    between atoms: C_10  and  N_23
    7  A    between atoms: C_11  and  C_25
    8  A    between atoms: C_11  and  N_38
    9  A    between atoms: C_12  and  C_22
   10  A    between atoms: N_13  and  P_39
   11  A    between atoms: N_13  and  C_42
   12  A    between atoms: C_21  and  C_33
   13  A    between atoms: C_22  and  C_36
   14  A    between atoms: C_33  and  C_42
   15  A    between atoms: C_36  and  N_40
                            x       y       z     vdW  Elec       q    Type
                         _______ _______ _______ _____ _____    ______ ____

>  <TORSDO>
F 15

$$$$
=
 OpenBabel10222417293D

 44 48  0  0  1  0  0  0  0  0999 V2000
  184.3610  179.1700  142.0940 N   0  0  0  0  0  0  0  0  0  0  0  0
  184.4520  178.6830  140.0180 C   0  0  0  0  0  0  0  0  0  0  0  0
  185.2000  178.8170  141.1300 N   0  0  0  0  0  0  0  0  0  0  0  0
  182.0050  178.9230  139.5100 N   0  0  0  0  0  2  0  0  0  0  0  0
  183.1070  179.2600  141.6790 N   0  0  0  0  0  0  0  0  0  0  0  0
  183.1470  178.9590  140.3700 C   0  0  0  0  0  0  0  0  0  0  0  0
  184.9800  178.2930  138.7010 C   0  0  0  0  0  0  0  0  0  0  0  0
  184.1290  177.5680  137.7970 N   0  0  0  0  0  2  0  0  0  0  0  0
  186.2050  178.6200  138.4020 N   0  0  0  0  0  0  0  0  0  0  0  0
  184.5060  177.1700  136.5600 O   0  0  0  0  0  1  0  0  0  0  0  0
  186.8870  178.3120  137.1540 C   0  0  0  0  0  2  0  0  0  0  0  0
  190.2650  176.6790  136.7380 C   0  0  0  0  0  0  0  0  0  0  0  0
  192.3270  176.1920  138.0500 S   0  0  0  0  0  0  0  0  0  0  0  0
  190.0970  177.5060  139.0180 C   0  0  0  0  0  3  0  0  0  0  0  0
  188.2600  177.8150  137.4400 C   0  0  0  0  0  0  0  0  0  0  0  0
  192.3360  175.6570  136.4420 C   0  0  0  0  0  3  0  0  0  0  0  0
  190.7960  176.8600  138.0020 C   0  0  0  0  0  0  0  0  0  0  0  0
  188.9880  177.1510  136.4370 C   0  0  0  0  0  3  0  0  0  0  0  0
  191.1150  176.0080  135.8560 C   0  0  0  0  0  3  0  0  0  0  0  0
  188.8110  177.9860  138.7260 C   0  0  0  0  0  3  0  0  0  0  0  0
  180.6610  179.1920  139.9980 C   0  0  0  0  0  2  0  0  0  0  0  0
  180.2810  180.6300  139.7060 C   0  0  0  0  0  2  0  0  0  0  0  0
  179.4350  180.6840  138.4480 C   0  0  0  0  0  2  0  0  0  0  0  0
  180.8050  180.3910  136.3930 C   0  0  0  0  0  1  0  0  0  0  0  0
  180.1870  181.4030  137.3410 C   0  0  2  0  0  3  0  0  0  0  0  0
  181.2400  182.2230  137.9190 N   0  0  0  0  0  2  0  0  0  0  0  0
  182.3040  184.6580  137.5920 O   0  0  0  0  0  1  0  0  0  0  0  0
  179.7180  184.5830  137.9680 O   0  0  0  0  0  1  0  0  0  0  0  0
  180.8620  183.7710  135.5930 O   0  0  0  0  0  0  0  0  0  0  0  0
  181.0690  183.8450  137.2700 P   0  0  0  0  0  0  0  0  0  0  0  0
  184.7630  179.3600  143.4770 C   0  0  0  0  0  2  0  0  0  0  0  0
  183.7790  178.6610  144.3930 C   0  0  0  0  0  2  0  0  0  0  0  0
  184.3320  178.6270  145.8020 C   0  0  0  0  0  2  0  0  0  0  0  0
  185.8240  178.8730  145.7570 C   0  0  0  0  0  2  0  0  0  0  0  0
  186.5590  177.6310  146.2220 C   0  0  0  0  0  2  0  0  0  0  0  0
  191.6800  176.6650  146.2450 C   0  0  0  0  0  3  0  0  0  0  0  0
  188.9890  177.1690  145.8350 C   0  0  0  0  0  0  0  0  0  0  0  0
  187.8030  177.5080  144.0570 C   0  0  0  0  0  3  0  0  0  0  0  0
  189.1130  177.2950  143.6130 C   0  0  0  0  0  3  0  0  0  0  0  0
  189.8400  177.0830  144.7680 C   0  0  0  0  0  0  0  0  0  0  0  0
  189.4320  177.0100  147.1480 C   0  0  0  0  0  3  0  0  0  0  0  0
  191.2000  176.8320  144.9320 C   0  0  0  0  0  3  0  0  0  0  0  0
  187.7450  177.4210  145.4050 N   0  0  0  0  0  0  0  0  0  0  0  0
  190.8010  176.7550  147.3450 C   0  0  0  0  0  3  0  0  0  0  0  0
  1 31  1  0  0  0  0
  2  6  1  0  0  0  0
  2  3  2  0  0  0  0
  3  1  1  0  0  0  0
  4 21  1  0  0  0  0
  4  6  1  0  0  0  0
  5  1  1  0  0  0  0
  6  5  2  0  0  0  0
  7  2  1  0  0  0  0
  8  7  1  0  0  0  0
  9  7  2  0  0  0  0
 10  8  1  0  0  0  0
 11 15  1  0  0  0  0
 11  9  1  0  0  0  0
 12 17  1  0  0  0  0
 15 20  2  0  0  0  0
 16 13  1  0  0  0  0
 17 13  1  0  0  0  0
 17 14  2  0  0  0  0
 18 12  2  0  0  0  0
 18 15  1  0  0  0  0
 19 16  2  0  0  0  0
 19 12  1  0  0  0  0
 20 14  1  0  0  0  0
 22 21  1  0  0  0  0
 23 22  1  0  0  0  0
 25 24  1  6  0  0  0
 25 26  1  0  0  0  0
 25 23  1  0  0  0  0
 29 30  2  0  0  0  0
 30 27  1  0  0  0  0
 30 26  1  0  0  0  0
 30 28  1  0  0  0  0
 31 32  1  0  0  0  0
 32 33  1  0  0  0  0
 34 33  1  0  0  0  0
 34 35  1  0  0  0  0
 36 44  1  0  0  0  0
 37 41  1  0  0  0  0
 38 43  1  0  0  0  0
 39 38  2  0  0  0  0
 39 40  1  0  0  0  0
 40 42  1  0  0  0  0
 40 37  2  0  0  0  0
 41 44  2  0  0  0  0
 42 36  2  0  0  0  0
 43 37  1  0  0  0  0
 43 35  1  0  0  0  0
M  END
>  <MODEL>
9

>  <REMARK>
 VINA RESULT:      -8.1      5.216      9.299
  Name = 
  15 active torsions:
  status: ('A' for Active; 'I' for Inactive)
    1  A    between atoms: C_3  and  C_16
    2  A    between atoms: C_8  and  C_12
    3  A    between atoms: C_8  and  C_24
    4  A    between atoms: N_9  and  C_24
    5  A    between atoms: C_10  and  C_21
    6  A    between atoms: C_10  and  N_23
    7  A    between atoms: C_11  and  C_25
    8  A    between atoms: C_11  and  N_38
    9  A    between atoms: C_12  and  C_22
   10  A    between atoms: N_13  and  P_39
   11  A    between atoms: N_13  and  C_42
   12  A    between atoms: C_21  and  C_33
   13  A    between atoms: C_22  and  C_36
   14  A    between atoms: C_33  and  C_42
   15  A    between atoms: C_36  and  N_40
                            x       y       z     vdW  Elec       q    Type
                         _______ _______ _______ _____ _____    ______ ____

>  <TORSDO>
F 15

$$$$
