=
 OpenBabel10222417143D

 51 53  0  0  1  0  0  0  0  0999 V2000
  186.7940  177.5350  143.7420 C   0  0  0  0  0  2  0  0  0  0  0  0
  187.7780  176.7550  142.8910 C   0  0  2  0  0  3  0  0  0  0  0  0
  189.9530  176.9750  141.5580 C   0  0  2  0  0  3  0  0  0  0  0  0
  189.9700  176.0100  142.7330 C   0  0  2  0  0  3  0  0  0  0  0  0
  188.9440  176.3990  143.6810 N   0  0  0  0  0  2  0  0  0  0  0  0
  188.3210  177.7690  141.4940 S   0  0  0  0  0  0  0  0  0  0  0  0
  190.1530  176.8410  139.0370 C   0  0  0  0  0  0  0  0  0  0  0  0
  190.1920  176.2340  140.3290 N   0  0  0  0  0  2  0  0  0  0  0  0
  189.8810  178.0670  138.9140 O   0  0  0  0  0  0  0  0  0  0  0  0
  190.4750  176.0100  137.8370 C   0  0  2  0  0  3  0  0  0  0  0  0
  193.6410  174.5270  136.2620 C   0  0  1  0  0  3  0  0  0  0  0  0
  192.8960  176.3750  137.5850 N   0  0  0  0  0  2  0  0  0  0  0  0
  194.6080  173.4440  136.2750 N   0  0  0  0  0  1  0  0  0  0  0  0
  192.0390  173.9380  136.8510 S   0  0  0  0  0  0  0  0  0  0  0  0
  191.8760  175.3960  137.9450 C   0  0  2  0  0  3  0  0  0  0  0  0
  194.0770  175.6160  137.2080 C   0  0  0  0  0  2  0  0  0  0  0  0
  190.3150  176.8490  136.5750 C   0  0  0  0  0  2  0  0  0  0  0  0
  189.4550  176.1570  135.6290 N   0  0  0  0  0  1  0  0  0  0  0  0
  191.3280  176.0290  143.4120 C   0  0  0  0  0  2  0  0  0  0  0  0
  191.4700  177.2690  144.2780 C   0  0  0  0  0  2  0  0  0  0  0  0
  191.4330  176.7310  147.9080 O   0  0  0  0  0  0  0  0  0  0  0  0
  191.8630  176.8940  145.6290 N   0  0  0  0  0  2  0  0  0  0  0  0
  191.0160  177.0680  146.7690 C   0  0  0  0  0  0  0  0  0  0  0  0
  189.6250  177.6010  146.6270 C   0  0  0  0  0  2  0  0  0  0  0  0
  188.7000  176.9910  147.6680 C   0  0  0  0  0  2  0  0  0  0  0  0
  188.1970  178.0570  148.6240 C   0  0  0  0  0  1  0  0  0  0  0  0
  186.1620  178.6450  142.9110 C   0  0  0  0  0  2  0  0  0  0  0  0
  183.8190  179.0230  143.7470 C   0  0  0  0  0  2  0  0  0  0  0  0
  184.2850  178.8870  141.2960 C   0  0  0  0  0  2  0  0  0  0  0  0
  184.6840  178.3600  142.6760 C   0  0  1  0  0  3  0  0  0  0  0  0
  182.3530  178.6570  143.5350 C   0  0  0  0  0  2  0  0  0  0  0  0
  181.9390  179.0070  142.1370 C   0  0  0  0  0  0  0  0  0  0  0  0
  180.8750  179.5660  141.9370 O   0  0  0  0  0  0  0  0  0  0  0  0
  182.8130  178.6090  140.9780 C   0  0  2  0  0  3  0  0  0  0  0  0
  182.6170  177.1420  140.6240 C   0  0  0  0  0  2  0  0  0  0  0  0
  181.2480  176.9300  139.9990 C   0  0  0  0  0  2  0  0  0  0  0  0
  181.3950  176.4310  138.5720 C   0  0  0  0  0  2  0  0  0  0  0  0
  182.2890  175.2840  138.5370 N   0  0  0  0  0  2  0  0  0  0  0  0
  183.0390  175.3610  137.2940 C   0  0  2  0  0  3  0  0  0  0  0  0
  183.0860  173.9810  136.6300 C   0  0  2  0  0  3  0  0  0  0  0  0
  183.7180  174.0530  135.3840 O   0  0  0  0  0  1  0  0  0  0  0  0
  181.3890  172.3550  137.0190 O   0  0  0  0  0  1  0  0  0  0  0  0
  180.7740  174.1060  135.6800 O   0  0  0  0  0  0  0  0  0  0  0  0
  181.7100  173.4290  136.4520 C   0  0  0  0  0  0  0  0  0  0  0  0
  184.4470  175.8510  137.6090 C   0  0  0  0  0  2  0  0  0  0  0  0
  184.7200  177.2460  137.0490 C   0  0  1  0  0  3  0  0  0  0  0  0
  184.1070  178.2230  137.8130 F   0  0  0  0  0  0  0  0  0  0  0  0
  186.9450  176.5320  137.4550 F   0  0  0  0  0  0  0  0  0  0  0  0
  186.5280  178.7450  137.4960 F   0  0  0  0  0  0  0  0  0  0  0  0
  186.2070  177.5470  136.8750 C   0  0  0  0  0  0  0  0  0  0  0  0
  186.5300  177.6230  135.5340 F   0  0  0  0  0  0  0  0  0  0  0  0
  2  5  1  0  0  0  0
  2  1  1  1  0  0  0
  3  8  1  6  0  0  0
  3  4  1  0  0  0  0
  4 19  1  1  0  0  0
  4  5  1  0  0  0  0
  6  3  1  0  0  0  0
  6  2  1  0  0  0  0
  7  8  1  0  0  0  0
  9  7  2  0  0  0  0
 10 17  1  6  0  0  0
 10  7  1  0  0  0  0
 11 13  1  1  0  0  0
 11 14  1  0  0  0  0
 11 16  1  0  0  0  0
 12 15  1  0  0  0  0
 14 15  1  0  0  0  0
 15 10  1  6  0  0  0
 16 12  1  0  0  0  0
 18 17  1  0  0  0  0
 19 20  1  0  0  0  0
 20 22  1  0  0  0  0
 22 23  1  0  0  0  0
 23 21  2  0  0  0  0
 24 23  1  0  0  0  0
 24 25  1  0  0  0  0
 25 26  1  0  0  0  0
 27  1  1  0  0  0  0
 29 30  1  0  0  0  0
 30 27  1  1  0  0  0
 30 28  1  0  0  0  0
 31 28  1  0  0  0  0
 32 31  1  0  0  0  0
 33 32  2  0  0  0  0
 34 35  1  1  0  0  0
 34 29  1  0  0  0  0
 34 32  1  0  0  0  0
 36 35  1  0  0  0  0
 37 36  1  0  0  0  0
 38 37  1  0  0  0  0
 39 45  1  1  0  0  0
 39 38  1  0  0  0  0
 40 41  1  6  0  0  0
 40 39  1  0  0  0  0
 43 44  2  0  0  0  0
 44 40  1  0  0  0  0
 44 42  1  0  0  0  0
 46 45  1  0  0  0  0
 46 47  1  1  0  0  0
 50 46  1  0  0  0  0
 50 48  1  0  0  0  0
 50 49  1  0  0  0  0
 51 50  1  0  0  0  0
M  END
>  <MODEL>
1

>  <REMARK>
 VINA RESULT:      -6.9      0.000      0.000
  Name = 
  22 active torsions:
  status: ('A' for Active; 'I' for Inactive)
    1  A    between atoms: C_7  and  C_36
    2  A    between atoms: C_7  and  N_37
    3  A    between atoms: C_9  and  C_43
    4  A    between atoms: N_10  and  C_34
    5  A    between atoms: C_11  and  C_46
    6  A    between atoms: C_11  and  C_47
    7  A    between atoms: C_12  and  C_43
    8  A    between atoms: C_13  and  C_14
    9  A    between atoms: C_13  and  C_22
   10  A    between atoms: C_17  and  C_28
   11  A    between atoms: C_17  and  N_32
   12  A    between atoms: C_20  and  C_43
   13  A    between atoms: C_21  and  C_36
   14  A    between atoms: C_21  and  C_51
   15  A    between atoms: C_22  and  C_46
   16  A    between atoms: C_24  and  C_29
   17  A    between atoms: C_25  and  C_48
   18  A    between atoms: C_26  and  C_27
   19  A    between atoms: C_26  and  C_35
   20  A    between atoms: C_28  and  C_39
   21  A    between atoms: C_29  and  C_48
   22  A    between atoms: N_37  and  C_46
                            x       y       z     vdW  Elec       q    Type
                         _______ _______ _______ _____ _____    ______ ____

>  <TORSDO>
F 22

$$$$
=
 OpenBabel10222417143D

 51 53  0  0  1  0  0  0  0  0999 V2000
  187.3440  178.6480  141.0690 C   0  0  0  0  0  2  0  0  0  0  0  0
  188.4470  177.6660  140.7240 C   0  0  2  0  0  3  0  0  0  0  0  0
  190.8670  177.5130  139.9020 C   0  0  2  0  0  3  0  0  0  0  0  0
  190.5790  176.9390  141.2810 C   0  0  2  0  0  3  0  0  0  0  0  0
  189.3940  177.5770  141.8220 N   0  0  0  0  0  2  0  0  0  0  0  0
  189.3310  178.2280  139.2490 S   0  0  0  0  0  0  0  0  0  0  0  0
  192.6830  176.3300  138.5940 C   0  0  0  0  0  0  0  0  0  0  0  0
  191.3270  176.4440  139.0290 N   0  0  0  0  0  2  0  0  0  0  0  0
  193.5420  177.1840  138.9440 O   0  0  0  0  0  0  0  0  0  0  0  0
  193.0740  175.1610  137.7470 C   0  0  2  0  0  3  0  0  0  0  0  0
  196.2090  173.1790  136.7760 C   0  0  1  0  0  3  0  0  0  0  0  0
  195.2870  175.3840  136.6930 N   0  0  0  0  0  2  0  0  0  0  0  0
  197.3820  172.4610  137.2440 N   0  0  0  0  0  1  0  0  0  0  0  0
  194.8860  173.0730  138.0010 S   0  0  0  0  0  0  0  0  0  0  0  0
  194.5750  174.8700  137.8580 C   0  0  2  0  0  3  0  0  0  0  0  0
  196.5340  174.6420  136.6150 C   0  0  0  0  0  2  0  0  0  0  0  0
  192.6450  175.4060  136.3060 C   0  0  0  0  0  2  0  0  0  0  0  0
  191.8050  174.3130  135.8480 N   0  0  0  0  0  1  0  0  0  0  0  0
  191.7570  177.1780  142.2090 C   0  0  0  0  0  2  0  0  0  0  0  0
  191.3150  177.9580  143.4360 C   0  0  0  0  0  2  0  0  0  0  0  0
  191.0150  176.5240  146.8000 O   0  0  0  0  0  0  0  0  0  0  0  0
  191.5710  177.1820  144.6410 N   0  0  0  0  0  2  0  0  0  0  0  0
  190.7180  177.2130  145.7890 C   0  0  0  0  0  0  0  0  0  0  0  0
  189.4550  178.0140  145.7950 C   0  0  0  0  0  2  0  0  0  0  0  0
  188.2530  177.1380  145.4750 C   0  0  0  0  0  2  0  0  0  0  0  0
  187.0020  177.6900  146.1330 C   0  0  0  0  0  1  0  0  0  0  0  0
  186.7740  178.3200  142.4440 C   0  0  0  0  0  2  0  0  0  0  0  0
  184.5500  178.7690  143.5320 C   0  0  0  0  0  2  0  0  0  0  0  0
  184.7510  178.6870  141.0430 C   0  0  0  0  0  2  0  0  0  0  0  0
  185.2690  178.1030  142.3590 C   0  0  1  0  0  3  0  0  0  0  0  0
  183.0550  178.4700  143.4670 C   0  0  0  0  0  2  0  0  0  0  0  0
  182.5140  178.8780  142.1300 C   0  0  0  0  0  0  0  0  0  0  0  0
  181.4600  179.4860  142.0570 O   0  0  0  0  0  0  0  0  0  0  0  0
  183.2430  178.4800  140.8750 C   0  0  2  0  0  3  0  0  0  0  0  0
  182.9470  177.0330  140.5060 C   0  0  0  0  0  2  0  0  0  0  0  0
  181.9180  176.9760  139.3900 C   0  0  0  0  0  2  0  0  0  0  0  0
  182.3930  176.0480  138.2860 C   0  0  0  0  0  2  0  0  0  0  0  0
  183.7460  176.4040  137.8870 N   0  0  0  0  0  2  0  0  0  0  0  0
  184.1840  175.4120  136.9180 C   0  0  2  0  0  3  0  0  0  0  0  0
  183.7810  174.0110  137.3910 C   0  0  2  0  0  3  0  0  0  0  0  0
  184.8800  173.3370  137.9340 O   0  0  0  0  0  1  0  0  0  0  0  0
  183.9940  172.7300  135.3940 O   0  0  0  0  0  0  0  0  0  0  0  0
  181.8560  172.9700  136.1760 O   0  0  0  0  0  1  0  0  0  0  0  0
  183.2220  173.2090  136.2620 C   0  0  0  0  0  0  0  0  0  0  0  0
  185.6970  175.5120  136.7730 C   0  0  0  0  0  2  0  0  0  0  0  0
  186.1150  176.4180  135.6160 C   0  0  1  0  0  3  0  0  0  0  0  0
  185.0190  176.8430  134.8880 F   0  0  0  0  0  0  0  0  0  0  0  0
  186.8680  178.6100  135.1110 F   0  0  0  0  0  0  0  0  0  0  0  0
  188.2960  177.2260  136.1680 F   0  0  0  0  0  0  0  0  0  0  0  0
  186.9680  177.6060  136.0560 C   0  0  0  0  0  0  0  0  0  0  0  0
  186.5250  178.0930  137.2720 F   0  0  0  0  0  0  0  0  0  0  0  0
  1 27  1  0  0  0  0
  2  1  1  1  0  0  0
  2  5  1  0  0  0  0
  3  8  1  6  0  0  0
  3  4  1  0  0  0  0
  4  5  1  0  0  0  0
  4 19  1  1  0  0  0
  6  3  1  0  0  0  0
  6  2  1  0  0  0  0
  7  9  2  0  0  0  0
  7  8  1  0  0  0  0
 10 17  1  6  0  0  0
 10  7  1  0  0  0  0
 11 13  1  1  0  0  0
 11 14  1  0  0  0  0
 12 15  1  0  0  0  0
 15 10  1  6  0  0  0
 15 14  1  0  0  0  0
 16 12  1  0  0  0  0
 16 11  1  0  0  0  0
 18 17  1  0  0  0  0
 19 20  1  0  0  0  0
 20 22  1  0  0  0  0
 22 23  1  0  0  0  0
 23 24  1  0  0  0  0
 23 21  2  0  0  0  0
 25 24  1  0  0  0  0
 25 26  1  0  0  0  0
 29 30  1  0  0  0  0
 30 27  1  1  0  0  0
 30 28  1  0  0  0  0
 31 28  1  0  0  0  0
 32 31  1  0  0  0  0
 33 32  2  0  0  0  0
 34 35  1  1  0  0  0
 34 29  1  0  0  0  0
 34 32  1  0  0  0  0
 36 35  1  0  0  0  0
 37 36  1  0  0  0  0
 38 37  1  0  0  0  0
 39 45  1  1  0  0  0
 39 40  1  0  0  0  0
 39 38  1  0  0  0  0
 40 41  1  6  0  0  0
 42 44  2  0  0  0  0
 43 44  1  0  0  0  0
 44 40  1  0  0  0  0
 46 47  1  1  0  0  0
 46 50  1  0  0  0  0
 46 45  1  0  0  0  0
 48 50  1  0  0  0  0
 50 49  1  0  0  0  0
 50 51  1  0  0  0  0
M  END
>  <MODEL>
2

>  <REMARK>
 VINA RESULT:      -6.8      1.717      2.117
  Name = 
  22 active torsions:
  status: ('A' for Active; 'I' for Inactive)
    1  A    between atoms: C_7  and  C_36
    2  A    between atoms: C_7  and  N_37
    3  A    between atoms: C_9  and  C_43
    4  A    between atoms: N_10  and  C_34
    5  A    between atoms: C_11  and  C_46
    6  A    between atoms: C_11  and  C_47
    7  A    between atoms: C_12  and  C_43
    8  A    between atoms: C_13  and  C_14
    9  A    between atoms: C_13  and  C_22
   10  A    between atoms: C_17  and  C_28
   11  A    between atoms: C_17  and  N_32
   12  A    between atoms: C_20  and  C_43
   13  A    between atoms: C_21  and  C_36
   14  A    between atoms: C_21  and  C_51
   15  A    between atoms: C_22  and  C_46
   16  A    between atoms: C_24  and  C_29
   17  A    between atoms: C_25  and  C_48
   18  A    between atoms: C_26  and  C_27
   19  A    between atoms: C_26  and  C_35
   20  A    between atoms: C_28  and  C_39
   21  A    between atoms: C_29  and  C_48
   22  A    between atoms: N_37  and  C_46
                            x       y       z     vdW  Elec       q    Type
                         _______ _______ _______ _____ _____    ______ ____

>  <TORSDO>
F 22

$$$$
=
 OpenBabel10222417143D

 51 53  0  0  1  0  0  0  0  0999 V2000
  188.2790  178.3300  141.1080 C   0  0  0  0  0  2  0  0  0  0  0  0
  188.7540  177.4390  139.9760 C   0  0  2  0  0  3  0  0  0  0  0  0
  190.0490  177.4500  137.7680 C   0  0  2  0  0  3  0  0  0  0  0  0
  190.6210  176.5920  138.8870 C   0  0  2  0  0  3  0  0  0  0  0  0
  190.1560  177.1070  140.1620 N   0  0  0  0  0  2  0  0  0  0  0  0
  188.5740  178.3020  138.3970 S   0  0  0  0  0  0  0  0  0  0  0  0
  189.2670  175.2400  136.8140 C   0  0  0  0  0  0  0  0  0  0  0  0
  189.6890  176.5940  136.6490 N   0  0  0  0  0  2  0  0  0  0  0  0
  189.2120  174.7210  137.9630 O   0  0  0  0  0  0  0  0  0  0  0  0
  188.8570  174.4580  135.6070 C   0  0  2  0  0  3  0  0  0  0  0  0
  185.6660  173.3590  137.4260 C   0  0  1  0  0  3  0  0  0  0  0  0
  186.6140  175.2250  136.2700 N   0  0  0  0  0  2  0  0  0  0  0  0
  184.5000  172.4930  137.4120 N   0  0  0  0  0  1  0  0  0  0  0  0
  187.0260  172.5840  136.5270 S   0  0  0  0  0  0  0  0  0  0  0  0
  187.3560  174.1440  135.6300 C   0  0  2  0  0  3  0  0  0  0  0  0
  185.3550  174.6500  136.7140 C   0  0  0  0  0  2  0  0  0  0  0  0
  189.7020  173.1940  135.5030 C   0  0  0  0  0  2  0  0  0  0  0  0
  191.0810  173.5470  135.2090 N   0  0  0  0  0  1  0  0  0  0  0  0
  192.1380  176.6160  138.8490 C   0  0  0  0  0  2  0  0  0  0  0  0
  192.6470  175.9530  137.5800 C   0  0  0  0  0  2  0  0  0  0  0  0
  194.6940  172.9090  137.5940 O   0  0  0  0  0  0  0  0  0  0  0  0
  193.1450  174.6180  137.8780 N   0  0  0  0  0  2  0  0  0  0  0  0
  194.3360  174.0780  137.2970 C   0  0  0  0  0  0  0  0  0  0  0  0
  195.1880  174.8930  136.3770 C   0  0  0  0  0  2  0  0  0  0  0  0
  196.4550  174.1410  135.9980 C   0  0  0  0  0  2  0  0  0  0  0  0
  197.6280  175.0970  135.8860 C   0  0  0  0  0  1  0  0  0  0  0  0
  187.9470  177.4810  142.3290 C   0  0  0  0  0  2  0  0  0  0  0  0
  185.7630  178.7200  142.4790 C   0  0  0  0  0  2  0  0  0  0  0  0
  186.5370  177.2820  144.3690 C   0  0  0  0  0  2  0  0  0  0  0  0
  186.9850  178.2220  143.2480 C   0  0  1  0  0  3  0  0  0  0  0  0
  184.8550  179.5260  143.4030 C   0  0  0  0  0  2  0  0  0  0  0  0
  184.5050  178.7080  144.6100 C   0  0  0  0  0  0  0  0  0  0  0  0
  183.3560  178.6810  145.0180 O   0  0  0  0  0  0  0  0  0  0  0  0
  185.5860  177.9700  145.3520 C   0  0  2  0  0  3  0  0  0  0  0  0
  186.3610  178.9090  146.2660 C   0  0  0  0  0  2  0  0  0  0  0  0
  186.9480  178.1370  147.4360 C   0  0  0  0  0  2  0  0  0  0  0  0
  188.4560  178.0330  147.2900 C   0  0  0  0  0  2  0  0  0  0  0  0
  188.8680  176.6400  147.3750 N   0  0  0  0  0  2  0  0  0  0  0  0
  190.1650  176.5350  146.7250 C   0  0  2  0  0  3  0  0  0  0  0  0
  191.2670  176.4210  147.7830 C   0  0  2  0  0  3  0  0  0  0  0  0
  191.7700  177.6840  148.1120 O   0  0  0  0  0  1  0  0  0  0  0  0
  193.4250  175.4340  147.9900 O   0  0  0  0  0  1  0  0  0  0  0  0
  192.2750  174.8760  146.0920 O   0  0  0  0  0  0  0  0  0  0  0  0
  192.3850  175.5590  147.2970 C   0  0  0  0  0  0  0  0  0  0  0  0
  190.3770  177.7730  145.8640 C   0  0  0  0  0  2  0  0  0  0  0  0
  191.1370  177.4650  144.5740 C   0  0  1  0  0  3  0  0  0  0  0  0
  190.5000  176.4840  143.8370 F   0  0  0  0  0  0  0  0  0  0  0  0
  190.2160  179.3940  143.5470 F   0  0  0  0  0  0  0  0  0  0  0  0
  191.8850  178.3290  142.4750 F   0  0  0  0  0  0  0  0  0  0  0  0
  191.4000  178.7020  143.7180 C   0  0  0  0  0  0  0  0  0  0  0  0
  192.3160  179.5320  144.3390 F   0  0  0  0  0  0  0  0  0  0  0  0
  1 27  1  0  0  0  0
  2  5  1  0  0  0  0
  2  1  1  1  0  0  0
  3  8  1  6  0  0  0
  3  6  1  0  0  0  0
  3  4  1  0  0  0  0
  4 19  1  1  0  0  0
  4  5  1  0  0  0  0
  6  2  1  0  0  0  0
  7  9  2  0  0  0  0
  8  7  1  0  0  0  0
 10 17  1  1  0  0  0
 10  7  1  0  0  0  0
 11 13  1  6  0  0  0
 12 16  1  0  0  0  0
 14 11  1  0  0  0  0
 15 10  1  1  0  0  0
 15 12  1  0  0  0  0
 15 14  1  0  0  0  0
 16 11  1  0  0  0  0
 18 17  1  0  0  0  0
 20 22  1  0  0  0  0
 20 19  1  0  0  0  0
 23 21  2  0  0  0  0
 23 22  1  0  0  0  0
 24 23  1  0  0  0  0
 25 24  1  0  0  0  0
 26 25  1  0  0  0  0
 28 30  1  0  0  0  0
 28 31  1  0  0  0  0
 29 34  1  0  0  0  0
 30 27  1  6  0  0  0
 30 29  1  0  0  0  0
 31 32  1  0  0  0  0
 32 33  2  0  0  0  0
 32 34  1  0  0  0  0
 34 35  1  6  0  0  0
 35 36  1  0  0  0  0
 37 38  1  0  0  0  0
 37 36  1  0  0  0  0
 39 45  1  1  0  0  0
 39 38  1  0  0  0  0
 39 40  1  0  0  0  0
 40 41  1  6  0  0  0
 43 44  2  0  0  0  0
 44 40  1  0  0  0  0
 44 42  1  0  0  0  0
 46 47  1  6  0  0  0
 46 45  1  0  0  0  0
 48 50  1  0  0  0  0
 49 50  1  0  0  0  0
 50 51  1  0  0  0  0
 50 46  1  0  0  0  0
M  END
>  <MODEL>
3

>  <REMARK>
 VINA RESULT:      -6.6      3.782      8.717
  Name = 
  22 active torsions:
  status: ('A' for Active; 'I' for Inactive)
    1  A    between atoms: C_7  and  C_36
    2  A    between atoms: C_7  and  N_37
    3  A    between atoms: C_9  and  C_43
    4  A    between atoms: N_10  and  C_34
    5  A    between atoms: C_11  and  C_46
    6  A    between atoms: C_11  and  C_47
    7  A    between atoms: C_12  and  C_43
    8  A    between atoms: C_13  and  C_14
    9  A    between atoms: C_13  and  C_22
   10  A    between atoms: C_17  and  C_28
   11  A    between atoms: C_17  and  N_32
   12  A    between atoms: C_20  and  C_43
   13  A    between atoms: C_21  and  C_36
   14  A    between atoms: C_21  and  C_51
   15  A    between atoms: C_22  and  C_46
   16  A    between atoms: C_24  and  C_29
   17  A    between atoms: C_25  and  C_48
   18  A    between atoms: C_26  and  C_27
   19  A    between atoms: C_26  and  C_35
   20  A    between atoms: C_28  and  C_39
   21  A    between atoms: C_29  and  C_48
   22  A    between atoms: N_37  and  C_46
                            x       y       z     vdW  Elec       q    Type
                         _______ _______ _______ _____ _____    ______ ____

>  <TORSDO>
F 22

$$$$
=
 OpenBabel10222417143D

 51 53  0  0  1  0  0  0  0  0999 V2000
  184.9750  179.0560  143.2540 C   0  0  0  0  0  2  0  0  0  0  0  0
  184.1140  178.5310  142.1210 C   0  0  2  0  0  3  0  0  0  0  0  0
  182.0460  179.0610  140.7080 C   0  0  2  0  0  3  0  0  0  0  0  0
  183.3660  178.9420  139.9620 C   0  0  2  0  0  3  0  0  0  0  0  0
  184.4560  179.2100  140.8830 N   0  0  0  0  0  2  0  0  0  0  0  0
  182.3680  178.8410  142.4810 S   0  0  0  0  0  0  0  0  0  0  0  0
  181.5790  176.7220  139.8580 C   0  0  0  0  0  0  0  0  0  0  0  0
  181.1380  178.0270  140.2360 N   0  0  0  0  0  2  0  0  0  0  0  0
  182.8040  176.4230  139.9010 O   0  0  0  0  0  0  0  0  0  0  0  0
  180.5620  175.7070  139.4460 C   0  0  2  0  0  3  0  0  0  0  0  0
  179.9450  173.6100  136.2960 C   0  0  1  0  0  3  0  0  0  0  0  0
  179.1600  175.5640  137.4280 N   0  0  0  0  0  2  0  0  0  0  0  0
  180.4580  173.1780  135.0080 N   0  0  0  0  0  1  0  0  0  0  0  0
  181.3110  173.9580  137.4240 S   0  0  0  0  0  0  0  0  0  0  0  0
  180.5320  175.5360  137.9230 C   0  0  2  0  0  3  0  0  0  0  0  0
  179.1750  174.8950  136.1380 C   0  0  0  0  0  2  0  0  0  0  0  0
  179.1970  176.0930  140.0040 C   0  0  0  0  0  2  0  0  0  0  0  0
  178.9310  175.3410  141.2190 N   0  0  0  0  0  1  0  0  0  0  0  0
  183.4150  179.9310  138.8110 C   0  0  0  0  0  2  0  0  0  0  0  0
  182.1070  180.6980  138.7160 C   0  0  0  0  0  2  0  0  0  0  0  0
  180.1070  180.8940  135.6460 O   0  0  0  0  0  0  0  0  0  0  0  0
  181.4040  180.3370  137.4930 N   0  0  0  0  0  2  0  0  0  0  0  0
  180.7040  181.2860  136.6830 C   0  0  0  0  0  0  0  0  0  0  0  0
  180.7050  182.7430  137.0200 C   0  0  0  0  0  2  0  0  0  0  0  0
  180.9600  183.5890  135.7810 C   0  0  0  0  0  2  0  0  0  0  0  0
  180.8320  185.0650  136.1090 C   0  0  0  0  0  1  0  0  0  0  0  0
  185.4750  177.8930  144.1030 C   0  0  0  0  0  2  0  0  0  0  0  0
  187.3790  177.8790  145.7470 C   0  0  0  0  0  2  0  0  0  0  0  0
  187.6350  176.8180  143.4990 C   0  0  0  0  0  2  0  0  0  0  0  0
  186.9860  177.9680  144.2730 C   0  0  1  0  0  3  0  0  0  0  0  0
  188.8890  178.0360  145.8960 C   0  0  0  0  0  2  0  0  0  0  0  0
  189.5920  177.0310  145.0330 C   0  0  0  0  0  0  0  0  0  0  0  0
  190.5390  176.4030  145.4730 O   0  0  0  0  0  0  0  0  0  0  0  0
  189.1630  176.8460  143.6020 C   0  0  2  0  0  3  0  0  0  0  0  0
  189.7320  177.9440  142.7140 C   0  0  0  0  0  2  0  0  0  0  0  0
  190.9780  177.4490  141.9990 C   0  0  0  0  0  2  0  0  0  0  0  0
  190.5960  176.7180  140.7250 C   0  0  0  0  0  2  0  0  0  0  0  0
  190.9550  177.5210  139.5660 N   0  0  0  0  0  2  0  0  0  0  0  0
  190.2090  176.9970  138.4320 C   0  0  2  0  0  3  0  0  0  0  0  0
  191.1590  176.7570  137.2540 C   0  0  2  0  0  3  0  0  0  0  0  0
  190.5020  176.0830  136.2190 O   0  0  0  0  0  1  0  0  0  0  0  0
  193.4700  176.5160  137.7760 O   0  0  0  0  0  0  0  0  0  0  0  0
  192.2170  174.6140  137.9950 O   0  0  0  0  0  1  0  0  0  0  0  0
  192.3470  175.9610  137.6820 C   0  0  0  0  0  0  0  0  0  0  0  0
  189.1320  178.0060  138.0540 C   0  0  0  0  0  2  0  0  0  0  0  0
  187.7480  177.6010  138.5600 C   0  0  1  0  0  3  0  0  0  0  0  0
  187.4000  178.3110  139.6940 F   0  0  0  0  0  0  0  0  0  0  0  0
  186.5770  179.0240  137.0670 F   0  0  0  0  0  0  0  0  0  0  0  0
  185.4340  177.3340  138.0220 F   0  0  0  0  0  0  0  0  0  0  0  0
  186.6600  177.7120  137.4940 C   0  0  0  0  0  0  0  0  0  0  0  0
  186.9610  176.9080  136.4110 F   0  0  0  0  0  0  0  0  0  0  0  0
  1 27  1  0  0  0  0
  2  6  1  0  0  0  0
  2  1  1  1  0  0  0
  3  8  1  6  0  0  0
  3  6  1  0  0  0  0
  4 19  1  6  0  0  0
  4  3  1  0  0  0  0
  4  5  1  0  0  0  0
  5  2  1  0  0  0  0
  7  9  2  0  0  0  0
  7  8  1  0  0  0  0
 10  7  1  0  0  0  0
 10 17  1  6  0  0  0
 11 13  1  6  0  0  0
 11 14  1  0  0  0  0
 12 15  1  0  0  0  0
 14 15  1  0  0  0  0
 15 10  1  1  0  0  0
 16 11  1  0  0  0  0
 16 12  1  0  0  0  0
 17 18  1  0  0  0  0
 20 19  1  0  0  0  0
 21 23  2  0  0  0  0
 22 20  1  0  0  0  0
 23 24  1  0  0  0  0
 23 22  1  0  0  0  0
 25 26  1  0  0  0  0
 25 24  1  0  0  0  0
 28 31  1  0  0  0  0
 29 34  1  0  0  0  0
 29 30  1  0  0  0  0
 30 27  1  1  0  0  0
 30 28  1  0  0  0  0
 32 33  2  0  0  0  0
 32 31  1  0  0  0  0
 34 35  1  6  0  0  0
 34 32  1  0  0  0  0
 36 35  1  0  0  0  0
 37 36  1  0  0  0  0
 38 37  1  0  0  0  0
 39 45  1  6  0  0  0
 39 38  1  0  0  0  0
 40 41  1  6  0  0  0
 40 44  1  0  0  0  0
 40 39  1  0  0  0  0
 44 42  2  0  0  0  0
 44 43  1  0  0  0  0
 45 46  1  0  0  0  0
 46 47  1  1  0  0  0
 48 50  1  0  0  0  0
 50 49  1  0  0  0  0
 50 46  1  0  0  0  0
 51 50  1  0  0  0  0
M  END
>  <MODEL>
4

>  <REMARK>
 VINA RESULT:      -6.4      3.483      9.733
  Name = 
  22 active torsions:
  status: ('A' for Active; 'I' for Inactive)
    1  A    between atoms: C_7  and  C_36
    2  A    between atoms: C_7  and  N_37
    3  A    between atoms: C_9  and  C_43
    4  A    between atoms: N_10  and  C_34
    5  A    between atoms: C_11  and  C_46
    6  A    between atoms: C_11  and  C_47
    7  A    between atoms: C_12  and  C_43
    8  A    between atoms: C_13  and  C_14
    9  A    between atoms: C_13  and  C_22
   10  A    between atoms: C_17  and  C_28
   11  A    between atoms: C_17  and  N_32
   12  A    between atoms: C_20  and  C_43
   13  A    between atoms: C_21  and  C_36
   14  A    between atoms: C_21  and  C_51
   15  A    between atoms: C_22  and  C_46
   16  A    between atoms: C_24  and  C_29
   17  A    between atoms: C_25  and  C_48
   18  A    between atoms: C_26  and  C_27
   19  A    between atoms: C_26  and  C_35
   20  A    between atoms: C_28  and  C_39
   21  A    between atoms: C_29  and  C_48
   22  A    between atoms: N_37  and  C_46
                            x       y       z     vdW  Elec       q    Type
                         _______ _______ _______ _____ _____    ______ ____

>  <TORSDO>
F 22

$$$$
=
 OpenBabel10222417143D

 51 53  0  0  1  0  0  0  0  0999 V2000
  181.6880  178.9720  140.6000 C   0  0  0  0  0  2  0  0  0  0  0  0
  182.9220  178.4020  141.2730 C   0  0  2  0  0  3  0  0  0  0  0  0
  185.2860  178.9970  142.0540 C   0  0  2  0  0  3  0  0  0  0  0  0
  184.3070  178.5510  143.1300 C   0  0  2  0  0  3  0  0  0  0  0  0
  182.9530  178.8000  142.6700 N   0  0  0  0  0  2  0  0  0  0  0  0
  184.4110  179.0340  140.4640 S   0  0  0  0  0  0  0  0  0  0  0  0
  187.6400  178.3590  141.3770 C   0  0  0  0  0  0  0  0  0  0  0  0
  186.3890  178.0510  141.9930 N   0  0  0  0  0  2  0  0  0  0  0  0
  187.8280  179.4830  140.8340 O   0  0  0  0  0  0  0  0  0  0  0  0
  188.7360  177.3430  141.4190 C   0  0  2  0  0  3  0  0  0  0  0  0
  191.5900  176.3140  143.7640 C   0  0  1  0  0  3  0  0  0  0  0  0
  190.4880  178.2480  142.8930 N   0  0  0  0  0  2  0  0  0  0  0  0
  191.9580  175.6940  145.0240 N   0  0  0  0  0  1  0  0  0  0  0  0
  190.0390  175.6140  143.1580 S   0  0  0  0  0  0  0  0  0  0  0  0
  189.3930  177.2890  142.8040 C   0  0  2  0  0  3  0  0  0  0  0  0
  191.3510  177.7870  143.9670 C   0  0  0  0  0  2  0  0  0  0  0  0
  189.7490  177.6360  140.3190 C   0  0  0  0  0  2  0  0  0  0  0  0
  190.3580  176.3970  139.8670 N   0  0  0  0  0  1  0  0  0  0  0  0
  184.5560  179.3110  144.4200 C   0  0  0  0  0  2  0  0  0  0  0  0
  184.7230  178.3440  145.5800 C   0  0  0  0  0  2  0  0  0  0  0  0
  186.9760  179.3140  148.3090 O   0  0  0  0  0  0  0  0  0  0  0  0
  185.2950  179.0340  146.7280 N   0  0  0  0  0  2  0  0  0  0  0  0
  186.5540  178.6790  147.3070 C   0  0  0  0  0  0  0  0  0  0  0  0
  187.4010  177.5950  146.7190 C   0  0  0  0  0  2  0  0  0  0  0  0
  188.3080  176.9800  147.7730 C   0  0  0  0  0  2  0  0  0  0  0  0
  189.7650  177.1280  147.3730 C   0  0  0  0  0  1  0  0  0  0  0  0
  180.5530  177.9570  140.6600 C   0  0  0  0  0  2  0  0  0  0  0  0
  179.7470  175.7210  139.8350 C   0  0  0  0  0  2  0  0  0  0  0  0
  180.8360  177.3340  138.2680 C   0  0  0  0  0  2  0  0  0  0  0  0
  180.8180  176.8030  139.7030 C   0  0  1  0  0  3  0  0  0  0  0  0
  180.0780  174.5430  138.9250 C   0  0  0  0  0  2  0  0  0  0  0  0
  180.2650  175.0240  137.5180 C   0  0  0  0  0  0  0  0  0  0  0  0
  179.7630  174.4130  136.5900 O   0  0  0  0  0  0  0  0  0  0  0  0
  181.1260  176.2290  137.2490 C   0  0  2  0  0  3  0  0  0  0  0  0
  182.6030  175.8620  137.2750 C   0  0  0  0  0  2  0  0  0  0  0  0
  183.3540  176.6280  136.1970 C   0  0  0  0  0  2  0  0  0  0  0  0
  184.2020  175.6760  135.3730 C   0  0  0  0  0  2  0  0  0  0  0  0
  185.2860  175.1470  136.1860 N   0  0  0  0  0  2  0  0  0  0  0  0
  186.3770  174.8130  135.2840 C   0  0  2  0  0  3  0  0  0  0  0  0
  186.6710  173.3110  135.3580 C   0  0  2  0  0  3  0  0  0  0  0  0
  185.5660  172.5690  134.9280 O   0  0  0  0  0  1  0  0  0  0  0  0
  186.1140  172.7620  137.6090 O   0  0  0  0  0  1  0  0  0  0  0  0
  188.3450  172.6670  137.1040 O   0  0  0  0  0  0  0  0  0  0  0  0
  187.0220  172.9060  136.7520 C   0  0  0  0  0  0  0  0  0  0  0  0
  187.6040  175.6190  135.6900 C   0  0  0  0  0  2  0  0  0  0  0  0
  187.3760  176.4300  136.9650 C   0  0  1  0  0  3  0  0  0  0  0  0
  187.9230  175.8000  138.0670 F   0  0  0  0  0  0  0  0  0  0  0  0
  187.4080  178.5890  137.9470 F   0  0  0  0  0  0  0  0  0  0  0  0
  187.3990  178.4570  135.6980 F   0  0  0  0  0  0  0  0  0  0  0  0
  187.8740  177.8710  136.8610 C   0  0  0  0  0  0  0  0  0  0  0  0
  189.2550  177.9050  136.8630 F   0  0  0  0  0  0  0  0  0  0  0  0
  1 27  1  0  0  0  0
  2  1  1  6  0  0  0
  2  5  1  0  0  0  0
  3  8  1  6  0  0  0
  3  4  1  0  0  0  0
  4 19  1  1  0  0  0
  5  4  1  0  0  0  0
  6  2  1  0  0  0  0
  6  3  1  0  0  0  0
  7 10  1  0  0  0  0
  7  8  1  0  0  0  0
  9  7  2  0  0  0  0
 10 17  1  6  0  0  0
 11 16  1  0  0  0  0
 11 13  1  1  0  0  0
 12 16  1  0  0  0  0
 14 11  1  0  0  0  0
 15 10  1  6  0  0  0
 15 12  1  0  0  0  0
 15 14  1  0  0  0  0
 18 17  1  0  0  0  0
 19 20  1  0  0  0  0
 20 22  1  0  0  0  0
 22 23  1  0  0  0  0
 23 21  2  0  0  0  0
 24 23  1  0  0  0  0
 24 25  1  0  0  0  0
 26 25  1  0  0  0  0
 29 30  1  0  0  0  0
 30 28  1  0  0  0  0
 30 27  1  1  0  0  0
 31 28  1  0  0  0  0
 32 31  1  0  0  0  0
 33 32  2  0  0  0  0
 34 35  1  1  0  0  0
 34 32  1  0  0  0  0
 34 29  1  0  0  0  0
 36 35  1  0  0  0  0
 37 38  1  0  0  0  0
 37 36  1  0  0  0  0
 39 40  1  0  0  0  0
 39 45  1  1  0  0  0
 39 38  1  0  0  0  0
 40 41  1  1  0  0  0
 40 44  1  0  0  0  0
 44 43  2  0  0  0  0
 44 42  1  0  0  0  0
 45 46  1  0  0  0  0
 46 47  1  1  0  0  0
 49 50  1  0  0  0  0
 50 51  1  0  0  0  0
 50 46  1  0  0  0  0
 50 48  1  0  0  0  0
M  END
>  <MODEL>
5

>  <REMARK>
 VINA RESULT:      -6.1      2.882      5.237
  Name = 
  22 active torsions:
  status: ('A' for Active; 'I' for Inactive)
    1  A    between atoms: C_7  and  C_36
    2  A    between atoms: C_7  and  N_37
    3  A    between atoms: C_9  and  C_43
    4  A    between atoms: N_10  and  C_34
    5  A    between atoms: C_11  and  C_46
    6  A    between atoms: C_11  and  C_47
    7  A    between atoms: C_12  and  C_43
    8  A    between atoms: C_13  and  C_14
    9  A    between atoms: C_13  and  C_22
   10  A    between atoms: C_17  and  C_28
   11  A    between atoms: C_17  and  N_32
   12  A    between atoms: C_20  and  C_43
   13  A    between atoms: C_21  and  C_36
   14  A    between atoms: C_21  and  C_51
   15  A    between atoms: C_22  and  C_46
   16  A    between atoms: C_24  and  C_29
   17  A    between atoms: C_25  and  C_48
   18  A    between atoms: C_26  and  C_27
   19  A    between atoms: C_26  and  C_35
   20  A    between atoms: C_28  and  C_39
   21  A    between atoms: C_29  and  C_48
   22  A    between atoms: N_37  and  C_46
                            x       y       z     vdW  Elec       q    Type
                         _______ _______ _______ _____ _____    ______ ____

>  <TORSDO>
F 22

$$$$
=
 OpenBabel10222417143D

 51 53  0  0  1  0  0  0  0  0999 V2000
  186.0450  178.8870  140.9580 C   0  0  0  0  0  2  0  0  0  0  0  0
  186.4050  178.1890  139.6610 C   0  0  2  0  0  3  0  0  0  0  0  0
  186.5890  178.5400  137.1320 C   0  0  2  0  0  3  0  0  0  0  0  0
  187.8720  178.1740  137.8620 C   0  0  2  0  0  3  0  0  0  0  0  0
  187.7500  178.5600  139.2560 N   0  0  0  0  0  2  0  0  0  0  0  0
  185.2560  178.6860  138.3560 S   0  0  0  0  0  0  0  0  0  0  0  0
  186.0980  176.1250  136.5510 C   0  0  0  0  0  0  0  0  0  0  0  0
  186.2710  177.4920  136.1740 N   0  0  0  0  0  2  0  0  0  0  0  0
  186.2400  175.7690  137.7530 O   0  0  0  0  0  0  0  0  0  0  0  0
  185.7100  175.1310  135.5040 C   0  0  2  0  0  3  0  0  0  0  0  0
  182.4620  174.5700  137.4620 C   0  0  1  0  0  3  0  0  0  0  0  0
  183.4360  176.0150  135.8240 N   0  0  0  0  0  2  0  0  0  0  0  0
  181.3060  173.7160  137.6720 N   0  0  0  0  0  1  0  0  0  0  0  0
  183.8640  173.5870  136.8880 S   0  0  0  0  0  0  0  0  0  0  0  0
  184.2130  174.8070  135.5700 C   0  0  2  0  0  3  0  0  0  0  0  0
  182.1660  175.5760  136.3800 C   0  0  0  0  0  2  0  0  0  0  0  0
  186.5700  173.8810  135.6410 C   0  0  0  0  0  2  0  0  0  0  0  0
  187.8170  174.0570  134.9150 N   0  0  0  0  0  1  0  0  0  0  0  0
  189.0580  178.8850  137.2370 C   0  0  0  0  0  2  0  0  0  0  0  0
  189.9170  177.9020  136.4600 C   0  0  0  0  0  2  0  0  0  0  0  0
  190.5140  174.6070  137.9600 O   0  0  0  0  0  0  0  0  0  0  0  0
  189.7160  176.5520  136.9690 N   0  0  0  0  0  2  0  0  0  0  0  0
  190.7630  175.7720  137.5550 C   0  0  0  0  0  0  0  0  0  0  0  0
  192.1380  176.3320  137.7370 C   0  0  0  0  0  2  0  0  0  0  0  0
  193.1660  175.5090  136.9770 C   0  0  0  0  0  2  0  0  0  0  0  0
  193.9630  176.3910  136.0340 C   0  0  0  0  0  1  0  0  0  0  0  0
  185.4820  177.8750  141.9490 C   0  0  0  0  0  2  0  0  0  0  0  0
  184.2900  178.8640  143.9310 C   0  0  0  0  0  2  0  0  0  0  0  0
  186.1780  177.2610  144.2570 C   0  0  0  0  0  2  0  0  0  0  0  0
  185.6300  178.3860  143.3760 C   0  0  1  0  0  3  0  0  0  0  0  0
  184.4790  179.4430  145.3300 C   0  0  0  0  0  2  0  0  0  0  0  0
  185.1600  178.4370  146.2080 C   0  0  0  0  0  0  0  0  0  0  0  0
  184.7580  178.2440  147.3420 O   0  0  0  0  0  0  0  0  0  0  0  0
  186.3800  177.7120  145.7070 C   0  0  2  0  0  3  0  0  0  0  0  0
  187.6210  178.5870  145.8180 C   0  0  0  0  0  2  0  0  0  0  0  0
  188.8740  177.7470  145.6320 C   0  0  0  0  0  2  0  0  0  0  0  0
  189.8950  178.5060  144.8030 C   0  0  0  0  0  2  0  0  0  0  0  0
  191.2340  178.0240  145.1010 N   0  0  0  0  0  2  0  0  0  0  0  0
  191.2480  176.5960  144.8260 C   0  0  2  0  0  3  0  0  0  0  0  0
  192.2310  175.8950  145.7690 C   0  0  2  0  0  3  0  0  0  0  0  0
  192.4170  174.5620  145.3880 O   0  0  0  0  0  1  0  0  0  0  0  0
  191.3270  174.8880  147.7300 O   0  0  0  0  0  0  0  0  0  0  0  0
  191.7540  177.1310  147.8930 O   0  0  0  0  0  1  0  0  0  0  0  0
  191.7400  175.9390  147.1790 C   0  0  0  0  0  0  0  0  0  0  0  0
  191.6590  176.3870  143.3740 C   0  0  0  0  0  2  0  0  0  0  0  0
  190.4870  175.9630  142.4890 C   0  0  1  0  0  3  0  0  0  0  0  0
  189.3770  175.6390  143.2470 F   0  0  0  0  0  0  0  0  0  0  0  0
  189.2590  177.9220  141.9600 F   0  0  0  0  0  0  0  0  0  0  0  0
  189.5210  176.3770  140.3420 F   0  0  0  0  0  0  0  0  0  0  0  0
  190.1330  176.9960  141.4210 C   0  0  0  0  0  0  0  0  0  0  0  0
  191.2700  177.6540  140.9900 F   0  0  0  0  0  0  0  0  0  0  0  0
  1 27  1  0  0  0  0
  2  1  1  1  0  0  0
  3  8  1  6  0  0  0
  3  4  1  0  0  0  0
  3  6  1  0  0  0  0
  4 19  1  6  0  0  0
  4  5  1  0  0  0  0
  5  2  1  0  0  0  0
  6  2  1  0  0  0  0
  7  9  2  0  0  0  0
  8  7  1  0  0  0  0
 10 17  1  1  0  0  0
 10  7  1  0  0  0  0
 11 13  1  6  0  0  0
 12 16  1  0  0  0  0
 14 11  1  0  0  0  0
 15 10  1  1  0  0  0
 15 12  1  0  0  0  0
 15 14  1  0  0  0  0
 16 11  1  0  0  0  0
 18 17  1  0  0  0  0
 20 22  1  0  0  0  0
 20 19  1  0  0  0  0
 22 23  1  0  0  0  0
 23 24  1  0  0  0  0
 23 21  2  0  0  0  0
 25 24  1  0  0  0  0
 26 25  1  0  0  0  0
 28 31  1  0  0  0  0
 29 34  1  0  0  0  0
 30 27  1  6  0  0  0
 30 28  1  0  0  0  0
 30 29  1  0  0  0  0
 31 32  1  0  0  0  0
 32 33  2  0  0  0  0
 34 35  1  6  0  0  0
 34 32  1  0  0  0  0
 36 35  1  0  0  0  0
 37 38  1  0  0  0  0
 37 36  1  0  0  0  0
 39 45  1  6  0  0  0
 39 38  1  0  0  0  0
 39 40  1  0  0  0  0
 40 41  1  6  0  0  0
 40 44  1  0  0  0  0
 44 42  2  0  0  0  0
 44 43  1  0  0  0  0
 46 47  1  1  0  0  0
 46 45  1  0  0  0  0
 49 50  1  0  0  0  0
 50 48  1  0  0  0  0
 50 46  1  0  0  0  0
 51 50  1  0  0  0  0
M  END
>  <MODEL>
6

>  <REMARK>
 VINA RESULT:      -6.0      3.197      8.658
  Name = 
  22 active torsions:
  status: ('A' for Active; 'I' for Inactive)
    1  A    between atoms: C_7  and  C_36
    2  A    between atoms: C_7  and  N_37
    3  A    between atoms: C_9  and  C_43
    4  A    between atoms: N_10  and  C_34
    5  A    between atoms: C_11  and  C_46
    6  A    between atoms: C_11  and  C_47
    7  A    between atoms: C_12  and  C_43
    8  A    between atoms: C_13  and  C_14
    9  A    between atoms: C_13  and  C_22
   10  A    between atoms: C_17  and  C_28
   11  A    between atoms: C_17  and  N_32
   12  A    between atoms: C_20  and  C_43
   13  A    between atoms: C_21  and  C_36
   14  A    between atoms: C_21  and  C_51
   15  A    between atoms: C_22  and  C_46
   16  A    between atoms: C_24  and  C_29
   17  A    between atoms: C_25  and  C_48
   18  A    between atoms: C_26  and  C_27
   19  A    between atoms: C_26  and  C_35
   20  A    between atoms: C_28  and  C_39
   21  A    between atoms: C_29  and  C_48
   22  A    between atoms: N_37  and  C_46
                            x       y       z     vdW  Elec       q    Type
                         _______ _______ _______ _____ _____    ______ ____

>  <TORSDO>
F 22

$$$$
=
 OpenBabel10222417143D

 51 53  0  0  1  0  0  0  0  0999 V2000
  188.9000  177.7220  142.7410 C   0  0  0  0  0  2  0  0  0  0  0  0
  189.1660  177.0580  141.4040 C   0  0  2  0  0  3  0  0  0  0  0  0
  189.7110  177.5450  138.9510 C   0  0  2  0  0  3  0  0  0  0  0  0
  190.7390  176.7370  139.7280 C   0  0  2  0  0  3  0  0  0  0  0  0
  190.5940  177.0240  141.1430 N   0  0  0  0  0  2  0  0  0  0  0  0
  188.3640  177.9960  140.0810 S   0  0  0  0  0  0  0  0  0  0  0  0
  188.9340  177.2580  136.5580 C   0  0  0  0  0  0  0  0  0  0  0  0
  189.1930  176.7330  137.8610 N   0  0  0  0  0  2  0  0  0  0  0  0
  189.1300  178.4800  136.3100 O   0  0  0  0  0  0  0  0  0  0  0  0
  188.4610  176.3300  135.4850 C   0  0  2  0  0  3  0  0  0  0  0  0
  185.2610  174.2990  134.9120 C   0  0  1  0  0  3  0  0  0  0  0  0
  187.5430  174.0480  135.5790 N   0  0  0  0  0  2  0  0  0  0  0  0
  183.9120  174.0090  135.3660 N   0  0  0  0  0  1  0  0  0  0  0  0
  185.7090  175.9950  135.3390 S   0  0  0  0  0  0  0  0  0  0  0  0
  187.3250  175.4320  135.9870 C   0  0  2  0  0  3  0  0  0  0  0  0
  186.2430  173.4000  135.6170 C   0  0  0  0  0  2  0  0  0  0  0  0
  189.6380  175.5200  134.9550 C   0  0  0  0  0  2  0  0  0  0  0  0
  190.8320  176.3470  134.9230 N   0  0  0  0  0  1  0  0  0  0  0  0
  192.1440  177.0930  139.2760 C   0  0  0  0  0  2  0  0  0  0  0  0
  192.6620  176.0580  138.2910 C   0  0  0  0  0  2  0  0  0  0  0  0
  195.1420  176.5880  135.6410 O   0  0  0  0  0  0  0  0  0  0  0  0
  193.5200  176.6940  137.3020 N   0  0  0  0  0  2  0  0  0  0  0  0
  194.4210  175.9650  136.4630 C   0  0  0  0  0  0  0  0  0  0  0  0
  194.4910  174.4720  136.5120 C   0  0  0  0  0  2  0  0  0  0  0  0
  193.7980  173.8550  135.3070 C   0  0  0  0  0  2  0  0  0  0  0  0
  192.5010  173.1860  135.7230 C   0  0  0  0  0  1  0  0  0  0  0  0
  188.5630  176.6630  143.7850 C   0  0  0  0  0  2  0  0  0  0  0  0
  187.8470  177.2790  146.1170 C   0  0  0  0  0  2  0  0  0  0  0  0
  186.8880  178.4680  144.1390 C   0  0  0  0  0  2  0  0  0  0  0  0
  187.4070  177.1260  144.6610 C   0  0  1  0  0  3  0  0  0  0  0  0
  186.6540  177.6660  146.9850 C   0  0  0  0  0  2  0  0  0  0  0  0
  186.0000  178.8950  146.4310 C   0  0  0  0  0  0  0  0  0  0  0  0
  185.6640  179.7990  147.1770 O   0  0  0  0  0  0  0  0  0  0  0  0
  185.7010  178.9830  144.9590 C   0  0  2  0  0  3  0  0  0  0  0  0
  184.4410  178.2050  144.6080 C   0  0  0  0  0  2  0  0  0  0  0  0
  183.6800  178.9100  143.4970 C   0  0  0  0  0  2  0  0  0  0  0  0
  183.8520  178.1610  142.1880 C   0  0  0  0  0  2  0  0  0  0  0  0
  183.6890  179.0750  141.0680 N   0  0  0  0  0  2  0  0  0  0  0  0
  182.5860  178.5760  140.2620 C   0  0  2  0  0  3  0  0  0  0  0  0
  181.2690  178.7390  141.0280 C   0  0  2  0  0  3  0  0  0  0  0  0
  180.4910  177.5810  140.9260 O   0  0  0  0  0  1  0  0  0  0  0  0
  180.3240  180.0370  139.2690 O   0  0  0  0  0  0  0  0  0  0  0  0
  179.9310  180.8240  141.3810 O   0  0  0  0  0  1  0  0  0  0  0  0
  180.4900  179.9020  140.5070 C   0  0  0  0  0  0  0  0  0  0  0  0
  182.8420  177.1090  139.9460 C   0  0  0  0  0  2  0  0  0  0  0  0
  183.2950  176.8910  138.5030 C   0  0  1  0  0  3  0  0  0  0  0  0
  183.6780  175.5800  138.2880 F   0  0  0  0  0  0  0  0  0  0  0  0
  182.4060  178.6830  137.2280 F   0  0  0  0  0  0  0  0  0  0  0  0
  180.9790  177.0990  137.9520 F   0  0  0  0  0  0  0  0  0  0  0  0
  182.2580  177.3300  137.4710 C   0  0  0  0  0  0  0  0  0  0  0  0
  182.4350  176.6420  136.2860 F   0  0  0  0  0  0  0  0  0  0  0  0
  1 27  1  0  0  0  0
  2  1  1  1  0  0  0
  3  8  1  6  0  0  0
  3  4  1  0  0  0  0
  3  6  1  0  0  0  0
  4 19  1  6  0  0  0
  4  5  1  0  0  0  0
  5  2  1  0  0  0  0
  6  2  1  0  0  0  0
  7  8  1  0  0  0  0
  9  7  2  0  0  0  0
 10 17  1  1  0  0  0
 10  7  1  0  0  0  0
 11 14  1  0  0  0  0
 11 13  1  1  0  0  0
 11 16  1  0  0  0  0
 12 16  1  0  0  0  0
 12 15  1  0  0  0  0
 14 15  1  0  0  0  0
 15 10  1  6  0  0  0
 18 17  1  0  0  0  0
 20 19  1  0  0  0  0
 21 23  2  0  0  0  0
 22 20  1  0  0  0  0
 23 24  1  0  0  0  0
 23 22  1  0  0  0  0
 25 26  1  0  0  0  0
 25 24  1  0  0  0  0
 28 31  1  0  0  0  0
 29 30  1  0  0  0  0
 29 34  1  0  0  0  0
 30 27  1  6  0  0  0
 30 28  1  0  0  0  0
 32 31  1  0  0  0  0
 32 33  2  0  0  0  0
 34 35  1  1  0  0  0
 34 32  1  0  0  0  0
 36 35  1  0  0  0  0
 37 36  1  0  0  0  0
 38 37  1  0  0  0  0
 39 45  1  1  0  0  0
 39 40  1  0  0  0  0
 39 38  1  0  0  0  0
 40 41  1  6  0  0  0
 42 44  2  0  0  0  0
 44 40  1  0  0  0  0
 44 43  1  0  0  0  0
 46 47  1  1  0  0  0
 46 45  1  0  0  0  0
 48 50  1  0  0  0  0
 50 49  1  0  0  0  0
 50 46  1  0  0  0  0
 51 50  1  0  0  0  0
M  END
>  <MODEL>
7

>  <REMARK>
 VINA RESULT:      -6.0      2.986      6.444
  Name = 
  22 active torsions:
  status: ('A' for Active; 'I' for Inactive)
    1  A    between atoms: C_7  and  C_36
    2  A    between atoms: C_7  and  N_37
    3  A    between atoms: C_9  and  C_43
    4  A    between atoms: N_10  and  C_34
    5  A    between atoms: C_11  and  C_46
    6  A    between atoms: C_11  and  C_47
    7  A    between atoms: C_12  and  C_43
    8  A    between atoms: C_13  and  C_14
    9  A    between atoms: C_13  and  C_22
   10  A    between atoms: C_17  and  C_28
   11  A    between atoms: C_17  and  N_32
   12  A    between atoms: C_20  and  C_43
   13  A    between atoms: C_21  and  C_36
   14  A    between atoms: C_21  and  C_51
   15  A    between atoms: C_22  and  C_46
   16  A    between atoms: C_24  and  C_29
   17  A    between atoms: C_25  and  C_48
   18  A    between atoms: C_26  and  C_27
   19  A    between atoms: C_26  and  C_35
   20  A    between atoms: C_28  and  C_39
   21  A    between atoms: C_29  and  C_48
   22  A    between atoms: N_37  and  C_46
                            x       y       z     vdW  Elec       q    Type
                         _______ _______ _______ _____ _____    ______ ____

>  <TORSDO>
F 22

$$$$
=
 OpenBabel10222417143D

 51 53  0  0  1  0  0  0  0  0999 V2000
  184.1320  179.2560  139.8330 C   0  0  0  0  0  2  0  0  0  0  0  0
  185.2050  179.3130  140.9040 C   0  0  2  0  0  3  0  0  0  0  0  0
  186.4990  177.8780  142.5830 C   0  0  2  0  0  3  0  0  0  0  0  0
  187.3200  178.5730  141.5080 C   0  0  2  0  0  3  0  0  0  0  0  0
  186.4690  178.8450  140.3640 N   0  0  0  0  0  2  0  0  0  0  0  0
  184.7450  178.2500  142.2930 S   0  0  0  0  0  0  0  0  0  0  0  0
  187.6680  177.6040  144.8110 C   0  0  0  0  0  0  0  0  0  0  0  0
  186.9020  178.3790  143.8880 N   0  0  0  0  0  2  0  0  0  0  0  0
  188.0100  176.4230  144.5280 O   0  0  0  0  0  0  0  0  0  0  0  0
  188.0890  178.2280  146.1030 C   0  0  2  0  0  3  0  0  0  0  0  0
  191.2760  176.1250  146.4580 C   0  0  1  0  0  3  0  0  0  0  0  0
  190.2760  177.7910  145.0630 N   0  0  0  0  0  2  0  0  0  0  0  0
  192.4790  175.8700  147.2290 N   0  0  0  0  0  1  0  0  0  0  0  0
  189.9760  176.7750  147.5300 S   0  0  0  0  0  0  0  0  0  0  0  0
  189.6010  178.0940  146.3200 C   0  0  2  0  0  3  0  0  0  0  0  0
  191.5470  177.1810  145.4170 C   0  0  0  0  0  2  0  0  0  0  0  0
  187.2930  177.6170  147.2500 C   0  0  0  0  0  2  0  0  0  0  0  0
  185.9740  178.2260  147.3130 N   0  0  0  0  0  1  0  0  0  0  0  0
  188.4840  177.6960  141.0820 C   0  0  0  0  0  2  0  0  0  0  0  0
  188.9630  178.0880  139.6940 C   0  0  0  0  0  2  0  0  0  0  0  0
  191.5670  175.9910  138.1830 O   0  0  0  0  0  0  0  0  0  0  0  0
  190.2430  177.4560  139.4100 N   0  0  0  0  0  2  0  0  0  0  0  0
  190.4310  176.5050  138.3580 C   0  0  0  0  0  0  0  0  0  0  0  0
  189.3130  176.1420  137.4320 C   0  0  0  0  0  2  0  0  0  0  0  0
  189.5760  176.6690  136.0290 C   0  0  0  0  0  2  0  0  0  0  0  0
  189.2820  175.5980  134.9950 C   0  0  0  0  0  1  0  0  0  0  0  0
  182.9940  178.3510  140.2920 C   0  0  0  0  0  2  0  0  0  0  0  0
  180.8610  179.3530  141.1720 C   0  0  0  0  0  2  0  0  0  0  0  0
  181.8770  180.1950  139.0510 C   0  0  0  0  0  2  0  0  0  0  0  0
  181.6480  178.9590  139.9220 C   0  0  1  0  0  3  0  0  0  0  0  0
  179.4860  179.8840  140.7780 C   0  0  0  0  0  2  0  0  0  0  0  0
  179.6380  181.0050  139.7940 C   0  0  0  0  0  0  0  0  0  0  0  0
  178.9780  182.0220  139.9200 O   0  0  0  0  0  0  0  0  0  0  0  0
  180.5610  180.8450  138.6160 C   0  0  2  0  0  3  0  0  0  0  0  0
  179.9050  180.0240  137.5150 C   0  0  0  0  0  2  0  0  0  0  0  0
  180.7860  180.0070  136.2770 C   0  0  0  0  0  2  0  0  0  0  0  0
  180.8820  178.5970  135.7210 C   0  0  0  0  0  2  0  0  0  0  0  0
  180.7850  177.6300  136.8030 N   0  0  0  0  0  2  0  0  0  0  0  0
  181.7750  176.5960  136.5470 C   0  0  2  0  0  3  0  0  0  0  0  0
  181.4900  175.3750  137.4270 C   0  0  2  0  0  3  0  0  0  0  0  0
  182.3910  175.3150  138.4960 O   0  0  0  0  0  1  0  0  0  0  0  0
  181.8360  174.1660  135.4040 O   0  0  0  0  0  0  0  0  0  0  0  0
  181.4160  172.8800  137.2500 O   0  0  0  0  0  1  0  0  0  0  0  0
  181.5840  174.1130  136.6340 C   0  0  0  0  0  0  0  0  0  0  0  0
  183.1560  177.1630  136.8490 C   0  0  0  0  0  2  0  0  0  0  0  0
  184.1760  176.8310  135.7610 C   0  0  1  0  0  3  0  0  0  0  0  0
  184.0460  177.6760  134.6740 F   0  0  0  0  0  0  0  0  0  0  0  0
  185.6620  177.4040  137.5180 F   0  0  0  0  0  0  0  0  0  0  0  0
  186.4330  177.5320  135.4060 F   0  0  0  0  0  0  0  0  0  0  0  0
  185.6170  176.8160  136.2670 C   0  0  0  0  0  0  0  0  0  0  0  0
  186.0800  175.5180  136.3680 F   0  0  0  0  0  0  0  0  0  0  0  0
  1 27  1  0  0  0  0
  2  1  1  6  0  0  0
  2  6  1  0  0  0  0
  3  8  1  1  0  0  0
  4 19  1  6  0  0  0
  4  3  1  0  0  0  0
  5  2  1  0  0  0  0
  5  4  1  0  0  0  0
  6  3  1  0  0  0  0
  7 10  1  0  0  0  0
  8  7  1  0  0  0  0
  9  7  2  0  0  0  0
 10 17  1  1  0  0  0
 11 13  1  1  0  0  0
 11 14  1  0  0  0  0
 12 16  1  0  0  0  0
 12 15  1  0  0  0  0
 15 10  1  6  0  0  0
 15 14  1  0  0  0  0
 16 11  1  0  0  0  0
 17 18  1  0  0  0  0
 20 19  1  0  0  0  0
 21 23  2  0  0  0  0
 22 20  1  0  0  0  0
 23 22  1  0  0  0  0
 24 23  1  0  0  0  0
 25 24  1  0  0  0  0
 26 25  1  0  0  0  0
 29 30  1  0  0  0  0
 30 27  1  1  0  0  0
 30 28  1  0  0  0  0
 31 28  1  0  0  0  0
 32 33  2  0  0  0  0
 32 31  1  0  0  0  0
 34 35  1  6  0  0  0
 34 29  1  0  0  0  0
 34 32  1  0  0  0  0
 36 35  1  0  0  0  0
 37 36  1  0  0  0  0
 37 38  1  0  0  0  0
 39 38  1  0  0  0  0
 39 45  1  1  0  0  0
 39 40  1  0  0  0  0
 40 41  1  1  0  0  0
 42 44  2  0  0  0  0
 44 43  1  0  0  0  0
 44 40  1  0  0  0  0
 46 47  1  6  0  0  0
 46 50  1  0  0  0  0
 46 45  1  0  0  0  0
 49 50  1  0  0  0  0
 50 51  1  0  0  0  0
 50 48  1  0  0  0  0
M  END
>  <MODEL>
8

>  <REMARK>
 VINA RESULT:      -5.9      2.743      6.403
  Name = 
  22 active torsions:
  status: ('A' for Active; 'I' for Inactive)
    1  A    between atoms: C_7  and  C_36
    2  A    between atoms: C_7  and  N_37
    3  A    between atoms: C_9  and  C_43
    4  A    between atoms: N_10  and  C_34
    5  A    between atoms: C_11  and  C_46
    6  A    between atoms: C_11  and  C_47
    7  A    between atoms: C_12  and  C_43
    8  A    between atoms: C_13  and  C_14
    9  A    between atoms: C_13  and  C_22
   10  A    between atoms: C_17  and  C_28
   11  A    between atoms: C_17  and  N_32
   12  A    between atoms: C_20  and  C_43
   13  A    between atoms: C_21  and  C_36
   14  A    between atoms: C_21  and  C_51
   15  A    between atoms: C_22  and  C_46
   16  A    between atoms: C_24  and  C_29
   17  A    between atoms: C_25  and  C_48
   18  A    between atoms: C_26  and  C_27
   19  A    between atoms: C_26  and  C_35
   20  A    between atoms: C_28  and  C_39
   21  A    between atoms: C_29  and  C_48
   22  A    between atoms: N_37  and  C_46
                            x       y       z     vdW  Elec       q    Type
                         _______ _______ _______ _____ _____    ______ ____

>  <TORSDO>
F 22

$$$$
=
 OpenBabel10222417143D

 51 53  0  0  1  0  0  0  0  0999 V2000
  189.5930  177.9170  140.1270 C   0  0  0  0  0  2  0  0  0  0  0  0
  189.3760  176.9570  138.9730 C   0  0  2  0  0  3  0  0  0  0  0  0
  190.0100  176.5160  136.5330 C   0  0  2  0  0  3  0  0  0  0  0  0
  190.4100  175.4510  137.5420 C   0  0  2  0  0  3  0  0  0  0  0  0
  190.5110  176.0580  138.8560 N   0  0  0  0  0  2  0  0  0  0  0  0
  189.2150  177.8820  137.4270 S   0  0  0  0  0  0  0  0  0  0  0  0
  188.0190  175.0610  135.9610 C   0  0  0  0  0  0  0  0  0  0  0  0
  189.0780  175.9390  135.5770 N   0  0  0  0  0  2  0  0  0  0  0  0
  187.8670  174.7300  137.1690 O   0  0  0  0  0  0  0  0  0  0  0  0
  187.0720  174.5680  134.9130 C   0  0  2  0  0  3  0  0  0  0  0  0
  184.1050  175.4320  137.1820 C   0  0  1  0  0  3  0  0  0  0  0  0
  185.7140  176.4490  135.7350 N   0  0  0  0  0  2  0  0  0  0  0  0
  182.6710  175.3370  137.3890 N   0  0  0  0  0  1  0  0  0  0  0  0
  184.6890  174.0160  136.2250 S   0  0  0  0  0  0  0  0  0  0  0  0
  185.6590  175.1200  135.1360 C   0  0  2  0  0  3  0  0  0  0  0  0
  184.4260  176.6630  136.3750 C   0  0  0  0  0  2  0  0  0  0  0  0
  187.0910  173.0450  134.8820 C   0  0  0  0  0  2  0  0  0  0  0  0
  188.4380  172.5740  134.6050 N   0  0  0  0  0  1  0  0  0  0  0  0
  191.7450  174.8350  137.1610 C   0  0  0  0  0  2  0  0  0  0  0  0
  192.7950  175.9170  136.9780 C   0  0  0  0  0  2  0  0  0  0  0  0
  195.8270  174.7920  138.7110 O   0  0  0  0  0  0  0  0  0  0  0  0
  193.8500  175.7640  137.9700 N   0  0  0  0  0  2  0  0  0  0  0  0
  194.9620  174.8800  137.8000 C   0  0  0  0  0  0  0  0  0  0  0  0
  195.1410  174.0920  136.5420 C   0  0  0  0  0  2  0  0  0  0  0  0
  196.6120  173.7930  136.2920 C   0  0  0  0  0  2  0  0  0  0  0  0
  197.2930  174.9810  135.6390 C   0  0  0  0  0  1  0  0  0  0  0  0
  190.8300  177.5050  140.9160 C   0  0  0  0  0  2  0  0  0  0  0  0
  191.6840  176.7210  143.1490 C   0  0  0  0  0  2  0  0  0  0  0  0
  189.7000  178.2330  143.0090 C   0  0  0  0  0  2  0  0  0  0  0  0
  190.4470  177.0840  142.3280 C   0  0  1  0  0  3  0  0  0  0  0  0
  191.2680  176.2280  144.5310 C   0  0  0  0  0  2  0  0  0  0  0  0
  190.3960  177.2520  145.1940 C   0  0  0  0  0  0  0  0  0  0  0  0
  190.5760  177.5440  146.3640 O   0  0  0  0  0  0  0  0  0  0  0  0
  189.2570  177.8700  144.4290 C   0  0  2  0  0  3  0  0  0  0  0  0
  188.0560  176.9370  144.3850 C   0  0  0  0  0  2  0  0  0  0  0  0
  187.1660  177.2820  143.2030 C   0  0  0  0  0  2  0  0  0  0  0  0
  186.0560  178.2220  143.6390 C   0  0  0  0  0  2  0  0  0  0  0  0
  185.6500  179.0620  142.5230 N   0  0  0  0  0  2  0  0  0  0  0  0
  184.5680  178.3730  141.8380 C   0  0  2  0  0  3  0  0  0  0  0  0
  184.8910  178.2540  140.3450 C   0  0  2  0  0  3  0  0  0  0  0  0
  186.2010  178.6710  140.0880 O   0  0  0  0  0  1  0  0  0  0  0  0
  184.2380  180.2610  139.2410 O   0  0  0  0  0  1  0  0  0  0  0  0
  182.7550  178.5260  139.0700 O   0  0  0  0  0  0  0  0  0  0  0  0
  183.9460  179.0730  139.5290 C   0  0  0  0  0  0  0  0  0  0  0  0
  183.2830  179.1630  142.0460 C   0  0  0  0  0  2  0  0  0  0  0  0
  182.4130  178.5850  143.1610 C   0  0  1  0  0  3  0  0  0  0  0  0
  182.8210  179.0380  144.4030 F   0  0  0  0  0  0  0  0  0  0  0  0
  180.2630  178.6640  144.1590 F   0  0  0  0  0  0  0  0  0  0  0  0
  180.4080  177.9360  142.0330 F   0  0  0  0  0  0  0  0  0  0  0  0
  180.9210  178.8350  142.9550 C   0  0  0  0  0  0  0  0  0  0  0  0
  180.7050  180.1260  142.5090 F   0  0  0  0  0  0  0  0  0  0  0  0
  1 27  1  0  0  0  0
  2  1  1  1  0  0  0
  3  8  1  6  0  0  0
  3  6  1  0  0  0  0
  3  4  1  0  0  0  0
  4 19  1  6  0  0  0
  4  5  1  0  0  0  0
  5  2  1  0  0  0  0
  6  2  1  0  0  0  0
  7  9  2  0  0  0  0
  8  7  1  0  0  0  0
 10 17  1  1  0  0  0
 10  7  1  0  0  0  0
 11 13  1  6  0  0  0
 12 16  1  0  0  0  0
 14 11  1  0  0  0  0
 15 10  1  1  0  0  0
 15 12  1  0  0  0  0
 15 14  1  0  0  0  0
 16 11  1  0  0  0  0
 18 17  1  0  0  0  0
 20 19  1  0  0  0  0
 20 22  1  0  0  0  0
 23 22  1  0  0  0  0
 23 21  2  0  0  0  0
 24 23  1  0  0  0  0
 25 24  1  0  0  0  0
 26 25  1  0  0  0  0
 28 31  1  0  0  0  0
 29 34  1  0  0  0  0
 30 27  1  6  0  0  0
 30 29  1  0  0  0  0
 30 28  1  0  0  0  0
 31 32  1  0  0  0  0
 32 33  2  0  0  0  0
 34 35  1  6  0  0  0
 34 32  1  0  0  0  0
 36 37  1  0  0  0  0
 36 35  1  0  0  0  0
 38 37  1  0  0  0  0
 39 45  1  6  0  0  0
 39 38  1  0  0  0  0
 40 41  1  1  0  0  0
 40 39  1  0  0  0  0
 42 44  1  0  0  0  0
 43 44  2  0  0  0  0
 44 40  1  0  0  0  0
 45 46  1  0  0  0  0
 46 47  1  1  0  0  0
 49 50  1  0  0  0  0
 50 46  1  0  0  0  0
 50 48  1  0  0  0  0
 51 50  1  0  0  0  0
M  END
>  <MODEL>
9

>  <REMARK>
 VINA RESULT:      -5.8      3.406      7.818
  Name = 
  22 active torsions:
  status: ('A' for Active; 'I' for Inactive)
    1  A    between atoms: C_7  and  C_36
    2  A    between atoms: C_7  and  N_37
    3  A    between atoms: C_9  and  C_43
    4  A    between atoms: N_10  and  C_34
    5  A    between atoms: C_11  and  C_46
    6  A    between atoms: C_11  and  C_47
    7  A    between atoms: C_12  and  C_43
    8  A    between atoms: C_13  and  C_14
    9  A    between atoms: C_13  and  C_22
   10  A    between atoms: C_17  and  C_28
   11  A    between atoms: C_17  and  N_32
   12  A    between atoms: C_20  and  C_43
   13  A    between atoms: C_21  and  C_36
   14  A    between atoms: C_21  and  C_51
   15  A    between atoms: C_22  and  C_46
   16  A    between atoms: C_24  and  C_29
   17  A    between atoms: C_25  and  C_48
   18  A    between atoms: C_26  and  C_27
   19  A    between atoms: C_26  and  C_35
   20  A    between atoms: C_28  and  C_39
   21  A    between atoms: C_29  and  C_48
   22  A    between atoms: N_37  and  C_46
                            x       y       z     vdW  Elec       q    Type
                         _______ _______ _______ _____ _____    ______ ____

>  <TORSDO>
F 22

$$$$
