=
 OpenBabel10222419563D

 36 39  0  0  1  0  0  0  0  0999 V2000
  188.9900  179.2800  138.2800 N   0  0  0  0  0  2  0  0  0  0  0  0
  189.7990  177.1200  138.6160 C   0  0  0  0  0  0  0  0  0  0  0  0
  189.0240  178.5470  137.0010 C   0  0  1  0  0  3  0  0  0  0  0  0
  190.3420  175.9410  139.3560 C   0  0  0  0  0  1  0  0  0  0  0  0
  189.5610  177.1870  137.3220 C   0  0  0  0  0  0  0  0  0  0  0  0
  189.4790  178.3560  139.2160 N   0  0  0  0  0  0  0  0  0  0  0  0
  189.0010  177.5900  143.3080 N   0  0  0  0  0  0  0  0  0  0  0  0
  190.3710  177.8910  142.8720 C   0  0  0  0  0  2  0  0  0  0  0  0
  187.9830  177.2580  142.3080 C   0  0  0  0  0  2  0  0  0  0  0  0
  190.5160  177.7800  141.3560 C   0  0  0  0  0  2  0  0  0  0  0  0
  189.4180  178.5840  140.6530 C   0  0  2  0  0  3  0  0  0  0  0  0
  188.0010  178.2870  141.1770 C   0  0  0  0  0  2  0  0  0  0  0  0
  189.5310  176.9760  145.6410 C   0  0  0  0  0  3  0  0  0  0  0  0
  187.7470  177.5240  148.8130 O   0  0  0  0  0  1  0  0  0  0  0  0
  188.0260  177.5540  147.4520 C   0  0  0  0  0  0  0  0  0  0  0  0
  188.6720  177.5790  144.7110 C   0  0  0  0  0  0  0  0  0  0  0  0
  187.1450  178.1660  146.5320 C   0  0  0  0  0  0  0  0  0  0  0  0
  187.4850  178.1690  145.1710 C   0  0  0  0  0  3  0  0  0  0  0  0
  189.2090  176.9640  147.0000 C   0  0  0  0  0  3  0  0  0  0  0  0
  185.8800  179.8760  147.6160 O   0  0  0  0  0  0  0  0  0  0  0  0
  184.6270  178.2160  146.6030 N   0  0  0  0  0  1  0  0  0  0  0  0
  185.8770  178.8070  146.9510 C   0  0  0  0  0  0  0  0  0  0  0  0
  191.2280  175.6210  136.3140 C   0  0  0  0  0  2  0  0  0  0  0  0
  189.7960  176.1130  136.2990 C   0  0  1  0  0  3  0  0  0  0  0  0
  191.2080  174.2370  135.7160 C   0  0  2  0  0  3  0  0  0  0  0  0
  190.0330  173.5080  136.3290 C   0  0  0  0  0  2  0  0  0  0  0  0
  192.4950  173.5110  136.0430 C   0  0  0  0  0  1  0  0  0  0  0  0
  188.6720  174.6970  136.5340 S   0  0  0  0  0  0  0  0  0  0  0  0
  187.6160  178.4300  136.4280 C   0  0  0  0  0  2  0  0  0  0  0  0
  184.8030  178.9860  138.9600 N   0  0  0  0  0  2  0  0  0  0  0  0
  185.5190  177.0310  137.8190 N   0  0  0  0  0  2  0  0  0  0  0  0
  186.6430  179.0480  137.3200 N   0  0  0  0  0  2  0  0  0  0  0  0
  185.6740  178.2950  138.0540 C   0  0  0  0  0  0  0  0  0  0  0  0
  183.9420  178.3760  139.8930 N   0  0  0  0  0  2  0  0  0  0  0  0
  184.1870  178.3450  141.2750 C   0  0  0  0  0  0  0  0  0  0  0  0
  184.3990  178.3170  142.4620 C   0  0  0  0  0  3  0  0  0  0  0  0
  1  6  1  0  0  0  0
  2  6  1  0  0  0  0
  2  4  1  0  0  0  0
  3 29  1  1  0  0  0
  3  5  1  0  0  0  0
  3  1  1  0  0  0  0
  5  2  2  0  0  0  0
  7 16  1  0  0  0  0
  8  7  1  0  0  0  0
  9  7  1  0  0  0  0
 10  8  1  0  0  0  0
 11  6  1  6  0  0  0
 11 12  1  0  0  0  0
 11 10  1  0  0  0  0
 12  9  1  0  0  0  0
 13 19  1  0  0  0  0
 15 14  1  0  0  0  0
 16 18  1  0  0  0  0
 16 13  2  0  0  0  0
 17 22  1  0  0  0  0
 17 15  1  0  0  0  0
 18 17  2  0  0  0  0
 19 15  2  0  0  0  0
 21 22  1  0  0  0  0
 22 20  2  0  0  0  0
 24 23  1  0  0  0  0
 24 28  1  0  0  0  0
 24  5  1  1  0  0  0
 25 27  1  1  0  0  0
 25 23  1  0  0  0  0
 25 26  1  0  0  0  0
 26 28  1  0  0  0  0
 29 32  1  0  0  0  0
 30 34  1  0  0  0  0
 31 33  2  0  0  0  0
 32 33  1  0  0  0  0
 33 30  1  0  0  0  0
 34 35  1  0  0  0  0
 35 36  3  0  0  0  0
M  END
>  <MODEL>
1

>  <REMARK>
 VINA RESULT:      -8.2      0.000      0.000
  Name = 
  8 active torsions:
  status: ('A' for Active; 'I' for Inactive)
    1  A    between atoms: N_1  and  C_28
    2  A    between atoms: N_10  and  N_20
    3  A    between atoms: C_12  and  C_17
    4  A    between atoms: C_13  and  C_26
    5  A    between atoms: C_18  and  N_20
    6  A    between atoms: N_19  and  C_26
    7  A    between atoms: C_21  and  N_22
    8  A    between atoms: C_27  and  C_29
                            x       y       z     vdW  Elec       q    Type
                         _______ _______ _______ _____ _____    ______ ____

>  <TORSDO>
F 8

$$$$
=
 OpenBabel10222419563D

 36 39  0  0  1  0  0  0  0  0999 V2000
  189.0590  179.1480  137.8960 N   0  0  0  0  0  2  0  0  0  0  0  0
  189.8670  176.9680  138.0570 C   0  0  0  0  0  0  0  0  0  0  0  0
  188.9200  178.4600  136.6000 C   0  0  1  0  0  3  0  0  0  0  0  0
  190.4780  175.7570  138.6840 C   0  0  0  0  0  1  0  0  0  0  0  0
  189.4700  177.0830  136.8060 C   0  0  0  0  0  0  0  0  0  0  0  0
  189.6450  178.1860  138.7320 N   0  0  0  0  0  0  0  0  0  0  0  0
  189.5100  177.3300  142.8320 N   0  0  0  0  0  0  0  0  0  0  0  0
  190.8530  177.4710  142.2550 C   0  0  0  0  0  2  0  0  0  0  0  0
  188.3560  177.1690  141.9430 C   0  0  0  0  0  2  0  0  0  0  0  0
  190.8190  177.4010  140.7300 C   0  0  0  0  0  2  0  0  0  0  0  0
  189.7670  178.3640  140.1730 C   0  0  2  0  0  3  0  0  0  0  0  0
  188.3880  178.2310  140.8430 C   0  0  0  0  0  2  0  0  0  0  0  0
  188.0860  177.5990  144.8330 C   0  0  0  0  0  3  0  0  0  0  0  0
  188.7780  177.2550  148.4300 O   0  0  0  0  0  1  0  0  0  0  0  0
  188.9900  177.2680  147.0570 C   0  0  0  0  0  0  0  0  0  0  0  0
  189.3330  177.3070  144.2620 C   0  0  0  0  0  0  0  0  0  0  0  0
  190.2560  176.9720  146.5040 C   0  0  0  0  0  0  0  0  0  0  0  0
  190.4070  176.9960  145.1100 C   0  0  0  0  0  3  0  0  0  0  0  0
  187.9170  177.5790  146.2180 C   0  0  0  0  0  3  0  0  0  0  0  0
  191.8580  177.4380  148.2130 O   0  0  0  0  0  0  0  0  0  0  0  0
  192.0970  175.3860  147.1720 N   0  0  0  0  0  1  0  0  0  0  0  0
  191.4310  176.6350  147.3420 C   0  0  0  0  0  0  0  0  0  0  0  0
  190.9630  175.5020  135.5750 C   0  0  0  0  0  2  0  0  0  0  0  0
  189.5570  176.0420  135.7270 C   0  0  1  0  0  3  0  0  0  0  0  0
  190.8300  174.1430  134.9330 C   0  0  2  0  0  3  0  0  0  0  0  0
  189.6970  173.4320  135.6400 C   0  0  0  0  0  2  0  0  0  0  0  0
  192.1160  173.3620  135.0980 C   0  0  0  0  0  1  0  0  0  0  0  0
  188.4110  174.6570  136.0280 S   0  0  0  0  0  0  0  0  0  0  0  0
  187.4500  178.3800  136.2040 C   0  0  0  0  0  2  0  0  0  0  0  0
  184.9430  179.0350  139.0180 N   0  0  0  0  0  2  0  0  0  0  0  0
  185.4170  177.0730  137.7670 N   0  0  0  0  0  2  0  0  0  0  0  0
  186.6110  179.0310  137.2020 N   0  0  0  0  0  2  0  0  0  0  0  0
  185.6740  178.3180  138.0130 C   0  0  0  0  0  0  0  0  0  0  0  0
  184.1420  178.4520  140.0180 N   0  0  0  0  0  2  0  0  0  0  0  0
  184.5140  178.3780  141.3700 C   0  0  0  0  0  0  0  0  0  0  0  0
  184.8340  178.3120  142.5310 C   0  0  0  0  0  3  0  0  0  0  0  0
  1  6  1  0  0  0  0
  2  4  1  0  0  0  0
  2  6  1  0  0  0  0
  3 29  1  1  0  0  0
  3  5  1  0  0  0  0
  3  1  1  0  0  0  0
  5  2  2  0  0  0  0
  7 16  1  0  0  0  0
  8  7  1  0  0  0  0
  9  7  1  0  0  0  0
 10  8  1  0  0  0  0
 11  6  1  6  0  0  0
 11 10  1  0  0  0  0
 11 12  1  0  0  0  0
 12  9  1  0  0  0  0
 13 19  1  0  0  0  0
 15 14  1  0  0  0  0
 16 13  2  0  0  0  0
 16 18  1  0  0  0  0
 17 15  1  0  0  0  0
 17 22  1  0  0  0  0
 18 17  2  0  0  0  0
 19 15  2  0  0  0  0
 21 22  1  0  0  0  0
 22 20  2  0  0  0  0
 23 24  1  0  0  0  0
 24 28  1  0  0  0  0
 24  5  1  1  0  0  0
 25 27  1  1  0  0  0
 25 23  1  0  0  0  0
 25 26  1  0  0  0  0
 26 28  1  0  0  0  0
 29 32  1  0  0  0  0
 30 34  1  0  0  0  0
 31 33  2  0  0  0  0
 32 33  1  0  0  0  0
 33 30  1  0  0  0  0
 34 35  1  0  0  0  0
 35 36  3  0  0  0  0
M  END
>  <MODEL>
2

>  <REMARK>
 VINA RESULT:      -8.1      1.451      2.241
  Name = 
  8 active torsions:
  status: ('A' for Active; 'I' for Inactive)
    1  A    between atoms: N_1  and  C_28
    2  A    between atoms: N_10  and  N_20
    3  A    between atoms: C_12  and  C_17
    4  A    between atoms: C_13  and  C_26
    5  A    between atoms: C_18  and  N_20
    6  A    between atoms: N_19  and  C_26
    7  A    between atoms: C_21  and  N_22
    8  A    between atoms: C_27  and  C_29
                            x       y       z     vdW  Elec       q    Type
                         _______ _______ _______ _____ _____    ______ ____

>  <TORSDO>
F 8

$$$$
=
 OpenBabel10222419563D

 36 39  0  0  1  0  0  0  0  0999 V2000
  191.0020  175.9180  139.5430 N   0  0  0  0  0  2  0  0  0  0  0  0
  189.1340  177.0880  138.7850 C   0  0  0  0  0  0  0  0  0  0  0  0
  190.8700  175.7700  138.0830 C   0  0  1  0  0  3  0  0  0  0  0  0
  187.9090  177.9410  138.8530 C   0  0  0  0  0  1  0  0  0  0  0  0
  189.6470  176.5440  137.7010 C   0  0  0  0  0  0  0  0  0  0  0  0
  189.9120  176.7250  139.9040 N   0  0  0  0  0  0  0  0  0  0  0  0
  189.3140  176.9910  144.0430 N   0  0  0  0  0  0  0  0  0  0  0  0
  190.6740  177.2900  143.5760 C   0  0  0  0  0  2  0  0  0  0  0  0
  188.3710  176.3260  143.1400 C   0  0  0  0  0  2  0  0  0  0  0  0
  190.8940  176.8080  142.1440 C   0  0  0  0  0  2  0  0  0  0  0  0
  189.7690  177.3060  141.2320 C   0  0  2  0  0  3  0  0  0  0  0  0
  188.3580  177.0300  141.7820 C   0  0  0  0  0  2  0  0  0  0  0  0
  189.7660  177.0010  146.4710 C   0  0  0  0  0  3  0  0  0  0  0  0
  187.8220  178.2210  149.3480 O   0  0  0  0  0  1  0  0  0  0  0  0
  188.1590  177.9280  148.0320 C   0  0  0  0  0  0  0  0  0  0  0  0
  188.9240  177.3090  145.3930 C   0  0  0  0  0  0  0  0  0  0  0  0
  187.2940  178.2460  146.9610 C   0  0  0  0  0  0  0  0  0  0  0  0
  187.6930  177.9310  145.6540 C   0  0  0  0  0  3  0  0  0  0  0  0
  189.3860  177.3090  147.7790 C   0  0  0  0  0  3  0  0  0  0  0  0
  185.9050  180.0560  147.6660 O   0  0  0  0  0  0  0  0  0  0  0  0
  184.7800  178.2310  146.7990 N   0  0  0  0  0  1  0  0  0  0  0  0
  185.9820  178.9030  147.1670 C   0  0  0  0  0  0  0  0  0  0  0  0
  187.8760  175.7910  136.1060 C   0  0  0  0  0  2  0  0  0  0  0  0
  189.1150  176.6390  136.2990 C   0  0  1  0  0  3  0  0  0  0  0  0
  187.1360  176.3810  134.9320 C   0  0  2  0  0  3  0  0  0  0  0  0
  187.1400  177.8820  135.1180 C   0  0  0  0  0  2  0  0  0  0  0  0
  185.7120  175.8670  134.9040 C   0  0  0  0  0  1  0  0  0  0  0  0
  188.7420  178.3620  135.8320 S   0  0  0  0  0  0  0  0  0  0  0  0
  192.0950  176.3510  137.3850 C   0  0  0  0  0  2  0  0  0  0  0  0
  195.3680  175.2380  139.0210 N   0  0  0  0  0  2  0  0  0  0  0  0
  193.9560  174.1570  137.4480 N   0  0  0  0  0  2  0  0  0  0  0  0
  193.2670  176.2700  138.2470 N   0  0  0  0  0  2  0  0  0  0  0  0
  194.2080  175.1960  138.1780 C   0  0  0  0  0  0  0  0  0  0  0  0
  196.4750  174.3730  138.9320 N   0  0  0  0  0  2  0  0  0  0  0  0
  197.4140  174.4130  137.8890 C   0  0  0  0  0  0  0  0  0  0  0  0
  198.2190  174.4470  136.9920 C   0  0  0  0  0  3  0  0  0  0  0  0
  1  6  1  0  0  0  0
  2  4  1  0  0  0  0
  2  6  1  0  0  0  0
  3 29  1  6  0  0  0
  3  1  1  0  0  0  0
  5  3  1  0  0  0  0
  5  2  2  0  0  0  0
  7 16  1  0  0  0  0
  8  7  1  0  0  0  0
  9  7  1  0  0  0  0
 10  8  1  0  0  0  0
 11  6  1  6  0  0  0
 11 12  1  0  0  0  0
 11 10  1  0  0  0  0
 12  9  1  0  0  0  0
 13 19  1  0  0  0  0
 15 14  1  0  0  0  0
 16 18  1  0  0  0  0
 16 13  2  0  0  0  0
 17 22  1  0  0  0  0
 17 15  1  0  0  0  0
 18 17  2  0  0  0  0
 19 15  2  0  0  0  0
 21 22  1  0  0  0  0
 22 20  2  0  0  0  0
 23 24  1  0  0  0  0
 24  5  1  1  0  0  0
 25 27  1  1  0  0  0
 25 26  1  0  0  0  0
 25 23  1  0  0  0  0
 26 28  1  0  0  0  0
 28 24  1  0  0  0  0
 29 32  1  0  0  0  0
 31 33  2  0  0  0  0
 33 32  1  0  0  0  0
 33 30  1  0  0  0  0
 34 30  1  0  0  0  0
 35 34  1  0  0  0  0
 36 35  3  0  0  0  0
M  END
>  <MODEL>
3

>  <REMARK>
 VINA RESULT:      -8.1      2.957      5.687
  Name = 
  8 active torsions:
  status: ('A' for Active; 'I' for Inactive)
    1  A    between atoms: N_1  and  C_28
    2  A    between atoms: N_10  and  N_20
    3  A    between atoms: C_12  and  C_17
    4  A    between atoms: C_13  and  C_26
    5  A    between atoms: C_18  and  N_20
    6  A    between atoms: N_19  and  C_26
    7  A    between atoms: C_21  and  N_22
    8  A    between atoms: C_27  and  C_29
                            x       y       z     vdW  Elec       q    Type
                         _______ _______ _______ _____ _____    ______ ____

>  <TORSDO>
F 8

$$$$
=
 OpenBabel10222419563D

 36 39  0  0  1  0  0  0  0  0999 V2000
  188.4340  177.1770  138.7640 N   0  0  0  0  0  2  0  0  0  0  0  0
  190.7090  176.6760  138.7010 C   0  0  0  0  0  0  0  0  0  0  0  0
  188.7820  176.5680  137.4680 C   0  0  1  0  0  3  0  0  0  0  0  0
  192.1230  176.5830  139.1740 C   0  0  0  0  0  1  0  0  0  0  0  0
  190.2530  176.2940  137.5260 C   0  0  0  0  0  0  0  0  0  0  0  0
  189.6510  177.2180  139.4610 N   0  0  0  0  0  0  0  0  0  0  0  0
  188.9250  177.0960  143.5860 N   0  0  0  0  0  0  0  0  0  0  0  0
  190.2530  176.6350  143.1590 C   0  0  0  0  0  2  0  0  0  0  0  0
  187.8610  177.2490  142.5910 C   0  0  0  0  0  2  0  0  0  0  0  0
  190.2950  176.3560  141.6580 C   0  0  0  0  0  2  0  0  0  0  0  0
  189.7380  177.5500  140.8760 C   0  0  2  0  0  3  0  0  0  0  0  0
  188.3740  178.0440  141.3900 C   0  0  0  0  0  2  0  0  0  0  0  0
  189.5880  176.9840  145.9630 C   0  0  0  0  0  3  0  0  0  0  0  0
  187.9220  178.0870  149.0530 O   0  0  0  0  0  1  0  0  0  0  0  0
  188.1390  177.8540  147.7010 C   0  0  0  0  0  0  0  0  0  0  0  0
  188.6600  177.3540  144.9780 C   0  0  0  0  0  0  0  0  0  0  0  0
  187.1890  178.2340  146.7260 C   0  0  0  0  0  0  0  0  0  0  0  0
  187.4670  177.9770  145.3750 C   0  0  0  0  0  3  0  0  0  0  0  0
  189.3280  177.2330  147.3120 C   0  0  0  0  0  3  0  0  0  0  0  0
  185.8970  180.0250  147.6340 O   0  0  0  0  0  0  0  0  0  0  0  0
  184.6700  178.2570  146.7850 N   0  0  0  0  0  1  0  0  0  0  0  0
  185.9110  178.8960  147.0770 C   0  0  0  0  0  0  0  0  0  0  0  0
  192.3280  176.4570  136.1440 C   0  0  0  0  0  2  0  0  0  0  0  0
  191.0420  175.6990  136.3950 C   0  0  1  0  0  3  0  0  0  0  0  0
  193.2590  175.4970  135.4460 C   0  0  2  0  0  3  0  0  0  0  0  0
  193.1570  174.1760  136.1770 C   0  0  0  0  0  2  0  0  0  0  0  0
  194.6800  176.0140  135.5060 C   0  0  0  0  0  1  0  0  0  0  0  0
  191.4280  173.9420  136.6890 S   0  0  0  0  0  0  0  0  0  0  0  0
  188.0150  175.2630  137.2810 C   0  0  0  0  0  2  0  0  0  0  0  0
  184.3060  175.0470  136.3710 N   0  0  0  0  0  2  0  0  0  0  0  0
  185.7140  173.5580  137.5710 N   0  0  0  0  0  2  0  0  0  0  0  0
  186.7060  175.5140  136.6930 N   0  0  0  0  0  2  0  0  0  0  0  0
  185.5710  174.6790  136.9390 C   0  0  0  0  0  0  0  0  0  0  0  0
  183.0680  174.4510  136.6780 N   0  0  0  0  0  2  0  0  0  0  0  0
  182.2060  174.9170  137.6840 C   0  0  0  0  0  0  0  0  0  0  0  0
  181.4680  175.3180  138.5490 C   0  0  0  0  0  3  0  0  0  0  0  0
  1  6  1  0  0  0  0
  2  4  1  0  0  0  0
  2  6  1  0  0  0  0
  3 29  1  1  0  0  0
  3  5  1  0  0  0  0
  3  1  1  0  0  0  0
  5  2  2  0  0  0  0
  7 16  1  0  0  0  0
  8  7  1  0  0  0  0
  9  7  1  0  0  0  0
 10  8  1  0  0  0  0
 11  6  1  6  0  0  0
 11 12  1  0  0  0  0
 11 10  1  0  0  0  0
 12  9  1  0  0  0  0
 13 19  1  0  0  0  0
 15 14  1  0  0  0  0
 16 18  1  0  0  0  0
 16 13  2  0  0  0  0
 17 22  1  0  0  0  0
 17 15  1  0  0  0  0
 18 17  2  0  0  0  0
 19 15  2  0  0  0  0
 21 22  1  0  0  0  0
 22 20  2  0  0  0  0
 23 24  1  0  0  0  0
 24 28  1  0  0  0  0
 24  5  1  1  0  0  0
 25 27  1  1  0  0  0
 25 23  1  0  0  0  0
 25 26  1  0  0  0  0
 26 28  1  0  0  0  0
 30 34  1  0  0  0  0
 30 33  1  0  0  0  0
 32 33  1  0  0  0  0
 32 29  1  0  0  0  0
 33 31  2  0  0  0  0
 34 35  1  0  0  0  0
 35 36  3  0  0  0  0
M  END
>  <MODEL>
4

>  <REMARK>
 VINA RESULT:      -7.5      2.043      2.491
  Name = 
  8 active torsions:
  status: ('A' for Active; 'I' for Inactive)
    1  A    between atoms: N_1  and  C_28
    2  A    between atoms: N_10  and  N_20
    3  A    between atoms: C_12  and  C_17
    4  A    between atoms: C_13  and  C_26
    5  A    between atoms: C_18  and  N_20
    6  A    between atoms: N_19  and  C_26
    7  A    between atoms: C_21  and  N_22
    8  A    between atoms: C_27  and  C_29
                            x       y       z     vdW  Elec       q    Type
                         _______ _______ _______ _____ _____    ______ ____

>  <TORSDO>
F 8

$$$$
=
 OpenBabel10222419563D

 36 39  0  0  1  0  0  0  0  0999 V2000
  187.3990  178.6050  138.4690 N   0  0  0  0  0  2  0  0  0  0  0  0
  189.2380  177.1850  138.2950 C   0  0  0  0  0  0  0  0  0  0  0  0
  187.4210  177.9670  137.1410 C   0  0  1  0  0  3  0  0  0  0  0  0
  190.4870  176.4740  138.7060 C   0  0  0  0  0  1  0  0  0  0  0  0
  188.6340  177.0890  137.1290 C   0  0  0  0  0  0  0  0  0  0  0  0
  188.5330  178.0900  139.1150 N   0  0  0  0  0  0  0  0  0  0  0  0
  188.3660  177.5150  143.2630 N   0  0  0  0  0  0  0  0  0  0  0  0
  189.6490  177.1900  142.6260 C   0  0  0  0  0  2  0  0  0  0  0  0
  187.1730  177.6910  142.4310 C   0  0  0  0  0  2  0  0  0  0  0  0
  189.5090  177.0630  141.1110 C   0  0  0  0  0  2  0  0  0  0  0  0
  188.7880  178.2870  140.5360 C   0  0  2  0  0  3  0  0  0  0  0  0
  187.4780  178.6340  141.2660 C   0  0  0  0  0  2  0  0  0  0  0  0
  189.2890  177.1040  145.5160 C   0  0  0  0  0  3  0  0  0  0  0  0
  188.0390  177.8920  148.8870 O   0  0  0  0  0  1  0  0  0  0  0  0
  188.0890  177.8120  147.5000 C   0  0  0  0  0  0  0  0  0  0  0  0
  188.2740  177.6170  144.6970 C   0  0  0  0  0  0  0  0  0  0  0  0
  187.0530  178.3340  146.6940 C   0  0  0  0  0  0  0  0  0  0  0  0
  187.1630  178.2280  145.3000 C   0  0  0  0  0  3  0  0  0  0  0  0
  189.1970  177.2020  146.9060 C   0  0  0  0  0  3  0  0  0  0  0  0
  185.9630  179.9950  148.0180 O   0  0  0  0  0  0  0  0  0  0  0  0
  184.5540  178.4920  146.9690 N   0  0  0  0  0  1  0  0  0  0  0  0
  185.8550  178.9910  147.2660 C   0  0  0  0  0  0  0  0  0  0  0  0
  190.4830  176.5880  135.5240 C   0  0  0  0  0  2  0  0  0  0  0  0
  189.0650  176.2670  135.9470 C   0  0  1  0  0  3  0  0  0  0  0  0
  190.9860  175.3800  134.7740 C   0  0  2  0  0  3  0  0  0  0  0  0
  190.5720  174.1620  135.5710 C   0  0  0  0  0  2  0  0  0  0  0  0
  192.4940  175.4330  134.6550 C   0  0  0  0  0  1  0  0  0  0  0  0
  188.9270  174.4800  136.2790 S   0  0  0  0  0  0  0  0  0  0  0  0
  186.1650  177.1240  136.9440 C   0  0  0  0  0  2  0  0  0  0  0  0
  182.8380  177.7440  138.7280 N   0  0  0  0  0  2  0  0  0  0  0  0
  183.7940  175.7610  137.8400 N   0  0  0  0  0  2  0  0  0  0  0  0
  185.0130  177.7650  137.5650 N   0  0  0  0  0  2  0  0  0  0  0  0
  183.8950  177.0300  138.0710 C   0  0  0  0  0  0  0  0  0  0  0  0
  181.7800  177.1580  139.4480 N   0  0  0  0  0  2  0  0  0  0  0  0
  181.1690  177.7570  140.5610 C   0  0  0  0  0  0  0  0  0  0  0  0
  180.6440  178.2740  141.5160 C   0  0  0  0  0  3  0  0  0  0  0  0
  1  6  1  0  0  0  0
  2  4  1  0  0  0  0
  2  6  1  0  0  0  0
  3 29  1  1  0  0  0
  3  1  1  0  0  0  0
  5  3  1  0  0  0  0
  5  2  2  0  0  0  0
  7 16  1  0  0  0  0
  8  7  1  0  0  0  0
  9  7  1  0  0  0  0
 10  8  1  0  0  0  0
 11  6  1  6  0  0  0
 11 10  1  0  0  0  0
 11 12  1  0  0  0  0
 12  9  1  0  0  0  0
 13 19  1  0  0  0  0
 15 14  1  0  0  0  0
 16 18  1  0  0  0  0
 16 13  2  0  0  0  0
 17 22  1  0  0  0  0
 17 15  1  0  0  0  0
 18 17  2  0  0  0  0
 19 15  2  0  0  0  0
 21 22  1  0  0  0  0
 22 20  2  0  0  0  0
 23 24  1  0  0  0  0
 24 28  1  0  0  0  0
 24  5  1  1  0  0  0
 25 27  1  1  0  0  0
 25 23  1  0  0  0  0
 25 26  1  0  0  0  0
 26 28  1  0  0  0  0
 29 32  1  0  0  0  0
 30 34  1  0  0  0  0
 31 33  2  0  0  0  0
 32 33  1  0  0  0  0
 33 30  1  0  0  0  0
 34 35  1  0  0  0  0
 35 36  3  0  0  0  0
M  END
>  <MODEL>
5

>  <REMARK>
 VINA RESULT:      -7.3      1.354      1.508
  Name = 
  8 active torsions:
  status: ('A' for Active; 'I' for Inactive)
    1  A    between atoms: N_1  and  C_28
    2  A    between atoms: N_10  and  N_20
    3  A    between atoms: C_12  and  C_17
    4  A    between atoms: C_13  and  C_26
    5  A    between atoms: C_18  and  N_20
    6  A    between atoms: N_19  and  C_26
    7  A    between atoms: C_21  and  N_22
    8  A    between atoms: C_27  and  C_29
                            x       y       z     vdW  Elec       q    Type
                         _______ _______ _______ _____ _____    ______ ____

>  <TORSDO>
F 8

$$$$
=
 OpenBabel10222419563D

 36 39  0  0  1  0  0  0  0  0999 V2000
  188.7610  178.6650  138.2850 N   0  0  0  0  0  2  0  0  0  0  0  0
  189.8310  176.6130  138.0100 C   0  0  0  0  0  0  0  0  0  0  0  0
  189.1510  178.4830  136.8760 C   0  0  1  0  0  3  0  0  0  0  0  0
  190.4100  175.2880  138.3860 C   0  0  0  0  0  1  0  0  0  0  0  0
  189.8320  177.1510  136.8070 C   0  0  0  0  0  0  0  0  0  0  0  0
  189.2090  177.4950  138.9170 N   0  0  0  0  0  0  0  0  0  0  0  0
  188.7550  177.8070  143.0720 N   0  0  0  0  0  0  0  0  0  0  0  0
  187.5150  177.8770  142.2890 C   0  0  0  0  0  2  0  0  0  0  0  0
  190.0460  177.9610  142.3940 C   0  0  0  0  0  2  0  0  0  0  0  0
  187.7970  178.1360  140.8100 C   0  0  0  0  0  2  0  0  0  0  0  0
  188.8440  177.1490  140.2840 C   0  0  2  0  0  3  0  0  0  0  0  0
  190.1040  177.0560  141.1630 C   0  0  0  0  0  2  0  0  0  0  0  0
  187.5040  177.8300  145.2010 C   0  0  0  0  0  3  0  0  0  0  0  0
  188.5070  177.1290  148.6710 O   0  0  0  0  0  1  0  0  0  0  0  0
  188.6010  177.2910  147.2940 C   0  0  0  0  0  0  0  0  0  0  0  0
  188.7020  177.6310  144.5010 C   0  0  0  0  0  0  0  0  0  0  0  0
  189.8190  177.0870  146.6100 C   0  0  0  0  0  0  0  0  0  0  0  0
  189.8500  177.2600  145.2180 C   0  0  0  0  0  3  0  0  0  0  0  0
  187.4550  177.6610  146.5860 C   0  0  0  0  0  3  0  0  0  0  0  0
  191.6470  175.6100  147.0350 O   0  0  0  0  0  0  0  0  0  0  0  0
  191.6290  177.5450  148.3010 N   0  0  0  0  0  1  0  0  0  0  0  0
  191.0660  176.6930  147.3060 C   0  0  0  0  0  0  0  0  0  0  0  0
  191.8190  176.0320  135.7860 C   0  0  0  0  0  2  0  0  0  0  0  0
  190.4240  176.5730  135.5540 C   0  0  1  0  0  3  0  0  0  0  0  0
  192.0660  175.0140  134.7010 C   0  0  2  0  0  3  0  0  0  0  0  0
  190.8140  174.1710  134.5940 C   0  0  0  0  0  2  0  0  0  0  0  0
  193.2480  174.1410  135.0660 C   0  0  0  0  0  1  0  0  0  0  0  0
  189.3760  175.2540  134.8560 S   0  0  0  0  0  0  0  0  0  0  0  0
  187.9130  178.4820  135.9860 C   0  0  0  0  0  2  0  0  0  0  0  0
  184.6550  177.1810  137.5110 N   0  0  0  0  0  0  0  0  0  0  0  0
  185.9130  176.4400  135.6400 N   0  0  0  0  0  2  0  0  0  0  0  0
  186.7030  178.3480  136.7860 N   0  0  0  0  0  2  0  0  0  0  0  0
  185.7830  177.2640  136.6290 C   0  0  0  0  0  0  0  0  0  0  0  0
  183.7800  176.0840  137.6180 N   0  0  0  0  0  0  0  0  0  0  0  0
  182.7720  175.9820  138.5910 C   0  0  0  0  0  0  0  0  0  0  0  0
  181.9090  175.8950  139.4280 C   0  0  0  0  0  3  0  0  0  0  0  0
  1  6  1  0  0  0  0
  2  4  1  0  0  0  0
  2  6  1  0  0  0  0
  3 29  1  6  0  0  0
  3  1  1  0  0  0  0
  5  3  1  0  0  0  0
  5  2  2  0  0  0  0
  7 16  1  0  0  0  0
  8  7  1  0  0  0  0
  9  7  1  0  0  0  0
 10  8  1  0  0  0  0
 11  6  1  6  0  0  0
 11 10  1  0  0  0  0
 11 12  1  0  0  0  0
 12  9  1  0  0  0  0
 13 19  1  0  0  0  0
 15 14  1  0  0  0  0
 16 13  2  0  0  0  0
 16 18  1  0  0  0  0
 17 15  1  0  0  0  0
 17 22  1  0  0  0  0
 18 17  2  0  0  0  0
 19 15  2  0  0  0  0
 20 22  2  0  0  0  0
 22 21  1  0  0  0  0
 24 23  1  0  0  0  0
 24  5  1  1  0  0  0
 25 27  1  1  0  0  0
 25 23  1  0  0  0  0
 26 25  1  0  0  0  0
 26 28  1  0  0  0  0
 28 24  1  0  0  0  0
 29 32  1  0  0  0  0
 30 34  2  0  0  0  0
 31 33  2  0  0  0  0
 33 32  1  0  0  0  0
 33 30  1  0  0  0  0
 34 35  1  0  0  0  0
 35 36  3  0  0  0  0
M  END
>  <MODEL>
6

>  <REMARK>
 VINA RESULT:      -7.3      1.845      2.734
  Name = 
  8 active torsions:
  status: ('A' for Active; 'I' for Inactive)
    1  A    between atoms: N_1  and  C_28
    2  A    between atoms: N_10  and  N_20
    3  A    between atoms: C_12  and  C_17
    4  A    between atoms: C_13  and  C_26
    5  A    between atoms: C_18  and  N_20
    6  A    between atoms: N_19  and  C_26
    7  A    between atoms: C_21  and  N_22
    8  A    between atoms: C_27  and  C_29
                            x       y       z     vdW  Elec       q    Type
                         _______ _______ _______ _____ _____    ______ ____

>  <TORSDO>
F 8

$$$$
=
 OpenBabel10222419563D

 36 39  0  0  1  0  0  0  0  0999 V2000
  187.7480  178.6460  140.4190 N   0  0  0  0  0  2  0  0  0  0  0  0
  186.0530  178.2430  138.8710 C   0  0  0  0  0  0  0  0  0  0  0  0
  186.4360  178.9520  141.0150 C   0  0  1  0  0  3  0  0  0  0  0  0
  185.4210  177.8500  137.5760 C   0  0  0  0  0  1  0  0  0  0  0  0
  185.4250  178.6700  139.9470 C   0  0  0  0  0  0  0  0  0  0  0  0
  187.4420  178.2260  139.1150 N   0  0  0  0  0  0  0  0  0  0  0  0
  190.4950  175.6880  137.7730 N   0  0  0  0  0  0  0  0  0  0  0  0
  189.1710  175.4610  137.1800 C   0  0  0  0  0  2  0  0  0  0  0  0
  190.6130  176.5140  138.9790 C   0  0  0  0  0  2  0  0  0  0  0  0
  188.0690  176.1500  137.9820 C   0  0  0  0  0  2  0  0  0  0  0  0
  188.4270  177.6180  138.2310 C   0  0  2  0  0  3  0  0  0  0  0  0
  189.8440  177.8230  138.7960 C   0  0  0  0  0  2  0  0  0  0  0  0
  191.7120  174.7680  135.8320 C   0  0  0  0  0  3  0  0  0  0  0  0
  195.0520  173.2620  135.4890 O   0  0  0  0  0  1  0  0  0  0  0  0
  193.9440  173.8560  136.0810 C   0  0  0  0  0  0  0  0  0  0  0  0
  191.6630  175.0700  137.2000 C   0  0  0  0  0  0  0  0  0  0  0  0
  193.9160  174.1500  137.4620 C   0  0  0  0  0  0  0  0  0  0  0  0
  192.7710  174.7550  138.0010 C   0  0  0  0  0  3  0  0  0  0  0  0
  192.8440  174.1660  135.2780 C   0  0  0  0  0  3  0  0  0  0  0  0
  195.2460  172.6760  138.7890 O   0  0  0  0  0  0  0  0  0  0  0  0
  195.9470  174.8800  138.7630 N   0  0  0  0  0  1  0  0  0  0  0  0
  195.0520  173.8440  138.3630 C   0  0  0  0  0  0  0  0  0  0  0  0
  183.3910  179.8340  139.0800 C   0  0  0  0  0  2  0  0  0  0  0  0
  183.9470  178.8780  140.1140 C   0  0  1  0  0  3  0  0  0  0  0  0
  181.9180  179.5290  138.9670 C   0  0  2  0  0  3  0  0  0  0  0  0
  181.7830  178.0230  138.9180 C   0  0  0  0  0  2  0  0  0  0  0  0
  181.3560  180.1410  137.7010 C   0  0  0  0  0  1  0  0  0  0  0  0
  183.0290  177.3050  140.0310 S   0  0  0  0  0  0  0  0  0  0  0  0
  186.1860  178.0520  142.2210 C   0  0  0  0  0  2  0  0  0  0  0  0
  188.6700  177.3260  145.0380 N   0  0  0  0  0  2  0  0  0  0  0  0
  186.3120  177.6020  145.0610 N   0  0  0  0  0  2  0  0  0  0  0  0
  187.4120  177.8660  142.9870 N   0  0  0  0  0  2  0  0  0  0  0  0
  187.4150  177.5600  144.3840 C   0  0  0  0  0  0  0  0  0  0  0  0
  188.8310  176.8250  146.3440 N   0  0  0  0  0  2  0  0  0  0  0  0
  188.8440  177.6320  147.4930 C   0  0  0  0  0  0  0  0  0  0  0  0
  188.8570  178.3230  148.4810 C   0  0  0  0  0  3  0  0  0  0  0  0
  1  3  1  0  0  0  0
  2  6  1  0  0  0  0
  2  5  2  0  0  0  0
  3 29  1  1  0  0  0
  4  2  1  0  0  0  0
  5  3  1  0  0  0  0
  6  1  1  0  0  0  0
  7  9  1  0  0  0  0
  8  7  1  0  0  0  0
  8 10  1  0  0  0  0
 11 10  1  1  0  0  0
 11 12  1  0  0  0  0
 11  6  1  0  0  0  0
 12  9  1  0  0  0  0
 13 16  1  0  0  0  0
 14 15  1  0  0  0  0
 15 17  2  0  0  0  0
 16  7  1  0  0  0  0
 16 18  2  0  0  0  0
 17 18  1  0  0  0  0
 17 22  1  0  0  0  0
 19 13  2  0  0  0  0
 19 15  1  0  0  0  0
 22 21  1  0  0  0  0
 22 20  2  0  0  0  0
 23 24  1  0  0  0  0
 24  5  1  6  0  0  0
 25 27  1  6  0  0  0
 25 23  1  0  0  0  0
 26 25  1  0  0  0  0
 26 28  1  0  0  0  0
 28 24  1  0  0  0  0
 29 32  1  0  0  0  0
 30 34  1  0  0  0  0
 32 33  1  0  0  0  0
 33 30  1  0  0  0  0
 33 31  2  0  0  0  0
 34 35  1  0  0  0  0
 35 36  3  0  0  0  0
M  END
>  <MODEL>
7

>  <REMARK>
 VINA RESULT:      -7.2      4.346      8.864
  Name = 
  8 active torsions:
  status: ('A' for Active; 'I' for Inactive)
    1  A    between atoms: N_1  and  C_28
    2  A    between atoms: N_10  and  N_20
    3  A    between atoms: C_12  and  C_17
    4  A    between atoms: C_13  and  C_26
    5  A    between atoms: C_18  and  N_20
    6  A    between atoms: N_19  and  C_26
    7  A    between atoms: C_21  and  N_22
    8  A    between atoms: C_27  and  C_29
                            x       y       z     vdW  Elec       q    Type
                         _______ _______ _______ _____ _____    ______ ____

>  <TORSDO>
F 8

$$$$
=
 OpenBabel10222419563D

 36 39  0  0  1  0  0  0  0  0999 V2000
  189.0760  177.4680  137.9510 N   0  0  0  0  0  2  0  0  0  0  0  0
  191.2510  176.6900  138.2600 C   0  0  0  0  0  0  0  0  0  0  0  0
  189.5690  176.8420  136.7120 C   0  0  1  0  0  3  0  0  0  0  0  0
  192.5390  176.4140  138.9640 C   0  0  0  0  0  1  0  0  0  0  0  0
  190.9640  176.3870  137.0100 C   0  0  0  0  0  0  0  0  0  0  0  0
  190.1490  177.3450  138.8470 N   0  0  0  0  0  0  0  0  0  0  0  0
  188.7160  177.2310  142.7830 N   0  0  0  0  0  0  0  0  0  0  0  0
  190.0400  176.6330  142.5700 C   0  0  0  0  0  2  0  0  0  0  0  0
  187.8610  177.5200  141.6290 C   0  0  0  0  0  2  0  0  0  0  0  0
  190.3100  176.3780  141.0890 C   0  0  0  0  0  2  0  0  0  0  0  0
  190.0260  177.6400  140.2680 C   0  0  2  0  0  3  0  0  0  0  0  0
  188.6550  178.2740  140.5620 C   0  0  0  0  0  2  0  0  0  0  0  0
  186.9010  177.8190  144.3520 C   0  0  0  0  0  3  0  0  0  0  0  0
  186.8300  178.2630  148.0040 O   0  0  0  0  0  1  0  0  0  0  0  0
  187.3250  178.0070  146.7310 C   0  0  0  0  0  0  0  0  0  0  0  0
  188.2440  177.4920  144.1190 C   0  0  0  0  0  0  0  0  0  0  0  0
  188.6830  177.6810  146.5200 C   0  0  0  0  0  0  0  0  0  0  0  0
  189.1220  177.4270  145.2130 C   0  0  0  0  0  3  0  0  0  0  0  0
  186.4460  178.0740  145.6470 C   0  0  0  0  0  3  0  0  0  0  0  0
  189.5030  178.2580  148.6880 O   0  0  0  0  0  0  0  0  0  0  0  0
  190.8040  176.7490  147.5130 N   0  0  0  0  0  1  0  0  0  0  0  0
  189.6610  177.5940  147.6300 C   0  0  0  0  0  0  0  0  0  0  0  0
  193.2400  176.3450  135.9790 C   0  0  0  0  0  2  0  0  0  0  0  0
  191.8620  175.7180  136.0090 C   0  0  1  0  0  3  0  0  0  0  0  0
  194.1710  175.2970  135.4220 C   0  0  2  0  0  3  0  0  0  0  0  0
  193.8250  173.9920  136.1040 C   0  0  0  0  0  2  0  0  0  0  0  0
  195.6090  175.6700  135.7160 C   0  0  0  0  0  1  0  0  0  0  0  0
  192.0220  173.9300  136.3310 S   0  0  0  0  0  0  0  0  0  0  0  0
  188.6970  175.6460  136.3460 C   0  0  0  0  0  2  0  0  0  0  0  0
  184.9170  175.6190  136.9350 N   0  0  0  0  0  2  0  0  0  0  0  0
  186.5560  173.9230  137.2030 N   0  0  0  0  0  2  0  0  0  0  0  0
  187.2860  176.0100  136.3720 N   0  0  0  0  0  2  0  0  0  0  0  0
  186.2700  175.1450  136.8880 C   0  0  0  0  0  0  0  0  0  0  0  0
  183.8480  174.9780  137.5890 N   0  0  0  0  0  2  0  0  0  0  0  0
  183.0710  175.5840  138.5890 C   0  0  0  0  0  0  0  0  0  0  0  0
  182.4050  176.1050  139.4490 C   0  0  0  0  0  3  0  0  0  0  0  0
  1  6  1  0  0  0  0
  2  6  1  0  0  0  0
  2  4  1  0  0  0  0
  3 29  1  1  0  0  0
  3  5  1  0  0  0  0
  3  1  1  0  0  0  0
  5  2  2  0  0  0  0
  7 16  1  0  0  0  0
  8  7  1  0  0  0  0
  9  7  1  0  0  0  0
 10  8  1  0  0  0  0
 11  6  1  6  0  0  0
 11 12  1  0  0  0  0
 11 10  1  0  0  0  0
 12  9  1  0  0  0  0
 13 19  1  0  0  0  0
 15 14  1  0  0  0  0
 16 13  2  0  0  0  0
 16 18  1  0  0  0  0
 17 15  1  0  0  0  0
 17 22  1  0  0  0  0
 18 17  2  0  0  0  0
 19 15  2  0  0  0  0
 21 22  1  0  0  0  0
 22 20  2  0  0  0  0
 23 24  1  0  0  0  0
 24 28  1  0  0  0  0
 24  5  1  1  0  0  0
 25 27  1  1  0  0  0
 25 23  1  0  0  0  0
 25 26  1  0  0  0  0
 26 28  1  0  0  0  0
 29 32  1  0  0  0  0
 30 34  1  0  0  0  0
 32 33  1  0  0  0  0
 33 30  1  0  0  0  0
 33 31  2  0  0  0  0
 34 35  1  0  0  0  0
 35 36  3  0  0  0  0
M  END
>  <MODEL>
8

>  <REMARK>
 VINA RESULT:      -7.0      2.190      2.879
  Name = 
  8 active torsions:
  status: ('A' for Active; 'I' for Inactive)
    1  A    between atoms: N_1  and  C_28
    2  A    between atoms: N_10  and  N_20
    3  A    between atoms: C_12  and  C_17
    4  A    between atoms: C_13  and  C_26
    5  A    between atoms: C_18  and  N_20
    6  A    between atoms: N_19  and  C_26
    7  A    between atoms: C_21  and  N_22
    8  A    between atoms: C_27  and  C_29
                            x       y       z     vdW  Elec       q    Type
                         _______ _______ _______ _____ _____    ______ ____

>  <TORSDO>
F 8

$$$$
=
 OpenBabel10222419563D

 36 39  0  0  1  0  0  0  0  0999 V2000
  180.5540  178.2580  141.0390 N   0  0  0  0  0  2  0  0  0  0  0  0
  181.5980  179.5460  139.4010 C   0  0  0  0  0  0  0  0  0  0  0  0
  179.7720  178.2200  139.7910 C   0  0  1  0  0  3  0  0  0  0  0  0
  182.6210  180.4450  138.7850 C   0  0  0  0  0  1  0  0  0  0  0  0
  180.5170  179.0770  138.8140 C   0  0  0  0  0  0  0  0  0  0  0  0
  181.6460  179.0850  140.7330 N   0  0  0  0  0  0  0  0  0  0  0  0
  184.4070  178.2520  143.7730 N   0  0  0  0  0  0  0  0  0  0  0  0
  184.9170  178.1360  142.4010 C   0  0  0  0  0  2  0  0  0  0  0  0
  182.9610  178.3190  144.0020 C   0  0  0  0  0  2  0  0  0  0  0  0
  183.7810  178.0810  141.3820 C   0  0  0  0  0  2  0  0  0  0  0  0
  182.7960  179.2300  141.6160 C   0  0  2  0  0  3  0  0  0  0  0  0
  182.3300  179.3600  143.0770 C   0  0  0  0  0  2  0  0  0  0  0  0
  184.8820  178.6250  146.1680 C   0  0  0  0  0  3  0  0  0  0  0  0
  187.9530  178.2870  148.1670 O   0  0  0  0  0  1  0  0  0  0  0  0
  187.1060  178.2710  147.0660 C   0  0  0  0  0  0  0  0  0  0  0  0
  185.3200  178.2570  144.8880 C   0  0  0  0  0  0  0  0  0  0  0  0
  187.5700  177.8980  145.7840 C   0  0  0  0  0  0  0  0  0  0  0  0
  186.6650  177.8960  144.7120 C   0  0  0  0  0  3  0  0  0  0  0  0
  185.7680  178.6310  147.2470 C   0  0  0  0  0  3  0  0  0  0  0  0
  189.4930  176.5250  146.1270 O   0  0  0  0  0  0  0  0  0  0  0  0
  189.7670  178.2400  144.5990 N   0  0  0  0  0  1  0  0  0  0  0  0
  188.9750  177.5060  145.5310 C   0  0  0  0  0  0  0  0  0  0  0  0
  179.9460  180.8310  137.1280 C   0  0  0  0  0  2  0  0  0  0  0  0
  180.0550  179.3480  137.4110 C   0  0  1  0  0  3  0  0  0  0  0  0
  180.0500  180.9880  135.6320 C   0  0  2  0  0  3  0  0  0  0  0  0
  181.1830  180.0970  135.1730 C   0  0  0  0  0  2  0  0  0  0  0  0
  180.3490  182.4290  135.2790 C   0  0  0  0  0  1  0  0  0  0  0  0
  181.1550  178.5800  136.1760 S   0  0  0  0  0  0  0  0  0  0  0  0
  179.6870  176.7890  139.2690 C   0  0  0  0  0  2  0  0  0  0  0  0
  182.7490  174.8890  137.9830 N   0  0  0  0  0  2  0  0  0  0  0  0
  180.5020  174.9410  137.2180 N   0  0  0  0  0  2  0  0  0  0  0  0
  181.0180  176.2060  139.1450 N   0  0  0  0  0  2  0  0  0  0  0  0
  181.3950  175.3590  138.0560 C   0  0  0  0  0  0  0  0  0  0  0  0
  183.3240  174.2220  136.8860 N   0  0  0  0  0  2  0  0  0  0  0  0
  183.5830  172.8420  136.8610 C   0  0  0  0  0  0  0  0  0  0  0  0
  183.8060  171.6570  136.8410 C   0  0  0  0  0  3  0  0  0  0  0  0
  2  6  1  0  0  0  0
  3 29  1  6  0  0  0
  3  1  1  0  0  0  0
  4  2  1  0  0  0  0
  5  2  2  0  0  0  0
  5  3  1  0  0  0  0
  6  1  1  0  0  0  0
  7  9  1  0  0  0  0
  7 16  1  0  0  0  0
  8  7  1  0  0  0  0
 10 11  1  0  0  0  0
 10  8  1  0  0  0  0
 11  6  1  6  0  0  0
 11 12  1  0  0  0  0
 12  9  1  0  0  0  0
 13 19  1  0  0  0  0
 15 19  2  0  0  0  0
 15 14  1  0  0  0  0
 16 13  2  0  0  0  0
 17 15  1  0  0  0  0
 18 16  1  0  0  0  0
 18 17  2  0  0  0  0
 21 22  1  0  0  0  0
 22 17  1  0  0  0  0
 22 20  2  0  0  0  0
 23 24  1  0  0  0  0
 24  5  1  1  0  0  0
 25 27  1  1  0  0  0
 25 23  1  0  0  0  0
 26 25  1  0  0  0  0
 26 28  1  0  0  0  0
 28 24  1  0  0  0  0
 30 33  1  0  0  0  0
 31 33  2  0  0  0  0
 32 29  1  0  0  0  0
 33 32  1  0  0  0  0
 34 30  1  0  0  0  0
 35 34  1  0  0  0  0
 36 35  3  0  0  0  0
M  END
>  <MODEL>
9

>  <REMARK>
 VINA RESULT:      -7.0      4.799      7.483
  Name = 
  8 active torsions:
  status: ('A' for Active; 'I' for Inactive)
    1  A    between atoms: N_1  and  C_28
    2  A    between atoms: N_10  and  N_20
    3  A    between atoms: C_12  and  C_17
    4  A    between atoms: C_13  and  C_26
    5  A    between atoms: C_18  and  N_20
    6  A    between atoms: N_19  and  C_26
    7  A    between atoms: C_21  and  N_22
    8  A    between atoms: C_27  and  C_29
                            x       y       z     vdW  Elec       q    Type
                         _______ _______ _______ _____ _____    ______ ____

>  <TORSDO>
F 8

$$$$
