=
 OpenBabel10222418243D

 58 64  0  0  1  0  0  0  0  0999 V2000
  185.5700  177.3830  134.7150 C   0  0  0  0  0  1  0  0  0  0  0  0
  187.7330  176.4750  137.9820 C   0  0  0  0  0  0  0  0  0  0  0  0
  185.7540  176.4890  135.9220 C   0  0  1  0  0  3  0  0  0  0  0  0
  188.4210  173.2050  137.0060 O   0  0  0  0  0  0  0  0  0  0  0  0
  186.4480  177.0590  138.3940 C   0  0  1  0  0  3  0  0  0  0  0  0
  186.7750  178.2560  139.0850 O   0  0  0  0  0  0  0  0  0  0  0  0
  188.7000  177.0700  138.6450 C   0  0  0  0  0  0  0  0  0  0  0  0
  190.6360  176.0210  137.3790 C   0  0  1  0  0  3  0  0  0  0  0  0
  187.0740  175.7020  135.7450 C   0  0  1  0  0  3  0  0  0  0  0  0
  190.1500  174.6860  137.2540 O   0  0  0  0  0  0  0  0  0  0  0  0
  188.0790  178.0800  139.4390 N   0  0  0  0  0  0  0  0  0  0  0  0
  187.8250  175.4630  136.9830 N   0  0  0  0  0  0  0  0  0  0  0  0
  185.4950  177.3250  137.2050 C   0  0  2  0  0  3  0  0  0  0  0  0
  188.7940  174.4040  137.0820 C   0  0  0  0  0  0  0  0  0  0  0  0
  190.1670  176.6670  138.7030 C   0  0  1  0  0  3  0  0  0  0  0  0
  181.9870  176.1030  137.8970 N   0  0  0  0  0  0  0  0  0  0  0  0
  183.3610  178.4450  138.2700 C   0  0  0  0  0  0  0  0  0  0  0  0
  183.2940  176.1620  137.5390 C   0  0  0  0  0  3  0  0  0  0  0  0
  184.0330  177.3380  137.6790 C   0  0  2  0  0  3  0  0  0  0  0  0
  183.9630  179.5310  138.4810 O   0  0  0  0  0  0  0  0  0  0  0  0
  181.3570  177.1930  138.4030 C   0  0  0  0  0  2  0  0  0  0  0  0
  182.0370  178.3530  138.5890 N   0  0  0  0  0  0  0  0  0  0  0  0
  181.3770  179.4760  139.1250 N   0  0  0  0  0  2  0  0  0  0  0  0
  179.7740  181.3700  139.0670 C   0  0  0  0  0  2  0  0  0  0  0  0
  180.7750  182.3290  138.4340 C   0  0  0  0  0  2  0  0  0  0  0  0
  180.0690  179.9310  138.6460 C   0  0  1  0  0  3  0  0  0  0  0  0
  179.9810  179.7710  137.1240 C   0  0  0  0  0  2  0  0  0  0  0  0
  180.8530  182.1270  136.9490 C   0  0  0  0  0  3  0  0  0  0  0  0
  180.5400  180.9550  136.3640 C   0  0  0  0  0  3  0  0  0  0  0  0
  192.5330  174.7860  137.0540 C   0  0  0  0  0  1  0  0  0  0  0  0
  192.0240  176.0910  137.1370 O   0  0  0  0  0  0  0  0  0  0  0  0
  186.7890  174.4090  134.9800 C   0  0  0  0  0  2  0  0  0  0  0  0
  185.3740  173.0220  136.4980 C   0  0  0  0  0  3  0  0  0  0  0  0
  184.3200  174.0950  134.5980 C   0  0  0  0  0  3  0  0  0  0  0  0
  182.9980  172.7090  136.0980 C   0  0  0  0  0  0  0  0  0  0  0  0
  183.0900  173.5290  134.9600 C   0  0  0  0  0  3  0  0  0  0  0  0
  184.1480  172.4580  136.8620 C   0  0  0  0  0  3  0  0  0  0  0  0
  185.4640  173.8380  135.3690 C   0  0  0  0  0  0  0  0  0  0  0  0
  180.7960  171.6700  135.4880 N   0  0  0  0  0  1  0  0  0  0  0  0
  181.7050  172.1230  136.4870 C   0  0  0  0  0  0  0  0  0  0  0  0
  181.3780  172.0390  137.7000 O   0  0  0  0  0  0  0  0  0  0  0  0
  188.5620  178.4470  140.7710 C   0  0  0  0  0  2  0  0  0  0  0  0
  187.4330  178.9150  141.6740 C   0  0  0  0  0  2  0  0  0  0  0  0
  186.9480  177.7800  142.5490 C   0  0  0  0  0  1  0  0  0  0  0  0
  191.0790  177.8320  139.1160 C   0  0  0  0  0  2  0  0  0  0  0  0
  192.0340  177.4340  140.2200 C   0  0  0  0  0  0  0  0  0  0  0  0
  193.0120  176.6800  139.9600 O   0  0  0  0  0  0  0  0  0  0  0  0
  191.8930  177.8830  141.5400 O   0  0  0  0  0  0  0  0  0  0  0  0
  191.4250  177.1270  142.6050 N   0  0  0  0  0  0  0  0  0  0  0  0
  190.6550  176.1190  142.1280 O   0  0  0  0  0  1  0  0  0  0  0  0
  190.6190  177.9930  143.4680 C   0  0  0  0  0  2  0  0  0  0  0  0
  191.5630  176.9470  145.4490 C   0  0  0  0  0  3  0  0  0  0  0  0
  190.4620  177.3730  144.8180 C   0  0  0  0  0  0  0  0  0  0  0  0
  188.7420  177.2600  146.6440 C   0  0  0  0  0  3  0  0  0  0  0  0
  189.6580  177.4400  147.7940 C   0  0  0  0  0  3  0  0  0  0  0  0
  190.9220  177.0220  147.8350 C   0  0  0  0  0  3  0  0  0  0  0  0
  191.5500  176.2110  146.7520 C   0  0  0  0  0  2  0  0  0  0  0  0
  189.0920  177.2250  145.3550 C   0  0  0  0  0  3  0  0  0  0  0  0
  2  7  2  0  0  0  0
  3  1  1  6  0  0  0
  3 13  1  0  0  0  0
  4 14  2  0  0  0  0
  5  2  1  6  0  0  0
  5  6  1  0  0  0  0
  6 11  1  0  0  0  0
  7 15  1  0  0  0  0
  7 11  1  0  0  0  0
  8 31  1  1  0  0  0
  8 15  1  0  0  0  0
  9 32  1  1  0  0  0
  9  3  1  0  0  0  0
  9 12  1  0  0  0  0
 10  8  1  0  0  0  0
 11 42  1  0  0  0  0
 12 14  1  0  0  0  0
 12  2  1  0  0  0  0
 13 19  1  1  0  0  0
 13  5  1  0  0  0  0
 14 10  1  0  0  0  0
 15 45  1  6  0  0  0
 16 21  1  0  0  0  0
 17 20  2  0  0  0  0
 17 22  1  0  0  0  0
 18 16  2  0  0  0  0
 19 18  1  1  0  0  0
 19 17  1  0  0  0  0
 21 22  1  0  0  0  0
 22 23  1  0  0  0  0
 25 24  1  0  0  0  0
 26 24  1  0  0  0  0
 26 23  1  6  0  0  0
 27 26  1  0  0  0  0
 28 25  1  0  0  0  0
 29 28  2  0  0  0  0
 29 27  1  0  0  0  0
 30 31  1  0  0  0  0
 32 38  1  0  0  0  0
 33 37  1  0  0  0  0
 34 36  2  0  0  0  0
 34 38  1  0  0  0  0
 35 40  1  0  0  0  0
 35 37  2  0  0  0  0
 36 35  1  0  0  0  0
 38 33  2  0  0  0  0
 39 40  1  0  0  0  0
 40 41  2  0  0  0  0
 42 43  1  0  0  0  0
 43 44  1  0  0  0  0
 45 46  1  0  0  0  0
 46 48  1  0  0  0  0
 47 46  2  0  0  0  0
 48 49  1  0  0  0  0
 49 51  1  0  0  0  0
 50 49  1  0  0  0  0
 51 53  1  0  0  0  0
 52 57  1  0  0  0  0
 53 58  1  0  0  0  0
 53 52  2  0  0  0  0
 54 55  1  0  0  0  0
 55 56  2  0  0  0  0
 57 56  1  0  0  0  0
 58 54  2  0  0  0  0
M  END
>  <MODEL>
1

>  <REMARK>
 VINA RESULT:      -7.2      0.000      0.000
  Name = 
  15 active torsions:
  status: ('A' for Active; 'I' for Inactive)
    1  A    between atoms: C_4  and  C_10
    2  A    between atoms: C_8  and  C_36
    3  A    between atoms: C_8  and  O_39
    4  A    between atoms: C_10  and  N_17
    5  A    between atoms: N_17  and  O_39
    6  A    between atoms: C_22  and  C_56
    7  A    between atoms: C_23  and  C_41
    8  A    between atoms: C_23  and  C_52
    9  A    between atoms: C_24  and  C_31
   10  A    between atoms: C_33  and  O_35
   11  A    between atoms: C_34  and  C_37
   12  A    between atoms: C_34  and  N_47
   13  A    between atoms: C_36  and  C_58
   14  A    between atoms: C_40  and  N_48
   15  A    between atoms: N_48  and  N_53
                            x       y       z     vdW  Elec       q    Type
                         _______ _______ _______ _____ _____    ______ ____

>  <TORSDO>
F 15

$$$$
=
 OpenBabel10222418243D

 58 64  0  0  1  0  0  0  0  0999 V2000
  187.7420  172.9440  137.2070 C   0  0  0  0  0  1  0  0  0  0  0  0
  188.9510  176.6660  138.1400 C   0  0  0  0  0  0  0  0  0  0  0  0
  188.3500  174.2500  136.7390 C   0  0  1  0  0  3  0  0  0  0  0  0
  186.8580  178.2590  135.8590 O   0  0  0  0  0  0  0  0  0  0  0  0
  190.1260  175.8230  137.8740 C   0  0  1  0  0  3  0  0  0  0  0  0
  190.8550  175.7840  139.0930 O   0  0  0  0  0  0  0  0  0  0  0  0
  189.1450  177.3190  139.2650 C   0  0  0  0  0  0  0  0  0  0  0  0
  186.8100  178.2980  139.4610 C   0  0  1  0  0  3  0  0  0  0  0  0
  187.2860  175.3610  136.8910 C   0  0  1  0  0  3  0  0  0  0  0  0
  186.5770  178.6490  138.0980 O   0  0  0  0  0  0  0  0  0  0  0  0
  190.4000  176.8730  139.7760 N   0  0  0  0  0  0  0  0  0  0  0  0
  187.8100  176.6730  137.2860 N   0  0  0  0  0  0  0  0  0  0  0  0
  189.7550  174.4030  137.3840 C   0  0  2  0  0  3  0  0  0  0  0  0
  187.0720  177.8840  137.0420 C   0  0  0  0  0  0  0  0  0  0  0  0
  188.3020  178.4520  139.8330 C   0  0  1  0  0  3  0  0  0  0  0  0
  191.5420  172.5860  134.5940 N   0  0  0  0  0  0  0  0  0  0  0  0
  192.2830  173.8230  136.9250 C   0  0  0  0  0  0  0  0  0  0  0  0
  190.5880  173.1800  135.3550 C   0  0  0  0  0  3  0  0  0  0  0  0
  190.9060  173.7970  136.5660 C   0  0  0  0  0  0  0  0  0  0  0  0
  192.6690  174.4010  137.9750 O   0  0  0  0  0  0  0  0  0  0  0  0
  192.8390  172.5750  134.9910 C   0  0  0  0  0  3  0  0  0  0  0  0
  193.2070  173.1880  136.1450 N   0  0  0  0  0  0  0  0  0  0  0  0
  194.5580  173.1820  136.5440 N   0  0  0  0  0  2  0  0  0  0  0  0
  196.4340  173.9660  135.1200 C   0  0  0  0  0  2  0  0  0  0  0  0
  197.1240  174.7030  136.2620 C   0  0  0  0  0  2  0  0  0  0  0  0
  195.6460  172.7700  135.6530 C   0  0  1  0  0  3  0  0  0  0  0  0
  196.5670  171.7760  136.3700 C   0  0  0  0  0  2  0  0  0  0  0  0
  197.9330  173.7600  137.1040 C   0  0  0  0  0  3  0  0  0  0  0  0
  197.6500  172.4460  137.1880 C   0  0  0  0  0  3  0  0  0  0  0  0
  184.6260  178.9120  139.7520 C   0  0  0  0  0  1  0  0  0  0  0  0
  185.9060  178.9520  140.3240 O   0  0  0  0  0  0  0  0  0  0  0  0
  186.4480  175.4320  135.6130 C   0  0  0  0  0  2  0  0  0  0  0  0
  184.7700  173.7670  134.8110 C   0  0  0  0  0  3  0  0  0  0  0  0
  184.3260  174.9500  136.8790 C   0  0  0  0  0  3  0  0  0  0  0  0
  182.7150  173.3350  136.0330 C   0  0  0  0  0  0  0  0  0  0  0  0
  183.1050  174.2720  137.0040 C   0  0  0  0  0  3  0  0  0  0  0  0
  183.5540  173.0890  134.9360 C   0  0  0  0  0  3  0  0  0  0  0  0
  185.1580  174.6960  135.7780 C   0  0  0  0  0  0  0  0  0  0  0  0
  180.5840  172.4570  135.0410 N   0  0  0  0  0  1  0  0  0  0  0  0
  181.4390  172.6140  136.1680 C   0  0  0  0  0  0  0  0  0  0  0  0
  181.0780  172.1530  137.2840 O   0  0  0  0  0  0  0  0  0  0  0  0
  191.3170  177.7530  140.5000 C   0  0  0  0  0  2  0  0  0  0  0  0
  191.9240  177.0660  141.7120 C   0  0  0  0  0  2  0  0  0  0  0  0
  191.6050  177.8380  142.9740 C   0  0  0  0  0  1  0  0  0  0  0  0
  188.4910  178.6200  141.3480 C   0  0  0  0  0  2  0  0  0  0  0  0
  187.8280  177.5040  142.1250 C   0  0  0  0  0  0  0  0  0  0  0  0
  188.4570  176.4320  142.3420 O   0  0  0  0  0  0  0  0  0  0  0  0
  186.5290  177.6100  142.6400 O   0  0  0  0  0  0  0  0  0  0  0  0
  186.1930  177.6340  143.9860 N   0  0  0  0  0  0  0  0  0  0  0  0
  184.8930  177.9910  144.1130 O   0  0  0  0  0  1  0  0  0  0  0  0
  187.0400  178.6230  144.6560 C   0  0  0  0  0  2  0  0  0  0  0  0
  188.9800  177.4900  145.5830 C   0  0  0  0  0  3  0  0  0  0  0  0
  187.7590  177.9940  145.8030 C   0  0  0  0  0  0  0  0  0  0  0  0
  187.6290  177.9600  148.3110 C   0  0  0  0  0  3  0  0  0  0  0  0
  189.0810  178.0640  148.5890 C   0  0  0  0  0  3  0  0  0  0  0  0
  190.0430  177.5670  147.8130 C   0  0  0  0  0  3  0  0  0  0  0  0
  189.7720  176.7360  146.6050 C   0  0  0  0  0  2  0  0  0  0  0  0
  187.0580  177.9230  147.1030 C   0  0  0  0  0  3  0  0  0  0  0  0
  2  7  2  0  0  0  0
  3  9  1  0  0  0  0
  3  1  1  1  0  0  0
  3 13  1  0  0  0  0
  4 14  2  0  0  0  0
  5  2  1  1  0  0  0
  5  6  1  0  0  0  0
  6 11  1  0  0  0  0
  7 11  1  0  0  0  0
  7 15  1  0  0  0  0
  8 15  1  0  0  0  0
  8 31  1  1  0  0  0
  9 32  1  6  0  0  0
  9 12  1  0  0  0  0
 10  8  1  0  0  0  0
 11 42  1  0  0  0  0
 12  2  1  0  0  0  0
 13 19  1  6  0  0  0
 13  5  1  0  0  0  0
 14 12  1  0  0  0  0
 14 10  1  0  0  0  0
 15 45  1  1  0  0  0
 16 21  2  0  0  0  0
 16 18  1  0  0  0  0
 17 20  2  0  0  0  0
 18 19  2  0  0  0  0
 19 17  1  0  0  0  0
 21 22  1  0  0  0  0
 22 23  1  0  0  0  0
 22 17  1  0  0  0  0
 24 26  1  0  0  0  0
 24 25  1  0  0  0  0
 25 28  1  0  0  0  0
 26 27  1  0  0  0  0
 26 23  1  1  0  0  0
 27 29  1  0  0  0  0
 28 29  2  0  0  0  0
 30 31  1  0  0  0  0
 32 38  1  0  0  0  0
 33 37  2  0  0  0  0
 33 38  1  0  0  0  0
 34 36  1  0  0  0  0
 35 40  1  0  0  0  0
 35 36  2  0  0  0  0
 37 35  1  0  0  0  0
 38 34  2  0  0  0  0
 39 40  1  0  0  0  0
 40 41  2  0  0  0  0
 42 43  1  0  0  0  0
 43 44  1  0  0  0  0
 45 46  1  0  0  0  0
 46 47  2  0  0  0  0
 46 48  1  0  0  0  0
 48 49  1  0  0  0  0
 49 50  1  0  0  0  0
 49 51  1  0  0  0  0
 51 53  1  0  0  0  0
 52 53  2  0  0  0  0
 52 57  1  0  0  0  0
 53 58  1  0  0  0  0
 54 55  1  0  0  0  0
 56 55  2  0  0  0  0
 57 56  1  0  0  0  0
 58 54  2  0  0  0  0
M  END
>  <MODEL>
2

>  <REMARK>
 VINA RESULT:      -7.2      2.752      7.978
  Name = 
  15 active torsions:
  status: ('A' for Active; 'I' for Inactive)
    1  A    between atoms: C_4  and  C_10
    2  A    between atoms: C_8  and  C_36
    3  A    between atoms: C_8  and  O_39
    4  A    between atoms: C_10  and  N_17
    5  A    between atoms: N_17  and  O_39
    6  A    between atoms: C_22  and  C_56
    7  A    between atoms: C_23  and  C_41
    8  A    between atoms: C_23  and  C_52
    9  A    between atoms: C_24  and  C_31
   10  A    between atoms: C_33  and  O_35
   11  A    between atoms: C_34  and  C_37
   12  A    between atoms: C_34  and  N_47
   13  A    between atoms: C_36  and  C_58
   14  A    between atoms: C_40  and  N_48
   15  A    between atoms: N_48  and  N_53
                            x       y       z     vdW  Elec       q    Type
                         _______ _______ _______ _____ _____    ______ ____

>  <TORSDO>
F 15

$$$$
=
 OpenBabel10222418243D

 58 64  0  0  1  0  0  0  0  0999 V2000
  191.5690  178.2790  140.7140 C   0  0  0  0  0  1  0  0  0  0  0  0
  187.6870  177.4870  141.4090 C   0  0  0  0  0  0  0  0  0  0  0  0
  190.4270  177.2900  140.6260 C   0  0  1  0  0  3  0  0  0  0  0  0
  188.2870  174.7220  143.4370 O   0  0  0  0  0  0  0  0  0  0  0  0
  187.9050  177.6290  139.9620 C   0  0  1  0  0  3  0  0  0  0  0  0
  187.1230  178.7460  139.5630 O   0  0  0  0  0  0  0  0  0  0  0  0
  186.6440  178.2110  141.7530 C   0  0  0  0  0  0  0  0  0  0  0  0
  186.8910  177.9380  144.2650 C   0  0  1  0  0  3  0  0  0  0  0  0
  189.9880  176.9280  142.0640 C   0  0  1  0  0  3  0  0  0  0  0  0
  187.2470  176.5580  144.3270 O   0  0  0  0  0  0  0  0  0  0  0  0
  186.2100  178.8770  140.5670 N   0  0  0  0  0  0  0  0  0  0  0  0
  188.5470  176.7090  142.2360 N   0  0  0  0  0  0  0  0  0  0  0  0
  189.3950  177.8110  139.5890 C   0  0  2  0  0  3  0  0  0  0  0  0
  188.0290  175.9500  143.3440 C   0  0  0  0  0  0  0  0  0  0  0  0
  185.9230  178.2150  143.0930 C   0  0  1  0  0  3  0  0  0  0  0  0
  189.3860  177.8490  135.8110 N   0  0  0  0  0  0  0  0  0  0  0  0
  190.2930  176.1440  137.7560 C   0  0  0  0  0  0  0  0  0  0  0  0
  189.2330  178.1980  137.1130 C   0  0  0  0  0  3  0  0  0  0  0  0
  189.6490  177.3530  138.1440 C   0  0  2  0  0  3  0  0  0  0  0  0
  190.7440  175.3460  138.6180 O   0  0  0  0  0  0  0  0  0  0  0  0
  189.9490  176.6620  135.4720 C   0  0  0  0  0  2  0  0  0  0  0  0
  190.4000  175.8180  136.4350 N   0  0  0  0  0  0  0  0  0  0  0  0
  190.9940  174.5920  136.0740 N   0  0  0  0  0  2  0  0  0  0  0  0
  193.3580  175.2950  135.7940 C   0  0  0  0  0  2  0  0  0  0  0  0
  193.7960  174.7010  137.1280 C   0  0  0  0  0  2  0  0  0  0  0  0
  192.1810  174.5090  135.2180 C   0  0  1  0  0  3  0  0  0  0  0  0
  192.5580  173.0420  134.9820 C   0  0  0  0  0  2  0  0  0  0  0  0
  194.0420  173.2250  137.0080 C   0  0  0  0  0  3  0  0  0  0  0  0
  193.4440  172.4690  136.0670 C   0  0  0  0  0  3  0  0  0  0  0  0
  187.2530  177.8270  146.5210 C   0  0  0  0  0  1  0  0  0  0  0  0
  186.4650  178.4180  145.5220 O   0  0  0  0  0  0  0  0  0  0  0  0
  190.8180  175.7430  142.5590 C   0  0  0  0  0  2  0  0  0  0  0  0
  191.9080  174.9110  144.6450 C   0  0  0  0  0  3  0  0  0  0  0  0
  190.9030  177.1160  144.6680 C   0  0  0  0  0  3  0  0  0  0  0  0
  191.9550  176.2400  146.6790 C   0  0  0  0  0  0  0  0  0  0  0  0
  191.2650  177.2680  146.0140 C   0  0  0  0  0  3  0  0  0  0  0  0
  192.2710  175.0620  145.9870 C   0  0  0  0  0  3  0  0  0  0  0  0
  191.2240  175.9330  143.9850 C   0  0  0  0  0  0  0  0  0  0  0  0
  192.0580  177.6150  148.7760 N   0  0  0  0  0  1  0  0  0  0  0  0
  192.3470  176.4020  148.0890 C   0  0  0  0  0  0  0  0  0  0  0  0
  192.9620  175.4830  148.6920 O   0  0  0  0  0  0  0  0  0  0  0  0
  184.8000  179.1460  140.2830 C   0  0  0  0  0  2  0  0  0  0  0  0
  184.4820  178.9970  138.8050 C   0  0  0  0  0  2  0  0  0  0  0  0
  183.8150  177.6650  138.5380 C   0  0  0  0  0  1  0  0  0  0  0  0
  185.1170  179.5040  143.3200 C   0  0  0  0  0  2  0  0  0  0  0  0
  183.7200  179.2120  143.8230 C   0  0  0  0  0  0  0  0  0  0  0  0
  183.3930  179.5510  144.9930 O   0  0  0  0  0  0  0  0  0  0  0  0
  182.7480  178.5860  143.0320 O   0  0  0  0  0  0  0  0  0  0  0  0
  181.7360  179.2320  142.3350 N   0  0  0  0  0  0  0  0  0  0  0  0
  180.7560  179.5840  143.2010 O   0  0  0  0  0  1  0  0  0  0  0  0
  181.1980  178.3040  141.3380 C   0  0  0  0  0  2  0  0  0  0  0  0
  181.2100  180.3180  139.9770 C   0  0  0  0  0  3  0  0  0  0  0  0
  180.8150  179.0440  140.0990 C   0  0  0  0  0  0  0  0  0  0  0  0
  180.0010  178.5300  137.7790 C   0  0  0  0  0  3  0  0  0  0  0  0
  180.8500  179.4990  137.0480 C   0  0  0  0  0  3  0  0  0  0  0  0
  181.2570  180.6720  137.5300 C   0  0  0  0  0  3  0  0  0  0  0  0
  180.8100  181.2140  138.8460 C   0  0  0  0  0  2  0  0  0  0  0  0
  179.9810  178.3380  139.1020 C   0  0  0  0  0  3  0  0  0  0  0  0
  2  7  2  0  0  0  0
  2 12  1  0  0  0  0
  3  1  1  1  0  0  0
  3  9  1  0  0  0  0
  5  6  1  1  0  0  0
  5  2  1  0  0  0  0
  6 11  1  0  0  0  0
  7 15  1  0  0  0  0
  8 10  1  0  0  0  0
  8 31  1  1  0  0  0
  9 12  1  0  0  0  0
  9 32  1  6  0  0  0
 11  7  1  0  0  0  0
 12 14  1  0  0  0  0
 13 19  1  6  0  0  0
 13  5  1  0  0  0  0
 13  3  1  0  0  0  0
 14  4  2  0  0  0  0
 14 10  1  0  0  0  0
 15 45  1  1  0  0  0
 15  8  1  0  0  0  0
 16 18  2  0  0  0  0
 17 19  1  0  0  0  0
 17 20  2  0  0  0  0
 19 18  1  1  0  0  0
 21 16  1  0  0  0  0
 21 22  1  0  0  0  0
 22 17  1  0  0  0  0
 23 22  1  0  0  0  0
 24 25  1  0  0  0  0
 26 24  1  0  0  0  0
 26 23  1  1  0  0  0
 27 26  1  0  0  0  0
 27 29  1  0  0  0  0
 28 25  1  0  0  0  0
 29 28  2  0  0  0  0
 31 30  1  0  0  0  0
 32 38  1  0  0  0  0
 33 37  1  0  0  0  0
 34 36  2  0  0  0  0
 35 40  1  0  0  0  0
 36 35  1  0  0  0  0
 37 35  2  0  0  0  0
 38 33  2  0  0  0  0
 38 34  1  0  0  0  0
 40 41  2  0  0  0  0
 40 39  1  0  0  0  0
 42 11  1  0  0  0  0
 43 42  1  0  0  0  0
 44 43  1  0  0  0  0
 45 46  1  0  0  0  0
 46 47  2  0  0  0  0
 48 46  1  0  0  0  0
 49 48  1  0  0  0  0
 49 50  1  0  0  0  0
 51 49  1  0  0  0  0
 52 53  2  0  0  0  0
 53 51  1  0  0  0  0
 54 58  2  0  0  0  0
 55 56  2  0  0  0  0
 55 54  1  0  0  0  0
 56 57  1  0  0  0  0
 57 52  1  0  0  0  0
 58 53  1  0  0  0  0
M  END
>  <MODEL>
3

>  <REMARK>
 VINA RESULT:      -6.8      3.370     10.501
  Name = 
  15 active torsions:
  status: ('A' for Active; 'I' for Inactive)
    1  A    between atoms: C_4  and  C_10
    2  A    between atoms: C_8  and  C_36
    3  A    between atoms: C_8  and  O_39
    4  A    between atoms: C_10  and  N_17
    5  A    between atoms: N_17  and  O_39
    6  A    between atoms: C_22  and  C_56
    7  A    between atoms: C_23  and  C_41
    8  A    between atoms: C_23  and  C_52
    9  A    between atoms: C_24  and  C_31
   10  A    between atoms: C_33  and  O_35
   11  A    between atoms: C_34  and  C_37
   12  A    between atoms: C_34  and  N_47
   13  A    between atoms: C_36  and  C_58
   14  A    between atoms: C_40  and  N_48
   15  A    between atoms: N_48  and  N_53
                            x       y       z     vdW  Elec       q    Type
                         _______ _______ _______ _____ _____    ______ ____

>  <TORSDO>
F 15

$$$$
=
 OpenBabel10222418243D

 58 64  0  0  1  0  0  0  0  0999 V2000
  186.6720  178.1690  134.7850 C   0  0  0  0  0  1  0  0  0  0  0  0
  187.9410  176.7700  138.3370 C   0  0  0  0  0  0  0  0  0  0  0  0
  186.5480  177.1180  135.8670 C   0  0  1  0  0  3  0  0  0  0  0  0
  188.8640  173.6380  137.1300 O   0  0  0  0  0  0  0  0  0  0  0  0
  186.5910  177.3340  138.4880 C   0  0  1  0  0  3  0  0  0  0  0  0
  186.7280  178.4190  139.3950 O   0  0  0  0  0  0  0  0  0  0  0  0
  188.7060  177.2420  139.2960 C   0  0  0  0  0  0  0  0  0  0  0  0
  190.9030  176.3100  138.4260 C   0  0  1  0  0  3  0  0  0  0  0  0
  187.8720  176.3210  135.9220 C   0  0  1  0  0  3  0  0  0  0  0  0
  190.4690  175.0190  138.0030 O   0  0  0  0  0  0  0  0  0  0  0  0
  187.9010  178.1570  140.0380 N   0  0  0  0  0  0  0  0  0  0  0  0
  188.2850  175.8970  137.2650 N   0  0  0  0  0  0  0  0  0  0  0  0
  185.9690  177.7840  137.1450 C   0  0  2  0  0  3  0  0  0  0  0  0
  189.2020  174.8050  137.4600 C   0  0  0  0  0  0  0  0  0  0  0  0
  190.1120  176.7890  139.6640 C   0  0  1  0  0  3  0  0  0  0  0  0
  182.3600  177.7340  136.0290 N   0  0  0  0  0  0  0  0  0  0  0  0
  183.6710  177.8300  138.4340 C   0  0  0  0  0  0  0  0  0  0  0  0
  183.7160  177.7030  136.0390 C   0  0  0  0  0  3  0  0  0  0  0  0
  184.4350  177.7810  137.2330 C   0  0  2  0  0  3  0  0  0  0  0  0
  184.2350  177.8510  139.5590 O   0  0  0  0  0  0  0  0  0  0  0  0
  181.6590  177.8420  137.1860 C   0  0  0  0  0  2  0  0  0  0  0  0
  182.3080  177.8880  138.3780 N   0  0  0  0  0  0  0  0  0  0  0  0
  181.5730  177.9890  139.5750 N   0  0  0  0  0  2  0  0  0  0  0  0
  179.8640  179.6740  140.2090 C   0  0  0  0  0  2  0  0  0  0  0  0
  179.0070  178.6660  140.9650 C   0  0  0  0  0  2  0  0  0  0  0  0
  181.3370  179.2660  140.2550 C   0  0  1  0  0  3  0  0  0  0  0  0
  181.8480  179.1970  141.6980 C   0  0  0  0  0  2  0  0  0  0  0  0
  179.5380  178.4340  142.3490 C   0  0  0  0  0  3  0  0  0  0  0  0
  180.8330  178.6290  142.6660 C   0  0  0  0  0  3  0  0  0  0  0  0
  192.8750  175.4050  137.7060 C   0  0  0  0  0  1  0  0  0  0  0  0
  192.3070  176.3680  138.5520 O   0  0  0  0  0  0  0  0  0  0  0  0
  187.7940  175.1500  134.9420 C   0  0  0  0  0  2  0  0  0  0  0  0
  186.5460  173.0110  134.6230 C   0  0  0  0  0  3  0  0  0  0  0  0
  185.7480  174.5760  136.2930 C   0  0  0  0  0  3  0  0  0  0  0  0
  184.5580  172.4880  135.9170 C   0  0  0  0  0  0  0  0  0  0  0  0
  184.6890  173.7100  136.5980 C   0  0  0  0  0  3  0  0  0  0  0  0
  185.4920  172.1460  134.9280 C   0  0  0  0  0  3  0  0  0  0  0  0
  186.6770  174.2250  135.3010 C   0  0  0  0  0  0  0  0  0  0  0  0
  182.1240  172.0690  136.3630 N   0  0  0  0  0  1  0  0  0  0  0  0
  183.4530  171.5710  136.2450 C   0  0  0  0  0  0  0  0  0  0  0  0
  183.6740  170.3480  136.4490 O   0  0  0  0  0  0  0  0  0  0  0  0
  188.0300  178.3300  141.4850 C   0  0  0  0  0  2  0  0  0  0  0  0
  186.9600  177.5630  142.2440 C   0  0  0  0  0  2  0  0  0  0  0  0
  185.8190  178.4810  142.6240 C   0  0  0  0  0  1  0  0  0  0  0  0
  190.8860  177.8600  140.4480 C   0  0  0  0  0  2  0  0  0  0  0  0
  191.1360  177.4390  141.8800 C   0  0  0  0  0  0  0  0  0  0  0  0
  190.9500  176.2390  142.2210 O   0  0  0  0  0  0  0  0  0  0  0  0
  191.5880  178.3320  142.8610 O   0  0  0  0  0  0  0  0  0  0  0  0
  190.8730  178.7270  143.9840 N   0  0  0  0  0  0  0  0  0  0  0  0
  191.2230  179.9940  144.3090 O   0  0  0  0  0  1  0  0  0  0  0  0
  191.2140  177.8270  145.0880 C   0  0  0  0  0  2  0  0  0  0  0  0
  190.1490  177.1410  147.1630 C   0  0  0  0  0  3  0  0  0  0  0  0
  189.9920  177.5030  145.8840 C   0  0  0  0  0  0  0  0  0  0  0  0
  187.5110  177.8740  145.7520 C   0  0  0  0  0  3  0  0  0  0  0  0
  187.2840  178.2200  147.1740 C   0  0  0  0  0  3  0  0  0  0  0  0
  187.9850  177.7360  148.1990 C   0  0  0  0  0  3  0  0  0  0  0  0
  189.0320  176.6850  148.0480 C   0  0  0  0  0  2  0  0  0  0  0  0
  188.6840  177.5570  145.1950 C   0  0  0  0  0  3  0  0  0  0  0  0
  2  7  2  0  0  0  0
  3  1  1  6  0  0  0
  3  9  1  0  0  0  0
  3 13  1  0  0  0  0
  4 14  2  0  0  0  0
  5  2  1  6  0  0  0
  5  6  1  0  0  0  0
  6 11  1  0  0  0  0
  7 15  1  0  0  0  0
  7 11  1  0  0  0  0
  8 31  1  1  0  0  0
  8 15  1  0  0  0  0
  9 32  1  6  0  0  0
  9 12  1  0  0  0  0
 10  8  1  0  0  0  0
 11 42  1  0  0  0  0
 12 14  1  0  0  0  0
 12  2  1  0  0  0  0
 13 19  1  1  0  0  0
 13  5  1  0  0  0  0
 14 10  1  0  0  0  0
 15 45  1  6  0  0  0
 16 18  2  0  0  0  0
 16 21  1  0  0  0  0
 17 20  2  0  0  0  0
 19 18  1  1  0  0  0
 19 17  1  0  0  0  0
 21 22  1  0  0  0  0
 22 17  1  0  0  0  0
 22 23  1  0  0  0  0
 24 26  1  0  0  0  0
 24 25  1  0  0  0  0
 25 28  1  0  0  0  0
 26 23  1  1  0  0  0
 26 27  1  0  0  0  0
 27 29  1  0  0  0  0
 28 29  2  0  0  0  0
 30 31  1  0  0  0  0
 32 38  1  0  0  0  0
 33 37  2  0  0  0  0
 33 38  1  0  0  0  0
 34 36  1  0  0  0  0
 35 40  1  0  0  0  0
 35 36  2  0  0  0  0
 37 35  1  0  0  0  0
 38 34  2  0  0  0  0
 40 39  1  0  0  0  0
 40 41  2  0  0  0  0
 42 43  1  0  0  0  0
 43 44  1  0  0  0  0
 45 46  1  0  0  0  0
 46 47  2  0  0  0  0
 46 48  1  0  0  0  0
 48 49  1  0  0  0  0
 49 50  1  0  0  0  0
 49 51  1  0  0  0  0
 51 53  1  0  0  0  0
 52 57  1  0  0  0  0
 53 52  2  0  0  0  0
 54 55  1  0  0  0  0
 55 56  2  0  0  0  0
 57 56  1  0  0  0  0
 58 54  2  0  0  0  0
 58 53  1  0  0  0  0
M  END
>  <MODEL>
4

>  <REMARK>
 VINA RESULT:      -6.3      1.649      2.297
  Name = 
  15 active torsions:
  status: ('A' for Active; 'I' for Inactive)
    1  A    between atoms: C_4  and  C_10
    2  A    between atoms: C_8  and  C_36
    3  A    between atoms: C_8  and  O_39
    4  A    between atoms: C_10  and  N_17
    5  A    between atoms: N_17  and  O_39
    6  A    between atoms: C_22  and  C_56
    7  A    between atoms: C_23  and  C_41
    8  A    between atoms: C_23  and  C_52
    9  A    between atoms: C_24  and  C_31
   10  A    between atoms: C_33  and  O_35
   11  A    between atoms: C_34  and  C_37
   12  A    between atoms: C_34  and  N_47
   13  A    between atoms: C_36  and  C_58
   14  A    between atoms: C_40  and  N_48
   15  A    between atoms: N_48  and  N_53
                            x       y       z     vdW  Elec       q    Type
                         _______ _______ _______ _____ _____    ______ ____

>  <TORSDO>
F 15

$$$$
=
 OpenBabel10222418243D

 58 64  0  0  1  0  0  0  0  0999 V2000
  186.6390  174.6650  136.9410 C   0  0  0  0  0  1  0  0  0  0  0  0
  186.9650  177.8860  139.3280 C   0  0  0  0  0  0  0  0  0  0  0  0
  186.9520  176.1400  137.0670 C   0  0  1  0  0  3  0  0  0  0  0  0
  184.6260  179.7980  137.5980 O   0  0  0  0  0  0  0  0  0  0  0  0
  188.3040  177.4620  138.8950 C   0  0  1  0  0  3  0  0  0  0  0  0
  188.9930  177.0950  140.0820 O   0  0  0  0  0  0  0  0  0  0  0  0
  186.9810  178.0740  140.6290 C   0  0  0  0  0  0  0  0  0  0  0  0
  184.4820  178.4200  140.9240 C   0  0  1  0  0  3  0  0  0  0  0  0
  185.6630  176.8730  137.5080 C   0  0  1  0  0  3  0  0  0  0  0  0
  184.2100  179.2220  139.7750 O   0  0  0  0  0  0  0  0  0  0  0  0
  188.2910  177.7190  141.0690 N   0  0  0  0  0  0  0  0  0  0  0  0
  185.8720  178.0020  138.4210 N   0  0  0  0  0  0  0  0  0  0  0  0
  188.2700  176.3030  137.8700 C   0  0  2  0  0  3  0  0  0  0  0  0
  184.8880  179.0420  138.5690 C   0  0  0  0  0  0  0  0  0  0  0  0
  185.8930  178.7060  141.4860 C   0  0  1  0  0  3  0  0  0  0  0  0
  190.6350  177.1180  135.0380 N   0  0  0  0  0  0  0  0  0  0  0  0
  190.7380  175.5740  137.3000 C   0  0  0  0  0  0  0  0  0  0  0  0
  189.5610  177.0940  135.8660 C   0  0  0  0  0  3  0  0  0  0  0  0
  189.5480  176.3020  137.0150 C   0  0  2  0  0  3  0  0  0  0  0  0
  190.8340  174.8720  138.3410 O   0  0  0  0  0  0  0  0  0  0  0  0
  191.7330  176.3670  135.3040 C   0  0  0  0  0  2  0  0  0  0  0  0
  191.7850  175.6030  136.4250 N   0  0  0  0  0  0  0  0  0  0  0  0
  192.9340  174.8350  136.7000 N   0  0  0  0  0  2  0  0  0  0  0  0
  194.8440  174.8880  138.2850 C   0  0  0  0  0  2  0  0  0  0  0  0
  195.1250  173.3960  138.1520 C   0  0  0  0  0  2  0  0  0  0  0  0
  194.2380  175.4370  136.9930 C   0  0  1  0  0  3  0  0  0  0  0  0
  195.1890  175.2370  135.8080 C   0  0  0  0  0  2  0  0  0  0  0  0
  195.9330  173.1050  136.9210 C   0  0  0  0  0  3  0  0  0  0  0  0
  195.9230  173.9140  135.8450 C   0  0  0  0  0  3  0  0  0  0  0  0
  182.2120  178.5230  141.1790 C   0  0  0  0  0  1  0  0  0  0  0  0
  183.4350  178.4950  141.8650 O   0  0  0  0  0  0  0  0  0  0  0  0
  184.8620  177.2700  136.2670 C   0  0  0  0  0  2  0  0  0  0  0  0
  182.3720  177.4490  136.2890 C   0  0  0  0  0  3  0  0  0  0  0  0
  183.3710  175.2410  136.3040 C   0  0  0  0  0  3  0  0  0  0  0  0
  180.9510  175.4790  136.3530 C   0  0  0  0  0  0  0  0  0  0  0  0
  182.0950  174.6630  136.3440 C   0  0  0  0  0  3  0  0  0  0  0  0
  181.0980  176.8740  136.3280 C   0  0  0  0  0  3  0  0  0  0  0  0
  183.5080  176.6380  136.2790 C   0  0  0  0  0  0  0  0  0  0  0  0
  179.0780  174.3760  137.6070 N   0  0  0  0  0  1  0  0  0  0  0  0
  179.6090  174.8740  136.3830 C   0  0  0  0  0  0  0  0  0  0  0  0
  178.9310  174.7670  135.3280 O   0  0  0  0  0  0  0  0  0  0  0  0
  188.9710  178.4080  142.1660 C   0  0  0  0  0  2  0  0  0  0  0  0
  190.1000  177.5740  142.7470 C   0  0  0  0  0  2  0  0  0  0  0  0
  191.2140  178.4670  143.2500 C   0  0  0  0  0  1  0  0  0  0  0  0
  186.0030  178.3030  142.9640 C   0  0  0  0  0  2  0  0  0  0  0  0
  185.3010  179.2900  143.8710 C   0  0  0  0  0  0  0  0  0  0  0  0
  185.3340  180.5220  143.6000 O   0  0  0  0  0  0  0  0  0  0  0  0
  184.5870  178.8940  145.0100 O   0  0  0  0  0  0  0  0  0  0  0  0
  185.1320  178.2850  146.1320 N   0  0  0  0  0  0  0  0  0  0  0  0
  184.1740  178.1720  147.0830 O   0  0  0  0  0  1  0  0  0  0  0  0
  186.2200  179.1280  146.6320 C   0  0  0  0  0  2  0  0  0  0  0  0
  188.0520  177.6920  145.9310 C   0  0  0  0  0  3  0  0  0  0  0  0
  187.4170  178.2910  146.9460 C   0  0  0  0  0  0  0  0  0  0  0  0
  189.0370  177.9650  148.8370 C   0  0  0  0  0  3  0  0  0  0  0  0
  190.2760  177.8810  148.0280 C   0  0  0  0  0  3  0  0  0  0  0  0
  190.3490  177.3840  146.7940 C   0  0  0  0  0  3  0  0  0  0  0  0
  189.1950  176.7400  146.1020 C   0  0  0  0  0  2  0  0  0  0  0  0
  187.7980  178.1350  148.3660 C   0  0  0  0  0  3  0  0  0  0  0  0
  2  7  2  0  0  0  0
  3  1  1  1  0  0  0
  3  9  1  0  0  0  0
  3 13  1  0  0  0  0
  4 14  2  0  0  0  0
  5  2  1  1  0  0  0
  5  6  1  0  0  0  0
  6 11  1  0  0  0  0
  7 11  1  0  0  0  0
  7 15  1  0  0  0  0
  8 15  1  0  0  0  0
  8 31  1  1  0  0  0
  9 32  1  6  0  0  0
  9 12  1  0  0  0  0
 10  8  1  0  0  0  0
 11 42  1  0  0  0  0
 12 14  1  0  0  0  0
 12  2  1  0  0  0  0
 13 19  1  6  0  0  0
 13  5  1  0  0  0  0
 14 10  1  0  0  0  0
 15 45  1  1  0  0  0
 16 21  1  0  0  0  0
 16 18  2  0  0  0  0
 17 20  2  0  0  0  0
 19 18  1  1  0  0  0
 19 17  1  0  0  0  0
 21 22  1  0  0  0  0
 22 23  1  0  0  0  0
 22 17  1  0  0  0  0
 25 24  1  0  0  0  0
 26 23  1  6  0  0  0
 26 24  1  0  0  0  0
 27 29  1  0  0  0  0
 27 26  1  0  0  0  0
 28 25  1  0  0  0  0
 29 28  2  0  0  0  0
 30 31  1  0  0  0  0
 32 38  1  0  0  0  0
 33 37  1  0  0  0  0
 34 36  2  0  0  0  0
 35 40  1  0  0  0  0
 36 35  1  0  0  0  0
 37 35  2  0  0  0  0
 38 33  2  0  0  0  0
 38 34  1  0  0  0  0
 40 39  1  0  0  0  0
 41 40  2  0  0  0  0
 42 43  1  0  0  0  0
 43 44  1  0  0  0  0
 45 46  1  0  0  0  0
 46 48  1  0  0  0  0
 47 46  2  0  0  0  0
 48 49  1  0  0  0  0
 49 51  1  0  0  0  0
 49 50  1  0  0  0  0
 51 53  1  0  0  0  0
 52 57  1  0  0  0  0
 52 53  2  0  0  0  0
 53 58  1  0  0  0  0
 55 54  1  0  0  0  0
 56 55  2  0  0  0  0
 57 56  1  0  0  0  0
 58 54  2  0  0  0  0
M  END
>  <MODEL>
5

>  <REMARK>
 VINA RESULT:      -6.3      2.897      7.777
  Name = 
  15 active torsions:
  status: ('A' for Active; 'I' for Inactive)
    1  A    between atoms: C_4  and  C_10
    2  A    between atoms: C_8  and  C_36
    3  A    between atoms: C_8  and  O_39
    4  A    between atoms: C_10  and  N_17
    5  A    between atoms: N_17  and  O_39
    6  A    between atoms: C_22  and  C_56
    7  A    between atoms: C_23  and  C_41
    8  A    between atoms: C_23  and  C_52
    9  A    between atoms: C_24  and  C_31
   10  A    between atoms: C_33  and  O_35
   11  A    between atoms: C_34  and  C_37
   12  A    between atoms: C_34  and  N_47
   13  A    between atoms: C_36  and  C_58
   14  A    between atoms: C_40  and  N_48
   15  A    between atoms: N_48  and  N_53
                            x       y       z     vdW  Elec       q    Type
                         _______ _______ _______ _____ _____    ______ ____

>  <TORSDO>
F 15

$$$$
=
 OpenBabel10222418243D

 58 64  0  0  1  0  0  0  0  0999 V2000
  182.1710  176.8970  141.1950 C   0  0  0  0  0  1  0  0  0  0  0  0
  185.3990  178.4830  139.3930 C   0  0  0  0  0  0  0  0  0  0  0  0
  182.9000  178.1410  140.7340 C   0  0  1  0  0  3  0  0  0  0  0  0
  186.3490  180.4390  142.1130 O   0  0  0  0  0  0  0  0  0  0  0  0
  184.2270  178.6350  138.5180 C   0  0  1  0  0  3  0  0  0  0  0  0
  184.5230  177.8870  137.3470 O   0  0  0  0  0  0  0  0  0  0  0  0
  186.3950  177.9970  138.6860 C   0  0  0  0  0  0  0  0  0  0  0  0
  187.9850  177.5950  140.6240 C   0  0  1  0  0  3  0  0  0  0  0  0
  184.2180  178.2550  141.5350 C   0  0  1  0  0  3  0  0  0  0  0  0
  187.7490  178.7800  141.3830 O   0  0  0  0  0  0  0  0  0  0  0  0
  185.8800  177.7660  137.3750 N   0  0  0  0  0  0  0  0  0  0  0  0
  185.3570  178.7940  140.7830 N   0  0  0  0  0  0  0  0  0  0  0  0
  182.9110  178.1660  139.1820 C   0  0  2  0  0  3  0  0  0  0  0  0
  186.4900  179.3770  141.4500 C   0  0  0  0  0  0  0  0  0  0  0  0
  187.8510  177.8630  139.1080 C   0  0  1  0  0  3  0  0  0  0  0  0
  179.5960  178.6110  137.4230 N   0  0  0  0  0  0  0  0  0  0  0  0
  181.5240  180.2770  138.4310 C   0  0  0  0  0  0  0  0  0  0  0  0
  180.6770  178.0680  138.0370 C   0  0  0  0  0  3  0  0  0  0  0  0
  181.7030  178.8690  138.5420 C   0  0  0  0  0  0  0  0  0  0  0  0
  182.3750  181.0770  138.9020 O   0  0  0  0  0  0  0  0  0  0  0  0
  179.4810  179.9540  137.2790 C   0  0  0  0  0  3  0  0  0  0  0  0
  180.4350  180.7810  137.7790 N   0  0  0  0  0  0  0  0  0  0  0  0
  180.3030  182.1760  137.6360 N   0  0  0  0  0  2  0  0  0  0  0  0
  180.1460  183.1650  135.3640 C   0  0  0  0  0  2  0  0  0  0  0  0
  178.9310  184.0170  135.7110 C   0  0  0  0  0  2  0  0  0  0  0  0
  181.0120  182.9370  136.6030 C   0  0  1  0  0  3  0  0  0  0  0  0
  181.5140  184.2660  137.1790 C   0  0  0  0  0  2  0  0  0  0  0  0
  179.3380  185.2780  136.4170 C   0  0  0  0  0  3  0  0  0  0  0  0
  180.4830  185.3720  137.1200 C   0  0  0  0  0  3  0  0  0  0  0  0
  189.3600  177.1470  142.3960 C   0  0  0  0  0  1  0  0  0  0  0  0
  189.1820  176.9600  141.0170 O   0  0  0  0  0  0  0  0  0  0  0  0
  183.9550  179.0310  142.8260 C   0  0  0  0  0  2  0  0  0  0  0  0
  184.9000  179.2950  145.1220 C   0  0  0  0  0  3  0  0  0  0  0  0
  185.8060  177.5600  143.6930 C   0  0  0  0  0  3  0  0  0  0  0  0
  186.7040  177.8830  145.9300 C   0  0  0  0  0  0  0  0  0  0  0  0
  186.7070  177.1980  144.7040 C   0  0  0  0  0  3  0  0  0  0  0  0
  185.7970  178.9340  146.1310 C   0  0  0  0  0  3  0  0  0  0  0  0
  184.9020  178.6130  143.9040 C   0  0  0  0  0  0  0  0  0  0  0  0
  187.5820  178.1380  148.2680 N   0  0  0  0  0  1  0  0  0  0  0  0
  187.6420  177.4970  146.9970 C   0  0  0  0  0  0  0  0  0  0  0  0
  188.5210  176.6190  146.7910 O   0  0  0  0  0  0  0  0  0  0  0  0
  186.6840  177.9470  136.1660 C   0  0  0  0  0  2  0  0  0  0  0  0
  186.2370  177.0260  135.0440 C   0  0  0  0  0  2  0  0  0  0  0  0
  186.9160  175.6790  135.1600 C   0  0  0  0  0  1  0  0  0  0  0  0
  188.6070  176.8130  138.2810 C   0  0  0  0  0  2  0  0  0  0  0  0
  189.8150  177.4060  137.5880 C   0  0  0  0  0  0  0  0  0  0  0  0
  189.8050  178.6180  137.2400 O   0  0  0  0  0  0  0  0  0  0  0  0
  190.9730  176.6630  137.3220 O   0  0  0  0  0  0  0  0  0  0  0  0
  191.9070  176.2580  138.2660 N   0  0  0  0  0  0  0  0  0  0  0  0
  191.8950  177.1290  139.3030 O   0  0  0  0  0  1  0  0  0  0  0  0
  193.2300  176.2640  137.6380 C   0  0  0  0  0  2  0  0  0  0  0  0
  193.2050  174.0580  136.6170 C   0  0  0  0  0  3  0  0  0  0  0  0
  193.7550  174.8700  137.5290 C   0  0  0  0  0  0  0  0  0  0  0  0
  195.7870  173.5690  138.2250 C   0  0  0  0  0  3  0  0  0  0  0  0
  195.9780  172.8080  136.9680 C   0  0  0  0  0  3  0  0  0  0  0  0
  194.9970  172.4190  136.1550 C   0  0  0  0  0  3  0  0  0  0  0  0
  193.5520  172.6090  136.4680 C   0  0  0  0  0  2  0  0  0  0  0  0
  194.8190  174.4570  138.4690 C   0  0  0  0  0  3  0  0  0  0  0  0
  2 12  1  0  0  0  0
  3  1  1  6  0  0  0
  3  9  1  0  0  0  0
  5  6  1  6  0  0  0
  5 13  1  0  0  0  0
  5  2  1  0  0  0  0
  6 11  1  0  0  0  0
  7 15  1  0  0  0  0
  7  2  2  0  0  0  0
  8 31  1  6  0  0  0
  8 10  1  0  0  0  0
  9 32  1  1  0  0  0
 10 14  1  0  0  0  0
 11  7  1  0  0  0  0
 12 14  1  0  0  0  0
 12  9  1  0  0  0  0
 13 19  1  1  0  0  0
 13  3  1  0  0  0  0
 14  4  2  0  0  0  0
 15 45  1  6  0  0  0
 15  8  1  0  0  0  0
 16 18  1  0  0  0  0
 17 19  1  0  0  0  0
 17 20  2  0  0  0  0
 18 19  2  0  0  0  0
 21 16  2  0  0  0  0
 21 22  1  0  0  0  0
 22 17  1  0  0  0  0
 23 22  1  0  0  0  0
 24 25  1  0  0  0  0
 24 26  1  0  0  0  0
 25 28  1  0  0  0  0
 26 27  1  0  0  0  0
 26 23  1  1  0  0  0
 28 29  2  0  0  0  0
 29 27  1  0  0  0  0
 31 30  1  0  0  0  0
 32 38  1  0  0  0  0
 33 37  1  0  0  0  0
 34 38  1  0  0  0  0
 34 36  2  0  0  0  0
 35 37  2  0  0  0  0
 35 40  1  0  0  0  0
 36 35  1  0  0  0  0
 38 33  2  0  0  0  0
 40 39  1  0  0  0  0
 41 40  2  0  0  0  0
 42 11  1  0  0  0  0
 43 44  1  0  0  0  0
 43 42  1  0  0  0  0
 46 45  1  0  0  0  0
 47 46  2  0  0  0  0
 48 46  1  0  0  0  0
 48 49  1  0  0  0  0
 49 50  1  0  0  0  0
 51 49  1  0  0  0  0
 52 53  2  0  0  0  0
 53 51  1  0  0  0  0
 53 58  1  0  0  0  0
 54 58  2  0  0  0  0
 55 54  1  0  0  0  0
 56 57  1  0  0  0  0
 56 55  2  0  0  0  0
 57 52  1  0  0  0  0
M  END
>  <MODEL>
6

>  <REMARK>
 VINA RESULT:      -6.2      2.842      7.377
  Name = 
  15 active torsions:
  status: ('A' for Active; 'I' for Inactive)
    1  A    between atoms: C_4  and  C_10
    2  A    between atoms: C_8  and  C_36
    3  A    between atoms: C_8  and  O_39
    4  A    between atoms: C_10  and  N_17
    5  A    between atoms: N_17  and  O_39
    6  A    between atoms: C_22  and  C_56
    7  A    between atoms: C_23  and  C_41
    8  A    between atoms: C_23  and  C_52
    9  A    between atoms: C_24  and  C_31
   10  A    between atoms: C_33  and  O_35
   11  A    between atoms: C_34  and  C_37
   12  A    between atoms: C_34  and  N_47
   13  A    between atoms: C_36  and  C_58
   14  A    between atoms: C_40  and  N_48
   15  A    between atoms: N_48  and  N_53
                            x       y       z     vdW  Elec       q    Type
                         _______ _______ _______ _____ _____    ______ ____

>  <TORSDO>
F 15

$$$$
=
 OpenBabel10222418243D

 58 64  0  0  1  0  0  0  0  0999 V2000
  191.1550  178.6260  140.3350 C   0  0  0  0  0  1  0  0  0  0  0  0
  187.3780  177.6440  141.3140 C   0  0  0  0  0  0  0  0  0  0  0  0
  190.0600  177.5800  140.3320 C   0  0  1  0  0  3  0  0  0  0  0  0
  188.2640  174.9220  143.2950 O   0  0  0  0  0  0  0  0  0  0  0  0
  187.4830  177.7900  139.8550 C   0  0  1  0  0  3  0  0  0  0  0  0
  186.6180  178.8640  139.5140 O   0  0  0  0  0  0  0  0  0  0  0  0
  186.3280  178.3160  141.7320 C   0  0  0  0  0  0  0  0  0  0  0  0
  186.7720  178.0680  144.2210 C   0  0  1  0  0  3  0  0  0  0  0  0
  189.7460  177.2040  141.7990 C   0  0  1  0  0  3  0  0  0  0  0  0
  187.2010  176.7080  144.2570 O   0  0  0  0  0  0  0  0  0  0  0  0
  185.7760  178.9530  140.5810 N   0  0  0  0  0  0  0  0  0  0  0  0
  188.3350  176.9140  142.0770 N   0  0  0  0  0  0  0  0  0  0  0  0
  188.9300  178.0440  139.3730 C   0  0  2  0  0  3  0  0  0  0  0  0
  187.9380  176.1350  143.2200 C   0  0  0  0  0  0  0  0  0  0  0  0
  185.7080  178.2910  143.1220 C   0  0  1  0  0  3  0  0  0  0  0  0
  189.1560  178.2520  135.6070 N   0  0  0  0  0  0  0  0  0  0  0  0
  189.3230  176.2560  137.4780 C   0  0  0  0  0  0  0  0  0  0  0  0
  189.0530  178.5740  136.9210 C   0  0  0  0  0  3  0  0  0  0  0  0
  189.1010  177.5930  137.9140 C   0  0  0  0  0  0  0  0  0  0  0  0
  189.4300  175.3140  138.3060 O   0  0  0  0  0  0  0  0  0  0  0  0
  189.3080  176.9620  135.2180 C   0  0  0  0  0  3  0  0  0  0  0  0
  189.3920  175.9720  136.1440 N   0  0  0  0  0  0  0  0  0  0  0  0
  189.5610  174.6360  135.7320 N   0  0  0  0  0  2  0  0  0  0  0  0
  188.3870  172.4550  135.5640 C   0  0  0  0  0  2  0  0  0  0  0  0
  187.9520  172.4630  137.0250 C   0  0  0  0  0  2  0  0  0  0  0  0
  188.5140  173.8830  135.0350 C   0  0  1  0  0  3  0  0  0  0  0  0
  187.1780  174.6290  135.1280 C   0  0  0  0  0  2  0  0  0  0  0  0
  186.7240  173.3040  137.2200 C   0  0  0  0  0  3  0  0  0  0  0  0
  186.4020  174.3130  136.3880 C   0  0  0  0  0  3  0  0  0  0  0  0
  186.7690  177.5580  146.4500 C   0  0  0  0  0  1  0  0  0  0  0  0
  186.4160  178.5320  145.5040 O   0  0  0  0  0  0  0  0  0  0  0  0
  190.6690  176.0640  142.2330 C   0  0  0  0  0  2  0  0  0  0  0  0
  190.6850  177.3470  144.3750 C   0  0  0  0  0  3  0  0  0  0  0  0
  191.7040  175.1490  144.3390 C   0  0  0  0  0  3  0  0  0  0  0  0
  191.7130  176.4580  146.3890 C   0  0  0  0  0  0  0  0  0  0  0  0
  192.0520  175.2880  145.6900 C   0  0  0  0  0  3  0  0  0  0  0  0
  191.0300  177.4870  145.7220 C   0  0  0  0  0  3  0  0  0  0  0  0
  191.0210  176.1830  143.6810 C   0  0  0  0  0  0  0  0  0  0  0  0
  192.8270  175.5900  148.4630 N   0  0  0  0  0  1  0  0  0  0  0  0
  192.0670  176.6020  147.8110 C   0  0  0  0  0  0  0  0  0  0  0  0
  191.6800  177.6030  148.4700 O   0  0  0  0  0  0  0  0  0  0  0  0
  184.3370  179.1500  140.4010 C   0  0  0  0  0  2  0  0  0  0  0  0
  183.8350  178.5160  139.1150 C   0  0  0  0  0  2  0  0  0  0  0  0
  183.3540  177.1050  139.3720 C   0  0  0  0  0  1  0  0  0  0  0  0
  184.8570  179.5380  143.4070 C   0  0  0  0  0  2  0  0  0  0  0  0
  183.4940  179.1770  143.9560 C   0  0  0  0  0  0  0  0  0  0  0  0
  183.2370  179.3780  145.1740 O   0  0  0  0  0  0  0  0  0  0  0  0
  182.4780  178.6330  143.1580 O   0  0  0  0  0  0  0  0  0  0  0  0
  181.4220  179.3420  142.6030 N   0  0  0  0  0  0  0  0  0  0  0  0
  180.6120  179.7800  143.5960 O   0  0  0  0  0  1  0  0  0  0  0  0
  180.6740  178.4410  141.7230 C   0  0  0  0  0  2  0  0  0  0  0  0
  180.7190  180.4020  140.2880 C   0  0  0  0  0  3  0  0  0  0  0  0
  180.3990  179.1080  140.4160 C   0  0  0  0  0  0  0  0  0  0  0  0
  179.9180  178.4560  138.0380 C   0  0  0  0  0  3  0  0  0  0  0  0
  180.7840  179.4580  137.3760 C   0  0  0  0  0  3  0  0  0  0  0  0
  181.0470  180.6740  137.8530 C   0  0  0  0  0  3  0  0  0  0  0  0
  180.4040  181.2270  139.0790 C   0  0  0  0  0  2  0  0  0  0  0  0
  179.7460  178.3090  139.3560 C   0  0  0  0  0  3  0  0  0  0  0  0
  2  7  2  0  0  0  0
  2 12  1  0  0  0  0
  3  1  1  1  0  0  0
  3  9  1  0  0  0  0
  5  6  1  1  0  0  0
  5  2  1  0  0  0  0
  6 11  1  0  0  0  0
  7 15  1  0  0  0  0
  8 10  1  0  0  0  0
  8 31  1  1  0  0  0
  9 12  1  0  0  0  0
  9 32  1  6  0  0  0
 11  7  1  0  0  0  0
 12 14  1  0  0  0  0
 13 19  1  6  0  0  0
 13  5  1  0  0  0  0
 13  3  1  0  0  0  0
 14  4  2  0  0  0  0
 14 10  1  0  0  0  0
 15 45  1  1  0  0  0
 15  8  1  0  0  0  0
 16 18  1  0  0  0  0
 17 19  1  0  0  0  0
 17 20  2  0  0  0  0
 18 19  2  0  0  0  0
 21 16  2  0  0  0  0
 21 22  1  0  0  0  0
 22 17  1  0  0  0  0
 23 22  1  0  0  0  0
 24 25  1  0  0  0  0
 25 28  1  0  0  0  0
 26 27  1  0  0  0  0
 26 24  1  0  0  0  0
 26 23  1  1  0  0  0
 27 29  1  0  0  0  0
 29 28  2  0  0  0  0
 31 30  1  0  0  0  0
 32 38  1  0  0  0  0
 33 37  1  0  0  0  0
 34 36  2  0  0  0  0
 35 40  1  0  0  0  0
 36 35  1  0  0  0  0
 37 35  2  0  0  0  0
 38 34  1  0  0  0  0
 38 33  2  0  0  0  0
 40 39  1  0  0  0  0
 40 41  2  0  0  0  0
 42 11  1  0  0  0  0
 43 44  1  0  0  0  0
 43 42  1  0  0  0  0
 45 46  1  0  0  0  0
 46 47  2  0  0  0  0
 48 46  1  0  0  0  0
 49 48  1  0  0  0  0
 49 50  1  0  0  0  0
 51 49  1  0  0  0  0
 52 53  2  0  0  0  0
 53 51  1  0  0  0  0
 54 58  2  0  0  0  0
 55 56  2  0  0  0  0
 55 54  1  0  0  0  0
 56 57  1  0  0  0  0
 57 52  1  0  0  0  0
 58 53  1  0  0  0  0
M  END
>  <MODEL>
7

>  <REMARK>
 VINA RESULT:      -6.1      2.918      9.858
  Name = 
  15 active torsions:
  status: ('A' for Active; 'I' for Inactive)
    1  A    between atoms: C_4  and  C_10
    2  A    between atoms: C_8  and  C_36
    3  A    between atoms: C_8  and  O_39
    4  A    between atoms: C_10  and  N_17
    5  A    between atoms: N_17  and  O_39
    6  A    between atoms: C_22  and  C_56
    7  A    between atoms: C_23  and  C_41
    8  A    between atoms: C_23  and  C_52
    9  A    between atoms: C_24  and  C_31
   10  A    between atoms: C_33  and  O_35
   11  A    between atoms: C_34  and  C_37
   12  A    between atoms: C_34  and  N_47
   13  A    between atoms: C_36  and  C_58
   14  A    between atoms: C_40  and  N_48
   15  A    between atoms: N_48  and  N_53
                            x       y       z     vdW  Elec       q    Type
                         _______ _______ _______ _____ _____    ______ ____

>  <TORSDO>
F 15

$$$$
=
 OpenBabel10222418243D

 58 64  0  0  1  0  0  0  0  0999 V2000
  187.1970  178.0460  135.4580 C   0  0  0  0  0  1  0  0  0  0  0  0
  189.5620  175.9060  137.9080 C   0  0  0  0  0  0  0  0  0  0  0  0
  187.3010  177.0070  136.5530 C   0  0  1  0  0  3  0  0  0  0  0  0
  188.4620  172.8030  136.7770 O   0  0  0  0  0  0  0  0  0  0  0  0
  188.8280  176.9100  138.6920 C   0  0  1  0  0  3  0  0  0  0  0  0
  189.8190  177.7640  139.2470 O   0  0  0  0  0  0  0  0  0  0  0  0
  190.8340  175.9560  138.2410 C   0  0  0  0  0  0  0  0  0  0  0  0
  191.6870  174.3750  136.4460 C   0  0  1  0  0  3  0  0  0  0  0  0
  188.0420  175.7750  135.9820 C   0  0  1  0  0  3  0  0  0  0  0  0
  190.6560  173.3890  136.4790 O   0  0  0  0  0  0  0  0  0  0  0  0
  190.9590  177.0190  139.1850 N   0  0  0  0  0  0  0  0  0  0  0  0
  188.9250  175.0870  136.9310 N   0  0  0  0  0  0  0  0  0  0  0  0
  187.7970  177.6990  137.8510 C   0  0  2  0  0  3  0  0  0  0  0  0
  189.3240  173.7190  136.7320 C   0  0  0  0  0  0  0  0  0  0  0  0
  191.9310  174.9780  137.8480 C   0  0  1  0  0  3  0  0  0  0  0  0
  184.5030  179.2570  138.8500 N   0  0  0  0  0  0  0  0  0  0  0  0
  186.7160  178.3250  140.1710 C   0  0  0  0  0  0  0  0  0  0  0  0
  185.5180  178.7160  138.1300 C   0  0  0  0  0  3  0  0  0  0  0  0
  186.6810  178.2550  138.7500 C   0  0  0  0  0  0  0  0  0  0  0  0
  187.7030  177.8860  140.8170 O   0  0  0  0  0  0  0  0  0  0  0  0
  184.5890  179.3650  140.1990 C   0  0  0  0  0  3  0  0  0  0  0  0
  185.6850  178.9030  140.8550 N   0  0  0  0  0  0  0  0  0  0  0  0
  185.7620  179.0100  142.2570 N   0  0  0  0  0  2  0  0  0  0  0  0
  186.2140  177.0870  143.7610 C   0  0  0  0  0  2  0  0  0  0  0  0
  187.1930  177.8690  144.6300 C   0  0  0  0  0  2  0  0  0  0  0  0
  185.1650  178.0220  143.1610 C   0  0  1  0  0  3  0  0  0  0  0  0
  184.3620  178.7300  144.2590 C   0  0  0  0  0  2  0  0  0  0  0  0
  186.4670  178.7080  145.6410 C   0  0  0  0  0  3  0  0  0  0  0  0
  185.2050  179.1360  145.4490 C   0  0  0  0  0  3  0  0  0  0  0  0
  192.5280  172.6810  135.1610 C   0  0  0  0  0  1  0  0  0  0  0  0
  192.8400  173.8950  135.7900 O   0  0  0  0  0  0  0  0  0  0  0  0
  187.0250  174.8280  135.3450 C   0  0  0  0  0  2  0  0  0  0  0  0
  184.6680  175.6490  135.2880 C   0  0  0  0  0  3  0  0  0  0  0  0
  185.4370  174.4830  137.2680 C   0  0  0  0  0  3  0  0  0  0  0  0
  183.1590  175.3310  137.1650 C   0  0  0  0  0  0  0  0  0  0  0  0
  184.1790  174.6600  137.8610 C   0  0  0  0  0  3  0  0  0  0  0  0
  183.4130  175.8250  135.8770 C   0  0  0  0  0  3  0  0  0  0  0  0
  185.6810  174.9810  135.9790 C   0  0  0  0  0  0  0  0  0  0  0  0
  181.7120  175.6210  139.1950 N   0  0  0  0  0  1  0  0  0  0  0  0
  181.8340  175.5080  137.7810 C   0  0  0  0  0  0  0  0  0  0  0  0
  180.7950  175.5350  137.0690 O   0  0  0  0  0  0  0  0  0  0  0  0
  191.9010  176.9760  140.3030 C   0  0  0  0  0  2  0  0  0  0  0  0
  191.1880  176.9840  141.6450 C   0  0  0  0  0  2  0  0  0  0  0  0
  191.9290  177.8570  142.6340 C   0  0  0  0  0  1  0  0  0  0  0  0
  193.3340  175.5960  137.9590 C   0  0  0  0  0  2  0  0  0  0  0  0
  193.7290  176.3250  136.6940 C   0  0  0  0  0  0  0  0  0  0  0  0
  192.8600  176.9670  136.0430 O   0  0  0  0  0  0  0  0  0  0  0  0
  195.0440  176.3360  136.2080 O   0  0  0  0  0  0  0  0  0  0  0  0
  196.0190  175.3910  136.4960 N   0  0  0  0  0  0  0  0  0  0  0  0
  197.2220  176.0080  136.5860 O   0  0  0  0  0  1  0  0  0  0  0  0
  196.0510  174.4130  135.4070 C   0  0  0  0  0  2  0  0  0  0  0  0
  195.7570  172.8520  137.2470 C   0  0  0  0  0  3  0  0  0  0  0  0
  196.0830  173.0260  135.9600 C   0  0  0  0  0  0  0  0  0  0  0  0
  196.1060  170.6640  135.1070 C   0  0  0  0  0  3  0  0  0  0  0  0
  195.1410  170.0920  136.0740 C   0  0  0  0  0  3  0  0  0  0  0  0
  194.9830  170.5060  137.3310 C   0  0  0  0  0  3  0  0  0  0  0  0
  195.8490  171.5420  137.9640 C   0  0  0  0  0  2  0  0  0  0  0  0
  196.5190  171.9340  135.0620 C   0  0  0  0  0  3  0  0  0  0  0  0
  2  7  2  0  0  0  0
  3  1  1  6  0  0  0
  3 13  1  0  0  0  0
  5  2  1  6  0  0  0
  5  6  1  0  0  0  0
  7 11  1  0  0  0  0
  8 31  1  1  0  0  0
  8 10  1  0  0  0  0
  8 15  1  0  0  0  0
  9 32  1  1  0  0  0
  9  3  1  0  0  0  0
  9 12  1  0  0  0  0
 10 14  1  0  0  0  0
 11  6  1  0  0  0  0
 11 42  1  0  0  0  0
 12  2  1  0  0  0  0
 13  5  1  0  0  0  0
 13 19  1  1  0  0  0
 14  4  2  0  0  0  0
 14 12  1  0  0  0  0
 15 45  1  6  0  0  0
 15  7  1  0  0  0  0
 16 21  2  0  0  0  0
 17 20  2  0  0  0  0
 17 22  1  0  0  0  0
 18 19  2  0  0  0  0
 18 16  1  0  0  0  0
 19 17  1  0  0  0  0
 21 22  1  0  0  0  0
 22 23  1  0  0  0  0
 24 25  1  0  0  0  0
 25 28  1  0  0  0  0
 26 23  1  1  0  0  0
 26 24  1  0  0  0  0
 26 27  1  0  0  0  0
 27 29  1  0  0  0  0
 29 28  2  0  0  0  0
 30 31  1  0  0  0  0
 32 38  1  0  0  0  0
 33 37  2  0  0  0  0
 33 38  1  0  0  0  0
 34 36  1  0  0  0  0
 35 40  1  0  0  0  0
 35 36  2  0  0  0  0
 37 35  1  0  0  0  0
 38 34  2  0  0  0  0
 40 39  1  0  0  0  0
 41 40  2  0  0  0  0
 42 43  1  0  0  0  0
 43 44  1  0  0  0  0
 46 45  1  0  0  0  0
 47 46  2  0  0  0  0
 48 49  1  0  0  0  0
 48 46  1  0  0  0  0
 49 50  1  0  0  0  0
 51 53  1  0  0  0  0
 51 49  1  0  0  0  0
 52 57  1  0  0  0  0
 53 52  2  0  0  0  0
 54 55  1  0  0  0  0
 55 56  2  0  0  0  0
 56 57  1  0  0  0  0
 58 54  2  0  0  0  0
 58 53  1  0  0  0  0
M  END
>  <MODEL>
8

>  <REMARK>
 VINA RESULT:      -5.8      2.900      6.432
  Name = 
  15 active torsions:
  status: ('A' for Active; 'I' for Inactive)
    1  A    between atoms: C_4  and  C_10
    2  A    between atoms: C_8  and  C_36
    3  A    between atoms: C_8  and  O_39
    4  A    between atoms: C_10  and  N_17
    5  A    between atoms: N_17  and  O_39
    6  A    between atoms: C_22  and  C_56
    7  A    between atoms: C_23  and  C_41
    8  A    between atoms: C_23  and  C_52
    9  A    between atoms: C_24  and  C_31
   10  A    between atoms: C_33  and  O_35
   11  A    between atoms: C_34  and  C_37
   12  A    between atoms: C_34  and  N_47
   13  A    between atoms: C_36  and  C_58
   14  A    between atoms: C_40  and  N_48
   15  A    between atoms: N_48  and  N_53
                            x       y       z     vdW  Elec       q    Type
                         _______ _______ _______ _____ _____    ______ ____

>  <TORSDO>
F 15

$$$$
=
 OpenBabel10222418243D

 58 64  0  0  1  0  0  0  0  0999 V2000
  189.3670  175.6020  142.5650 C   0  0  0  0  0  1  0  0  0  0  0  0
  190.5150  177.1000  139.0130 C   0  0  0  0  0  0  0  0  0  0  0  0
  189.7120  176.8240  141.7400 C   0  0  1  0  0  3  0  0  0  0  0  0
  193.3840  178.6470  140.2360 O   0  0  0  0  0  0  0  0  0  0  0  0
  189.1090  177.4490  139.2590 C   0  0  1  0  0  3  0  0  0  0  0  0
  188.3690  176.8150  138.2240 O   0  0  0  0  0  0  0  0  0  0  0  0
  190.6240  176.6120  137.7960 C   0  0  0  0  0  0  0  0  0  0  0  0
  193.0430  175.8600  137.9790 C   0  0  1  0  0  3  0  0  0  0  0  0
  191.2040  176.7330  141.3430 C   0  0  1  0  0  3  0  0  0  0  0  0
  193.5900  176.9670  138.6920 O   0  0  0  0  0  0  0  0  0  0  0  0
  189.3020  176.5760  137.2600 N   0  0  0  0  0  0  0  0  0  0  0  0
  191.5230  177.2530  140.0080 N   0  0  0  0  0  0  0  0  0  0  0  0
  188.6140  177.0220  140.6610 C   0  0  2  0  0  3  0  0  0  0  0  0
  192.8590  177.6590  139.6590 C   0  0  0  0  0  0  0  0  0  0  0  0
  191.9050  176.3080  137.0330 C   0  0  1  0  0  3  0  0  0  0  0  0
  186.2300  178.8600  142.9440 N   0  0  0  0  0  0  0  0  0  0  0  0
  186.4760  178.5020  140.2380 C   0  0  0  0  0  0  0  0  0  0  0  0
  187.2730  178.1330  142.4700 C   0  0  0  0  0  3  0  0  0  0  0  0
  187.4280  177.8940  141.1030 C   0  0  0  0  0  0  0  0  0  0  0  0
  186.5670  178.3830  138.9880 O   0  0  0  0  0  0  0  0  0  0  0  0
  185.3040  179.3780  142.0990 C   0  0  0  0  0  3  0  0  0  0  0  0
  185.4250  179.2020  140.7580 N   0  0  0  0  0  0  0  0  0  0  0  0
  184.4650  179.7520  139.8870 N   0  0  0  0  0  2  0  0  0  0  0  0
  182.4870  179.2670  138.4680 C   0  0  0  0  0  2  0  0  0  0  0  0
  183.2160  178.2170  137.6370 C   0  0  0  0  0  2  0  0  0  0  0  0
  183.0620  179.3260  139.8820 C   0  0  1  0  0  3  0  0  0  0  0  0
  182.9200  177.9760  140.5950 C   0  0  0  0  0  2  0  0  0  0  0  0
  183.2470  176.8930  138.3450 C   0  0  0  0  0  3  0  0  0  0  0  0
  183.1610  176.7910  139.6850 C   0  0  0  0  0  3  0  0  0  0  0  0
  194.6110  174.2350  138.3430 C   0  0  0  0  0  1  0  0  0  0  0  0
  194.0540  175.0840  137.3750 O   0  0  0  0  0  0  0  0  0  0  0  0
  192.0560  177.3780  142.4370 C   0  0  0  0  0  2  0  0  0  0  0  0
  191.5320  176.3970  144.6710 C   0  0  0  0  0  3  0  0  0  0  0  0
  190.4040  178.4380  144.0140 C   0  0  0  0  0  3  0  0  0  0  0  0
  189.9150  177.4200  146.1680 C   0  0  0  0  0  0  0  0  0  0  0  0
  189.7010  178.4400  145.2270 C   0  0  0  0  0  3  0  0  0  0  0  0
  190.8330  176.3980  145.8820 C   0  0  0  0  0  3  0  0  0  0  0  0
  191.3200  177.4120  143.7370 C   0  0  0  0  0  0  0  0  0  0  0  0
  189.1380  178.6100  148.2360 N   0  0  0  0  0  1  0  0  0  0  0  0
  189.1860  177.4260  147.4470 C   0  0  0  0  0  0  0  0  0  0  0  0
  188.6220  176.3810  147.8690 O   0  0  0  0  0  0  0  0  0  0  0  0
  189.0160  176.8230  135.8470 C   0  0  0  0  0  2  0  0  0  0  0  0
  187.7660  177.6660  135.6610 C   0  0  0  0  0  2  0  0  0  0  0  0
  186.5510  176.7830  135.4790 C   0  0  0  0  0  1  0  0  0  0  0  0
  191.6850  175.2970  135.8980 C   0  0  0  0  0  2  0  0  0  0  0  0
  190.9370  174.0710  136.3730 C   0  0  0  0  0  0  0  0  0  0  0  0
  190.9680  173.7520  137.5930 O   0  0  0  0  0  0  0  0  0  0  0  0
  190.1820  173.2640  135.5100 O   0  0  0  0  0  0  0  0  0  0  0  0
  189.0310  172.5700  135.8550 N   0  0  0  0  0  0  0  0  0  0  0  0
  189.1040  171.3130  135.3540 O   0  0  0  0  0  1  0  0  0  0  0  0
  187.8810  173.2630  135.2700 C   0  0  0  0  0  2  0  0  0  0  0  0
  186.3130  173.4070  137.1210 C   0  0  0  0  0  3  0  0  0  0  0  0
  186.6220  172.8370  135.9500 C   0  0  0  0  0  0  0  0  0  0  0  0
  184.4880  171.6430  135.3750 C   0  0  0  0  0  3  0  0  0  0  0  0
  183.5580  172.5280  136.1150 C   0  0  0  0  0  3  0  0  0  0  0  0
  183.8540  173.1760  137.2410 C   0  0  0  0  0  3  0  0  0  0  0  0
  185.1450  173.0040  137.9670 C   0  0  0  0  0  2  0  0  0  0  0  0
  185.8160  171.7740  135.3100 C   0  0  0  0  0  3  0  0  0  0  0  0
  2  5  1  0  0  0  0
  2 12  1  0  0  0  0
  3  1  1  6  0  0  0
  5  6  1  6  0  0  0
  5 13  1  0  0  0  0
  7  2  2  0  0  0  0
  8 31  1  6  0  0  0
  8 10  1  0  0  0  0
  9  3  1  0  0  0  0
  9 32  1  1  0  0  0
 10 14  1  0  0  0  0
 11  7  1  0  0  0  0
 11  6  1  0  0  0  0
 12  9  1  0  0  0  0
 13 19  1  1  0  0  0
 13  3  1  0  0  0  0
 14 12  1  0  0  0  0
 14  4  2  0  0  0  0
 15 45  1  6  0  0  0
 15  7  1  0  0  0  0
 15  8  1  0  0  0  0
 17 22  1  0  0  0  0
 17 19  1  0  0  0  0
 18 16  1  0  0  0  0
 19 18  2  0  0  0  0
 20 17  2  0  0  0  0
 21 16  2  0  0  0  0
 22 21  1  0  0  0  0
 23 22  1  0  0  0  0
 24 26  1  0  0  0  0
 25 28  1  0  0  0  0
 25 24  1  0  0  0  0
 26 23  1  6  0  0  0
 26 27  1  0  0  0  0
 28 29  2  0  0  0  0
 29 27  1  0  0  0  0
 31 30  1  0  0  0  0
 32 38  1  0  0  0  0
 33 37  1  0  0  0  0
 34 36  2  0  0  0  0
 35 40  1  0  0  0  0
 36 35  1  0  0  0  0
 37 35  2  0  0  0  0
 38 34  1  0  0  0  0
 38 33  2  0  0  0  0
 40 41  2  0  0  0  0
 40 39  1  0  0  0  0
 42 11  1  0  0  0  0
 43 42  1  0  0  0  0
 44 43  1  0  0  0  0
 45 46  1  0  0  0  0
 46 47  2  0  0  0  0
 48 49  1  0  0  0  0
 48 46  1  0  0  0  0
 50 49  1  0  0  0  0
 51 49  1  0  0  0  0
 51 53  1  0  0  0  0
 52 57  1  0  0  0  0
 53 52  2  0  0  0  0
 54 55  1  0  0  0  0
 55 56  2  0  0  0  0
 56 57  1  0  0  0  0
 58 54  2  0  0  0  0
 58 53  1  0  0  0  0
M  END
>  <MODEL>
9

>  <REMARK>
 VINA RESULT:      -5.8      2.538      8.185
  Name = 
  15 active torsions:
  status: ('A' for Active; 'I' for Inactive)
    1  A    between atoms: C_4  and  C_10
    2  A    between atoms: C_8  and  C_36
    3  A    between atoms: C_8  and  O_39
    4  A    between atoms: C_10  and  N_17
    5  A    between atoms: N_17  and  O_39
    6  A    between atoms: C_22  and  C_56
    7  A    between atoms: C_23  and  C_41
    8  A    between atoms: C_23  and  C_52
    9  A    between atoms: C_24  and  C_31
   10  A    between atoms: C_33  and  O_35
   11  A    between atoms: C_34  and  C_37
   12  A    between atoms: C_34  and  N_47
   13  A    between atoms: C_36  and  C_58
   14  A    between atoms: C_40  and  N_48
   15  A    between atoms: N_48  and  N_53
                            x       y       z     vdW  Elec       q    Type
                         _______ _______ _______ _____ _____    ______ ____

>  <TORSDO>
F 15

$$$$
