=
 OpenBabel10222419073D

 48 52  0  0  1  0  0  0  0  0999 V2000
  190.5170  176.8120  140.4550 S   0  0  0  0  0  0  0  0  0  0  0  0
  189.9980  176.3960  142.1640 C   0  0  2  0  0  3  0  0  0  0  0  0
  189.1590  177.9890  140.3910 C   0  0  2  0  0  3  0  0  0  0  0  0
  188.5560  176.6310  142.3230 N   0  0  0  0  0  2  0  0  0  0  0  0
  188.0260  177.4040  141.2050 C   0  0  1  0  0  3  0  0  0  0  0  0
  189.0900  179.2550  138.2000 O   0  0  0  0  0  0  0  0  0  0  0  0
  188.0030  177.3110  138.3550 N   0  0  0  0  0  0  0  0  0  0  0  0
  188.4720  179.1410  136.9310 C   0  0  0  0  0  2  0  0  0  0  0  0
  188.7670  178.1510  138.9590 C   0  0  0  0  0  0  0  0  0  0  0  0
  187.6730  177.8420  137.0490 C   0  0  1  0  0  3  0  0  0  0  0  0
  187.9600  176.8580  135.9130 C   0  0  2  0  0  3  0  0  0  0  0  0
  187.0570  177.0580  134.8780 O   0  0  0  0  0  1  0  0  0  0  0  0
  186.3330  173.4290  135.9070 C   0  0  2  0  0  3  0  0  0  0  0  0
  187.6140  173.0980  135.1400 C   0  0  2  0  0  3  0  0  0  0  0  0
  189.5340  173.4340  136.5990 C   0  0  0  0  0  2  0  0  0  0  0  0
  188.0500  175.3570  136.3010 C   0  0  2  0  0  3  0  0  0  0  0  0
  188.5970  172.5410  135.9840 O   0  0  0  0  0  0  0  0  0  0  0  0
  189.4750  174.8630  136.1180 C   0  0  0  0  0  2  0  0  0  0  0  0
  187.1900  174.5560  135.3250 C   0  0  2  0  0  3  0  0  0  0  0  0
  185.2030  172.8330  137.9220 O   0  0  0  0  0  1  0  0  0  0  0  0
  186.4210  173.2930  137.4250 C   0  0  0  0  0  2  0  0  0  0  0  0
  190.3040  178.5590  143.1060 C   0  0  0  0  0  1  0  0  0  0  0  0
  190.7420  177.1650  143.1790 N   0  0  0  0  0  0  0  0  0  0  0  0
  191.7490  176.3470  145.3310 C   0  0  0  0  0  2  0  0  0  0  0  0
  190.4710  176.6220  144.5280 C   0  0  1  0  0  3  0  0  0  0  0  0
  190.1730  177.3470  146.7390 C   0  0  0  0  0  0  0  0  0  0  0  0
  191.3490  176.7530  146.6960 C   0  0  0  0  0  0  0  0  0  0  0  0
  189.5390  177.4770  145.3970 C   0  0  0  0  0  2  0  0  0  0  0  0
  192.1320  176.5220  147.8150 O   0  0  0  0  0  1  0  0  0  0  0  0
  189.6180  177.8870  147.9350 N   0  0  0  0  0  2  0  0  0  0  0  0
  188.3180  177.4560  148.4400 C   0  0  0  0  0  2  0  0  0  0  0  0
  186.4810  177.1420  146.2170 O   0  0  0  0  0  0  0  0  0  0  0  0
  185.4530  179.2680  146.4940 C   0  0  0  0  0  1  0  0  0  0  0  0
  186.4120  178.1980  146.8980 C   0  0  0  0  0  0  0  0  0  0  0  0
  187.2660  178.3840  148.0400 N   0  0  0  0  0  2  0  0  0  0  0  0
  187.1310  178.5300  141.7300 C   0  0  0  0  0  2  0  0  0  0  0  0
  186.2010  178.0390  142.8230 C   0  0  0  0  0  2  0  0  0  0  0  0
  184.8290  178.5810  142.6490 C   0  0  0  0  0  0  0  0  0  0  0  0
  183.9590  177.9930  141.6740 N   0  0  0  0  0  2  0  0  0  0  0  0
  184.4460  179.5660  143.3440 O   0  0  0  0  0  0  0  0  0  0  0  0
  182.6270  178.4950  141.3820 C   0  0  0  0  0  2  0  0  0  0  0  0
  182.6020  179.2910  140.0740 C   0  0  0  0  0  2  0  0  0  0  0  0
  183.6540  178.8130  139.0890 C   0  0  2  0  0  3  0  0  0  0  0  0
  184.6810  179.7660  138.9960 O   0  0  0  0  0  1  0  0  0  0  0  0
  183.0680  178.5390  137.7150 C   0  0  0  0  0  2  0  0  0  0  0  0
  184.2360  176.2250  137.8830 C   0  0  0  0  0  1  0  0  0  0  0  0
  183.7520  177.3740  137.0680 C   0  0  0  0  0  0  0  0  0  0  0  0
  183.9010  177.3570  135.8590 O   0  0  0  0  0  0  0  0  0  0  0  0
  1  2  1  0  0  0  0
  2  4  1  0  0  0  0
  2 23  1  1  0  0  0
  3  9  1  6  0  0  0
  3  1  1  0  0  0  0
  3  5  1  0  0  0  0
  5 36  1  1  0  0  0
  5  4  1  0  0  0  0
  6  9  1  0  0  0  0
  7  9  2  0  0  0  0
  8 10  1  0  0  0  0
  8  6  1  0  0  0  0
 10 11  1  6  0  0  0
 10  7  1  0  0  0  0
 11 12  1  6  0  0  0
 13 21  1  1  0  0  0
 14 19  1  0  0  0  0
 14 13  1  0  0  0  0
 14 17  1  1  0  0  0
 16 11  1  6  0  0  0
 17 15  1  0  0  0  0
 18 16  1  0  0  0  0
 18 15  1  0  0  0  0
 19 13  1  0  0  0  0
 19 16  1  0  0  0  0
 21 20  1  0  0  0  0
 22 23  1  0  0  0  0
 23 25  1  0  0  0  0
 24 27  1  0  0  0  0
 25 24  1  0  0  0  0
 25 28  1  0  0  0  0
 26 30  1  0  0  0  0
 27 26  2  0  0  0  0
 27 29  1  0  0  0  0
 28 26  1  0  0  0  0
 30 31  1  0  0  0  0
 32 34  2  0  0  0  0
 33 34  1  0  0  0  0
 34 35  1  0  0  0  0
 35 31  1  0  0  0  0
 36 37  1  0  0  0  0
 38 37  1  0  0  0  0
 38 40  2  0  0  0  0
 39 38  1  0  0  0  0
 41 39  1  0  0  0  0
 42 41  1  0  0  0  0
 43 42  1  0  0  0  0
 44 43  1  0  0  0  0
 45 43  1  0  0  0  0
 47 45  1  0  0  0  0
 47 46  1  0  0  0  0
 48 47  2  0  0  0  0
M  END
>  <MODEL>
1

>  <REMARK>
 VINA RESULT:      -7.7      0.000      0.000
  Name = 
  17 active torsions:
  status: ('A' for Active; 'I' for Inactive)
    1  A    between atoms: C_1  and  C_25
    2  A    between atoms: C_1  and  C_46
    3  A    between atoms: C_2  and  C_9
    4  A    between atoms: C_2  and  C_24
    5  A    between atoms: C_3  and  C_36
    6  A    between atoms: C_3  and  C_45
    7  A    between atoms: C_7  and  C_30
    8  A    between atoms: C_9  and  C_17
    9  A    between atoms: C_10  and  N_37
   10  A    between atoms: C_14  and  C_36
   11  A    between atoms: C_18  and  N_37
   12  A    between atoms: C_19  and  N_21
   13  A    between atoms: N_21  and  C_27
   14  A    between atoms: C_24  and  C_29
   15  A    between atoms: C_26  and  C_33
   16  A    between atoms: C_27  and  N_48
   17  A    between atoms: C_29  and  N_32
                            x       y       z     vdW  Elec       q    Type
                         _______ _______ _______ _____ _____    ______ ____

>  <TORSDO>
F 17

$$$$
=
 OpenBabel10222419073D

 48 52  0  0  1  0  0  0  0  0999 V2000
  190.2830  176.8650  140.5960 S   0  0  0  0  0  0  0  0  0  0  0  0
  189.8040  176.4740  142.3230 C   0  0  2  0  0  3  0  0  0  0  0  0
  188.9760  178.1000  140.5740 C   0  0  2  0  0  3  0  0  0  0  0  0
  188.3800  176.7730  142.5290 N   0  0  0  0  0  2  0  0  0  0  0  0
  187.8470  177.5660  141.4270 C   0  0  1  0  0  3  0  0  0  0  0  0
  189.1430  179.1550  138.2790 O   0  0  0  0  0  0  0  0  0  0  0  0
  187.5050  177.6920  138.6740 N   0  0  0  0  0  0  0  0  0  0  0  0
  188.4220  179.1580  137.0600 C   0  0  0  0  0  2  0  0  0  0  0  0
  188.5440  178.2760  139.1550 C   0  0  0  0  0  0  0  0  0  0  0  0
  187.2600  178.2060  137.3430 C   0  0  1  0  0  3  0  0  0  0  0  0
  187.1220  177.1010  136.2910 C   0  0  2  0  0  3  0  0  0  0  0  0
  186.6340  177.6370  135.1080 O   0  0  0  0  0  1  0  0  0  0  0  0
  183.8270  175.2200  136.2570 C   0  0  2  0  0  3  0  0  0  0  0  0
  184.7140  174.1810  135.5700 C   0  0  2  0  0  3  0  0  0  0  0  0
  186.4270  173.4300  137.1290 C   0  0  0  0  0  2  0  0  0  0  0  0
  186.3230  175.8380  136.7120 C   0  0  2  0  0  3  0  0  0  0  0  0
  185.1700  173.2030  136.4790 O   0  0  0  0  0  0  0  0  0  0  0  0
  187.2140  174.6110  136.6200 C   0  0  0  0  0  2  0  0  0  0  0  0
  185.1950  175.6270  135.7030 C   0  0  2  0  0  3  0  0  0  0  0  0
  182.4450  175.2590  138.2010 O   0  0  0  0  0  1  0  0  0  0  0  0
  183.7670  175.1300  137.7800 C   0  0  0  0  0  2  0  0  0  0  0  0
  190.2840  178.6330  143.2000 C   0  0  0  0  0  1  0  0  0  0  0  0
  190.6150  177.2110  143.3100 N   0  0  0  0  0  0  0  0  0  0  0  0
  191.5740  176.5410  145.5330 C   0  0  0  0  0  2  0  0  0  0  0  0
  190.3150  176.7290  144.6760 C   0  0  1  0  0  3  0  0  0  0  0  0
  189.9170  177.5550  146.8350 C   0  0  0  0  0  0  0  0  0  0  0  0
  191.1130  177.0010  146.8620 C   0  0  0  0  0  0  0  0  0  0  0  0
  189.3260  177.5940  145.4680 C   0  0  0  0  0  2  0  0  0  0  0  0
  191.8650  176.8550  148.0160 O   0  0  0  0  0  1  0  0  0  0  0  0
  189.3040  178.1360  147.9830 N   0  0  0  0  0  2  0  0  0  0  0  0
  187.9520  177.7730  148.3960 C   0  0  0  0  0  2  0  0  0  0  0  0
  185.9440  179.7720  147.7730 O   0  0  0  0  0  0  0  0  0  0  0  0
  185.0570  178.6010  145.9040 C   0  0  0  0  0  1  0  0  0  0  0  0
  186.0300  178.7650  147.0240 C   0  0  0  0  0  0  0  0  0  0  0  0
  187.0390  177.7670  147.2590 N   0  0  0  0  0  2  0  0  0  0  0  0
  187.0200  178.7300  141.9780 C   0  0  0  0  0  2  0  0  0  0  0  0
  185.6360  178.2790  142.4050 C   0  0  0  0  0  2  0  0  0  0  0  0
  184.5990  178.7330  141.4440 C   0  0  0  0  0  0  0  0  0  0  0  0
  185.0000  179.2700  140.1770 N   0  0  0  0  0  2  0  0  0  0  0  0
  183.3740  178.6630  141.7550 O   0  0  0  0  0  0  0  0  0  0  0  0
  184.0660  179.8020  139.2000 C   0  0  0  0  0  2  0  0  0  0  0  0
  183.3960  178.6830  138.3980 C   0  0  0  0  0  2  0  0  0  0  0  0
  181.9560  179.0100  138.0440 C   0  0  2  0  0  3  0  0  0  0  0  0
  181.7270  178.7280  136.6880 O   0  0  0  0  0  1  0  0  0  0  0  0
  181.6070  180.4570  138.3450 C   0  0  0  0  0  2  0  0  0  0  0  0
  179.9250  179.3120  139.9590 C   0  0  0  0  0  1  0  0  0  0  0  0
  180.4670  180.5390  139.3120 C   0  0  0  0  0  0  0  0  0  0  0  0
  179.9860  181.6240  139.5870 O   0  0  0  0  0  0  0  0  0  0  0  0
  1  2  1  0  0  0  0
  2  4  1  0  0  0  0
  2 23  1  1  0  0  0
  3  9  1  6  0  0  0
  3  1  1  0  0  0  0
  3  5  1  0  0  0  0
  5 36  1  1  0  0  0
  5  4  1  0  0  0  0
  6  9  1  0  0  0  0
  7  9  2  0  0  0  0
  8 10  1  0  0  0  0
  8  6  1  0  0  0  0
 10 11  1  6  0  0  0
 10  7  1  0  0  0  0
 11 12  1  6  0  0  0
 13 21  1  1  0  0  0
 14 19  1  0  0  0  0
 14 13  1  0  0  0  0
 14 17  1  1  0  0  0
 16 11  1  6  0  0  0
 17 15  1  0  0  0  0
 18 16  1  0  0  0  0
 18 15  1  0  0  0  0
 19 13  1  0  0  0  0
 19 16  1  0  0  0  0
 21 20  1  0  0  0  0
 22 23  1  0  0  0  0
 23 25  1  0  0  0  0
 24 27  1  0  0  0  0
 25 28  1  0  0  0  0
 25 24  1  0  0  0  0
 26 27  2  0  0  0  0
 26 30  1  0  0  0  0
 27 29  1  0  0  0  0
 28 26  1  0  0  0  0
 30 31  1  0  0  0  0
 33 34  1  0  0  0  0
 34 35  1  0  0  0  0
 34 32  2  0  0  0  0
 35 31  1  0  0  0  0
 36 37  1  0  0  0  0
 38 40  2  0  0  0  0
 38 37  1  0  0  0  0
 39 38  1  0  0  0  0
 41 39  1  0  0  0  0
 42 41  1  0  0  0  0
 43 45  1  0  0  0  0
 43 42  1  0  0  0  0
 44 43  1  0  0  0  0
 45 47  1  0  0  0  0
 47 48  2  0  0  0  0
 47 46  1  0  0  0  0
M  END
>  <MODEL>
2

>  <REMARK>
 VINA RESULT:      -7.5      1.557      2.287
  Name = 
  17 active torsions:
  status: ('A' for Active; 'I' for Inactive)
    1  A    between atoms: C_1  and  C_25
    2  A    between atoms: C_1  and  C_46
    3  A    between atoms: C_2  and  C_9
    4  A    between atoms: C_2  and  C_24
    5  A    between atoms: C_3  and  C_36
    6  A    between atoms: C_3  and  C_45
    7  A    between atoms: C_7  and  C_30
    8  A    between atoms: C_9  and  C_17
    9  A    between atoms: C_10  and  N_37
   10  A    between atoms: C_14  and  C_36
   11  A    between atoms: C_18  and  N_37
   12  A    between atoms: C_19  and  N_21
   13  A    between atoms: N_21  and  C_27
   14  A    between atoms: C_24  and  C_29
   15  A    between atoms: C_26  and  C_33
   16  A    between atoms: C_27  and  N_48
   17  A    between atoms: C_29  and  N_32
                            x       y       z     vdW  Elec       q    Type
                         _______ _______ _______ _____ _____    ______ ____

>  <TORSDO>
F 17

$$$$
=
 OpenBabel10222419073D

 48 52  0  0  1  0  0  0  0  0999 V2000
  190.2730  176.8150  140.5520 S   0  0  0  0  0  0  0  0  0  0  0  0
  189.7220  176.4900  142.2710 C   0  0  2  0  0  3  0  0  0  0  0  0
  189.0290  178.1100  140.4600 C   0  0  2  0  0  3  0  0  0  0  0  0
  188.3090  176.8610  142.4240 N   0  0  0  0  0  2  0  0  0  0  0  0
  187.8490  177.6520  141.2880 C   0  0  1  0  0  3  0  0  0  0  0  0
  189.4610  178.8710  138.0840 O   0  0  0  0  0  0  0  0  0  0  0  0
  187.4860  177.9560  138.5790 N   0  0  0  0  0  0  0  0  0  0  0  0
  188.7580  178.9650  136.8590 C   0  0  0  0  0  2  0  0  0  0  0  0
  188.6510  178.2720  139.0240 C   0  0  0  0  0  0  0  0  0  0  0  0
  187.3810  178.3980  137.2040 C   0  0  1  0  0  3  0  0  0  0  0  0
  186.9350  177.2850  136.2510 C   0  0  2  0  0  3  0  0  0  0  0  0
  187.0800  177.7060  134.9370 O   0  0  0  0  0  1  0  0  0  0  0  0
  183.2850  177.1070  135.2280 C   0  0  2  0  0  3  0  0  0  0  0  0
  183.6640  175.6350  135.0600 C   0  0  2  0  0  3  0  0  0  0  0  0
  184.2750  174.7090  137.2270 C   0  0  0  0  0  2  0  0  0  0  0  0
  185.5270  176.6810  136.4990 C   0  0  2  0  0  3  0  0  0  0  0  0
  183.3000  174.8710  136.1890 O   0  0  0  0  0  0  0  0  0  0  0  0
  185.6560  175.2230  136.9030 C   0  0  0  0  0  2  0  0  0  0  0  0
  184.7590  176.6950  135.1780 C   0  0  2  0  0  3  0  0  0  0  0  0
  181.5140  178.0550  136.5150 O   0  0  0  0  0  1  0  0  0  0  0  0
  182.7910  177.5050  136.6160 C   0  0  0  0  0  2  0  0  0  0  0  0
  190.0580  178.5930  143.3320 C   0  0  0  0  0  1  0  0  0  0  0  0
  190.5370  177.2110  143.2670 N   0  0  0  0  0  0  0  0  0  0  0  0
  191.7340  176.5000  145.3580 C   0  0  0  0  0  2  0  0  0  0  0  0
  190.4060  176.5700  144.5920 C   0  0  1  0  0  3  0  0  0  0  0  0
  190.0390  177.1290  146.8410 C   0  0  0  0  0  0  0  0  0  0  0  0
  191.3020  176.7650  146.7480 C   0  0  0  0  0  0  0  0  0  0  0  0
  189.3560  177.1990  145.5190 C   0  0  0  0  0  2  0  0  0  0  0  0
  192.1440  176.6330  147.8400 O   0  0  0  0  0  1  0  0  0  0  0  0
  189.4270  177.5050  148.0710 N   0  0  0  0  0  2  0  0  0  0  0  0
  188.4190  178.5590  148.1370 C   0  0  0  0  0  2  0  0  0  0  0  0
  186.3600  179.5520  146.3510 O   0  0  0  0  0  0  0  0  0  0  0  0
  184.6930  178.0250  147.0850 C   0  0  0  0  0  1  0  0  0  0  0  0
  186.0790  178.5770  147.0940 C   0  0  0  0  0  0  0  0  0  0  0  0
  187.0770  178.0140  147.9640 N   0  0  0  0  0  2  0  0  0  0  0  0
  187.0630  178.8680  141.7850 C   0  0  0  0  0  2  0  0  0  0  0  0
  185.5770  178.7190  141.5180 C   0  0  0  0  0  2  0  0  0  0  0  0
  184.8240  178.4760  142.7750 C   0  0  0  0  0  0  0  0  0  0  0  0
  183.4960  178.9970  142.9120 N   0  0  0  0  0  2  0  0  0  0  0  0
  185.3640  177.8320  143.7210 O   0  0  0  0  0  0  0  0  0  0  0  0
  182.7070  178.8710  144.1250 C   0  0  0  0  0  2  0  0  0  0  0  0
  181.2160  178.7180  143.8100 C   0  0  0  0  0  2  0  0  0  0  0  0
  180.8210  179.4350  142.5310 C   0  0  2  0  0  3  0  0  0  0  0  0
  180.1330  180.6180  142.8450 O   0  0  0  0  0  1  0  0  0  0  0  0
  179.9720  178.5610  141.6250 C   0  0  0  0  0  2  0  0  0  0  0  0
  179.2950  178.8490  139.1340 C   0  0  0  0  0  1  0  0  0  0  0  0
  180.3430  178.7670  140.1880 C   0  0  0  0  0  0  0  0  0  0  0  0
  181.5150  178.8850  139.8790 O   0  0  0  0  0  0  0  0  0  0  0  0
  1  2  1  0  0  0  0
  2  4  1  0  0  0  0
  2 23  1  1  0  0  0
  3  9  1  6  0  0  0
  3  1  1  0  0  0  0
  3  5  1  0  0  0  0
  5 36  1  1  0  0  0
  5  4  1  0  0  0  0
  6  9  1  0  0  0  0
  7  9  2  0  0  0  0
  8 10  1  0  0  0  0
  8  6  1  0  0  0  0
 10 11  1  6  0  0  0
 10  7  1  0  0  0  0
 11 12  1  6  0  0  0
 13 21  1  1  0  0  0
 14 19  1  0  0  0  0
 14 13  1  0  0  0  0
 14 17  1  1  0  0  0
 16 11  1  6  0  0  0
 16 18  1  0  0  0  0
 17 15  1  0  0  0  0
 18 15  1  0  0  0  0
 19 13  1  0  0  0  0
 19 16  1  0  0  0  0
 20 21  1  0  0  0  0
 23 22  1  0  0  0  0
 23 25  1  0  0  0  0
 24 27  1  0  0  0  0
 25 24  1  0  0  0  0
 25 28  1  0  0  0  0
 26 30  1  0  0  0  0
 27 26  2  0  0  0  0
 27 29  1  0  0  0  0
 28 26  1  0  0  0  0
 30 31  1  0  0  0  0
 32 34  2  0  0  0  0
 33 34  1  0  0  0  0
 34 35  1  0  0  0  0
 35 31  1  0  0  0  0
 37 36  1  0  0  0  0
 37 38  1  0  0  0  0
 38 39  1  0  0  0  0
 38 40  2  0  0  0  0
 39 41  1  0  0  0  0
 42 41  1  0  0  0  0
 43 44  1  0  0  0  0
 43 42  1  0  0  0  0
 45 43  1  0  0  0  0
 46 47  1  0  0  0  0
 47 45  1  0  0  0  0
 48 47  2  0  0  0  0
M  END
>  <MODEL>
3

>  <REMARK>
 VINA RESULT:      -6.9      1.874      2.981
  Name = 
  17 active torsions:
  status: ('A' for Active; 'I' for Inactive)
    1  A    between atoms: C_1  and  C_25
    2  A    between atoms: C_1  and  C_46
    3  A    between atoms: C_2  and  C_9
    4  A    between atoms: C_2  and  C_24
    5  A    between atoms: C_3  and  C_36
    6  A    between atoms: C_3  and  C_45
    7  A    between atoms: C_7  and  C_30
    8  A    between atoms: C_9  and  C_17
    9  A    between atoms: C_10  and  N_37
   10  A    between atoms: C_14  and  C_36
   11  A    between atoms: C_18  and  N_37
   12  A    between atoms: C_19  and  N_21
   13  A    between atoms: N_21  and  C_27
   14  A    between atoms: C_24  and  C_29
   15  A    between atoms: C_26  and  C_33
   16  A    between atoms: C_27  and  N_48
   17  A    between atoms: C_29  and  N_32
                            x       y       z     vdW  Elec       q    Type
                         _______ _______ _______ _____ _____    ______ ____

>  <TORSDO>
F 17

$$$$
=
 OpenBabel10222419073D

 48 52  0  0  1  0  0  0  0  0999 V2000
  186.5460  178.5730  141.4130 S   0  0  0  0  0  0  0  0  0  0  0  0
  185.4070  178.9990  140.0410 C   0  0  2  0  0  3  0  0  0  0  0  0
  185.1110  178.0620  142.3690 C   0  0  2  0  0  3  0  0  0  0  0  0
  184.0860  179.3570  140.5770 N   0  0  0  0  0  2  0  0  0  0  0  0
  183.9710  178.9770  141.9810 C   0  0  1  0  0  3  0  0  0  0  0  0
  184.5310  178.5180  144.7910 O   0  0  0  0  0  0  0  0  0  0  0  0
  186.6670  178.1690  144.2430 N   0  0  0  0  0  0  0  0  0  0  0  0
  185.2030  178.6980  146.0250 C   0  0  0  0  0  2  0  0  0  0  0  0
  185.4550  178.2120  143.8150 C   0  0  0  0  0  0  0  0  0  0  0  0
  186.6750  178.5240  145.6470 C   0  0  1  0  0  3  0  0  0  0  0  0
  187.3980  177.4940  146.5190 C   0  0  2  0  0  3  0  0  0  0  0  0
  187.3730  177.9010  147.8450 O   0  0  0  0  0  1  0  0  0  0  0  0
  190.2200  177.8920  144.0130 C   0  0  2  0  0  3  0  0  0  0  0  0
  190.9520  178.3280  145.2840 C   0  0  2  0  0  3  0  0  0  0  0  0
  191.0700  176.4490  146.8280 C   0  0  0  0  0  2  0  0  0  0  0  0
  188.8330  177.0960  146.0780 C   0  0  2  0  0  3  0  0  0  0  0  0
  191.7040  177.2720  145.8400 O   0  0  0  0  0  0  0  0  0  0  0  0
  189.7200  176.9300  147.2990 C   0  0  0  0  0  2  0  0  0  0  0  0
  189.4240  178.2510  145.2710 C   0  0  2  0  0  3  0  0  0  0  0  0
  191.2420  176.1540  142.7380 O   0  0  0  0  0  1  0  0  0  0  0  0
  190.2690  176.3980  143.7060 C   0  0  0  0  0  2  0  0  0  0  0  0
  183.9060  177.9380  138.5310 C   0  0  0  0  0  1  0  0  0  0  0  0
  185.2670  177.9010  139.0660 N   0  0  0  0  0  0  0  0  0  0  0  0
  187.6980  178.0910  138.4610 C   0  0  0  0  0  2  0  0  0  0  0  0
  186.2450  178.0680  137.9690 C   0  0  1  0  0  3  0  0  0  0  0  0
  187.5750  176.7840  136.5260 C   0  0  0  0  0  0  0  0  0  0  0  0
  188.3970  177.3420  137.3930 C   0  0  0  0  0  0  0  0  0  0  0  0
  186.1410  177.0310  136.8430 C   0  0  0  0  0  2  0  0  0  0  0  0
  189.7770  177.2490  137.3120 O   0  0  0  0  0  1  0  0  0  0  0  0
  188.0220  175.9550  135.4560 N   0  0  0  0  0  2  0  0  0  0  0  0
  187.9590  174.4980  135.5380 C   0  0  0  0  0  2  0  0  0  0  0  0
  189.9820  173.9020  137.5310 O   0  0  0  0  0  0  0  0  0  0  0  0
  191.6140  173.1790  135.9610 C   0  0  0  0  0  1  0  0  0  0  0  0
  190.2530  173.6720  136.3240 C   0  0  0  0  0  0  0  0  0  0  0  0
  189.2690  173.9030  135.3000 N   0  0  0  0  0  2  0  0  0  0  0  0
  182.6360  178.2680  142.2190 C   0  0  0  0  0  2  0  0  0  0  0  0
  181.7020  179.1080  143.0710 C   0  0  0  0  0  2  0  0  0  0  0  0
  180.6750  179.7870  142.2390 C   0  0  0  0  0  0  0  0  0  0  0  0
  180.5460  179.4360  140.8550 N   0  0  0  0  0  2  0  0  0  0  0  0
  179.9390  180.6800  142.7490 O   0  0  0  0  0  0  0  0  0  0  0  0
  179.6210  180.0890  139.9460 C   0  0  0  0  0  2  0  0  0  0  0  0
  180.1070  181.4900  139.5640 C   0  0  0  0  0  2  0  0  0  0  0  0
  180.7820  181.5160  138.2040 C   0  0  2  0  0  3  0  0  0  0  0  0
  182.0590  180.9420  138.2990 O   0  0  0  0  0  1  0  0  0  0  0  0
  180.8800  182.9230  137.6410 C   0  0  0  0  0  2  0  0  0  0  0  0
  180.8220  184.1430  135.3490 C   0  0  0  0  0  1  0  0  0  0  0  0
  180.5610  182.9340  136.1780 C   0  0  0  0  0  0  0  0  0  0  0  0
  180.0960  181.9370  135.6540 O   0  0  0  0  0  0  0  0  0  0  0  0
  1  3  1  0  0  0  0
  2 23  1  6  0  0  0
  2  4  1  0  0  0  0
  2  1  1  0  0  0  0
  3  9  1  1  0  0  0
  4  5  1  0  0  0  0
  5 36  1  6  0  0  0
  5  3  1  0  0  0  0
  6  8  1  0  0  0  0
  7 10  1  0  0  0  0
  9  7  2  0  0  0  0
  9  6  1  0  0  0  0
 10  8  1  0  0  0  0
 10 11  1  1  0  0  0
 11 12  1  1  0  0  0
 13 21  1  1  0  0  0
 13 19  1  0  0  0  0
 13 14  1  0  0  0  0
 14 17  1  1  0  0  0
 15 18  1  0  0  0  0
 16 11  1  1  0  0  0
 16 18  1  0  0  0  0
 17 15  1  0  0  0  0
 19 14  1  0  0  0  0
 19 16  1  0  0  0  0
 20 21  1  0  0  0  0
 22 23  1  0  0  0  0
 25 24  1  0  0  0  0
 25 23  1  0  0  0  0
 26 28  1  0  0  0  0
 26 27  2  0  0  0  0
 27 24  1  0  0  0  0
 28 25  1  0  0  0  0
 29 27  1  0  0  0  0
 30 31  1  0  0  0  0
 30 26  1  0  0  0  0
 33 34  1  0  0  0  0
 34 32  2  0  0  0  0
 35 31  1  0  0  0  0
 35 34  1  0  0  0  0
 36 37  1  0  0  0  0
 38 40  2  0  0  0  0
 38 37  1  0  0  0  0
 39 38  1  0  0  0  0
 41 39  1  0  0  0  0
 42 41  1  0  0  0  0
 43 44  1  0  0  0  0
 43 42  1  0  0  0  0
 45 43  1  0  0  0  0
 46 47  1  0  0  0  0
 47 45  1  0  0  0  0
 48 47  2  0  0  0  0
M  END
>  <MODEL>
4

>  <REMARK>
 VINA RESULT:      -6.9      2.794      8.672
  Name = 
  17 active torsions:
  status: ('A' for Active; 'I' for Inactive)
    1  A    between atoms: C_1  and  C_25
    2  A    between atoms: C_1  and  C_46
    3  A    between atoms: C_2  and  C_9
    4  A    between atoms: C_2  and  C_24
    5  A    between atoms: C_3  and  C_36
    6  A    between atoms: C_3  and  C_45
    7  A    between atoms: C_7  and  C_30
    8  A    between atoms: C_9  and  C_17
    9  A    between atoms: C_10  and  N_37
   10  A    between atoms: C_14  and  C_36
   11  A    between atoms: C_18  and  N_37
   12  A    between atoms: C_19  and  N_21
   13  A    between atoms: N_21  and  C_27
   14  A    between atoms: C_24  and  C_29
   15  A    between atoms: C_26  and  C_33
   16  A    between atoms: C_27  and  N_48
   17  A    between atoms: C_29  and  N_32
                            x       y       z     vdW  Elec       q    Type
                         _______ _______ _______ _____ _____    ______ ____

>  <TORSDO>
F 17

$$$$
=
 OpenBabel10222419073D

 48 52  0  0  1  0  0  0  0  0999 V2000
  191.3680  176.1500  138.7110 S   0  0  0  0  0  0  0  0  0  0  0  0
  190.5920  176.7790  137.1730 C   0  0  2  0  0  3  0  0  0  0  0  0
  189.9400  176.7650  139.6140 C   0  0  2  0  0  3  0  0  0  0  0  0
  189.7210  177.9210  137.4810 N   0  0  0  0  0  2  0  0  0  0  0  0
  189.4830  178.0260  138.9160 C   0  0  1  0  0  3  0  0  0  0  0  0
  191.6990  177.0660  141.4110 O   0  0  0  0  0  0  0  0  0  0  0  0
  189.5440  177.2000  141.9790 N   0  0  0  0  0  0  0  0  0  0  0  0
  191.7580  177.2530  142.8130 C   0  0  0  0  0  2  0  0  0  0  0  0
  190.3790  177.0510  141.0130 C   0  0  0  0  0  0  0  0  0  0  0  0
  190.2840  177.2830  143.2210 C   0  0  1  0  0  3  0  0  0  0  0  0
  189.9190  178.5150  144.0540 C   0  0  2  0  0  3  0  0  0  0  0  0
  191.0190  179.3530  144.1620 O   0  0  0  0  0  1  0  0  0  0  0  0
  186.7890  177.7200  146.0480 C   0  0  2  0  0  3  0  0  0  0  0  0
  187.6490  176.5190  146.4440 C   0  0  2  0  0  3  0  0  0  0  0  0
  189.6010  177.2980  147.6720 C   0  0  0  0  0  2  0  0  0  0  0  0
  189.2740  178.2480  145.4410 C   0  0  2  0  0  3  0  0  0  0  0  0
  188.2890  176.7220  147.6850 O   0  0  0  0  0  0  0  0  0  0  0  0
  190.2290  177.4460  146.3080 C   0  0  0  0  0  2  0  0  0  0  0  0
  188.0390  177.3710  145.2360 C   0  0  2  0  0  3  0  0  0  0  0  0
  185.6790  179.4930  147.1940 O   0  0  0  0  0  1  0  0  0  0  0  0
  186.9380  178.9550  146.9320 C   0  0  0  0  0  2  0  0  0  0  0  0
  188.9010  176.4030  135.5420 C   0  0  0  0  0  1  0  0  0  0  0  0
  189.8190  175.7390  136.4690 N   0  0  0  0  0  0  0  0  0  0  0  0
  191.9610  175.5740  135.1680 C   0  0  0  0  0  2  0  0  0  0  0  0
  190.7300  174.8450  135.7220 C   0  0  1  0  0  3  0  0  0  0  0  0
  192.6360  173.5210  136.0590 C   0  0  0  0  0  0  0  0  0  0  0  0
  193.0280  174.5660  135.3580 C   0  0  0  0  0  0  0  0  0  0  0  0
  191.2170  173.6150  136.5000 C   0  0  0  0  0  2  0  0  0  0  0  0
  194.3050  174.7090  134.8420 O   0  0  0  0  0  1  0  0  0  0  0  0
  193.5150  172.4610  136.4290 N   0  0  0  0  0  2  0  0  0  0  0  0
  194.8980  172.7130  136.8200 C   0  0  0  0  0  2  0  0  0  0  0  0
  196.4260  175.0700  137.5440 O   0  0  0  0  0  0  0  0  0  0  0  0
  195.8820  174.9700  139.8560 C   0  0  0  0  0  1  0  0  0  0  0  0
  195.7790  174.4830  138.4490 C   0  0  0  0  0  0  0  0  0  0  0  0
  194.9660  173.3380  138.1360 N   0  0  0  0  0  2  0  0  0  0  0  0
  187.9930  178.2520  139.1800 C   0  0  0  0  0  2  0  0  0  0  0  0
  187.1530  177.9200  137.9610 C   0  0  0  0  0  2  0  0  0  0  0  0
  185.7220  178.2470  138.1850 C   0  0  0  0  0  0  0  0  0  0  0  0
  185.3440  178.9920  139.3490 N   0  0  0  0  0  2  0  0  0  0  0  0
  184.8460  177.8490  137.3630 O   0  0  0  0  0  0  0  0  0  0  0  0
  183.9660  179.3010  139.6910 C   0  0  0  0  0  2  0  0  0  0  0  0
  183.3950  178.2880  140.6870 C   0  0  0  0  0  2  0  0  0  0  0  0
  182.6550  178.9570  141.8310 C   0  0  2  0  0  3  0  0  0  0  0  0
  183.3650  178.7710  143.0270 O   0  0  0  0  0  1  0  0  0  0  0  0
  181.2360  178.4360  141.9770 C   0  0  0  0  0  2  0  0  0  0  0  0
  179.8220  179.1030  144.0510 C   0  0  0  0  0  1  0  0  0  0  0  0
  180.3790  179.4230  142.7080 C   0  0  0  0  0  0  0  0  0  0  0  0
  180.1470  180.5090  142.2060 O   0  0  0  0  0  0  0  0  0  0  0  0
  1  3  1  0  0  0  0
  2 23  1  1  0  0  0
  2  4  1  0  0  0  0
  2  1  1  0  0  0  0
  3  9  1  1  0  0  0
  4  5  1  0  0  0  0
  5 36  1  6  0  0  0
  5  3  1  0  0  0  0
  6  8  1  0  0  0  0
  7 10  1  0  0  0  0
  8 10  1  0  0  0  0
  9  6  1  0  0  0  0
  9  7  2  0  0  0  0
 10 11  1  6  0  0  0
 11 12  1  1  0  0  0
 13 14  1  0  0  0  0
 13 21  1  1  0  0  0
 14 17  1  1  0  0  0
 15 17  1  0  0  0  0
 16 11  1  6  0  0  0
 16 18  1  0  0  0  0
 18 15  1  0  0  0  0
 19 16  1  0  0  0  0
 19 13  1  0  0  0  0
 19 14  1  0  0  0  0
 21 20  1  0  0  0  0
 22 23  1  0  0  0  0
 24 27  1  0  0  0  0
 24 25  1  0  0  0  0
 25 23  1  0  0  0  0
 25 28  1  0  0  0  0
 26 30  1  0  0  0  0
 26 28  1  0  0  0  0
 27 26  2  0  0  0  0
 29 27  1  0  0  0  0
 30 31  1  0  0  0  0
 31 35  1  0  0  0  0
 32 34  2  0  0  0  0
 34 33  1  0  0  0  0
 35 34  1  0  0  0  0
 37 38  1  0  0  0  0
 37 36  1  0  0  0  0
 38 39  1  0  0  0  0
 39 41  1  0  0  0  0
 40 38  2  0  0  0  0
 41 42  1  0  0  0  0
 42 43  1  0  0  0  0
 43 45  1  0  0  0  0
 43 44  1  0  0  0  0
 45 47  1  0  0  0  0
 47 46  1  0  0  0  0
 48 47  2  0  0  0  0
M  END
>  <MODEL>
5

>  <REMARK>
 VINA RESULT:      -6.7      3.383      8.852
  Name = 
  17 active torsions:
  status: ('A' for Active; 'I' for Inactive)
    1  A    between atoms: C_1  and  C_25
    2  A    between atoms: C_1  and  C_46
    3  A    between atoms: C_2  and  C_9
    4  A    between atoms: C_2  and  C_24
    5  A    between atoms: C_3  and  C_36
    6  A    between atoms: C_3  and  C_45
    7  A    between atoms: C_7  and  C_30
    8  A    between atoms: C_9  and  C_17
    9  A    between atoms: C_10  and  N_37
   10  A    between atoms: C_14  and  C_36
   11  A    between atoms: C_18  and  N_37
   12  A    between atoms: C_19  and  N_21
   13  A    between atoms: N_21  and  C_27
   14  A    between atoms: C_24  and  C_29
   15  A    between atoms: C_26  and  C_33
   16  A    between atoms: C_27  and  N_48
   17  A    between atoms: C_29  and  N_32
                            x       y       z     vdW  Elec       q    Type
                         _______ _______ _______ _____ _____    ______ ____

>  <TORSDO>
F 17

$$$$
=
 OpenBabel10222419073D

 48 52  0  0  1  0  0  0  0  0999 V2000
  189.9080  175.4420  136.1020 S   0  0  0  0  0  0  0  0  0  0  0  0
  191.0830  175.2790  137.5000 C   0  0  2  0  0  3  0  0  0  0  0  0
  189.2350  176.8990  136.9120 C   0  0  2  0  0  3  0  0  0  0  0  0
  190.4990  175.8590  138.7170 N   0  0  0  0  0  2  0  0  0  0  0  0
  189.3180  176.6560  138.4020 C   0  0  1  0  0  3  0  0  0  0  0  0
  187.4530  177.4170  135.1900 O   0  0  0  0  0  0  0  0  0  0  0  0
  186.8270  176.9510  137.2810 N   0  0  0  0  0  0  0  0  0  0  0  0
  186.0470  177.5790  135.1380 C   0  0  0  0  0  2  0  0  0  0  0  0
  187.8170  177.0500  136.4680 C   0  0  0  0  0  0  0  0  0  0  0  0
  185.6150  177.3230  136.5820 C   0  0  1  0  0  3  0  0  0  0  0  0
  184.5090  176.2700  136.6980 C   0  0  2  0  0  3  0  0  0  0  0  0
  183.9760  176.2860  137.9780 O   0  0  0  0  0  1  0  0  0  0  0  0
  185.9240  172.8780  137.6470 C   0  0  2  0  0  3  0  0  0  0  0  0
  184.5330  172.4470  137.1830 C   0  0  2  0  0  3  0  0  0  0  0  0
  184.2850  172.9430  134.8130 C   0  0  0  0  0  2  0  0  0  0  0  0
  184.8770  174.8260  136.2580 C   0  0  2  0  0  3  0  0  0  0  0  0
  184.5460  171.9890  135.8490 O   0  0  0  0  0  0  0  0  0  0  0  0
  183.8340  174.3030  135.2860 C   0  0  0  0  0  2  0  0  0  0  0  0
  184.8140  173.9200  137.4860 C   0  0  2  0  0  3  0  0  0  0  0  0
  187.8730  171.8590  136.7230 O   0  0  0  0  0  1  0  0  0  0  0  0
  186.9940  172.9280  136.5590 C   0  0  0  0  0  2  0  0  0  0  0  0
  192.8450  176.5670  138.4460 C   0  0  0  0  0  1  0  0  0  0  0  0
  192.3820  175.9180  137.2190 N   0  0  0  0  0  0  0  0  0  0  0  0
  194.7520  175.4930  136.5010 C   0  0  0  0  0  2  0  0  0  0  0  0
  193.3650  174.9010  136.7850 C   0  0  1  0  0  3  0  0  0  0  0  0
  195.0120  173.4880  137.6750 C   0  0  0  0  0  0  0  0  0  0  0  0
  195.6500  174.4380  137.0190 C   0  0  0  0  0  0  0  0  0  0  0  0
  193.5420  173.7170  137.7440 C   0  0  0  0  0  2  0  0  0  0  0  0
  197.0210  174.4480  136.8250 O   0  0  0  0  0  1  0  0  0  0  0  0
  195.6800  172.4090  138.3230 N   0  0  0  0  0  2  0  0  0  0  0  0
  195.6090  171.0440  137.8110 C   0  0  0  0  0  2  0  0  0  0  0  0
  198.4410  171.0060  137.1840 O   0  0  0  0  0  0  0  0  0  0  0  0
  198.1330  171.0110  134.8270 C   0  0  0  0  0  1  0  0  0  0  0  0
  197.6230  170.9810  136.2290 C   0  0  0  0  0  0  0  0  0  0  0  0
  196.2070  170.9500  136.4840 N   0  0  0  0  0  2  0  0  0  0  0  0
  189.3840  177.9950  139.1420 C   0  0  0  0  0  2  0  0  0  0  0  0
  188.3460  178.0740  140.2460 C   0  0  0  0  0  2  0  0  0  0  0  0
  188.8730  177.5310  141.5240 C   0  0  0  0  0  0  0  0  0  0  0  0
  187.9570  177.1360  142.5530 N   0  0  0  0  0  2  0  0  0  0  0  0
  190.1220  177.4390  141.7030 O   0  0  0  0  0  0  0  0  0  0  0  0
  188.3760  176.6590  143.8600 C   0  0  0  0  0  2  0  0  0  0  0  0
  188.7930  177.8170  144.7710 C   0  0  0  0  0  2  0  0  0  0  0  0
  187.9660  177.8740  146.0440 C   0  0  2  0  0  3  0  0  0  0  0  0
  188.5800  177.1010  147.0420 O   0  0  0  0  0  1  0  0  0  0  0  0
  186.5390  177.4050  145.8200 C   0  0  0  0  0  2  0  0  0  0  0  0
  184.9880  179.1800  144.7290 C   0  0  0  0  0  1  0  0  0  0  0  0
  185.5780  178.5470  145.9420 C   0  0  0  0  0  0  0  0  0  0  0  0
  185.2620  178.9550  147.0450 O   0  0  0  0  0  0  0  0  0  0  0  0
  1  3  1  0  0  0  0
  1  2  1  0  0  0  0
  2 23  1  6  0  0  0
  2  4  1  0  0  0  0
  3  9  1  6  0  0  0
  3  5  1  0  0  0  0
  5  4  1  0  0  0  0
  5 36  1  1  0  0  0
  6  9  1  0  0  0  0
  8  6  1  0  0  0  0
  8 10  1  0  0  0  0
  9  7  2  0  0  0  0
 10 11  1  6  0  0  0
 10  7  1  0  0  0  0
 11 12  1  1  0  0  0
 13 21  1  6  0  0  0
 14 17  1  6  0  0  0
 14 19  1  0  0  0  0
 14 13  1  0  0  0  0
 15 18  1  0  0  0  0
 15 17  1  0  0  0  0
 16 11  1  1  0  0  0
 16 19  1  0  0  0  0
 18 16  1  0  0  0  0
 19 13  1  0  0  0  0
 21 20  1  0  0  0  0
 23 22  1  0  0  0  0
 24 25  1  0  0  0  0
 24 27  1  0  0  0  0
 25 23  1  0  0  0  0
 25 28  1  0  0  0  0
 26 28  1  0  0  0  0
 26 30  1  0  0  0  0
 27 26  2  0  0  0  0
 29 27  1  0  0  0  0
 31 30  1  0  0  0  0
 33 34  1  0  0  0  0
 34 35  1  0  0  0  0
 34 32  2  0  0  0  0
 35 31  1  0  0  0  0
 36 37  1  0  0  0  0
 37 38  1  0  0  0  0
 38 40  2  0  0  0  0
 38 39  1  0  0  0  0
 39 41  1  0  0  0  0
 41 42  1  0  0  0  0
 42 43  1  0  0  0  0
 43 44  1  0  0  0  0
 45 47  1  0  0  0  0
 45 43  1  0  0  0  0
 46 47  1  0  0  0  0
 47 48  2  0  0  0  0
M  END
>  <MODEL>
6

>  <REMARK>
 VINA RESULT:      -6.7      4.247      8.240
  Name = 
  17 active torsions:
  status: ('A' for Active; 'I' for Inactive)
    1  A    between atoms: C_1  and  C_25
    2  A    between atoms: C_1  and  C_46
    3  A    between atoms: C_2  and  C_9
    4  A    between atoms: C_2  and  C_24
    5  A    between atoms: C_3  and  C_36
    6  A    between atoms: C_3  and  C_45
    7  A    between atoms: C_7  and  C_30
    8  A    between atoms: C_9  and  C_17
    9  A    between atoms: C_10  and  N_37
   10  A    between atoms: C_14  and  C_36
   11  A    between atoms: C_18  and  N_37
   12  A    between atoms: C_19  and  N_21
   13  A    between atoms: N_21  and  C_27
   14  A    between atoms: C_24  and  C_29
   15  A    between atoms: C_26  and  C_33
   16  A    between atoms: C_27  and  N_48
   17  A    between atoms: C_29  and  N_32
                            x       y       z     vdW  Elec       q    Type
                         _______ _______ _______ _____ _____    ______ ____

>  <TORSDO>
F 17

$$$$
=
 OpenBabel10222419073D

 48 52  0  0  1  0  0  0  0  0999 V2000
  190.3770  175.5730  136.0460 S   0  0  0  0  0  0  0  0  0  0  0  0
  191.5400  175.2010  137.4140 C   0  0  2  0  0  3  0  0  0  0  0  0
  189.7430  176.9360  137.0320 C   0  0  2  0  0  3  0  0  0  0  0  0
  190.9660  175.6400  138.6940 N   0  0  0  0  0  2  0  0  0  0  0  0
  189.8110  176.5050  138.4800 C   0  0  1  0  0  3  0  0  0  0  0  0
  187.9530  177.3820  135.2980 O   0  0  0  0  0  0  0  0  0  0  0  0
  187.3760  177.3360  137.4540 N   0  0  0  0  0  0  0  0  0  0  0  0
  186.5740  177.7010  135.2590 C   0  0  0  0  0  2  0  0  0  0  0  0
  188.3320  177.1830  136.6080 C   0  0  0  0  0  0  0  0  0  0  0  0
  186.1830  177.7350  136.7370 C   0  0  1  0  0  3  0  0  0  0  0  0
  184.9710  176.8540  137.0550 C   0  0  2  0  0  3  0  0  0  0  0  0
  184.1130  176.8240  135.9660 O   0  0  0  0  0  1  0  0  0  0  0  0
  183.7410  179.4800  139.5030 C   0  0  2  0  0  3  0  0  0  0  0  0
  182.4010  178.8540  139.1150 C   0  0  2  0  0  3  0  0  0  0  0  0
  182.3610  176.5300  139.8390 C   0  0  0  0  0  2  0  0  0  0  0  0
  184.2070  177.1750  138.3680 C   0  0  2  0  0  3  0  0  0  0  0  0
  181.9810  177.8940  140.0600 O   0  0  0  0  0  0  0  0  0  0  0  0
  183.0120  176.2480  138.5070 C   0  0  0  0  0  2  0  0  0  0  0  0
  183.6420  178.5910  138.2610 C   0  0  2  0  0  3  0  0  0  0  0  0
  185.3160  179.7540  141.2740 O   0  0  0  0  0  1  0  0  0  0  0  0
  184.4530  178.8310  140.6870 C   0  0  0  0  0  2  0  0  0  0  0  0
  193.1780  176.6020  138.4200 C   0  0  0  0  0  1  0  0  0  0  0  0
  192.8580  175.8320  137.2170 N   0  0  0  0  0  0  0  0  0  0  0  0
  194.7920  175.0980  135.7900 C   0  0  0  0  0  2  0  0  0  0  0  0
  193.8890  174.7950  136.9940 C   0  0  1  0  0  3  0  0  0  0  0  0
  196.1170  174.3160  137.5510 C   0  0  0  0  0  0  0  0  0  0  0  0
  196.1130  174.6400  136.2730 C   0  0  0  0  0  0  0  0  0  0  0  0
  194.7910  174.5040  138.2010 C   0  0  0  0  0  2  0  0  0  0  0  0
  197.2290  174.5540  135.4560 O   0  0  0  0  0  1  0  0  0  0  0  0
  197.2950  173.9180  138.2470 N   0  0  0  0  0  2  0  0  0  0  0  0
  198.3310  174.8790  138.6130 C   0  0  0  0  0  2  0  0  0  0  0  0
  196.6340  176.1320  140.6050 O   0  0  0  0  0  0  0  0  0  0  0  0
  198.0680  175.6430  142.4370 C   0  0  0  0  0  1  0  0  0  0  0  0
  197.6920  175.5740  140.9950 C   0  0  0  0  0  0  0  0  0  0  0  0
  198.5460  174.8950  140.0560 N   0  0  0  0  0  2  0  0  0  0  0  0
  189.9120  177.7370  139.3830 C   0  0  0  0  0  2  0  0  0  0  0  0
  190.5310  177.3970  140.7250 C   0  0  0  0  0  2  0  0  0  0  0  0
  189.5930  177.6850  141.8410 C   0  0  0  0  0  0  0  0  0  0  0  0
  188.2700  177.1350  141.8080 N   0  0  0  0  0  2  0  0  0  0  0  0
  189.9600  178.4260  142.7990 O   0  0  0  0  0  0  0  0  0  0  0  0
  187.2610  177.4150  142.8150 C   0  0  0  0  0  2  0  0  0  0  0  0
  187.5880  176.7230  144.1420 C   0  0  0  0  0  2  0  0  0  0  0  0
  187.1570  177.5460  145.3430 C   0  0  2  0  0  3  0  0  0  0  0  0
  186.3510  178.6140  144.9190 O   0  0  0  0  0  1  0  0  0  0  0  0
  188.3440  178.0670  146.1340 C   0  0  0  0  0  2  0  0  0  0  0  0
  189.1150  177.8690  148.6070 C   0  0  0  0  0  1  0  0  0  0  0  0
  188.0390  178.0870  147.6000 C   0  0  0  0  0  0  0  0  0  0  0  0
  186.9000  178.2990  147.9760 O   0  0  0  0  0  0  0  0  0  0  0  0
  1  3  1  0  0  0  0
  1  2  1  0  0  0  0
  2 23  1  6  0  0  0
  2  4  1  0  0  0  0
  3  9  1  6  0  0  0
  3  5  1  0  0  0  0
  5  4  1  0  0  0  0
  5 36  1  1  0  0  0
  6  9  1  0  0  0  0
  8  6  1  0  0  0  0
  8 10  1  0  0  0  0
  9  7  2  0  0  0  0
 10 11  1  6  0  0  0
 10  7  1  0  0  0  0
 11 12  1  6  0  0  0
 13 21  1  1  0  0  0
 14 13  1  0  0  0  0
 14 17  1  1  0  0  0
 15 17  1  0  0  0  0
 16 11  1  6  0  0  0
 16 18  1  0  0  0  0
 18 15  1  0  0  0  0
 19 16  1  0  0  0  0
 19 14  1  0  0  0  0
 19 13  1  0  0  0  0
 21 20  1  0  0  0  0
 23 22  1  0  0  0  0
 24 27  1  0  0  0  0
 24 25  1  0  0  0  0
 25 23  1  0  0  0  0
 25 28  1  0  0  0  0
 26 28  1  0  0  0  0
 26 30  1  0  0  0  0
 27 26  2  0  0  0  0
 29 27  1  0  0  0  0
 30 31  1  0  0  0  0
 31 35  1  0  0  0  0
 32 34  2  0  0  0  0
 34 33  1  0  0  0  0
 35 34  1  0  0  0  0
 36 37  1  0  0  0  0
 37 38  1  0  0  0  0
 38 40  2  0  0  0  0
 39 38  1  0  0  0  0
 39 41  1  0  0  0  0
 41 42  1  0  0  0  0
 42 43  1  0  0  0  0
 43 45  1  0  0  0  0
 44 43  1  0  0  0  0
 45 47  1  0  0  0  0
 47 48  2  0  0  0  0
 47 46  1  0  0  0  0
M  END
>  <MODEL>
7

>  <REMARK>
 VINA RESULT:      -6.7      4.213      8.302
  Name = 
  17 active torsions:
  status: ('A' for Active; 'I' for Inactive)
    1  A    between atoms: C_1  and  C_25
    2  A    between atoms: C_1  and  C_46
    3  A    between atoms: C_2  and  C_9
    4  A    between atoms: C_2  and  C_24
    5  A    between atoms: C_3  and  C_36
    6  A    between atoms: C_3  and  C_45
    7  A    between atoms: C_7  and  C_30
    8  A    between atoms: C_9  and  C_17
    9  A    between atoms: C_10  and  N_37
   10  A    between atoms: C_14  and  C_36
   11  A    between atoms: C_18  and  N_37
   12  A    between atoms: C_19  and  N_21
   13  A    between atoms: N_21  and  C_27
   14  A    between atoms: C_24  and  C_29
   15  A    between atoms: C_26  and  C_33
   16  A    between atoms: C_27  and  N_48
   17  A    between atoms: C_29  and  N_32
                            x       y       z     vdW  Elec       q    Type
                         _______ _______ _______ _____ _____    ______ ____

>  <TORSDO>
F 17

$$$$
=
 OpenBabel10222419073D

 48 52  0  0  1  0  0  0  0  0999 V2000
  189.6590  175.7540  136.1910 S   0  0  0  0  0  0  0  0  0  0  0  0
  190.9520  175.5960  137.4820 C   0  0  2  0  0  3  0  0  0  0  0  0
  188.9170  177.0620  137.1760 C   0  0  2  0  0  3  0  0  0  0  0  0
  190.4140  176.0100  138.7850 N   0  0  0  0  0  2  0  0  0  0  0  0
  189.1410  176.7060  138.6280 C   0  0  1  0  0  3  0  0  0  0  0  0
  186.9600  176.9750  135.5710 O   0  0  0  0  0  0  0  0  0  0  0  0
  186.5640  177.3710  137.7320 N   0  0  0  0  0  0  0  0  0  0  0  0
  185.5590  177.1750  135.5990 C   0  0  0  0  0  2  0  0  0  0  0  0
  187.4600  177.1040  136.8490 C   0  0  0  0  0  0  0  0  0  0  0  0
  185.2850  177.5100  137.0660 C   0  0  1  0  0  3  0  0  0  0  0  0
  184.1900  176.6370  137.6850 C   0  0  2  0  0  3  0  0  0  0  0  0
  183.8030  175.6570  136.7820 O   0  0  0  0  0  1  0  0  0  0  0  0
  182.8640  179.2870  140.0550 C   0  0  2  0  0  3  0  0  0  0  0  0
  182.3030  179.8270  138.7380 C   0  0  2  0  0  3  0  0  0  0  0  0
  180.7090  178.2270  137.8290 C   0  0  0  0  0  2  0  0  0  0  0  0
  182.9610  177.3790  138.2740 C   0  0  2  0  0  3  0  0  0  0  0  0
  180.9600  179.4410  138.5480 O   0  0  0  0  0  0  0  0  0  0  0  0
  181.9200  177.5940  137.1890 C   0  0  0  0  0  2  0  0  0  0  0  0
  183.4090  178.7700  138.7210 C   0  0  2  0  0  3  0  0  0  0  0  0
  181.3200  178.9490  141.8410 O   0  0  0  0  0  1  0  0  0  0  0  0
  181.9700  178.2970  140.7950 C   0  0  0  0  0  2  0  0  0  0  0  0
  192.8280  176.7120  138.4270 C   0  0  0  0  0  1  0  0  0  0  0  0
  192.1570  176.3860  137.1680 N   0  0  0  0  0  0  0  0  0  0  0  0
  194.3330  176.3770  135.9110 C   0  0  0  0  0  2  0  0  0  0  0  0
  193.0650  175.6040  136.3000 C   0  0  1  0  0  3  0  0  0  0  0  0
  194.9230  174.1800  136.4510 C   0  0  0  0  0  0  0  0  0  0  0  0
  195.3640  175.3170  135.9510 C   0  0  0  0  0  0  0  0  0  0  0  0
  193.4940  174.2440  136.8660 C   0  0  0  0  0  2  0  0  0  0  0  0
  196.6600  175.5050  135.5000 O   0  0  0  0  0  1  0  0  0  0  0  0
  195.7590  173.0440  136.6530 N   0  0  0  0  0  2  0  0  0  0  0  0
  195.8960  172.4170  137.9640 C   0  0  0  0  0  2  0  0  0  0  0  0
  197.9310  174.4220  138.4670 O   0  0  0  0  0  0  0  0  0  0  0  0
  196.9190  175.2540  140.4510 C   0  0  0  0  0  1  0  0  0  0  0  0
  196.9540  174.3590  139.2570 C   0  0  0  0  0  0  0  0  0  0  0  0
  195.8920  173.4160  139.0270 N   0  0  0  0  0  2  0  0  0  0  0  0
  189.1370  177.9780  139.4800 C   0  0  0  0  0  2  0  0  0  0  0  0
  188.2590  177.8240  140.7080 C   0  0  0  0  0  2  0  0  0  0  0  0
  189.0700  177.5580  141.9230 C   0  0  0  0  0  0  0  0  0  0  0  0
  188.8930  178.3820  143.0820 N   0  0  0  0  0  2  0  0  0  0  0  0
  189.9230  176.6240  141.9210 O   0  0  0  0  0  0  0  0  0  0  0  0
  189.6860  178.2450  144.2920 C   0  0  0  0  0  2  0  0  0  0  0  0
  189.0960  177.1890  145.2310 C   0  0  0  0  0  2  0  0  0  0  0  0
  188.2900  177.8070  146.3600 C   0  0  2  0  0  3  0  0  0  0  0  0
  188.8750  177.4790  147.5930 O   0  0  0  0  0  1  0  0  0  0  0  0
  186.8380  177.3650  146.3350 C   0  0  0  0  0  2  0  0  0  0  0  0
  185.4190  178.3920  144.4170 C   0  0  0  0  0  1  0  0  0  0  0  0
  185.9590  178.4560  145.8030 C   0  0  0  0  0  0  0  0  0  0  0  0
  185.6690  179.3990  146.5170 O   0  0  0  0  0  0  0  0  0  0  0  0
  1  3  1  0  0  0  0
  1  2  1  0  0  0  0
  2 23  1  6  0  0  0
  2  4  1  0  0  0  0
  3  9  1  1  0  0  0
  3  5  1  0  0  0  0
  5  4  1  0  0  0  0
  5 36  1  1  0  0  0
  6  8  1  0  0  0  0
  6  9  1  0  0  0  0
  8 10  1  0  0  0  0
  9  7  2  0  0  0  0
 10 11  1  1  0  0  0
 10  7  1  0  0  0  0
 11 12  1  6  0  0  0
 13 21  1  6  0  0  0
 14 17  1  6  0  0  0
 14 13  1  0  0  0  0
 15 17  1  0  0  0  0
 16 11  1  6  0  0  0
 16 19  1  0  0  0  0
 18 15  1  0  0  0  0
 18 16  1  0  0  0  0
 19 14  1  0  0  0  0
 19 13  1  0  0  0  0
 21 20  1  0  0  0  0
 23 22  1  0  0  0  0
 24 27  1  0  0  0  0
 24 25  1  0  0  0  0
 25 28  1  0  0  0  0
 25 23  1  0  0  0  0
 26 30  1  0  0  0  0
 26 28  1  0  0  0  0
 27 26  2  0  0  0  0
 29 27  1  0  0  0  0
 30 31  1  0  0  0  0
 31 35  1  0  0  0  0
 32 34  2  0  0  0  0
 34 33  1  0  0  0  0
 35 34  1  0  0  0  0
 36 37  1  0  0  0  0
 37 38  1  0  0  0  0
 38 39  1  0  0  0  0
 39 41  1  0  0  0  0
 40 38  2  0  0  0  0
 41 42  1  0  0  0  0
 42 43  1  0  0  0  0
 43 44  1  0  0  0  0
 45 43  1  0  0  0  0
 46 47  1  0  0  0  0
 47 45  1  0  0  0  0
 47 48  2  0  0  0  0
M  END
>  <MODEL>
8

>  <REMARK>
 VINA RESULT:      -6.6      4.001      8.485
  Name = 
  17 active torsions:
  status: ('A' for Active; 'I' for Inactive)
    1  A    between atoms: C_1  and  C_25
    2  A    between atoms: C_1  and  C_46
    3  A    between atoms: C_2  and  C_9
    4  A    between atoms: C_2  and  C_24
    5  A    between atoms: C_3  and  C_36
    6  A    between atoms: C_3  and  C_45
    7  A    between atoms: C_7  and  C_30
    8  A    between atoms: C_9  and  C_17
    9  A    between atoms: C_10  and  N_37
   10  A    between atoms: C_14  and  C_36
   11  A    between atoms: C_18  and  N_37
   12  A    between atoms: C_19  and  N_21
   13  A    between atoms: N_21  and  C_27
   14  A    between atoms: C_24  and  C_29
   15  A    between atoms: C_26  and  C_33
   16  A    between atoms: C_27  and  N_48
   17  A    between atoms: C_29  and  N_32
                            x       y       z     vdW  Elec       q    Type
                         _______ _______ _______ _____ _____    ______ ____

>  <TORSDO>
F 17

$$$$
=
 OpenBabel10222419073D

 48 52  0  0  1  0  0  0  0  0999 V2000
  187.1280  178.3630  141.3270 S   0  0  0  0  0  0  0  0  0  0  0  0
  188.8280  178.2420  140.6510 C   0  0  2  0  0  3  0  0  0  0  0  0
  186.5080  177.9970  139.6800 C   0  0  2  0  0  3  0  0  0  0  0  0
  188.8270  178.5910  139.2240 N   0  0  0  0  0  2  0  0  0  0  0  0
  187.4680  178.6260  138.6950 C   0  0  1  0  0  3  0  0  0  0  0  0
  184.8880  179.7870  138.9170 O   0  0  0  0  0  0  0  0  0  0  0  0
  184.1210  178.0990  140.1600 N   0  0  0  0  0  0  0  0  0  0  0  0
  183.5240  180.1240  139.0930 C   0  0  0  0  0  2  0  0  0  0  0  0
  185.1460  178.5980  139.5650 C   0  0  0  0  0  0  0  0  0  0  0  0
  183.0040  179.0060  139.9970 C   0  0  1  0  0  3  0  0  0  0  0  0
  181.7530  178.3210  139.4420 C   0  0  2  0  0  3  0  0  0  0  0  0
  181.1070  177.6280  140.4550 O   0  0  0  0  0  1  0  0  0  0  0  0
  181.9540  174.8270  137.9730 C   0  0  2  0  0  3  0  0  0  0  0  0
  180.7870  175.3760  137.1520 C   0  0  2  0  0  3  0  0  0  0  0  0
  181.5720  177.2250  135.7760 C   0  0  0  0  0  2  0  0  0  0  0  0
  181.9490  177.4300  138.1850 C   0  0  2  0  0  3  0  0  0  0  0  0
  181.2120  175.8430  135.8900 O   0  0  0  0  0  0  0  0  0  0  0  0
  181.2720  178.0730  136.9870 C   0  0  0  0  0  2  0  0  0  0  0  0
  181.2330  176.1010  138.4220 C   0  0  2  0  0  3  0  0  0  0  0  0
  184.2020  174.0490  137.7990 O   0  0  0  0  0  1  0  0  0  0  0  0
  183.3420  175.0640  137.3850 C   0  0  0  0  0  2  0  0  0  0  0  0
  190.3450  176.6540  139.7350 C   0  0  0  0  0  1  0  0  0  0  0  0
  189.4100  176.8990  140.8340 N   0  0  0  0  0  0  0  0  0  0  0  0
  191.2330  177.8780  142.2590 C   0  0  0  0  0  2  0  0  0  0  0  0
  190.1230  176.8260  142.1270 C   0  0  1  0  0  3  0  0  0  0  0  0
  190.0610  177.7580  144.2790 C   0  0  0  0  0  0  0  0  0  0  0  0
  191.1190  178.2690  143.6820 C   0  0  0  0  0  0  0  0  0  0  0  0
  189.2280  176.9220  143.3700 C   0  0  0  0  0  2  0  0  0  0  0  0
  192.0410  179.0830  144.3180 O   0  0  0  0  0  1  0  0  0  0  0  0
  189.7090  178.0580  145.6270 N   0  0  0  0  0  2  0  0  0  0  0  0
  188.9310  177.1300  146.4410 C   0  0  0  0  0  2  0  0  0  0  0  0
  186.3670  177.2620  145.0900 O   0  0  0  0  0  0  0  0  0  0  0  0
  185.3300  178.6190  146.7440 C   0  0  0  0  0  1  0  0  0  0  0  0
  186.4800  177.8360  146.2040 C   0  0  0  0  0  0  0  0  0  0  0  0
  187.7140  177.7620  146.9390 N   0  0  0  0  0  2  0  0  0  0  0  0
  187.4090  177.8740  137.3630 C   0  0  0  0  0  2  0  0  0  0  0  0
  188.6290  178.1600  136.5060 C   0  0  0  0  0  2  0  0  0  0  0  0
  189.2350  176.9040  135.9930 C   0  0  0  0  0  0  0  0  0  0  0  0
  188.7130  175.6420  136.4280 N   0  0  0  0  0  2  0  0  0  0  0  0
  190.2160  176.9560  135.1960 O   0  0  0  0  0  0  0  0  0  0  0  0
  189.2800  174.3630  136.0370 C   0  0  0  0  0  2  0  0  0  0  0  0
  190.3020  173.8660  137.0640 C   0  0  0  0  0  2  0  0  0  0  0  0
  191.7280  173.9650  136.5520 C   0  0  2  0  0  3  0  0  0  0  0  0
  192.1730  172.6980  136.1440 O   0  0  0  0  0  1  0  0  0  0  0  0
  192.6710  174.5410  137.5950 C   0  0  0  0  0  2  0  0  0  0  0  0
  193.6110  175.9920  135.6560 C   0  0  0  0  0  1  0  0  0  0  0  0
  193.8070  175.2660  136.9410 C   0  0  0  0  0  0  0  0  0  0  0  0
  194.9030  175.2760  137.4740 O   0  0  0  0  0  0  0  0  0  0  0  0
  2 23  1  6  0  0  0
  2  1  1  0  0  0  0
  3  9  1  1  0  0  0
  3  1  1  0  0  0  0
  4  2  1  0  0  0  0
  5 36  1  6  0  0  0
  5  4  1  0  0  0  0
  5  3  1  0  0  0  0
  6  8  1  0  0  0  0
  6  9  1  0  0  0  0
  8 10  1  0  0  0  0
  9  7  2  0  0  0  0
 10 11  1  6  0  0  0
 10  7  1  0  0  0  0
 11 12  1  1  0  0  0
 13 21  1  6  0  0  0
 13 19  1  0  0  0  0
 14 17  1  6  0  0  0
 14 13  1  0  0  0  0
 14 19  1  0  0  0  0
 15 17  1  0  0  0  0
 15 18  1  0  0  0  0
 16 19  1  0  0  0  0
 16 11  1  1  0  0  0
 18 16  1  0  0  0  0
 21 20  1  0  0  0  0
 22 23  1  0  0  0  0
 23 25  1  0  0  0  0
 24 27  1  0  0  0  0
 25 24  1  0  0  0  0
 25 28  1  0  0  0  0
 26 30  1  0  0  0  0
 27 26  2  0  0  0  0
 27 29  1  0  0  0  0
 28 26  1  0  0  0  0
 30 31  1  0  0  0  0
 31 35  1  0  0  0  0
 32 34  2  0  0  0  0
 34 33  1  0  0  0  0
 34 35  1  0  0  0  0
 37 36  1  0  0  0  0
 38 39  1  0  0  0  0
 38 37  1  0  0  0  0
 40 38  2  0  0  0  0
 41 39  1  0  0  0  0
 41 42  1  0  0  0  0
 43 42  1  0  0  0  0
 43 45  1  0  0  0  0
 44 43  1  0  0  0  0
 46 47  1  0  0  0  0
 47 48  2  0  0  0  0
 47 45  1  0  0  0  0
M  END
>  <MODEL>
9

>  <REMARK>
 VINA RESULT:      -6.6      2.470      6.318
  Name = 
  17 active torsions:
  status: ('A' for Active; 'I' for Inactive)
    1  A    between atoms: C_1  and  C_25
    2  A    between atoms: C_1  and  C_46
    3  A    between atoms: C_2  and  C_9
    4  A    between atoms: C_2  and  C_24
    5  A    between atoms: C_3  and  C_36
    6  A    between atoms: C_3  and  C_45
    7  A    between atoms: C_7  and  C_30
    8  A    between atoms: C_9  and  C_17
    9  A    between atoms: C_10  and  N_37
   10  A    between atoms: C_14  and  C_36
   11  A    between atoms: C_18  and  N_37
   12  A    between atoms: C_19  and  N_21
   13  A    between atoms: N_21  and  C_27
   14  A    between atoms: C_24  and  C_29
   15  A    between atoms: C_26  and  C_33
   16  A    between atoms: C_27  and  N_48
   17  A    between atoms: C_29  and  N_32
                            x       y       z     vdW  Elec       q    Type
                         _______ _______ _______ _____ _____    ______ ____

>  <TORSDO>
F 17

$$$$
