=
 OpenBabel10222418303D

 68 73  0  0  1  0  0  0  0  0999 V2000
  185.3810  180.4350  142.7840 C   0  0  0  0  0  1  0  0  0  0  0  0
  184.8020  177.9400  142.4230 C   0  0  1  0  0  3  0  0  0  0  0  0
  184.6620  179.3950  141.9250 C   0  0  2  0  0  3  0  0  0  0  0  0
  185.6050  178.4260  141.2190 C   0  0  1  0  0  0  0  0  0  0  0  0
  186.9730  178.7140  141.3900 O   0  0  0  0  0  0  0  0  0  0  0  0
  187.6160  177.9140  140.5630 O   0  0  0  0  0  0  0  0  0  0  0  0
  188.6360  178.7010  140.0250 C   0  0  0  0  0  2  0  0  0  0  0  0
  190.3610  176.9660  137.3120 C   0  0  0  0  0  0  0  0  0  0  0  0
  190.1830  177.2580  138.5880 C   0  0  0  0  0  0  0  0  0  0  0  0
  189.0800  178.1300  138.7650 N   0  0  0  0  0  0  0  0  0  0  0  0
  188.5100  178.4680  137.4740 C   0  0  0  0  0  3  0  0  0  0  0  0
  189.3770  177.7110  136.4600 C   0  0  0  0  0  3  0  0  0  0  0  0
  192.4180  175.7460  137.9250 C   0  0  2  0  0  3  0  0  0  0  0  0
  193.8500  175.7640  137.3830 C   0  0  0  0  0  2  0  0  0  0  0  0
  191.4320  174.7180  137.3480 C   0  0  1  0  0  3  0  0  0  0  0  0
  191.4840  176.1260  136.7820 C   0  0  1  0  0  3  0  0  0  0  0  0
  193.3720  173.9510  135.7770 C   0  0  0  0  0  2  0  0  0  0  0  0
  194.3190  174.4100  136.8680 C   0  0  1  0  0  3  0  0  0  0  0  0
  192.0110  173.6480  136.3950 C   0  0  2  0  0  3  0  0  0  0  0  0
  190.9140  171.9160  134.9030 N   0  0  0  0  0  1  0  0  0  0  0  0
  190.2820  174.1490  134.8340 O   0  0  0  0  0  0  0  0  0  0  0  0
  191.0220  173.2670  135.3420 C   0  0  0  0  0  0  0  0  0  0  0  0
  195.9640  175.4730  135.4990 O   0  0  0  0  0  1  0  0  0  0  0  0
  195.7970  174.4290  136.4170 C   0  0  2  0  0  0  0  0  0  0  0  0
  196.1930  173.1050  135.7340 C   0  0  2  0  0  3  0  0  0  0  0  0
  195.4200  172.0550  136.1960 F   0  0  0  0  0  0  0  0  0  0  0  0
  197.6600  172.7720  135.9600 C   0  0  0  0  0  1  0  0  0  0  0  0
  196.6580  174.6450  137.5400 O   0  0  0  0  0  0  0  0  0  0  0  0
  197.0820  174.7780  140.0360 C   0  0  0  0  0  1  0  0  0  0  0  0
  195.6240  173.2170  139.0070 O   0  0  0  0  0  0  0  0  0  0  0  0
  196.4250  174.1710  138.8400 C   0  0  0  0  0  0  0  0  0  0  0  0
  191.3210  177.8490  140.7010 C   0  0  0  0  0  1  0  0  0  0  0  0
  191.0230  176.7370  139.7140 C   0  0  0  0  0  2  0  0  0  0  0  0
  185.1170  178.0300  139.8330 C   0  0  0  0  0  2  0  0  0  0  0  0
  183.6390  178.3390  139.6740 C   0  0  0  0  0  2  0  0  0  0  0  0
  182.8650  177.1160  139.8020 N   0  0  0  0  0  2  0  0  0  0  0  0
  182.0140  177.0240  138.6280 C   0  0  0  0  0  2  0  0  0  0  0  0
  182.8480  176.6800  137.4050 C   0  0  0  0  0  2  0  0  0  0  0  0
  182.1000  175.7300  136.4830 C   0  0  2  0  0  3  0  0  0  0  0  0
  181.2550  174.9050  137.2280 O   0  0  0  0  0  1  0  0  0  0  0  0
  183.1040  174.8780  135.7270 C   0  0  0  0  0  2  0  0  0  0  0  0
  184.2710  174.6170  136.5580 N   0  0  0  0  0  0  0  0  0  0  0  0
  187.3940  172.0460  136.9420 C   0  0  0  0  0  1  0  0  0  0  0  0
  186.4970  173.1490  137.4750 C   0  0  1  0  0  3  0  0  0  0  0  0
  186.7250  174.4350  136.7180 C   0  0  0  0  0  0  0  0  0  0  0  0
  185.0280  172.7000  137.3650 C   0  0  0  0  0  2  0  0  0  0  0  0
  185.6650  176.1950  135.5090 O   0  0  0  0  0  0  0  0  0  0  0  0
  187.8880  174.8880  136.5440 O   0  0  0  0  0  0  0  0  0  0  0  0
  185.5520  175.1650  136.2260 C   0  0  0  0  0  0  0  0  0  0  0  0
  184.1750  173.7870  137.6350 O   0  0  0  0  0  0  0  0  0  0  0  0
  185.6700  177.7560  143.6710 C   0  0  0  0  0  2  0  0  0  0  0  0
  186.6850  176.6480  143.4390 C   0  0  0  0  0  2  0  0  0  0  0  0
  189.4640  176.4530  142.8030 O   0  0  0  0  0  0  0  0  0  0  0  0
  187.7800  176.7720  144.3880 N   0  0  0  0  0  2  0  0  0  0  0  0
  189.1500  176.7760  143.9800 C   0  0  0  0  0  0  0  0  0  0  0  0
  190.2250  177.1970  144.9360 C   0  0  2  0  0  3  0  0  0  0  0  0
  191.9510  176.0330  146.3880 C   0  0  0  0  0  0  0  0  0  0  0  0
  191.6300  175.1260  144.2560 C   0  0  0  0  0  3  0  0  0  0  0  0
  192.9550  174.9540  146.3410 C   0  0  0  0  0  2  0  0  0  0  0  0
  191.1670  176.1130  145.2180 N   0  0  0  0  0  0  0  0  0  0  0  0
  192.7070  174.3050  144.9760 C   0  0  0  0  0  3  0  0  0  0  0  0
  191.8110  176.8160  147.3650 O   0  0  0  0  0  0  0  0  0  0  0  0
  189.6490  177.8000  146.2170 C   0  0  0  0  0  2  0  0  0  0  0  0
  188.9800  176.8280  146.9720 O   0  0  0  0  0  0  0  0  0  0  0  0
  187.3580  176.6500  149.2140 O   0  0  0  0  0  1  0  0  0  0  0  0
  188.8840  179.0460  148.8170 C   0  0  0  0  0  1  0  0  0  0  0  0
  186.8190  178.2750  147.2400 O   0  0  0  0  0  0  0  0  0  0  0  0
  187.9710  177.6910  148.0260 P   0  0  1  0  0  0  0  0  0  0  0  0
  2 51  1  1  0  0  0
  3  2  1  0  0  0  0
  3  1  1  1  0  0  0
  4 34  1  6  0  0  0
  4  5  1  0  0  0  0
  4  3  1  0  0  0  0
  4  2  1  0  0  0  0
  6  5  1  0  0  0  0
  7  6  1  0  0  0  0
  8  9  2  0  0  0  0
  9 10  1  0  0  0  0
  9 33  1  0  0  0  0
 10  7  1  0  0  0  0
 11 10  1  0  0  0  0
 12  8  1  0  0  0  0
 12 11  2  0  0  0  0
 13 14  1  6  0  0  0
 15 13  1  0  0  0  0
 16  8  1  0  0  0  0
 16 15  1  0  0  0  0
 16 13  1  0  0  0  0
 17 19  1  0  0  0  0
 17 18  1  0  0  0  0
 18 14  1  0  0  0  0
 19 15  1  0  0  0  0
 20 22  1  0  0  0  0
 21 22  2  0  0  0  0
 22 19  1  0  0  0  0
 23 24  1  0  0  0  0
 24 18  1  0  0  0  0
 24 28  1  0  0  0  0
 25 27  1  0  0  0  0
 25 26  1  0  0  0  0
 25 24  1  0  0  0  0
 28 31  1  0  0  0  0
 31 30  2  0  0  0  0
 31 29  1  0  0  0  0
 33 32  1  0  0  0  0
 35 36  1  0  0  0  0
 35 34  1  0  0  0  0
 37 36  1  0  0  0  0
 38 37  1  0  0  0  0
 39 40  1  0  0  0  0
 39 38  1  0  0  0  0
 41 39  1  0  0  0  0
 41 42  1  0  0  0  0
 42 50  1  0  0  0  0
 43 44  1  0  0  0  0
 45 44  1  0  0  0  0
 46 44  1  0  0  0  0
 46 50  1  0  0  0  0
 47 49  2  0  0  0  0
 48 45  2  0  0  0  0
 49 42  1  0  0  0  0
 49 45  1  0  0  0  0
 52 51  1  0  0  0  0
 52 54  1  0  0  0  0
 53 55  2  0  0  0  0
 55 54  1  0  0  0  0
 55 56  1  0  0  0  0
 56 60  1  0  0  0  0
 56 63  1  0  0  0  0
 57 62  2  0  0  0  0
 58 61  2  0  0  0  0
 58 60  1  0  0  0  0
 59 57  1  0  0  0  0
 60 57  1  0  0  0  0
 61 59  1  0  0  0  0
 63 64  1  0  0  0  0
 64 68  1  0  0  0  0
 67 68  2  0  0  0  0
 68 66  1  0  0  0  0
 68 65  1  0  0  0  0
M  END
>  <MODEL>
1

>  <REMARK>
 VINA RESULT:      -4.1      0.000      0.000
  Name = 
  27 active torsions:
  status: ('A' for Active; 'I' for Inactive)
    1  A    between atoms: C_5  and  C_20
    2  A    between atoms: C_5  and  N_47
    3  A    between atoms: C_6  and  N_7
    4  A    between atoms: C_6  and  C_23
    5  A    between atoms: O_10  and  O_52
    6  A    between atoms: O_10  and  C_60
    7  A    between atoms: C_11  and  C_56
    8  A    between atoms: C_16  and  C_24
    9  A    between atoms: C_16  and  O_44
   10  A    between atoms: C_18  and  C_29
   11  A    between atoms: C_20  and  C_35
   12  A    between atoms: C_22  and  N_37
   13  A    between atoms: C_22  and  C_40
   14  A    between atoms: C_23  and  C_40
   15  A    between atoms: C_24  and  N_36
   16  A    between atoms: C_24  and  C_54
   17  A    between atoms: C_31  and  C_56
   18  A    between atoms: C_32  and  C_33
   19  A    between atoms: C_34  and  N_37
   20  A    between atoms: C_34  and  C_57
   21  A    between atoms: O_42  and  C_56
   22  A    between atoms: O_42  and  C_62
   23  A    between atoms: O_44  and  P_65
   24  A    between atoms: N_46  and  C_60
   25  A    between atoms: C_50  and  C_67
   26  A    between atoms: O_52  and  C_63
   27  A    between atoms: C_57  and  C_63
                            x       y       z     vdW  Elec       q    Type
                         _______ _______ _______ _____ _____    ______ ____

>  <TORSDO>
F 27

$$$$
=
 OpenBabel10222418303D

 68 73  0  0  1  0  0  0  0  0999 V2000
  189.1570  176.3740  142.2500 C   0  0  0  0  0  1  0  0  0  0  0  0
  191.2080  177.9000  141.8600 C   0  0  1  0  0  3  0  0  0  0  0  0
  190.5710  176.5040  141.6850 C   0  0  2  0  0  3  0  0  0  0  0  0
  190.6710  177.4590  140.5010 C   0  0  1  0  0  0  0  0  0  0  0  0
  189.4360  177.9750  140.0600 O   0  0  0  0  0  0  0  0  0  0  0  0
  189.1800  177.3710  138.9170 O   0  0  0  0  0  0  0  0  0  0  0  0
  188.6030  178.3560  138.1140 C   0  0  0  0  0  2  0  0  0  0  0  0
  185.0070  177.7460  137.9020 C   0  0  0  0  0  0  0  0  0  0  0  0
  186.0680  178.3140  138.4490 C   0  0  0  0  0  0  0  0  0  0  0  0
  187.2510  177.9610  137.7540 N   0  0  0  0  0  0  0  0  0  0  0  0
  186.9330  177.0450  136.6750 C   0  0  0  0  0  3  0  0  0  0  0  0
  185.4130  176.8560  136.7650 C   0  0  0  0  0  3  0  0  0  0  0  0
  183.5050  179.1020  139.3170 C   0  0  2  0  0  3  0  0  0  0  0  0
  182.5830  178.7650  140.4930 C   0  0  0  0  0  2  0  0  0  0  0  0
  182.9120  179.0930  137.8990 C   0  0  1  0  0  3  0  0  0  0  0  0
  183.6120  177.8590  138.4400 C   0  0  1  0  0  3  0  0  0  0  0  0
  180.6570  178.3690  138.9980 C   0  0  0  0  0  2  0  0  0  0  0  0
  181.1230  179.1140  140.2350 C   0  0  1  0  0  3  0  0  0  0  0  0
  181.3800  178.9300  137.7790 C   0  0  2  0  0  3  0  0  0  0  0  0
  179.9630  178.6350  135.6980 N   0  0  0  0  0  1  0  0  0  0  0  0
  181.6240  177.1110  136.2580 O   0  0  0  0  0  0  0  0  0  0  0  0
  181.0100  178.1720  136.5460 C   0  0  0  0  0  0  0  0  0  0  0  0
  179.1130  178.1160  141.0570 O   0  0  0  0  0  1  0  0  0  0  0  0
  180.2280  178.8560  141.4680 C   0  0  2  0  0  0  0  0  0  0  0  0
  179.7390  180.1760  142.0940 C   0  0  2  0  0  3  0  0  0  0  0  0
  178.9350  179.9390  143.1940 F   0  0  0  0  0  0  0  0  0  0  0  0
  178.9670  181.0230  141.0940 C   0  0  0  0  0  1  0  0  0  0  0  0
  180.9470  178.1130  142.4590 O   0  0  0  0  0  0  0  0  0  0  0  0
  182.7210  179.5400  143.5750 C   0  0  0  0  0  1  0  0  0  0  0  0
  180.9870  178.4100  144.7330 O   0  0  0  0  0  0  0  0  0  0  0  0
  181.5170  178.6570  143.6200 C   0  0  0  0  0  0  0  0  0  0  0  0
  186.8010  178.5930  140.7920 C   0  0  0  0  0  1  0  0  0  0  0  0
  186.0390  179.2200  139.6410 C   0  0  0  0  0  2  0  0  0  0  0  0
  191.6770  177.0000  139.4550 C   0  0  0  0  0  2  0  0  0  0  0  0
  191.1700  175.7710  138.7220 C   0  0  0  0  0  2  0  0  0  0  0  0
  191.2340  175.9920  137.2880 N   0  0  0  0  0  2  0  0  0  0  0  0
  192.5940  175.6950  136.8700 C   0  0  0  0  0  2  0  0  0  0  0  0
  192.9140  174.2330  137.1390 C   0  0  0  0  0  2  0  0  0  0  0  0
  193.2350  173.4980  135.8480 C   0  0  2  0  0  3  0  0  0  0  0  0
  192.0980  172.8380  135.3770 O   0  0  0  0  0  1  0  0  0  0  0  0
  194.3360  172.4850  136.1120 C   0  0  0  0  0  2  0  0  0  0  0  0
  195.6300  173.0410  135.7430 N   0  0  0  0  0  0  0  0  0  0  0  0
  199.0570  174.4860  137.3810 C   0  0  0  0  0  1  0  0  0  0  0  0
  198.1200  174.2820  136.2040 C   0  0  1  0  0  3  0  0  0  0  0  0
  198.0860  172.8310  135.7910 C   0  0  0  0  0  0  0  0  0  0  0  0
  196.7130  174.7760  136.5900 C   0  0  0  0  0  2  0  0  0  0  0  0
  196.6690  170.9710  135.3320 O   0  0  0  0  0  0  0  0  0  0  0  0
  199.1520  172.1890  135.5940 O   0  0  0  0  0  0  0  0  0  0  0  0
  196.7790  172.2000  135.5860 C   0  0  0  0  0  0  0  0  0  0  0  0
  195.7840  174.3890  135.6050 O   0  0  0  0  0  0  0  0  0  0  0  0
  190.3150  178.9480  142.5310 C   0  0  0  0  0  2  0  0  0  0  0  0
  190.7230  179.1240  143.9850 C   0  0  0  0  0  2  0  0  0  0  0  0
  191.1850  176.5410  145.1170 O   0  0  0  0  0  0  0  0  0  0  0  0
  189.8020  178.4020  144.8490 N   0  0  0  0  0  2  0  0  0  0  0  0
  190.1480  177.1630  145.4710 C   0  0  0  0  0  0  0  0  0  0  0  0
  189.3000  176.6060  146.5740 C   0  0  2  0  0  3  0  0  0  0  0  0
  187.0250  177.6960  146.2910 C   0  0  0  0  0  0  0  0  0  0  0  0
  188.3890  178.5950  147.9660 C   0  0  0  0  0  3  0  0  0  0  0  0
  186.2210  178.8270  146.7910 C   0  0  0  0  0  2  0  0  0  0  0  0
  188.2450  177.5340  146.9820 N   0  0  0  0  0  0  0  0  0  0  0  0
  187.0720  179.3810  147.9380 C   0  0  0  0  0  3  0  0  0  0  0  0
  186.6710  176.9540  145.3370 O   0  0  0  0  0  0  0  0  0  0  0  0
  190.1390  176.1400  147.7640 C   0  0  0  0  0  2  0  0  0  0  0  0
  191.2620  176.9590  147.9370 O   0  0  0  0  0  0  0  0  0  0  0  0
  193.3620  175.4020  147.0110 O   0  0  0  0  0  0  0  0  0  0  0  0
  193.6620  176.7470  149.5270 C   0  0  0  0  0  1  0  0  0  0  0  0
  191.9310  174.7080  149.0850 O   0  0  0  0  0  1  0  0  0  0  0  0
  192.5190  175.9140  148.3880 P   0  0  1  0  0  0  0  0  0  0  0  0
  2 51  1  1  0  0  0
  3  2  1  0  0  0  0
  3  1  1  1  0  0  0
  4 34  1  6  0  0  0
  4  3  1  0  0  0  0
  4  2  1  0  0  0  0
  5  4  1  0  0  0  0
  6  5  1  0  0  0  0
  7  6  1  0  0  0  0
  8 16  1  0  0  0  0
  8  9  2  0  0  0  0
  9 33  1  0  0  0  0
 10  7  1  0  0  0  0
 10  9  1  0  0  0  0
 11 12  2  0  0  0  0
 11 10  1  0  0  0  0
 12  8  1  0  0  0  0
 13 14  1  1  0  0  0
 15 16  1  0  0  0  0
 15 13  1  0  0  0  0
 16 13  1  0  0  0  0
 17 18  1  0  0  0  0
 18 14  1  0  0  0  0
 18 24  1  0  0  0  0
 19 15  1  0  0  0  0
 19 17  1  0  0  0  0
 20 22  1  0  0  0  0
 21 22  2  0  0  0  0
 22 19  1  0  0  0  0
 23 24  1  0  0  0  0
 24 25  1  0  0  0  0
 24 28  1  0  0  0  0
 25 26  1  0  0  0  0
 27 25  1  0  0  0  0
 28 31  1  0  0  0  0
 29 31  1  0  0  0  0
 31 30  2  0  0  0  0
 33 32  1  0  0  0  0
 35 34  1  0  0  0  0
 36 35  1  0  0  0  0
 37 38  1  0  0  0  0
 37 36  1  0  0  0  0
 39 41  1  0  0  0  0
 39 38  1  0  0  0  0
 40 39  1  0  0  0  0
 42 41  1  0  0  0  0
 44 46  1  0  0  0  0
 44 43  1  0  0  0  0
 45 44  1  0  0  0  0
 47 49  2  0  0  0  0
 48 45  2  0  0  0  0
 49 42  1  0  0  0  0
 49 45  1  0  0  0  0
 50 42  1  0  0  0  0
 50 46  1  0  0  0  0
 51 52  1  0  0  0  0
 52 54  1  0  0  0  0
 53 55  2  0  0  0  0
 54 55  1  0  0  0  0
 55 56  1  0  0  0  0
 56 60  1  0  0  0  0
 56 63  1  0  0  0  0
 57 59  1  0  0  0  0
 57 60  1  0  0  0  0
 59 61  1  0  0  0  0
 60 58  1  0  0  0  0
 61 58  2  0  0  0  0
 62 57  2  0  0  0  0
 63 64  1  0  0  0  0
 64 68  1  0  0  0  0
 65 68  2  0  0  0  0
 68 67  1  0  0  0  0
 68 66  1  0  0  0  0
M  END
>  <MODEL>
2

>  <REMARK>
 VINA RESULT:      -4.1      3.636     10.116
  Name = 
  27 active torsions:
  status: ('A' for Active; 'I' for Inactive)
    1  A    between atoms: C_5  and  C_20
    2  A    between atoms: C_5  and  N_47
    3  A    between atoms: C_6  and  N_7
    4  A    between atoms: C_6  and  C_23
    5  A    between atoms: O_10  and  O_52
    6  A    between atoms: O_10  and  C_60
    7  A    between atoms: C_11  and  C_56
    8  A    between atoms: C_16  and  C_24
    9  A    between atoms: C_16  and  O_44
   10  A    between atoms: C_18  and  C_29
   11  A    between atoms: C_20  and  C_35
   12  A    between atoms: C_22  and  N_37
   13  A    between atoms: C_22  and  C_40
   14  A    between atoms: C_23  and  C_40
   15  A    between atoms: C_24  and  N_36
   16  A    between atoms: C_24  and  C_54
   17  A    between atoms: C_31  and  C_56
   18  A    between atoms: C_32  and  C_33
   19  A    between atoms: C_34  and  N_37
   20  A    between atoms: C_34  and  C_57
   21  A    between atoms: O_42  and  C_56
   22  A    between atoms: O_42  and  C_62
   23  A    between atoms: O_44  and  P_65
   24  A    between atoms: N_46  and  C_60
   25  A    between atoms: C_50  and  C_67
   26  A    between atoms: O_52  and  C_63
   27  A    between atoms: C_57  and  C_63
                            x       y       z     vdW  Elec       q    Type
                         _______ _______ _______ _____ _____    ______ ____

>  <TORSDO>
F 27

$$$$
=
 OpenBabel10222418303D

 68 73  0  0  1  0  0  0  0  0999 V2000
  185.6620  173.7560  137.3620 C   0  0  0  0  0  1  0  0  0  0  0  0
  184.6590  176.0540  137.9960 C   0  0  1  0  0  3  0  0  0  0  0  0
  185.9290  175.2080  137.7580 C   0  0  2  0  0  3  0  0  0  0  0  0
  185.4700  176.2200  136.7140 C   0  0  1  0  0  0  0  0  0  0  0  0
  184.9790  175.6500  135.5230 O   0  0  0  0  0  0  0  0  0  0  0  0
  185.1290  174.3470  135.6580 O   0  0  0  0  0  0  0  0  0  0  0  0
  185.9620  173.9720  134.6030 C   0  0  0  0  0  2  0  0  0  0  0  0
  189.2070  172.7020  135.7000 C   0  0  0  0  0  0  0  0  0  0  0  0
  188.4130  173.6650  135.2670 C   0  0  0  0  0  0  0  0  0  0  0  0
  187.0830  173.2010  135.1160 N   0  0  0  0  0  0  0  0  0  0  0  0
  187.0140  171.7900  135.4460 C   0  0  0  0  0  3  0  0  0  0  0  0
  188.4520  171.4130  135.8230 C   0  0  0  0  0  3  0  0  0  0  0  0
  191.4210  171.9270  134.9270 C   0  0  2  0  0  3  0  0  0  0  0  0
  192.6500  171.3710  135.6520 C   0  0  0  0  0  2  0  0  0  0  0  0
  191.3500  173.4410  134.6670 C   0  0  1  0  0  3  0  0  0  0  0  0
  190.6870  172.8470  135.8970 C   0  0  1  0  0  3  0  0  0  0  0  0
  193.6380  173.6200  135.9130 C   0  0  0  0  0  2  0  0  0  0  0  0
  193.9070  172.2040  135.4380 C   0  0  1  0  0  3  0  0  0  0  0  0
  192.6150  174.2690  134.9870 C   0  0  2  0  0  3  0  0  0  0  0  0
  192.0970  175.9020  136.8550 N   0  0  0  0  0  1  0  0  0  0  0  0
  192.0980  176.5680  134.6300 O   0  0  0  0  0  0  0  0  0  0  0  0
  192.2600  175.6390  135.4640 C   0  0  0  0  0  0  0  0  0  0  0  0
  195.7570  170.7160  135.1690 O   0  0  0  0  0  1  0  0  0  0  0  0
  195.1530  171.5730  136.0970 C   0  0  2  0  0  0  0  0  0  0  0  0
  194.7750  170.7560  137.3480 C   0  0  2  0  0  3  0  0  0  0  0  0
  194.7150  171.5630  138.4700 F   0  0  0  0  0  0  0  0  0  0  0  0
  195.7630  169.6290  137.6050 C   0  0  0  0  0  1  0  0  0  0  0  0
  196.0860  172.5920  136.4750 O   0  0  0  0  0  0  0  0  0  0  0  0
  198.3690  171.4950  136.5990 C   0  0  0  0  0  1  0  0  0  0  0  0
  197.4830  172.9370  138.2610 O   0  0  0  0  0  0  0  0  0  0  0  0
  197.2930  172.3690  137.1560 C   0  0  0  0  0  0  0  0  0  0  0  0
  189.5120  175.6750  136.1960 C   0  0  0  0  0  1  0  0  0  0  0  0
  188.8440  175.0700  134.9770 C   0  0  0  0  0  2  0  0  0  0  0  0
  186.3960  177.4230  136.6100 C   0  0  0  0  0  2  0  0  0  0  0  0
  186.2280  178.3380  137.8100 C   0  0  0  0  0  2  0  0  0  0  0  0
  187.5260  178.8220  138.2460 N   0  0  0  0  0  2  0  0  0  0  0  0
  188.1420  177.7570  139.0190 C   0  0  0  0  0  2  0  0  0  0  0  0
  188.3740  178.2180  140.4490 C   0  0  0  0  0  2  0  0  0  0  0  0
  189.7940  177.9130  140.8970 C   0  0  2  0  0  3  0  0  0  0  0  0
  190.5790  177.5590  139.7970 O   0  0  0  0  0  1  0  0  0  0  0  0
  189.7670  176.7650  141.8910 C   0  0  0  0  0  2  0  0  0  0  0  0
  189.9790  177.2630  143.2430 N   0  0  0  0  0  0  0  0  0  0  0  0
  188.9070  176.5570  147.0980 C   0  0  0  0  0  1  0  0  0  0  0  0
  189.5230  177.4310  146.0210 C   0  0  1  0  0  3  0  0  0  0  0  0
  190.8160  176.8340  145.5220 C   0  0  0  0  0  0  0  0  0  0  0  0
  188.5130  177.5950  144.8690 C   0  0  0  0  0  2  0  0  0  0  0  0
  192.0290  176.1610  143.5830 O   0  0  0  0  0  0  0  0  0  0  0  0
  191.7130  176.4670  146.3270 O   0  0  0  0  0  0  0  0  0  0  0  0
  191.0170  176.7310  144.0740 C   0  0  0  0  0  0  0  0  0  0  0  0
  189.1420  178.2040  143.7650 O   0  0  0  0  0  0  0  0  0  0  0  0
  183.3330  175.3250  137.7600 C   0  0  0  0  0  2  0  0  0  0  0  0
  182.3870  175.5780  138.9240 C   0  0  0  0  0  2  0  0  0  0  0  0
  181.0290  177.7520  137.6600 O   0  0  0  0  0  0  0  0  0  0  0  0
  182.4620  176.9730  139.3300 N   0  0  0  0  0  2  0  0  0  0  0  0
  181.6660  177.9910  138.7210 C   0  0  0  0  0  0  0  0  0  0  0  0
  181.5520  179.3450  139.3540 C   0  0  2  0  0  3  0  0  0  0  0  0
  183.3290  179.4010  141.1660 C   0  0  0  0  0  0  0  0  0  0  0  0
  181.1420  178.9990  141.8910 C   0  0  0  0  0  3  0  0  0  0  0  0
  183.5030  179.1810  142.6140 C   0  0  0  0  0  2  0  0  0  0  0  0
  181.9820  179.3370  140.7530 N   0  0  0  0  0  0  0  0  0  0  0  0
  182.0690  178.9870  143.1140 C   0  0  0  0  0  3  0  0  0  0  0  0
  184.2830  179.6120  140.3710 O   0  0  0  0  0  0  0  0  0  0  0  0
  180.1530  179.9390  139.1920 C   0  0  0  0  0  2  0  0  0  0  0  0
  180.1350  181.2890  139.5660 O   0  0  0  0  0  0  0  0  0  0  0  0
  179.1560  181.3420  136.9720 O   0  0  0  0  0  0  0  0  0  0  0  0
  179.4330  183.8260  138.3800 C   0  0  0  0  0  1  0  0  0  0  0  0
  181.5150  182.2860  137.5820 O   0  0  0  0  0  1  0  0  0  0  0  0
  180.1050  182.1610  138.1120 P   0  0  1  0  0  0  0  0  0  0  0  0
  2 51  1  6  0  0  0
  3  1  1  6  0  0  0
  3  2  1  0  0  0  0
  4 34  1  6  0  0  0
  4  3  1  0  0  0  0
  4  2  1  0  0  0  0
  5  6  1  0  0  0  0
  5  4  1  0  0  0  0
  7 10  1  0  0  0  0
  7  6  1  0  0  0  0
  8 12  1  0  0  0  0
  8 16  1  0  0  0  0
  9  8  2  0  0  0  0
 10  9  1  0  0  0  0
 10 11  1  0  0  0  0
 11 12  2  0  0  0  0
 13 14  1  1  0  0  0
 13 16  1  0  0  0  0
 15 13  1  0  0  0  0
 15 19  1  0  0  0  0
 15 16  1  0  0  0  0
 18 14  1  0  0  0  0
 18 17  1  0  0  0  0
 18 24  1  0  0  0  0
 19 22  1  0  0  0  0
 19 17  1  0  0  0  0
 21 22  2  0  0  0  0
 22 20  1  0  0  0  0
 23 24  1  0  0  0  0
 24 28  1  0  0  0  0
 24 25  1  0  0  0  0
 25 27  1  0  0  0  0
 25 26  1  0  0  0  0
 28 31  1  0  0  0  0
 29 31  1  0  0  0  0
 31 30  2  0  0  0  0
 33  9  1  0  0  0  0
 33 32  1  0  0  0  0
 34 35  1  0  0  0  0
 35 36  1  0  0  0  0
 36 37  1  0  0  0  0
 37 38  1  0  0  0  0
 38 39  1  0  0  0  0
 39 41  1  0  0  0  0
 40 39  1  0  0  0  0
 41 42  1  0  0  0  0
 42 50  1  0  0  0  0
 42 49  1  0  0  0  0
 44 43  1  0  0  0  0
 45 44  1  0  0  0  0
 45 48  2  0  0  0  0
 46 44  1  0  0  0  0
 47 49  2  0  0  0  0
 49 45  1  0  0  0  0
 50 46  1  0  0  0  0
 51 52  1  0  0  0  0
 52 54  1  0  0  0  0
 53 55  2  0  0  0  0
 55 54  1  0  0  0  0
 55 56  1  0  0  0  0
 56 60  1  0  0  0  0
 57 59  1  0  0  0  0
 58 61  2  0  0  0  0
 59 61  1  0  0  0  0
 60 57  1  0  0  0  0
 60 58  1  0  0  0  0
 62 57  2  0  0  0  0
 63 56  1  0  0  0  0
 63 64  1  0  0  0  0
 65 68  2  0  0  0  0
 67 68  1  0  0  0  0
 68 66  1  0  0  0  0
 68 64  1  0  0  0  0
M  END
>  <MODEL>
3

>  <REMARK>
 VINA RESULT:      -3.8      3.161      7.961
  Name = 
  27 active torsions:
  status: ('A' for Active; 'I' for Inactive)
    1  A    between atoms: C_5  and  C_20
    2  A    between atoms: C_5  and  N_47
    3  A    between atoms: C_6  and  N_7
    4  A    between atoms: C_6  and  C_23
    5  A    between atoms: O_10  and  O_52
    6  A    between atoms: O_10  and  C_60
    7  A    between atoms: C_11  and  C_56
    8  A    between atoms: C_16  and  C_24
    9  A    between atoms: C_16  and  O_44
   10  A    between atoms: C_18  and  C_29
   11  A    between atoms: C_20  and  C_35
   12  A    between atoms: C_22  and  N_37
   13  A    between atoms: C_22  and  C_40
   14  A    between atoms: C_23  and  C_40
   15  A    between atoms: C_24  and  N_36
   16  A    between atoms: C_24  and  C_54
   17  A    between atoms: C_31  and  C_56
   18  A    between atoms: C_32  and  C_33
   19  A    between atoms: C_34  and  N_37
   20  A    between atoms: C_34  and  C_57
   21  A    between atoms: O_42  and  C_56
   22  A    between atoms: O_42  and  C_62
   23  A    between atoms: O_44  and  P_65
   24  A    between atoms: N_46  and  C_60
   25  A    between atoms: C_50  and  C_67
   26  A    between atoms: O_52  and  C_63
   27  A    between atoms: C_57  and  C_63
                            x       y       z     vdW  Elec       q    Type
                         _______ _______ _______ _____ _____    ______ ____

>  <TORSDO>
F 27

$$$$
=
 OpenBabel10222418303D

 68 73  0  0  1  0  0  0  0  0999 V2000
  187.9350  173.8070  137.4310 C   0  0  0  0  0  1  0  0  0  0  0  0
  186.8370  174.5370  135.2060 C   0  0  1  0  0  3  0  0  0  0  0  0
  186.8180  174.5970  136.7490 C   0  0  2  0  0  3  0  0  0  0  0  0
  187.3190  175.7870  135.9380 C   0  0  1  0  0  0  0  0  0  0  0  0
  188.7040  176.0220  136.0390 O   0  0  0  0  0  0  0  0  0  0  0  0
  188.9890  175.9520  137.3240 O   0  0  0  0  0  0  0  0  0  0  0  0
  189.4480  177.2270  137.6580 C   0  0  0  0  0  2  0  0  0  0  0  0
  188.3580  178.1880  141.0100 C   0  0  0  0  0  0  0  0  0  0  0  0
  189.2690  177.7630  140.1520 C   0  0  0  0  0  0  0  0  0  0  0  0
  188.7450  177.7050  138.8370 N   0  0  0  0  0  0  0  0  0  0  0  0
  187.3470  178.0940  138.8480 C   0  0  0  0  0  3  0  0  0  0  0  0
  187.0450  178.4040  140.3190 C   0  0  0  0  0  3  0  0  0  0  0  0
  188.1080  177.0090  143.1650 C   0  0  2  0  0  3  0  0  0  0  0  0
  187.4620  177.3890  144.5010 C   0  0  0  0  0  2  0  0  0  0  0  0
  189.6060  177.2940  142.9710 C   0  0  1  0  0  3  0  0  0  0  0  0
  188.5710  178.2950  142.4900 C   0  0  1  0  0  3  0  0  0  0  0  0
  189.5760  178.3240  145.3700 C   0  0  0  0  0  2  0  0  0  0  0  0
  188.4370  177.3680  145.6710 C   0  0  1  0  0  3  0  0  0  0  0  0
  190.3960  177.7700  144.2110 C   0  0  2  0  0  3  0  0  0  0  0  0
  191.5570  180.0150  144.4190 N   0  0  0  0  0  1  0  0  0  0  0  0
  192.3400  178.3760  142.9720 O   0  0  0  0  0  0  0  0  0  0  0  0
  191.4840  178.7200  143.8280 C   0  0  0  0  0  0  0  0  0  0  0  0
  188.2170  178.8860  147.5040 O   0  0  0  0  0  1  0  0  0  0  0  0
  187.7450  177.6590  147.0210 C   0  0  2  0  0  0  0  0  0  0  0  0
  188.0590  176.5660  148.0610 C   0  0  2  0  0  3  0  0  0  0  0  0
  188.1160  177.0950  149.3380 F   0  0  0  0  0  0  0  0  0  0  0  0
  189.3740  175.8640  147.7600 C   0  0  0  0  0  1  0  0  0  0  0  0
  186.3250  177.7360  146.8460 O   0  0  0  0  0  0  0  0  0  0  0  0
  184.6460  178.9000  145.3460 C   0  0  0  0  0  1  0  0  0  0  0  0
  185.7930  179.9490  147.1370 O   0  0  0  0  0  0  0  0  0  0  0  0
  185.6180  178.8920  146.4800 C   0  0  0  0  0  0  0  0  0  0  0  0
  191.2370  176.4290  139.4810 C   0  0  0  0  0  1  0  0  0  0  0  0
  190.6770  177.3940  140.5060 C   0  0  0  0  0  2  0  0  0  0  0  0
  186.3770  176.9820  135.9980 C   0  0  0  0  0  2  0  0  0  0  0  0
  184.9350  176.5250  136.1340 C   0  0  0  0  0  2  0  0  0  0  0  0
  184.2050  177.4460  136.9870 N   0  0  0  0  0  2  0  0  0  0  0  0
  183.5500  176.6520  138.0120 C   0  0  0  0  0  2  0  0  0  0  0  0
  183.3470  177.4850  139.2670 C   0  0  0  0  0  2  0  0  0  0  0  0
  182.9440  178.9090  138.9190 C   0  0  2  0  0  3  0  0  0  0  0  0
  184.0170  179.7770  139.1340 O   0  0  0  0  0  1  0  0  0  0  0  0
  181.7740  179.3230  139.7940 C   0  0  0  0  0  2  0  0  0  0  0  0
  180.7170  179.9050  138.9790 N   0  0  0  0  0  0  0  0  0  0  0  0
  180.1170  182.6020  135.9990 C   0  0  0  0  0  1  0  0  0  0  0  0
  179.6070  181.7030  137.1100 C   0  0  1  0  0  3  0  0  0  0  0  0
  179.7570  180.2490  136.7340 C   0  0  0  0  0  0  0  0  0  0  0  0
  180.3790  182.0170  138.4050 C   0  0  0  0  0  2  0  0  0  0  0  0
  180.6060  178.1340  137.4340 O   0  0  0  0  0  0  0  0  0  0  0  0
  179.3400  179.8200  135.6250 O   0  0  0  0  0  0  0  0  0  0  0  0
  180.3630  179.3400  137.7110 C   0  0  0  0  0  0  0  0  0  0  0  0
  180.0890  181.0460  139.3830 O   0  0  0  0  0  0  0  0  0  0  0  0
  187.9910  173.7350  134.5960 C   0  0  0  0  0  2  0  0  0  0  0  0
  189.0100  173.3930  135.6710 C   0  0  0  0  0  2  0  0  0  0  0  0
  191.4120  174.6910  136.5150 O   0  0  0  0  0  0  0  0  0  0  0  0
  190.3240  173.2160  135.0710 N   0  0  0  0  0  2  0  0  0  0  0  0
  191.5020  173.8120  135.6180 C   0  0  0  0  0  0  0  0  0  0  0  0
  192.8580  173.3730  135.1550 C   0  0  2  0  0  3  0  0  0  0  0  0
  193.9890  171.6400  136.6260 C   0  0  0  0  0  0  0  0  0  0  0  0
  192.8680  170.8120  134.7460 C   0  0  0  0  0  3  0  0  0  0  0  0
  194.2790  170.1950  136.6860 C   0  0  0  0  0  2  0  0  0  0  0  0
  193.1540  171.9930  135.5450 N   0  0  0  0  0  0  0  0  0  0  0  0
  193.4910  169.6300  135.5010 C   0  0  0  0  0  3  0  0  0  0  0  0
  194.4460  172.4800  137.4450 O   0  0  0  0  0  0  0  0  0  0  0  0
  193.9570  174.3380  135.5990 C   0  0  0  0  0  2  0  0  0  0  0  0
  195.1990  173.9610  135.0720 O   0  0  0  0  0  0  0  0  0  0  0  0
  196.5650  175.0890  137.2060 O   0  0  0  0  0  1  0  0  0  0  0  0
  197.8480  175.0230  134.6410 C   0  0  0  0  0  1  0  0  0  0  0  0
  195.6690  176.5280  135.2170 O   0  0  0  0  0  0  0  0  0  0  0  0
  196.2780  175.1820  135.5390 P   0  0  1  0  0  0  0  0  0  0  0  0
  2 51  1  1  0  0  0
  2  4  1  0  0  0  0
  2  3  1  0  0  0  0
  3  1  1  1  0  0  0
  4 34  1  6  0  0  0
  4  5  1  0  0  0  0
  4  3  1  0  0  0  0
  5  6  1  0  0  0  0
  6  7  1  0  0  0  0
  7 10  1  0  0  0  0
  8 16  1  0  0  0  0
  9 33  1  0  0  0  0
  9  8  2  0  0  0  0
 10 11  1  0  0  0  0
 10  9  1  0  0  0  0
 11 12  2  0  0  0  0
 12  8  1  0  0  0  0
 13 14  1  1  0  0  0
 14 18  1  0  0  0  0
 15 13  1  0  0  0  0
 15 19  1  0  0  0  0
 16 15  1  0  0  0  0
 16 13  1  0  0  0  0
 17 18  1  0  0  0  0
 18 24  1  0  0  0  0
 19 17  1  0  0  0  0
 21 22  2  0  0  0  0
 22 19  1  0  0  0  0
 22 20  1  0  0  0  0
 24 23  1  0  0  0  0
 24 25  1  0  0  0  0
 25 26  1  0  0  0  0
 27 25  1  0  0  0  0
 28 24  1  0  0  0  0
 29 31  1  0  0  0  0
 31 28  1  0  0  0  0
 31 30  2  0  0  0  0
 32 33  1  0  0  0  0
 34 35  1  0  0  0  0
 35 36  1  0  0  0  0
 36 37  1  0  0  0  0
 37 38  1  0  0  0  0
 39 40  1  0  0  0  0
 39 38  1  0  0  0  0
 39 41  1  0  0  0  0
 42 50  1  0  0  0  0
 42 41  1  0  0  0  0
 43 44  1  0  0  0  0
 44 46  1  0  0  0  0
 45 44  1  0  0  0  0
 45 49  1  0  0  0  0
 46 50  1  0  0  0  0
 47 49  2  0  0  0  0
 48 45  2  0  0  0  0
 49 42  1  0  0  0  0
 51 52  1  0  0  0  0
 54 55  1  0  0  0  0
 54 52  1  0  0  0  0
 55 53  2  0  0  0  0
 56 60  1  0  0  0  0
 56 63  1  0  0  0  0
 56 55  1  0  0  0  0
 57 59  1  0  0  0  0
 57 62  2  0  0  0  0
 58 61  2  0  0  0  0
 58 60  1  0  0  0  0
 60 57  1  0  0  0  0
 61 59  1  0  0  0  0
 64 68  1  0  0  0  0
 64 63  1  0  0  0  0
 66 68  1  0  0  0  0
 67 68  2  0  0  0  0
 68 65  1  0  0  0  0
M  END
>  <MODEL>
4

>  <REMARK>
 VINA RESULT:      -3.8      3.722      9.878
  Name = 
  27 active torsions:
  status: ('A' for Active; 'I' for Inactive)
    1  A    between atoms: C_5  and  C_20
    2  A    between atoms: C_5  and  N_47
    3  A    between atoms: C_6  and  N_7
    4  A    between atoms: C_6  and  C_23
    5  A    between atoms: O_10  and  O_52
    6  A    between atoms: O_10  and  C_60
    7  A    between atoms: C_11  and  C_56
    8  A    between atoms: C_16  and  C_24
    9  A    between atoms: C_16  and  O_44
   10  A    between atoms: C_18  and  C_29
   11  A    between atoms: C_20  and  C_35
   12  A    between atoms: C_22  and  N_37
   13  A    between atoms: C_22  and  C_40
   14  A    between atoms: C_23  and  C_40
   15  A    between atoms: C_24  and  N_36
   16  A    between atoms: C_24  and  C_54
   17  A    between atoms: C_31  and  C_56
   18  A    between atoms: C_32  and  C_33
   19  A    between atoms: C_34  and  N_37
   20  A    between atoms: C_34  and  C_57
   21  A    between atoms: O_42  and  C_56
   22  A    between atoms: O_42  and  C_62
   23  A    between atoms: O_44  and  P_65
   24  A    between atoms: N_46  and  C_60
   25  A    between atoms: C_50  and  C_67
   26  A    between atoms: O_52  and  C_63
   27  A    between atoms: C_57  and  C_63
                            x       y       z     vdW  Elec       q    Type
                         _______ _______ _______ _____ _____    ______ ____

>  <TORSDO>
F 27

$$$$
=
 OpenBabel10222418303D

 68 73  0  0  1  0  0  0  0  0999 V2000
  187.3980  177.9240  135.4030 C   0  0  0  0  0  1  0  0  0  0  0  0
  185.7270  176.0650  134.7390 C   0  0  1  0  0  3  0  0  0  0  0  0
  187.1970  176.5340  134.8000 C   0  0  2  0  0  3  0  0  0  0  0  0
  186.6760  175.5040  135.7970 C   0  0  1  0  0  0  0  0  0  0  0  0
  186.5680  175.9750  137.1200 O   0  0  0  0  0  0  0  0  0  0  0  0
  187.7850  175.9160  137.6240 O   0  0  0  0  0  0  0  0  0  0  0  0
  187.9840  177.1610  138.2210 C   0  0  0  0  0  2  0  0  0  0  0  0
  189.2660  177.2560  141.6410 C   0  0  0  0  0  0  0  0  0  0  0  0
  188.3600  177.5400  140.7220 C   0  0  0  0  0  0  0  0  0  0  0  0
  188.7180  176.9940  139.4650 N   0  0  0  0  0  0  0  0  0  0  0  0
  190.0000  176.3230  139.5680 C   0  0  0  0  0  3  0  0  0  0  0  0
  190.4140  176.5060  141.0340 C   0  0  0  0  0  3  0  0  0  0  0  0
  189.1290  176.5550  144.0050 C   0  0  2  0  0  3  0  0  0  0  0  0
  188.2120  176.9520  145.1660 C   0  0  0  0  0  2  0  0  0  0  0  0
  190.4550  177.3130  143.8290 C   0  0  1  0  0  3  0  0  0  0  0  0
  189.2210  177.7460  143.0570 C   0  0  1  0  0  3  0  0  0  0  0  0
  189.7430  178.7500  145.8900 C   0  0  0  0  0  2  0  0  0  0  0  0
  188.9620  177.5350  146.3560 C   0  0  1  0  0  3  0  0  0  0  0  0
  190.8560  178.2960  144.9530 C   0  0  2  0  0  3  0  0  0  0  0  0
  193.0270  179.4850  144.4050 N   0  0  0  0  0  1  0  0  0  0  0  0
  190.9660  180.4540  143.9480 O   0  0  0  0  0  0  0  0  0  0  0  0
  191.6020  179.4690  144.4060 C   0  0  0  0  0  0  0  0  0  0  0  0
  188.7840  178.4660  148.5500 O   0  0  0  0  0  1  0  0  0  0  0  0
  188.0300  177.8380  147.5510 C   0  0  2  0  0  0  0  0  0  0  0  0
  187.4220  176.5470  148.1300 C   0  0  2  0  0  3  0  0  0  0  0  0
  186.7420  176.8010  149.3080 F   0  0  0  0  0  0  0  0  0  0  0  0
  188.4850  175.4910  148.3940 C   0  0  0  0  0  1  0  0  0  0  0  0
  186.9680  178.7080  147.1450 O   0  0  0  0  0  0  0  0  0  0  0  0
  184.8600  177.5650  146.3200 C   0  0  0  0  0  1  0  0  0  0  0  0
  186.2330  178.9670  144.9870 O   0  0  0  0  0  0  0  0  0  0  0  0
  186.0540  178.4400  146.1140 C   0  0  0  0  0  0  0  0  0  0  0  0
  187.4500  179.6850  141.5480 C   0  0  0  0  0  1  0  0  0  0  0  0
  187.1090  178.3280  140.9630 C   0  0  0  0  0  2  0  0  0  0  0  0
  187.2530  174.1150  135.5680 C   0  0  0  0  0  2  0  0  0  0  0  0
  188.7080  174.1990  135.1420 C   0  0  0  0  0  2  0  0  0  0  0  0
  189.2690  172.8640  135.0400 N   0  0  0  0  0  2  0  0  0  0  0  0
  190.6440  173.0100  134.5940 C   0  0  0  0  0  2  0  0  0  0  0  0
  191.0390  174.4780  134.5940 C   0  0  0  0  0  2  0  0  0  0  0  0
  192.5190  174.6460  134.8930 C   0  0  2  0  0  3  0  0  0  0  0  0
  193.1470  173.3990  134.9220 O   0  0  0  0  0  1  0  0  0  0  0  0
  192.6800  175.3260  136.2420 C   0  0  0  0  0  2  0  0  0  0  0  0
  194.0280  175.1180  136.7530 N   0  0  0  0  0  0  0  0  0  0  0  0
  197.4260  173.0190  136.0050 C   0  0  0  0  0  1  0  0  0  0  0  0
  196.5560  173.8780  136.9050 C   0  0  1  0  0  3  0  0  0  0  0  0
  196.4580  175.2860  136.3690 C   0  0  0  0  0  0  0  0  0  0  0  0
  195.1620  173.2350  137.0180 C   0  0  0  0  0  2  0  0  0  0  0  0
  194.9580  177.0320  135.7500 O   0  0  0  0  0  0  0  0  0  0  0  0
  197.4920  175.9300  136.0470 O   0  0  0  0  0  0  0  0  0  0  0  0
  195.1300  175.8980  136.2730 C   0  0  0  0  0  0  0  0  0  0  0  0
  194.2750  174.1260  137.6540 O   0  0  0  0  0  0  0  0  0  0  0  0
  184.7040  177.0400  135.3280 C   0  0  0  0  0  2  0  0  0  0  0  0
  183.7520  176.2980  136.2520 C   0  0  0  0  0  2  0  0  0  0  0  0
  183.5030  176.9680  139.0190 O   0  0  0  0  0  0  0  0  0  0  0  0
  182.7820  177.2260  136.8140 N   0  0  0  0  0  2  0  0  0  0  0  0
  182.7900  177.5980  138.1930 C   0  0  0  0  0  0  0  0  0  0  0  0
  181.9770  178.7650  138.6680 C   0  0  2  0  0  3  0  0  0  0  0  0
  180.2680  177.3070  139.8510 C   0  0  0  0  0  0  0  0  0  0  0  0
  180.8600  179.2850  140.9490 C   0  0  0  0  0  3  0  0  0  0  0  0
  179.3920  177.2930  141.0370 C   0  0  0  0  0  2  0  0  0  0  0  0
  181.1340  178.4200  139.8140 N   0  0  0  0  0  0  0  0  0  0  0  0
  179.8190  178.5480  141.8030 C   0  0  0  0  0  3  0  0  0  0  0  0
  180.2430  176.4250  138.9520 O   0  0  0  0  0  0  0  0  0  0  0  0
  181.1670  179.3990  137.5370 C   0  0  0  0  0  2  0  0  0  0  0  0
  180.1120  180.1660  138.0450 O   0  0  0  0  0  0  0  0  0  0  0  0
  181.9390  182.2310  138.3440 O   0  0  0  0  0  1  0  0  0  0  0  0
  180.5970  181.9460  135.8240 C   0  0  0  0  0  1  0  0  0  0  0  0
  179.3720  182.6720  138.1310 O   0  0  0  0  0  0  0  0  0  0  0  0
  180.4750  181.7690  137.6270 P   0  0  1  0  0  0  0  0  0  0  0  0
  2  3  1  0  0  0  0
  2 51  1  1  0  0  0
  2  4  1  0  0  0  0
  3  1  1  1  0  0  0
  3  4  1  0  0  0  0
  4 34  1  6  0  0  0
  4  5  1  0  0  0  0
  5  6  1  0  0  0  0
  6  7  1  0  0  0  0
  7 10  1  0  0  0  0
  8 16  1  0  0  0  0
  9 33  1  0  0  0  0
  9  8  2  0  0  0  0
 10 11  1  0  0  0  0
 10  9  1  0  0  0  0
 11 12  2  0  0  0  0
 12  8  1  0  0  0  0
 13 14  1  1  0  0  0
 14 18  1  0  0  0  0
 15 13  1  0  0  0  0
 15 19  1  0  0  0  0
 16 15  1  0  0  0  0
 16 13  1  0  0  0  0
 17 18  1  0  0  0  0
 18 24  1  0  0  0  0
 19 17  1  0  0  0  0
 20 22  1  0  0  0  0
 21 22  2  0  0  0  0
 22 19  1  0  0  0  0
 24 25  1  0  0  0  0
 24 23  1  0  0  0  0
 25 27  1  0  0  0  0
 25 26  1  0  0  0  0
 28 24  1  0  0  0  0
 30 31  2  0  0  0  0
 31 29  1  0  0  0  0
 31 28  1  0  0  0  0
 33 32  1  0  0  0  0
 35 34  1  0  0  0  0
 36 35  1  0  0  0  0
 37 36  1  0  0  0  0
 38 37  1  0  0  0  0
 38 39  1  0  0  0  0
 39 40  1  0  0  0  0
 39 41  1  0  0  0  0
 41 42  1  0  0  0  0
 42 50  1  0  0  0  0
 43 44  1  0  0  0  0
 44 46  1  0  0  0  0
 45 44  1  0  0  0  0
 46 50  1  0  0  0  0
 47 49  2  0  0  0  0
 48 45  2  0  0  0  0
 49 45  1  0  0  0  0
 49 42  1  0  0  0  0
 51 52  1  0  0  0  0
 52 54  1  0  0  0  0
 54 55  1  0  0  0  0
 55 56  1  0  0  0  0
 55 53  2  0  0  0  0
 56 60  1  0  0  0  0
 57 59  1  0  0  0  0
 58 61  2  0  0  0  0
 59 61  1  0  0  0  0
 60 57  1  0  0  0  0
 60 58  1  0  0  0  0
 62 57  2  0  0  0  0
 63 64  1  0  0  0  0
 63 56  1  0  0  0  0
 66 68  1  0  0  0  0
 68 64  1  0  0  0  0
 68 67  2  0  0  0  0
 68 65  1  0  0  0  0
M  END
>  <MODEL>
5

>  <REMARK>
 VINA RESULT:      -3.6      3.709     10.505
  Name = 
  27 active torsions:
  status: ('A' for Active; 'I' for Inactive)
    1  A    between atoms: C_5  and  C_20
    2  A    between atoms: C_5  and  N_47
    3  A    between atoms: C_6  and  N_7
    4  A    between atoms: C_6  and  C_23
    5  A    between atoms: O_10  and  O_52
    6  A    between atoms: O_10  and  C_60
    7  A    between atoms: C_11  and  C_56
    8  A    between atoms: C_16  and  C_24
    9  A    between atoms: C_16  and  O_44
   10  A    between atoms: C_18  and  C_29
   11  A    between atoms: C_20  and  C_35
   12  A    between atoms: C_22  and  N_37
   13  A    between atoms: C_22  and  C_40
   14  A    between atoms: C_23  and  C_40
   15  A    between atoms: C_24  and  N_36
   16  A    between atoms: C_24  and  C_54
   17  A    between atoms: C_31  and  C_56
   18  A    between atoms: C_32  and  C_33
   19  A    between atoms: C_34  and  N_37
   20  A    between atoms: C_34  and  C_57
   21  A    between atoms: O_42  and  C_56
   22  A    between atoms: O_42  and  C_62
   23  A    between atoms: O_44  and  P_65
   24  A    between atoms: N_46  and  C_60
   25  A    between atoms: C_50  and  C_67
   26  A    between atoms: O_52  and  C_63
   27  A    between atoms: C_57  and  C_63
                            x       y       z     vdW  Elec       q    Type
                         _______ _______ _______ _____ _____    ______ ____

>  <TORSDO>
F 27

$$$$
=
 OpenBabel10222418303D

 68 73  0  0  1  0  0  0  0  0999 V2000
  188.2600  176.0980  142.4160 C   0  0  0  0  0  1  0  0  0  0  0  0
  187.8120  178.6400  142.2520 C   0  0  1  0  0  3  0  0  0  0  0  0
  188.4700  177.4810  143.0320 C   0  0  2  0  0  3  0  0  0  0  0  0
  189.3190  178.4110  142.1730 C   0  0  1  0  0  0  0  0  0  0  0  0
  189.8540  177.8120  141.0160 O   0  0  0  0  0  0  0  0  0  0  0  0
  188.8920  177.8480  140.1140 O   0  0  0  0  0  0  0  0  0  0  0  0
  189.4010  178.6340  139.0800 C   0  0  0  0  0  2  0  0  0  0  0  0
  190.7630  176.2640  136.6550 C   0  0  0  0  0  0  0  0  0  0  0  0
  190.7100  176.8080  137.8580 C   0  0  0  0  0  0  0  0  0  0  0  0
  189.6970  177.7950  137.9300 N   0  0  0  0  0  0  0  0  0  0  0  0
  189.0550  177.9340  136.6360 C   0  0  0  0  0  3  0  0  0  0  0  0
  189.7760  176.9220  135.7370 C   0  0  0  0  0  3  0  0  0  0  0  0
  192.6920  174.9150  137.4010 C   0  0  2  0  0  3  0  0  0  0  0  0
  194.1000  174.6980  136.8400 C   0  0  0  0  0  2  0  0  0  0  0  0
  191.5820  173.9350  136.9870 C   0  0  1  0  0  3  0  0  0  0  0  0
  191.7700  175.2380  136.2300 C   0  0  1  0  0  3  0  0  0  0  0  0
  193.3770  172.7480  135.5080 C   0  0  0  0  0  2  0  0  0  0  0  0
  194.4020  173.2420  136.5120 C   0  0  1  0  0  3  0  0  0  0  0  0
  192.0110  172.6870  136.1820 C   0  0  2  0  0  3  0  0  0  0  0  0
  190.9880  170.9930  134.5970 N   0  0  0  0  0  1  0  0  0  0  0  0
  190.0310  173.0850  134.9180 O   0  0  0  0  0  0  0  0  0  0  0  0
  190.9550  172.2810  135.2070 C   0  0  0  0  0  0  0  0  0  0  0  0
  195.8470  172.1540  134.9500 O   0  0  0  0  0  1  0  0  0  0  0  0
  195.8580  173.0320  136.0400 C   0  0  2  0  0  0  0  0  0  0  0  0
  196.7290  172.4220  137.1550 C   0  0  2  0  0  3  0  0  0  0  0  0
  196.4240  171.0870  137.3510 F   0  0  0  0  0  0  0  0  0  0  0  0
  196.5580  173.1640  138.4730 C   0  0  0  0  0  1  0  0  0  0  0  0
  196.4350  174.2800  135.6350 O   0  0  0  0  0  0  0  0  0  0  0  0
  198.6990  173.8120  134.5950 C   0  0  0  0  0  1  0  0  0  0  0  0
  198.3080  175.4350  136.2800 O   0  0  0  0  0  0  0  0  0  0  0  0
  197.8100  174.5430  135.5470 C   0  0  0  0  0  0  0  0  0  0  0  0
  192.7110  177.4480  139.1610 C   0  0  0  0  0  1  0  0  0  0  0  0
  191.5940  176.4340  139.0090 C   0  0  0  0  0  2  0  0  0  0  0  0
  190.2190  179.3200  142.9980 C   0  0  0  0  0  2  0  0  0  0  0  0
  191.5830  178.6850  143.2030 C   0  0  0  0  0  2  0  0  0  0  0  0
  191.4290  177.3700  143.8000 N   0  0  0  0  0  2  0  0  0  0  0  0
  192.0320  177.4260  145.1200 C   0  0  0  0  0  2  0  0  0  0  0  0
  191.5510  176.2560  145.9630 C   0  0  0  0  0  2  0  0  0  0  0  0
  190.3930  176.6660  146.8570 C   0  0  2  0  0  3  0  0  0  0  0  0
  190.1210  175.6570  147.7830 O   0  0  0  0  0  1  0  0  0  0  0  0
  189.1640  176.9100  145.9980 C   0  0  0  0  0  2  0  0  0  0  0  0
  188.0380  177.3090  146.8320 N   0  0  0  0  0  0  0  0  0  0  0  0
  186.1020  180.6120  148.1950 C   0  0  0  0  0  1  0  0  0  0  0  0
  186.3910  179.1220  148.2310 C   0  0  1  0  0  3  0  0  0  0  0  0
  185.8550  178.4430  146.9940 C   0  0  0  0  0  0  0  0  0  0  0  0
  187.9110  178.9080  148.3590 C   0  0  0  0  0  2  0  0  0  0  0  0
  186.3950  176.9970  145.1780 O   0  0  0  0  0  0  0  0  0  0  0  0
  184.6680  178.6300  146.6150 O   0  0  0  0  0  0  0  0  0  0  0  0
  186.7400  177.5280  146.2680 C   0  0  0  0  0  0  0  0  0  0  0  0
  188.2210  177.5480  148.1620 O   0  0  0  0  0  0  0  0  0  0  0  0
  187.0900  178.2350  140.9640 C   0  0  0  0  0  2  0  0  0  0  0  0
  185.7720  178.9840  140.8490 C   0  0  0  0  0  2  0  0  0  0  0  0
  183.2050  177.9200  140.1860 O   0  0  0  0  0  0  0  0  0  0  0  0
  185.2370  178.8440  139.5040 N   0  0  0  0  0  2  0  0  0  0  0  0
  183.8990  178.4080  139.2550 C   0  0  0  0  0  0  0  0  0  0  0  0
  183.2950  178.5580  137.8910 C   0  0  2  0  0  3  0  0  0  0  0  0
  181.8590  180.5820  138.4280 C   0  0  0  0  0  0  0  0  0  0  0  0
  180.7100  178.6710  137.7220 C   0  0  0  0  0  3  0  0  0  0  0  0
  180.4480  180.9960  138.5340 C   0  0  0  0  0  2  0  0  0  0  0  0
  182.0170  179.2720  137.9290 N   0  0  0  0  0  0  0  0  0  0  0  0
  179.6850  179.7770  138.0060 C   0  0  0  0  0  3  0  0  0  0  0  0
  182.8300  181.3140  138.7580 O   0  0  0  0  0  0  0  0  0  0  0  0
  183.1770  177.2180  137.1650 C   0  0  0  0  0  2  0  0  0  0  0  0
  182.0030  176.5500  137.5340 O   0  0  0  0  0  0  0  0  0  0  0  0
  183.6110  174.3590  138.0890 O   0  0  0  0  0  1  0  0  0  0  0  0
  180.8220  173.9160  137.5850 C   0  0  0  0  0  1  0  0  0  0  0  0
  182.5920  174.7660  135.7160 O   0  0  0  0  0  0  0  0  0  0  0  0
  182.2860  174.9140  137.1900 P   0  0  1  0  0  0  0  0  0  0  0  0
  2 51  1  6  0  0  0
  2  3  1  0  0  0  0
  3  1  1  6  0  0  0
  4  2  1  0  0  0  0
  4 34  1  1  0  0  0
  4  3  1  0  0  0  0
  5  4  1  0  0  0  0
  6  5  1  0  0  0  0
  7  6  1  0  0  0  0
  8  9  2  0  0  0  0
  9 10  1  0  0  0  0
  9 33  1  0  0  0  0
 10  7  1  0  0  0  0
 11 10  1  0  0  0  0
 12 11  2  0  0  0  0
 12  8  1  0  0  0  0
 13 14  1  6  0  0  0
 15 13  1  0  0  0  0
 16  8  1  0  0  0  0
 16 15  1  0  0  0  0
 16 13  1  0  0  0  0
 17 19  1  0  0  0  0
 17 18  1  0  0  0  0
 18 14  1  0  0  0  0
 19 15  1  0  0  0  0
 20 22  1  0  0  0  0
 21 22  2  0  0  0  0
 22 19  1  0  0  0  0
 23 24  1  0  0  0  0
 24 18  1  0  0  0  0
 24 25  1  0  0  0  0
 25 26  1  0  0  0  0
 25 27  1  0  0  0  0
 28 24  1  0  0  0  0
 29 31  1  0  0  0  0
 31 28  1  0  0  0  0
 31 30  2  0  0  0  0
 33 32  1  0  0  0  0
 34 35  1  0  0  0  0
 35 36  1  0  0  0  0
 36 37  1  0  0  0  0
 37 38  1  0  0  0  0
 38 39  1  0  0  0  0
 39 40  1  0  0  0  0
 41 42  1  0  0  0  0
 41 39  1  0  0  0  0
 42 50  1  0  0  0  0
 43 44  1  0  0  0  0
 44 46  1  0  0  0  0
 45 44  1  0  0  0  0
 47 49  2  0  0  0  0
 48 45  2  0  0  0  0
 49 42  1  0  0  0  0
 49 45  1  0  0  0  0
 50 46  1  0  0  0  0
 52 51  1  0  0  0  0
 54 52  1  0  0  0  0
 55 54  1  0  0  0  0
 55 53  2  0  0  0  0
 56 60  1  0  0  0  0
 56 55  1  0  0  0  0
 57 59  1  0  0  0  0
 57 62  2  0  0  0  0
 58 60  1  0  0  0  0
 58 61  2  0  0  0  0
 60 57  1  0  0  0  0
 61 59  1  0  0  0  0
 63 64  1  0  0  0  0
 63 56  1  0  0  0  0
 67 68  2  0  0  0  0
 68 64  1  0  0  0  0
 68 66  1  0  0  0  0
 68 65  1  0  0  0  0
M  END
>  <MODEL>
6

>  <REMARK>
 VINA RESULT:      -3.4      2.602      8.433
  Name = 
  27 active torsions:
  status: ('A' for Active; 'I' for Inactive)
    1  A    between atoms: C_5  and  C_20
    2  A    between atoms: C_5  and  N_47
    3  A    between atoms: C_6  and  N_7
    4  A    between atoms: C_6  and  C_23
    5  A    between atoms: O_10  and  O_52
    6  A    between atoms: O_10  and  C_60
    7  A    between atoms: C_11  and  C_56
    8  A    between atoms: C_16  and  C_24
    9  A    between atoms: C_16  and  O_44
   10  A    between atoms: C_18  and  C_29
   11  A    between atoms: C_20  and  C_35
   12  A    between atoms: C_22  and  N_37
   13  A    between atoms: C_22  and  C_40
   14  A    between atoms: C_23  and  C_40
   15  A    between atoms: C_24  and  N_36
   16  A    between atoms: C_24  and  C_54
   17  A    between atoms: C_31  and  C_56
   18  A    between atoms: C_32  and  C_33
   19  A    between atoms: C_34  and  N_37
   20  A    between atoms: C_34  and  C_57
   21  A    between atoms: O_42  and  C_56
   22  A    between atoms: O_42  and  C_62
   23  A    between atoms: O_44  and  P_65
   24  A    between atoms: N_46  and  C_60
   25  A    between atoms: C_50  and  C_67
   26  A    between atoms: O_52  and  C_63
   27  A    between atoms: C_57  and  C_63
                            x       y       z     vdW  Elec       q    Type
                         _______ _______ _______ _____ _____    ______ ____

>  <TORSDO>
F 27

$$$$
=
 OpenBabel10222418303D

 68 73  0  0  1  0  0  0  0  0999 V2000
  190.0220  176.1120  141.8470 C   0  0  0  0  0  1  0  0  0  0  0  0
  191.8480  177.7850  141.1010 C   0  0  1  0  0  3  0  0  0  0  0  0
  191.2730  176.3550  141.0020 C   0  0  2  0  0  3  0  0  0  0  0  0
  191.0600  177.3500  139.8670 C   0  0  1  0  0  0  0  0  0  0  0  0
  189.7320  177.7950  139.7210 O   0  0  0  0  0  0  0  0  0  0  0  0
  189.4910  177.7910  138.4250 O   0  0  0  0  0  0  0  0  0  0  0  0
  188.3150  178.5270  138.2770 C   0  0  0  0  0  2  0  0  0  0  0  0
  185.5360  176.8280  136.6230 C   0  0  0  0  0  0  0  0  0  0  0  0
  186.0600  177.5130  137.6240 C   0  0  0  0  0  0  0  0  0  0  0  0
  187.4160  177.8350  137.3690 N   0  0  0  0  0  0  0  0  0  0  0  0
  187.8230  177.2720  136.0950 C   0  0  0  0  0  3  0  0  0  0  0  0
  186.5710  176.5560  135.5730 C   0  0  0  0  0  3  0  0  0  0  0  0
  183.9300  175.4060  137.8470 C   0  0  2  0  0  3  0  0  0  0  0  0
  183.0560  174.2170  137.4360 C   0  0  0  0  0  2  0  0  0  0  0  0
  183.3250  176.8170  137.7690 C   0  0  1  0  0  3  0  0  0  0  0  0
  184.1430  176.2740  136.6110 C   0  0  1  0  0  3  0  0  0  0  0  0
  181.1590  175.6850  136.8490 C   0  0  0  0  0  2  0  0  0  0  0  0
  181.5670  174.4600  137.6450 C   0  0  1  0  0  3  0  0  0  0  0  0
  181.8130  176.9180  137.4640 C   0  0  2  0  0  3  0  0  0  0  0  0
  181.3440  178.0590  135.2490 N   0  0  0  0  0  1  0  0  0  0  0  0
  181.3830  179.2510  137.2420 O   0  0  0  0  0  0  0  0  0  0  0  0
  181.5010  178.1400  136.6630 C   0  0  0  0  0  0  0  0  0  0  0  0
  181.5010  172.0750  137.5170 O   0  0  0  0  0  1  0  0  0  0  0  0
  180.7140  173.2140  137.3170 C   0  0  2  0  0  0  0  0  0  0  0  0
  180.2350  173.2320  135.8520 C   0  0  2  0  0  3  0  0  0  0  0  0
  178.9760  172.6710  135.7320 F   0  0  0  0  0  0  0  0  0  0  0  0
  181.1950  172.4870  134.9370 C   0  0  0  0  0  1  0  0  0  0  0  0
  179.5690  173.1540  138.1760 O   0  0  0  0  0  0  0  0  0  0  0  0
  180.0510  172.8140  140.6410 C   0  0  0  0  0  1  0  0  0  0  0  0
  179.0500  174.7610  139.7280 O   0  0  0  0  0  0  0  0  0  0  0  0
  179.5270  173.6210  139.4980 C   0  0  0  0  0  0  0  0  0  0  0  0
  184.8320  179.3380  138.7510 C   0  0  0  0  0  1  0  0  0  0  0  0
  185.3290  177.9100  138.8700 C   0  0  0  0  0  2  0  0  0  0  0  0
  191.8460  176.9930  138.6130 C   0  0  0  0  0  2  0  0  0  0  0  0
  191.7680  175.5020  138.3360 C   0  0  0  0  0  2  0  0  0  0  0  0
  190.7790  175.2450  137.3030 N   0  0  0  0  0  2  0  0  0  0  0  0
  191.4560  174.5430  136.2270 C   0  0  0  0  0  2  0  0  0  0  0  0
  191.3040  173.0410  136.4060 C   0  0  0  0  0  2  0  0  0  0  0  0
  192.1550  172.2820  135.4020 C   0  0  2  0  0  3  0  0  0  0  0  0
  191.4330  171.2080  134.8770 O   0  0  0  0  0  1  0  0  0  0  0  0
  193.4020  171.7630  136.0960 C   0  0  0  0  0  2  0  0  0  0  0  0
  194.5860  172.4300  135.5700 N   0  0  0  0  0  0  0  0  0  0  0  0
  197.8980  174.4530  136.7740 C   0  0  0  0  0  1  0  0  0  0  0  0
  196.9180  174.0090  135.7020 C   0  0  1  0  0  3  0  0  0  0  0  0
  197.0460  172.5280  135.4410 C   0  0  0  0  0  0  0  0  0  0  0  0
  195.4890  174.3660  136.1500 C   0  0  0  0  0  2  0  0  0  0  0  0
  195.8540  170.4690  135.2850 O   0  0  0  0  0  0  0  0  0  0  0  0
  198.1700  172.0030  135.2230 O   0  0  0  0  0  0  0  0  0  0  0  0
  195.8210  171.7240  135.4060 C   0  0  0  0  0  0  0  0  0  0  0  0
  194.5530  173.7630  135.2870 O   0  0  0  0  0  0  0  0  0  0  0  0
  191.0570  178.7480  141.9910 C   0  0  0  0  0  2  0  0  0  0  0  0
  191.9070  179.1740  143.1770 C   0  0  0  0  0  2  0  0  0  0  0  0
  190.6480  176.8070  144.1660 O   0  0  0  0  0  0  0  0  0  0  0  0
  191.1290  179.0790  144.4040 N   0  0  0  0  0  2  0  0  0  0  0  0
  190.6240  177.8350  144.8940 C   0  0  0  0  0  0  0  0  0  0  0  0
  190.0910  177.7320  146.2920 C   0  0  2  0  0  3  0  0  0  0  0  0
  191.3540  177.6920  148.4930 C   0  0  0  0  0  0  0  0  0  0  0  0
  192.0740  176.1660  146.8730 C   0  0  0  0  0  3  0  0  0  0  0  0
  192.5150  177.0550  149.1420 C   0  0  0  0  0  2  0  0  0  0  0  0
  191.0730  177.1640  147.2160 N   0  0  0  0  0  0  0  0  0  0  0  0
  192.9530  176.0020  148.1200 C   0  0  0  0  0  3  0  0  0  0  0  0
  190.6840  178.6220  149.0150 O   0  0  0  0  0  0  0  0  0  0  0  0
  188.7590  176.9840  146.3450 C   0  0  0  0  0  2  0  0  0  0  0  0
  187.7570  177.7840  146.9090 O   0  0  0  0  0  0  0  0  0  0  0  0
  186.0170  179.2700  145.3410 O   0  0  0  0  0  0  0  0  0  0  0  0
  186.8940  176.7170  144.3690 C   0  0  0  0  0  1  0  0  0  0  0  0
  185.2770  177.0560  146.5170 O   0  0  0  0  0  1  0  0  0  0  0  0
  186.4540  177.7070  145.8260 P   0  0  1  0  0  0  0  0  0  0  0  0
  2 51  1  1  0  0  0
  3  2  1  0  0  0  0
  3  1  1  1  0  0  0
  4 34  1  6  0  0  0
  4  3  1  0  0  0  0
  4  2  1  0  0  0  0
  5  4  1  0  0  0  0
  6  5  1  0  0  0  0
  7  6  1  0  0  0  0
  8  9  2  0  0  0  0
  9 33  1  0  0  0  0
 10  9  1  0  0  0  0
 10  7  1  0  0  0  0
 11 10  1  0  0  0  0
 12 11  2  0  0  0  0
 12  8  1  0  0  0  0
 13 14  1  6  0  0  0
 14 18  1  0  0  0  0
 15 13  1  0  0  0  0
 16  8  1  0  0  0  0
 16 15  1  0  0  0  0
 16 13  1  0  0  0  0
 17 19  1  0  0  0  0
 17 18  1  0  0  0  0
 19 15  1  0  0  0  0
 20 22  1  0  0  0  0
 22 21  2  0  0  0  0
 22 19  1  0  0  0  0
 24 23  1  0  0  0  0
 24 18  1  0  0  0  0
 24 28  1  0  0  0  0
 25 24  1  0  0  0  0
 26 25  1  0  0  0  0
 27 25  1  0  0  0  0
 28 31  1  0  0  0  0
 31 30  2  0  0  0  0
 31 29  1  0  0  0  0
 32 33  1  0  0  0  0
 35 34  1  0  0  0  0
 36 35  1  0  0  0  0
 37 38  1  0  0  0  0
 37 36  1  0  0  0  0
 39 41  1  0  0  0  0
 39 38  1  0  0  0  0
 40 39  1  0  0  0  0
 42 41  1  0  0  0  0
 44 46  1  0  0  0  0
 44 43  1  0  0  0  0
 45 44  1  0  0  0  0
 47 49  2  0  0  0  0
 48 45  2  0  0  0  0
 49 45  1  0  0  0  0
 49 42  1  0  0  0  0
 50 42  1  0  0  0  0
 50 46  1  0  0  0  0
 51 52  1  0  0  0  0
 52 54  1  0  0  0  0
 53 55  2  0  0  0  0
 54 55  1  0  0  0  0
 55 56  1  0  0  0  0
 56 63  1  0  0  0  0
 56 60  1  0  0  0  0
 57 62  2  0  0  0  0
 57 59  1  0  0  0  0
 58 60  1  0  0  0  0
 58 61  2  0  0  0  0
 60 57  1  0  0  0  0
 61 59  1  0  0  0  0
 63 64  1  0  0  0  0
 65 68  2  0  0  0  0
 66 68  1  0  0  0  0
 68 67  1  0  0  0  0
 68 64  1  0  0  0  0
M  END
>  <MODEL>
7

>  <REMARK>
 VINA RESULT:      -2.9      3.170      9.279
  Name = 
  27 active torsions:
  status: ('A' for Active; 'I' for Inactive)
    1  A    between atoms: C_5  and  C_20
    2  A    between atoms: C_5  and  N_47
    3  A    between atoms: C_6  and  N_7
    4  A    between atoms: C_6  and  C_23
    5  A    between atoms: O_10  and  O_52
    6  A    between atoms: O_10  and  C_60
    7  A    between atoms: C_11  and  C_56
    8  A    between atoms: C_16  and  C_24
    9  A    between atoms: C_16  and  O_44
   10  A    between atoms: C_18  and  C_29
   11  A    between atoms: C_20  and  C_35
   12  A    between atoms: C_22  and  N_37
   13  A    between atoms: C_22  and  C_40
   14  A    between atoms: C_23  and  C_40
   15  A    between atoms: C_24  and  N_36
   16  A    between atoms: C_24  and  C_54
   17  A    between atoms: C_31  and  C_56
   18  A    between atoms: C_32  and  C_33
   19  A    between atoms: C_34  and  N_37
   20  A    between atoms: C_34  and  C_57
   21  A    between atoms: O_42  and  C_56
   22  A    between atoms: O_42  and  C_62
   23  A    between atoms: O_44  and  P_65
   24  A    between atoms: N_46  and  C_60
   25  A    between atoms: C_50  and  C_67
   26  A    between atoms: O_52  and  C_63
   27  A    between atoms: C_57  and  C_63
                            x       y       z     vdW  Elec       q    Type
                         _______ _______ _______ _____ _____    ______ ____

>  <TORSDO>
F 27

$$$$
=
 OpenBabel10222418303D

 68 73  0  0  1  0  0  0  0  0999 V2000
  185.3890  180.2930  143.5630 C   0  0  0  0  0  1  0  0  0  0  0  0
  183.8430  179.1090  141.8620 C   0  0  1  0  0  3  0  0  0  0  0  0
  184.9710  180.1360  142.1010 C   0  0  2  0  0  3  0  0  0  0  0  0
  185.2900  178.7630  141.5180 C   0  0  1  0  0  0  0  0  0  0  0  0
  186.0070  177.9130  142.3830 O   0  0  0  0  0  0  0  0  0  0  0  0
  186.9740  177.3920  141.6560 O   0  0  0  0  0  0  0  0  0  0  0  0
  187.7730  178.4770  141.2920 C   0  0  0  0  0  2  0  0  0  0  0  0
  189.6010  177.4460  138.3020 C   0  0  0  0  0  0  0  0  0  0  0  0
  189.3050  177.3460  139.5860 C   0  0  0  0  0  0  0  0  0  0  0  0
  188.2970  178.2710  139.9520 N   0  0  0  0  0  0  0  0  0  0  0  0
  187.9280  179.0770  138.8030 C   0  0  0  0  0  3  0  0  0  0  0  0
  188.8190  178.5570  137.6670 C   0  0  0  0  0  3  0  0  0  0  0  0
  191.5570  175.9810  138.6580 C   0  0  2  0  0  3  0  0  0  0  0  0
  192.9980  176.0110  138.1420 C   0  0  0  0  0  2  0  0  0  0  0  0
  190.5160  175.1700  137.8690 C   0  0  1  0  0  3  0  0  0  0  0  0
  190.6760  176.6590  137.6140 C   0  0  1  0  0  3  0  0  0  0  0  0
  192.4330  174.6150  136.1850 C   0  0  0  0  0  2  0  0  0  0  0  0
  193.3850  174.7660  137.3560 C   0  0  1  0  0  3  0  0  0  0  0  0
  191.0420  174.2870  136.7150 C   0  0  2  0  0  3  0  0  0  0  0  0
  189.0800  173.1660  135.5630 N   0  0  0  0  0  1  0  0  0  0  0  0
  190.0820  175.0650  134.6770 O   0  0  0  0  0  0  0  0  0  0  0  0
  190.0530  174.2080  135.5980 C   0  0  0  0  0  0  0  0  0  0  0  0
  195.6470  175.1240  138.0400 O   0  0  0  0  0  1  0  0  0  0  0  0
  194.8700  174.7740  136.9290 C   0  0  2  0  0  0  0  0  0  0  0  0
  195.1260  175.7990  135.8070 C   0  0  2  0  0  3  0  0  0  0  0  0
  196.4710  175.8670  135.4920 F   0  0  0  0  0  0  0  0  0  0  0  0
  194.6400  177.1880  136.1900 C   0  0  0  0  0  1  0  0  0  0  0  0
  195.2640  173.4770  136.4690 O   0  0  0  0  0  0  0  0  0  0  0  0
  195.6750  172.3040  138.6790 C   0  0  0  0  0  1  0  0  0  0  0  0
  194.8660  171.2320  136.7240 O   0  0  0  0  0  0  0  0  0  0  0  0
  195.2550  172.3080  137.2450 C   0  0  0  0  0  0  0  0  0  0  0  0
  190.9510  177.0970  141.4130 C   0  0  0  0  0  1  0  0  0  0  0  0
  189.9390  176.3810  140.5410 C   0  0  0  0  0  2  0  0  0  0  0  0
  185.7070  178.8250  140.0560 C   0  0  0  0  0  2  0  0  0  0  0  0
  184.4950  178.7310  139.1450 C   0  0  0  0  0  2  0  0  0  0  0  0
  184.5680  177.5160  138.3520 N   0  0  0  0  0  2  0  0  0  0  0  0
  184.4750  177.9100  136.9570 C   0  0  0  0  0  2  0  0  0  0  0  0
  185.4080  177.0580  136.1110 C   0  0  0  0  0  2  0  0  0  0  0  0
  185.7280  175.7450  136.8060 C   0  0  2  0  0  3  0  0  0  0  0  0
  187.1010  175.6510  137.0440 O   0  0  0  0  0  1  0  0  0  0  0  0
  185.2870  174.5920  135.9210 C   0  0  0  0  0  2  0  0  0  0  0  0
  184.0830  173.9760  136.4590 N   0  0  0  0  0  0  0  0  0  0  0  0
  180.7420  171.9760  135.2970 C   0  0  0  0  0  1  0  0  0  0  0  0
  181.5520  172.7390  136.3300 C   0  0  1  0  0  3  0  0  0  0  0  0
  182.7450  171.9300  136.7780 C   0  0  0  0  0  0  0  0  0  0  0  0
  181.9960  174.0840  135.7260 C   0  0  0  0  0  2  0  0  0  0  0  0
  185.1090  171.9530  137.0820 O   0  0  0  0  0  0  0  0  0  0  0  0
  182.6130  170.7330  137.1500 O   0  0  0  0  0  0  0  0  0  0  0  0
  184.0540  172.5880  136.8090 C   0  0  0  0  0  0  0  0  0  0  0  0
  182.9350  174.7020  136.5750 O   0  0  0  0  0  0  0  0  0  0  0  0
  183.3470  178.3770  143.1120 C   0  0  0  0  0  2  0  0  0  0  0  0
  182.0140  178.9560  143.5580 C   0  0  0  0  0  2  0  0  0  0  0  0
  180.3980  180.6880  141.9600 O   0  0  0  0  0  0  0  0  0  0  0  0
  180.9600  178.5300  142.6500 N   0  0  0  0  0  2  0  0  0  0  0  0
  180.2690  179.4450  141.7980 C   0  0  0  0  0  0  0  0  0  0  0  0
  179.4090  178.9370  140.6790 C   0  0  2  0  0  3  0  0  0  0  0  0
  179.7540  176.4220  140.6340 C   0  0  0  0  0  0  0  0  0  0  0  0
  180.9430  177.6470  139.0340 C   0  0  0  0  0  3  0  0  0  0  0  0
  180.5520  175.3830  139.9580 C   0  0  0  0  0  2  0  0  0  0  0  0
  179.9420  177.7090  140.0880 N   0  0  0  0  0  0  0  0  0  0  0  0
  181.2830  176.1610  138.8600 C   0  0  0  0  0  3  0  0  0  0  0  0
  178.9890  176.1940  141.6080 O   0  0  0  0  0  0  0  0  0  0  0  0
  179.1470  180.0110  139.6240 C   0  0  0  0  0  2  0  0  0  0  0  0
  180.1490  180.9880  139.6430 O   0  0  0  0  0  0  0  0  0  0  0  0
  181.7790  180.2790  137.5140 O   0  0  0  0  0  0  0  0  0  0  0  0
  179.0590  181.0130  136.9700 C   0  0  0  0  0  1  0  0  0  0  0  0
  180.9520  182.7330  137.8690 O   0  0  0  0  0  1  0  0  0  0  0  0
  180.5170  181.2920  138.0160 P   0  0  1  0  0  0  0  0  0  0  0  0
  2  3  1  0  0  0  0
  2 51  1  1  0  0  0
  3  1  1  1  0  0  0
  4 34  1  6  0  0  0
  4  2  1  0  0  0  0
  4  3  1  0  0  0  0
  4  5  1  0  0  0  0
  6  5  1  0  0  0  0
  7  6  1  0  0  0  0
  8  9  2  0  0  0  0
  9 10  1  0  0  0  0
  9 33  1  0  0  0  0
 10  7  1  0  0  0  0
 11 10  1  0  0  0  0
 12  8  1  0  0  0  0
 12 11  2  0  0  0  0
 13 14  1  6  0  0  0
 15 13  1  0  0  0  0
 16 15  1  0  0  0  0
 16  8  1  0  0  0  0
 16 13  1  0  0  0  0
 17 19  1  0  0  0  0
 17 18  1  0  0  0  0
 18 14  1  0  0  0  0
 19 15  1  0  0  0  0
 20 22  1  0  0  0  0
 21 22  2  0  0  0  0
 22 19  1  0  0  0  0
 24 18  1  0  0  0  0
 24 23  1  0  0  0  0
 25 27  1  0  0  0  0
 25 24  1  0  0  0  0
 26 25  1  0  0  0  0
 28 24  1  0  0  0  0
 28 31  1  0  0  0  0
 30 31  2  0  0  0  0
 31 29  1  0  0  0  0
 33 32  1  0  0  0  0
 35 34  1  0  0  0  0
 36 35  1  0  0  0  0
 37 36  1  0  0  0  0
 38 39  1  0  0  0  0
 38 37  1  0  0  0  0
 39 40  1  0  0  0  0
 41 42  1  0  0  0  0
 41 39  1  0  0  0  0
 42 50  1  0  0  0  0
 42 49  1  0  0  0  0
 43 44  1  0  0  0  0
 44 45  1  0  0  0  0
 45 49  1  0  0  0  0
 45 48  2  0  0  0  0
 46 44  1  0  0  0  0
 46 50  1  0  0  0  0
 49 47  2  0  0  0  0
 51 52  1  0  0  0  0
 54 52  1  0  0  0  0
 55 53  2  0  0  0  0
 55 54  1  0  0  0  0
 56 55  1  0  0  0  0
 57 62  2  0  0  0  0
 58 60  1  0  0  0  0
 59 57  1  0  0  0  0
 60 57  1  0  0  0  0
 60 56  1  0  0  0  0
 61 58  2  0  0  0  0
 61 59  1  0  0  0  0
 63 64  1  0  0  0  0
 63 56  1  0  0  0  0
 65 68  2  0  0  0  0
 66 68  1  0  0  0  0
 67 68  1  0  0  0  0
 68 64  1  0  0  0  0
M  END
>  <MODEL>
8

>  <REMARK>
 VINA RESULT:      -2.8      3.305      6.538
  Name = 
  27 active torsions:
  status: ('A' for Active; 'I' for Inactive)
    1  A    between atoms: C_5  and  C_20
    2  A    between atoms: C_5  and  N_47
    3  A    between atoms: C_6  and  N_7
    4  A    between atoms: C_6  and  C_23
    5  A    between atoms: O_10  and  O_52
    6  A    between atoms: O_10  and  C_60
    7  A    between atoms: C_11  and  C_56
    8  A    between atoms: C_16  and  C_24
    9  A    between atoms: C_16  and  O_44
   10  A    between atoms: C_18  and  C_29
   11  A    between atoms: C_20  and  C_35
   12  A    between atoms: C_22  and  N_37
   13  A    between atoms: C_22  and  C_40
   14  A    between atoms: C_23  and  C_40
   15  A    between atoms: C_24  and  N_36
   16  A    between atoms: C_24  and  C_54
   17  A    between atoms: C_31  and  C_56
   18  A    between atoms: C_32  and  C_33
   19  A    between atoms: C_34  and  N_37
   20  A    between atoms: C_34  and  C_57
   21  A    between atoms: O_42  and  C_56
   22  A    between atoms: O_42  and  C_62
   23  A    between atoms: O_44  and  P_65
   24  A    between atoms: N_46  and  C_60
   25  A    between atoms: C_50  and  C_67
   26  A    between atoms: O_52  and  C_63
   27  A    between atoms: C_57  and  C_63
                            x       y       z     vdW  Elec       q    Type
                         _______ _______ _______ _____ _____    ______ ____

>  <TORSDO>
F 27

$$$$
=
 OpenBabel10222418303D

 68 73  0  0  1  0  0  0  0  0999 V2000
  187.4370  177.8830  135.5730 C   0  0  0  0  0  1  0  0  0  0  0  0
  186.1740  175.7580  134.8130 C   0  0  1  0  0  3  0  0  0  0  0  0
  187.5220  176.5040  134.9180 C   0  0  2  0  0  3  0  0  0  0  0  0
  187.2020  175.3550  135.8680 C   0  0  1  0  0  0  0  0  0  0  0  0
  186.9880  175.7440  137.2050 O   0  0  0  0  0  0  0  0  0  0  0  0
  188.1840  175.8140  137.7550 O   0  0  0  0  0  0  0  0  0  0  0  0
  188.1640  176.9910  138.5050 C   0  0  0  0  0  2  0  0  0  0  0  0
  190.2000  177.1150  141.5360 C   0  0  0  0  0  0  0  0  0  0  0  0
  189.0420  177.1630  140.9000 C   0  0  0  0  0  0  0  0  0  0  0  0
  189.2120  176.9470  139.5100 N   0  0  0  0  0  0  0  0  0  0  0  0
  190.6220  176.7820  139.2080 C   0  0  0  0  0  3  0  0  0  0  0  0
  191.3250  176.9170  140.5650 C   0  0  0  0  0  3  0  0  0  0  0  0
  191.4150  176.4130  143.5670 C   0  0  2  0  0  3  0  0  0  0  0  0
  190.9630  176.0090  144.9740 C   0  0  0  0  0  2  0  0  0  0  0  0
  191.7690  177.8860  143.3100 C   0  0  1  0  0  3  0  0  0  0  0  0
  190.3740  177.3720  143.0030 C   0  0  1  0  0  3  0  0  0  0  0  0
  191.1230  178.3310  145.8000 C   0  0  0  0  0  2  0  0  0  0  0  0
  191.5360  176.8960  146.0710 C   0  0  1  0  0  3  0  0  0  0  0  0
  191.8260  178.8210  144.5390 C   0  0  2  0  0  3  0  0  0  0  0  0
  190.6310  180.4480  143.0060 N   0  0  0  0  0  1  0  0  0  0  0  0
  191.6920  181.1660  144.9440 O   0  0  0  0  0  0  0  0  0  0  0  0
  191.3870  180.2050  144.1900 C   0  0  0  0  0  0  0  0  0  0  0  0
  191.5750  177.3690  148.4130 O   0  0  0  0  0  1  0  0  0  0  0  0
  191.1450  176.4130  147.4860 C   0  0  2  0  0  0  0  0  0  0  0  0
  191.8110  175.0650  147.8230 C   0  0  2  0  0  3  0  0  0  0  0  0
  192.2470  175.0380  149.1350 F   0  0  0  0  0  0  0  0  0  0  0  0
  192.9910  174.7750  146.9070 C   0  0  0  0  0  1  0  0  0  0  0  0
  189.7240  176.2640  147.5870 O   0  0  0  0  0  0  0  0  0  0  0  0
  188.6900  178.1550  148.9210 C   0  0  0  0  0  1  0  0  0  0  0  0
  188.0710  177.5860  146.7040 O   0  0  0  0  0  0  0  0  0  0  0  0
  188.8070  177.3200  147.6880 C   0  0  0  0  0  0  0  0  0  0  0  0
  187.9010  177.7150  143.0220 C   0  0  0  0  0  1  0  0  0  0  0  0
  187.7140  177.4040  141.5500 C   0  0  0  0  0  2  0  0  0  0  0  0
  188.0450  174.1160  135.6010 C   0  0  0  0  0  2  0  0  0  0  0  0
  189.3770  174.4940  134.9790 C   0  0  0  0  0  2  0  0  0  0  0  0
  190.3790  173.5000  135.3190 N   0  0  0  0  0  2  0  0  0  0  0  0
  191.6520  174.1920  135.4210 C   0  0  0  0  0  2  0  0  0  0  0  0
  191.4990  175.4430  136.2720 C   0  0  0  0  0  2  0  0  0  0  0  0
  192.4950  175.4490  137.4190 C   0  0  2  0  0  3  0  0  0  0  0  0
  193.1640  176.6740  137.4670 O   0  0  0  0  0  1  0  0  0  0  0  0
  193.5010  174.3300  137.2110 C   0  0  0  0  0  2  0  0  0  0  0  0
  194.8580  174.8600  137.2430 N   0  0  0  0  0  0  0  0  0  0  0  0
  198.7230  173.6830  137.6740 C   0  0  0  0  0  1  0  0  0  0  0  0
  197.6490  174.7550  137.6320 C   0  0  1  0  0  3  0  0  0  0  0  0
  197.1060  174.9140  136.2330 C   0  0  0  0  0  0  0  0  0  0  0  0
  196.5260  174.3800  138.6170 C   0  0  0  0  0  2  0  0  0  0  0  0
  195.1240  174.9730  134.9090 O   0  0  0  0  0  0  0  0  0  0  0  0
  197.8810  175.0600  135.2500 O   0  0  0  0  0  0  0  0  0  0  0  0
  195.6510  174.9360  136.0540 C   0  0  0  0  0  0  0  0  0  0  0  0
  195.4200  175.2310  138.4280 O   0  0  0  0  0  0  0  0  0  0  0  0
  184.9720  176.4890  135.4170 C   0  0  0  0  0  2  0  0  0  0  0  0
  183.8490  175.5020  135.6950 C   0  0  0  0  0  2  0  0  0  0  0  0
  182.6740  174.7560  138.1900 O   0  0  0  0  0  0  0  0  0  0  0  0
  182.7390  176.1830  136.3440 N   0  0  0  0  0  2  0  0  0  0  0  0
  182.2770  175.8220  137.6470 C   0  0  0  0  0  0  0  0  0  0  0  0
  181.3420  176.7220  138.3970 C   0  0  2  0  0  3  0  0  0  0  0  0
  180.5980  176.1820  140.7630 C   0  0  0  0  0  0  0  0  0  0  0  0
  179.7480  174.7960  139.0810 C   0  0  0  0  0  3  0  0  0  0  0  0
  179.8220  175.1870  141.5260 C   0  0  0  0  0  2  0  0  0  0  0  0
  180.5290  175.9880  139.3670 N   0  0  0  0  0  0  0  0  0  0  0  0
  179.2000  174.3140  140.4320 C   0  0  0  0  0  3  0  0  0  0  0  0
  181.2660  177.1060  141.2970 O   0  0  0  0  0  0  0  0  0  0  0  0
  180.4830  177.5680  137.4570 C   0  0  0  0  0  2  0  0  0  0  0  0
  181.0780  178.8140  137.2200 O   0  0  0  0  0  0  0  0  0  0  0  0
  179.3070  179.2450  139.3110 O   0  0  0  0  0  1  0  0  0  0  0  0
  182.1160  179.5420  139.8130 C   0  0  0  0  0  1  0  0  0  0  0  0
  180.6690  181.1930  138.2230 O   0  0  0  0  0  0  0  0  0  0  0  0
  180.7700  179.7340  138.6100 P   0  0  1  0  0  0  0  0  0  0  0  0
  2  3  1  0  0  0  0
  2 51  1  1  0  0  0
  2  4  1  0  0  0  0
  3  1  1  1  0  0  0
  3  4  1  0  0  0  0
  4 34  1  6  0  0  0
  4  5  1  0  0  0  0
  5  6  1  0  0  0  0
  6  7  1  0  0  0  0
  7 10  1  0  0  0  0
  8 16  1  0  0  0  0
  9  8  2  0  0  0  0
  9 33  1  0  0  0  0
 10  9  1  0  0  0  0
 11 10  1  0  0  0  0
 11 12  2  0  0  0  0
 12  8  1  0  0  0  0
 13 14  1  1  0  0  0
 14 18  1  0  0  0  0
 15 13  1  0  0  0  0
 15 19  1  0  0  0  0
 16 15  1  0  0  0  0
 16 13  1  0  0  0  0
 17 18  1  0  0  0  0
 18 24  1  0  0  0  0
 19 17  1  0  0  0  0
 20 22  1  0  0  0  0
 22 19  1  0  0  0  0
 22 21  2  0  0  0  0
 24 28  1  0  0  0  0
 24 25  1  0  0  0  0
 24 23  1  0  0  0  0
 25 26  1  0  0  0  0
 27 25  1  0  0  0  0
 28 31  1  0  0  0  0
 30 31  2  0  0  0  0
 31 29  1  0  0  0  0
 33 32  1  0  0  0  0
 35 36  1  0  0  0  0
 35 34  1  0  0  0  0
 36 37  1  0  0  0  0
 37 38  1  0  0  0  0
 38 39  1  0  0  0  0
 39 40  1  0  0  0  0
 41 42  1  0  0  0  0
 41 39  1  0  0  0  0
 42 50  1  0  0  0  0
 44 43  1  0  0  0  0
 44 46  1  0  0  0  0
 45 44  1  0  0  0  0
 47 49  2  0  0  0  0
 48 45  2  0  0  0  0
 49 45  1  0  0  0  0
 49 42  1  0  0  0  0
 50 46  1  0  0  0  0
 51 52  1  0  0  0  0
 52 54  1  0  0  0  0
 54 55  1  0  0  0  0
 55 53  2  0  0  0  0
 55 56  1  0  0  0  0
 56 60  1  0  0  0  0
 57 62  2  0  0  0  0
 57 59  1  0  0  0  0
 58 60  1  0  0  0  0
 58 61  2  0  0  0  0
 60 57  1  0  0  0  0
 61 59  1  0  0  0  0
 63 56  1  0  0  0  0
 64 63  1  0  0  0  0
 64 68  1  0  0  0  0
 67 68  2  0  0  0  0
 68 65  1  0  0  0  0
 68 66  1  0  0  0  0
M  END
>  <MODEL>
9

>  <REMARK>
 VINA RESULT:      -2.7      3.267     10.104
  Name = 
  27 active torsions:
  status: ('A' for Active; 'I' for Inactive)
    1  A    between atoms: C_5  and  C_20
    2  A    between atoms: C_5  and  N_47
    3  A    between atoms: C_6  and  N_7
    4  A    between atoms: C_6  and  C_23
    5  A    between atoms: O_10  and  O_52
    6  A    between atoms: O_10  and  C_60
    7  A    between atoms: C_11  and  C_56
    8  A    between atoms: C_16  and  C_24
    9  A    between atoms: C_16  and  O_44
   10  A    between atoms: C_18  and  C_29
   11  A    between atoms: C_20  and  C_35
   12  A    between atoms: C_22  and  N_37
   13  A    between atoms: C_22  and  C_40
   14  A    between atoms: C_23  and  C_40
   15  A    between atoms: C_24  and  N_36
   16  A    between atoms: C_24  and  C_54
   17  A    between atoms: C_31  and  C_56
   18  A    between atoms: C_32  and  C_33
   19  A    between atoms: C_34  and  N_37
   20  A    between atoms: C_34  and  C_57
   21  A    between atoms: O_42  and  C_56
   22  A    between atoms: O_42  and  C_62
   23  A    between atoms: O_44  and  P_65
   24  A    between atoms: N_46  and  C_60
   25  A    between atoms: C_50  and  C_67
   26  A    between atoms: O_52  and  C_63
   27  A    between atoms: C_57  and  C_63
                            x       y       z     vdW  Elec       q    Type
                         _______ _______ _______ _____ _____    ______ ____

>  <TORSDO>
F 27

$$$$
