=
 OpenBabel10222416093D

 26 27  0  0  1  0  0  0  0  0999 V2000
  188.7690  177.0380  144.0220 C   0  0  1  0  0  3  0  0  0  0  0  0
  189.1350  177.9040  139.8830 C   0  0  0  0  0  0  0  0  0  0  0  0
  189.9720  176.6710  141.8470 C   0  0  0  0  0  0  0  0  0  0  0  0
  188.8890  177.8670  138.5710 C   0  0  0  0  0  0  0  0  0  0  0  0
  191.0060  174.8680  137.4990 C   0  0  0  0  0  1  0  0  0  0  0  0
  190.3040  177.1340  140.4580 C   0  0  1  0  0  3  0  0  0  0  0  0
  188.6050  178.7420  142.1360 C   0  0  0  0  0  2  0  0  0  0  0  0
  187.8440  178.6550  138.0080 N   0  0  0  0  0  1  0  0  0  0  0  0
  189.0630  177.4460  142.6470 N   0  0  0  0  0  0  0  0  0  0  0  0
  190.7330  176.0210  139.6010 N   0  0  0  0  0  0  0  0  0  0  0  0
  190.5240  175.6420  142.3230 O   0  0  0  0  0  0  0  0  0  0  0  0
  190.4790  175.9830  138.3270 C   0  0  0  0  0  0  0  0  0  0  0  0
  188.3270  178.6570  140.7400 O   0  0  0  0  0  0  0  0  0  0  0  0
  189.6170  176.9610  137.7380 N   0  0  0  0  0  2  0  0  0  0  0  0
  189.5550  177.8650  145.0490 C   0  0  0  0  0  2  0  0  0  0  0  0
  191.7360  176.9060  145.2790 O   0  0  0  0  0  1  0  0  0  0  0  0
  190.4990  177.0380  145.9120 C   0  0  0  0  0  2  0  0  0  0  0  0
  187.2670  176.9830  144.2860 C   0  0  0  0  0  2  0  0  0  0  0  0
  186.8960  177.9070  145.4300 C   0  0  0  0  0  2  0  0  0  0  0  0
  185.6030  178.5100  145.1620 N   0  0  0  0  0  2  0  0  0  0  0  0
  185.2780  178.2030  143.7780 C   0  0  0  0  0  2  0  0  0  0  0  0
  183.3510  179.5180  144.3270 O   0  0  0  0  0  1  0  0  0  0  0  0
  183.8140  178.5050  143.4830 C   0  0  1  0  0  3  0  0  0  0  0  0
  183.6300  178.9040  142.0270 C   0  0  0  0  0  2  0  0  0  0  0  0
  184.9580  178.8710  141.2960 C   0  0  0  0  0  2  0  0  0  0  0  0
  184.8220  179.5440  140.0190 N   0  0  0  0  0  1  0  0  0  0  0  0
  1 18  1  1  0  0  0
  1 15  1  0  0  0  0
  2  6  1  0  0  0  0
  2 13  1  0  0  0  0
  3 11  2  0  0  0  0
  3  9  1  0  0  0  0
  4  2  2  0  0  0  0
  5 12  1  0  0  0  0
  6 10  1  6  0  0  0
  6  3  1  0  0  0  0
  7  9  1  0  0  0  0
  8  4  1  0  0  0  0
  9  1  1  0  0  0  0
 12 10  2  0  0  0  0
 13  7  1  0  0  0  0
 14 12  1  0  0  0  0
 14  4  1  0  0  0  0
 15 17  1  0  0  0  0
 16 17  1  0  0  0  0
 18 19  1  0  0  0  0
 20 19  1  0  0  0  0
 21 20  1  0  0  0  0
 23 21  1  0  0  0  0
 23 22  1  1  0  0  0
 24 23  1  0  0  0  0
 25 24  1  0  0  0  0
 26 25  1  0  0  0  0
M  END
>  <MODEL>
1

>  <REMARK>
 VINA RESULT:      -6.7      0.000      0.000
  Name = 
  10 active torsions:
  status: ('A' for Active; 'I' for Inactive)
    1  A    between atoms: C_3  and  C_23
    2  A    between atoms: C_5  and  C_12
    3  A    between atoms: C_5  and  N_15
    4  A    between atoms: C_5  and  C_26
    5  A    between atoms: C_8  and  C_23
    6  A    between atoms: C_8  and  C_24
    7  A    between atoms: C_12  and  C_19
    8  A    between atoms: C_21  and  N_22
    9  A    between atoms: C_21  and  C_26
   10  A    between atoms: N_22  and  C_24
                            x       y       z     vdW  Elec       q    Type
                         _______ _______ _______ _____ _____    ______ ____

>  <TORSDO>
F 10

$$$$
=
 OpenBabel10222416093D

 26 27  0  0  1  0  0  0  0  0999 V2000
  188.4230  177.0010  142.2620 C   0  0  1  0  0  3  0  0  0  0  0  0
  185.5680  178.6410  144.9400 C   0  0  0  0  0  0  0  0  0  0  0  0
  186.2730  178.2540  142.6100 C   0  0  0  0  0  0  0  0  0  0  0  0
  184.5440  178.6980  145.7950 C   0  0  0  0  0  0  0  0  0  0  0  0
  181.5880  179.0650  143.3970 C   0  0  0  0  0  1  0  0  0  0  0  0
  185.3790  179.0670  143.5010 C   0  0  1  0  0  3  0  0  0  0  0  0
  187.9390  178.1750  144.4700 C   0  0  0  0  0  2  0  0  0  0  0  0
  184.7320  178.3810  147.1720 N   0  0  0  0  0  1  0  0  0  0  0  0
  187.5140  177.7520  143.1310 N   0  0  0  0  0  0  0  0  0  0  0  0
  183.9770  179.0080  143.0660 N   0  0  0  0  0  0  0  0  0  0  0  0
  185.9600  178.0570  141.4040 O   0  0  0  0  0  0  0  0  0  0  0  0
  182.9840  179.0500  143.9040 C   0  0  0  0  0  0  0  0  0  0  0  0
  186.8250  178.1980  145.3620 O   0  0  0  0  0  0  0  0  0  0  0  0
  183.2300  178.9900  145.3120 N   0  0  0  0  0  2  0  0  0  0  0  0
  189.2140  177.9230  141.3240 C   0  0  0  0  0  2  0  0  0  0  0  0
  188.8260  178.9190  139.1820 O   0  0  0  0  0  1  0  0  0  0  0  0
  188.9190  177.6960  139.8460 C   0  0  0  0  0  2  0  0  0  0  0  0
  189.2900  176.0290  143.0550 C   0  0  0  0  0  2  0  0  0  0  0  0
  190.7590  176.3610  142.8760 C   0  0  0  0  0  2  0  0  0  0  0  0
  191.4910  175.9690  144.0660 N   0  0  0  0  0  2  0  0  0  0  0  0
  191.3350  177.0500  145.0280 C   0  0  0  0  0  2  0  0  0  0  0  0
  192.3190  176.2980  147.0790 O   0  0  0  0  0  1  0  0  0  0  0  0
  191.0990  176.5020  146.4290 C   0  0  1  0  0  3  0  0  0  0  0  0
  190.2220  177.4460  147.2360 C   0  0  0  0  0  2  0  0  0  0  0  0
  188.9410  176.7500  147.6550 C   0  0  0  0  0  2  0  0  0  0  0  0
  188.1640  177.6380  148.4990 N   0  0  0  0  0  1  0  0  0  0  0  0
  1 15  1  1  0  0  0
  1 18  1  0  0  0  0
  1  9  1  0  0  0  0
  2 13  1  0  0  0  0
  2  4  2  0  0  0  0
  3  9  1  0  0  0  0
  4  8  1  0  0  0  0
  5 12  1  0  0  0  0
  6  3  1  6  0  0  0
  6  2  1  0  0  0  0
  7 13  1  0  0  0  0
  9  7  1  0  0  0  0
 10  6  1  0  0  0  0
 10 12  2  0  0  0  0
 11  3  2  0  0  0  0
 12 14  1  0  0  0  0
 14  4  1  0  0  0  0
 16 17  1  0  0  0  0
 17 15  1  0  0  0  0
 19 18  1  0  0  0  0
 19 20  1  0  0  0  0
 20 21  1  0  0  0  0
 21 23  1  0  0  0  0
 23 22  1  1  0  0  0
 23 24  1  0  0  0  0
 24 25  1  0  0  0  0
 25 26  1  0  0  0  0
M  END
>  <MODEL>
2

>  <REMARK>
 VINA RESULT:      -6.6      2.759      7.148
  Name = 
  10 active torsions:
  status: ('A' for Active; 'I' for Inactive)
    1  A    between atoms: C_3  and  C_23
    2  A    between atoms: C_5  and  C_12
    3  A    between atoms: C_5  and  N_15
    4  A    between atoms: C_5  and  C_26
    5  A    between atoms: C_8  and  C_23
    6  A    between atoms: C_8  and  C_24
    7  A    between atoms: C_12  and  C_19
    8  A    between atoms: C_21  and  N_22
    9  A    between atoms: C_21  and  C_26
   10  A    between atoms: N_22  and  C_24
                            x       y       z     vdW  Elec       q    Type
                         _______ _______ _______ _____ _____    ______ ____

>  <TORSDO>
F 10

$$$$
=
 OpenBabel10222416093D

 26 27  0  0  1  0  0  0  0  0999 V2000
  189.3050  177.1030  142.9560 C   0  0  1  0  0  3  0  0  0  0  0  0
  187.7230  178.1100  139.1480 C   0  0  0  0  0  0  0  0  0  0  0  0
  189.5560  177.1070  140.4560 C   0  0  0  0  0  0  0  0  0  0  0  0
  186.9750  178.0330  138.0440 C   0  0  0  0  0  0  0  0  0  0  0  0
  189.0990  175.7190  135.8630 C   0  0  0  0  0  1  0  0  0  0  0  0
  189.1680  177.6660  139.1170 C   0  0  1  0  0  3  0  0  0  0  0  0
  187.9870  178.7380  141.5130 C   0  0  0  0  0  2  0  0  0  0  0  0
  185.6390  178.5280  138.0390 N   0  0  0  0  0  1  0  0  0  0  0  0
  188.9030  177.5990  141.6380 N   0  0  0  0  0  0  0  0  0  0  0  0
  189.4530  176.7210  138.0300 N   0  0  0  0  0  0  0  0  0  0  0  0
  190.4780  176.2500  140.5440 O   0  0  0  0  0  0  0  0  0  0  0  0
  188.7140  176.6410  136.9630 C   0  0  0  0  0  0  0  0  0  0  0  0
  187.1870  178.6080  140.3390 O   0  0  0  0  0  0  0  0  0  0  0  0
  187.4850  177.3670  136.8860 N   0  0  0  0  0  2  0  0  0  0  0  0
  190.3680  177.9980  143.6080 C   0  0  0  0  0  2  0  0  0  0  0  0
  191.6340  175.9680  143.6880 O   0  0  0  0  0  1  0  0  0  0  0  0
  191.7500  177.3580  143.6790 C   0  0  0  0  0  2  0  0  0  0  0  0
  188.0980  176.8230  143.8460 C   0  0  0  0  0  2  0  0  0  0  0  0
  188.3990  177.2020  145.2830 C   0  0  0  0  0  2  0  0  0  0  0  0
  187.1590  177.5130  145.9700 N   0  0  0  0  0  2  0  0  0  0  0  0
  186.2590  178.0740  144.9730 C   0  0  0  0  0  2  0  0  0  0  0  0
  185.2040  179.3290  146.7210 O   0  0  0  0  0  1  0  0  0  0  0  0
  184.9500  178.5190  145.6110 C   0  0  1  0  0  3  0  0  0  0  0  0
  184.0830  179.2580  144.6040 C   0  0  0  0  0  2  0  0  0  0  0  0
  184.5490  178.9670  143.1900 C   0  0  0  0  0  2  0  0  0  0  0  0
  183.4000  178.6780  142.3540 N   0  0  0  0  0  1  0  0  0  0  0  0
  1 15  1  1  0  0  0
  1 18  1  0  0  0  0
  2 13  1  0  0  0  0
  3 11  2  0  0  0  0
  3  9  1  0  0  0  0
  4  2  2  0  0  0  0
  5 12  1  0  0  0  0
  6 10  1  6  0  0  0
  6  2  1  0  0  0  0
  6  3  1  0  0  0  0
  7  9  1  0  0  0  0
  8  4  1  0  0  0  0
  9  1  1  0  0  0  0
 12 10  2  0  0  0  0
 13  7  1  0  0  0  0
 14 12  1  0  0  0  0
 14  4  1  0  0  0  0
 15 17  1  0  0  0  0
 17 16  1  0  0  0  0
 18 19  1  0  0  0  0
 19 20  1  0  0  0  0
 21 23  1  0  0  0  0
 21 20  1  0  0  0  0
 23 22  1  1  0  0  0
 24 23  1  0  0  0  0
 25 24  1  0  0  0  0
 26 25  1  0  0  0  0
M  END
>  <MODEL>
3

>  <REMARK>
 VINA RESULT:      -6.4      1.727      2.008
  Name = 
  10 active torsions:
  status: ('A' for Active; 'I' for Inactive)
    1  A    between atoms: C_3  and  C_23
    2  A    between atoms: C_5  and  C_12
    3  A    between atoms: C_5  and  N_15
    4  A    between atoms: C_5  and  C_26
    5  A    between atoms: C_8  and  C_23
    6  A    between atoms: C_8  and  C_24
    7  A    between atoms: C_12  and  C_19
    8  A    between atoms: C_21  and  N_22
    9  A    between atoms: C_21  and  C_26
   10  A    between atoms: N_22  and  C_24
                            x       y       z     vdW  Elec       q    Type
                         _______ _______ _______ _____ _____    ______ ____

>  <TORSDO>
F 10

$$$$
=
 OpenBabel10222416093D

 26 27  0  0  1  0  0  0  0  0999 V2000
  186.0890  178.4860  144.0470 C   0  0  1  0  0  3  0  0  0  0  0  0
  183.9530  178.1340  140.3970 C   0  0  0  0  0  0  0  0  0  0  0  0
  186.0210  178.8070  141.5560 C   0  0  0  0  0  0  0  0  0  0  0  0
  183.4230  177.5730  139.3070 C   0  0  0  0  0  0  0  0  0  0  0  0
  186.3500  177.7930  136.8560 C   0  0  0  0  0  1  0  0  0  0  0  0
  185.2260  178.9440  140.2900 C   0  0  1  0  0  3  0  0  0  0  0  0
  183.8680  178.6210  142.8080 C   0  0  0  0  0  2  0  0  0  0  0  0
  182.1800  176.8800  139.3800 N   0  0  0  0  0  1  0  0  0  0  0  0
  185.3330  178.5710  142.7960 N   0  0  0  0  0  0  0  0  0  0  0  0
  186.0240  178.6020  139.1060 N   0  0  0  0  0  0  0  0  0  0  0  0
  187.2750  178.9460  141.5370 O   0  0  0  0  0  0  0  0  0  0  0  0
  185.5060  178.0440  138.0530 C   0  0  0  0  0  0  0  0  0  0  0  0
  183.3370  177.9900  141.6440 O   0  0  0  0  0  0  0  0  0  0  0  0
  184.1510  177.5860  138.0760 N   0  0  0  0  0  2  0  0  0  0  0  0
  185.3540  179.1650  145.2110 C   0  0  0  0  0  2  0  0  0  0  0  0
  185.7730  179.6190  147.5230 O   0  0  0  0  0  1  0  0  0  0  0  0
  185.7090  178.5950  146.5790 C   0  0  0  0  0  2  0  0  0  0  0  0
  186.5340  177.0570  144.3430 C   0  0  0  0  0  2  0  0  0  0  0  0
  188.0120  176.8900  144.0420 C   0  0  0  0  0  2  0  0  0  0  0  0
  188.7350  178.0550  144.5160 N   0  0  0  0  0  2  0  0  0  0  0  0
  189.2040  177.7390  145.8570 C   0  0  0  0  0  2  0  0  0  0  0  0
  191.5060  177.6570  145.1970 O   0  0  0  0  0  1  0  0  0  0  0  0
  190.4880  176.9210  145.8070 C   0  0  1  0  0  3  0  0  0  0  0  0
  190.9090  176.4920  147.2030 C   0  0  0  0  0  2  0  0  0  0  0  0
  192.2050  175.7060  147.1480 C   0  0  0  0  0  2  0  0  0  0  0  0
  192.9970  176.0000  148.3260 N   0  0  0  0  0  1  0  0  0  0  0  0
  1 18  1  1  0  0  0
  1 15  1  0  0  0  0
  2 13  1  0  0  0  0
  3  9  1  0  0  0  0
  4  8  1  0  0  0  0
  4  2  2  0  0  0  0
  5 12  1  0  0  0  0
  6 10  1  6  0  0  0
  6  2  1  0  0  0  0
  6  3  1  0  0  0  0
  9  7  1  0  0  0  0
  9  1  1  0  0  0  0
 11  3  2  0  0  0  0
 12 14  1  0  0  0  0
 12 10  2  0  0  0  0
 13  7  1  0  0  0  0
 14  4  1  0  0  0  0
 15 17  1  0  0  0  0
 17 16  1  0  0  0  0
 19 18  1  0  0  0  0
 19 20  1  0  0  0  0
 20 21  1  0  0  0  0
 23 22  1  1  0  0  0
 23 21  1  0  0  0  0
 23 24  1  0  0  0  0
 25 24  1  0  0  0  0
 25 26  1  0  0  0  0
M  END
>  <MODEL>
4

>  <REMARK>
 VINA RESULT:      -6.3      2.815      6.017
  Name = 
  10 active torsions:
  status: ('A' for Active; 'I' for Inactive)
    1  A    between atoms: C_3  and  C_23
    2  A    between atoms: C_5  and  C_12
    3  A    between atoms: C_5  and  N_15
    4  A    between atoms: C_5  and  C_26
    5  A    between atoms: C_8  and  C_23
    6  A    between atoms: C_8  and  C_24
    7  A    between atoms: C_12  and  C_19
    8  A    between atoms: C_21  and  N_22
    9  A    between atoms: C_21  and  C_26
   10  A    between atoms: N_22  and  C_24
                            x       y       z     vdW  Elec       q    Type
                         _______ _______ _______ _____ _____    ______ ____

>  <TORSDO>
F 10

$$$$
=
 OpenBabel10222416093D

 26 27  0  0  1  0  0  0  0  0999 V2000
  189.3050  176.9070  142.7470 C   0  0  1  0  0  3  0  0  0  0  0  0
  188.3410  178.1820  138.8150 C   0  0  0  0  0  0  0  0  0  0  0  0
  189.9610  177.1060  140.3290 C   0  0  0  0  0  0  0  0  0  0  0  0
  187.7860  178.1790  137.6000 C   0  0  0  0  0  0  0  0  0  0  0  0
  190.2970  176.0690  135.6350 C   0  0  0  0  0  1  0  0  0  0  0  0
  189.7830  177.7610  138.9900 C   0  0  1  0  0  3  0  0  0  0  0  0
  188.1980  178.6290  141.2310 C   0  0  0  0  0  2  0  0  0  0  0  0
  186.4550  178.6550  137.4110 N   0  0  0  0  0  1  0  0  0  0  0  0
  189.1110  177.4970  141.4210 N   0  0  0  0  0  0  0  0  0  0  0  0
  190.2660  176.9060  137.8980 N   0  0  0  0  0  0  0  0  0  0  0  0
  190.8780  176.2580  140.5060 O   0  0  0  0  0  0  0  0  0  0  0  0
  189.7140  176.8980  136.7210 C   0  0  0  0  0  0  0  0  0  0  0  0
  187.6040  178.5790  139.9350 O   0  0  0  0  0  0  0  0  0  0  0  0
  188.4950  177.6110  136.4960 N   0  0  0  0  0  2  0  0  0  0  0  0
  190.2130  177.7690  143.6340 C   0  0  0  0  0  2  0  0  0  0  0  0
  191.8290  177.4540  145.3710 O   0  0  0  0  0  1  0  0  0  0  0  0
  191.4890  177.0630  144.0760 C   0  0  0  0  0  2  0  0  0  0  0  0
  187.9770  176.5310  143.3970 C   0  0  0  0  0  2  0  0  0  0  0  0
  187.7250  177.3890  144.6220 C   0  0  0  0  0  2  0  0  0  0  0  0
  186.2980  177.6100  144.7700 N   0  0  0  0  0  2  0  0  0  0  0  0
  186.0040  177.5010  146.1910 C   0  0  0  0  0  2  0  0  0  0  0  0
  185.8010  179.5800  147.3650 O   0  0  0  0  0  1  0  0  0  0  0  0
  186.7130  178.5940  146.9800 C   0  0  1  0  0  3  0  0  0  0  0  0
  187.4110  178.0130  148.1990 C   0  0  0  0  0  2  0  0  0  0  0  0
  188.9160  178.1500  148.0620 C   0  0  0  0  0  2  0  0  0  0  0  0
  189.4760  176.8880  147.6190 N   0  0  0  0  0  1  0  0  0  0  0  0
  1 18  1  1  0  0  0
  1 15  1  0  0  0  0
  2  6  1  0  0  0  0
  2 13  1  0  0  0  0
  3 11  2  0  0  0  0
  3  9  1  0  0  0  0
  4  2  2  0  0  0  0
  5 12  1  0  0  0  0
  6 10  1  6  0  0  0
  6  3  1  0  0  0  0
  7  9  1  0  0  0  0
  8  4  1  0  0  0  0
  9  1  1  0  0  0  0
 12 10  2  0  0  0  0
 13  7  1  0  0  0  0
 14 12  1  0  0  0  0
 14  4  1  0  0  0  0
 15 17  1  0  0  0  0
 17 16  1  0  0  0  0
 18 19  1  0  0  0  0
 19 20  1  0  0  0  0
 20 21  1  0  0  0  0
 21 23  1  0  0  0  0
 23 22  1  1  0  0  0
 23 24  1  0  0  0  0
 25 24  1  0  0  0  0
 26 25  1  0  0  0  0
M  END
>  <MODEL>
5

>  <REMARK>
 VINA RESULT:      -6.2      2.114      3.361
  Name = 
  10 active torsions:
  status: ('A' for Active; 'I' for Inactive)
    1  A    between atoms: C_3  and  C_23
    2  A    between atoms: C_5  and  C_12
    3  A    between atoms: C_5  and  N_15
    4  A    between atoms: C_5  and  C_26
    5  A    between atoms: C_8  and  C_23
    6  A    between atoms: C_8  and  C_24
    7  A    between atoms: C_12  and  C_19
    8  A    between atoms: C_21  and  N_22
    9  A    between atoms: C_21  and  C_26
   10  A    between atoms: N_22  and  C_24
                            x       y       z     vdW  Elec       q    Type
                         _______ _______ _______ _____ _____    ______ ____

>  <TORSDO>
F 10

$$$$
=
 OpenBabel10222416093D

 26 27  0  0  1  0  0  0  0  0999 V2000
  186.0240  178.5610  144.2320 C   0  0  1  0  0  3  0  0  0  0  0  0
  183.8820  178.2000  140.5860 C   0  0  0  0  0  0  0  0  0  0  0  0
  185.9560  178.8660  141.7390 C   0  0  0  0  0  0  0  0  0  0  0  0
  183.3480  177.6360  139.5000 C   0  0  0  0  0  0  0  0  0  0  0  0
  186.2740  177.8210  137.0450 C   0  0  0  0  0  1  0  0  0  0  0  0
  185.1600  179.0010  140.4730 C   0  0  1  0  0  3  0  0  0  0  0  0
  183.8020  178.7030  142.9940 C   0  0  0  0  0  2  0  0  0  0  0  0
  182.1000  176.9520  139.5790 N   0  0  0  0  0  1  0  0  0  0  0  0
  185.2680  178.6430  142.9800 N   0  0  0  0  0  0  0  0  0  0  0  0
  185.9550  178.6460  139.2900 N   0  0  0  0  0  0  0  0  0  0  0  0
  187.2110  178.9970  141.7180 O   0  0  0  0  0  0  0  0  0  0  0  0
  185.4330  178.0850  138.2410 C   0  0  0  0  0  0  0  0  0  0  0  0
  183.2670  178.0680  141.8340 O   0  0  0  0  0  0  0  0  0  0  0  0
  184.0750  177.6370  138.2680 N   0  0  0  0  0  2  0  0  0  0  0  0
  185.3070  179.2750  145.3860 C   0  0  0  0  0  2  0  0  0  0  0  0
  186.0560  179.6660  147.6250 O   0  0  0  0  0  1  0  0  0  0  0  0
  185.5990  178.6750  146.7560 C   0  0  0  0  0  2  0  0  0  0  0  0
  186.4370  177.1270  144.5490 C   0  0  0  0  0  2  0  0  0  0  0  0
  187.8920  176.9010  144.1820 C   0  0  0  0  0  2  0  0  0  0  0  0
  188.7190  177.8760  144.8690 N   0  0  0  0  0  2  0  0  0  0  0  0
  189.6360  177.1250  145.7140 C   0  0  0  0  0  2  0  0  0  0  0  0
  191.9530  177.0910  146.3250 O   0  0  0  0  0  1  0  0  0  0  0  0
  191.0770  177.3190  145.2600 C   0  0  1  0  0  3  0  0  0  0  0  0
  191.4050  176.3950  144.0990 C   0  0  0  0  0  2  0  0  0  0  0  0
  191.6770  177.2000  142.8420 C   0  0  0  0  0  2  0  0  0  0  0  0
  190.6480  176.9210  141.8590 N   0  0  0  0  0  1  0  0  0  0  0  0
  1 18  1  1  0  0  0
  1 15  1  0  0  0  0
  2 13  1  0  0  0  0
  3  9  1  0  0  0  0
  4  8  1  0  0  0  0
  4  2  2  0  0  0  0
  5 12  1  0  0  0  0
  6 10  1  6  0  0  0
  6  2  1  0  0  0  0
  6  3  1  0  0  0  0
  9  7  1  0  0  0  0
  9  1  1  0  0  0  0
 11  3  2  0  0  0  0
 12 14  1  0  0  0  0
 12 10  2  0  0  0  0
 13  7  1  0  0  0  0
 14  4  1  0  0  0  0
 15 17  1  0  0  0  0
 17 16  1  0  0  0  0
 19 18  1  0  0  0  0
 19 20  1  0  0  0  0
 20 21  1  0  0  0  0
 23 21  1  0  0  0  0
 23 22  1  1  0  0  0
 24 23  1  0  0  0  0
 25 24  1  0  0  0  0
 26 25  1  0  0  0  0
M  END
>  <MODEL>
6

>  <REMARK>
 VINA RESULT:      -6.1      2.603      5.578
  Name = 
  10 active torsions:
  status: ('A' for Active; 'I' for Inactive)
    1  A    between atoms: C_3  and  C_23
    2  A    between atoms: C_5  and  C_12
    3  A    between atoms: C_5  and  N_15
    4  A    between atoms: C_5  and  C_26
    5  A    between atoms: C_8  and  C_23
    6  A    between atoms: C_8  and  C_24
    7  A    between atoms: C_12  and  C_19
    8  A    between atoms: C_21  and  N_22
    9  A    between atoms: C_21  and  C_26
   10  A    between atoms: N_22  and  C_24
                            x       y       z     vdW  Elec       q    Type
                         _______ _______ _______ _____ _____    ______ ____

>  <TORSDO>
F 10

$$$$
=
 OpenBabel10222416093D

 26 27  0  0  1  0  0  0  0  0999 V2000
  185.4220  178.1840  142.7970 C   0  0  1  0  0  3  0  0  0  0  0  0
  181.2110  178.6870  142.9660 C   0  0  0  0  0  0  0  0  0  0  0  0
  183.2210  178.3070  141.5910 C   0  0  0  0  0  0  0  0  0  0  0  0
  179.9230  178.3900  143.1550 C   0  0  0  0  0  0  0  0  0  0  0  0
  178.9890  176.9170  139.7520 C   0  0  0  0  0  1  0  0  0  0  0  0
  181.7820  178.7320  141.5660 C   0  0  1  0  0  3  0  0  0  0  0  0
  183.4120  179.3300  143.8620 C   0  0  0  0  0  2  0  0  0  0  0  0
  179.3550  178.4290  144.4620 N   0  0  0  0  0  1  0  0  0  0  0  0
  184.0030  178.5450  142.7740 N   0  0  0  0  0  0  0  0  0  0  0  0
  180.9990  177.9460  140.6040 N   0  0  0  0  0  0  0  0  0  0  0  0
  183.7500  177.7920  140.5680 O   0  0  0  0  0  0  0  0  0  0  0  0
  179.7490  177.6490  140.7990 C   0  0  0  0  0  0  0  0  0  0  0  0
  182.0450  178.9670  144.0530 O   0  0  0  0  0  0  0  0  0  0  0  0
  179.1290  177.9420  142.0540 N   0  0  0  0  0  2  0  0  0  0  0  0
  186.2840  179.1850  142.0150 C   0  0  0  0  0  2  0  0  0  0  0  0
  186.7170  178.6240  139.7290 O   0  0  0  0  0  1  0  0  0  0  0  0
  187.2350  178.5310  141.0210 C   0  0  0  0  0  2  0  0  0  0  0  0
  185.9140  177.9160  144.2170 C   0  0  0  0  0  2  0  0  0  0  0  0
  187.1710  177.0680  144.1910 C   0  0  0  0  0  2  0  0  0  0  0  0
  188.2300  177.7540  144.9080 N   0  0  0  0  0  2  0  0  0  0  0  0
  187.8350  177.7860  146.3080 C   0  0  0  0  0  2  0  0  0  0  0  0
  188.6770  178.3250  148.4860 O   0  0  0  0  0  1  0  0  0  0  0  0
  189.0540  177.8780  147.2160 C   0  0  1  0  0  3  0  0  0  0  0  0
  189.7550  176.5330  147.3160 C   0  0  0  0  0  2  0  0  0  0  0  0
  191.2590  176.7220  147.3690 C   0  0  0  0  0  2  0  0  0  0  0  0
  191.7540  177.0260  146.0400 N   0  0  0  0  0  1  0  0  0  0  0  0
  1 15  1  1  0  0  0
  1 18  1  0  0  0  0
  2  4  2  0  0  0  0
  2 13  1  0  0  0  0
  3  9  1  0  0  0  0
  4  8  1  0  0  0  0
  5 12  1  0  0  0  0
  6 10  1  6  0  0  0
  6  3  1  0  0  0  0
  6  2  1  0  0  0  0
  7 13  1  0  0  0  0
  9  1  1  0  0  0  0
  9  7  1  0  0  0  0
 10 12  2  0  0  0  0
 11  3  2  0  0  0  0
 12 14  1  0  0  0  0
 14  4  1  0  0  0  0
 16 17  1  0  0  0  0
 17 15  1  0  0  0  0
 19 18  1  0  0  0  0
 19 20  1  0  0  0  0
 20 21  1  0  0  0  0
 21 23  1  0  0  0  0
 23 24  1  0  0  0  0
 23 22  1  1  0  0  0
 24 25  1  0  0  0  0
 26 25  1  0  0  0  0
M  END
>  <MODEL>
7

>  <REMARK>
 VINA RESULT:      -6.0      3.566      7.771
  Name = 
  10 active torsions:
  status: ('A' for Active; 'I' for Inactive)
    1  A    between atoms: C_3  and  C_23
    2  A    between atoms: C_5  and  C_12
    3  A    between atoms: C_5  and  N_15
    4  A    between atoms: C_5  and  C_26
    5  A    between atoms: C_8  and  C_23
    6  A    between atoms: C_8  and  C_24
    7  A    between atoms: C_12  and  C_19
    8  A    between atoms: C_21  and  N_22
    9  A    between atoms: C_21  and  C_26
   10  A    between atoms: N_22  and  C_24
                            x       y       z     vdW  Elec       q    Type
                         _______ _______ _______ _____ _____    ______ ____

>  <TORSDO>
F 10

$$$$
=
 OpenBabel10222416093D

 26 27  0  0  1  0  0  0  0  0999 V2000
  188.9670  178.1620  141.6240 C   0  0  1  0  0  3  0  0  0  0  0  0
  186.8360  177.8500  145.2810 C   0  0  0  0  0  0  0  0  0  0  0  0
  188.9740  177.6180  144.0770 C   0  0  0  0  0  0  0  0  0  0  0  0
  186.2340  178.2220  146.4140 C   0  0  0  0  0  0  0  0  0  0  0  0
  189.1820  178.2550  148.8490 C   0  0  0  0  0  1  0  0  0  0  0  0
  188.2220  177.2460  145.3220 C   0  0  1  0  0  3  0  0  0  0  0  0
  186.8060  177.5680  142.8360 C   0  0  0  0  0  2  0  0  0  0  0  0
  184.8960  178.7130  146.3950 N   0  0  0  0  0  1  0  0  0  0  0  0
  188.2450  177.8500  142.8600 N   0  0  0  0  0  0  0  0  0  0  0  0
  188.9670  177.6050  146.5360 N   0  0  0  0  0  0  0  0  0  0  0  0
  190.2340  177.6780  144.0890 O   0  0  0  0  0  0  0  0  0  0  0  0
  188.3770  177.9790  147.6310 C   0  0  0  0  0  0  0  0  0  0  0  0
  186.1940  178.0030  144.0490 O   0  0  0  0  0  0  0  0  0  0  0  0
  186.9660  178.2170  147.6420 N   0  0  0  0  0  2  0  0  0  0  0  0
  189.9180  177.0310  141.2100 C   0  0  0  0  0  2  0  0  0  0  0  0
  191.7060  176.9990  139.6190 O   0  0  0  0  0  1  0  0  0  0  0  0
  191.3230  177.5070  140.8600 C   0  0  0  0  0  2  0  0  0  0  0  0
  188.0200  178.6140  140.5160 C   0  0  0  0  0  2  0  0  0  0  0  0
  188.1950  177.7480  139.2830 C   0  0  0  0  0  2  0  0  0  0  0  0
  187.4780  178.3430  138.1710 N   0  0  0  0  0  2  0  0  0  0  0  0
  186.4900  177.3660  137.7400 C   0  0  0  0  0  2  0  0  0  0  0  0
  184.3980  177.4930  136.5770 O   0  0  0  0  0  1  0  0  0  0  0  0
  185.1000  177.9870  137.6800 C   0  0  1  0  0  3  0  0  0  0  0  0
  184.3310  177.7120  138.9630 C   0  0  0  0  0  2  0  0  0  0  0  0
  184.3960  178.9130  139.8870 C   0  0  0  0  0  2  0  0  0  0  0  0
  184.5260  180.1220  139.0970 N   0  0  0  0  0  1  0  0  0  0  0  0
  1 18  1  6  0  0  0
  1  9  1  0  0  0  0
  2  6  1  0  0  0  0
  2  4  2  0  0  0  0
  3 11  2  0  0  0  0
  4 14  1  0  0  0  0
  6  3  1  6  0  0  0
  6 10  1  0  0  0  0
  7  9  1  0  0  0  0
  7 13  1  0  0  0  0
  8  4  1  0  0  0  0
  9  3  1  0  0  0  0
 10 12  2  0  0  0  0
 12 14  1  0  0  0  0
 12  5  1  0  0  0  0
 13  2  1  0  0  0  0
 15  1  1  0  0  0  0
 16 17  1  0  0  0  0
 17 15  1  0  0  0  0
 19 18  1  0  0  0  0
 20 19  1  0  0  0  0
 21 20  1  0  0  0  0
 23 22  1  6  0  0  0
 23 21  1  0  0  0  0
 23 24  1  0  0  0  0
 24 25  1  0  0  0  0
 26 25  1  0  0  0  0
M  END
>  <MODEL>
8

>  <REMARK>
 VINA RESULT:      -5.9      2.380      6.171
  Name = 
  10 active torsions:
  status: ('A' for Active; 'I' for Inactive)
    1  A    between atoms: C_3  and  C_23
    2  A    between atoms: C_5  and  C_12
    3  A    between atoms: C_5  and  N_15
    4  A    between atoms: C_5  and  C_26
    5  A    between atoms: C_8  and  C_23
    6  A    between atoms: C_8  and  C_24
    7  A    between atoms: C_12  and  C_19
    8  A    between atoms: C_21  and  N_22
    9  A    between atoms: C_21  and  C_26
   10  A    between atoms: N_22  and  C_24
                            x       y       z     vdW  Elec       q    Type
                         _______ _______ _______ _____ _____    ______ ____

>  <TORSDO>
F 10

$$$$
=
 OpenBabel10222416093D

 26 27  0  0  1  0  0  0  0  0999 V2000
  189.0260  178.1150  141.6470 C   0  0  1  0  0  3  0  0  0  0  0  0
  186.4260  177.9900  144.9990 C   0  0  0  0  0  0  0  0  0  0  0  0
  188.6770  177.5880  144.0790 C   0  0  0  0  0  0  0  0  0  0  0  0
  185.7140  178.4150  146.0460 C   0  0  0  0  0  0  0  0  0  0  0  0
  188.3190  178.2390  148.8400 C   0  0  0  0  0  1  0  0  0  0  0  0
  187.7450  177.2830  145.2160 C   0  0  1  0  0  3  0  0  0  0  0  0
  186.6890  177.6960  142.5700 C   0  0  0  0  0  2  0  0  0  0  0  0
  184.4310  179.0050  145.8580 N   0  0  0  0  0  1  0  0  0  0  0  0
  188.1300  177.8670  142.7790 N   0  0  0  0  0  0  0  0  0  0  0  0
  188.3540  177.5920  146.5160 N   0  0  0  0  0  0  0  0  0  0  0  0
  189.9260  177.5530  144.2530 O   0  0  0  0  0  0  0  0  0  0  0  0
  187.6580  178.0180  147.5280 C   0  0  0  0  0  0  0  0  0  0  0  0
  185.9610  178.1840  143.6950 O   0  0  0  0  0  0  0  0  0  0  0  0
  186.2800  178.3620  147.3590 N   0  0  0  0  0  2  0  0  0  0  0  0
  189.8020  176.8550  141.2390 C   0  0  0  0  0  2  0  0  0  0  0  0
  192.0420  177.1310  142.0340 O   0  0  0  0  0  1  0  0  0  0  0  0
  191.2590  177.1200  140.8800 C   0  0  0  0  0  2  0  0  0  0  0  0
  188.3000  178.8000  140.4930 C   0  0  0  0  0  2  0  0  0  0  0  0
  188.2450  177.8850  139.2840 C   0  0  0  0  0  2  0  0  0  0  0  0
  188.3180  178.6810  138.0730 N   0  0  0  0  0  2  0  0  0  0  0  0
  189.4180  178.1450  137.2860 C   0  0  0  0  0  2  0  0  0  0  0  0
  188.7250  177.7460  135.0270 O   0  0  0  0  0  1  0  0  0  0  0  0
  188.9140  177.1310  136.2670 C   0  0  1  0  0  3  0  0  0  0  0  0
  189.8860  175.9680  136.1380 C   0  0  0  0  0  2  0  0  0  0  0  0
  189.7460  175.0280  137.3200 C   0  0  0  0  0  2  0  0  0  0  0  0
  191.0330  174.8800  137.9730 N   0  0  0  0  0  1  0  0  0  0  0  0
  1 18  1  6  0  0  0
  1  9  1  0  0  0  0
  2  6  1  0  0  0  0
  2  4  2  0  0  0  0
  3 11  2  0  0  0  0
  4 14  1  0  0  0  0
  6  3  1  6  0  0  0
  6 10  1  0  0  0  0
  7  9  1  0  0  0  0
  7 13  1  0  0  0  0
  8  4  1  0  0  0  0
  9  3  1  0  0  0  0
 10 12  2  0  0  0  0
 12  5  1  0  0  0  0
 13  2  1  0  0  0  0
 14 12  1  0  0  0  0
 15  1  1  0  0  0  0
 17 15  1  0  0  0  0
 17 16  1  0  0  0  0
 19 18  1  0  0  0  0
 20 19  1  0  0  0  0
 21 20  1  0  0  0  0
 23 22  1  6  0  0  0
 23 21  1  0  0  0  0
 24 23  1  0  0  0  0
 24 25  1  0  0  0  0
 25 26  1  0  0  0  0
M  END
>  <MODEL>
9

>  <REMARK>
 VINA RESULT:      -5.8      2.151      7.008
  Name = 
  10 active torsions:
  status: ('A' for Active; 'I' for Inactive)
    1  A    between atoms: C_3  and  C_23
    2  A    between atoms: C_5  and  C_12
    3  A    between atoms: C_5  and  N_15
    4  A    between atoms: C_5  and  C_26
    5  A    between atoms: C_8  and  C_23
    6  A    between atoms: C_8  and  C_24
    7  A    between atoms: C_12  and  C_19
    8  A    between atoms: C_21  and  N_22
    9  A    between atoms: C_21  and  C_26
   10  A    between atoms: N_22  and  C_24
                            x       y       z     vdW  Elec       q    Type
                         _______ _______ _______ _____ _____    ______ ____

>  <TORSDO>
F 10

$$$$
