=
 OpenBabel10222417593D

 33 38  0  0  1  0  0  0  0  0999 V2000
  179.4640  178.7170  142.4800 C   0  0  1  0  0  3  0  0  0  0  0  0
  183.4900  179.4760  143.9930 C   0  0  1  0  0  3  0  0  0  0  0  0
  181.3600  179.7110  143.2140 C   0  0  1  0  0  3  0  0  0  0  0  0
  180.2490  179.8470  142.2500 C   0  0  1  0  0  3  0  0  0  0  0  0
  181.2490  178.7230  144.0280 C   0  0  1  0  0  3  0  0  0  0  0  0
  179.2340  177.6960  144.6430 O   0  0  0  0  0  1  0  0  0  0  0  0
  182.6240  180.2500  143.1640 O   0  0  0  0  0  0  0  0  0  0  0  0
  180.3290  178.7310  141.2560 N   0  0  0  0  0  0  0  0  0  0  0  0
  180.1300  177.8700  143.5880 C   0  0  1  0  0  3  0  0  0  0  0  0
  182.5870  178.3510  144.5590 C   0  0  0  0  0  2  0  0  0  0  0  0
  182.3140  177.6040  138.3090 N   0  0  0  0  0  0  0  0  0  0  0  0
  180.7020  176.8810  139.6930 C   0  0  0  0  0  0  0  0  0  0  0  0
  180.7190  174.4230  138.5310 C   0  0  0  0  0  3  0  0  0  0  0  0
  181.5410  176.6160  138.6350 C   0  0  0  0  0  0  0  0  0  0  0  0
  181.9230  178.6390  139.2190 C   0  0  0  0  0  0  0  0  0  0  0  0
  181.5570  175.3920  138.0520 N   0  0  0  0  0  0  0  0  0  0  0  0
  179.8720  175.9390  140.2010 N   0  0  0  0  0  0  0  0  0  0  0  0
  179.8660  174.7010  139.6230 C   0  0  0  0  0  3  0  0  0  0  0  0
  180.8960  178.1130  140.1070 C   0  0  0  0  0  0  0  0  0  0  0  0
  182.6650  179.6630  139.4820 N   0  0  0  0  0  2  0  0  0  0  0  0
  184.1430  177.7860  142.2850 C   0  0  0  0  0  1  0  0  0  0  0  0
  184.6710  178.9200  143.1760 C   0  0  2  0  0  0  0  0  0  0  0  0
  185.7120  178.3860  144.1500 C   0  0  0  0  0  0  0  0  0  0  0  0
  186.6380  178.2740  146.4000 C   0  0  0  0  0  3  0  0  0  0  0  0
  185.6480  178.7110  145.5170 C   0  0  0  0  0  3  0  0  0  0  0  0
  186.8120  177.6470  143.6840 C   0  0  0  0  0  3  0  0  0  0  0  0
  187.8030  177.2090  144.5670 C   0  0  0  0  0  3  0  0  0  0  0  0
  187.7180  177.5230  145.9260 C   0  0  0  0  0  0  0  0  0  0  0  0
  188.7610  177.0380  146.8690 C   0  0  0  0  0  2  0  0  0  0  0  0
  191.0400  176.7020  147.2200 C   0  0  0  0  0  1  0  0  0  0  0  0
  190.0520  177.0080  146.2020 N   0  0  0  0  0  2  0  0  0  0  0  0
  185.1960  179.9630  142.3730 O   0  0  0  0  0  0  0  0  0  0  0  0
  185.4160  179.4710  141.1660 O   0  0  0  0  0  1  0  0  0  0  0  0
  1  8  1  6  0  0  0
  1  9  1  0  0  0  0
  2 22  1  6  0  0  0
  2 10  1  0  0  0  0
  3  7  1  6  0  0  0
  3  5  1  0  0  0  0
  4  8  1  6  0  0  0
  4  1  1  0  0  0  0
  4  3  1  0  0  0  0
  5 10  1  6  0  0  0
  7  2  1  0  0  0  0
  9  5  1  0  0  0  0
  9  6  1  1  0  0  0
 11 14  2  0  0  0  0
 11 15  1  0  0  0  0
 12 19  2  0  0  0  0
 12 17  1  0  0  0  0
 13 18  1  0  0  0  0
 14 12  1  0  0  0  0
 15 20  2  0  0  0  0
 15 19  1  0  0  0  0
 16 13  2  0  0  0  0
 16 14  1  0  0  0  0
 18 17  2  0  0  0  0
 19  8  1  0  0  0  0
 22 21  1  6  0  0  0
 22 23  1  0  0  0  0
 23 25  1  0  0  0  0
 25 24  2  0  0  0  0
 26 23  2  0  0  0  0
 26 27  1  0  0  0  0
 27 28  2  0  0  0  0
 28 24  1  0  0  0  0
 28 29  1  0  0  0  0
 31 29  1  0  0  0  0
 31 30  1  0  0  0  0
 32 22  1  0  0  0  0
 33 32  1  0  0  0  0
M  END
>  <MODEL>
1

>  <REMARK>
 VINA RESULT:      -7.3      0.000      0.000
  Name = 
  6 active torsions:
  status: ('A' for Active; 'I' for Inactive)
    1  A    between atoms: C_1  and  C_32
    2  A    between atoms: C_3  and  C_32
    3  A    between atoms: C_19  and  C_27
    4  A    between atoms: C_19  and  N_31
    5  A    between atoms: N_22  and  C_29
    6  A    between atoms: O_24  and  C_32
                            x       y       z     vdW  Elec       q    Type
                         _______ _______ _______ _____ _____    ______ ____

>  <TORSDO>
F 6

$$$$
=
 OpenBabel10222417593D

 33 38  0  0  1  0  0  0  0  0999 V2000
  187.6720  177.5160  136.4100 C   0  0  1  0  0  3  0  0  0  0  0  0
  188.6510  178.7030  140.4970 C   0  0  1  0  0  3  0  0  0  0  0  0
  188.4380  178.6240  138.2280 C   0  0  1  0  0  3  0  0  0  0  0  0
  188.7510  178.2970  136.8220 C   0  0  1  0  0  3  0  0  0  0  0  0
  187.2820  178.2300  138.6280 C   0  0  1  0  0  3  0  0  0  0  0  0
  185.4380  177.8190  137.2410 O   0  0  0  0  0  1  0  0  0  0  0  0
  189.2900  178.9710  139.2490 O   0  0  0  0  0  0  0  0  0  0  0  0
  188.9670  176.8210  136.7030 N   0  0  0  0  0  0  0  0  0  0  0  0
  186.7000  177.3470  137.6000 C   0  0  1  0  0  3  0  0  0  0  0  0
  187.2720  178.1120  140.1100 C   0  0  0  0  0  2  0  0  0  0  0  0
  190.5580  173.4510  136.7380 N   0  0  0  0  0  0  0  0  0  0  0  0
  191.0330  175.5970  137.1880 C   0  0  0  0  0  0  0  0  0  0  0  0
  193.6350  174.9820  137.6870 C   0  0  0  0  0  3  0  0  0  0  0  0
  191.4700  174.2940  137.1080 C   0  0  0  0  0  0  0  0  0  0  0  0
  189.3930  174.2700  136.5940 C   0  0  0  0  0  0  0  0  0  0  0  0
  192.7660  173.9810  137.3530 N   0  0  0  0  0  0  0  0  0  0  0  0
  191.8720  176.6140  137.5010 N   0  0  0  0  0  0  0  0  0  0  0  0
  193.1800  176.3190  137.7600 C   0  0  0  0  0  3  0  0  0  0  0  0
  189.7590  175.6520  136.8720 C   0  0  0  0  0  0  0  0  0  0  0  0
  188.3590  173.9100  135.9080 N   0  0  0  0  0  2  0  0  0  0  0  0
  189.3820  176.3320  140.6990 C   0  0  0  0  0  1  0  0  0  0  0  0
  189.4900  177.7230  141.3380 C   0  0  2  0  0  0  0  0  0  0  0  0
  188.9210  177.7030  142.7500 C   0  0  0  0  0  0  0  0  0  0  0  0
  189.1840  178.0910  145.1410 C   0  0  0  0  0  3  0  0  0  0  0  0
  189.6830  178.1680  143.8370 C   0  0  0  0  0  3  0  0  0  0  0  0
  187.6660  177.1240  143.0040 C   0  0  0  0  0  3  0  0  0  0  0  0
  187.1680  177.0470  144.3070 C   0  0  0  0  0  3  0  0  0  0  0  0
  187.9270  177.5290  145.3770 C   0  0  0  0  0  0  0  0  0  0  0  0
  187.3860  177.4670  146.7620 C   0  0  0  0  0  2  0  0  0  0  0  0
  188.2960  178.0250  148.8320 C   0  0  0  0  0  1  0  0  0  0  0  0
  188.4530  177.1410  147.6920 N   0  0  0  0  0  2  0  0  0  0  0  0
  190.8390  178.1590  141.3280 O   0  0  0  0  0  0  0  0  0  0  0  0
  191.5770  177.1720  140.8490 O   0  0  0  0  0  1  0  0  0  0  0  0
  1  8  1  1  0  0  0
  1  4  1  0  0  0  0
  1  9  1  0  0  0  0
  2 22  1  1  0  0  0
  3  5  1  0  0  0  0
  3  7  1  1  0  0  0
  4  8  1  1  0  0  0
  4  3  1  0  0  0  0
  5 10  1  1  0  0  0
  7  2  1  0  0  0  0
  8 19  1  0  0  0  0
  9  6  1  6  0  0  0
  9  5  1  0  0  0  0
 10  2  1  0  0  0  0
 11 14  2  0  0  0  0
 12 17  1  0  0  0  0
 13 18  1  0  0  0  0
 14 12  1  0  0  0  0
 14 16  1  0  0  0  0
 15 11  1  0  0  0  0
 15 19  1  0  0  0  0
 16 13  2  0  0  0  0
 17 18  2  0  0  0  0
 19 12  2  0  0  0  0
 20 15  2  0  0  0  0
 22 21  1  6  0  0  0
 22 23  1  0  0  0  0
 23 26  2  0  0  0  0
 23 25  1  0  0  0  0
 24 28  1  0  0  0  0
 25 24  2  0  0  0  0
 26 27  1  0  0  0  0
 27 28  2  0  0  0  0
 28 29  1  0  0  0  0
 29 31  1  0  0  0  0
 31 30  1  0  0  0  0
 32 22  1  0  0  0  0
 33 32  1  0  0  0  0
M  END
>  <MODEL>
2

>  <REMARK>
 VINA RESULT:      -7.0      5.938      8.094
  Name = 
  6 active torsions:
  status: ('A' for Active; 'I' for Inactive)
    1  A    between atoms: C_1  and  C_32
    2  A    between atoms: C_3  and  C_32
    3  A    between atoms: C_19  and  C_27
    4  A    between atoms: C_19  and  N_31
    5  A    between atoms: N_22  and  C_29
    6  A    between atoms: O_24  and  C_32
                            x       y       z     vdW  Elec       q    Type
                         _______ _______ _______ _____ _____    ______ ____

>  <TORSDO>
F 6

$$$$
=
 OpenBabel10222417593D

 33 38  0  0  1  0  0  0  0  0999 V2000
  179.6920  177.3650  137.3890 C   0  0  1  0  0  3  0  0  0  0  0  0
  183.0730  177.2020  140.1490 C   0  0  1  0  0  3  0  0  0  0  0  0
  181.0070  177.0260  139.1990 C   0  0  1  0  0  3  0  0  0  0  0  0
  179.6420  177.4060  138.7820 C   0  0  1  0  0  3  0  0  0  0  0  0
  181.7840  176.6700  138.2390 C   0  0  1  0  0  3  0  0  0  0  0  0
  181.0780  175.8280  136.1690 O   0  0  0  0  0  1  0  0  0  0  0  0
  181.6670  177.3080  140.3720 O   0  0  0  0  0  0  0  0  0  0  0  0
  179.7020  178.7100  138.0510 N   0  0  0  0  0  0  0  0  0  0  0  0
  181.1240  176.9780  136.9570 C   0  0  1  0  0  3  0  0  0  0  0  0
  183.2040  176.8300  138.6500 C   0  0  0  0  0  2  0  0  0  0  0  0
  180.0980  182.3650  138.6700 N   0  0  0  0  0  0  0  0  0  0  0  0
  180.1440  180.8760  136.9920 C   0  0  0  0  0  0  0  0  0  0  0  0
  180.8890  182.7990  135.2210 C   0  0  0  0  0  3  0  0  0  0  0  0
  180.2940  182.1810  137.4020 C   0  0  0  0  0  0  0  0  0  0  0  0
  179.7500  181.0580  139.1400 C   0  0  0  0  0  0  0  0  0  0  0  0
  180.6670  183.1450  136.5250 N   0  0  0  0  0  0  0  0  0  0  0  0
  180.3710  180.4980  135.7110 N   0  0  0  0  0  0  0  0  0  0  0  0
  180.7400  181.4550  134.8080 C   0  0  0  0  0  3  0  0  0  0  0  0
  179.8180  180.1280  138.0220 C   0  0  0  0  0  0  0  0  0  0  0  0
  179.8190  180.7150  140.3840 N   0  0  0  0  0  2  0  0  0  0  0  0
  185.0300  178.6400  139.6030 C   0  0  0  0  0  1  0  0  0  0  0  0
  183.7790  178.5280  140.4850 C   0  0  2  0  0  0  0  0  0  0  0  0
  184.1700  178.4980  141.9560 C   0  0  0  0  0  0  0  0  0  0  0  0
  183.6250  178.8980  144.2960 C   0  0  0  0  0  3  0  0  0  0  0  0
  183.2470  178.8660  142.9510 C   0  0  0  0  0  3  0  0  0  0  0  0
  185.4890  178.2010  142.3370 C   0  0  0  0  0  3  0  0  0  0  0  0
  185.8680  178.2330  143.6810 C   0  0  0  0  0  3  0  0  0  0  0  0
  184.9360  178.5830  144.6620 C   0  0  0  0  0  0  0  0  0  0  0  0
  185.3340  178.5960  146.0960 C   0  0  0  0  0  2  0  0  0  0  0  0
  187.2260  178.0980  147.3600 C   0  0  0  0  0  1  0  0  0  0  0  0
  186.3400  177.5760  146.3370 N   0  0  0  0  0  2  0  0  0  0  0  0
  182.8900  179.5960  140.2050 O   0  0  0  0  0  0  0  0  0  0  0  0
  183.3790  180.2670  139.1760 O   0  0  0  0  0  1  0  0  0  0  0  0
  1  8  1  6  0  0  0
  1  4  1  0  0  0  0
  2  7  1  0  0  0  0
  2 22  1  6  0  0  0
  3  7  1  6  0  0  0
  4  8  1  6  0  0  0
  4  3  1  0  0  0  0
  5 10  1  1  0  0  0
  5  3  1  0  0  0  0
  9  6  1  6  0  0  0
  9  1  1  0  0  0  0
  9  5  1  0  0  0  0
 10  2  1  0  0  0  0
 11 15  1  0  0  0  0
 12 14  1  0  0  0  0
 12 19  2  0  0  0  0
 13 16  2  0  0  0  0
 14 11  2  0  0  0  0
 15 20  2  0  0  0  0
 16 14  1  0  0  0  0
 17 12  1  0  0  0  0
 18 13  1  0  0  0  0
 18 17  2  0  0  0  0
 19  8  1  0  0  0  0
 19 15  1  0  0  0  0
 22 21  1  6  0  0  0
 22 23  1  0  0  0  0
 23 26  2  0  0  0  0
 23 25  1  0  0  0  0
 24 28  1  0  0  0  0
 25 24  2  0  0  0  0
 26 27  1  0  0  0  0
 27 28  2  0  0  0  0
 28 29  1  0  0  0  0
 29 31  1  0  0  0  0
 31 30  1  0  0  0  0
 32 22  1  0  0  0  0
 33 32  1  0  0  0  0
M  END
>  <MODEL>
3

>  <REMARK>
 VINA RESULT:      -6.9      3.153      4.994
  Name = 
  6 active torsions:
  status: ('A' for Active; 'I' for Inactive)
    1  A    between atoms: C_1  and  C_32
    2  A    between atoms: C_3  and  C_32
    3  A    between atoms: C_19  and  C_27
    4  A    between atoms: C_19  and  N_31
    5  A    between atoms: N_22  and  C_29
    6  A    between atoms: O_24  and  C_32
                            x       y       z     vdW  Elec       q    Type
                         _______ _______ _______ _____ _____    ______ ____

>  <TORSDO>
F 6

$$$$
=
 OpenBabel10222417593D

 33 38  0  0  1  0  0  0  0  0999 V2000
  183.4170  178.4480  139.2570 C   0  0  1  0  0  3  0  0  0  0  0  0
  186.4310  178.9560  142.3760 C   0  0  1  0  0  3  0  0  0  0  0  0
  184.9190  179.3180  140.7080 C   0  0  1  0  0  3  0  0  0  0  0  0
  184.3770  179.4570  139.3410 C   0  0  1  0  0  3  0  0  0  0  0  0
  184.3200  178.4480  141.4400 C   0  0  1  0  0  3  0  0  0  0  0  0
  182.1150  177.7120  141.1370 O   0  0  0  0  0  1  0  0  0  0  0  0
  186.1390  179.7140  141.2030 O   0  0  0  0  0  0  0  0  0  0  0  0
  184.7240  178.2310  138.5560 N   0  0  0  0  0  0  0  0  0  0  0  0
  183.3980  177.6700  140.5920 C   0  0  1  0  0  3  0  0  0  0  0  0
  185.2190  178.0030  142.5370 C   0  0  0  0  0  2  0  0  0  0  0  0
  186.5600  175.7750  136.4360 N   0  0  0  0  0  0  0  0  0  0  0  0
  186.8460  177.7710  137.4200 C   0  0  0  0  0  0  0  0  0  0  0  0
  189.2990  178.0510  136.2800 C   0  0  0  0  0  3  0  0  0  0  0  0
  187.3600  176.7780  136.6160 C   0  0  0  0  0  0  0  0  0  0  0  0
  185.4180  176.1190  137.2280 C   0  0  0  0  0  0  0  0  0  0  0  0
  188.5800  176.9130  136.0420 N   0  0  0  0  0  0  0  0  0  0  0  0
  187.5260  178.9170  137.6630 N   0  0  0  0  0  0  0  0  0  0  0  0
  188.7620  179.0700  137.1010 C   0  0  0  0  0  3  0  0  0  0  0  0
  185.6430  177.4290  137.8230 C   0  0  0  0  0  0  0  0  0  0  0  0
  184.2560  175.5810  137.0610 N   0  0  0  0  0  2  0  0  0  0  0  0
  187.4520  176.8450  141.5390 C   0  0  0  0  0  1  0  0  0  0  0  0
  187.7580  178.1900  142.2120 C   0  0  2  0  0  0  0  0  0  0  0  0
  188.3490  177.9660  143.5970 C   0  0  0  0  0  0  0  0  0  0  0  0
  190.2750  177.9050  145.0870 C   0  0  0  0  0  3  0  0  0  0  0  0
  189.7210  178.1720  143.8330 C   0  0  0  0  0  3  0  0  0  0  0  0
  187.5570  177.4510  144.6360 C   0  0  0  0  0  3  0  0  0  0  0  0
  188.1110  177.1840  145.8910 C   0  0  0  0  0  3  0  0  0  0  0  0
  189.4710  177.4100  146.1170 C   0  0  0  0  0  0  0  0  0  0  0  0
  190.0570  177.1470  147.4600 C   0  0  0  0  0  2  0  0  0  0  0  0
  191.9040  175.7280  147.4580 C   0  0  0  0  0  1  0  0  0  0  0  0
  191.5060  177.1200  147.3670 N   0  0  0  0  0  2  0  0  0  0  0  0
  188.6240  178.9570  141.3950 O   0  0  0  0  0  0  0  0  0  0  0  0
  189.0510  178.1760  140.4170 O   0  0  0  0  0  1  0  0  0  0  0  0
  1  8  1  6  0  0  0
  1  4  1  0  0  0  0
  1  9  1  0  0  0  0
  2 22  1  6  0  0  0
  2 10  1  0  0  0  0
  3  7  1  6  0  0  0
  3  5  1  0  0  0  0
  4  8  1  6  0  0  0
  4  3  1  0  0  0  0
  5 10  1  6  0  0  0
  7  2  1  0  0  0  0
  9  6  1  1  0  0  0
  9  5  1  0  0  0  0
 11 14  2  0  0  0  0
 11 15  1  0  0  0  0
 12 17  1  0  0  0  0
 12 19  2  0  0  0  0
 13 18  1  0  0  0  0
 14 12  1  0  0  0  0
 15 19  1  0  0  0  0
 16 13  2  0  0  0  0
 16 14  1  0  0  0  0
 18 17  2  0  0  0  0
 19  8  1  0  0  0  0
 20 15  2  0  0  0  0
 22 21  1  6  0  0  0
 22 23  1  0  0  0  0
 23 25  2  0  0  0  0
 23 26  1  0  0  0  0
 24 28  2  0  0  0  0
 25 24  1  0  0  0  0
 26 27  2  0  0  0  0
 27 28  1  0  0  0  0
 28 29  1  0  0  0  0
 31 30  1  0  0  0  0
 31 29  1  0  0  0  0
 32 22  1  0  0  0  0
 33 32  1  0  0  0  0
M  END
>  <MODEL>
4

>  <REMARK>
 VINA RESULT:      -6.8      3.544      4.955
  Name = 
  6 active torsions:
  status: ('A' for Active; 'I' for Inactive)
    1  A    between atoms: C_1  and  C_32
    2  A    between atoms: C_3  and  C_32
    3  A    between atoms: C_19  and  C_27
    4  A    between atoms: C_19  and  N_31
    5  A    between atoms: N_22  and  C_29
    6  A    between atoms: O_24  and  C_32
                            x       y       z     vdW  Elec       q    Type
                         _______ _______ _______ _____ _____    ______ ____

>  <TORSDO>
F 6

$$$$
=
 OpenBabel10222417593D

 33 38  0  0  1  0  0  0  0  0999 V2000
  183.0000  178.1780  138.7390 C   0  0  1  0  0  3  0  0  0  0  0  0
  185.9520  179.0840  141.8270 C   0  0  1  0  0  3  0  0  0  0  0  0
  184.4020  179.2400  140.1620 C   0  0  1  0  0  3  0  0  0  0  0  0
  183.8420  179.2880  138.7960 C   0  0  1  0  0  3  0  0  0  0  0  0
  183.9060  178.3250  140.9160 C   0  0  1  0  0  3  0  0  0  0  0  0
  181.7960  177.3430  140.6430 O   0  0  0  0  0  1  0  0  0  0  0  0
  185.5720  179.7800  140.6400 O   0  0  0  0  0  0  0  0  0  0  0  0
  184.3200  178.0920  138.0340 N   0  0  0  0  0  0  0  0  0  0  0  0
  183.0730  177.4310  140.0910 C   0  0  1  0  0  3  0  0  0  0  0  0
  184.8540  178.0070  142.0170 C   0  0  0  0  0  2  0  0  0  0  0  0
  187.3440  176.7860  136.2900 N   0  0  0  0  0  0  0  0  0  0  0  0
  185.3720  176.0860  137.0980 C   0  0  0  0  0  0  0  0  0  0  0  0
  185.9770  173.5010  136.5120 C   0  0  0  0  0  3  0  0  0  0  0  0
  186.5660  175.7700  136.4910 C   0  0  0  0  0  0  0  0  0  0  0  0
  186.5750  177.8900  136.7790 C   0  0  0  0  0  0  0  0  0  0  0  0
  186.8760  174.4830  136.1990 N   0  0  0  0  0  0  0  0  0  0  0  0
  184.4680  175.1360  137.4360 N   0  0  0  0  0  0  0  0  0  0  0  0
  184.7560  173.8330  137.1420 C   0  0  0  0  0  3  0  0  0  0  0  0
  185.3190  177.3820  137.3130 C   0  0  0  0  0  0  0  0  0  0  0  0
  187.0980  179.0280  137.0950 N   0  0  0  0  0  2  0  0  0  0  0  0
  187.2440  177.2660  140.7210 C   0  0  0  0  0  1  0  0  0  0  0  0
  187.3550  178.4670  141.6710 C   0  0  2  0  0  0  0  0  0  0  0  0
  187.8290  178.0140  143.0440 C   0  0  0  0  0  0  0  0  0  0  0  0
  187.3520  177.4600  145.3680 C   0  0  0  0  0  3  0  0  0  0  0  0
  186.9100  177.8140  144.0910 C   0  0  0  0  0  3  0  0  0  0  0  0
  189.2010  177.8880  143.3190 C   0  0  0  0  0  3  0  0  0  0  0  0
  189.6430  177.5340  144.5960 C   0  0  0  0  0  3  0  0  0  0  0  0
  188.7190  177.3200  145.6230 C   0  0  0  0  0  0  0  0  0  0  0  0
  189.1880  176.9210  146.9770 C   0  0  0  0  0  2  0  0  0  0  0  0
  188.3770  178.1590  148.7760 C   0  0  0  0  0  1  0  0  0  0  0  0
  188.0920  177.0180  147.9260 N   0  0  0  0  0  2  0  0  0  0  0  0
  188.2190  179.4450  141.1190 O   0  0  0  0  0  0  0  0  0  0  0  0
  188.6890  178.9690  139.9780 O   0  0  0  0  0  1  0  0  0  0  0  0
  1  8  1  6  0  0  0
  1  4  1  0  0  0  0
  1  9  1  0  0  0  0
  2 22  1  6  0  0  0
  2 10  1  0  0  0  0
  3  7  1  6  0  0  0
  3  5  1  0  0  0  0
  4  8  1  6  0  0  0
  4  3  1  0  0  0  0
  5 10  1  6  0  0  0
  7  2  1  0  0  0  0
  9  6  1  1  0  0  0
  9  5  1  0  0  0  0
 11 14  2  0  0  0  0
 11 15  1  0  0  0  0
 12 19  2  0  0  0  0
 12 17  1  0  0  0  0
 13 18  1  0  0  0  0
 14 12  1  0  0  0  0
 15 20  2  0  0  0  0
 15 19  1  0  0  0  0
 16 14  1  0  0  0  0
 16 13  2  0  0  0  0
 18 17  2  0  0  0  0
 19  8  1  0  0  0  0
 22 21  1  6  0  0  0
 22 23  1  0  0  0  0
 23 26  2  0  0  0  0
 23 25  1  0  0  0  0
 24 28  1  0  0  0  0
 25 24  2  0  0  0  0
 26 27  1  0  0  0  0
 27 28  2  0  0  0  0
 28 29  1  0  0  0  0
 29 31  1  0  0  0  0
 31 30  1  0  0  0  0
 32 22  1  0  0  0  0
 33 32  1  0  0  0  0
M  END
>  <MODEL>
5

>  <REMARK>
 VINA RESULT:      -6.7      3.214      4.192
  Name = 
  6 active torsions:
  status: ('A' for Active; 'I' for Inactive)
    1  A    between atoms: C_1  and  C_32
    2  A    between atoms: C_3  and  C_32
    3  A    between atoms: C_19  and  C_27
    4  A    between atoms: C_19  and  N_31
    5  A    between atoms: N_22  and  C_29
    6  A    between atoms: O_24  and  C_32
                            x       y       z     vdW  Elec       q    Type
                         _______ _______ _______ _____ _____    ______ ____

>  <TORSDO>
F 6

$$$$
=
 OpenBabel10222417593D

 33 38  0  0  1  0  0  0  0  0999 V2000
  189.3630  177.4680  139.3720 C   0  0  1  0  0  3  0  0  0  0  0  0
  185.3840  177.9710  137.6430 C   0  0  1  0  0  3  0  0  0  0  0  0
  187.5120  178.3180  138.3870 C   0  0  1  0  0  3  0  0  0  0  0  0
  188.6150  178.6440  139.3130 C   0  0  1  0  0  3  0  0  0  0  0  0
  187.5990  177.1630  137.8310 C   0  0  1  0  0  3  0  0  0  0  0  0
  189.5840  175.9570  137.5170 O   0  0  0  0  0  1  0  0  0  0  0  0
  186.2680  178.8920  138.2830 O   0  0  0  0  0  0  0  0  0  0  0  0
  188.4850  177.7970  140.5400 N   0  0  0  0  0  0  0  0  0  0  0  0
  188.6820  176.4030  138.4820 C   0  0  1  0  0  3  0  0  0  0  0  0
  186.2550  176.7170  137.3760 C   0  0  0  0  0  2  0  0  0  0  0  0
  187.5210  176.6760  143.9620 N   0  0  0  0  0  0  0  0  0  0  0  0
  186.8730  178.1060  142.3600 C   0  0  0  0  0  0  0  0  0  0  0  0
  184.9310  179.1250  143.9680 C   0  0  0  0  0  3  0  0  0  0  0  0
  186.6810  177.6040  143.6270 C   0  0  0  0  0  0  0  0  0  0  0  0
  188.3260  176.5230  142.7880 C   0  0  0  0  0  0  0  0  0  0  0  0
  185.7170  178.1090  144.4350 N   0  0  0  0  0  0  0  0  0  0  0  0
  186.1210  179.1230  141.8730 N   0  0  0  0  0  0  0  0  0  0  0  0
  185.1380  179.6410  142.6680 C   0  0  0  0  0  3  0  0  0  0  0  0
  187.8820  177.4870  141.7910 C   0  0  0  0  0  0  0  0  0  0  0  0
  189.4920  175.9660  142.8000 N   0  0  0  0  0  2  0  0  0  0  0  0
  183.6860  176.2440  138.2150 C   0  0  0  0  0  1  0  0  0  0  0  0
  184.1750  177.6610  138.5440 C   0  0  2  0  0  0  0  0  0  0  0  0
  183.0850  178.6810  138.2420 C   0  0  0  0  0  0  0  0  0  0  0  0
  181.1560  179.3870  136.9320 C   0  0  0  0  0  3  0  0  0  0  0  0
  182.1180  178.4250  137.2530 C   0  0  0  0  0  3  0  0  0  0  0  0
  183.0890  179.9360  138.8720 C   0  0  0  0  0  3  0  0  0  0  0  0
  182.1280  180.8980  138.5520 C   0  0  0  0  0  3  0  0  0  0  0  0
  181.1610  180.6250  137.5800 C   0  0  0  0  0  0  0  0  0  0  0  0
  180.1240  181.6410  137.2550 C   0  0  0  0  0  2  0  0  0  0  0  0
  180.6880  183.5300  136.0130 C   0  0  0  0  0  1  0  0  0  0  0  0
  180.6930  182.9740  137.3540 N   0  0  0  0  0  2  0  0  0  0  0  0
  184.5910  177.7300  139.8970 O   0  0  0  0  0  0  0  0  0  0  0  0
  183.5990  177.2790  140.6460 O   0  0  0  0  0  1  0  0  0  0  0  0
  1  8  1  1  0  0  0
  2  7  1  0  0  0  0
  2 22  1  1  0  0  0
  3  7  1  1  0  0  0
  3  4  1  0  0  0  0
  4  1  1  0  0  0  0
  4  8  1  1  0  0  0
  5 10  1  1  0  0  0
  5  3  1  0  0  0  0
  5  9  1  0  0  0  0
  8 19  1  0  0  0  0
  9  6  1  6  0  0  0
  9  1  1  0  0  0  0
 10  2  1  0  0  0  0
 12 14  1  0  0  0  0
 13 16  2  0  0  0  0
 14 11  2  0  0  0  0
 14 16  1  0  0  0  0
 15 20  2  0  0  0  0
 15 11  1  0  0  0  0
 17 12  1  0  0  0  0
 17 18  2  0  0  0  0
 18 13  1  0  0  0  0
 19 12  2  0  0  0  0
 19 15  1  0  0  0  0
 22 21  1  6  0  0  0
 22 32  1  0  0  0  0
 23 22  1  0  0  0  0
 23 26  1  0  0  0  0
 24 25  1  0  0  0  0
 24 28  2  0  0  0  0
 25 23  2  0  0  0  0
 27 26  2  0  0  0  0
 28 27  1  0  0  0  0
 29 31  1  0  0  0  0
 29 28  1  0  0  0  0
 30 31  1  0  0  0  0
 32 33  1  0  0  0  0
M  END
>  <MODEL>
6

>  <REMARK>
 VINA RESULT:      -6.6      3.870      8.922
  Name = 
  6 active torsions:
  status: ('A' for Active; 'I' for Inactive)
    1  A    between atoms: C_1  and  C_32
    2  A    between atoms: C_3  and  C_32
    3  A    between atoms: C_19  and  C_27
    4  A    between atoms: C_19  and  N_31
    5  A    between atoms: N_22  and  C_29
    6  A    between atoms: O_24  and  C_32
                            x       y       z     vdW  Elec       q    Type
                         _______ _______ _______ _____ _____    ______ ____

>  <TORSDO>
F 6

$$$$
=
 OpenBabel10222417593D

 33 38  0  0  1  0  0  0  0  0999 V2000
  180.5920  174.7430  136.9560 C   0  0  1  0  0  3  0  0  0  0  0  0
  181.3470  178.0770  139.6730 C   0  0  1  0  0  3  0  0  0  0  0  0
  180.5710  176.7590  137.9820 C   0  0  1  0  0  3  0  0  0  0  0  0
  180.5080  176.1030  136.6600 C   0  0  1  0  0  3  0  0  0  0  0  0
  180.5640  175.9550  138.9840 C   0  0  1  0  0  3  0  0  0  0  0  0
  179.6960  173.7780  138.9660 O   0  0  0  0  0  1  0  0  0  0  0  0
  180.9660  178.0380  138.2980 O   0  0  0  0  0  0  0  0  0  0  0  0
  181.8100  175.4130  136.3980 N   0  0  0  0  0  0  0  0  0  0  0  0
  180.7330  174.5770  138.4860 C   0  0  1  0  0  3  0  0  0  0  0  0
  181.1540  176.6230  140.1740 C   0  0  0  0  0  2  0  0  0  0  0  0
  185.2840  176.1100  135.2380 N   0  0  0  0  0  0  0  0  0  0  0  0
  184.1350  174.6430  136.4880 C   0  0  0  0  0  0  0  0  0  0  0  0
  186.4260  173.3730  137.2160 C   0  0  0  0  0  3  0  0  0  0  0  0
  185.3510  175.0640  136.0010 C   0  0  0  0  0  0  0  0  0  0  0  0
  183.8800  176.3870  135.1850 C   0  0  0  0  0  0  0  0  0  0  0  0
  186.4980  174.4380  136.3620 N   0  0  0  0  0  0  0  0  0  0  0  0
  184.0320  173.6020  137.3490 N   0  0  0  0  0  0  0  0  0  0  0  0
  185.1740  172.9500  137.7190 C   0  0  0  0  0  3  0  0  0  0  0  0
  183.1850  175.4260  136.0300 C   0  0  0  0  0  0  0  0  0  0  0  0
  183.4010  177.5340  134.8330 N   0  0  0  0  0  2  0  0  0  0  0  0
  183.7080  177.5710  139.0680 C   0  0  0  0  0  1  0  0  0  0  0  0
  182.8030  178.5570  139.8200 C   0  0  2  0  0  0  0  0  0  0  0  0
  183.1510  178.5680  141.3020 C   0  0  0  0  0  0  0  0  0  0  0  0
  182.5470  179.0590  143.6110 C   0  0  0  0  0  3  0  0  0  0  0  0
  182.2080  178.9880  142.2570 C   0  0  0  0  0  3  0  0  0  0  0  0
  184.4520  178.2590  141.7320 C   0  0  0  0  0  3  0  0  0  0  0  0
  184.7930  178.3290  143.0850 C   0  0  0  0  0  3  0  0  0  0  0  0
  183.8410  178.7310  144.0260 C   0  0  0  0  0  0  0  0  0  0  0  0
  184.1970  178.7840  145.4700 C   0  0  0  0  0  2  0  0  0  0  0  0
  185.9850  178.6710  146.9580 C   0  0  0  0  0  1  0  0  0  0  0  0
  185.5060  178.1900  145.6760 N   0  0  0  0  0  2  0  0  0  0  0  0
  182.9130  179.8490  139.2500 O   0  0  0  0  0  0  0  0  0  0  0  0
  184.2000  180.1100  139.0890 O   0  0  0  0  0  1  0  0  0  0  0  0
  1  8  1  6  0  0  0
  1  9  1  0  0  0  0
  2 22  1  6  0  0  0
  2 10  1  0  0  0  0
  3  7  1  6  0  0  0
  3  5  1  0  0  0  0
  4  8  1  6  0  0  0
  4  1  1  0  0  0  0
  4  3  1  0  0  0  0
  5 10  1  1  0  0  0
  7  2  1  0  0  0  0
  9  6  1  1  0  0  0
  9  5  1  0  0  0  0
 11 14  2  0  0  0  0
 12 17  1  0  0  0  0
 13 18  1  0  0  0  0
 14 16  1  0  0  0  0
 14 12  1  0  0  0  0
 15 11  1  0  0  0  0
 15 19  1  0  0  0  0
 16 13  2  0  0  0  0
 17 18  2  0  0  0  0
 19  8  1  0  0  0  0
 19 12  2  0  0  0  0
 20 15  2  0  0  0  0
 22 21  1  6  0  0  0
 22 23  1  0  0  0  0
 23 26  2  0  0  0  0
 23 25  1  0  0  0  0
 24 28  1  0  0  0  0
 25 24  2  0  0  0  0
 26 27  1  0  0  0  0
 27 28  2  0  0  0  0
 28 29  1  0  0  0  0
 29 31  1  0  0  0  0
 31 30  1  0  0  0  0
 32 22  1  0  0  0  0
 33 32  1  0  0  0  0
M  END
>  <MODEL>
7

>  <REMARK>
 VINA RESULT:      -6.4      3.229      5.154
  Name = 
  6 active torsions:
  status: ('A' for Active; 'I' for Inactive)
    1  A    between atoms: C_1  and  C_32
    2  A    between atoms: C_3  and  C_32
    3  A    between atoms: C_19  and  C_27
    4  A    between atoms: C_19  and  N_31
    5  A    between atoms: N_22  and  C_29
    6  A    between atoms: O_24  and  C_32
                            x       y       z     vdW  Elec       q    Type
                         _______ _______ _______ _____ _____    ______ ____

>  <TORSDO>
F 6

$$$$
=
 OpenBabel10222417593D

 33 38  0  0  1  0  0  0  0  0999 V2000
  186.6210  177.7540  136.2370 C   0  0  1  0  0  3  0  0  0  0  0  0
  189.3780  178.5160  139.5370 C   0  0  1  0  0  3  0  0  0  0  0  0
  188.2250  178.6260  137.5720 C   0  0  1  0  0  3  0  0  0  0  0  0
  187.8720  178.3650  136.1620 C   0  0  1  0  0  3  0  0  0  0  0  0
  187.3000  178.3500  138.4190 C   0  0  1  0  0  3  0  0  0  0  0  0
  185.0070  178.2690  137.9410 O   0  0  0  0  0  1  0  0  0  0  0  0
  189.4670  178.7930  138.1390 O   0  0  0  0  0  0  0  0  0  0  0  0
  187.8070  176.8860  135.9440 N   0  0  0  0  0  0  0  0  0  0  0  0
  186.2230  177.6210  137.7250 C   0  0  1  0  0  3  0  0  0  0  0  0
  187.8940  178.1290  139.7650 C   0  0  0  0  0  2  0  0  0  0  0  0
  190.0220  173.9180  135.5240 N   0  0  0  0  0  0  0  0  0  0  0  0
  187.8730  174.4360  135.9070 C   0  0  0  0  0  0  0  0  0  0  0  0
  187.2300  171.8140  136.2240 C   0  0  0  0  0  3  0  0  0  0  0  0
  188.8330  173.4610  135.7640 C   0  0  0  0  0  0  0  0  0  0  0  0
  189.8230  175.3340  135.4670 C   0  0  0  0  0  0  0  0  0  0  0  0
  188.5200  172.1520  135.9240 N   0  0  0  0  0  0  0  0  0  0  0  0
  186.5890  174.1360  136.2200 N   0  0  0  0  0  0  0  0  0  0  0  0
  186.2510  172.8220  136.3770 C   0  0  0  0  0  3  0  0  0  0  0  0
  188.4230  175.6190  135.7460 C   0  0  0  0  0  0  0  0  0  0  0  0
  190.7840  176.1870  135.6020 N   0  0  0  0  0  2  0  0  0  0  0  0
  189.8320  176.0800  139.3000 C   0  0  0  0  0  1  0  0  0  0  0  0
  190.3430  177.3830  139.9300 C   0  0  2  0  0  0  0  0  0  0  0  0
  190.3480  177.2700  141.4480 C   0  0  0  0  0  0  0  0  0  0  0  0
  191.4820  177.5590  143.5850 C   0  0  0  0  0  3  0  0  0  0  0  0
  191.4500  177.7200  142.1980 C   0  0  0  0  0  3  0  0  0  0  0  0
  189.2970  176.6220  142.1180 C   0  0  0  0  0  3  0  0  0  0  0  0
  189.3280  176.4600  143.5050 C   0  0  0  0  0  3  0  0  0  0  0  0
  190.4210  176.9270  144.2410 C   0  0  0  0  0  0  0  0  0  0  0  0
  190.4430  176.7750  145.7210 C   0  0  0  0  0  2  0  0  0  0  0  0
  192.0110  175.8170  147.1530 C   0  0  0  0  0  1  0  0  0  0  0  0
  191.8060  176.8980  146.2070 N   0  0  0  0  0  2  0  0  0  0  0  0
  191.6320  177.6930  139.4280 O   0  0  0  0  0  0  0  0  0  0  0  0
  192.0330  176.6710  138.6910 O   0  0  0  0  0  1  0  0  0  0  0  0
  1  8  1  1  0  0  0
  1  9  1  0  0  0  0
  2 10  1  0  0  0  0
  2 22  1  6  0  0  0
  3  7  1  1  0  0  0
  3  5  1  0  0  0  0
  4  8  1  1  0  0  0
  4  1  1  0  0  0  0
  4  3  1  0  0  0  0
  5 10  1  1  0  0  0
  7  2  1  0  0  0  0
  9  6  1  6  0  0  0
  9  5  1  0  0  0  0
 11 14  2  0  0  0  0
 12 17  1  0  0  0  0
 13 18  1  0  0  0  0
 14 12  1  0  0  0  0
 14 16  1  0  0  0  0
 15 11  1  0  0  0  0
 15 20  2  0  0  0  0
 15 19  1  0  0  0  0
 16 13  2  0  0  0  0
 17 18  2  0  0  0  0
 19 12  2  0  0  0  0
 19  8  1  0  0  0  0
 22 21  1  6  0  0  0
 22 23  1  0  0  0  0
 23 26  2  0  0  0  0
 23 25  1  0  0  0  0
 24 28  1  0  0  0  0
 25 24  2  0  0  0  0
 26 27  1  0  0  0  0
 27 28  2  0  0  0  0
 28 29  1  0  0  0  0
 29 31  1  0  0  0  0
 31 30  1  0  0  0  0
 32 22  1  0  0  0  0
 33 32  1  0  0  0  0
M  END
>  <MODEL>
8

>  <REMARK>
 VINA RESULT:      -6.4      5.921      7.430
  Name = 
  6 active torsions:
  status: ('A' for Active; 'I' for Inactive)
    1  A    between atoms: C_1  and  C_32
    2  A    between atoms: C_3  and  C_32
    3  A    between atoms: C_19  and  C_27
    4  A    between atoms: C_19  and  N_31
    5  A    between atoms: N_22  and  C_29
    6  A    between atoms: O_24  and  C_32
                            x       y       z     vdW  Elec       q    Type
                         _______ _______ _______ _____ _____    ______ ____

>  <TORSDO>
F 6

$$$$
=
 OpenBabel10222417593D

 33 38  0  0  1  0  0  0  0  0999 V2000
  191.7440  175.9400  137.7750 C   0  0  1  0  0  3  0  0  0  0  0  0
  188.1350  175.0750  135.4730 C   0  0  1  0  0  3  0  0  0  0  0  0
  190.1590  175.8680  136.1620 C   0  0  1  0  0  3  0  0  0  0  0  0
  191.1480  176.7530  136.8110 C   0  0  1  0  0  3  0  0  0  0  0  0
  190.1960  174.6430  136.5490 C   0  0  1  0  0  3  0  0  0  0  0  0
  192.0600  173.5760  137.4870 O   0  0  0  0  0  1  0  0  0  0  0  0
  189.0140  176.2000  135.4780 O   0  0  0  0  0  0  0  0  0  0  0  0
  190.7490  176.9610  138.2390 N   0  0  0  0  0  0  0  0  0  0  0  0
  191.0840  174.5440  137.7220 C   0  0  1  0  0  3  0  0  0  0  0  0
  188.8900  173.9860  136.2770 C   0  0  0  0  0  2  0  0  0  0  0  0
  188.2610  178.7990  140.3180 N   0  0  0  0  0  0  0  0  0  0  0  0
  189.8310  177.2060  140.4980 C   0  0  0  0  0  0  0  0  0  0  0  0
  189.1790  176.7670  143.1000 C   0  0  0  0  0  3  0  0  0  0  0  0
  188.8440  177.9490  141.1040 C   0  0  0  0  0  0  0  0  0  0  0  0
  188.9550  178.6280  139.0780 C   0  0  0  0  0  0  0  0  0  0  0  0
  188.5120  177.7340  142.4000 N   0  0  0  0  0  0  0  0  0  0  0  0
  190.5000  176.2310  141.1580 N   0  0  0  0  0  0  0  0  0  0  0  0
  190.1870  176.0030  142.4680 C   0  0  0  0  0  3  0  0  0  0  0  0
  189.9430  177.5700  139.2400 C   0  0  0  0  0  0  0  0  0  0  0  0
  188.4750  179.0130  137.9420 N   0  0  0  0  0  2  0  0  0  0  0  0
  187.0530  176.0080  137.5120 C   0  0  0  0  0  1  0  0  0  0  0  0
  186.7820  175.4390  136.1120 C   0  0  2  0  0  0  0  0  0  0  0  0
  185.9470  174.1700  136.2100 C   0  0  0  0  0  0  0  0  0  0  0  0
  184.7750  172.3230  135.1360 C   0  0  0  0  0  3  0  0  0  0  0  0
  185.5940  173.4530  135.0530 C   0  0  0  0  0  3  0  0  0  0  0  0
  185.4290  173.7500  137.4470 C   0  0  0  0  0  3  0  0  0  0  0  0
  184.6110  172.6210  137.5310 C   0  0  0  0  0  3  0  0  0  0  0  0
  184.2820  171.9070  136.3760 C   0  0  0  0  0  0  0  0  0  0  0  0
  183.4280  170.6920  136.4690 C   0  0  0  0  0  2  0  0  0  0  0  0
  181.2480  171.5030  136.3350 C   0  0  0  0  0  1  0  0  0  0  0  0
  182.2860  170.8240  135.5810 N   0  0  0  0  0  2  0  0  0  0  0  0
  186.1490  176.4160  135.3050 O   0  0  0  0  0  0  0  0  0  0  0  0
  185.7400  177.3910  136.0990 O   0  0  0  0  0  1  0  0  0  0  0  0
  1  8  1  1  0  0  0
  2  7  1  0  0  0  0
  2 22  1  1  0  0  0
  2 10  1  0  0  0  0
  3  7  1  1  0  0  0
  3  5  1  0  0  0  0
  3  4  1  0  0  0  0
  4  1  1  0  0  0  0
  4  8  1  1  0  0  0
  5 10  1  1  0  0  0
  5  9  1  0  0  0  0
  8 19  1  0  0  0  0
  9  6  1  6  0  0  0
  9  1  1  0  0  0  0
 11 14  2  0  0  0  0
 12 14  1  0  0  0  0
 12 17  1  0  0  0  0
 14 16  1  0  0  0  0
 15 19  1  0  0  0  0
 15 11  1  0  0  0  0
 16 13  2  0  0  0  0
 17 18  2  0  0  0  0
 18 13  1  0  0  0  0
 19 12  2  0  0  0  0
 20 15  2  0  0  0  0
 22 23  1  0  0  0  0
 22 21  1  1  0  0  0
 23 26  1  0  0  0  0
 24 28  2  0  0  0  0
 25 24  1  0  0  0  0
 25 23  2  0  0  0  0
 26 27  2  0  0  0  0
 28 29  1  0  0  0  0
 28 27  1  0  0  0  0
 31 30  1  0  0  0  0
 31 29  1  0  0  0  0
 32 33  1  0  0  0  0
 32 22  1  0  0  0  0
M  END
>  <MODEL>
9

>  <REMARK>
 VINA RESULT:      -6.3      6.277     10.652
  Name = 
  6 active torsions:
  status: ('A' for Active; 'I' for Inactive)
    1  A    between atoms: C_1  and  C_32
    2  A    between atoms: C_3  and  C_32
    3  A    between atoms: C_19  and  C_27
    4  A    between atoms: C_19  and  N_31
    5  A    between atoms: N_22  and  C_29
    6  A    between atoms: O_24  and  C_32
                            x       y       z     vdW  Elec       q    Type
                         _______ _______ _______ _____ _____    ______ ____

>  <TORSDO>
F 6

$$$$
