=
 OpenBabel10222417563D

 33 37  0  0  1  0  0  0  0  0999 V2000
  185.6880  173.4880  135.8370 C   0  0  0  0  0  2  0  0  0  0  0  0
  188.9760  177.0430  138.7870 C   0  0  1  0  0  3  0  0  0  0  0  0
  192.2470  174.5190  137.1380 C   0  0  0  0  0  0  0  0  0  0  0  0
  190.4260  175.7560  137.1290 C   0  0  1  0  0  3  0  0  0  0  0  0
  184.2390  177.1340  138.2480 C   0  0  0  0  0  3  0  0  0  0  0  0
  182.6170  175.8470  136.8970 C   0  0  0  0  0  2  0  0  0  0  0  0
  188.3660  178.2090  138.0150 C   0  0  0  0  0  2  0  0  0  0  0  0
  183.3790  176.0170  135.6110 C   0  0  0  0  0  0  0  0  0  0  0  0
  187.1590  173.2380  135.8950 C   0  0  0  0  0  3  0  0  0  0  0  0
  185.8240  176.5390  136.4030 C   0  0  1  0  0  3  0  0  0  0  0  0
  187.6690  177.8680  142.1640 O   0  0  0  0  0  1  0  0  0  0  0  0
  185.4000  174.5880  134.8280 C   0  0  0  0  0  2  0  0  0  0  0  0
  182.7580  176.2780  134.5940 O   0  0  0  0  0  0  0  0  0  0  0  0
  190.3740  176.7730  138.2650 C   0  0  0  0  0  2  0  0  0  0  0  0
  187.8320  177.8750  140.8190 N   0  0  0  0  0  0  0  0  0  0  0  0
  191.8220  175.6490  136.7070 N   0  0  0  0  0  0  0  0  0  0  0  0
  185.2360  177.4840  137.4210 C   0  0  0  0  0  0  0  0  0  0  0  0
  193.5880  174.0570  136.9780 N   0  0  0  0  0  2  0  0  0  0  0  0
  184.8740  175.8270  135.5290 C   0  0  1  0  0  0  0  0  0  0  0  0
  185.8110  179.0030  140.5000 O   0  0  0  0  0  0  0  0  0  0  0  0
  186.8570  178.5170  139.9890 C   0  0  0  0  0  0  0  0  0  0  0  0
  185.5470  177.0390  135.0430 N   0  0  0  0  0  2  0  0  0  0  0  0
  191.2600  173.7920  137.7520 O   0  0  0  0  0  0  0  0  0  0  0  0
  189.1050  177.4320  140.2600 C   0  0  0  0  0  2  0  0  0  0  0  0
  182.6650  175.6120  139.3630 C   0  0  0  0  0  1  0  0  0  0  0  0
  189.3480  173.7220  136.5620 C   0  0  0  0  0  2  0  0  0  0  0  0
  187.0620  178.5660  138.5700 N   0  0  0  0  0  0  0  0  0  0  0  0
  183.5130  175.8290  138.1290 C   0  0  2  0  0  3  0  0  0  0  0  0
  185.9400  178.7790  137.6650 C   0  0  0  0  0  2  0  0  0  0  0  0
  187.9360  173.9830  136.5930 N   0  0  0  0  0  0  0  0  0  0  0  0
  190.0400  174.4220  137.6390 N   0  0  2  0  0  0  0  0  0  0  0  0
  194.5740  174.8370  136.3570 C   0  0  0  0  0  0  0  0  0  0  0  0
  195.4230  175.5060  135.8220 C   0  0  0  0  0  3  0  0  0  0  0  0
  1  9  1  0  0  0  0
  2  7  1  6  0  0  0
  2 24  1  0  0  0  0
  3 23  1  0  0  0  0
  4 31  1  0  0  0  0
  4 14  1  1  0  0  0
  6 28  1  0  0  0  0
  7 27  1  0  0  0  0
  8  6  1  0  0  0  0
  9 30  2  0  0  0  0
 10 22  1  6  0  0  0
 10 17  1  0  0  0  0
 12  1  1  0  0  0  0
 13  8  2  0  0  0  0
 14  2  1  0  0  0  0
 15 11  1  0  0  0  0
 16  4  1  0  0  0  0
 16  3  2  0  0  0  0
 17 29  1  0  0  0  0
 17  5  2  0  0  0  0
 18  3  1  0  0  0  0
 19 12  1  6  0  0  0
 19  8  1  0  0  0  0
 19 10  1  0  0  0  0
 21 20  2  0  0  0  0
 21 15  1  0  0  0  0
 22 19  1  0  0  0  0
 24 15  1  0  0  0  0
 26 30  1  0  0  0  0
 27 21  1  0  0  0  0
 28  5  1  0  0  0  0
 28 25  1  1  0  0  0
 29 27  1  0  0  0  0
 31 26  1  6  0  0  0
 31 23  1  0  0  0  0
 32 18  1  0  0  0  0
 33 32  3  0  0  0  0
M  END
>  <MODEL>
1

>  <REMARK>
 VINA RESULT:      -5.9      0.000      0.000
  Name = 
  1 active torsions:
  status: ('A' for Active; 'I' for Inactive)
    1  A    between atoms: C_4  and  N_19
                            x       y       z     vdW  Elec       q    Type
                         _______ _______ _______ _____ _____    ______ ____

>  <TORSDO>
F 1

$$$$
=
 OpenBabel10222417563D

 33 37  0  0  1  0  0  0  0  0999 V2000
  189.4010  178.4700  140.3290 C   0  0  0  0  0  2  0  0  0  0  0  0
  185.1920  178.5380  144.1280 C   0  0  1  0  0  3  0  0  0  0  0  0
  182.6430  178.7380  140.4890 C   0  0  0  0  0  0  0  0  0  0  0  0
  184.2250  178.0010  141.8290 C   0  0  1  0  0  3  0  0  0  0  0  0
  189.8810  178.1430  144.8980 C   0  0  0  0  0  3  0  0  0  0  0  0
  191.8680  177.9030  143.4460 C   0  0  0  0  0  2  0  0  0  0  0  0
  185.7160  177.2210  144.6960 C   0  0  0  0  0  2  0  0  0  0  0  0
  191.2860  176.7740  142.6410 C   0  0  0  0  0  0  0  0  0  0  0  0
  187.9960  178.6420  139.8540 C   0  0  0  0  0  3  0  0  0  0  0  0
  188.7000  177.0300  142.9910 C   0  0  1  0  0  3  0  0  0  0  0  0
  185.8400  180.7090  147.0700 O   0  0  0  0  0  1  0  0  0  0  0  0
  189.6560  177.0030  140.6350 C   0  0  0  0  0  2  0  0  0  0  0  0
  192.0010  175.8240  142.3670 O   0  0  0  0  0  0  0  0  0  0  0  0
  183.9470  178.2680  143.3060 C   0  0  0  0  0  2  0  0  0  0  0  0
  185.8780  179.6440  146.2350 N   0  0  0  0  0  0  0  0  0  0  0  0
  182.9420  177.7090  141.1930 N   0  0  0  0  0  0  0  0  0  0  0  0
  188.9740  177.2590  144.4570 C   0  0  0  0  0  0  0  0  0  0  0  0
  181.4300  178.8730  139.7470 N   0  0  0  0  0  2  0  0  0  0  0  0
  189.8690  176.7990  142.1240 C   0  0  1  0  0  0  0  0  0  0  0  0
  187.7190  178.7340  147.3490 O   0  0  0  0  0  0  0  0  0  0  0  0
  186.8490  178.6120  146.4420 C   0  0  0  0  0  0  0  0  0  0  0  0
  189.0910  175.6560  142.6210 N   0  0  0  0  0  2  0  0  0  0  0  0
  183.6310  179.6880  140.5090 O   0  0  0  0  0  0  0  0  0  0  0  0
  184.7870  179.4550  145.2830 C   0  0  0  0  0  2  0  0  0  0  0  0
  191.4960  179.9880  144.7320 C   0  0  0  0  0  1  0  0  0  0  0  0
  185.6840  178.8290  140.1540 C   0  0  0  0  0  2  0  0  0  0  0  0
  186.8510  177.4610  145.5850 N   0  0  0  0  0  0  0  0  0  0  0  0
  190.8150  178.8680  143.9770 C   0  0  2  0  0  3  0  0  0  0  0  0
  188.0450  176.6390  145.4500 C   0  0  0  0  0  2  0  0  0  0  0  0
  187.0170  178.7180  140.6790 N   0  0  0  0  0  0  0  0  0  0  0  0
  184.7390  179.2320  141.1900 N   0  0  2  0  0  0  0  0  0  0  0  0
  180.4350  177.8850  139.7630 C   0  0  0  0  0  0  0  0  0  0  0  0
  179.5780  177.0360  139.7750 C   0  0  0  0  0  3  0  0  0  0  0  0
  1 12  1  0  0  0  0
  2 14  1  6  0  0  0
  2  7  1  0  0  0  0
  2 24  1  0  0  0  0
  3 23  1  0  0  0  0
  3 16  2  0  0  0  0
  4 14  1  1  0  0  0
  6 28  1  0  0  0  0
  7 27  1  0  0  0  0
  8  6  1  0  0  0  0
  9  1  1  0  0  0  0
  9 30  2  0  0  0  0
 10 22  1  1  0  0  0
 10 17  1  0  0  0  0
 13  8  2  0  0  0  0
 15 21  1  0  0  0  0
 15 11  1  0  0  0  0
 16  4  1  0  0  0  0
 17  5  2  0  0  0  0
 17 29  1  0  0  0  0
 18 32  1  0  0  0  0
 18  3  1  0  0  0  0
 19 12  1  6  0  0  0
 19 22  1  0  0  0  0
 19  8  1  0  0  0  0
 19 10  1  0  0  0  0
 21 20  2  0  0  0  0
 23 31  1  0  0  0  0
 24 15  1  0  0  0  0
 26 30  1  0  0  0  0
 27 21  1  0  0  0  0
 28 25  1  1  0  0  0
 28  5  1  0  0  0  0
 29 27  1  0  0  0  0
 31 26  1  6  0  0  0
 31  4  1  0  0  0  0
 32 33  3  0  0  0  0
M  END
>  <MODEL>
2

>  <REMARK>
 VINA RESULT:      -5.6      4.859      9.251
  Name = 
  1 active torsions:
  status: ('A' for Active; 'I' for Inactive)
    1  A    between atoms: C_4  and  N_19
                            x       y       z     vdW  Elec       q    Type
                         _______ _______ _______ _____ _____    ______ ____

>  <TORSDO>
F 1

$$$$
=
 OpenBabel10222417563D

 33 37  0  0  1  0  0  0  0  0999 V2000
  188.0760  177.9670  138.7920 C   0  0  0  0  0  2  0  0  0  0  0  0
  182.8670  176.1590  137.4700 C   0  0  1  0  0  3  0  0  0  0  0  0
  181.6330  179.2920  140.3760 C   0  0  0  0  0  0  0  0  0  0  0  0
  182.6870  178.4100  138.6570 C   0  0  1  0  0  3  0  0  0  0  0  0
  187.0500  174.7320  135.6800 C   0  0  0  0  0  3  0  0  0  0  0  0
  189.3950  175.4690  135.9380 C   0  0  0  0  0  2  0  0  0  0  0  0
  183.1590  176.4640  136.0040 C   0  0  0  0  0  2  0  0  0  0  0  0
  189.0870  176.9200  135.6840 C   0  0  0  0  0  0  0  0  0  0  0  0
  186.9030  178.5380  139.5170 C   0  0  0  0  0  3  0  0  0  0  0  0
  186.5310  177.1180  136.2340 C   0  0  1  0  0  3  0  0  0  0  0  0
  182.5620  172.4660  137.2190 O   0  0  0  0  0  1  0  0  0  0  0  0
  188.1960  178.6250  137.4260 C   0  0  0  0  0  2  0  0  0  0  0  0
  189.8370  177.5590  134.9650 O   0  0  0  0  0  0  0  0  0  0  0  0
  181.9500  177.2280  138.0310 C   0  0  0  0  0  2  0  0  0  0  0  0
  182.8520  173.7490  136.8970 N   0  0  0  0  0  0  0  0  0  0  0  0
  181.6730  179.3670  139.0970 N   0  0  0  0  0  0  0  0  0  0  0  0
  186.3200  175.8370  135.4650 C   0  0  0  0  0  0  0  0  0  0  0  0
  180.7280  180.0350  141.1920 N   0  0  0  0  0  2  0  0  0  0  0  0
  187.9140  177.6190  136.3250 C   0  0  1  0  0  0  0  0  0  0  0  0
  184.2200  173.0820  135.1260 O   0  0  0  0  0  0  0  0  0  0  0  0
  183.6890  174.0280  135.7690 C   0  0  0  0  0  0  0  0  0  0  0  0
  186.9990  178.1750  135.3180 N   0  0  0  0  0  2  0  0  0  0  0  0
  182.5760  178.4310  140.8770 O   0  0  0  0  0  0  0  0  0  0  0  0
  182.1250  174.8250  137.5650 C   0  0  0  0  0  2  0  0  0  0  0  0
  188.6590  173.2830  136.8420 C   0  0  0  0  0  1  0  0  0  0  0  0
  184.6200  178.7510  139.9840 C   0  0  0  0  0  2  0  0  0  0  0  0
  183.9490  175.3910  135.4040 N   0  0  0  0  0  0  0  0  0  0  0  0
  188.2410  174.7150  136.5870 C   0  0  2  0  0  3  0  0  0  0  0  0
  185.1110  175.7320  134.5940 C   0  0  0  0  0  2  0  0  0  0  0  0
  185.7110  178.1220  139.2910 N   0  0  0  0  0  0  0  0  0  0  0  0
  183.3980  177.9630  139.8750 N   0  0  2  0  0  0  0  0  0  0  0  0
  179.7660  180.8950  140.6420 C   0  0  0  0  0  0  0  0  0  0  0  0
  178.9390  181.6350  140.1690 C   0  0  0  0  0  3  0  0  0  0  0  0
  1  9  1  0  0  0  0
  2  7  1  6  0  0  0
  2 24  1  0  0  0  0
  2 14  1  0  0  0  0
  3 23  1  0  0  0  0
  3 18  1  0  0  0  0
  4 14  1  1  0  0  0
  4 16  1  0  0  0  0
  4 31  1  0  0  0  0
  5 28  1  0  0  0  0
  6 28  1  0  0  0  0
  8  6  1  0  0  0  0
  8 19  1  0  0  0  0
 10 22  1  6  0  0  0
 10 19  1  0  0  0  0
 12  1  1  0  0  0  0
 13  8  2  0  0  0  0
 15 11  1  0  0  0  0
 15 24  1  0  0  0  0
 16  3  2  0  0  0  0
 17  5  2  0  0  0  0
 17 10  1  0  0  0  0
 19 12  1  1  0  0  0
 20 21  2  0  0  0  0
 21 15  1  0  0  0  0
 22 19  1  0  0  0  0
 27 21  1  0  0  0  0
 27  7  1  0  0  0  0
 28 25  1  6  0  0  0
 29 27  1  0  0  0  0
 29 17  1  0  0  0  0
 30  9  2  0  0  0  0
 30 26  1  0  0  0  0
 31 26  1  1  0  0  0
 31 23  1  0  0  0  0
 32 18  1  0  0  0  0
 33 32  3  0  0  0  0
M  END
>  <MODEL>
3

>  <REMARK>
 VINA RESULT:      -5.2      3.244      8.317
  Name = 
  1 active torsions:
  status: ('A' for Active; 'I' for Inactive)
    1  A    between atoms: C_4  and  N_19
                            x       y       z     vdW  Elec       q    Type
                         _______ _______ _______ _____ _____    ______ ____

>  <TORSDO>
F 1

$$$$
=
 OpenBabel10222417563D

 33 37  0  0  1  0  0  0  0  0999 V2000
  182.3860  178.9090  141.1340 C   0  0  0  0  0  2  0  0  0  0  0  0
  187.0520  177.6320  138.1780 C   0  0  1  0  0  3  0  0  0  0  0  0
  189.0550  178.3000  142.0920 C   0  0  0  0  0  0  0  0  0  0  0  0
  187.5850  177.4910  140.6680 C   0  0  1  0  0  3  0  0  0  0  0  0
  182.5180  177.6620  136.7030 C   0  0  0  0  0  3  0  0  0  0  0  0
  180.3310  177.9890  137.8090 C   0  0  0  0  0  2  0  0  0  0  0  0
  186.4150  176.2990  137.7940 C   0  0  0  0  0  2  0  0  0  0  0  0
  180.6080  176.9980  138.9050 C   0  0  0  0  0  0  0  0  0  0  0  0
  183.7170  179.0050  141.8020 C   0  0  0  0  0  3  0  0  0  0  0  0
  183.2260  176.8510  138.9640 C   0  0  1  0  0  3  0  0  0  0  0  0
  187.1800  179.1780  134.8030 O   0  0  0  0  0  1  0  0  0  0  0  0
  181.9510  177.4530  141.0800 C   0  0  0  0  0  2  0  0  0  0  0  0
  179.7220  176.2250  139.2310 O   0  0  0  0  0  0  0  0  0  0  0  0
  188.1100  177.3950  139.2390 C   0  0  0  0  0  2  0  0  0  0  0  0
  186.8560  178.3320  135.8100 N   0  0  0  0  0  0  0  0  0  0  0  0
  188.7030  177.1880  141.5610 N   0  0  0  0  0  0  0  0  0  0  0  0
  183.2030  176.7890  137.4560 C   0  0  0  0  0  0  0  0  0  0  0  0
  190.1550  178.4420  142.9910 N   0  0  0  0  0  2  0  0  0  0  0  0
  181.9230  176.9600  139.6450 C   0  0  1  0  0  0  0  0  0  0  0  0
  185.0750  177.4370  134.5940 O   0  0  0  0  0  0  0  0  0  0  0  0
  185.7750  177.4080  135.6430 C   0  0  0  0  0  0  0  0  0  0  0  0
  182.5760  175.6490  139.5200 N   0  0  0  0  0  2  0  0  0  0  0  0
  188.2410  179.3370  141.7180 O   0  0  0  0  0  0  0  0  0  0  0  0
  187.7570  178.2200  136.9540 C   0  0  0  0  0  2  0  0  0  0  0  0
  181.2050  179.6840  136.2260 C   0  0  0  0  0  1  0  0  0  0  0  0
  186.0500  178.8360  141.8740 C   0  0  0  0  0  2  0  0  0  0  0  0
  185.4720  176.4790  136.6930 N   0  0  0  0  0  0  0  0  0  0  0  0
  181.5880  178.6780  137.2900 C   0  0  2  0  0  3  0  0  0  0  0  0
  184.1560  175.8590  136.7780 C   0  0  0  0  0  2  0  0  0  0  0  0
  184.8050  178.7790  141.1590 N   0  0  0  0  0  0  0  0  0  0  0  0
  187.1840  178.8860  140.9580 N   0  0  2  0  0  0  0  0  0  0  0  0
  190.9760  177.3590  143.3400 C   0  0  0  0  0  0  0  0  0  0  0  0
  191.6800  176.4270  143.6390 C   0  0  0  0  0  3  0  0  0  0  0  0
  1  9  1  0  0  0  0
  2 24  1  6  0  0  0
  2 14  1  0  0  0  0
  3 18  1  0  0  0  0
  4 14  1  6  0  0  0
  4 31  1  0  0  0  0
  4 16  1  0  0  0  0
  5 28  1  0  0  0  0
  5 17  2  0  0  0  0
  6  8  1  0  0  0  0
  7  2  1  0  0  0  0
  8 13  2  0  0  0  0
  8 19  1  0  0  0  0
 10 17  1  6  0  0  0
 10 22  1  0  0  0  0
 10 19  1  0  0  0  0
 11 15  1  0  0  0  0
 12  1  1  0  0  0  0
 15 24  1  0  0  0  0
 16  3  2  0  0  0  0
 18 32  1  0  0  0  0
 19 12  1  1  0  0  0
 20 21  2  0  0  0  0
 21 15  1  0  0  0  0
 21 27  1  0  0  0  0
 22 19  1  0  0  0  0
 23  3  1  0  0  0  0
 27 29  1  0  0  0  0
 27  7  1  0  0  0  0
 28 25  1  6  0  0  0
 28  6  1  0  0  0  0
 29 17  1  0  0  0  0
 30  9  2  0  0  0  0
 30 26  1  0  0  0  0
 31 23  1  0  0  0  0
 31 26  1  1  0  0  0
 32 33  3  0  0  0  0
M  END
>  <MODEL>
4

>  <REMARK>
 VINA RESULT:      -4.9      3.690      5.826
  Name = 
  1 active torsions:
  status: ('A' for Active; 'I' for Inactive)
    1  A    between atoms: C_4  and  N_19
                            x       y       z     vdW  Elec       q    Type
                         _______ _______ _______ _____ _____    ______ ____

>  <TORSDO>
F 1

$$$$
=
 OpenBabel10222417563D

 33 37  0  0  1  0  0  0  0  0999 V2000
  187.2050  177.4350  138.0320 C   0  0  0  0  0  2  0  0  0  0  0  0
  181.7310  176.2750  137.1170 C   0  0  1  0  0  3  0  0  0  0  0  0
  181.1470  180.3370  138.8320 C   0  0  0  0  0  0  0  0  0  0  0  0
  181.9910  178.7800  137.5250 C   0  0  1  0  0  3  0  0  0  0  0  0
  185.5470  173.6210  136.0530 C   0  0  0  0  0  3  0  0  0  0  0  0
  187.9920  173.9650  136.1700 C   0  0  0  0  0  2  0  0  0  0  0  0
  182.0520  176.0410  135.6430 C   0  0  0  0  0  2  0  0  0  0  0  0
  187.9560  175.2900  135.4590 C   0  0  0  0  0  0  0  0  0  0  0  0
  186.1710  178.4090  138.4880 C   0  0  0  0  0  3  0  0  0  0  0  0
  185.4890  176.1120  135.8060 C   0  0  1  0  0  3  0  0  0  0  0  0
  180.7410  172.8140  138.0260 O   0  0  0  0  0  1  0  0  0  0  0  0
  187.4240  177.5920  136.5360 C   0  0  0  0  0  2  0  0  0  0  0  0
  188.8000  175.5210  134.6100 O   0  0  0  0  0  0  0  0  0  0  0  0
  181.0380  177.6150  137.2710 C   0  0  0  0  0  2  0  0  0  0  0  0
  181.2600  173.8540  137.3300 N   0  0  0  0  0  0  0  0  0  0  0  0
  181.1800  179.9950  137.5970 N   0  0  0  0  0  0  0  0  0  0  0  0
  185.0320  174.7140  135.4700 C   0  0  0  0  0  0  0  0  0  0  0  0
  180.4080  181.4520  139.3310 N   0  0  0  0  0  2  0  0  0  0  0  0
  186.9430  176.3570  135.7950 C   0  0  1  0  0  0  0  0  0  0  0  0
  182.4520  172.4220  135.9210 O   0  0  0  0  0  0  0  0  0  0  0  0
  182.1160  173.6040  136.2100 C   0  0  0  0  0  0  0  0  0  0  0  0
  186.1320  176.7210  134.6250 N   0  0  0  0  0  2  0  0  0  0  0  0
  181.9220  179.5250  139.6190 O   0  0  0  0  0  0  0  0  0  0  0  0
  180.7550  175.1980  137.5930 C   0  0  0  0  0  2  0  0  0  0  0  0
  186.8770  172.3500  137.6820 C   0  0  0  0  0  1  0  0  0  0  0  0
  183.9750  179.1690  138.7620 C   0  0  0  0  0  2  0  0  0  0  0  0
  182.6190  174.7090  135.4460 N   0  0  0  0  0  0  0  0  0  0  0  0
  186.7290  173.6780  136.9710 C   0  0  2  0  0  3  0  0  0  0  0  0
  183.8110  174.5590  134.6230 C   0  0  0  0  0  2  0  0  0  0  0  0
  184.9180  178.1660  138.3520 N   0  0  0  0  0  0  0  0  0  0  0  0
  182.6260  178.6220  138.8530 N   0  0  2  0  0  0  0  0  0  0  0  0
  179.6140  182.2530  138.4970 C   0  0  0  0  0  0  0  0  0  0  0  0
  178.9310  182.9400  137.7800 C   0  0  0  0  0  3  0  0  0  0  0  0
  1  9  1  0  0  0  0
  2  7  1  6  0  0  0
  2 14  1  0  0  0  0
  2 24  1  0  0  0  0
  3 18  1  0  0  0  0
  3 23  1  0  0  0  0
  4 14  1  1  0  0  0
  4 16  1  0  0  0  0
  4 31  1  0  0  0  0
  5 28  1  0  0  0  0
  6 28  1  0  0  0  0
  8 19  1  0  0  0  0
  8  6  1  0  0  0  0
 10 22  1  6  0  0  0
 12  1  1  0  0  0  0
 13  8  2  0  0  0  0
 15 24  1  0  0  0  0
 15 11  1  0  0  0  0
 16  3  2  0  0  0  0
 17 10  1  0  0  0  0
 17  5  2  0  0  0  0
 19 10  1  0  0  0  0
 19 12  1  1  0  0  0
 20 21  2  0  0  0  0
 21 15  1  0  0  0  0
 22 19  1  0  0  0  0
 27  7  1  0  0  0  0
 27 21  1  0  0  0  0
 28 25  1  6  0  0  0
 29 27  1  0  0  0  0
 29 17  1  0  0  0  0
 30  9  2  0  0  0  0
 30 26  1  0  0  0  0
 31 26  1  6  0  0  0
 31 23  1  0  0  0  0
 32 18  1  0  0  0  0
 33 32  3  0  0  0  0
M  END
>  <MODEL>
5

>  <REMARK>
 VINA RESULT:      -4.7      3.683      8.550
  Name = 
  1 active torsions:
  status: ('A' for Active; 'I' for Inactive)
    1  A    between atoms: C_4  and  N_19
                            x       y       z     vdW  Elec       q    Type
                         _______ _______ _______ _____ _____    ______ ____

>  <TORSDO>
F 1

$$$$
=
 OpenBabel10222417563D

 33 37  0  0  1  0  0  0  0  0999 V2000
  187.5750  177.1820  145.0700 C   0  0  0  0  0  2  0  0  0  0  0  0
  187.7700  177.5880  139.4180 C   0  0  1  0  0  3  0  0  0  0  0  0
  183.6260  179.1210  139.9300 C   0  0  0  0  0  0  0  0  0  0  0  0
  185.7930  178.9500  140.2790 C   0  0  1  0  0  3  0  0  0  0  0  0
  191.2150  176.2200  142.4180 C   0  0  0  0  0  3  0  0  0  0  0  0
  191.4470  176.1360  144.8780 C   0  0  0  0  0  2  0  0  0  0  0  0
  189.0010  178.4800  139.5490 C   0  0  0  0  0  2  0  0  0  0  0  0
  190.9870  177.5530  145.0850 C   0  0  0  0  0  0  0  0  0  0  0  0
  186.3490  177.6010  144.3290 C   0  0  0  0  0  3  0  0  0  0  0  0
  189.6180  178.0850  142.9120 C   0  0  1  0  0  3  0  0  0  0  0  0
  189.3650  174.6820  137.7430 O   0  0  0  0  0  1  0  0  0  0  0  0
  188.5230  178.3640  145.1900 C   0  0  0  0  0  2  0  0  0  0  0  0
  191.5880  178.2520  145.8830 O   0  0  0  0  0  0  0  0  0  0  0  0
  186.5670  178.4420  139.0660 C   0  0  0  0  0  2  0  0  0  0  0  0
  189.2210  175.8440  138.4240 N   0  0  0  0  0  0  0  0  0  0  0  0
  184.7080  179.7920  139.7770 N   0  0  0  0  0  0  0  0  0  0  0  0
  190.7240  177.4330  142.1190 C   0  0  0  0  0  0  0  0  0  0  0  0
  182.3390  179.5750  139.5120 N   0  0  0  0  0  2  0  0  0  0  0  0
  189.7810  178.1210  144.3760 C   0  0  1  0  0  0  0  0  0  0  0  0
  191.4470  175.8010  139.1310 O   0  0  0  0  0  0  0  0  0  0  0  0
  190.3460  176.4170  139.1010 C   0  0  0  0  0  0  0  0  0  0  0  0
  190.1320  179.3000  143.5730 N   0  0  0  0  0  2  0  0  0  0  0  0
  183.8410  177.9240  140.5620 O   0  0  0  0  0  0  0  0  0  0  0  0
  187.9850  176.6050  138.2660 C   0  0  0  0  0  2  0  0  0  0  0  0
  191.3100  174.0440  143.5560 C   0  0  0  0  0  1  0  0  0  0  0  0
  185.1330  178.1190  142.3980 C   0  0  0  0  0  2  0  0  0  0  0  0
  190.1980  177.6740  139.7760 N   0  0  0  0  0  0  0  0  0  0  0  0
  190.8230  175.4740  143.6560 C   0  0  2  0  0  3  0  0  0  0  0  0
  191.1280  178.0650  140.8270 C   0  0  0  0  0  2  0  0  0  0  0  0
  186.3280  177.6550  143.0480 N   0  0  0  0  0  0  0  0  0  0  0  0
  185.1520  177.8110  140.9720 N   0  0  2  0  0  0  0  0  0  0  0  0
  182.1600  180.8010  138.8540 C   0  0  0  0  0  0  0  0  0  0  0  0
  182.0050  181.8550  138.2890 C   0  0  0  0  0  3  0  0  0  0  0  0
  1 12  1  0  0  0  0
  2 24  1  6  0  0  0
  2  7  1  0  0  0  0
  3 23  1  0  0  0  0
  4 14  1  6  0  0  0
  4 31  1  0  0  0  0
  5 28  1  0  0  0  0
  6  8  1  0  0  0  0
  7 27  1  0  0  0  0
  8 13  2  0  0  0  0
  9  1  1  0  0  0  0
 10 17  1  6  0  0  0
 10 22  1  0  0  0  0
 10 19  1  0  0  0  0
 11 15  1  0  0  0  0
 14  2  1  0  0  0  0
 15 21  1  0  0  0  0
 16  3  2  0  0  0  0
 16  4  1  0  0  0  0
 17  5  2  0  0  0  0
 18  3  1  0  0  0  0
 19  8  1  0  0  0  0
 19 12  1  1  0  0  0
 21 20  2  0  0  0  0
 21 27  1  0  0  0  0
 22 19  1  0  0  0  0
 23 31  1  0  0  0  0
 24 15  1  0  0  0  0
 26 30  1  0  0  0  0
 27 29  1  0  0  0  0
 28 25  1  6  0  0  0
 28  6  1  0  0  0  0
 29 17  1  0  0  0  0
 30  9  2  0  0  0  0
 31 26  1  1  0  0  0
 32 18  1  0  0  0  0
 33 32  3  0  0  0  0
M  END
>  <MODEL>
6

>  <REMARK>
 VINA RESULT:      -4.7      3.624      8.938
  Name = 
  1 active torsions:
  status: ('A' for Active; 'I' for Inactive)
    1  A    between atoms: C_4  and  N_19
                            x       y       z     vdW  Elec       q    Type
                         _______ _______ _______ _____ _____    ______ ____

>  <TORSDO>
F 1

$$$$
=
 OpenBabel10222417563D

 33 37  0  0  1  0  0  0  0  0999 V2000
  189.9800  176.2820  139.9780 C   0  0  0  0  0  2  0  0  0  0  0  0
  184.7410  177.8780  141.4420 C   0  0  1  0  0  3  0  0  0  0  0  0
  186.5150  178.0370  145.5170 C   0  0  0  0  0  0  0  0  0  0  0  0
  186.3370  178.4180  143.3570 C   0  0  1  0  0  3  0  0  0  0  0  0
  186.4570  176.9560  137.0900 C   0  0  0  0  0  3  0  0  0  0  0  0
  188.6950  176.4380  136.1770 C   0  0  0  0  0  2  0  0  0  0  0  0
  184.8430  179.0360  140.4530 C   0  0  0  0  0  2  0  0  0  0  0  0
  189.3700  177.5930  136.8650 C   0  0  0  0  0  0  0  0  0  0  0  0
  189.6580  176.4800  141.4220 C   0  0  0  0  0  3  0  0  0  0  0  0
  187.7630  178.1500  138.8620 C   0  0  1  0  0  3  0  0  0  0  0  0
  182.0440  175.9510  139.7660 O   0  0  0  0  0  1  0  0  0  0  0  0
  190.2110  177.6340  139.3210 C   0  0  0  0  0  2  0  0  0  0  0  0
  190.1810  178.2540  136.2380 O   0  0  0  0  0  0  0  0  0  0  0  0
  184.8960  178.4100  142.8540 C   0  0  0  0  0  2  0  0  0  0  0  0
  183.0280  176.8590  139.9710 N   0  0  0  0  0  0  0  0  0  0  0  0
  186.3230  179.0030  144.6970 N   0  0  0  0  0  0  0  0  0  0  0  0
  186.6080  178.0140  137.9010 C   0  0  0  0  0  0  0  0  0  0  0  0
  186.5190  178.1840  146.9370 N   0  0  0  0  0  2  0  0  0  0  0  0
  189.1140  177.9290  138.3140 C   0  0  1  0  0  0  0  0  0  0  0  0
  183.2080  177.3030  137.6850 O   0  0  0  0  0  0  0  0  0  0  0  0
  183.5790  177.5750  138.8600 C   0  0  0  0  0  0  0  0  0  0  0  0
  188.6030  179.2980  138.4690 N   0  0  0  0  0  2  0  0  0  0  0  0
  186.7400  176.8460  144.8760 O   0  0  0  0  0  0  0  0  0  0  0  0
  183.3480  177.2550  141.3400 C   0  0  0  0  0  2  0  0  0  0  0  0
  186.9190  174.7100  136.2040 C   0  0  0  0  0  1  0  0  0  0  0  0
  188.2430  177.0170  143.2060 C   0  0  0  0  0  2  0  0  0  0  0  0
  184.5850  178.5720  139.0920 N   0  0  0  0  0  0  0  0  0  0  0  0
  187.5010  175.8910  136.9500 C   0  0  2  0  0  3  0  0  0  0  0  0
  185.4790  178.9860  138.0190 C   0  0  0  0  0  2  0  0  0  0  0  0
  188.4740  176.7880  141.8060 N   0  0  0  0  0  0  0  0  0  0  0  0
  186.8170  177.0270  143.5120 N   0  0  2  0  0  0  0  0  0  0  0  0
  186.2700  179.4170  147.5580 C   0  0  0  0  0  0  0  0  0  0  0  0
  186.0560  180.4760  148.0930 C   0  0  0  0  0  3  0  0  0  0  0  0
  1  9  1  0  0  0  0
  2  7  1  6  0  0  0
  2 14  1  0  0  0  0
  3 18  1  0  0  0  0
  4 14  1  1  0  0  0
  4 31  1  0  0  0  0
  4 16  1  0  0  0  0
  5 17  2  0  0  0  0
  6  8  1  0  0  0  0
  6 28  1  0  0  0  0
  8 19  1  0  0  0  0
  9 30  2  0  0  0  0
 10 17  1  6  0  0  0
 11 15  1  0  0  0  0
 12  1  1  0  0  0  0
 13  8  2  0  0  0  0
 15 24  1  0  0  0  0
 16  3  2  0  0  0  0
 17 29  1  0  0  0  0
 18 32  1  0  0  0  0
 19 22  1  0  0  0  0
 19 10  1  0  0  0  0
 19 12  1  1  0  0  0
 20 21  2  0  0  0  0
 21 27  1  0  0  0  0
 21 15  1  0  0  0  0
 22 10  1  0  0  0  0
 23  3  1  0  0  0  0
 24  2  1  0  0  0  0
 27  7  1  0  0  0  0
 28 25  1  6  0  0  0
 28  5  1  0  0  0  0
 29 27  1  0  0  0  0
 30 26  1  0  0  0  0
 31 26  1  1  0  0  0
 31 23  1  0  0  0  0
 32 33  3  0  0  0  0
M  END
>  <MODEL>
7

>  <REMARK>
 VINA RESULT:      -4.5      3.497      7.373
  Name = 
  1 active torsions:
  status: ('A' for Active; 'I' for Inactive)
    1  A    between atoms: C_4  and  N_19
                            x       y       z     vdW  Elec       q    Type
                         _______ _______ _______ _____ _____    ______ ____

>  <TORSDO>
F 1

$$$$
=
 OpenBabel10222417563D

 33 37  0  0  1  0  0  0  0  0999 V2000
  184.5250  179.5470  139.3750 C   0  0  0  0  0  2  0  0  0  0  0  0
  182.9150  174.9800  136.4250 C   0  0  1  0  0  3  0  0  0  0  0  0
  187.2300  174.8240  135.3560 C   0  0  0  0  0  0  0  0  0  0  0  0
  185.4560  174.9670  136.6510 C   0  0  1  0  0  3  0  0  0  0  0  0
  180.2800  177.7660  139.2590 C   0  0  0  0  0  3  0  0  0  0  0  0
  180.7630  179.6600  140.7720 C   0  0  0  0  0  2  0  0  0  0  0  0
  182.3620  174.3740  137.7120 C   0  0  0  0  0  2  0  0  0  0  0  0
  181.8840  178.9550  141.4850 C   0  0  0  0  0  0  0  0  0  0  0  0
  185.5260  178.8460  138.5170 C   0  0  0  0  0  3  0  0  0  0  0  0
  182.6400  177.1110  139.7790 C   0  0  1  0  0  3  0  0  0  0  0  0
  179.7130  175.4090  134.5940 O   0  0  0  0  0  1  0  0  0  0  0  0
  184.3430  178.7760  140.6730 C   0  0  0  0  0  2  0  0  0  0  0  0
  181.9530  179.0460  142.6990 O   0  0  0  0  0  0  0  0  0  0  0  0
  184.2180  174.2920  136.0670 C   0  0  0  0  0  2  0  0  0  0  0  0
  180.5880  175.1940  135.6050 N   0  0  0  0  0  0  0  0  0  0  0  0
  186.6120  174.1610  136.2630 N   0  0  0  0  0  0  0  0  0  0  0  0
  181.1810  176.8120  139.5370 C   0  0  0  0  0  0  0  0  0  0  0  0
  188.3920  174.3530  134.6730 N   0  0  0  0  0  2  0  0  0  0  0  0
  182.9480  178.1810  140.7460 C   0  0  1  0  0  0  0  0  0  0  0  0
  178.9310  175.5190  137.2180 O   0  0  0  0  0  0  0  0  0  0  0  0
  180.1290  175.2180  136.9610 C   0  0  0  0  0  0  0  0  0  0  0  0
  182.9900  176.7760  141.1730 N   0  0  0  0  0  2  0  0  0  0  0  0
  186.6610  176.0510  135.1290 O   0  0  0  0  0  0  0  0  0  0  0  0
  181.9300  174.7160  135.2850 C   0  0  0  0  0  2  0  0  0  0  0  0
  179.4880  180.0190  138.6780 C   0  0  0  0  0  1  0  0  0  0  0  0
  186.2190  177.1800  137.0290 C   0  0  0  0  0  2  0  0  0  0  0  0
  181.0510  174.9370  138.0230 N   0  0  0  0  0  0  0  0  0  0  0  0
  180.6060  179.2270  139.3200 C   0  0  2  0  0  3  0  0  0  0  0  0
  180.7740  175.3830  139.3830 C   0  0  0  0  0  2  0  0  0  0  0  0
  185.1960  177.8420  137.7900 N   0  0  0  0  0  0  0  0  0  0  0  0
  185.6410  176.2940  136.0240 N   0  0  2  0  0  0  0  0  0  0  0  0
  188.9370  173.0840  134.9220 C   0  0  0  0  0  0  0  0  0  0  0  0
  189.4060  171.9940  135.1340 C   0  0  0  0  0  3  0  0  0  0  0  0
  1 12  1  0  0  0  0
  2 24  1  6  0  0  0
  2  7  1  0  0  0  0
  3 16  2  0  0  0  0
  4 14  1  6  0  0  0
  5 28  1  0  0  0  0
  5 17  2  0  0  0  0
  6  8  1  0  0  0  0
  7 27  1  0  0  0  0
  8 13  2  0  0  0  0
  9  1  1  0  0  0  0
 10 17  1  1  0  0  0
 10 19  1  0  0  0  0
 10 22  1  0  0  0  0
 11 15  1  0  0  0  0
 14  2  1  0  0  0  0
 15 21  1  0  0  0  0
 16  4  1  0  0  0  0
 18 32  1  0  0  0  0
 18  3  1  0  0  0  0
 19 12  1  6  0  0  0
 19 22  1  0  0  0  0
 19  8  1  0  0  0  0
 21 20  2  0  0  0  0
 21 27  1  0  0  0  0
 23  3  1  0  0  0  0
 23 31  1  0  0  0  0
 24 15  1  0  0  0  0
 26 30  1  0  0  0  0
 27 29  1  0  0  0  0
 28 25  1  1  0  0  0
 28  6  1  0  0  0  0
 29 17  1  0  0  0  0
 30  9  2  0  0  0  0
 31  4  1  0  0  0  0
 31 26  1  1  0  0  0
 32 33  3  0  0  0  0
M  END
>  <MODEL>
8

>  <REMARK>
 VINA RESULT:      -3.9      3.435      6.663
  Name = 
  1 active torsions:
  status: ('A' for Active; 'I' for Inactive)
    1  A    between atoms: C_4  and  N_19
                            x       y       z     vdW  Elec       q    Type
                         _______ _______ _______ _____ _____    ______ ____

>  <TORSDO>
F 1

$$$$
=
 OpenBabel10222417563D

 33 37  0  0  1  0  0  0  0  0999 V2000
  188.6740  177.6680  139.6360 C   0  0  0  0  0  2  0  0  0  0  0  0
  183.8350  176.4650  136.9390 C   0  0  1  0  0  3  0  0  0  0  0  0
  182.1330  179.3820  139.8330 C   0  0  0  0  0  0  0  0  0  0  0  0
  183.5120  178.5910  138.3110 C   0  0  1  0  0  3  0  0  0  0  0  0
  188.2300  174.8680  136.0080 C   0  0  0  0  0  3  0  0  0  0  0  0
  190.4860  175.3680  136.8880 C   0  0  0  0  0  2  0  0  0  0  0  0
  184.4880  176.8910  135.6270 C   0  0  0  0  0  2  0  0  0  0  0  0
  190.3360  176.8580  136.7450 C   0  0  0  0  0  0  0  0  0  0  0  0
  187.3990  178.2630  140.1330 C   0  0  0  0  0  3  0  0  0  0  0  0
  187.7390  177.2210  136.7080 C   0  0  1  0  0  3  0  0  0  0  0  0
  183.3760  172.8580  136.1850 O   0  0  0  0  0  1  0  0  0  0  0  0
  189.1590  178.4490  138.4250 C   0  0  0  0  0  2  0  0  0  0  0  0
  191.2740  177.4990  136.3000 O   0  0  0  0  0  0  0  0  0  0  0  0
  182.8770  177.5480  137.3960 C   0  0  0  0  0  2  0  0  0  0  0  0
  183.8120  174.1370  136.0950 N   0  0  0  0  0  0  0  0  0  0  0  0
  182.4830  179.5830  138.6170 N   0  0  0  0  0  0  0  0  0  0  0  0
  187.6420  176.0490  135.7640 C   0  0  0  0  0  0  0  0  0  0  0  0
  181.1050  180.1140  140.5000 N   0  0  0  0  0  2  0  0  0  0  0  0
  189.0880  177.5880  137.1760 C   0  0  1  0  0  0  0  0  0  0  0  0
  185.5210  173.5360  134.6210 O   0  0  0  0  0  0  0  0  0  0  0  0
  184.9100  174.4550  135.2320 C   0  0  0  0  0  0  0  0  0  0  0  0
  188.4770  178.3220  136.0590 N   0  0  0  0  0  2  0  0  0  0  0  0
  182.8750  178.3960  140.4320 O   0  0  0  0  0  0  0  0  0  0  0  0
  183.0120  175.1980  136.6990 C   0  0  0  0  0  2  0  0  0  0  0  0
  189.4230  173.1740  137.3290 C   0  0  0  0  0  1  0  0  0  0  0  0
  185.0880  178.6260  140.0820 C   0  0  0  0  0  2  0  0  0  0  0  0
  185.3320  175.8200  135.1020 N   0  0  0  0  0  0  0  0  0  0  0  0
  189.1660  174.6550  137.1570 C   0  0  2  0  0  3  0  0  0  0  0  0
  186.6730  176.1390  134.6300 C   0  0  0  0  0  2  0  0  0  0  0  0
  186.2730  177.9770  139.5900 N   0  0  0  0  0  0  0  0  0  0  0  0
  183.8820  177.9620  139.5990 N   0  0  2  0  0  0  0  0  0  0  0  0
  180.3570  181.1060  139.8500 C   0  0  0  0  0  0  0  0  0  0  0  0
  179.7140  181.9600  139.2910 C   0  0  0  0  0  3  0  0  0  0  0  0
  1  9  1  0  0  0  0
  2  7  1  6  0  0  0
  2 14  1  0  0  0  0
  3 23  1  0  0  0  0
  3 18  1  0  0  0  0
  4 14  1  6  0  0  0
  4 16  1  0  0  0  0
  4 31  1  0  0  0  0
  5 28  1  0  0  0  0
  6 28  1  0  0  0  0
  8  6  1  0  0  0  0
  8 19  1  0  0  0  0
 10 17  1  6  0  0  0
 10 19  1  0  0  0  0
 12  1  1  0  0  0  0
 13  8  2  0  0  0  0
 15 11  1  0  0  0  0
 15 24  1  0  0  0  0
 16  3  2  0  0  0  0
 17  5  2  0  0  0  0
 19 12  1  1  0  0  0
 20 21  2  0  0  0  0
 21 15  1  0  0  0  0
 22 10  1  0  0  0  0
 22 19  1  0  0  0  0
 24  2  1  0  0  0  0
 27 21  1  0  0  0  0
 27  7  1  0  0  0  0
 28 25  1  6  0  0  0
 29 27  1  0  0  0  0
 29 17  1  0  0  0  0
 30 26  1  0  0  0  0
 30  9  2  0  0  0  0
 31 26  1  1  0  0  0
 31 23  1  0  0  0  0
 32 18  1  0  0  0  0
 33 32  3  0  0  0  0
M  END
>  <MODEL>
9

>  <REMARK>
 VINA RESULT:      -3.8      2.904      8.194
  Name = 
  1 active torsions:
  status: ('A' for Active; 'I' for Inactive)
    1  A    between atoms: C_4  and  N_19
                            x       y       z     vdW  Elec       q    Type
                         _______ _______ _______ _____ _____    ______ ____

>  <TORSDO>
F 1

$$$$
