=
 OpenBabel10222416003D

 25 26  0  0  1  0  0  0  0  0999 V2000
  187.4840  177.5810  143.8000 C   0  0  0  0  0  0  0  0  0  0  0  0
  185.2770  178.1500  143.6410 C   0  0  0  0  0  0  0  0  0  0  0  0
  186.2210  177.4800  144.5910 C   0  0  2  0  0  3  0  0  0  0  0  0
  185.8500  178.5640  142.5600 N   0  0  0  0  0  0  0  0  0  0  0  0
  187.2230  178.2100  142.6540 C   0  0  0  0  0  0  0  0  0  0  0  0
  186.8950  178.8350  147.8100 C   0  0  0  0  0  3  0  0  0  0  0  0
  186.3270  178.2470  145.8750 C   0  0  0  0  0  0  0  0  0  0  0  0
  186.0090  179.7440  147.3590 N   0  0  0  0  0  0  0  0  0  0  0  0
  185.6500  179.3770  146.1430 N   0  0  0  0  0  0  0  0  0  0  0  0
  187.1200  177.8710  146.8940 N   0  0  0  0  0  2  0  0  0  0  0  0
  188.7750  177.0340  144.2550 C   0  0  0  0  0  3  0  0  0  0  0  0
  189.7580  177.7940  144.6120 N   0  0  0  0  0  0  0  0  0  0  0  0
  191.4360  176.0900  144.1420 C   0  0  0  0  0  1  0  0  0  0  0  0
  191.0190  177.2260  145.0590 C   0  0  0  0  0  3  0  0  0  0  0  0
  190.8590  176.6940  146.4670 C   0  0  0  0  0  1  0  0  0  0  0  0
  188.6790  177.5470  140.8060 C   0  0  0  0  0  3  0  0  0  0  0  0
  188.2010  178.5030  141.5990 C   0  0  0  0  0  3  0  0  0  0  0  0
  189.2280  178.6370  138.6470 C   0  0  0  0  0  1  0  0  0  0  0  0
  190.9940  177.3090  139.8210 C   0  0  0  0  0  1  0  0  0  0  0  0
  189.6320  177.8220  139.7750 N   0  0  0  0  0  0  0  0  0  0  0  0
  183.8220  178.3430  143.9030 C   0  0  0  0  0  2  0  0  0  0  0  0
  183.1210  178.8190  142.6440 C   0  0  0  0  0  2  0  0  0  0  0  0
  181.6630  178.9690  142.9040 C   0  0  0  0  0  0  0  0  0  0  0  0
  180.7960  179.4050  141.8650 N   0  0  0  0  0  1  0  0  0  0  0  0
  181.1920  178.6800  144.0350 O   0  0  0  0  0  0  0  0  0  0  0  0
  1 11  1  0  0  0  0
  1  3  1  0  0  0  0
  2 21  1  0  0  0  0
  2  3  1  0  0  0  0
  3  7  1  1  0  0  0
  4  5  1  0  0  0  0
  4  2  2  0  0  0  0
  5  1  2  0  0  0  0
  7  9  2  0  0  0  0
  7 10  1  0  0  0  0
  8  6  2  0  0  0  0
  9  8  1  0  0  0  0
 10  6  1  0  0  0  0
 11 12  2  0  0  0  0
 12 14  1  0  0  0  0
 13 14  1  0  0  0  0
 14 15  1  0  0  0  0
 16 17  2  0  0  0  0
 17  5  1  0  0  0  0
 18 20  1  0  0  0  0
 20 19  1  0  0  0  0
 20 16  1  0  0  0  0
 22 23  1  0  0  0  0
 22 21  1  0  0  0  0
 23 25  2  0  0  0  0
 24 23  1  0  0  0  0
M  END
>  <MODEL>
1

>  <REMARK>
 VINA RESULT:      -6.9      0.000      0.000
  Name = 
  8 active torsions:
  status: ('A' for Active; 'I' for Inactive)
    1  A    between atoms: C_2  and  C_5
    2  A    between atoms: C_3  and  N_23
    3  A    between atoms: C_4  and  C_21
    4  A    between atoms: C_6  and  C_11
    5  A    between atoms: C_7  and  C_24
    6  A    between atoms: C_8  and  C_9
    7  A    between atoms: C_8  and  C_21
    8  A    between atoms: C_18  and  N_25
                            x       y       z     vdW  Elec       q    Type
                         _______ _______ _______ _____ _____    ______ ____

>  <TORSDO>
F 8

$$$$
=
 OpenBabel10222416003D

 25 26  0  0  1  0  0  0  0  0999 V2000
  188.3650  177.9380  143.6520 C   0  0  0  0  0  0  0  0  0  0  0  0
  189.1190  177.7720  141.5020 C   0  0  0  0  0  0  0  0  0  0  0  0
  189.6530  177.8830  142.8960 C   0  0  2  0  0  3  0  0  0  0  0  0
  187.8280  177.7480  141.4490 N   0  0  0  0  0  0  0  0  0  0  0  0
  187.3560  177.8540  142.7860 C   0  0  0  0  0  0  0  0  0  0  0  0
  191.9050  175.4110  144.1080 C   0  0  0  0  0  3  0  0  0  0  0  0
  190.4430  176.6650  143.2680 C   0  0  0  0  0  0  0  0  0  0  0  0
  191.0670  174.6300  143.3980 N   0  0  0  0  0  2  0  0  0  0  0  0
  190.1470  175.4160  142.8680 N   0  0  0  0  0  0  0  0  0  0  0  0
  191.5380  176.7080  144.0470 N   0  0  0  0  0  0  0  0  0  0  0  0
  188.2870  178.0880  145.1160 C   0  0  0  0  0  3  0  0  0  0  0  0
  188.2070  177.0700  145.9100 N   0  0  0  0  0  0  0  0  0  0  0  0
  187.1320  178.3350  147.6930 C   0  0  0  0  0  1  0  0  0  0  0  0
  188.1340  177.2470  147.3500 C   0  0  0  0  0  3  0  0  0  0  0  0
  189.4960  177.6440  147.8760 C   0  0  0  0  0  1  0  0  0  0  0  0
  185.1000  178.7780  142.6130 C   0  0  0  0  0  3  0  0  0  0  0  0
  185.9290  177.8760  143.1320 C   0  0  0  0  0  3  0  0  0  0  0  0
  182.7330  178.6850  141.8790 C   0  0  0  0  0  1  0  0  0  0  0  0
  183.2390  178.9600  144.3140 C   0  0  0  0  0  1  0  0  0  0  0  0
  183.7080  178.8090  142.9440 N   0  0  0  0  0  0  0  0  0  0  0  0
  189.9740  177.6840  140.2830 C   0  0  0  0  0  2  0  0  0  0  0  0
  189.1550  177.1940  139.1020 C   0  0  0  0  0  2  0  0  0  0  0  0
  189.2140  178.1900  137.9990 C   0  0  0  0  0  0  0  0  0  0  0  0
  189.5140  177.7680  136.6740 N   0  0  0  0  0  1  0  0  0  0  0  0
  188.9680  179.4030  138.2310 O   0  0  0  0  0  0  0  0  0  0  0  0
  1 11  1  0  0  0  0
  2  3  1  0  0  0  0
  3  7  1  1  0  0  0
  3  1  1  0  0  0  0
  4  2  2  0  0  0  0
  4  5  1  0  0  0  0
  5 17  1  0  0  0  0
  5  1  2  0  0  0  0
  7 10  1  0  0  0  0
  8  6  1  0  0  0  0
  9  7  2  0  0  0  0
  9  8  1  0  0  0  0
 10  6  2  0  0  0  0
 11 12  2  0  0  0  0
 12 14  1  0  0  0  0
 14 13  1  0  0  0  0
 14 15  1  0  0  0  0
 16 20  1  0  0  0  0
 16 17  2  0  0  0  0
 18 20  1  0  0  0  0
 20 19  1  0  0  0  0
 21  2  1  0  0  0  0
 22 21  1  0  0  0  0
 23 25  2  0  0  0  0
 23 22  1  0  0  0  0
 24 23  1  0  0  0  0
M  END
>  <MODEL>
2

>  <REMARK>
 VINA RESULT:      -6.9      2.654      6.048
  Name = 
  8 active torsions:
  status: ('A' for Active; 'I' for Inactive)
    1  A    between atoms: C_2  and  C_5
    2  A    between atoms: C_3  and  N_23
    3  A    between atoms: C_4  and  C_21
    4  A    between atoms: C_6  and  C_11
    5  A    between atoms: C_7  and  C_24
    6  A    between atoms: C_8  and  C_9
    7  A    between atoms: C_8  and  C_21
    8  A    between atoms: C_18  and  N_25
                            x       y       z     vdW  Elec       q    Type
                         _______ _______ _______ _____ _____    ______ ____

>  <TORSDO>
F 8

$$$$
=
 OpenBabel10222416003D

 25 26  0  0  1  0  0  0  0  0999 V2000
  188.2300  177.0840  143.5130 C   0  0  0  0  0  0  0  0  0  0  0  0
  188.4870  177.3710  145.7650 C   0  0  0  0  0  0  0  0  0  0  0  0
  189.2850  176.9670  144.5640 C   0  0  2  0  0  3  0  0  0  0  0  0
  187.2620  177.6720  145.4860 N   0  0  0  0  0  0  0  0  0  0  0  0
  187.0980  177.4920  144.0850 C   0  0  0  0  0  0  0  0  0  0  0  0
  192.3170  178.7270  143.9570 C   0  0  0  0  0  3  0  0  0  0  0  0
  190.4040  177.9330  144.3130 C   0  0  0  0  0  0  0  0  0  0  0  0
  191.4550  179.7610  143.9970 N   0  0  0  0  0  2  0  0  0  0  0  0
  190.2520  179.2660  144.2210 N   0  0  0  0  0  0  0  0  0  0  0  0
  191.6840  177.5520  144.1530 N   0  0  0  0  0  0  0  0  0  0  0  0
  188.4580  176.7620  142.0920 C   0  0  0  0  0  3  0  0  0  0  0  0
  188.8960  177.6380  141.2490 N   0  0  0  0  0  0  0  0  0  0  0  0
  190.5130  176.7330  139.6660 C   0  0  0  0  0  1  0  0  0  0  0  0
  189.1140  177.2930  139.8540 C   0  0  0  0  0  3  0  0  0  0  0  0
  188.9570  178.5320  139.0000 C   0  0  0  0  0  1  0  0  0  0  0  0
  184.8680  178.4780  143.9240 C   0  0  0  0  0  3  0  0  0  0  0  0
  185.8250  177.7230  143.3910 C   0  0  0  0  0  3  0  0  0  0  0  0
  183.5850  178.6560  141.8080 C   0  0  0  0  0  1  0  0  0  0  0  0
  182.3960  178.9990  143.9830 C   0  0  0  0  0  1  0  0  0  0  0  0
  183.6240  178.7100  143.2560 N   0  0  0  0  0  0  0  0  0  0  0  0
  189.0350  177.4390  147.1500 C   0  0  0  0  0  2  0  0  0  0  0  0
  189.8000  176.1680  147.4740 C   0  0  0  0  0  2  0  0  0  0  0  0
  191.2590  176.4550  147.5230 C   0  0  0  0  0  0  0  0  0  0  0  0
  192.1800  175.5700  146.8990 N   0  0  0  0  0  1  0  0  0  0  0  0
  191.6760  177.4990  148.0900 O   0  0  0  0  0  0  0  0  0  0  0  0
  1  5  2  0  0  0  0
  1  3  1  0  0  0  0
  2 21  1  0  0  0  0
  3  7  1  6  0  0  0
  3  2  1  0  0  0  0
  4  2  2  0  0  0  0
  5  4  1  0  0  0  0
  6  8  1  0  0  0  0
  6 10  2  0  0  0  0
  8  9  1  0  0  0  0
  9  7  2  0  0  0  0
 10  7  1  0  0  0  0
 11  1  1  0  0  0  0
 12 11  2  0  0  0  0
 13 14  1  0  0  0  0
 14 12  1  0  0  0  0
 15 14  1  0  0  0  0
 17 16  2  0  0  0  0
 17  5  1  0  0  0  0
 18 20  1  0  0  0  0
 20 16  1  0  0  0  0
 20 19  1  0  0  0  0
 21 22  1  0  0  0  0
 22 23  1  0  0  0  0
 23 25  2  0  0  0  0
 24 23  1  0  0  0  0
M  END
>  <MODEL>
3

>  <REMARK>
 VINA RESULT:      -6.9      2.818      6.571
  Name = 
  8 active torsions:
  status: ('A' for Active; 'I' for Inactive)
    1  A    between atoms: C_2  and  C_5
    2  A    between atoms: C_3  and  N_23
    3  A    between atoms: C_4  and  C_21
    4  A    between atoms: C_6  and  C_11
    5  A    between atoms: C_7  and  C_24
    6  A    between atoms: C_8  and  C_9
    7  A    between atoms: C_8  and  C_21
    8  A    between atoms: C_18  and  N_25
                            x       y       z     vdW  Elec       q    Type
                         _______ _______ _______ _____ _____    ______ ____

>  <TORSDO>
F 8

$$$$
=
 OpenBabel10222416003D

 25 26  0  0  1  0  0  0  0  0999 V2000
  189.1930  177.8850  144.0890 C   0  0  0  0  0  0  0  0  0  0  0  0
  190.5780  177.5730  142.2990 C   0  0  0  0  0  0  0  0  0  0  0  0
  190.6520  177.8310  143.7720 C   0  0  2  0  0  3  0  0  0  0  0  0
  189.3680  177.4780  141.8570 N   0  0  0  0  0  0  0  0  0  0  0  0
  188.5020  177.6740  142.9680 C   0  0  0  0  0  0  0  0  0  0  0  0
  192.1710  174.8180  144.8950 C   0  0  0  0  0  3  0  0  0  0  0  0
  191.3160  176.6920  144.4860 C   0  0  0  0  0  0  0  0  0  0  0  0
  192.2390  175.5450  146.0280 N   0  0  0  0  0  0  0  0  0  0  0  0
  191.7010  176.7240  145.7730 N   0  0  0  0  0  0  0  0  0  0  0  0
  191.5920  175.5150  143.8970 N   0  0  0  0  0  2  0  0  0  0  0  0
  188.6620  178.1560  145.4370 C   0  0  0  0  0  3  0  0  0  0  0  0
  188.2510  177.2110  146.2190 N   0  0  0  0  0  0  0  0  0  0  0  0
  186.5720  178.4790  147.4480 C   0  0  0  0  0  1  0  0  0  0  0  0
  187.7350  177.5070  147.5440 C   0  0  0  0  0  3  0  0  0  0  0  0
  188.8320  178.1280  148.3830 C   0  0  0  0  0  1  0  0  0  0  0  0
  186.3810  178.5550  142.1350 C   0  0  0  0  0  3  0  0  0  0  0  0
  187.0390  177.6520  142.8570 C   0  0  0  0  0  3  0  0  0  0  0  0
  184.3580  178.5660  140.6990 C   0  0  0  0  0  1  0  0  0  0  0  0
  184.0830  178.5100  143.1860 C   0  0  0  0  0  1  0  0  0  0  0  0
  184.9550  178.5440  142.0210 N   0  0  0  0  0  0  0  0  0  0  0  0
  191.7700  177.4240  141.4150 C   0  0  0  0  0  2  0  0  0  0  0  0
  191.3330  177.2090  139.9770 C   0  0  0  0  0  2  0  0  0  0  0  0
  192.5180  176.9130  139.1280 C   0  0  0  0  0  0  0  0  0  0  0  0
  193.8280  177.1530  139.6260 N   0  0  0  0  0  1  0  0  0  0  0  0
  192.3620  176.4210  137.9790 O   0  0  0  0  0  0  0  0  0  0  0  0
  1 11  1  0  0  0  0
  2  3  1  0  0  0  0
  3  1  1  0  0  0  0
  3  7  1  1  0  0  0
  4  2  2  0  0  0  0
  4  5  1  0  0  0  0
  5  1  2  0  0  0  0
  6  8  2  0  0  0  0
  7  9  2  0  0  0  0
  9  8  1  0  0  0  0
 10  7  1  0  0  0  0
 10  6  1  0  0  0  0
 11 12  2  0  0  0  0
 12 14  1  0  0  0  0
 13 14  1  0  0  0  0
 14 15  1  0  0  0  0
 16 17  2  0  0  0  0
 17  5  1  0  0  0  0
 18 20  1  0  0  0  0
 20 16  1  0  0  0  0
 20 19  1  0  0  0  0
 21  2  1  0  0  0  0
 22 21  1  0  0  0  0
 23 24  1  0  0  0  0
 23 22  1  0  0  0  0
 25 23  2  0  0  0  0
M  END
>  <MODEL>
4

>  <REMARK>
 VINA RESULT:      -6.9      3.236      6.696
  Name = 
  8 active torsions:
  status: ('A' for Active; 'I' for Inactive)
    1  A    between atoms: C_2  and  C_5
    2  A    between atoms: C_3  and  N_23
    3  A    between atoms: C_4  and  C_21
    4  A    between atoms: C_6  and  C_11
    5  A    between atoms: C_7  and  C_24
    6  A    between atoms: C_8  and  C_9
    7  A    between atoms: C_8  and  C_21
    8  A    between atoms: C_18  and  N_25
                            x       y       z     vdW  Elec       q    Type
                         _______ _______ _______ _____ _____    ______ ____

>  <TORSDO>
F 8

$$$$
=
 OpenBabel10222416003D

 25 26  0  0  1  0  0  0  0  0999 V2000
  189.7490  177.5970  140.7810 C   0  0  0  0  0  0  0  0  0  0  0  0
  189.1310  178.4810  138.7680 C   0  0  0  0  0  0  0  0  0  0  0  0
  190.3280  177.8760  139.4330 C   0  0  2  0  0  3  0  0  0  0  0  0
  188.0910  178.5300  139.5330 N   0  0  0  0  0  0  0  0  0  0  0  0
  188.4730  177.9820  140.7890 C   0  0  0  0  0  0  0  0  0  0  0  0
  191.8850  175.1460  137.7670 C   0  0  0  0  0  3  0  0  0  0  0  0
  190.7380  176.6060  138.7500 C   0  0  0  0  0  0  0  0  0  0  0  0
  190.6410  174.6480  137.9110 N   0  0  0  0  0  2  0  0  0  0  0  0
  189.9180  175.5640  138.5290 N   0  0  0  0  0  0  0  0  0  0  0  0
  191.9810  176.3860  138.2880 N   0  0  0  0  0  0  0  0  0  0  0  0
  190.5210  177.0120  141.8930 C   0  0  0  0  0  3  0  0  0  0  0  0
  190.8380  177.6930  142.9450 N   0  0  0  0  0  0  0  0  0  0  0  0
  191.6830  175.5860  143.8320 C   0  0  0  0  0  1  0  0  0  0  0  0
  191.5980  177.0890  144.0270 C   0  0  0  0  0  3  0  0  0  0  0  0
  190.9120  177.3800  145.3450 C   0  0  0  0  0  1  0  0  0  0  0  0
  186.3590  178.4580  141.9160 C   0  0  0  0  0  3  0  0  0  0  0  0
  187.5570  177.8800  141.9310 C   0  0  0  0  0  3  0  0  0  0  0  0
  185.9770  177.9700  144.3190 C   0  0  0  0  0  1  0  0  0  0  0  0
  184.0360  178.6540  142.8940 C   0  0  0  0  0  1  0  0  0  0  0  0
  185.4570  178.3650  143.0240 N   0  0  0  0  0  0  0  0  0  0  0  0
  189.1150  178.9730  137.3600 C   0  0  0  0  0  2  0  0  0  0  0  0
  187.9250  178.3940  136.6160 C   0  0  0  0  0  2  0  0  0  0  0  0
  188.3290  177.1520  135.9050 C   0  0  0  0  0  0  0  0  0  0  0  0
  187.4180  176.0660  135.7950 N   0  0  0  0  0  1  0  0  0  0  0  0
  189.4680  177.0730  135.3730 O   0  0  0  0  0  0  0  0  0  0  0  0
  1  5  2  0  0  0  0
  1 11  1  0  0  0  0
  2  3  1  0  0  0  0
  2  4  2  0  0  0  0
  3  7  1  6  0  0  0
  3  1  1  0  0  0  0
  4  5  1  0  0  0  0
  5 17  1  0  0  0  0
  6  8  1  0  0  0  0
  6 10  2  0  0  0  0
  8  9  1  0  0  0  0
  9  7  2  0  0  0  0
 10  7  1  0  0  0  0
 11 12  2  0  0  0  0
 12 14  1  0  0  0  0
 13 14  1  0  0  0  0
 14 15  1  0  0  0  0
 16 17  2  0  0  0  0
 16 20  1  0  0  0  0
 19 20  1  0  0  0  0
 20 18  1  0  0  0  0
 21  2  1  0  0  0  0
 22 21  1  0  0  0  0
 23 22  1  0  0  0  0
 24 23  1  0  0  0  0
 25 23  2  0  0  0  0
M  END
>  <MODEL>
5

>  <REMARK>
 VINA RESULT:      -6.8      3.265      7.146
  Name = 
  8 active torsions:
  status: ('A' for Active; 'I' for Inactive)
    1  A    between atoms: C_2  and  C_5
    2  A    between atoms: C_3  and  N_23
    3  A    between atoms: C_4  and  C_21
    4  A    between atoms: C_6  and  C_11
    5  A    between atoms: C_7  and  C_24
    6  A    between atoms: C_8  and  C_9
    7  A    between atoms: C_8  and  C_21
    8  A    between atoms: C_18  and  N_25
                            x       y       z     vdW  Elec       q    Type
                         _______ _______ _______ _____ _____    ______ ____

>  <TORSDO>
F 8

$$$$
=
 OpenBabel10222416003D

 25 26  0  0  1  0  0  0  0  0999 V2000
  187.7930  177.5910  142.1090 C   0  0  0  0  0  0  0  0  0  0  0  0
  187.4050  177.2620  144.3370 C   0  0  0  0  0  0  0  0  0  0  0  0
  188.4430  176.9640  143.3000 C   0  0  2  0  0  3  0  0  0  0  0  0
  186.3950  177.9220  143.8740 N   0  0  0  0  0  0  0  0  0  0  0  0
  186.6320  178.1260  142.4870 C   0  0  0  0  0  0  0  0  0  0  0  0
  191.7510  177.9730  144.1340 C   0  0  0  0  0  3  0  0  0  0  0  0
  189.7390  177.6440  143.6250 C   0  0  0  0  0  0  0  0  0  0  0  0
  191.1740  179.1810  143.9820 N   0  0  0  0  0  0  0  0  0  0  0  0
  189.9090  178.9780  143.6630 N   0  0  0  0  0  0  0  0  0  0  0  0
  190.8690  176.9760  143.9150 N   0  0  0  0  0  2  0  0  0  0  0  0
  188.3780  177.5670  140.7560 C   0  0  0  0  0  3  0  0  0  0  0  0
  188.4780  178.6320  140.0300 N   0  0  0  0  0  0  0  0  0  0  0  0
  187.9760  178.3580  137.6610 C   0  0  0  0  0  1  0  0  0  0  0  0
  189.0610  178.5800  138.7000 C   0  0  0  0  0  3  0  0  0  0  0  0
  190.0530  177.4390  138.6320 C   0  0  0  0  0  1  0  0  0  0  0  0
  184.5350  178.2850  141.2440 C   0  0  0  0  0  3  0  0  0  0  0  0
  185.6910  178.8310  141.6080 C   0  0  0  0  0  3  0  0  0  0  0  0
  182.2040  178.9720  140.7430 C   0  0  0  0  0  1  0  0  0  0  0  0
  184.0330  179.6440  139.1730 C   0  0  0  0  0  1  0  0  0  0  0  0
  183.6100  178.9630  140.3880 N   0  0  0  0  0  0  0  0  0  0  0  0
  187.5120  176.8580  145.7680 C   0  0  0  0  0  2  0  0  0  0  0  0
  187.7510  178.0770  146.6400 C   0  0  0  0  0  2  0  0  0  0  0  0
  188.7660  177.7610  147.6820 C   0  0  0  0  0  0  0  0  0  0  0  0
  189.9300  177.0200  147.3400 N   0  0  0  0  0  1  0  0  0  0  0  0
  188.6100  178.1780  148.8600 O   0  0  0  0  0  0  0  0  0  0  0  0
  1  5  2  0  0  0  0
  1  3  1  0  0  0  0
  2 21  1  0  0  0  0
  3  7  1  1  0  0  0
  3  2  1  0  0  0  0
  4  2  2  0  0  0  0
  5  4  1  0  0  0  0
  7  9  2  0  0  0  0
  7 10  1  0  0  0  0
  8  6  2  0  0  0  0
  9  8  1  0  0  0  0
 10  6  1  0  0  0  0
 11  1  1  0  0  0  0
 12 11  2  0  0  0  0
 13 14  1  0  0  0  0
 14 12  1  0  0  0  0
 15 14  1  0  0  0  0
 16 17  2  0  0  0  0
 17  5  1  0  0  0  0
 19 20  1  0  0  0  0
 20 18  1  0  0  0  0
 20 16  1  0  0  0  0
 21 22  1  0  0  0  0
 22 23  1  0  0  0  0
 23 25  2  0  0  0  0
 24 23  1  0  0  0  0
M  END
>  <MODEL>
6

>  <REMARK>
 VINA RESULT:      -6.8      2.629      5.878
  Name = 
  8 active torsions:
  status: ('A' for Active; 'I' for Inactive)
    1  A    between atoms: C_2  and  C_5
    2  A    between atoms: C_3  and  N_23
    3  A    between atoms: C_4  and  C_21
    4  A    between atoms: C_6  and  C_11
    5  A    between atoms: C_7  and  C_24
    6  A    between atoms: C_8  and  C_9
    7  A    between atoms: C_8  and  C_21
    8  A    between atoms: C_18  and  N_25
                            x       y       z     vdW  Elec       q    Type
                         _______ _______ _______ _____ _____    ______ ____

>  <TORSDO>
F 8

$$$$
=
 OpenBabel10222416003D

 25 26  0  0  1  0  0  0  0  0999 V2000
  186.8100  178.6880  142.3540 C   0  0  0  0  0  0  0  0  0  0  0  0
  184.9080  179.2110  143.5070 C   0  0  0  0  0  0  0  0  0  0  0  0
  185.5400  179.4550  142.1710 C   0  0  2  0  0  3  0  0  0  0  0  0
  185.6230  178.4650  144.2820 N   0  0  0  0  0  0  0  0  0  0  0  0
  186.8090  178.1390  143.5690 C   0  0  0  0  0  0  0  0  0  0  0  0
  183.7640  178.5850  139.2150 C   0  0  0  0  0  3  0  0  0  0  0  0
  184.7120  178.8680  141.0680 C   0  0  0  0  0  0  0  0  0  0  0  0
  183.4280  177.5430  140.0000 N   0  0  0  0  0  0  0  0  0  0  0  0
  184.0220  177.7180  141.1660 N   0  0  0  0  0  0  0  0  0  0  0  0
  184.5780  179.4450  139.8610 N   0  0  0  0  0  2  0  0  0  0  0  0
  187.8670  178.6080  141.3290 C   0  0  0  0  0  3  0  0  0  0  0  0
  188.2120  177.4890  140.7810 N   0  0  0  0  0  0  0  0  0  0  0  0
  190.6230  177.4860  140.4300 C   0  0  0  0  0  1  0  0  0  0  0  0
  189.2550  177.4400  139.7720 C   0  0  0  0  0  3  0  0  0  0  0  0
  189.1120  178.6270  138.8440 C   0  0  0  0  0  1  0  0  0  0  0  0
  188.8800  177.8450  144.8310 C   0  0  0  0  0  3  0  0  0  0  0  0
  187.8810  177.3110  144.1330 C   0  0  0  0  0  3  0  0  0  0  0  0
  189.9130  176.7540  146.8050 C   0  0  0  0  0  1  0  0  0  0  0  0
  191.0180  176.5220  144.5720 C   0  0  0  0  0  1  0  0  0  0  0  0
  189.9310  177.0480  145.3850 N   0  0  0  0  0  0  0  0  0  0  0  0
  183.5810  179.7550  143.9150 C   0  0  0  0  0  2  0  0  0  0  0  0
  182.6610  178.6260  144.3440 C   0  0  0  0  0  2  0  0  0  0  0  0
  181.3210  178.8030  143.7210 C   0  0  0  0  0  0  0  0  0  0  0  0
  181.2080  179.3780  142.4260 N   0  0  0  0  0  1  0  0  0  0  0  0
  180.2890  178.4150  144.3290 O   0  0  0  0  0  0  0  0  0  0  0  0
  1  5  2  0  0  0  0
  2 21  1  0  0  0  0
  2  4  2  0  0  0  0
  3  7  1  6  0  0  0
  3  1  1  0  0  0  0
  3  2  1  0  0  0  0
  5 17  1  0  0  0  0
  5  4  1  0  0  0  0
  6 10  1  0  0  0  0
  6  8  2  0  0  0  0
  7  9  2  0  0  0  0
  8  9  1  0  0  0  0
 10  7  1  0  0  0  0
 11  1  1  0  0  0  0
 12 11  2  0  0  0  0
 14 13  1  0  0  0  0
 14 12  1  0  0  0  0
 15 14  1  0  0  0  0
 16 20  1  0  0  0  0
 17 16  2  0  0  0  0
 19 20  1  0  0  0  0
 20 18  1  0  0  0  0
 21 22  1  0  0  0  0
 23 25  2  0  0  0  0
 23 22  1  0  0  0  0
 24 23  1  0  0  0  0
M  END
>  <MODEL>
7

>  <REMARK>
 VINA RESULT:      -6.7      1.689      4.827
  Name = 
  8 active torsions:
  status: ('A' for Active; 'I' for Inactive)
    1  A    between atoms: C_2  and  C_5
    2  A    between atoms: C_3  and  N_23
    3  A    between atoms: C_4  and  C_21
    4  A    between atoms: C_6  and  C_11
    5  A    between atoms: C_7  and  C_24
    6  A    between atoms: C_8  and  C_9
    7  A    between atoms: C_8  and  C_21
    8  A    between atoms: C_18  and  N_25
                            x       y       z     vdW  Elec       q    Type
                         _______ _______ _______ _____ _____    ______ ____

>  <TORSDO>
F 8

$$$$
=
 OpenBabel10222416003D

 25 26  0  0  1  0  0  0  0  0999 V2000
  188.8950  177.2750  140.6800 C   0  0  0  0  0  0  0  0  0  0  0  0
  190.5760  176.6020  139.2870 C   0  0  0  0  0  0  0  0  0  0  0  0
  189.0940  176.8110  139.2740 C   0  0  2  0  0  3  0  0  0  0  0  0
  191.1230  176.8910  140.4210 N   0  0  0  0  0  0  0  0  0  0  0  0
  190.0790  177.3080  141.2910 C   0  0  0  0  0  0  0  0  0  0  0  0
  187.7710  178.9000  136.7170 C   0  0  0  0  0  3  0  0  0  0  0  0
  188.7100  177.8800  138.2950 C   0  0  0  0  0  0  0  0  0  0  0  0
  188.6540  179.7510  137.2750 N   0  0  0  0  0  2  0  0  0  0  0  0
  189.2460  179.1130  138.2680 N   0  0  0  0  0  0  0  0  0  0  0  0
  187.7800  177.7040  137.3390 N   0  0  0  0  0  0  0  0  0  0  0  0
  187.5760  177.6040  141.2490 C   0  0  0  0  0  3  0  0  0  0  0  0
  187.1280  178.8160  141.2950 N   0  0  0  0  0  0  0  0  0  0  0  0
  185.5820  178.2610  143.0940 C   0  0  0  0  0  1  0  0  0  0  0  0
  185.8230  179.1120  141.8600 C   0  0  0  0  0  3  0  0  0  0  0  0
  184.7520  178.8110  140.8330 C   0  0  0  0  0  1  0  0  0  0  0  0
  190.2880  176.8200  143.6760 C   0  0  0  0  0  3  0  0  0  0  0  0
  190.3090  177.7070  142.6850 C   0  0  0  0  0  3  0  0  0  0  0  0
  189.5400  178.0490  145.6980 C   0  0  0  0  0  1  0  0  0  0  0  0
  191.6810  176.7560  145.7850 C   0  0  0  0  0  1  0  0  0  0  0  0
  190.5110  177.1980  145.0380 N   0  0  0  0  0  0  0  0  0  0  0  0
  191.3640  176.1210  138.1150 C   0  0  0  0  0  2  0  0  0  0  0  0
  192.8350  176.4460  138.3030 C   0  0  0  0  0  2  0  0  0  0  0  0
  193.6620  175.2560  137.9670 C   0  0  0  0  0  0  0  0  0  0  0  0
  195.0510  175.2470  138.2680 N   0  0  0  0  0  1  0  0  0  0  0  0
  193.1250  174.2430  137.4460 O   0  0  0  0  0  0  0  0  0  0  0  0
  1 11  1  0  0  0  0
  1  5  2  0  0  0  0
  2  4  2  0  0  0  0
  3  7  1  6  0  0  0
  3  2  1  0  0  0  0
  3  1  1  0  0  0  0
  4  5  1  0  0  0  0
  5 17  1  0  0  0  0
  6  8  1  0  0  0  0
  6 10  2  0  0  0  0
  8  9  1  0  0  0  0
  9  7  2  0  0  0  0
 10  7  1  0  0  0  0
 11 12  2  0  0  0  0
 12 14  1  0  0  0  0
 14 13  1  0  0  0  0
 15 14  1  0  0  0  0
 16 20  1  0  0  0  0
 17 16  2  0  0  0  0
 20 18  1  0  0  0  0
 20 19  1  0  0  0  0
 21 22  1  0  0  0  0
 21  2  1  0  0  0  0
 23 24  1  0  0  0  0
 23 22  1  0  0  0  0
 25 23  2  0  0  0  0
M  END
>  <MODEL>
8

>  <REMARK>
 VINA RESULT:      -6.4      3.964      8.388
  Name = 
  8 active torsions:
  status: ('A' for Active; 'I' for Inactive)
    1  A    between atoms: C_2  and  C_5
    2  A    between atoms: C_3  and  N_23
    3  A    between atoms: C_4  and  C_21
    4  A    between atoms: C_6  and  C_11
    5  A    between atoms: C_7  and  C_24
    6  A    between atoms: C_8  and  C_9
    7  A    between atoms: C_8  and  C_21
    8  A    between atoms: C_18  and  N_25
                            x       y       z     vdW  Elec       q    Type
                         _______ _______ _______ _____ _____    ______ ____

>  <TORSDO>
F 8

$$$$
=
 OpenBabel10222416003D

 25 26  0  0  1  0  0  0  0  0999 V2000
  189.4600  177.1270  141.3260 C   0  0  0  0  0  0  0  0  0  0  0  0
  188.0660  177.0630  143.1350 C   0  0  0  0  0  0  0  0  0  0  0  0
  189.4540  176.6600  142.7460 C   0  0  2  0  0  3  0  0  0  0  0  0
  187.4160  177.6450  142.1820 N   0  0  0  0  0  0  0  0  0  0  0  0
  188.2800  177.6840  141.0540 C   0  0  0  0  0  0  0  0  0  0  0  0
  191.6780  178.9300  144.3430 C   0  0  0  0  0  3  0  0  0  0  0  0
  190.4770  177.3960  143.5580 C   0  0  0  0  0  0  0  0  0  0  0  0
  192.0240  177.7900  144.9710 N   0  0  0  0  0  0  0  0  0  0  0  0
  191.2700  176.8230  144.4800 N   0  0  0  0  0  0  0  0  0  0  0  0
  190.6990  178.7170  143.4400 N   0  0  0  0  0  2  0  0  0  0  0  0
  190.6060  176.9490  140.4160 C   0  0  0  0  0  3  0  0  0  0  0  0
  190.6020  176.0710  139.4670 N   0  0  0  0  0  0  0  0  0  0  0  0
  192.9090  176.7560  139.0830 C   0  0  0  0  0  1  0  0  0  0  0  0
  191.7450  175.9190  138.5830 C   0  0  0  0  0  3  0  0  0  0  0  0
  191.3670  176.3790  137.1910 C   0  0  0  0  0  1  0  0  0  0  0  0
  187.5680  177.4940  138.7240 C   0  0  0  0  0  3  0  0  0  0  0  0
  187.8860  178.2620  139.7630 C   0  0  0  0  0  3  0  0  0  0  0  0
  185.8150  177.8780  137.0110 C   0  0  0  0  0  1  0  0  0  0  0  0
  188.1180  178.7720  136.6140 C   0  0  0  0  0  1  0  0  0  0  0  0
  187.1830  178.0460  137.4610 N   0  0  0  0  0  0  0  0  0  0  0  0
  187.4770  176.8370  144.4870 C   0  0  0  0  0  2  0  0  0  0  0  0
  187.2940  178.1610  145.2070 C   0  0  0  0  0  2  0  0  0  0  0  0
  185.8470  178.4070  145.4490 C   0  0  0  0  0  0  0  0  0  0  0  0
  185.4040  178.8470  146.7270 N   0  0  0  0  0  1  0  0  0  0  0  0
  185.0170  178.2570  144.5140 O   0  0  0  0  0  0  0  0  0  0  0  0
  1  3  1  0  0  0  0
  2 21  1  0  0  0  0
  3  2  1  0  0  0  0
  3  7  1  1  0  0  0
  4  2  2  0  0  0  0
  5  1  2  0  0  0  0
  5  4  1  0  0  0  0
  6  8  2  0  0  0  0
  7  9  2  0  0  0  0
  9  8  1  0  0  0  0
 10  7  1  0  0  0  0
 10  6  1  0  0  0  0
 11  1  1  0  0  0  0
 12 11  2  0  0  0  0
 14 13  1  0  0  0  0
 14 12  1  0  0  0  0
 15 14  1  0  0  0  0
 16 17  2  0  0  0  0
 17  5  1  0  0  0  0
 18 20  1  0  0  0  0
 19 20  1  0  0  0  0
 20 16  1  0  0  0  0
 21 22  1  0  0  0  0
 22 23  1  0  0  0  0
 23 24  1  0  0  0  0
 25 23  2  0  0  0  0
M  END
>  <MODEL>
9

>  <REMARK>
 VINA RESULT:      -6.4      2.536      4.898
  Name = 
  8 active torsions:
  status: ('A' for Active; 'I' for Inactive)
    1  A    between atoms: C_2  and  C_5
    2  A    between atoms: C_3  and  N_23
    3  A    between atoms: C_4  and  C_21
    4  A    between atoms: C_6  and  C_11
    5  A    between atoms: C_7  and  C_24
    6  A    between atoms: C_8  and  C_9
    7  A    between atoms: C_8  and  C_21
    8  A    between atoms: C_18  and  N_25
                            x       y       z     vdW  Elec       q    Type
                         _______ _______ _______ _____ _____    ______ ____

>  <TORSDO>
F 8

$$$$
