=
 OpenBabel10222421003D

 38 40  0  0  1  0  0  0  0  0999 V2000
  191.4430  175.8920  142.9860 O   0  0  0  0  0  0  0  0  0  0  0  0
  190.5740  176.4580  143.6980 C   0  0  0  0  0  0  0  0  0  0  0  0
  189.2120  176.8760  143.2290 C   0  0  1  0  0  3  0  0  0  0  0  0
  191.8300  176.4440  145.9550 N   0  0  0  0  0  2  0  0  0  0  0  0
  190.7320  176.7750  145.1030 C   0  0  0  0  0  0  0  0  0  0  0  0
  187.3930  177.8580  144.6950 C   0  0  0  0  0  3  0  0  0  0  0  0
  191.8510  176.9280  147.2810 N   0  0  0  0  0  2  0  0  0  0  0  0
  188.6340  177.4070  144.5190 C   0  0  0  0  0  0  0  0  0  0  0  0
  189.6270  177.2940  145.5850 C   0  0  0  0  0  0  0  0  0  0  0  0
  190.5040  176.8110  147.8570 C   0  0  0  0  0  2  0  0  0  0  0  0
  189.4850  177.6270  147.0400 C   0  0  0  0  0  2  0  0  0  0  0  0
  186.4000  177.9010  143.5820 C   0  0  0  0  0  2  0  0  0  0  0  0
  184.9940  179.3160  145.0810 C   0  0  0  0  0  1  0  0  0  0  0  0
  185.0000  178.1250  144.1380 C   0  0  1  0  0  3  0  0  0  0  0  0
  183.9470  178.3170  143.0400 C   0  0  1  0  0  3  0  0  0  0  0  0
  182.7320  179.1320  143.4710 C   0  0  0  0  0  1  0  0  0  0  0  0
  184.5300  178.7970  141.7090 C   0  0  0  0  0  2  0  0  0  0  0  0
  183.5350  178.7500  140.5540 C   0  0  2  0  0  3  0  0  0  0  0  0
  184.0490  177.1990  138.0160 C   0  0  2  0  0  3  0  0  0  0  0  0
  182.7910  176.9990  138.8750 C   0  0  0  0  0  2  0  0  0  0  0  0
  184.9330  178.3730  138.4710 C   0  0  0  0  0  2  0  0  0  0  0  0
  183.0870  177.2970  140.3420 C   0  0  0  0  0  2  0  0  0  0  0  0
  184.1450  179.3900  139.2960 C   0  0  0  0  0  2  0  0  0  0  0  0
  182.3660  177.7460  136.2010 N   0  0  0  0  0  2  0  0  0  0  0  0
  184.5540  177.0950  135.6940 O   0  0  0  0  0  0  0  0  0  0  0  0
  183.6840  177.3360  136.5750 C   0  0  0  0  0  0  0  0  0  0  0  0
  181.9670  177.8820  134.8100 C   0  0  0  0  0  1  0  0  0  0  0  0
  189.3300  177.9580  142.2600 N   0  0  0  0  0  2  0  0  0  0  0  0
  190.7630  176.4430  139.4100 C   0  0  0  0  0  3  0  0  0  0  0  0
  189.0700  177.7860  140.8660 C   0  0  0  0  0  0  0  0  0  0  0  0
  189.9150  177.1160  140.1360 C   0  0  0  0  0  0  0  0  0  0  0  0
  187.8560  178.3720  140.2230 C   0  0  0  0  0  1  0  0  0  0  0  0
  190.3080  175.7060  138.2790 N   0  0  0  0  0  2  0  0  0  0  0  0
  189.1580  176.1580  137.5090 C   0  0  2  0  0  3  0  0  0  0  0  0
  188.5040  174.9610  136.8360 C   0  0  0  0  0  1  0  0  0  0  0  0
  188.9610  178.5420  136.7540 C   0  0  0  0  0  1  0  0  0  0  0  0
  189.1620  176.7590  135.0720 C   0  0  0  0  0  1  0  0  0  0  0  0
  189.5890  177.1900  136.4650 C   0  0  0  0  0  3  0  0  0  0  0  0
  1  2  2  0  0  0  0
  2  5  1  0  0  0  0
  3 28  1  6  0  0  0
  3  2  1  0  0  0  0
  3  8  1  0  0  0  0
  4  7  1  0  0  0  0
  5  9  2  0  0  0  0
  5  4  1  0  0  0  0
  7 10  1  0  0  0  0
  8  6  2  0  0  0  0
  8  9  1  0  0  0  0
  9 11  1  0  0  0  0
 11 10  1  0  0  0  0
 12 14  1  0  0  0  0
 12  6  1  0  0  0  0
 14 13  1  1  0  0  0
 15 16  1  1  0  0  0
 15 14  1  0  0  0  0
 17 15  1  0  0  0  0
 18 17  1  1  0  0  0
 19 26  1  6  0  0  0
 19 21  1  0  0  0  0
 19 20  1  0  0  0  0
 20 22  1  0  0  0  0
 21 23  1  0  0  0  0
 22 18  1  0  0  0  0
 23 18  1  0  0  0  0
 24 26  1  0  0  0  0
 25 26  2  0  0  0  0
 27 24  1  0  0  0  0
 29 31  2  0  0  0  0
 30 28  1  0  0  0  0
 31 30  2  0  0  0  0
 32 30  1  0  0  0  0
 33 29  1  0  0  0  0
 34 35  1  6  0  0  0
 34 33  1  0  0  0  0
 37 38  1  0  0  0  0
 38 36  1  0  0  0  0
 38 34  1  0  0  0  0
M  END
>  <MODEL>
1

>  <REMARK>
 VINA RESULT:      -8.6      0.000      0.000
  Name = 
  11 active torsions:
  status: ('A' for Active; 'I' for Inactive)
    1  A    between atoms: C_1  and  C_34
    2  A    between atoms: C_3  and  C_34
    3  A    between atoms: C_3  and  C_37
    4  A    between atoms: C_4  and  N_32
    5  A    between atoms: C_7  and  N_32
    6  A    between atoms: C_7  and  C_38
    7  A    between atoms: C_9  and  N_29
    8  A    between atoms: C_12  and  C_14
    9  A    between atoms: C_13  and  N_29
   10  A    between atoms: C_19  and  C_25
   11  A    between atoms: C_25  and  C_37
                            x       y       z     vdW  Elec       q    Type
                         _______ _______ _______ _____ _____    ______ ____

>  <TORSDO>
F 11

$$$$
=
 OpenBabel10222421003D

 38 40  0  0  1  0  0  0  0  0999 V2000
  188.2620  177.9980  137.0150 O   0  0  0  0  0  0  0  0  0  0  0  0
  188.3020  177.9730  138.2720 C   0  0  0  0  0  0  0  0  0  0  0  0
  189.5380  177.7460  139.0920 C   0  0  1  0  0  3  0  0  0  0  0  0
  185.8350  178.5530  138.7680 N   0  0  0  0  0  0  0  0  0  0  0  0
  187.1650  178.1930  139.1430 C   0  0  0  0  0  0  0  0  0  0  0  0
  189.6650  177.8660  141.6200 C   0  0  0  0  0  2  0  0  0  0  0  0
  184.8300  178.6250  139.7570 N   0  0  0  0  0  2  0  0  0  0  0  0
  188.9720  177.9050  140.4830 C   0  0  0  0  0  0  0  0  0  0  0  0
  187.5390  178.1780  140.4010 C   0  0  0  0  0  0  0  0  0  0  0  0
  185.3800  179.2730  140.9560 C   0  0  0  0  0  2  0  0  0  0  0  0
  186.5750  178.4740  141.5100 C   0  0  0  0  0  2  0  0  0  0  0  0
  191.1390  177.6370  141.6430 C   0  0  0  0  0  2  0  0  0  0  0  0
  191.8390  178.7300  143.7740 C   0  0  0  0  0  1  0  0  0  0  0  0
  191.6100  177.4030  143.0720 C   0  0  1  0  0  3  0  0  0  0  0  0
  190.6390  176.5370  143.8850 C   0  0  1  0  0  3  0  0  0  0  0  0
  190.7750  175.0390  143.6360 C   0  0  0  0  0  1  0  0  0  0  0  0
  190.6130  176.8820  145.3760 C   0  0  0  0  0  2  0  0  0  0  0  0
  189.6160  177.9820  145.7300 C   0  0  2  0  0  3  0  0  0  0  0  0
  186.6960  177.4290  146.2610 C   0  0  2  0  0  3  0  0  0  0  0  0
  187.5980  178.1730  147.2570 C   0  0  0  0  0  2  0  0  0  0  0  0
  187.3670  177.1450  144.9060 C   0  0  0  0  0  2  0  0  0  0  0  0
  189.0450  177.7040  147.1280 C   0  0  0  0  0  2  0  0  0  0  0  0
  188.5350  178.0930  144.6410 C   0  0  0  0  0  2  0  0  0  0  0  0
  184.9790  178.5410  144.7630 N   0  0  0  0  0  2  0  0  0  0  0  0
  184.6990  178.4280  147.0810 O   0  0  0  0  0  0  0  0  0  0  0  0
  185.4080  178.1600  146.0730 C   0  0  0  0  0  0  0  0  0  0  0  0
  183.7380  179.2620  144.5380 C   0  0  0  0  0  1  0  0  0  0  0  0
  190.0130  176.3800  138.9060 N   0  0  0  0  0  2  0  0  0  0  0  0
  193.4930  176.4410  138.3120 C   0  0  0  0  0  3  0  0  0  0  0  0
  190.9560  176.0140  137.8980 C   0  0  0  0  0  0  0  0  0  0  0  0
  192.2250  176.2270  138.1030 C   0  0  0  0  0  0  0  0  0  0  0  0
  190.5180  175.4040  136.6080 C   0  0  0  0  0  1  0  0  0  0  0  0
  194.4680  175.5810  137.7310 N   0  0  0  0  0  2  0  0  0  0  0  0
  194.3540  174.1340  137.8550 C   0  0  2  0  0  3  0  0  0  0  0  0
  195.4970  173.6140  138.7130 C   0  0  0  0  0  1  0  0  0  0  0  0
  194.5540  174.5250  135.3860 C   0  0  0  0  0  1  0  0  0  0  0  0
  193.0840  172.7320  136.2060 C   0  0  0  0  0  1  0  0  0  0  0  0
  194.3800  173.4790  136.4730 C   0  0  0  0  0  3  0  0  0  0  0  0
  1  2  2  0  0  0  0
  2  3  1  0  0  0  0
  2  5  1  0  0  0  0
  3 28  1  1  0  0  0
  3  8  1  0  0  0  0
  4  5  2  0  0  0  0
  4  7  1  0  0  0  0
  5  9  1  0  0  0  0
  6 12  1  0  0  0  0
  7 10  1  0  0  0  0
  8  6  1  0  0  0  0
  9  8  2  0  0  0  0
  9 11  1  0  0  0  0
 10 11  1  0  0  0  0
 12 14  1  0  0  0  0
 14 13  1  1  0  0  0
 14 15  1  0  0  0  0
 15 16  1  1  0  0  0
 15 17  1  0  0  0  0
 18 17  1  6  0  0  0
 18 22  1  0  0  0  0
 19 26  1  6  0  0  0
 19 20  1  0  0  0  0
 21 19  1  0  0  0  0
 22 20  1  0  0  0  0
 23 21  1  0  0  0  0
 23 18  1  0  0  0  0
 24 26  1  0  0  0  0
 26 25  2  0  0  0  0
 27 24  1  0  0  0  0
 30 31  2  0  0  0  0
 30 28  1  0  0  0  0
 31 29  2  0  0  0  0
 32 30  1  0  0  0  0
 33 34  1  0  0  0  0
 33 29  1  0  0  0  0
 34 35  1  1  0  0  0
 36 38  1  0  0  0  0
 37 38  1  0  0  0  0
 38 34  1  0  0  0  0
M  END
>  <MODEL>
2

>  <REMARK>
 VINA RESULT:      -8.3      3.140      7.188
  Name = 
  11 active torsions:
  status: ('A' for Active; 'I' for Inactive)
    1  A    between atoms: C_1  and  C_34
    2  A    between atoms: C_3  and  C_34
    3  A    between atoms: C_3  and  C_37
    4  A    between atoms: C_4  and  N_32
    5  A    between atoms: C_7  and  N_32
    6  A    between atoms: C_7  and  C_38
    7  A    between atoms: C_9  and  N_29
    8  A    between atoms: C_12  and  C_14
    9  A    between atoms: C_13  and  N_29
   10  A    between atoms: C_19  and  C_25
   11  A    between atoms: C_25  and  C_37
                            x       y       z     vdW  Elec       q    Type
                         _______ _______ _______ _____ _____    ______ ____

>  <TORSDO>
F 11

$$$$
=
 OpenBabel10222421003D

 38 40  0  0  1  0  0  0  0  0999 V2000
  183.1190  179.8070  143.5710 O   0  0  0  0  0  0  0  0  0  0  0  0
  184.2520  179.2620  143.6120 C   0  0  0  0  0  0  0  0  0  0  0  0
  185.1880  179.1280  142.4480 C   0  0  1  0  0  3  0  0  0  0  0  0
  184.3500  178.7240  146.1360 N   0  0  0  0  0  2  0  0  0  0  0  0
  184.8590  178.6990  144.8020 C   0  0  0  0  0  0  0  0  0  0  0  0
  187.5400  178.1890  142.5560 C   0  0  0  0  0  3  0  0  0  0  0  0
  185.0390  178.0300  147.1550 N   0  0  0  0  0  2  0  0  0  0  0  0
  186.3710  178.4800  143.1270 C   0  0  0  0  0  0  0  0  0  0  0  0
  186.0720  178.2720  144.5420 C   0  0  0  0  0  0  0  0  0  0  0  0
  186.4840  178.2440  146.9900 C   0  0  0  0  0  2  0  0  0  0  0  0
  186.9610  177.7280  145.6190 C   0  0  0  0  0  2  0  0  0  0  0  0
  187.8120  178.4730  141.1170 C   0  0  0  0  0  2  0  0  0  0  0  0
  188.2180  177.2880  138.9590 C   0  0  0  0  0  1  0  0  0  0  0  0
  188.4590  177.2620  140.4580 C   0  0  1  0  0  3  0  0  0  0  0  0
  189.9610  177.1570  140.7490 C   0  0  1  0  0  3  0  0  0  0  0  0
  190.8310  176.9970  139.5060 C   0  0  0  0  0  1  0  0  0  0  0  0
  190.4800  178.2470  141.6890 C   0  0  0  0  0  2  0  0  0  0  0  0
  191.4470  177.7280  142.7490 C   0  0  2  0  0  3  0  0  0  0  0  0
  190.5350  176.7340  145.4490 C   0  0  2  0  0  3  0  0  0  0  0  0
  191.4010  175.8930  144.5010 C   0  0  0  0  0  2  0  0  0  0  0  0
  190.3190  178.1820  144.9760 C   0  0  0  0  0  2  0  0  0  0  0  0
  191.1190  176.2580  143.0460 C   0  0  0  0  0  2  0  0  0  0  0  0
  191.4050  178.6260  143.9970 C   0  0  0  0  0  2  0  0  0  0  0  0
  192.3020  175.9940  147.1090 N   0  0  0  0  0  2  0  0  0  0  0  0
  190.4910  177.3240  147.7540 O   0  0  0  0  0  0  0  0  0  0  0  0
  191.0920  176.7060  146.8340 C   0  0  0  0  0  0  0  0  0  0  0  0
  192.8730  175.9320  148.4440 C   0  0  0  0  0  1  0  0  0  0  0  0
  184.6260  178.2140  141.4610 N   0  0  0  0  0  2  0  0  0  0  0  0
  181.3910  178.9560  140.2550 C   0  0  0  0  0  3  0  0  0  0  0  0
  183.9800  178.6590  140.2670 C   0  0  0  0  0  0  0  0  0  0  0  0
  182.6850  178.8080  140.2580 C   0  0  0  0  0  0  0  0  0  0  0  0
  184.7550  178.9430  139.0230 C   0  0  0  0  0  1  0  0  0  0  0  0
  180.7870  179.9430  139.4240 N   0  0  0  0  0  2  0  0  0  0  0  0
  181.4570  180.4140  138.2190 C   0  0  2  0  0  3  0  0  0  0  0  0
  181.5240  181.9330  138.2450 C   0  0  0  0  0  1  0  0  0  0  0  0
  181.4570  178.7860  136.3120 C   0  0  0  0  0  1  0  0  0  0  0  0
  180.5740  181.0540  135.9590 C   0  0  0  0  0  1  0  0  0  0  0  0
  180.7120  179.9310  136.9730 C   0  0  0  0  0  3  0  0  0  0  0  0
  1  2  2  0  0  0  0
  2  5  1  0  0  0  0
  3 28  1  6  0  0  0
  3  8  1  0  0  0  0
  3  2  1  0  0  0  0
  4  7  1  0  0  0  0
  5  4  1  0  0  0  0
  6  8  2  0  0  0  0
  8  9  1  0  0  0  0
  9  5  2  0  0  0  0
  9 11  1  0  0  0  0
 10  7  1  0  0  0  0
 11 10  1  0  0  0  0
 12  6  1  0  0  0  0
 14 13  1  6  0  0  0
 14 15  1  0  0  0  0
 14 12  1  0  0  0  0
 15 16  1  6  0  0  0
 15 17  1  0  0  0  0
 18 17  1  6  0  0  0
 18 22  1  0  0  0  0
 18 23  1  0  0  0  0
 19 26  1  1  0  0  0
 20 19  1  0  0  0  0
 21 19  1  0  0  0  0
 22 20  1  0  0  0  0
 23 21  1  0  0  0  0
 24 27  1  0  0  0  0
 26 24  1  0  0  0  0
 26 25  2  0  0  0  0
 29 31  2  0  0  0  0
 30 28  1  0  0  0  0
 31 30  2  0  0  0  0
 32 30  1  0  0  0  0
 33 29  1  0  0  0  0
 34 35  1  1  0  0  0
 34 33  1  0  0  0  0
 36 38  1  0  0  0  0
 37 38  1  0  0  0  0
 38 34  1  0  0  0  0
M  END
>  <MODEL>
3

>  <REMARK>
 VINA RESULT:      -8.3      2.912      8.438
  Name = 
  11 active torsions:
  status: ('A' for Active; 'I' for Inactive)
    1  A    between atoms: C_1  and  C_34
    2  A    between atoms: C_3  and  C_34
    3  A    between atoms: C_3  and  C_37
    4  A    between atoms: C_4  and  N_32
    5  A    between atoms: C_7  and  N_32
    6  A    between atoms: C_7  and  C_38
    7  A    between atoms: C_9  and  N_29
    8  A    between atoms: C_12  and  C_14
    9  A    between atoms: C_13  and  N_29
   10  A    between atoms: C_19  and  C_25
   11  A    between atoms: C_25  and  C_37
                            x       y       z     vdW  Elec       q    Type
                         _______ _______ _______ _____ _____    ______ ____

>  <TORSDO>
F 11

$$$$
=
 OpenBabel10222421003D

 38 40  0  0  1  0  0  0  0  0999 V2000
  190.7280  176.2310  142.4710 O   0  0  0  0  0  0  0  0  0  0  0  0
  190.0480  176.6360  143.4490 C   0  0  0  0  0  0  0  0  0  0  0  0
  188.6030  177.0350  143.3900 C   0  0  1  0  0  3  0  0  0  0  0  0
  191.8190  176.3700  145.3100 N   0  0  0  0  0  0  0  0  0  0  0  0
  190.5380  176.7550  144.8070 C   0  0  0  0  0  0  0  0  0  0  0  0
  187.1770  177.6840  145.3820 C   0  0  0  0  0  2  0  0  0  0  0  0
  192.1540  176.6570  146.6510 N   0  0  0  0  0  2  0  0  0  0  0  0
  188.3470  177.3380  144.8470 C   0  0  0  0  0  0  0  0  0  0  0  0
  189.5740  177.1320  145.6140 C   0  0  0  0  0  0  0  0  0  0  0  0
  190.9920  176.3780  147.5070 C   0  0  0  0  0  2  0  0  0  0  0  0
  189.7860  177.2420  147.0930 C   0  0  0  0  0  2  0  0  0  0  0  0
  185.9410  177.8290  144.5600 C   0  0  0  0  0  2  0  0  0  0  0  0
  185.2010  178.4790  146.8520 C   0  0  0  0  0  1  0  0  0  0  0  0
  184.7400  178.0830  145.4610 C   0  0  1  0  0  3  0  0  0  0  0  0
  183.7870  179.1450  144.8990 C   0  0  1  0  0  3  0  0  0  0  0  0
  184.4770  180.2500  144.1040 C   0  0  0  0  0  1  0  0  0  0  0  0
  182.5840  178.5580  144.1580 C   0  0  0  0  0  2  0  0  0  0  0  0
  182.1730  179.3600  142.9270 C   0  0  2  0  0  3  0  0  0  0  0  0
  180.5000  178.1970  140.7010 C   0  0  2  0  0  3  0  0  0  0  0  0
  180.1150  179.4820  141.4480 C   0  0  0  0  0  2  0  0  0  0  0  0
  181.8910  177.6550  141.0710 C   0  0  0  0  0  2  0  0  0  0  0  0
  180.6410  179.4510  142.8810 C   0  0  0  0  0  2  0  0  0  0  0  0
  182.7860  178.7440  141.6590 C   0  0  0  0  0  2  0  0  0  0  0  0
  181.5320  178.2730  138.3870 N   0  0  0  0  0  2  0  0  0  0  0  0
  179.2500  178.6520  138.7280 O   0  0  0  0  0  0  0  0  0  0  0  0
  180.3800  178.3920  139.2260 C   0  0  0  0  0  0  0  0  0  0  0  0
  181.4610  178.4650  136.9480 C   0  0  0  0  0  1  0  0  0  0  0  0
  188.4550  178.2510  142.6000 N   0  0  0  0  0  2  0  0  0  0  0  0
  189.3510  177.4790  139.2730 C   0  0  0  0  0  3  0  0  0  0  0  0
  187.8940  178.2630  141.2860 C   0  0  0  0  0  0  0  0  0  0  0  0
  188.6210  177.8730  140.2780 C   0  0  0  0  0  0  0  0  0  0  0  0
  186.4970  178.7290  141.0410 C   0  0  0  0  0  1  0  0  0  0  0  0
  188.7390  176.8660  138.1420 N   0  0  0  0  0  2  0  0  0  0  0  0
  188.4820  177.6290  136.9290 C   0  0  2  0  0  3  0  0  0  0  0  0
  189.0960  179.0140  137.0700 C   0  0  0  0  0  1  0  0  0  0  0  0
  186.2640  176.4810  137.1530 C   0  0  0  0  0  1  0  0  0  0  0  0
  186.6910  177.9020  135.1920 C   0  0  0  0  0  1  0  0  0  0  0  0
  186.9770  177.7330  136.6740 C   0  0  0  0  0  3  0  0  0  0  0  0
  1  2  2  0  0  0  0
  2  5  1  0  0  0  0
  3 28  1  6  0  0  0
  3  2  1  0  0  0  0
  3  8  1  0  0  0  0
  4  7  1  0  0  0  0
  5  4  2  0  0  0  0
  5  9  1  0  0  0  0
  7 10  1  0  0  0  0
  8  6  1  0  0  0  0
  8  9  2  0  0  0  0
  9 11  1  0  0  0  0
 11 10  1  0  0  0  0
 12  6  1  0  0  0  0
 12 14  1  0  0  0  0
 14 13  1  1  0  0  0
 15 16  1  6  0  0  0
 15 14  1  0  0  0  0
 17 15  1  0  0  0  0
 18 17  1  1  0  0  0
 19 26  1  6  0  0  0
 19 21  1  0  0  0  0
 19 20  1  0  0  0  0
 20 22  1  0  0  0  0
 21 23  1  0  0  0  0
 22 18  1  0  0  0  0
 23 18  1  0  0  0  0
 24 26  1  0  0  0  0
 25 26  2  0  0  0  0
 27 24  1  0  0  0  0
 29 31  2  0  0  0  0
 30 28  1  0  0  0  0
 31 30  2  0  0  0  0
 32 30  1  0  0  0  0
 33 29  1  0  0  0  0
 34 35  1  1  0  0  0
 34 33  1  0  0  0  0
 37 38  1  0  0  0  0
 38 34  1  0  0  0  0
 38 36  1  0  0  0  0
M  END
>  <MODEL>
4

>  <REMARK>
 VINA RESULT:      -8.2      1.865      2.567
  Name = 
  11 active torsions:
  status: ('A' for Active; 'I' for Inactive)
    1  A    between atoms: C_1  and  C_34
    2  A    between atoms: C_3  and  C_34
    3  A    between atoms: C_3  and  C_37
    4  A    between atoms: C_4  and  N_32
    5  A    between atoms: C_7  and  N_32
    6  A    between atoms: C_7  and  C_38
    7  A    between atoms: C_9  and  N_29
    8  A    between atoms: C_12  and  C_14
    9  A    between atoms: C_13  and  N_29
   10  A    between atoms: C_19  and  C_25
   11  A    between atoms: C_25  and  C_37
                            x       y       z     vdW  Elec       q    Type
                         _______ _______ _______ _____ _____    ______ ____

>  <TORSDO>
F 11

$$$$
=
 OpenBabel10222421003D

 38 40  0  0  1  0  0  0  0  0999 V2000
  191.2270  176.4860  145.0770 O   0  0  0  0  0  0  0  0  0  0  0  0
  190.0600  176.9450  145.1830 C   0  0  0  0  0  0  0  0  0  0  0  0
  189.0590  177.0240  144.0690 C   0  0  1  0  0  3  0  0  0  0  0  0
  190.0500  177.4420  147.7170 N   0  0  0  0  0  2  0  0  0  0  0  0
  189.4750  177.4460  146.4100 C   0  0  0  0  0  0  0  0  0  0  0  0
  186.6530  177.7840  144.3090 C   0  0  0  0  0  3  0  0  0  0  0  0
  189.3650  178.0690  148.7810 N   0  0  0  0  0  2  0  0  0  0  0  0
  187.8670  177.5730  144.8160 C   0  0  0  0  0  0  0  0  0  0  0  0
  188.2220  177.7850  146.2180 C   0  0  0  0  0  0  0  0  0  0  0  0
  187.9330  177.7510  148.6840 C   0  0  0  0  0  2  0  0  0  0  0  0
  187.3510  178.2470  147.3470 C   0  0  0  0  0  2  0  0  0  0  0  0
  186.3300  177.4990  142.8810 C   0  0  0  0  0  2  0  0  0  0  0  0
  186.1760  178.9990  140.8930 C   0  0  0  0  0  1  0  0  0  0  0  0
  185.6020  178.6850  142.2630 C   0  0  1  0  0  3  0  0  0  0  0  0
  184.0870  178.4670  142.1620 C   0  0  1  0  0  3  0  0  0  0  0  0
  183.3340  178.6680  143.4730 C   0  0  0  0  0  1  0  0  0  0  0  0
  183.4370  179.2140  140.9950 C   0  0  0  0  0  2  0  0  0  0  0  0
  182.5320  178.3360  140.1360 C   0  0  2  0  0  3  0  0  0  0  0  0
  183.5920  176.5160  137.9740 C   0  0  2  0  0  3  0  0  0  0  0  0
  182.6950  176.0180  139.1160 C   0  0  0  0  0  2  0  0  0  0  0  0
  183.7590  178.0450  137.9350 C   0  0  0  0  0  2  0  0  0  0  0  0
  182.9000  176.8630  140.3700 C   0  0  0  0  0  2  0  0  0  0  0  0
  182.6190  178.7580  138.6600 C   0  0  0  0  0  2  0  0  0  0  0  0
  183.2870  174.6270  136.3110 N   0  0  0  0  0  2  0  0  0  0  0  0
  182.5180  176.7900  135.8690 O   0  0  0  0  0  0  0  0  0  0  0  0
  183.1030  176.0020  136.6600 C   0  0  0  0  0  0  0  0  0  0  0  0
  182.8360  174.0890  135.0390 C   0  0  0  0  0  1  0  0  0  0  0  0
  189.5020  177.9890  143.0700 N   0  0  0  0  0  2  0  0  0  0  0  0
  188.8230  177.1120  139.7180 C   0  0  0  0  0  3  0  0  0  0  0  0
  190.1930  177.6150  141.8770 C   0  0  0  0  0  0  0  0  0  0  0  0
  189.5100  177.3620  140.7970 C   0  0  0  0  0  0  0  0  0  0  0  0
  191.6800  177.4920  141.8460 C   0  0  0  0  0  1  0  0  0  0  0  0
  189.3870  177.3730  138.4360 N   0  0  0  0  0  2  0  0  0  0  0  0
  188.8530  176.7300  137.2430 C   0  0  2  0  0  3  0  0  0  0  0  0
  189.6920  177.1330  136.0400 C   0  0  0  0  0  1  0  0  0  0  0  0
  186.7800  176.3410  135.8870 C   0  0  0  0  0  1  0  0  0  0  0  0
  187.2750  178.6060  136.7080 C   0  0  0  0  0  1  0  0  0  0  0  0
  187.3910  177.1270  137.0340 C   0  0  0  0  0  3  0  0  0  0  0  0
  1  2  2  0  0  0  0
  2  5  1  0  0  0  0
  3 28  1  6  0  0  0
  3  8  1  0  0  0  0
  3  2  1  0  0  0  0
  4  7  1  0  0  0  0
  5  4  1  0  0  0  0
  6  8  2  0  0  0  0
  8  9  1  0  0  0  0
  9  5  2  0  0  0  0
  9 11  1  0  0  0  0
 10  7  1  0  0  0  0
 11 10  1  0  0  0  0
 12  6  1  0  0  0  0
 14 13  1  6  0  0  0
 14 12  1  0  0  0  0
 15 14  1  0  0  0  0
 15 16  1  1  0  0  0
 17 15  1  0  0  0  0
 18 22  1  0  0  0  0
 18 17  1  1  0  0  0
 19 26  1  6  0  0  0
 19 20  1  0  0  0  0
 20 22  1  0  0  0  0
 21 19  1  0  0  0  0
 21 23  1  0  0  0  0
 23 18  1  0  0  0  0
 24 26  1  0  0  0  0
 25 26  2  0  0  0  0
 27 24  1  0  0  0  0
 29 31  2  0  0  0  0
 30 28  1  0  0  0  0
 31 30  2  0  0  0  0
 32 30  1  0  0  0  0
 33 29  1  0  0  0  0
 34 35  1  6  0  0  0
 34 33  1  0  0  0  0
 36 38  1  0  0  0  0
 37 38  1  0  0  0  0
 38 34  1  0  0  0  0
M  END
>  <MODEL>
5

>  <REMARK>
 VINA RESULT:      -7.8      1.667      2.151
  Name = 
  11 active torsions:
  status: ('A' for Active; 'I' for Inactive)
    1  A    between atoms: C_1  and  C_34
    2  A    between atoms: C_3  and  C_34
    3  A    between atoms: C_3  and  C_37
    4  A    between atoms: C_4  and  N_32
    5  A    between atoms: C_7  and  N_32
    6  A    between atoms: C_7  and  C_38
    7  A    between atoms: C_9  and  N_29
    8  A    between atoms: C_12  and  C_14
    9  A    between atoms: C_13  and  N_29
   10  A    between atoms: C_19  and  C_25
   11  A    between atoms: C_25  and  C_37
                            x       y       z     vdW  Elec       q    Type
                         _______ _______ _______ _____ _____    ______ ____

>  <TORSDO>
F 11

$$$$
=
 OpenBabel10222421003D

 38 40  0  0  1  0  0  0  0  0999 V2000
  182.6580  179.4390  143.1490 O   0  0  0  0  0  0  0  0  0  0  0  0
  183.8490  179.0540  143.2760 C   0  0  0  0  0  0  0  0  0  0  0  0
  184.8450  178.9430  142.1600 C   0  0  1  0  0  3  0  0  0  0  0  0
  183.9060  178.7550  145.8410 N   0  0  0  0  0  2  0  0  0  0  0  0
  184.4710  178.6820  144.5310 C   0  0  0  0  0  0  0  0  0  0  0  0
  187.2910  178.3370  142.4290 C   0  0  0  0  0  3  0  0  0  0  0  0
  184.6330  178.2500  146.9410 N   0  0  0  0  0  2  0  0  0  0  0  0
  186.0710  178.5200  142.9330 C   0  0  0  0  0  0  0  0  0  0  0  0
  185.7390  178.3980  144.3510 C   0  0  0  0  0  0  0  0  0  0  0  0
  186.0440  178.6370  146.8030 C   0  0  0  0  0  2  0  0  0  0  0  0
  186.6430  178.0720  145.5010 C   0  0  0  0  0  2  0  0  0  0  0  0
  187.5860  178.5270  140.9790 C   0  0  0  0  0  2  0  0  0  0  0  0
  188.1520  177.2140  138.9350 C   0  0  0  0  0  1  0  0  0  0  0  0
  188.3450  177.3230  140.4370 C   0  0  1  0  0  3  0  0  0  0  0  0
  189.8400  177.3600  140.7750 C   0  0  1  0  0  3  0  0  0  0  0  0
  190.7590  177.3710  139.5580 C   0  0  0  0  0  1  0  0  0  0  0  0
  190.2110  178.4370  141.7970 C   0  0  0  0  0  2  0  0  0  0  0  0
  191.2480  177.9790  142.8170 C   0  0  2  0  0  3  0  0  0  0  0  0
  190.5000  176.7170  145.4550 C   0  0  2  0  0  3  0  0  0  0  0  0
  191.4520  176.0490  144.4520 C   0  0  0  0  0  2  0  0  0  0  0  0
  190.1010  178.1520  145.0730 C   0  0  0  0  0  2  0  0  0  0  0  0
  191.1080  176.4640  143.0240 C   0  0  0  0  0  2  0  0  0  0  0  0
  191.1110  178.7870  144.1190 C   0  0  0  0  0  2  0  0  0  0  0  0
  192.3170  176.0080  147.0740 N   0  0  0  0  0  2  0  0  0  0  0  0
  190.4570  177.2380  147.7760 O   0  0  0  0  0  0  0  0  0  0  0  0
  191.0740  176.6730  146.8320 C   0  0  0  0  0  0  0  0  0  0  0  0
  192.9050  175.9330  148.4010 C   0  0  0  0  0  1  0  0  0  0  0  0
  184.4480  177.8820  141.2440 N   0  0  0  0  0  2  0  0  0  0  0  0
  182.4750  176.2550  138.8080 C   0  0  0  0  0  3  0  0  0  0  0  0
  183.8600  178.1340  139.9660 C   0  0  0  0  0  0  0  0  0  0  0  0
  183.1680  177.1950  139.3850 C   0  0  0  0  0  0  0  0  0  0  0  0
  184.0350  179.4460  139.2760 C   0  0  0  0  0  1  0  0  0  0  0  0
  181.3910  176.5910  137.9470 N   0  0  0  0  0  2  0  0  0  0  0  0
  180.1340  177.0840  138.4910 C   0  0  2  0  0  3  0  0  0  0  0  0
  178.9910  176.2330  137.9590 C   0  0  0  0  0  1  0  0  0  0  0  0
  180.8490  178.9440  136.9690 C   0  0  0  0  0  1  0  0  0  0  0  0
  180.2330  179.4610  139.2930 C   0  0  0  0  0  1  0  0  0  0  0  0
  179.9300  178.5530  138.1130 C   0  0  0  0  0  3  0  0  0  0  0  0
  1  2  2  0  0  0  0
  2  5  1  0  0  0  0
  3 28  1  6  0  0  0
  3  8  1  0  0  0  0
  3  2  1  0  0  0  0
  4  7  1  0  0  0  0
  5  4  1  0  0  0  0
  6  8  2  0  0  0  0
  8  9  1  0  0  0  0
  9  5  2  0  0  0  0
  9 11  1  0  0  0  0
 10  7  1  0  0  0  0
 11 10  1  0  0  0  0
 12  6  1  0  0  0  0
 14 13  1  6  0  0  0
 14 15  1  0  0  0  0
 14 12  1  0  0  0  0
 15 16  1  6  0  0  0
 15 17  1  0  0  0  0
 18 17  1  6  0  0  0
 18 22  1  0  0  0  0
 18 23  1  0  0  0  0
 19 26  1  1  0  0  0
 20 19  1  0  0  0  0
 21 19  1  0  0  0  0
 22 20  1  0  0  0  0
 23 21  1  0  0  0  0
 24 27  1  0  0  0  0
 26 24  1  0  0  0  0
 26 25  2  0  0  0  0
 29 31  2  0  0  0  0
 30 28  1  0  0  0  0
 31 30  2  0  0  0  0
 32 30  1  0  0  0  0
 33 34  1  0  0  0  0
 33 29  1  0  0  0  0
 34 35  1  6  0  0  0
 36 38  1  0  0  0  0
 38 34  1  0  0  0  0
 38 37  1  0  0  0  0
M  END
>  <MODEL>
6

>  <REMARK>
 VINA RESULT:      -7.8      2.834      8.440
  Name = 
  11 active torsions:
  status: ('A' for Active; 'I' for Inactive)
    1  A    between atoms: C_1  and  C_34
    2  A    between atoms: C_3  and  C_34
    3  A    between atoms: C_3  and  C_37
    4  A    between atoms: C_4  and  N_32
    5  A    between atoms: C_7  and  N_32
    6  A    between atoms: C_7  and  C_38
    7  A    between atoms: C_9  and  N_29
    8  A    between atoms: C_12  and  C_14
    9  A    between atoms: C_13  and  N_29
   10  A    between atoms: C_19  and  C_25
   11  A    between atoms: C_25  and  C_37
                            x       y       z     vdW  Elec       q    Type
                         _______ _______ _______ _____ _____    ______ ____

>  <TORSDO>
F 11

$$$$
=
 OpenBabel10222421003D

 38 40  0  0  1  0  0  0  0  0999 V2000
  188.9810  176.1480  137.3860 O   0  0  0  0  0  0  0  0  0  0  0  0
  189.8660  176.4690  138.2200 C   0  0  0  0  0  0  0  0  0  0  0  0
  189.6030  176.9330  139.6220 C   0  0  1  0  0  3  0  0  0  0  0  0
  191.9640  175.9210  136.8160 N   0  0  0  0  0  0  0  0  0  0  0  0
  191.2940  176.4140  137.9780 C   0  0  0  0  0  0  0  0  0  0  0  0
  191.3780  177.4150  141.3660 C   0  0  0  0  0  2  0  0  0  0  0  0
  193.3670  176.0410  136.7200 N   0  0  0  0  0  2  0  0  0  0  0  0
  191.0180  177.0810  140.1270 C   0  0  0  0  0  0  0  0  0  0  0  0
  191.9580  176.7380  139.0620 C   0  0  0  0  0  0  0  0  0  0  0  0
  193.9680  175.7170  138.0210 C   0  0  0  0  0  2  0  0  0  0  0  0
  193.4540  176.6720  139.1150 C   0  0  0  0  0  2  0  0  0  0  0  0
  190.3750  177.7030  142.4320 C   0  0  0  0  0  2  0  0  0  0  0  0
  191.0050  179.4250  144.1230 C   0  0  0  0  0  1  0  0  0  0  0  0
  191.0790  177.9530  143.7590 C   0  0  1  0  0  3  0  0  0  0  0  0
  190.5170  177.0990  144.9020 C   0  0  1  0  0  3  0  0  0  0  0  0
  191.5790  176.3920  145.7380 C   0  0  0  0  0  1  0  0  0  0  0  0
  189.4860  177.8310  145.7640 C   0  0  0  0  0  2  0  0  0  0  0  0
  188.1010  177.1920  145.7330 C   0  0  2  0  0  3  0  0  0  0  0  0
  185.6560  178.6410  144.7160 C   0  0  2  0  0  3  0  0  0  0  0  0
  186.1030  177.2750  144.1720 C   0  0  0  0  0  2  0  0  0  0  0  0
  186.4630  179.1190  145.9340 C   0  0  0  0  0  2  0  0  0  0  0  0
  187.6170  177.1230  144.2770 C   0  0  0  0  0  2  0  0  0  0  0  0
  187.1390  177.9570  146.6590 C   0  0  0  0  0  2  0  0  0  0  0  0
  183.2390  178.6330  143.9510 N   0  0  0  0  0  2  0  0  0  0  0  0
  183.8110  178.6160  146.2180 O   0  0  0  0  0  0  0  0  0  0  0  0
  184.1940  178.6330  145.0160 C   0  0  0  0  0  0  0  0  0  0  0  0
  181.8070  178.6350  144.2000 C   0  0  0  0  0  1  0  0  0  0  0  0
  188.9480  178.2350  139.6000 N   0  0  0  0  0  2  0  0  0  0  0  0
  185.8000  178.0990  138.0080 C   0  0  0  0  0  3  0  0  0  0  0  0
  187.5630  178.4160  139.8990 C   0  0  0  0  0  0  0  0  0  0  0  0
  186.6800  178.2590  138.9550 C   0  0  0  0  0  0  0  0  0  0  0  0
  187.1070  178.7970  141.2690 C   0  0  0  0  0  1  0  0  0  0  0  0
  184.4910  177.6310  138.3200 N   0  0  0  0  0  2  0  0  0  0  0  0
  183.6600  178.3340  139.2870 C   0  0  2  0  0  3  0  0  0  0  0  0
  182.8960  177.3180  140.1230 C   0  0  0  0  0  1  0  0  0  0  0  0
  181.6100  179.7610  139.5200 C   0  0  0  0  0  1  0  0  0  0  0  0
  182.0120  178.5670  137.4080 C   0  0  0  0  0  1  0  0  0  0  0  0
  182.6900  179.2750  138.5690 C   0  0  0  0  0  3  0  0  0  0  0  0
  1  2  2  0  0  0  0
  2  3  1  0  0  0  0
  3 28  1  6  0  0  0
  3  8  1  0  0  0  0
  4  5  2  0  0  0  0
  5  2  1  0  0  0  0
  5  9  1  0  0  0  0
  6 12  1  0  0  0  0
  7  4  1  0  0  0  0
  7 10  1  0  0  0  0
  8  6  1  0  0  0  0
  9 11  1  0  0  0  0
  9  8  2  0  0  0  0
 10 11  1  0  0  0  0
 12 14  1  0  0  0  0
 14 13  1  1  0  0  0
 14 15  1  0  0  0  0
 15 16  1  1  0  0  0
 15 17  1  0  0  0  0
 18 17  1  6  0  0  0
 18 23  1  0  0  0  0
 19 26  1  1  0  0  0
 19 21  1  0  0  0  0
 20 22  1  0  0  0  0
 20 19  1  0  0  0  0
 21 23  1  0  0  0  0
 22 18  1  0  0  0  0
 24 27  1  0  0  0  0
 24 26  1  0  0  0  0
 26 25  2  0  0  0  0
 28 30  1  0  0  0  0
 29 33  1  0  0  0  0
 29 31  2  0  0  0  0
 30 32  1  0  0  0  0
 31 30  2  0  0  0  0
 33 34  1  0  0  0  0
 34 35  1  6  0  0  0
 37 38  1  0  0  0  0
 38 34  1  0  0  0  0
 38 36  1  0  0  0  0
M  END
>  <MODEL>
7

>  <REMARK>
 VINA RESULT:      -7.8      2.748      7.047
  Name = 
  11 active torsions:
  status: ('A' for Active; 'I' for Inactive)
    1  A    between atoms: C_1  and  C_34
    2  A    between atoms: C_3  and  C_34
    3  A    between atoms: C_3  and  C_37
    4  A    between atoms: C_4  and  N_32
    5  A    between atoms: C_7  and  N_32
    6  A    between atoms: C_7  and  C_38
    7  A    between atoms: C_9  and  N_29
    8  A    between atoms: C_12  and  C_14
    9  A    between atoms: C_13  and  N_29
   10  A    between atoms: C_19  and  C_25
   11  A    between atoms: C_25  and  C_37
                            x       y       z     vdW  Elec       q    Type
                         _______ _______ _______ _____ _____    ______ ____

>  <TORSDO>
F 11

$$$$
=
 OpenBabel10222421003D

 38 40  0  0  1  0  0  0  0  0999 V2000
  192.1220  177.7220  140.9690 O   0  0  0  0  0  0  0  0  0  0  0  0
  191.5790  177.4070  139.8790 C   0  0  0  0  0  0  0  0  0  0  0  0
  190.1610  177.7190  139.5000 C   0  0  1  0  0  3  0  0  0  0  0  0
  193.6170  176.3430  138.7030 N   0  0  0  0  0  2  0  0  0  0  0  0
  192.2410  176.7170  138.7910 C   0  0  0  0  0  0  0  0  0  0  0  0
  189.1080  177.2460  137.2440 C   0  0  0  0  0  3  0  0  0  0  0  0
  194.0610  175.5820  137.6000 N   0  0  0  0  0  2  0  0  0  0  0  0
  190.1330  177.1730  138.0920 C   0  0  0  0  0  0  0  0  0  0  0  0
  191.4350  176.5980  137.7630 C   0  0  0  0  0  0  0  0  0  0  0  0
  193.4330  176.0980  136.3760 C   0  0  0  0  0  2  0  0  0  0  0  0
  191.8980  176.0050  136.4660 C   0  0  0  0  0  2  0  0  0  0  0  0
  187.8160  177.8930  137.6150 C   0  0  0  0  0  2  0  0  0  0  0  0
  187.3480  176.8370  135.4030 C   0  0  0  0  0  1  0  0  0  0  0  0
  186.8360  177.8080  136.4520 C   0  0  1  0  0  3  0  0  0  0  0  0
  185.4220  177.4090  136.8930 C   0  0  1  0  0  3  0  0  0  0  0  0
  185.1580  175.9070  136.8720 C   0  0  0  0  0  1  0  0  0  0  0  0
  184.9840  178.0610  138.2070 C   0  0  0  0  0  2  0  0  0  0  0  0
  183.4870  177.9450  138.4770 C   0  0  2  0  0  3  0  0  0  0  0  0
  182.2020  178.9440  141.0190 C   0  0  2  0  0  3  0  0  0  0  0  0
  181.7360  179.3810  139.6220 C   0  0  0  0  0  2  0  0  0  0  0  0
  183.2610  177.8290  141.0010 C   0  0  0  0  0  2  0  0  0  0  0  0
  182.8990  179.3550  138.6330 C   0  0  0  0  0  2  0  0  0  0  0  0
  183.2310  177.0390  139.6930 C   0  0  0  0  0  2  0  0  0  0  0  0
  180.9570  178.9790  143.2270 N   0  0  0  0  0  2  0  0  0  0  0  0
  180.1130  177.8580  141.3570 O   0  0  0  0  0  0  0  0  0  0  0  0
  181.0340  178.5550  141.8630 C   0  0  0  0  0  0  0  0  0  0  0  0
  179.8430  178.6130  144.0850 C   0  0  0  0  0  1  0  0  0  0  0  0
  189.2430  176.9620  140.3410 N   0  0  0  0  0  2  0  0  0  0  0  0
  188.9100  176.8700  143.8550 C   0  0  0  0  0  3  0  0  0  0  0  0
  188.4680  177.5590  141.3820 C   0  0  0  0  0  0  0  0  0  0  0  0
  188.6860  177.2150  142.6190 C   0  0  0  0  0  0  0  0  0  0  0  0
  187.4010  178.5590  141.0800 C   0  0  0  0  0  1  0  0  0  0  0  0
  188.6940  177.8040  144.9090 N   0  0  0  0  0  2  0  0  0  0  0  0
  188.1440  177.3720  146.1860 C   0  0  2  0  0  3  0  0  0  0  0  0
  186.7260  177.9060  146.3260 C   0  0  0  0  0  1  0  0  0  0  0  0
  190.2490  176.9930  147.4940 C   0  0  0  0  0  1  0  0  0  0  0  0
  188.2520  177.8450  148.6490 C   0  0  0  0  0  1  0  0  0  0  0  0
  189.0200  177.8700  147.3380 C   0  0  0  0  0  3  0  0  0  0  0  0
  2  1  2  0  0  0  0
  3  2  1  0  0  0  0
  3 28  1  1  0  0  0
  4  5  1  0  0  0  0
  5  2  1  0  0  0  0
  6 12  1  0  0  0  0
  6  8  2  0  0  0  0
  7  4  1  0  0  0  0
  8  3  1  0  0  0  0
  9  8  1  0  0  0  0
  9  5  2  0  0  0  0
 10 11  1  0  0  0  0
 10  7  1  0  0  0  0
 11  9  1  0  0  0  0
 14 13  1  6  0  0  0
 14 15  1  0  0  0  0
 14 12  1  0  0  0  0
 15 16  1  1  0  0  0
 15 17  1  0  0  0  0
 18 17  1  1  0  0  0
 18 22  1  0  0  0  0
 18 23  1  0  0  0  0
 19 26  1  1  0  0  0
 20 19  1  0  0  0  0
 21 19  1  0  0  0  0
 22 20  1  0  0  0  0
 23 21  1  0  0  0  0
 24 27  1  0  0  0  0
 25 26  2  0  0  0  0
 26 24  1  0  0  0  0
 28 30  1  0  0  0  0
 29 33  1  0  0  0  0
 30 31  2  0  0  0  0
 31 29  2  0  0  0  0
 32 30  1  0  0  0  0
 33 34  1  0  0  0  0
 34 35  1  1  0  0  0
 34 38  1  0  0  0  0
 38 36  1  0  0  0  0
 38 37  1  0  0  0  0
M  END
>  <MODEL>
8

>  <REMARK>
 VINA RESULT:      -7.6      2.545      7.186
  Name = 
  11 active torsions:
  status: ('A' for Active; 'I' for Inactive)
    1  A    between atoms: C_1  and  C_34
    2  A    between atoms: C_3  and  C_34
    3  A    between atoms: C_3  and  C_37
    4  A    between atoms: C_4  and  N_32
    5  A    between atoms: C_7  and  N_32
    6  A    between atoms: C_7  and  C_38
    7  A    between atoms: C_9  and  N_29
    8  A    between atoms: C_12  and  C_14
    9  A    between atoms: C_13  and  N_29
   10  A    between atoms: C_19  and  C_25
   11  A    between atoms: C_25  and  C_37
                            x       y       z     vdW  Elec       q    Type
                         _______ _______ _______ _____ _____    ______ ____

>  <TORSDO>
F 11

$$$$
=
 OpenBabel10222421003D

 38 40  0  0  1  0  0  0  0  0999 V2000
  182.3330  179.5180  143.5890 O   0  0  0  0  0  0  0  0  0  0  0  0
  183.5120  179.0810  143.5560 C   0  0  0  0  0  0  0  0  0  0  0  0
  184.3260  178.8850  142.3120 C   0  0  1  0  0  3  0  0  0  0  0  0
  183.9350  178.8670  146.0950 N   0  0  0  0  0  2  0  0  0  0  0  0
  184.2960  178.7220  144.7210 C   0  0  0  0  0  0  0  0  0  0  0  0
  186.7570  178.1710  142.2450 C   0  0  0  0  0  3  0  0  0  0  0  0
  184.7940  178.3660  147.0970 N   0  0  0  0  0  2  0  0  0  0  0  0
  185.6340  178.4300  142.9140 C   0  0  0  0  0  0  0  0  0  0  0  0
  185.5110  178.3720  144.3690 C   0  0  0  0  0  0  0  0  0  0  0  0
  186.1850  178.6800  146.7380 C   0  0  0  0  0  2  0  0  0  0  0  0
  186.5600  178.0420  145.3870 C   0  0  0  0  0  2  0  0  0  0  0  0
  186.8430  178.2980  140.7610 C   0  0  0  0  0  2  0  0  0  0  0  0
  188.9050  179.5630  141.3730 C   0  0  0  0  0  1  0  0  0  0  0  0
  188.2680  178.6430  140.3470 C   0  0  1  0  0  3  0  0  0  0  0  0
  189.1440  177.4010  140.1370 C   0  0  1  0  0  3  0  0  0  0  0  0
  189.1480  176.8700  138.7080 C   0  0  0  0  0  1  0  0  0  0  0  0
  190.5550  177.5440  140.7120 C   0  0  0  0  0  2  0  0  0  0  0  0
  190.8150  176.6500  141.9210 C   0  0  2  0  0  3  0  0  0  0  0  0
  189.9440  177.3860  144.7160 C   0  0  2  0  0  3  0  0  0  0  0  0
  189.5530  176.0620  144.0430 C   0  0  0  0  0  2  0  0  0  0  0  0
  190.9520  178.2210  143.9080 C   0  0  0  0  0  2  0  0  0  0  0  0
  189.4680  176.2310  142.5290 C   0  0  0  0  0  2  0  0  0  0  0  0
  191.7400  177.3600  142.9220 C   0  0  0  0  0  2  0  0  0  0  0  0
  191.6080  176.3420  146.3170 N   0  0  0  0  0  2  0  0  0  0  0  0
  189.8340  177.6610  147.0760 O   0  0  0  0  0  0  0  0  0  0  0  0
  190.4440  177.1430  146.1010 C   0  0  0  0  0  0  0  0  0  0  0  0
  192.1220  176.0720  147.6490 C   0  0  0  0  0  1  0  0  0  0  0  0
  183.7540  177.8130  141.5070 N   0  0  0  0  0  2  0  0  0  0  0  0
  184.2310  177.8410  138.0090 C   0  0  0  0  0  3  0  0  0  0  0  0
  183.0180  178.0480  140.3050 C   0  0  0  0  0  0  0  0  0  0  0  0
  183.6230  177.9460  139.1560 C   0  0  0  0  0  0  0  0  0  0  0  0
  181.5740  178.4240  140.3390 C   0  0  0  0  0  1  0  0  0  0  0  0
  183.5100  177.4240  136.8530 N   0  0  0  0  0  2  0  0  0  0  0  0
  183.0970  176.0370  136.6920 C   0  0  2  0  0  3  0  0  0  0  0  0
  183.6140  175.5120  135.3610 C   0  0  0  0  0  1  0  0  0  0  0  0
  180.9260  177.2850  136.5700 C   0  0  0  0  0  1  0  0  0  0  0  0
  181.1300  175.3730  138.1030 C   0  0  0  0  0  1  0  0  0  0  0  0
  181.5730  175.9240  136.7580 C   0  0  0  0  0  3  0  0  0  0  0  0
  2  1  2  0  0  0  0
  2  5  1  0  0  0  0
  3 28  1  6  0  0  0
  3  8  1  0  0  0  0
  3  2  1  0  0  0  0
  4  7  1  0  0  0  0
  5  4  1  0  0  0  0
  6  8  2  0  0  0  0
  8  9  1  0  0  0  0
  9  5  2  0  0  0  0
  9 11  1  0  0  0  0
 10  7  1  0  0  0  0
 11 10  1  0  0  0  0
 12  6  1  0  0  0  0
 14 12  1  0  0  0  0
 14 13  1  1  0  0  0
 15 16  1  6  0  0  0
 15 14  1  0  0  0  0
 15 17  1  0  0  0  0
 18 17  1  6  0  0  0
 18 22  1  0  0  0  0
 18 23  1  0  0  0  0
 19 26  1  1  0  0  0
 20 19  1  0  0  0  0
 21 19  1  0  0  0  0
 22 20  1  0  0  0  0
 23 21  1  0  0  0  0
 24 27  1  0  0  0  0
 26 24  1  0  0  0  0
 26 25  2  0  0  0  0
 29 31  2  0  0  0  0
 30 32  1  0  0  0  0
 30 28  1  0  0  0  0
 31 30  2  0  0  0  0
 33 29  1  0  0  0  0
 34 35  1  6  0  0  0
 34 38  1  0  0  0  0
 34 33  1  0  0  0  0
 36 38  1  0  0  0  0
 38 37  1  0  0  0  0
M  END
>  <MODEL>
9

>  <REMARK>
 VINA RESULT:      -7.6      2.730      7.782
  Name = 
  11 active torsions:
  status: ('A' for Active; 'I' for Inactive)
    1  A    between atoms: C_1  and  C_34
    2  A    between atoms: C_3  and  C_34
    3  A    between atoms: C_3  and  C_37
    4  A    between atoms: C_4  and  N_32
    5  A    between atoms: C_7  and  N_32
    6  A    between atoms: C_7  and  C_38
    7  A    between atoms: C_9  and  N_29
    8  A    between atoms: C_12  and  C_14
    9  A    between atoms: C_13  and  N_29
   10  A    between atoms: C_19  and  C_25
   11  A    between atoms: C_25  and  C_37
                            x       y       z     vdW  Elec       q    Type
                         _______ _______ _______ _____ _____    ______ ____

>  <TORSDO>
F 11

$$$$
