=
 OpenBabel10222420523D

 48 54  0  0  1  0  0  0  0  0999 V2000
  183.9450  178.0390  138.9110 C   0  0  2  0  0  0  0  0  0  0  0  0
  186.6770  175.2970  136.4270 C   0  0  2  0  0  3  0  0  0  0  0  0
  185.2630  178.0110  138.2110 N   0  0  0  0  0  0  0  0  0  0  0  0
  185.8970  177.6570  136.9850 C   0  0  0  0  0  0  0  0  0  0  0  0
  186.4380  174.2070  135.4810 N   0  0  0  0  0  2  0  0  0  0  0  0
  186.6380  178.8320  136.1190 S   0  0  0  0  0  0  0  0  0  0  0  0
  185.5420  176.3400  136.3250 C   0  0  2  0  0  3  0  0  0  0  0  0
  183.2250  176.7210  137.0060 O   0  0  0  0  0  0  0  0  0  0  0  0
  184.2460  175.7610  136.9530 C   0  0  1  0  0  3  0  0  0  0  0  0
  181.6980  177.4980  138.5370 O   0  0  0  0  0  0  0  0  0  0  0  0
  185.0410  177.6570  139.6520 C   0  0  1  0  0  3  0  0  0  0  0  0
  185.8770  173.0230  136.1380 C   0  0  1  0  0  3  0  0  0  0  0  0
  183.7250  174.4650  136.3310 C   0  0  2  0  0  3  0  0  0  0  0  0
  182.9980  176.9610  138.3750 C   0  0  2  0  0  3  0  0  0  0  0  0
  183.6730  172.0100  136.7620 C   0  0  0  0  0  1  0  0  0  0  0  0
  180.4920  179.4350  139.0200 N   0  0  0  0  0  0  0  0  0  0  0  0
  186.8820  172.3890  137.0860 C   0  0  0  0  0  1  0  0  0  0  0  0
  184.5270  173.2660  136.8360 C   0  0  1  0  0  3  0  0  0  0  0  0
  181.6360  178.8550  138.8310 C   0  0  0  0  0  0  0  0  0  0  0  0
  183.2110  179.7070  138.9610 S   0  0  0  0  0  0  0  0  0  0  0  0
  183.6800  174.5320  134.9350 O   0  0  0  0  0  1  0  0  0  0  0  0
  185.6310  178.7480  140.5340 C   0  0  0  0  0  2  0  0  0  0  0  0
  184.8670  178.8760  141.6940 O   0  0  0  0  0  1  0  0  0  0  0  0
  179.4610  180.9740  140.5900 C   0  0  0  0  0  1  0  0  0  0  0  0
  180.3440  180.8470  139.3560 C   0  0  2  0  0  3  0  0  0  0  0  0
  179.8500  183.8620  136.2690 C   0  0  0  0  0  2  0  0  0  0  0  0
  178.9340  185.3800  138.1450 C   0  0  0  0  0  1  0  0  0  0  0  0
  180.0060  182.4030  135.8440 C   0  0  2  0  0  3  0  0  0  0  0  0
  179.3400  183.0130  138.5590 C   0  0  0  0  0  3  0  0  0  0  0  0
  180.6620  181.6050  136.9660 C   0  0  0  0  0  2  0  0  0  0  0  0
  180.8580  182.3280  134.5950 C   0  0  0  0  0  1  0  0  0  0  0  0
  179.7270  181.6010  138.1760 C   0  0  1  0  0  3  0  0  0  0  0  0
  179.3040  184.0200  137.6690 C   0  0  0  0  0  0  0  0  0  0  0  0
  188.0920  175.8650  136.2200 C   0  0  0  0  0  2  0  0  0  0  0  0
  188.9650  175.7890  137.4720 C   0  0  0  0  0  2  0  0  0  0  0  0
  189.8080  177.0510  137.6170 C   0  0  0  0  0  2  0  0  0  0  0  0
  189.1090  178.9980  138.7730 O   0  0  0  0  0  0  0  0  0  0  0  0
  189.4510  177.8260  138.8450 C   0  0  0  0  0  0  0  0  0  0  0  0
  189.4480  177.1280  140.1640 C   0  0  0  0  0  2  0  0  0  0  0  0
  190.0950  177.0880  143.4570 N   0  0  0  0  0  0  0  0  0  0  0  0
  190.7860  176.9930  144.7400 C   0  0  0  0  0  1  0  0  0  0  0  0
  187.6680  176.5440  143.6170 C   0  0  0  0  0  2  0  0  0  0  0  0
  188.7370  177.5520  143.2730 C   0  0  0  0  0  0  0  0  0  0  0  0
  187.8390  177.8100  144.4620 C   0  0  0  0  0  2  0  0  0  0  0  0
  190.7060  177.4940  142.2580 C   0  0  0  0  0  0  0  0  0  0  0  0
  189.7200  178.0860  141.3180 C   0  0  2  0  0  3  0  0  0  0  0  0
  188.5210  178.2490  142.0630 O   0  0  0  0  0  0  0  0  0  0  0  0
  191.9440  177.3980  142.0360 O   0  0  0  0  0  0  0  0  0  0  0  0
  1 20  1  1  0  0  0
  1 11  1  0  0  0  0
  2 34  1  6  0  0  0
  3  1  1  0  0  0  0
  3 11  1  0  0  0  0
  4  3  1  0  0  0  0
  5 12  1  0  0  0  0
  5  2  1  0  0  0  0
  6  4  2  0  0  0  0
  7  2  1  0  0  0  0
  7  9  1  0  0  0  0
  7  4  1  1  0  0  0
  9  8  1  6  0  0  0
 10 19  1  0  0  0  0
 11 22  1  1  0  0  0
 12 18  1  0  0  0  0
 12 17  1  1  0  0  0
 13 21  1  6  0  0  0
 13 18  1  0  0  0  0
 13  9  1  0  0  0  0
 14  8  1  6  0  0  0
 14 10  1  0  0  0  0
 14  1  1  0  0  0  0
 16 25  1  0  0  0  0
 18 15  1  6  0  0  0
 19 20  1  0  0  0  0
 19 16  2  0  0  0  0
 22 23  1  0  0  0  0
 25 24  1  1  0  0  0
 26 33  1  0  0  0  0
 28 31  1  6  0  0  0
 28 26  1  0  0  0  0
 28 30  1  0  0  0  0
 30 32  1  0  0  0  0
 32 29  1  0  0  0  0
 32 25  1  1  0  0  0
 33 27  1  0  0  0  0
 33 29  2  0  0  0  0
 34 35  1  0  0  0  0
 35 36  1  0  0  0  0
 36 38  1  0  0  0  0
 37 38  2  0  0  0  0
 38 39  1  0  0  0  0
 40 41  1  0  0  0  0
 42 44  1  0  0  0  0
 43 40  1  0  0  0  0
 43 42  1  0  0  0  0
 43 44  1  0  0  0  0
 45 40  1  0  0  0  0
 46 39  1  6  0  0  0
 46 47  1  0  0  0  0
 46 45  1  0  0  0  0
 47 43  1  0  0  0  0
 48 45  2  0  0  0  0
M  END
>  <MODEL>
1

>  <REMARK>
 VINA RESULT:      -7.1      0.000      0.000
  Name = 
  9 active torsions:
  status: ('A' for Active; 'I' for Inactive)
    1  A    between atoms: C_2  and  C_8
    2  A    between atoms: C_2  and  C_10
    3  A    between atoms: C_3  and  C_10
    4  A    between atoms: C_3  and  C_32
    5  A    between atoms: C_4  and  C_24
    6  A    between atoms: C_14  and  C_32
    7  A    between atoms: C_14  and  C_34
    8  A    between atoms: C_27  and  N_40
    9  A    between atoms: C_27  and  C_47
                            x       y       z     vdW  Elec       q    Type
                         _______ _______ _______ _____ _____    ______ ____

>  <TORSDO>
F 9

$$$$
=
 OpenBabel10222420523D

 48 54  0  0  1  0  0  0  0  0999 V2000
  188.8750  175.6230  137.6010 C   0  0  2  0  0  0  0  0  0  0  0  0
  185.8550  178.5390  139.4780 C   0  0  2  0  0  3  0  0  0  0  0  0
  187.7620  176.5540  137.2500 N   0  0  0  0  0  0  0  0  0  0  0  0
  187.2660  177.8720  137.4650 C   0  0  0  0  0  0  0  0  0  0  0  0
  185.8760  179.4130  140.6510 N   0  0  0  0  0  2  0  0  0  0  0  0
  187.1160  178.8720  136.1780 S   0  0  0  0  0  0  0  0  0  0  0  0
  187.2710  178.4410  138.8700 C   0  0  2  0  0  3  0  0  0  0  0  0
  189.4310  177.3480  139.2130 O   0  0  0  0  0  0  0  0  0  0  0  0
  188.1750  177.5780  139.7920 C   0  0  1  0  0  3  0  0  0  0  0  0
  190.8440  175.5700  138.8660 O   0  0  0  0  0  0  0  0  0  0  0  0
  187.6050  175.0930  137.5520 C   0  0  1  0  0  3  0  0  0  0  0  0
  185.8920  178.6510  141.9030 C   0  0  1  0  0  3  0  0  0  0  0  0
  188.3340  178.0790  141.2270 C   0  0  2  0  0  3  0  0  0  0  0  0
  189.4880  175.9630  138.9630 C   0  0  2  0  0  3  0  0  0  0  0  0
  187.4940  177.6200  143.5290 C   0  0  0  0  0  1  0  0  0  0  0  0
  192.5240  174.8930  137.3960 N   0  0  0  0  0  0  0  0  0  0  0  0
  184.5870  177.8980  142.1070 C   0  0  0  0  0  1  0  0  0  0  0  0
  187.1060  177.7180  142.0620 C   0  0  1  0  0  3  0  0  0  0  0  0
  191.3020  175.2840  137.5850 C   0  0  0  0  0  0  0  0  0  0  0  0
  190.1020  175.4560  136.2620 S   0  0  0  0  0  0  0  0  0  0  0  0
  188.6360  179.4440  141.2780 O   0  0  0  0  0  1  0  0  0  0  0  0
  187.2690  174.3470  136.2700 C   0  0  0  0  0  2  0  0  0  0  0  0
  187.5460  172.9890  136.4320 O   0  0  0  0  0  1  0  0  0  0  0  0
  192.6660  173.1260  135.7370 C   0  0  0  0  0  1  0  0  0  0  0  0
  193.0730  174.5510  136.0880 C   0  0  2  0  0  3  0  0  0  0  0  0
  197.2260  173.5690  136.8960 C   0  0  0  0  0  2  0  0  0  0  0  0
  196.7810  174.4320  139.2870 C   0  0  0  0  0  1  0  0  0  0  0  0
  196.7810  173.7150  135.4410 C   0  0  2  0  0  3  0  0  0  0  0  0
  195.1260  174.7580  137.5280 C   0  0  0  0  0  3  0  0  0  0  0  0
  195.2690  173.5450  135.3430 C   0  0  0  0  0  2  0  0  0  0  0  0
  197.4710  172.6670  134.5940 C   0  0  0  0  0  1  0  0  0  0  0  0
  194.5970  174.6830  136.1130 C   0  0  1  0  0  3  0  0  0  0  0  0
  196.3580  174.3390  137.8640 C   0  0  0  0  0  0  0  0  0  0  0  0
  184.7650  179.0100  138.4980 C   0  0  0  0  0  2  0  0  0  0  0  0
  183.3520  178.9050  139.0680 C   0  0  0  0  0  2  0  0  0  0  0  0
  182.5290  180.1330  138.6950 C   0  0  0  0  0  2  0  0  0  0  0  0
  180.3930  181.0360  139.1840 O   0  0  0  0  0  0  0  0  0  0  0  0
  181.2400  180.1950  139.4510 C   0  0  0  0  0  0  0  0  0  0  0  0
  180.9650  179.1650  140.4950 C   0  0  0  0  0  2  0  0  0  0  0  0
  179.9440  175.9700  140.3840 N   0  0  0  0  0  0  0  0  0  0  0  0
  179.4480  174.6520  140.7700 C   0  0  0  0  0  1  0  0  0  0  0  0
  181.3190  175.9210  138.3060 C   0  0  0  0  0  2  0  0  0  0  0  0
  180.0960  176.4380  139.0240 C   0  0  0  0  0  0  0  0  0  0  0  0
  179.9190  175.4950  137.8560 C   0  0  0  0  0  2  0  0  0  0  0  0
  179.6420  177.1600  141.0700 C   0  0  0  0  0  0  0  0  0  0  0  0
  179.7240  178.3400  140.1710 C   0  0  2  0  0  3  0  0  0  0  0  0
  179.8560  177.8210  138.8560 O   0  0  0  0  0  0  0  0  0  0  0  0
  179.3070  177.2020  142.2850 O   0  0  0  0  0  0  0  0  0  0  0  0
  1 20  1  6  0  0  0
  1 14  1  0  0  0  0
  2 34  1  6  0  0  0
  2  5  1  0  0  0  0
  3  4  1  0  0  0  0
  3 11  1  0  0  0  0
  3  1  1  0  0  0  0
  5 12  1  0  0  0  0
  6  4  2  0  0  0  0
  7  4  1  6  0  0  0
  7  2  1  0  0  0  0
  7  9  1  0  0  0  0
  9  8  1  6  0  0  0
  9 13  1  0  0  0  0
 11 22  1  6  0  0  0
 11  1  1  0  0  0  0
 12 18  1  0  0  0  0
 12 17  1  6  0  0  0
 13 21  1  6  0  0  0
 13 18  1  0  0  0  0
 14 10  1  6  0  0  0
 14  8  1  0  0  0  0
 16 19  2  0  0  0  0
 18 15  1  1  0  0  0
 19 10  1  0  0  0  0
 20 19  1  0  0  0  0
 22 23  1  0  0  0  0
 25 24  1  1  0  0  0
 25 16  1  0  0  0  0
 26 33  1  0  0  0  0
 28 31  1  6  0  0  0
 28 26  1  0  0  0  0
 29 33  2  0  0  0  0
 30 28  1  0  0  0  0
 30 32  1  0  0  0  0
 32 25  1  1  0  0  0
 32 29  1  0  0  0  0
 33 27  1  0  0  0  0
 34 35  1  0  0  0  0
 36 35  1  0  0  0  0
 36 38  1  0  0  0  0
 37 38  2  0  0  0  0
 38 39  1  0  0  0  0
 40 41  1  0  0  0  0
 40 45  1  0  0  0  0
 42 43  1  0  0  0  0
 43 40  1  0  0  0  0
 44 42  1  0  0  0  0
 44 43  1  0  0  0  0
 45 48  2  0  0  0  0
 46 39  1  1  0  0  0
 46 45  1  0  0  0  0
 47 43  1  0  0  0  0
 47 46  1  0  0  0  0
M  END
>  <MODEL>
2

>  <REMARK>
 VINA RESULT:      -5.7      3.988     11.090
  Name = 
  9 active torsions:
  status: ('A' for Active; 'I' for Inactive)
    1  A    between atoms: C_2  and  C_8
    2  A    between atoms: C_2  and  C_10
    3  A    between atoms: C_3  and  C_10
    4  A    between atoms: C_3  and  C_32
    5  A    between atoms: C_4  and  C_24
    6  A    between atoms: C_14  and  C_32
    7  A    between atoms: C_14  and  C_34
    8  A    between atoms: C_27  and  N_40
    9  A    between atoms: C_27  and  C_47
                            x       y       z     vdW  Elec       q    Type
                         _______ _______ _______ _____ _____    ______ ____

>  <TORSDO>
F 9

$$$$
=
 OpenBabel10222420523D

 48 54  0  0  1  0  0  0  0  0999 V2000
  189.2910  175.5490  137.4430 C   0  0  2  0  0  0  0  0  0  0  0  0
  186.8980  178.2690  140.2750 C   0  0  2  0  0  3  0  0  0  0  0  0
  188.2080  176.5750  137.4540 N   0  0  0  0  0  0  0  0  0  0  0  0
  187.8630  177.8650  137.9520 C   0  0  0  0  0  0  0  0  0  0  0  0
  187.2010  178.9420  141.5390 N   0  0  0  0  0  2  0  0  0  0  0  0
  187.5590  179.0630  136.8810 S   0  0  0  0  0  0  0  0  0  0  0  0
  188.1680  178.2010  139.3990 C   0  0  2  0  0  3  0  0  0  0  0  0
  190.2630  176.9650  139.1550 O   0  0  0  0  0  0  0  0  0  0  0  0
  189.1550  177.1590  139.9920 C   0  0  1  0  0  3  0  0  0  0  0  0
  191.4480  175.1990  138.2840 O   0  0  0  0  0  0  0  0  0  0  0  0
  187.9960  175.0940  137.5620 C   0  0  1  0  0  3  0  0  0  0  0  0
  187.3850  177.9910  142.6370 C   0  0  1  0  0  3  0  0  0  0  0  0
  189.6110  177.4170  141.4270 C   0  0  2  0  0  3  0  0  0  0  0  0
  190.1670  175.6360  138.6970 C   0  0  2  0  0  3  0  0  0  0  0  0
  189.1730  176.6370  143.7550 C   0  0  0  0  0  1  0  0  0  0  0  0
  192.7740  174.6860  136.4350 N   0  0  0  0  0  0  0  0  0  0  0  0
  186.0850  177.2790  142.9750 C   0  0  0  0  0  1  0  0  0  0  0  0
  188.5320  176.9870  142.4210 C   0  0  1  0  0  3  0  0  0  0  0  0
  191.6410  175.1000  136.9120 C   0  0  0  0  0  0  0  0  0  0  0  0
  190.2360  175.5380  135.8830 S   0  0  0  0  0  0  0  0  0  0  0  0
  190.0220  178.7400  141.6210 O   0  0  0  0  0  1  0  0  0  0  0  0
  187.3750  174.5790  136.2720 C   0  0  0  0  0  2  0  0  0  0  0  0
  187.4000  173.1850  136.2650 O   0  0  0  0  0  1  0  0  0  0  0  0
  192.7120  173.1050  134.5940 C   0  0  0  0  0  1  0  0  0  0  0  0
  193.0470  174.5310  135.0100 C   0  0  2  0  0  3  0  0  0  0  0  0
  197.0450  176.1340  135.5670 C   0  0  0  0  0  2  0  0  0  0  0  0
  196.0690  178.3770  134.7460 C   0  0  0  0  0  1  0  0  0  0  0  0
  196.8740  174.6190  135.4710 C   0  0  2  0  0  3  0  0  0  0  0  0
  194.7570  176.3300  134.5940 C   0  0  0  0  0  3  0  0  0  0  0  0
  195.4330  174.2380  135.7930 C   0  0  0  0  0  2  0  0  0  0  0  0
  197.8130  173.9410  136.4470 C   0  0  0  0  0  1  0  0  0  0  0  0
  194.5180  174.8410  134.7260 C   0  0  1  0  0  3  0  0  0  0  0  0
  195.9370  176.9020  134.8860 C   0  0  0  0  0  0  0  0  0  0  0  0
  185.6880  178.9420  139.6040 C   0  0  0  0  0  2  0  0  0  0  0  0
  184.3540  178.5730  140.2500 C   0  0  0  0  0  2  0  0  0  0  0  0
  183.2300  179.4430  139.6970 C   0  0  0  0  0  2  0  0  0  0  0  0
  180.9160  179.5850  140.1850 O   0  0  0  0  0  0  0  0  0  0  0  0
  181.8810  178.8630  139.9810 C   0  0  0  0  0  0  0  0  0  0  0  0
  181.7100  177.3810  139.9410 C   0  0  0  0  0  2  0  0  0  0  0  0
  182.3670  175.0130  137.6560 N   0  0  0  0  0  0  0  0  0  0  0  0
  182.4010  173.7430  136.9360 C   0  0  0  0  0  1  0  0  0  0  0  0
  184.3380  176.4590  137.1700 C   0  0  0  0  0  2  0  0  0  0  0  0
  182.8410  176.2780  137.1380 C   0  0  0  0  0  0  0  0  0  0  0  0
  183.6010  176.3450  135.8330 C   0  0  0  0  0  2  0  0  0  0  0  0
  181.3150  175.4170  138.4960 C   0  0  0  0  0  0  0  0  0  0  0  0
  181.2240  176.8980  138.5790 C   0  0  2  0  0  3  0  0  0  0  0  0
  182.1020  177.3990  137.5820 O   0  0  0  0  0  0  0  0  0  0  0  0
  180.5290  174.6150  139.0700 O   0  0  0  0  0  0  0  0  0  0  0  0
  1 20  1  6  0  0  0
  1  3  1  0  0  0  0
  1 11  1  0  0  0  0
  1 14  1  0  0  0  0
  2 34  1  6  0  0  0
  2  5  1  0  0  0  0
  3 11  1  0  0  0  0
  3  4  1  0  0  0  0
  5 12  1  0  0  0  0
  6  4  2  0  0  0  0
  7  4  1  6  0  0  0
  7  9  1  0  0  0  0
  7  2  1  0  0  0  0
  9  8  1  6  0  0  0
  9 13  1  0  0  0  0
 11 22  1  6  0  0  0
 12 17  1  6  0  0  0
 13 21  1  6  0  0  0
 13 18  1  0  0  0  0
 14 10  1  6  0  0  0
 14  8  1  0  0  0  0
 16 19  2  0  0  0  0
 18 12  1  0  0  0  0
 18 15  1  1  0  0  0
 19 10  1  0  0  0  0
 20 19  1  0  0  0  0
 23 22  1  0  0  0  0
 25 24  1  1  0  0  0
 25 16  1  0  0  0  0
 27 33  1  0  0  0  0
 28 26  1  0  0  0  0
 28 30  1  0  0  0  0
 28 31  1  1  0  0  0
 29 32  1  0  0  0  0
 29 33  2  0  0  0  0
 32 25  1  1  0  0  0
 32 30  1  0  0  0  0
 33 26  1  0  0  0  0
 34 35  1  0  0  0  0
 36 38  1  0  0  0  0
 36 35  1  0  0  0  0
 38 37  2  0  0  0  0
 39 38  1  0  0  0  0
 40 45  1  0  0  0  0
 41 40  1  0  0  0  0
 43 42  1  0  0  0  0
 43 47  1  0  0  0  0
 43 40  1  0  0  0  0
 44 43  1  0  0  0  0
 44 42  1  0  0  0  0
 45 46  1  0  0  0  0
 45 48  2  0  0  0  0
 46 39  1  1  0  0  0
 47 46  1  0  0  0  0
M  END
>  <MODEL>
3

>  <REMARK>
 VINA RESULT:      -5.6      3.772     10.821
  Name = 
  9 active torsions:
  status: ('A' for Active; 'I' for Inactive)
    1  A    between atoms: C_2  and  C_8
    2  A    between atoms: C_2  and  C_10
    3  A    between atoms: C_3  and  C_10
    4  A    between atoms: C_3  and  C_32
    5  A    between atoms: C_4  and  C_24
    6  A    between atoms: C_14  and  C_32
    7  A    between atoms: C_14  and  C_34
    8  A    between atoms: C_27  and  N_40
    9  A    between atoms: C_27  and  C_47
                            x       y       z     vdW  Elec       q    Type
                         _______ _______ _______ _____ _____    ______ ____

>  <TORSDO>
F 9

$$$$
=
 OpenBabel10222420523D

 48 54  0  0  1  0  0  0  0  0999 V2000
  188.9660  175.0350  137.0880 C   0  0  2  0  0  0  0  0  0  0  0  0
  186.0100  178.0830  138.8530 C   0  0  2  0  0  3  0  0  0  0  0  0
  187.7490  175.8290  136.7470 N   0  0  0  0  0  0  0  0  0  0  0  0
  187.1880  177.1380  136.8020 C   0  0  0  0  0  0  0  0  0  0  0  0
  186.1210  179.1540  139.8440 N   0  0  0  0  0  2  0  0  0  0  0  0
  186.7930  177.8810  135.3990 S   0  0  0  0  0  0  0  0  0  0  0  0
  187.3370  177.9500  138.0730 C   0  0  2  0  0  3  0  0  0  0  0  0
  189.5990  177.0480  138.2840 O   0  0  0  0  0  0  0  0  0  0  0  0
  188.4170  177.3140  138.9890 C   0  0  1  0  0  3  0  0  0  0  0  0
  191.0840  175.3120  138.0470 O   0  0  0  0  0  0  0  0  0  0  0  0
  187.7450  174.4410  137.3150 C   0  0  1  0  0  3  0  0  0  0  0  0
  186.3600  178.6330  141.1920 C   0  0  1  0  0  3  0  0  0  0  0  0
  188.7270  178.0740  140.2790 C   0  0  2  0  0  3  0  0  0  0  0  0
  189.7270  175.6460  138.2690 C   0  0  2  0  0  3  0  0  0  0  0  0
  188.2380  177.9950  142.7230 C   0  0  0  0  0  1  0  0  0  0  0  0
  192.6000  174.4680  136.4880 N   0  0  0  0  0  0  0  0  0  0  0  0
  185.1550  177.8630  141.7080 C   0  0  0  0  0  1  0  0  0  0  0  0
  187.6520  177.8070  141.3320 C   0  0  1  0  0  3  0  0  0  0  0  0
  191.3890  174.8230  136.7810 C   0  0  0  0  0  0  0  0  0  0  0  0
  190.0140  174.6920  135.6350 S   0  0  0  0  0  0  0  0  0  0  0  0
  188.9290  179.4390  140.0520 O   0  0  0  0  0  1  0  0  0  0  0  0
  187.2990  173.4600  136.2410 C   0  0  0  0  0  2  0  0  0  0  0  0
  186.8280  172.2920  136.8410 O   0  0  0  0  0  1  0  0  0  0  0  0
  192.8530  172.4080  135.2270 C   0  0  0  0  0  1  0  0  0  0  0  0
  192.9950  173.9230  135.1920 C   0  0  2  0  0  3  0  0  0  0  0  0
  196.9100  175.7370  135.6870 C   0  0  0  0  0  2  0  0  0  0  0  0
  195.7930  177.9360  134.9280 C   0  0  0  0  0  1  0  0  0  0  0  0
  196.8220  174.2160  135.5680 C   0  0  2  0  0  3  0  0  0  0  0  0
  194.5920  175.8220  134.7690 C   0  0  0  0  0  3  0  0  0  0  0  0
  195.4110  173.7510  135.9150 C   0  0  0  0  0  2  0  0  0  0  0  0
  197.8190  173.5760  136.5090 C   0  0  0  0  0  1  0  0  0  0  0  0
  194.4400  174.3200  134.8800 C   0  0  1  0  0  3  0  0  0  0  0  0
  195.7460  176.4530  135.0440 C   0  0  0  0  0  0  0  0  0  0  0  0
  184.7680  178.3140  137.9750 C   0  0  0  0  0  2  0  0  0  0  0  0
  183.6340  179.0310  138.7050 C   0  0  0  0  0  2  0  0  0  0  0  0
  182.4020  178.1370  138.7960 C   0  0  0  0  0  2  0  0  0  0  0  0
  181.3130  178.9640  136.8610 O   0  0  0  0  0  0  0  0  0  0  0  0
  181.7200  177.9870  137.4730 C   0  0  0  0  0  0  0  0  0  0  0  0
  181.6040  176.6280  136.8690 C   0  0  0  0  0  2  0  0  0  0  0  0
  182.5220  173.4000  136.9140 N   0  0  0  0  0  0  0  0  0  0  0  0
  183.3150  172.1760  136.8440 C   0  0  0  0  0  1  0  0  0  0  0  0
  180.1080  173.0220  136.4230 C   0  0  0  0  0  2  0  0  0  0  0  0
  181.1610  173.4840  137.3990 C   0  0  0  0  0  0  0  0  0  0  0  0
  180.3700  172.2340  137.7090 C   0  0  0  0  0  2  0  0  0  0  0  0
  183.0380  174.6570  137.2730 C   0  0  0  0  0  0  0  0  0  0  0  0
  181.9870  175.5300  137.8560 C   0  0  2  0  0  3  0  0  0  0  0  0
  180.8570  174.6940  138.0640 O   0  0  0  0  0  0  0  0  0  0  0  0
  184.2510  174.9780  137.1470 O   0  0  0  0  0  0  0  0  0  0  0  0
  1 20  1  6  0  0  0
  1 11  1  0  0  0  0
  1 14  1  0  0  0  0
  2 34  1  6  0  0  0
  2  5  1  0  0  0  0
  3  4  1  0  0  0  0
  3  1  1  0  0  0  0
  3 11  1  0  0  0  0
  5 12  1  0  0  0  0
  6  4  2  0  0  0  0
  7  4  1  6  0  0  0
  7  2  1  0  0  0  0
  7  9  1  0  0  0  0
  9  8  1  6  0  0  0
  9 13  1  0  0  0  0
 11 22  1  6  0  0  0
 12 18  1  0  0  0  0
 12 17  1  6  0  0  0
 13 21  1  6  0  0  0
 13 18  1  0  0  0  0
 14 10  1  6  0  0  0
 14  8  1  0  0  0  0
 16 19  2  0  0  0  0
 18 15  1  1  0  0  0
 19 10  1  0  0  0  0
 20 19  1  0  0  0  0
 22 23  1  0  0  0  0
 25 24  1  1  0  0  0
 25 16  1  0  0  0  0
 27 33  1  0  0  0  0
 28 26  1  0  0  0  0
 28 30  1  0  0  0  0
 28 31  1  1  0  0  0
 29 32  1  0  0  0  0
 29 33  2  0  0  0  0
 32 25  1  1  0  0  0
 32 30  1  0  0  0  0
 33 26  1  0  0  0  0
 34 35  1  0  0  0  0
 35 36  1  0  0  0  0
 37 38  2  0  0  0  0
 38 36  1  0  0  0  0
 39 38  1  0  0  0  0
 40 45  1  0  0  0  0
 40 43  1  0  0  0  0
 41 40  1  0  0  0  0
 42 43  1  0  0  0  0
 42 44  1  0  0  0  0
 43 44  1  0  0  0  0
 43 47  1  0  0  0  0
 45 46  1  0  0  0  0
 46 39  1  6  0  0  0
 46 47  1  0  0  0  0
 48 45  2  0  0  0  0
M  END
>  <MODEL>
4

>  <REMARK>
 VINA RESULT:      -5.5      3.798     10.838
  Name = 
  9 active torsions:
  status: ('A' for Active; 'I' for Inactive)
    1  A    between atoms: C_2  and  C_8
    2  A    between atoms: C_2  and  C_10
    3  A    between atoms: C_3  and  C_10
    4  A    between atoms: C_3  and  C_32
    5  A    between atoms: C_4  and  C_24
    6  A    between atoms: C_14  and  C_32
    7  A    between atoms: C_14  and  C_34
    8  A    between atoms: C_27  and  N_40
    9  A    between atoms: C_27  and  C_47
                            x       y       z     vdW  Elec       q    Type
                         _______ _______ _______ _____ _____    ______ ____

>  <TORSDO>
F 9

$$$$
=
 OpenBabel10222420523D

 48 54  0  0  1  0  0  0  0  0999 V2000
  184.5150  178.1970  139.0850 C   0  0  2  0  0  0  0  0  0  0  0  0
  187.5400  175.5680  136.8310 C   0  0  2  0  0  3  0  0  0  0  0  0
  185.8830  178.2220  138.4900 N   0  0  0  0  0  0  0  0  0  0  0  0
  186.6240  177.8950  137.3190 C   0  0  0  0  0  0  0  0  0  0  0  0
  187.4190  174.4680  135.8730 N   0  0  0  0  0  2  0  0  0  0  0  0
  187.3820  179.0980  136.5090 S   0  0  0  0  0  0  0  0  0  0  0  0
  186.3750  176.5630  136.6370 C   0  0  2  0  0  3  0  0  0  0  0  0
  183.9990  176.8510  137.1350 O   0  0  0  0  0  0  0  0  0  0  0  0
  185.0580  175.9320  137.1650 C   0  0  1  0  0  3  0  0  0  0  0  0
  182.3270  177.5660  138.5390 O   0  0  0  0  0  0  0  0  0  0  0  0
  185.5640  177.8610  139.9110 C   0  0  1  0  0  3  0  0  0  0  0  0
  186.8580  173.2630  136.4880 C   0  0  1  0  0  3  0  0  0  0  0  0
  184.6410  174.6170  136.5090 C   0  0  2  0  0  3  0  0  0  0  0  0
  183.6560  177.0820  138.4810 C   0  0  2  0  0  3  0  0  0  0  0  0
  184.6540  172.1620  136.9420 C   0  0  0  0  0  1  0  0  0  0  0  0
  181.0100  179.4520  138.9210 N   0  0  0  0  0  0  0  0  0  0  0  0
  187.8100  172.6710  137.5140 C   0  0  0  0  0  1  0  0  0  0  0  0
  185.4480  173.4510  137.0780 C   0  0  1  0  0  3  0  0  0  0  0  0
  182.1870  178.9190  138.8230 C   0  0  0  0  0  0  0  0  0  0  0  0
  183.7110  179.8340  139.0730 S   0  0  0  0  0  0  0  0  0  0  0  0
  184.7020  174.6810  135.1130 O   0  0  0  0  0  1  0  0  0  0  0  0
  186.0390  178.9740  140.8330 C   0  0  0  0  0  2  0  0  0  0  0  0
  186.7280  178.4250  141.9130 O   0  0  0  0  0  1  0  0  0  0  0  0
  179.9940  180.9480  140.5410 C   0  0  0  0  0  1  0  0  0  0  0  0
  180.7780  180.8580  139.2390 C   0  0  2  0  0  3  0  0  0  0  0  0
  179.9760  182.5720  135.3310 C   0  0  0  0  0  2  0  0  0  0  0  0
  181.1800  184.6810  136.2030 C   0  0  0  0  0  1  0  0  0  0  0  0
  179.1630  181.3570  135.7740 C   0  0  2  0  0  3  0  0  0  0  0  0
  180.6220  182.8600  137.7230 C   0  0  0  0  0  3  0  0  0  0  0  0
  179.9040  180.6130  136.8800 C   0  0  0  0  0  2  0  0  0  0  0  0
  178.9450  180.4350  134.5940 C   0  0  0  0  0  1  0  0  0  0  0  0
  180.0080  181.5290  138.1010 C   0  0  1  0  0  3  0  0  0  0  0  0
  180.5240  183.3760  136.4860 C   0  0  0  0  0  0  0  0  0  0  0  0
  188.9430  176.1920  136.7330 C   0  0  0  0  0  2  0  0  0  0  0  0
  189.9320  175.6220  137.7480 C   0  0  0  0  0  2  0  0  0  0  0  0
  190.9120  174.6720  137.0680 C   0  0  0  0  0  2  0  0  0  0  0  0
  192.4450  175.9690  135.8110 O   0  0  0  0  0  0  0  0  0  0  0  0
  192.2400  175.3160  136.8240 C   0  0  0  0  0  0  0  0  0  0  0  0
  193.2970  175.2130  137.8720 C   0  0  0  0  0  2  0  0  0  0  0  0
  196.5720  174.5770  137.5050 N   0  0  0  0  0  0  0  0  0  0  0  0
  197.9780  174.3050  137.7870 C   0  0  0  0  0  1  0  0  0  0  0  0
  196.2150  175.6320  135.2740 C   0  0  0  0  0  2  0  0  0  0  0  0
  195.9470  174.4730  136.2030 C   0  0  0  0  0  0  0  0  0  0  0  0
  196.7780  174.2430  134.9620 C   0  0  0  0  0  2  0  0  0  0  0  0
  195.5120  174.2380  138.3640 C   0  0  0  0  0  0  0  0  0  0  0  0
  194.2440  174.0460  137.6150 C   0  0  2  0  0  3  0  0  0  0  0  0
  194.6000  174.0470  136.2400 O   0  0  0  0  0  0  0  0  0  0  0  0
  195.6440  174.0810  139.6090 O   0  0  0  0  0  0  0  0  0  0  0  0
  1 20  1  1  0  0  0
  1 11  1  0  0  0  0
  2 34  1  6  0  0  0
  3  1  1  0  0  0  0
  3 11  1  0  0  0  0
  4  3  1  0  0  0  0
  5 12  1  0  0  0  0
  5  2  1  0  0  0  0
  6  4  2  0  0  0  0
  7  2  1  0  0  0  0
  7  9  1  0  0  0  0
  7  4  1  1  0  0  0
  9  8  1  6  0  0  0
 10 19  1  0  0  0  0
 11 22  1  1  0  0  0
 12 18  1  0  0  0  0
 12 17  1  1  0  0  0
 13 21  1  6  0  0  0
 13 18  1  0  0  0  0
 13  9  1  0  0  0  0
 14  8  1  6  0  0  0
 14 10  1  0  0  0  0
 14  1  1  0  0  0  0
 16 25  1  0  0  0  0
 18 15  1  6  0  0  0
 19 16  2  0  0  0  0
 19 20  1  0  0  0  0
 22 23  1  0  0  0  0
 25 24  1  1  0  0  0
 26 28  1  0  0  0  0
 26 33  1  0  0  0  0
 27 33  1  0  0  0  0
 28 31  1  6  0  0  0
 28 30  1  0  0  0  0
 29 32  1  0  0  0  0
 30 32  1  0  0  0  0
 32 25  1  1  0  0  0
 33 29  2  0  0  0  0
 34 35  1  0  0  0  0
 36 35  1  0  0  0  0
 37 38  2  0  0  0  0
 38 36  1  0  0  0  0
 38 39  1  0  0  0  0
 40 41  1  0  0  0  0
 40 45  1  0  0  0  0
 42 43  1  0  0  0  0
 43 47  1  0  0  0  0
 43 40  1  0  0  0  0
 44 42  1  0  0  0  0
 44 43  1  0  0  0  0
 45 48  2  0  0  0  0
 46 39  1  6  0  0  0
 46 45  1  0  0  0  0
 47 46  1  0  0  0  0
M  END
>  <MODEL>
5

>  <REMARK>
 VINA RESULT:      -5.5      3.429      4.508
  Name = 
  9 active torsions:
  status: ('A' for Active; 'I' for Inactive)
    1  A    between atoms: C_2  and  C_8
    2  A    between atoms: C_2  and  C_10
    3  A    between atoms: C_3  and  C_10
    4  A    between atoms: C_3  and  C_32
    5  A    between atoms: C_4  and  C_24
    6  A    between atoms: C_14  and  C_32
    7  A    between atoms: C_14  and  C_34
    8  A    between atoms: C_27  and  N_40
    9  A    between atoms: C_27  and  C_47
                            x       y       z     vdW  Elec       q    Type
                         _______ _______ _______ _____ _____    ______ ____

>  <TORSDO>
F 9

$$$$
=
 OpenBabel10222420523D

 48 54  0  0  1  0  0  0  0  0999 V2000
  192.4800  175.1300  137.0150 C   0  0  2  0  0  0  0  0  0  0  0  0
  188.8030  177.5450  138.3540 C   0  0  2  0  0  3  0  0  0  0  0  0
  192.0130  176.0740  138.0710 N   0  0  0  0  0  0  0  0  0  0  0  0
  190.9500  176.3280  138.9860 C   0  0  0  0  0  0  0  0  0  0  0  0
  187.3580  177.3390  138.2560 N   0  0  0  0  0  2  0  0  0  0  0  0
  191.2820  176.3390  140.5880 S   0  0  0  0  0  0  0  0  0  0  0  0
  189.5180  176.1850  138.5100 C   0  0  2  0  0  3  0  0  0  0  0  0
  190.2340  174.2390  137.2150 O   0  0  0  0  0  0  0  0  0  0  0  0
  189.4790  175.4190  137.1600 C   0  0  1  0  0  3  0  0  0  0  0  0
  191.8090  173.1650  135.9330 O   0  0  0  0  0  0  0  0  0  0  0  0
  192.6830  176.4730  136.7900 C   0  0  1  0  0  3  0  0  0  0  0  0
  186.8850  177.4210  136.8730 C   0  0  1  0  0  3  0  0  0  0  0  0
  188.0870  175.1350  136.5960 C   0  0  2  0  0  3  0  0  0  0  0  0
  191.3070  174.4290  136.3230 C   0  0  2  0  0  3  0  0  0  0  0  0
  186.5060  175.9760  134.8610 C   0  0  0  0  0  1  0  0  0  0  0  0
  193.5830  171.6700  136.1770 N   0  0  0  0  0  0  0  0  0  0  0  0
  187.0300  178.8300  136.3210 C   0  0  0  0  0  1  0  0  0  0  0  0
  187.5130  176.3820  135.9260 C   0  0  1  0  0  3  0  0  0  0  0  0
  193.0290  172.8000  136.4900 C   0  0  0  0  0  0  0  0  0  0  0  0
  193.7720  173.9890  137.6100 S   0  0  0  0  0  0  0  0  0  0  0  0
  187.2270  174.5990  137.5600 O   0  0  0  0  0  1  0  0  0  0  0  0
  194.0890  176.9700  137.0910 C   0  0  0  0  0  2  0  0  0  0  0  0
  194.8140  177.0700  135.9030 O   0  0  0  0  0  1  0  0  0  0  0  0
  195.1790  171.9900  137.9790 C   0  0  0  0  0  1  0  0  0  0  0  0
  194.8710  171.2260  136.6980 C   0  0  2  0  0  3  0  0  0  0  0  0
  198.8000  172.0590  135.0450 C   0  0  0  0  0  2  0  0  0  0  0  0
  198.3070  174.5350  135.5800 C   0  0  0  0  0  1  0  0  0  0  0  0
  198.1360  170.7260  134.7070 C   0  0  2  0  0  3  0  0  0  0  0  0
  196.5510  172.8560  135.7730 C   0  0  0  0  0  3  0  0  0  0  0  0
  197.0630  170.4050  135.7430 C   0  0  0  0  0  2  0  0  0  0  0  0
  199.1790  169.6290  134.6940 C   0  0  0  0  0  1  0  0  0  0  0  0
  195.9650  171.4660  135.6550 C   0  0  1  0  0  3  0  0  0  0  0  0
  197.8110  173.1430  135.4050 C   0  0  0  0  0  0  0  0  0  0  0  0
  189.1100  178.5640  139.4670 C   0  0  0  0  0  2  0  0  0  0  0  0
  188.0670  178.5730  140.5830 C   0  0  0  0  0  2  0  0  0  0  0  0
  188.4940  177.6580  141.7260 C   0  0  0  0  0  2  0  0  0  0  0  0
  186.2330  177.6500  142.4360 O   0  0  0  0  0  0  0  0  0  0  0  0
  187.4060  177.4780  142.7360 C   0  0  0  0  0  0  0  0  0  0  0  0
  187.7640  177.0150  144.1080 C   0  0  0  0  0  2  0  0  0  0  0  0
  190.1190  176.9580  146.4990 N   0  0  0  0  0  0  0  0  0  0  0  0
  191.3820  176.7620  147.2060 C   0  0  0  0  0  1  0  0  0  0  0  0
  188.1440  176.9660  148.0190 C   0  0  0  0  0  2  0  0  0  0  0  0
  188.9860  177.7010  147.0050 C   0  0  0  0  0  0  0  0  0  0  0  0
  188.9590  178.1940  148.4340 C   0  0  0  0  0  2  0  0  0  0  0  0
  190.0150  177.1750  145.1140 C   0  0  0  0  0  0  0  0  0  0  0  0
  188.7830  177.9330  144.7740 C   0  0  2  0  0  3  0  0  0  0  0  0
  188.2490  178.3830  146.0100 O   0  0  0  0  0  0  0  0  0  0  0  0
  190.8840  176.8020  144.2790 O   0  0  0  0  0  0  0  0  0  0  0  0
  1 20  1  1  0  0  0
  1  3  1  0  0  0  0
  2  7  1  0  0  0  0
  2 34  1  1  0  0  0
  3  4  1  0  0  0  0
  4  6  2  0  0  0  0
  5  2  1  0  0  0  0
  7  4  1  6  0  0  0
  9  8  1  1  0  0  0
  9  7  1  0  0  0  0
 10 19  1  0  0  0  0
 11  1  1  0  0  0  0
 11 22  1  1  0  0  0
 11  3  1  0  0  0  0
 12 17  1  6  0  0  0
 12  5  1  0  0  0  0
 13  9  1  0  0  0  0
 13 21  1  1  0  0  0
 14 10  1  1  0  0  0
 14  1  1  0  0  0  0
 14  8  1  0  0  0  0
 16 19  2  0  0  0  0
 16 25  1  0  0  0  0
 18 15  1  6  0  0  0
 18 13  1  0  0  0  0
 18 12  1  0  0  0  0
 19 20  1  0  0  0  0
 23 22  1  0  0  0  0
 25 24  1  1  0  0  0
 26 33  1  0  0  0  0
 28 31  1  1  0  0  0
 28 26  1  0  0  0  0
 28 30  1  0  0  0  0
 32 30  1  0  0  0  0
 32 29  1  0  0  0  0
 32 25  1  1  0  0  0
 33 27  1  0  0  0  0
 33 29  2  0  0  0  0
 34 35  1  0  0  0  0
 35 36  1  0  0  0  0
 36 38  1  0  0  0  0
 37 38  2  0  0  0  0
 38 39  1  0  0  0  0
 40 43  1  0  0  0  0
 40 41  1  0  0  0  0
 42 44  1  0  0  0  0
 43 42  1  0  0  0  0
 43 44  1  0  0  0  0
 45 40  1  0  0  0  0
 46 39  1  1  0  0  0
 46 45  1  0  0  0  0
 46 47  1  0  0  0  0
 47 43  1  0  0  0  0
 48 45  2  0  0  0  0
M  END
>  <MODEL>
6

>  <REMARK>
 VINA RESULT:      -5.5      5.461     11.209
  Name = 
  9 active torsions:
  status: ('A' for Active; 'I' for Inactive)
    1  A    between atoms: C_2  and  C_8
    2  A    between atoms: C_2  and  C_10
    3  A    between atoms: C_3  and  C_10
    4  A    between atoms: C_3  and  C_32
    5  A    between atoms: C_4  and  C_24
    6  A    between atoms: C_14  and  C_32
    7  A    between atoms: C_14  and  C_34
    8  A    between atoms: C_27  and  N_40
    9  A    between atoms: C_27  and  C_47
                            x       y       z     vdW  Elec       q    Type
                         _______ _______ _______ _____ _____    ______ ____

>  <TORSDO>
F 9

$$$$
=
 OpenBabel10222420523D

 48 54  0  0  1  0  0  0  0  0999 V2000
  184.3750  178.2540  139.0080 C   0  0  2  0  0  0  0  0  0  0  0  0
  187.0940  175.3250  136.7340 C   0  0  2  0  0  3  0  0  0  0  0  0
  185.7110  178.1560  138.3500 N   0  0  0  0  0  0  0  0  0  0  0  0
  186.3690  177.7290  137.1610 C   0  0  0  0  0  0  0  0  0  0  0  0
  186.8500  174.1990  135.8320 N   0  0  0  0  0  2  0  0  0  0  0  0
  187.1680  178.8410  136.2660 S   0  0  0  0  0  0  0  0  0  0  0  0
  185.9940  176.3930  136.5510 C   0  0  2  0  0  3  0  0  0  0  0  0
  183.6710  176.8700  137.1450 O   0  0  0  0  0  0  0  0  0  0  0  0
  184.6630  175.8800  137.1660 C   0  0  1  0  0  3  0  0  0  0  0  0
  182.1240  177.7600  138.5920 O   0  0  0  0  0  0  0  0  0  0  0  0
  185.4370  177.8760  139.7990 C   0  0  1  0  0  3  0  0  0  0  0  0
  186.2370  173.0640  136.5240 C   0  0  1  0  0  3  0  0  0  0  0  0
  184.1230  174.5730  136.5880 C   0  0  2  0  0  3  0  0  0  0  0  0
  183.4110  177.1800  138.4940 C   0  0  2  0  0  3  0  0  0  0  0  0
  183.9860  172.1420  137.1270 C   0  0  0  0  0  1  0  0  0  0  0  0
  180.9620  179.7500  138.9510 N   0  0  0  0  0  0  0  0  0  0  0  0
  187.1950  172.4460  137.5290 C   0  0  0  0  0  1  0  0  0  0  0  0
  184.8750  173.3760  137.1700 C   0  0  1  0  0  3  0  0  0  0  0  0
  182.0930  179.1300  138.8230 C   0  0  0  0  0  0  0  0  0  0  0  0
  183.6880  179.9430  138.9610 S   0  0  0  0  0  0  0  0  0  0  0  0
  184.1200  174.5760  135.1890 O   0  0  0  0  0  1  0  0  0  0  0  0
  186.0340  178.9890  140.6480 C   0  0  0  0  0  2  0  0  0  0  0  0
  185.3640  179.0550  141.8690 O   0  0  0  0  0  1  0  0  0  0  0  0
  179.5090  181.4510  139.8960 C   0  0  0  0  0  1  0  0  0  0  0  0
  180.8450  181.1800  139.2180 C   0  0  2  0  0  3  0  0  0  0  0  0
  179.6030  183.2970  135.6360 C   0  0  0  0  0  2  0  0  0  0  0  0
  179.2440  180.9640  134.5940 C   0  0  0  0  0  1  0  0  0  0  0  0
  180.4130  184.0550  136.6860 C   0  0  2  0  0  3  0  0  0  0  0  0
  180.3550  181.1960  136.7500 C   0  0  0  0  0  3  0  0  0  0  0  0
  180.3080  183.3460  138.0320 C   0  0  0  0  0  2  0  0  0  0  0  0
  179.8860  185.4690  136.8090 C   0  0  0  0  0  1  0  0  0  0  0  0
  180.9520  181.9640  137.9090 C   0  0  1  0  0  3  0  0  0  0  0  0
  179.8280  181.8040  135.6730 C   0  0  0  0  0  0  0  0  0  0  0  0
  188.5310  175.8430  136.5440 C   0  0  0  0  0  2  0  0  0  0  0  0
  189.5960  174.8820  137.0700 C   0  0  0  0  0  2  0  0  0  0  0  0
  190.9820  175.3000  136.5910 C   0  0  0  0  0  2  0  0  0  0  0  0
  191.7420  176.0540  138.7040 O   0  0  0  0  0  0  0  0  0  0  0  0
  191.9660  175.3710  137.7150 C   0  0  0  0  0  0  0  0  0  0  0  0
  193.2010  174.5370  137.6470 C   0  0  0  0  0  2  0  0  0  0  0  0
  195.8700  173.7870  135.7570 N   0  0  0  0  0  0  0  0  0  0  0  0
  196.7170  173.4170  134.6250 C   0  0  0  0  0  1  0  0  0  0  0  0
  196.8900  173.2200  137.9590 C   0  0  0  0  0  2  0  0  0  0  0  0
  196.3490  174.2790  137.0300 C   0  0  0  0  0  0  0  0  0  0  0  0
  197.8240  174.2730  137.3580 C   0  0  0  0  0  2  0  0  0  0  0  0
  194.6330  174.4430  135.6370 C   0  0  0  0  0  0  0  0  0  0  0  0
  194.3110  175.2240  136.8590 C   0  0  2  0  0  3  0  0  0  0  0  0
  195.4930  175.2210  137.6460 O   0  0  0  0  0  0  0  0  0  0  0  0
  193.9140  174.3980  134.6010 O   0  0  0  0  0  0  0  0  0  0  0  0
  1 20  1  1  0  0  0
  1 11  1  0  0  0  0
  2 34  1  6  0  0  0
  3  1  1  0  0  0  0
  3 11  1  0  0  0  0
  4  3  1  0  0  0  0
  5 12  1  0  0  0  0
  5  2  1  0  0  0  0
  6  4  2  0  0  0  0
  7  2  1  0  0  0  0
  7  4  1  1  0  0  0
  7  9  1  0  0  0  0
  9  8  1  6  0  0  0
 10 19  1  0  0  0  0
 11 22  1  1  0  0  0
 12 18  1  0  0  0  0
 12 17  1  1  0  0  0
 13 21  1  6  0  0  0
 13  9  1  0  0  0  0
 13 18  1  0  0  0  0
 14  8  1  6  0  0  0
 14 10  1  0  0  0  0
 14  1  1  0  0  0  0
 16 25  1  0  0  0  0
 18 15  1  6  0  0  0
 19 16  2  0  0  0  0
 19 20  1  0  0  0  0
 22 23  1  0  0  0  0
 25 24  1  6  0  0  0
 26 33  1  0  0  0  0
 26 28  1  0  0  0  0
 27 33  1  0  0  0  0
 28 31  1  1  0  0  0
 28 30  1  0  0  0  0
 29 32  1  0  0  0  0
 32 30  1  0  0  0  0
 32 25  1  1  0  0  0
 33 29  2  0  0  0  0
 34 35  1  0  0  0  0
 36 35  1  0  0  0  0
 36 38  1  0  0  0  0
 38 37  2  0  0  0  0
 39 38  1  0  0  0  0
 40 43  1  0  0  0  0
 41 40  1  0  0  0  0
 43 44  1  0  0  0  0
 43 47  1  0  0  0  0
 43 42  1  0  0  0  0
 44 42  1  0  0  0  0
 45 40  1  0  0  0  0
 45 46  1  0  0  0  0
 46 47  1  0  0  0  0
 46 39  1  1  0  0  0
 48 45  2  0  0  0  0
M  END
>  <MODEL>
7

>  <REMARK>
 VINA RESULT:      -5.4      3.436      4.702
  Name = 
  9 active torsions:
  status: ('A' for Active; 'I' for Inactive)
    1  A    between atoms: C_2  and  C_8
    2  A    between atoms: C_2  and  C_10
    3  A    between atoms: C_3  and  C_10
    4  A    between atoms: C_3  and  C_32
    5  A    between atoms: C_4  and  C_24
    6  A    between atoms: C_14  and  C_32
    7  A    between atoms: C_14  and  C_34
    8  A    between atoms: C_27  and  N_40
    9  A    between atoms: C_27  and  C_47
                            x       y       z     vdW  Elec       q    Type
                         _______ _______ _______ _____ _____    ______ ____

>  <TORSDO>
F 9

$$$$
=
 OpenBabel10222420523D

 48 54  0  0  1  0  0  0  0  0999 V2000
  185.1290  177.5170  137.3730 C   0  0  2  0  0  0  0  0  0  0  0  0
  180.8430  178.6730  138.5750 C   0  0  2  0  0  3  0  0  0  0  0  0
  184.1290  177.3550  138.4690 N   0  0  0  0  0  0  0  0  0  0  0  0
  182.7710  177.0150  138.7340 C   0  0  0  0  0  0  0  0  0  0  0  0
  179.6090  178.9250  137.8300 N   0  0  0  0  0  2  0  0  0  0  0  0
  182.4580  175.7090  139.6690 S   0  0  0  0  0  0  0  0  0  0  0  0
  181.6810  177.5950  137.8530 C   0  0  2  0  0  3  0  0  0  0  0  0
  183.1810  177.2930  135.9460 O   0  0  0  0  0  0  0  0  0  0  0  0
  182.3010  178.1950  136.5620 C   0  0  1  0  0  3  0  0  0  0  0  0
  185.2940  177.3240  135.0460 O   0  0  0  0  0  0  0  0  0  0  0  0
  185.1510  178.4500  138.3860 C   0  0  1  0  0  3  0  0  0  0  0  0
  179.6930  180.1460  137.0240 C   0  0  1  0  0  3  0  0  0  0  0  0
  181.3080  178.7510  135.5430 C   0  0  2  0  0  3  0  0  0  0  0  0
  184.4580  177.8780  136.0440 C   0  0  2  0  0  3  0  0  0  0  0  0
  180.3830  180.9240  134.7450 C   0  0  0  0  0  1  0  0  0  0  0  0
  187.0820  175.8790  134.6550 N   0  0  0  0  0  0  0  0  0  0  0  0
  179.7760  181.3830  137.9030 C   0  0  0  0  0  1  0  0  0  0  0  0
  180.8150  180.1330  135.9700 C   0  0  1  0  0  3  0  0  0  0  0  0
  186.2540  176.4230  135.4900 C   0  0  0  0  0  0  0  0  0  0  0  0
  186.2810  176.1080  137.2580 S   0  0  0  0  0  0  0  0  0  0  0  0
  180.2590  177.8610  135.2900 O   0  0  0  0  0  1  0  0  0  0  0  0
  186.2190  178.2220  139.4450 C   0  0  0  0  0  2  0  0  0  0  0  0
  187.4630  178.6080  138.9460 O   0  0  0  0  0  1  0  0  0  0  0  0
  187.7070  174.2230  136.3170 C   0  0  0  0  0  1  0  0  0  0  0  0
  188.1330  174.9440  135.0460 C   0  0  2  0  0  3  0  0  0  0  0  0
  192.0700  175.8720  136.6270 C   0  0  0  0  0  2  0  0  0  0  0  0
  190.8330  176.7260  138.7250 C   0  0  0  0  0  1  0  0  0  0  0  0
  191.9210  175.6600  135.1220 C   0  0  2  0  0  3  0  0  0  0  0  0
  189.5910  176.1410  136.7110 C   0  0  0  0  0  3  0  0  0  0  0  0
  190.6500  174.8670  134.8330 C   0  0  0  0  0  2  0  0  0  0  0  0
  193.1240  174.9090  134.5940 C   0  0  0  0  0  1  0  0  0  0  0  0
  189.4440  175.7000  135.2710 C   0  0  1  0  0  3  0  0  0  0  0  0
  190.7890  176.3110  137.2960 C   0  0  0  0  0  0  0  0  0  0  0  0
  180.5090  178.3540  140.0420 C   0  0  0  0  0  2  0  0  0  0  0  0
  180.8520  179.4900  141.0040 C   0  0  0  0  0  2  0  0  0  0  0  0
  181.7460  178.9890  142.1320 C   0  0  0  0  0  2  0  0  0  0  0  0
  183.6070  179.7290  140.8640 O   0  0  0  0  0  0  0  0  0  0  0  0
  183.1910  178.9890  141.7450 C   0  0  0  0  0  0  0  0  0  0  0  0
  184.1410  178.1200  142.4980 C   0  0  0  0  0  2  0  0  0  0  0  0
  186.5750  177.8480  144.7920 N   0  0  0  0  0  0  0  0  0  0  0  0
  187.8280  177.5060  145.4610 C   0  0  0  0  0  1  0  0  0  0  0  0
  184.7000  178.2440  146.3860 C   0  0  0  0  0  2  0  0  0  0  0  0
  185.5910  178.7830  145.2940 C   0  0  0  0  0  0  0  0  0  0  0  0
  185.7070  179.3570  146.6870 C   0  0  0  0  0  2  0  0  0  0  0  0
  186.4370  177.9970  143.4010 C   0  0  0  0  0  0  0  0  0  0  0  0
  185.3160  178.9110  143.0610 C   0  0  2  0  0  3  0  0  0  0  0  0
  184.9150  179.5080  144.2860 O   0  0  0  0  0  0  0  0  0  0  0  0
  187.1990  177.4480  142.5590 O   0  0  0  0  0  0  0  0  0  0  0  0
  1 20  1  6  0  0  0
  1 11  1  0  0  0  0
  1  3  1  0  0  0  0
  2 34  1  1  0  0  0
  3  4  1  0  0  0  0
  4  6  2  0  0  0  0
  5  2  1  0  0  0  0
  7  2  1  0  0  0  0
  7  4  1  1  0  0  0
  8 14  1  0  0  0  0
  9  8  1  6  0  0  0
  9  7  1  0  0  0  0
 10 19  1  0  0  0  0
 11  3  1  0  0  0  0
 11 22  1  1  0  0  0
 12  5  1  0  0  0  0
 12 17  1  1  0  0  0
 13 21  1  1  0  0  0
 13 18  1  0  0  0  0
 13  9  1  0  0  0  0
 14 10  1  6  0  0  0
 14  1  1  0  0  0  0
 16 25  1  0  0  0  0
 16 19  2  0  0  0  0
 18 15  1  6  0  0  0
 18 12  1  0  0  0  0
 19 20  1  0  0  0  0
 23 22  1  0  0  0  0
 25 24  1  1  0  0  0
 26 33  1  0  0  0  0
 28 31  1  1  0  0  0
 28 26  1  0  0  0  0
 29 33  2  0  0  0  0
 30 28  1  0  0  0  0
 30 32  1  0  0  0  0
 32 25  1  1  0  0  0
 32 29  1  0  0  0  0
 33 27  1  0  0  0  0
 34 35  1  0  0  0  0
 35 36  1  0  0  0  0
 37 38  2  0  0  0  0
 38 36  1  0  0  0  0
 38 39  1  0  0  0  0
 40 43  1  0  0  0  0
 40 41  1  0  0  0  0
 42 44  1  0  0  0  0
 43 42  1  0  0  0  0
 43 44  1  0  0  0  0
 45 40  1  0  0  0  0
 46 39  1  1  0  0  0
 46 45  1  0  0  0  0
 46 47  1  0  0  0  0
 47 43  1  0  0  0  0
 48 45  2  0  0  0  0
M  END
>  <MODEL>
8

>  <REMARK>
 VINA RESULT:      -5.1      2.383      7.995
  Name = 
  9 active torsions:
  status: ('A' for Active; 'I' for Inactive)
    1  A    between atoms: C_2  and  C_8
    2  A    between atoms: C_2  and  C_10
    3  A    between atoms: C_3  and  C_10
    4  A    between atoms: C_3  and  C_32
    5  A    between atoms: C_4  and  C_24
    6  A    between atoms: C_14  and  C_32
    7  A    between atoms: C_14  and  C_34
    8  A    between atoms: C_27  and  N_40
    9  A    between atoms: C_27  and  C_47
                            x       y       z     vdW  Elec       q    Type
                         _______ _______ _______ _____ _____    ______ ____

>  <TORSDO>
F 9

$$$$
=
 OpenBabel10222420523D

 48 54  0  0  1  0  0  0  0  0999 V2000
  188.5630  175.4270  137.4750 C   0  0  2  0  0  0  0  0  0  0  0  0
  185.4190  178.3790  139.0710 C   0  0  2  0  0  3  0  0  0  0  0  0
  187.4050  176.2620  137.0420 N   0  0  0  0  0  0  0  0  0  0  0  0
  186.8480  177.5710  137.1220 C   0  0  0  0  0  0  0  0  0  0  0  0
  185.4060  179.3720  140.1450 N   0  0  0  0  0  2  0  0  0  0  0  0
  186.6420  178.4210  135.7400 S   0  0  0  0  0  0  0  0  0  0  0  0
  186.8340  178.2850  138.4600 C   0  0  2  0  0  3  0  0  0  0  0  0
  189.0460  177.3360  138.8910 O   0  0  0  0  0  0  0  0  0  0  0  0
  187.7840  177.5670  139.4570 C   0  0  1  0  0  3  0  0  0  0  0  0
  190.5410  175.6000  138.7170 O   0  0  0  0  0  0  0  0  0  0  0  0
  187.3200  174.8350  137.4980 C   0  0  1  0  0  3  0  0  0  0  0  0
  185.4660  178.7490  141.4690 C   0  0  1  0  0  3  0  0  0  0  0  0
  187.9280  178.2240  140.8290 C   0  0  2  0  0  3  0  0  0  0  0  0
  189.1680  175.9370  138.7870 C   0  0  2  0  0  3  0  0  0  0  0  0
  187.1260  177.9710  143.1770 C   0  0  0  0  0  1  0  0  0  0  0  0
  192.2410  174.8520  137.3070 N   0  0  0  0  0  0  0  0  0  0  0  0
  184.2000  177.9610  141.7670 C   0  0  0  0  0  1  0  0  0  0  0  0
  186.7240  177.8960  141.7120 C   0  0  1  0  0  3  0  0  0  0  0  0
  191.0040  175.2030  137.4680 C   0  0  0  0  0  0  0  0  0  0  0  0
  189.7880  175.1770  136.1480 S   0  0  0  0  0  0  0  0  0  0  0  0
  188.1650  179.5990  140.7340 O   0  0  0  0  0  1  0  0  0  0  0  0
  187.0120  173.9430  136.3050 C   0  0  0  0  0  2  0  0  0  0  0  0
  185.7890  173.3030  136.5030 O   0  0  0  0  0  1  0  0  0  0  0  0
  191.9830  173.2170  135.5310 C   0  0  0  0  0  1  0  0  0  0  0  0
  192.7980  174.4000  136.0360 C   0  0  2  0  0  3  0  0  0  0  0  0
  196.3180  172.5510  137.7850 C   0  0  0  0  0  2  0  0  0  0  0  0
  196.2900  174.5050  139.4700 C   0  0  0  0  0  1  0  0  0  0  0  0
  195.9170  172.1570  136.3640 C   0  0  2  0  0  3  0  0  0  0  0  0
  194.8230  174.5310  137.5250 C   0  0  0  0  0  3  0  0  0  0  0  0
  194.4460  172.4860  136.1300 C   0  0  0  0  0  2  0  0  0  0  0  0
  196.1480  170.6740  136.1660 C   0  0  0  0  0  1  0  0  0  0  0  0
  194.2640  174.0010  136.2220 C   0  0  1  0  0  3  0  0  0  0  0  0
  195.8220  173.9210  138.1840 C   0  0  0  0  0  0  0  0  0  0  0  0
  184.3020  178.6930  138.0590 C   0  0  0  0  0  2  0  0  0  0  0  0
  183.2600  177.5810  137.9440 C   0  0  0  0  0  2  0  0  0  0  0  0
  182.1220  178.0040  137.0200 C   0  0  0  0  0  2  0  0  0  0  0  0
  180.4980  177.8050  138.7340 O   0  0  0  0  0  0  0  0  0  0  0  0
  180.9170  178.4530  137.7850 C   0  0  0  0  0  0  0  0  0  0  0  0
  180.2700  179.7450  137.4190 C   0  0  0  0  0  2  0  0  0  0  0  0
  180.9440  183.0310  137.2930 N   0  0  0  0  0  0  0  0  0  0  0  0
  181.4420  184.3640  137.6190 C   0  0  0  0  0  1  0  0  0  0  0  0
  178.9340  183.0770  135.8200 C   0  0  0  0  0  2  0  0  0  0  0  0
  180.3650  182.6440  136.0250 C   0  0  0  0  0  0  0  0  0  0  0  0
  180.0530  183.6790  134.9680 C   0  0  0  0  0  2  0  0  0  0  0  0
  181.5540  181.8350  137.7110 C   0  0  0  0  0  0  0  0  0  0  0  0
  181.2550  180.7170  136.7790 C   0  0  2  0  0  3  0  0  0  0  0  0
  180.6360  181.3100  135.6460 O   0  0  0  0  0  0  0  0  0  0  0  0
  182.2920  181.7450  138.7300 O   0  0  0  0  0  0  0  0  0  0  0  0
  1 20  1  6  0  0  0
  1 11  1  0  0  0  0
  1 14  1  0  0  0  0
  2 34  1  6  0  0  0
  2  5  1  0  0  0  0
  3  4  1  0  0  0  0
  3  1  1  0  0  0  0
  3 11  1  0  0  0  0
  5 12  1  0  0  0  0
  6  4  2  0  0  0  0
  7  4  1  6  0  0  0
  7  2  1  0  0  0  0
  7  9  1  0  0  0  0
  9  8  1  6  0  0  0
  9 13  1  0  0  0  0
 11 22  1  6  0  0  0
 12 18  1  0  0  0  0
 12 17  1  6  0  0  0
 13 21  1  6  0  0  0
 13 18  1  0  0  0  0
 14 10  1  6  0  0  0
 14  8  1  0  0  0  0
 16 19  2  0  0  0  0
 18 15  1  1  0  0  0
 19 10  1  0  0  0  0
 20 19  1  0  0  0  0
 22 23  1  0  0  0  0
 25 24  1  1  0  0  0
 25 16  1  0  0  0  0
 26 33  1  0  0  0  0
 28 31  1  1  0  0  0
 28 26  1  0  0  0  0
 29 33  2  0  0  0  0
 30 32  1  0  0  0  0
 30 28  1  0  0  0  0
 32 25  1  1  0  0  0
 32 29  1  0  0  0  0
 33 27  1  0  0  0  0
 35 34  1  0  0  0  0
 36 38  1  0  0  0  0
 36 35  1  0  0  0  0
 38 37  2  0  0  0  0
 39 38  1  0  0  0  0
 40 41  1  0  0  0  0
 40 45  1  0  0  0  0
 42 43  1  0  0  0  0
 43 40  1  0  0  0  0
 44 42  1  0  0  0  0
 44 43  1  0  0  0  0
 45 48  2  0  0  0  0
 46 39  1  1  0  0  0
 46 45  1  0  0  0  0
 47 43  1  0  0  0  0
 47 46  1  0  0  0  0
M  END
>  <MODEL>
9

>  <REMARK>
 VINA RESULT:      -5.0      3.709     11.251
  Name = 
  9 active torsions:
  status: ('A' for Active; 'I' for Inactive)
    1  A    between atoms: C_2  and  C_8
    2  A    between atoms: C_2  and  C_10
    3  A    between atoms: C_3  and  C_10
    4  A    between atoms: C_3  and  C_32
    5  A    between atoms: C_4  and  C_24
    6  A    between atoms: C_14  and  C_32
    7  A    between atoms: C_14  and  C_34
    8  A    between atoms: C_27  and  N_40
    9  A    between atoms: C_27  and  C_47
                            x       y       z     vdW  Elec       q    Type
                         _______ _______ _______ _____ _____    ______ ____

>  <TORSDO>
F 9

$$$$
