=
 OpenBabel10222420263D

 31 34  0  0  1  0  0  0  0  0999 V2000
  190.4560  177.5090  140.1030 C   0  0  0  0  0  3  0  0  0  0  0  0
  190.3670  177.5840  141.4400 C   0  0  0  0  0  0  0  0  0  0  0  0
  189.1130  177.8530  142.0670 N   0  0  0  0  0  2  0  0  0  0  0  0
  188.2070  176.7980  142.4910 C   0  0  0  0  0  2  0  0  0  0  0  0
  184.2740  179.1010  146.2970 O   0  0  0  0  0  0  0  0  0  0  0  0
  186.1250  178.1400  145.9420 C   0  0  0  0  0  0  0  0  0  0  0  0
  185.6120  178.0330  142.3490 N   0  0  0  0  0  2  0  0  0  0  0  0
  187.3380  177.5610  146.0880 N   0  0  0  0  0  0  0  0  0  0  0  0
  185.3360  178.6360  146.9090 N   0  0  0  0  0  2  0  0  0  0  0  0
  185.5190  178.3080  144.6670 C   0  0  0  0  0  0  0  0  0  0  0  0
  186.1540  177.8760  143.5120 C   0  0  0  0  0  0  0  0  0  0  0  0
  183.3260  179.3370  144.0710 N   0  0  0  0  0  1  0  0  0  0  0  0
  187.9900  177.1250  144.9660 C   0  0  0  0  0  3  0  0  0  0  0  0
  187.4220  177.2630  143.6720 C   0  0  0  0  0  0  0  0  0  0  0  0
  184.3370  178.9300  144.9850 C   0  0  0  0  0  0  0  0  0  0  0  0
  191.5330  177.4170  142.2680 N   0  0  0  0  0  2  0  0  0  0  0  0
  191.7440  176.0970  146.2950 C   0  0  0  0  0  3  0  0  0  0  0  0
  191.5130  177.4420  145.9960 C   0  0  0  0  0  3  0  0  0  0  0  0
  191.4500  177.8610  144.6630 C   0  0  0  0  0  3  0  0  0  0  0  0
  191.8450  175.5920  143.9290 C   0  0  0  0  0  3  0  0  0  0  0  0
  191.9090  175.1710  145.2620 C   0  0  0  0  0  3  0  0  0  0  0  0
  191.6190  176.9420  143.6210 C   0  0  0  0  0  0  0  0  0  0  0  0
  189.3660  177.6590  139.1790 N   0  0  0  0  0  2  0  0  0  0  0  0
  189.4570  178.2010  137.8260 C   0  0  1  0  0  3  0  0  0  0  0  0
  188.1740  178.1160  137.0650 C   0  0  2  0  0  3  0  0  0  0  0  0
  188.5880  179.3020  137.7030 O   0  0  0  0  0  0  0  0  0  0  0  0
  187.0020  177.5100  137.8320 C   0  0  0  0  0  2  0  0  0  0  0  0
  185.7990  178.4340  137.7780 C   0  0  0  0  0  2  0  0  0  0  0  0
  185.1470  178.4410  139.0160 O   0  0  0  0  0  0  0  0  0  0  0  0
  183.4490  179.7590  139.1030 C   0  0  0  0  0  1  0  0  0  0  0  0
  184.8390  179.7050  139.2260 O   0  0  0  0  0  0  0  0  0  0  0  0
  1  2  2  0  0  0  0
  2  3  1  0  0  0  0
  2 16  1  0  0  0  0
  3  4  1  0  0  0  0
  4 14  1  0  0  0  0
  5  9  1  0  0  0  0
  6  8  2  0  0  0  0
  6  9  1  0  0  0  0
  7 11  2  0  0  0  0
 10 15  2  0  0  0  0
 10  6  1  0  0  0  0
 11 14  1  0  0  0  0
 11 10  1  0  0  0  0
 12 15  1  0  0  0  0
 13  8  1  0  0  0  0
 14 13  2  0  0  0  0
 15  5  1  0  0  0  0
 16 22  1  0  0  0  0
 18 17  1  0  0  0  0
 19 18  2  0  0  0  0
 20 21  1  0  0  0  0
 21 17  2  0  0  0  0
 22 20  2  0  0  0  0
 22 19  1  0  0  0  0
 23  1  1  0  0  0  0
 24 23  1  1  0  0  0
 25 26  1  0  0  0  0
 25 24  1  0  0  0  0
 25 27  1  1  0  0  0
 26 24  1  0  0  0  0
 28 27  1  0  0  0  0
 28 29  1  0  0  0  0
 29 31  1  0  0  0  0
 30 31  1  0  0  0  0
M  END
>  <MODEL>
1

>  <REMARK>
 VINA RESULT:      -7.7      0.000      0.000
  Name = 
  11 active torsions:
  status: ('A' for Active; 'I' for Inactive)
    1  A    between atoms: C_1  and  C_9
    2  A    between atoms: C_1  and  O_10
    3  A    between atoms: C_9  and  C_30
    4  A    between atoms: O_10  and  O_13
    5  A    between atoms: C_17  and  N_21
    6  A    between atoms: C_17  and  C_25
    7  A    between atoms: C_20  and  N_24
    8  A    between atoms: N_21  and  C_22
    9  A    between atoms: C_22  and  N_23
   10  A    between atoms: N_23  and  C_28
   11  A    between atoms: N_24  and  C_29
                            x       y       z     vdW  Elec       q    Type
                         _______ _______ _______ _____ _____    ______ ____

>  <TORSDO>
F 11

$$$$
=
 OpenBabel10222420263D

 31 34  0  0  1  0  0  0  0  0999 V2000
  187.2270  178.3070  139.9420 C   0  0  0  0  0  3  0  0  0  0  0  0
  187.0610  178.7050  141.2120 C   0  0  0  0  0  0  0  0  0  0  0  0
  187.9790  178.2930  142.2250 N   0  0  0  0  0  2  0  0  0  0  0  0
  187.8360  177.0400  142.9480 C   0  0  0  0  0  2  0  0  0  0  0  0
  191.3830  177.1060  147.7100 O   0  0  0  0  0  0  0  0  0  0  0  0
  191.0930  176.6990  145.6540 C   0  0  0  0  0  0  0  0  0  0  0  0
  187.6110  177.7260  145.7330 N   0  0  0  0  0  2  0  0  0  0  0  0
  191.2730  176.3500  144.3600 N   0  0  0  0  0  0  0  0  0  0  0  0
  192.0060  176.6750  146.6400 N   0  0  0  0  0  2  0  0  0  0  0  0
  189.8440  177.1710  146.1410 C   0  0  0  0  0  0  0  0  0  0  0  0
  188.7480  177.2890  145.2990 C   0  0  0  0  0  0  0  0  0  0  0  0
  189.2040  177.8980  148.4400 N   0  0  0  0  0  1  0  0  0  0  0  0
  190.2090  176.4560  143.5050 C   0  0  0  0  0  3  0  0  0  0  0  0
  188.9400  176.9150  143.9460 C   0  0  0  0  0  0  0  0  0  0  0  0
  190.1180  177.4080  147.4660 C   0  0  0  0  0  0  0  0  0  0  0  0
  185.9470  179.5360  141.5850 N   0  0  0  0  0  2  0  0  0  0  0  0
  182.8080  178.7040  144.3170 C   0  0  0  0  0  3  0  0  0  0  0  0
  182.6150  178.5570  142.9410 C   0  0  0  0  0  3  0  0  0  0  0  0
  183.6590  178.8390  142.0540 C   0  0  0  0  0  3  0  0  0  0  0  0
  185.0880  179.4120  143.9170 C   0  0  0  0  0  3  0  0  0  0  0  0
  184.0450  179.1310  144.8060 C   0  0  0  0  0  3  0  0  0  0  0  0
  184.9000  179.2720  142.5330 C   0  0  0  0  0  0  0  0  0  0  0  0
  188.2950  177.4790  139.4540 N   0  0  0  0  0  2  0  0  0  0  0  0
  189.5770  177.9490  138.9340 C   0  0  1  0  0  3  0  0  0  0  0  0
  190.0280  177.2150  137.7140 C   0  0  2  0  0  3  0  0  0  0  0  0
  189.3940  178.4700  137.6390 O   0  0  0  0  0  0  0  0  0  0  0  0
  189.0740  176.1330  137.2160 C   0  0  0  0  0  2  0  0  0  0  0  0
  189.7630  174.7800  137.2120 C   0  0  0  0  0  2  0  0  0  0  0  0
  190.8150  174.7760  138.1340 O   0  0  0  0  0  0  0  0  0  0  0  0
  192.9080  174.7830  137.6380 C   0  0  0  0  0  1  0  0  0  0  0  0
  191.7410  174.0170  137.5850 O   0  0  0  0  0  0  0  0  0  0  0  0
  1  2  2  0  0  0  0
  2 16  1  0  0  0  0
  2  3  1  0  0  0  0
  3  4  1  0  0  0  0
  4 14  1  0  0  0  0
  6 10  1  0  0  0  0
  6  9  1  0  0  0  0
  8  6  2  0  0  0  0
  9  5  1  0  0  0  0
 10 15  2  0  0  0  0
 11  7  2  0  0  0  0
 11 10  1  0  0  0  0
 13 14  2  0  0  0  0
 13  8  1  0  0  0  0
 14 11  1  0  0  0  0
 15  5  1  0  0  0  0
 15 12  1  0  0  0  0
 16 22  1  0  0  0  0
 17 21  1  0  0  0  0
 18 17  2  0  0  0  0
 19 22  2  0  0  0  0
 19 18  1  0  0  0  0
 20 21  2  0  0  0  0
 22 20  1  0  0  0  0
 23  1  1  0  0  0  0
 24 23  1  6  0  0  0
 25 27  1  6  0  0  0
 25 24  1  0  0  0  0
 26 25  1  0  0  0  0
 26 24  1  0  0  0  0
 28 27  1  0  0  0  0
 28 29  1  0  0  0  0
 31 30  1  0  0  0  0
 31 29  1  0  0  0  0
M  END
>  <MODEL>
2

>  <REMARK>
 VINA RESULT:      -7.7      2.849      5.949
  Name = 
  11 active torsions:
  status: ('A' for Active; 'I' for Inactive)
    1  A    between atoms: C_1  and  C_9
    2  A    between atoms: C_1  and  O_10
    3  A    between atoms: C_9  and  C_30
    4  A    between atoms: O_10  and  O_13
    5  A    between atoms: C_17  and  N_21
    6  A    between atoms: C_17  and  C_25
    7  A    between atoms: C_20  and  N_24
    8  A    between atoms: N_21  and  C_22
    9  A    between atoms: C_22  and  N_23
   10  A    between atoms: N_23  and  C_28
   11  A    between atoms: N_24  and  C_29
                            x       y       z     vdW  Elec       q    Type
                         _______ _______ _______ _____ _____    ______ ____

>  <TORSDO>
F 11

$$$$
=
 OpenBabel10222420263D

 31 34  0  0  1  0  0  0  0  0999 V2000
  187.5260  178.2120  139.6640 C   0  0  0  0  0  3  0  0  0  0  0  0
  187.3780  178.6190  140.9330 C   0  0  0  0  0  0  0  0  0  0  0  0
  188.2700  178.1600  141.9490 N   0  0  0  0  0  2  0  0  0  0  0  0
  187.9860  176.9960  142.7720 C   0  0  0  0  0  2  0  0  0  0  0  0
  191.1040  177.0770  147.8260 O   0  0  0  0  0  0  0  0  0  0  0  0
  191.0160  176.7380  145.7390 C   0  0  0  0  0  0  0  0  0  0  0  0
  187.4820  177.5520  145.5500 N   0  0  0  0  0  2  0  0  0  0  0  0
  191.3270  176.4540  144.4540 N   0  0  0  0  0  0  0  0  0  0  0  0
  191.8400  176.7280  146.7990 N   0  0  0  0  0  2  0  0  0  0  0  0
  189.7020  177.1140  146.1320 C   0  0  0  0  0  0  0  0  0  0  0  0
  188.6770  177.2020  145.2010 C   0  0  0  0  0  0  0  0  0  0  0  0
  188.8250  177.7080  148.3900 N   0  0  0  0  0  1  0  0  0  0  0  0
  190.3350  176.5320  143.5130 C   0  0  0  0  0  3  0  0  0  0  0  0
  189.0060  176.8950  143.8580 C   0  0  0  0  0  0  0  0  0  0  0  0
  189.8470  177.3130  147.4830 C   0  0  0  0  0  0  0  0  0  0  0  0
  186.3080  179.5080  141.3020 N   0  0  0  0  0  2  0  0  0  0  0  0
  182.8710  178.6790  143.6490 C   0  0  0  0  0  3  0  0  0  0  0  0
  182.8510  178.4940  142.2640 C   0  0  0  0  0  3  0  0  0  0  0  0
  183.9920  178.7760  141.5050 C   0  0  0  0  0  3  0  0  0  0  0  0
  185.1700  179.4230  143.5130 C   0  0  0  0  0  3  0  0  0  0  0  0
  184.0310  179.1420  144.2740 C   0  0  0  0  0  3  0  0  0  0  0  0
  185.1570  179.2460  142.1220 C   0  0  0  0  0  0  0  0  0  0  0  0
  188.5510  177.3280  139.1800 N   0  0  0  0  0  2  0  0  0  0  0  0
  188.7470  176.9190  137.7920 C   0  0  1  0  0  3  0  0  0  0  0  0
  190.1630  176.5700  137.4690 C   0  0  2  0  0  3  0  0  0  0  0  0
  189.1970  175.5850  137.7560 O   0  0  0  0  0  0  0  0  0  0  0  0
  191.1410  176.6770  138.6360 C   0  0  0  0  0  2  0  0  0  0  0  0
  192.4560  176.0050  138.2870 C   0  0  0  0  0  2  0  0  0  0  0  0
  193.4680  176.9640  138.1730 O   0  0  0  0  0  0  0  0  0  0  0  0
  194.2210  175.3180  137.0120 C   0  0  0  0  0  1  0  0  0  0  0  0
  194.0500  176.7040  137.0200 O   0  0  0  0  0  0  0  0  0  0  0  0
  1  2  2  0  0  0  0
  2 16  1  0  0  0  0
  2  3  1  0  0  0  0
  3  4  1  0  0  0  0
  4 14  1  0  0  0  0
  6 10  1  0  0  0  0
  6  9  1  0  0  0  0
  8  6  2  0  0  0  0
  9  5  1  0  0  0  0
 10 15  2  0  0  0  0
 11  7  2  0  0  0  0
 11 10  1  0  0  0  0
 13 14  2  0  0  0  0
 13  8  1  0  0  0  0
 14 11  1  0  0  0  0
 15  5  1  0  0  0  0
 15 12  1  0  0  0  0
 16 22  1  0  0  0  0
 17 21  1  0  0  0  0
 18 17  2  0  0  0  0
 19 22  2  0  0  0  0
 19 18  1  0  0  0  0
 20 21  2  0  0  0  0
 22 20  1  0  0  0  0
 23  1  1  0  0  0  0
 24 23  1  1  0  0  0
 25 26  1  0  0  0  0
 25 24  1  0  0  0  0
 25 27  1  1  0  0  0
 26 24  1  0  0  0  0
 28 27  1  0  0  0  0
 29 28  1  0  0  0  0
 30 31  1  0  0  0  0
 31 29  1  0  0  0  0
M  END
>  <MODEL>
3

>  <REMARK>
 VINA RESULT:      -7.5      2.975      6.180
  Name = 
  11 active torsions:
  status: ('A' for Active; 'I' for Inactive)
    1  A    between atoms: C_1  and  C_9
    2  A    between atoms: C_1  and  O_10
    3  A    between atoms: C_9  and  C_30
    4  A    between atoms: O_10  and  O_13
    5  A    between atoms: C_17  and  N_21
    6  A    between atoms: C_17  and  C_25
    7  A    between atoms: C_20  and  N_24
    8  A    between atoms: N_21  and  C_22
    9  A    between atoms: C_22  and  N_23
   10  A    between atoms: N_23  and  C_28
   11  A    between atoms: N_24  and  C_29
                            x       y       z     vdW  Elec       q    Type
                         _______ _______ _______ _____ _____    ______ ____

>  <TORSDO>
F 11

$$$$
=
 OpenBabel10222420263D

 31 34  0  0  1  0  0  0  0  0999 V2000
  187.8270  178.2840  139.2440 C   0  0  0  0  0  3  0  0  0  0  0  0
  189.1070  178.0230  139.5490 C   0  0  0  0  0  0  0  0  0  0  0  0
  189.5310  177.9780  140.9120 N   0  0  0  0  0  2  0  0  0  0  0  0
  189.7260  176.7290  141.6300 C   0  0  0  0  0  2  0  0  0  0  0  0
  189.6540  177.1620  147.5520 O   0  0  0  0  0  0  0  0  0  0  0  0
  188.6330  177.2560  145.7010 C   0  0  0  0  0  0  0  0  0  0  0  0
  191.6250  176.5150  143.7810 N   0  0  0  0  0  2  0  0  0  0  0  0
  187.6860  177.3790  144.7430 N   0  0  0  0  0  0  0  0  0  0  0  0
  188.4700  177.3700  147.0290 N   0  0  0  0  0  2  0  0  0  0  0  0
  189.9880  176.9620  145.3880 C   0  0  0  0  0  0  0  0  0  0  0  0
  190.3960  176.7920  144.0730 C   0  0  0  0  0  0  0  0  0  0  0  0
  191.9440  176.6600  146.9070 N   0  0  0  0  0  1  0  0  0  0  0  0
  188.0590  177.2170  143.4360 C   0  0  0  0  0  3  0  0  0  0  0  0
  189.4010  176.9300  143.0730 C   0  0  0  0  0  0  0  0  0  0  0  0
  190.5730  176.9200  146.6290 C   0  0  0  0  0  0  0  0  0  0  0  0
  190.0820  177.8050  138.5140 N   0  0  0  0  0  2  0  0  0  0  0  0
  191.7380  174.1390  137.1600 C   0  0  0  0  0  3  0  0  0  0  0  0
  190.3590  174.3580  137.1180 C   0  0  0  0  0  3  0  0  0  0  0  0
  189.8290  175.5710  137.5720 C   0  0  0  0  0  3  0  0  0  0  0  0
  192.0550  176.3450  138.1060 C   0  0  0  0  0  3  0  0  0  0  0  0
  192.5870  175.1330  137.6530 C   0  0  0  0  0  3  0  0  0  0  0  0
  190.6710  176.5700  138.0720 C   0  0  0  0  0  0  0  0  0  0  0  0
  186.7700  178.5200  140.1880 N   0  0  0  0  0  2  0  0  0  0  0  0
  185.3400  178.5240  139.8930 C   0  0  1  0  0  3  0  0  0  0  0  0
  184.4910  178.8880  141.0670 C   0  0  2  0  0  3  0  0  0  0  0  0
  184.8290  179.8240  140.0690 O   0  0  0  0  0  0  0  0  0  0  0  0
  185.2570  179.2120  142.3460 C   0  0  0  0  0  2  0  0  0  0  0  0
  184.2930  179.4380  143.4970 C   0  0  0  0  0  2  0  0  0  0  0  0
  184.9910  179.4450  144.7100 O   0  0  0  0  0  0  0  0  0  0  0  0
  184.8140  178.4060  146.5850 C   0  0  0  0  0  1  0  0  0  0  0  0
  184.0950  179.1070  145.6150 O   0  0  0  0  0  0  0  0  0  0  0  0
  1  2  2  0  0  0  0
  1 23  1  0  0  0  0
  2  3  1  0  0  0  0
  3  4  1  0  0  0  0
  4 14  1  0  0  0  0
  6  9  1  0  0  0  0
  7 11  2  0  0  0  0
  8  6  2  0  0  0  0
  9  5  1  0  0  0  0
 10  6  1  0  0  0  0
 10 15  2  0  0  0  0
 11 10  1  0  0  0  0
 13  8  1  0  0  0  0
 14 13  2  0  0  0  0
 14 11  1  0  0  0  0
 15 12  1  0  0  0  0
 15  5  1  0  0  0  0
 16  2  1  0  0  0  0
 17 21  1  0  0  0  0
 18 17  2  0  0  0  0
 18 19  1  0  0  0  0
 19 22  2  0  0  0  0
 21 20  2  0  0  0  0
 22 20  1  0  0  0  0
 22 16  1  0  0  0  0
 24 26  1  0  0  0  0
 24 23  1  1  0  0  0
 24 25  1  0  0  0  0
 25 27  1  1  0  0  0
 26 25  1  0  0  0  0
 27 28  1  0  0  0  0
 28 29  1  0  0  0  0
 29 31  1  0  0  0  0
 31 30  1  0  0  0  0
M  END
>  <MODEL>
4

>  <REMARK>
 VINA RESULT:      -7.5      2.445      5.537
  Name = 
  11 active torsions:
  status: ('A' for Active; 'I' for Inactive)
    1  A    between atoms: C_1  and  C_9
    2  A    between atoms: C_1  and  O_10
    3  A    between atoms: C_9  and  C_30
    4  A    between atoms: O_10  and  O_13
    5  A    between atoms: C_17  and  N_21
    6  A    between atoms: C_17  and  C_25
    7  A    between atoms: C_20  and  N_24
    8  A    between atoms: N_21  and  C_22
    9  A    between atoms: C_22  and  N_23
   10  A    between atoms: N_23  and  C_28
   11  A    between atoms: N_24  and  C_29
                            x       y       z     vdW  Elec       q    Type
                         _______ _______ _______ _____ _____    ______ ____

>  <TORSDO>
F 11

$$$$
=
 OpenBabel10222420263D

 31 34  0  0  1  0  0  0  0  0999 V2000
  190.8530  177.0680  141.1810 C   0  0  0  0  0  3  0  0  0  0  0  0
  190.3350  177.1030  142.4180 C   0  0  0  0  0  0  0  0  0  0  0  0
  188.9860  176.6960  142.6500 N   0  0  0  0  0  2  0  0  0  0  0  0
  187.8450  177.4770  142.2020 C   0  0  0  0  0  2  0  0  0  0  0  0
  183.5080  179.0620  145.9360 O   0  0  0  0  0  0  0  0  0  0  0  0
  185.4880  178.3850  145.6170 C   0  0  0  0  0  0  0  0  0  0  0  0
  185.1070  178.3390  142.0070 N   0  0  0  0  0  2  0  0  0  0  0  0
  186.7660  177.9780  145.7890 N   0  0  0  0  0  0  0  0  0  0  0  0
  184.6060  178.7290  146.5710 N   0  0  0  0  0  2  0  0  0  0  0  0
  184.9030  178.5120  144.3280 C   0  0  0  0  0  0  0  0  0  0  0  0
  185.6290  178.2170  143.1830 C   0  0  0  0  0  0  0  0  0  0  0  0
  182.6060  179.2430  143.6860 N   0  0  0  0  0  1  0  0  0  0  0  0
  187.5070  177.6790  144.6770 C   0  0  0  0  0  3  0  0  0  0  0  0
  186.9650  177.7830  143.3690 C   0  0  0  0  0  0  0  0  0  0  0  0
  183.6360  178.9500  144.6230 C   0  0  0  0  0  0  0  0  0  0  0  0
  191.1180  177.5700  143.5320 N   0  0  0  0  0  2  0  0  0  0  0  0
  191.4840  175.9020  147.4170 C   0  0  0  0  0  3  0  0  0  0  0  0
  190.7230  177.0540  147.2040 C   0  0  0  0  0  3  0  0  0  0  0  0
  190.6150  177.5930  145.9170 C   0  0  0  0  0  3  0  0  0  0  0  0
  192.0270  175.8290  145.0590 C   0  0  0  0  0  3  0  0  0  0  0  0
  192.1360  175.2880  146.3450 C   0  0  0  0  0  3  0  0  0  0  0  0
  191.2690  176.9880  144.8380 C   0  0  0  0  0  0  0  0  0  0  0  0
  190.1690  176.6260  139.9970 N   0  0  0  0  0  2  0  0  0  0  0  0
  190.7870  176.3420  138.7040 C   0  0  1  0  0  3  0  0  0  0  0  0
  189.8030  176.2360  137.5860 C   0  0  2  0  0  3  0  0  0  0  0  0
  190.5410  177.4130  137.8230 O   0  0  0  0  0  0  0  0  0  0  0  0
  188.3460  176.4640  137.9790 C   0  0  0  0  0  2  0  0  0  0  0  0
  187.7350  177.5670  137.1340 C   0  0  0  0  0  2  0  0  0  0  0  0
  187.5430  178.7140  137.9120 O   0  0  0  0  0  0  0  0  0  0  0  0
  185.4560  178.4200  138.3410 C   0  0  0  0  0  1  0  0  0  0  0  0
  186.7400  178.3310  138.8830 O   0  0  0  0  0  0  0  0  0  0  0  0
  1  2  2  0  0  0  0
  2  3  1  0  0  0  0
  2 16  1  0  0  0  0
  4  3  1  0  0  0  0
  4 14  1  0  0  0  0
  5  9  1  0  0  0  0
  6  8  2  0  0  0  0
  6  9  1  0  0  0  0
  7 11  2  0  0  0  0
 10 15  2  0  0  0  0
 10  6  1  0  0  0  0
 11 14  1  0  0  0  0
 11 10  1  0  0  0  0
 12 15  1  0  0  0  0
 13  8  1  0  0  0  0
 14 13  2  0  0  0  0
 15  5  1  0  0  0  0
 16 22  1  0  0  0  0
 18 17  1  0  0  0  0
 19 18  2  0  0  0  0
 20 21  1  0  0  0  0
 21 17  2  0  0  0  0
 22 20  2  0  0  0  0
 22 19  1  0  0  0  0
 23  1  1  0  0  0  0
 24 23  1  1  0  0  0
 25 26  1  0  0  0  0
 25 27  1  1  0  0  0
 25 24  1  0  0  0  0
 26 24  1  0  0  0  0
 28 29  1  0  0  0  0
 28 27  1  0  0  0  0
 29 31  1  0  0  0  0
 30 31  1  0  0  0  0
M  END
>  <MODEL>
5

>  <REMARK>
 VINA RESULT:      -7.5      1.194      1.531
  Name = 
  11 active torsions:
  status: ('A' for Active; 'I' for Inactive)
    1  A    between atoms: C_1  and  C_9
    2  A    between atoms: C_1  and  O_10
    3  A    between atoms: C_9  and  C_30
    4  A    between atoms: O_10  and  O_13
    5  A    between atoms: C_17  and  N_21
    6  A    between atoms: C_17  and  C_25
    7  A    between atoms: C_20  and  N_24
    8  A    between atoms: N_21  and  C_22
    9  A    between atoms: C_22  and  N_23
   10  A    between atoms: N_23  and  C_28
   11  A    between atoms: N_24  and  C_29
                            x       y       z     vdW  Elec       q    Type
                         _______ _______ _______ _____ _____    ______ ____

>  <TORSDO>
F 11

$$$$
=
 OpenBabel10222420263D

 31 34  0  0  1  0  0  0  0  0999 V2000
  188.0220  177.6350  139.2370 C   0  0  0  0  0  3  0  0  0  0  0  0
  188.9350  177.2760  140.1520 C   0  0  0  0  0  0  0  0  0  0  0  0
  188.9350  177.8750  141.4480 N   0  0  0  0  0  2  0  0  0  0  0  0
  188.2450  177.2840  142.5830 C   0  0  0  0  0  2  0  0  0  0  0  0
  191.1320  176.9950  147.7640 O   0  0  0  0  0  0  0  0  0  0  0  0
  191.1270  176.7650  145.6610 C   0  0  0  0  0  0  0  0  0  0  0  0
  187.6350  177.7170  145.3620 N   0  0  0  0  0  2  0  0  0  0  0  0
  191.4850  176.5350  144.3770 N   0  0  0  0  0  0  0  0  0  0  0  0
  191.9020  176.6710  146.7540 N   0  0  0  0  0  2  0  0  0  0  0  0
  189.8110  177.1690  146.0150 C   0  0  0  0  0  0  0  0  0  0  0  0
  188.8320  177.3410  145.0470 C   0  0  0  0  0  0  0  0  0  0  0  0
  188.8530  177.6790  148.2610 N   0  0  0  0  0  1  0  0  0  0  0  0
  190.5400  176.6970  143.4000 C   0  0  0  0  0  3  0  0  0  0  0  0
  189.2110  177.0910  143.7050 C   0  0  0  0  0  0  0  0  0  0  0  0
  189.9000  177.2930  147.3800 C   0  0  0  0  0  0  0  0  0  0  0  0
  189.9450  176.2980  139.8420 N   0  0  0  0  0  2  0  0  0  0  0  0
  192.3810  175.9260  136.3880 C   0  0  0  0  0  3  0  0  0  0  0  0
  192.8780  176.5200  137.5510 C   0  0  0  0  0  3  0  0  0  0  0  0
  192.0600  176.6380  138.6800 C   0  0  0  0  0  3  0  0  0  0  0  0
  190.2530  175.5670  137.4840 C   0  0  0  0  0  3  0  0  0  0  0  0
  191.0690  175.4490  136.3540 C   0  0  0  0  0  3  0  0  0  0  0  0
  190.7420  176.1670  138.6540 C   0  0  0  0  0  0  0  0  0  0  0  0
  186.9730  178.5970  139.4310 N   0  0  0  0  0  2  0  0  0  0  0  0
  185.6000  178.4800  138.9470 C   0  0  1  0  0  3  0  0  0  0  0  0
  184.5740  178.6960  140.0100 C   0  0  2  0  0  3  0  0  0  0  0  0
  184.9400  179.7140  139.1070 O   0  0  0  0  0  0  0  0  0  0  0  0
  185.1300  179.0210  141.3930 C   0  0  0  0  0  2  0  0  0  0  0  0
  184.4040  178.2190  142.4580 C   0  0  0  0  0  2  0  0  0  0  0  0
  183.5000  179.0400  143.1410 O   0  0  0  0  0  0  0  0  0  0  0  0
  184.1990  179.0570  145.1750 C   0  0  0  0  0  1  0  0  0  0  0  0
  184.2450  179.7490  143.9630 O   0  0  0  0  0  0  0  0  0  0  0  0
  1 23  1  0  0  0  0
  1  2  2  0  0  0  0
  2  3  1  0  0  0  0
  3  4  1  0  0  0  0
  4 14  1  0  0  0  0
  6 10  1  0  0  0  0
  6  9  1  0  0  0  0
  8  6  2  0  0  0  0
  9  5  1  0  0  0  0
 10 15  2  0  0  0  0
 11  7  2  0  0  0  0
 11 10  1  0  0  0  0
 13 14  2  0  0  0  0
 13  8  1  0  0  0  0
 14 11  1  0  0  0  0
 15  5  1  0  0  0  0
 15 12  1  0  0  0  0
 16  2  1  0  0  0  0
 17 18  1  0  0  0  0
 18 19  2  0  0  0  0
 20 22  2  0  0  0  0
 21 17  2  0  0  0  0
 21 20  1  0  0  0  0
 22 19  1  0  0  0  0
 22 16  1  0  0  0  0
 24 26  1  0  0  0  0
 24 23  1  1  0  0  0
 24 25  1  0  0  0  0
 25 27  1  1  0  0  0
 26 25  1  0  0  0  0
 27 28  1  0  0  0  0
 28 29  1  0  0  0  0
 29 31  1  0  0  0  0
 31 30  1  0  0  0  0
M  END
>  <MODEL>
6

>  <REMARK>
 VINA RESULT:      -7.4      2.580      5.270
  Name = 
  11 active torsions:
  status: ('A' for Active; 'I' for Inactive)
    1  A    between atoms: C_1  and  C_9
    2  A    between atoms: C_1  and  O_10
    3  A    between atoms: C_9  and  C_30
    4  A    between atoms: O_10  and  O_13
    5  A    between atoms: C_17  and  N_21
    6  A    between atoms: C_17  and  C_25
    7  A    between atoms: C_20  and  N_24
    8  A    between atoms: N_21  and  C_22
    9  A    between atoms: C_22  and  N_23
   10  A    between atoms: N_23  and  C_28
   11  A    between atoms: N_24  and  C_29
                            x       y       z     vdW  Elec       q    Type
                         _______ _______ _______ _____ _____    ______ ____

>  <TORSDO>
F 11

$$$$
=
 OpenBabel10222420263D

 31 34  0  0  1  0  0  0  0  0999 V2000
  186.7100  178.7480  140.6980 C   0  0  0  0  0  3  0  0  0  0  0  0
  188.0110  178.4470  140.5630 C   0  0  0  0  0  0  0  0  0  0  0  0
  188.7880  178.0710  141.7010 N   0  0  0  0  0  2  0  0  0  0  0  0
  188.7000  176.7530  142.3080 C   0  0  0  0  0  2  0  0  0  0  0  0
  191.1750  176.9530  147.7020 O   0  0  0  0  0  0  0  0  0  0  0  0
  191.3600  176.6380  145.6170 C   0  0  0  0  0  0  0  0  0  0  0  0
  187.8320  177.2380  145.0080 N   0  0  0  0  0  2  0  0  0  0  0  0
  191.8410  176.3920  144.3770 N   0  0  0  0  0  0  0  0  0  0  0  0
  192.0500  176.6630  146.7700 N   0  0  0  0  0  2  0  0  0  0  0  0
  189.9880  176.9290  145.8510 C   0  0  0  0  0  0  0  0  0  0  0  0
  189.0790  176.9660  144.8040 C   0  0  0  0  0  0  0  0  0  0  0  0
  188.8100  177.4360  147.9900 N   0  0  0  0  0  1  0  0  0  0  0  0
  190.9660  176.4220  143.3240 C   0  0  0  0  0  3  0  0  0  0  0  0
  189.5860  176.6990  143.5080 C   0  0  0  0  0  0  0  0  0  0  0  0
  189.9570  177.1160  147.2100 C   0  0  0  0  0  0  0  0  0  0  0  0
  188.6550  178.5170  139.2780 N   0  0  0  0  0  2  0  0  0  0  0  0
  189.7100  175.3710  136.6330 C   0  0  0  0  0  3  0  0  0  0  0  0
  190.6930  176.1780  137.2090 C   0  0  0  0  0  3  0  0  0  0  0  0
  190.3280  177.2140  138.0760 C   0  0  0  0  0  3  0  0  0  0  0  0
  188.0000  176.6310  137.7930 C   0  0  0  0  0  3  0  0  0  0  0  0
  188.3630  175.5960  136.9260 C   0  0  0  0  0  3  0  0  0  0  0  0
  188.9810  177.4510  138.3710 C   0  0  0  0  0  0  0  0  0  0  0  0
  185.9640  178.7150  141.9250 N   0  0  0  0  0  2  0  0  0  0  0  0
  184.6960  178.0240  142.1410 C   0  0  1  0  0  3  0  0  0  0  0  0
  183.8790  178.6110  143.2450 C   0  0  2  0  0  3  0  0  0  0  0  0
  183.6310  178.9100  141.8910 O   0  0  0  0  0  0  0  0  0  0  0  0
  184.4920  179.8290  143.9300 C   0  0  0  0  0  2  0  0  0  0  0  0
  185.0150  179.4570  145.3050 C   0  0  0  0  0  2  0  0  0  0  0  0
  183.9960  178.8640  146.0590 O   0  0  0  0  0  0  0  0  0  0  0  0
  185.8350  179.0380  147.1610 C   0  0  0  0  0  1  0  0  0  0  0  0
  184.6020  178.3820  147.1250 O   0  0  0  0  0  0  0  0  0  0  0  0
  1 23  1  0  0  0  0
  2  1  2  0  0  0  0
  2  3  1  0  0  0  0
  3  4  1  0  0  0  0
  4 14  1  0  0  0  0
  6 10  1  0  0  0  0
  6  9  1  0  0  0  0
  8  6  2  0  0  0  0
  9  5  1  0  0  0  0
 10 15  2  0  0  0  0
 11  7  2  0  0  0  0
 11 10  1  0  0  0  0
 13 14  2  0  0  0  0
 13  8  1  0  0  0  0
 14 11  1  0  0  0  0
 15  5  1  0  0  0  0
 15 12  1  0  0  0  0
 16  2  1  0  0  0  0
 17 21  2  0  0  0  0
 17 18  1  0  0  0  0
 18 19  2  0  0  0  0
 19 22  1  0  0  0  0
 20 22  2  0  0  0  0
 21 20  1  0  0  0  0
 22 16  1  0  0  0  0
 24 23  1  1  0  0  0
 24 25  1  0  0  0  0
 25 27  1  1  0  0  0
 26 24  1  0  0  0  0
 26 25  1  0  0  0  0
 27 28  1  0  0  0  0
 28 29  1  0  0  0  0
 29 31  1  0  0  0  0
 31 30  1  0  0  0  0
M  END
>  <MODEL>
7

>  <REMARK>
 VINA RESULT:      -7.4      2.331      6.221
  Name = 
  11 active torsions:
  status: ('A' for Active; 'I' for Inactive)
    1  A    between atoms: C_1  and  C_9
    2  A    between atoms: C_1  and  O_10
    3  A    between atoms: C_9  and  C_30
    4  A    between atoms: O_10  and  O_13
    5  A    between atoms: C_17  and  N_21
    6  A    between atoms: C_17  and  C_25
    7  A    between atoms: C_20  and  N_24
    8  A    between atoms: N_21  and  C_22
    9  A    between atoms: C_22  and  N_23
   10  A    between atoms: N_23  and  C_28
   11  A    between atoms: N_24  and  C_29
                            x       y       z     vdW  Elec       q    Type
                         _______ _______ _______ _____ _____    ______ ____

>  <TORSDO>
F 11

$$$$
=
 OpenBabel10222420263D

 31 34  0  0  1  0  0  0  0  0999 V2000
  185.9790  178.6160  141.4830 C   0  0  0  0  0  3  0  0  0  0  0  0
  187.3060  178.4840  141.3370 C   0  0  0  0  0  0  0  0  0  0  0  0
  188.1270  178.1460  142.4550 N   0  0  0  0  0  2  0  0  0  0  0  0
  188.3530  176.7720  142.8730 C   0  0  0  0  0  2  0  0  0  0  0  0
  191.1530  177.2150  148.0900 O   0  0  0  0  0  0  0  0  0  0  0  0
  191.1960  176.7400  146.0290 C   0  0  0  0  0  0  0  0  0  0  0  0
  187.6750  177.5010  145.5730 N   0  0  0  0  0  2  0  0  0  0  0  0
  191.5870  176.3770  144.7860 N   0  0  0  0  0  0  0  0  0  0  0  0
  191.9540  176.8080  147.1360 N   0  0  0  0  0  2  0  0  0  0  0  0
  189.8580  177.1270  146.3150 C   0  0  0  0  0  0  0  0  0  0  0  0
  188.8920  177.1420  145.3200 C   0  0  0  0  0  0  0  0  0  0  0  0
  188.8390  177.8550  148.4720 N   0  0  0  0  0  1  0  0  0  0  0  0
  190.6540  176.3830  143.7840 C   0  0  0  0  0  3  0  0  0  0  0  0
  189.3050  176.7530  144.0220 C   0  0  0  0  0  0  0  0  0  0  0  0
  189.9180  177.4140  147.6570 C   0  0  0  0  0  0  0  0  0  0  0  0
  187.9330  178.7010  140.0590 N   0  0  0  0  0  2  0  0  0  0  0  0
  190.1080  175.9330  137.6900 C   0  0  0  0  0  3  0  0  0  0  0  0
  190.7140  176.5800  138.7690 C   0  0  0  0  0  3  0  0  0  0  0  0
  189.9840  177.4920  139.5380 C   0  0  0  0  0  3  0  0  0  0  0  0
  188.0430  177.1090  138.1510 C   0  0  0  0  0  3  0  0  0  0  0  0
  188.7710  176.1960  137.3800 C   0  0  0  0  0  3  0  0  0  0  0  0
  188.6460  177.7670  139.2330 C   0  0  0  0  0  0  0  0  0  0  0  0
  185.2460  178.4280  142.7040 N   0  0  0  0  0  2  0  0  0  0  0  0
  184.9950  179.4460  143.7210 C   0  0  1  0  0  3  0  0  0  0  0  0
  183.5470  179.6150  144.0470 C   0  0  2  0  0  3  0  0  0  0  0  0
  184.4100  178.8440  144.8510 O   0  0  0  0  0  0  0  0  0  0  0  0
  182.5980  178.6920  143.2900 C   0  0  0  0  0  2  0  0  0  0  0  0
  181.1900  179.2600  143.2940 C   0  0  0  0  0  2  0  0  0  0  0  0
  180.2670  178.2540  142.9910 O   0  0  0  0  0  0  0  0  0  0  0  0
  178.9310  179.3530  144.2690 C   0  0  0  0  0  1  0  0  0  0  0  0
  179.5500  178.1150  144.0870 O   0  0  0  0  0  0  0  0  0  0  0  0
  1 23  1  0  0  0  0
  2  1  2  0  0  0  0
  2  3  1  0  0  0  0
  3  4  1  0  0  0  0
  4 14  1  0  0  0  0
  6 10  1  0  0  0  0
  6  9  1  0  0  0  0
  8  6  2  0  0  0  0
  9  5  1  0  0  0  0
 10 15  2  0  0  0  0
 11  7  2  0  0  0  0
 11 10  1  0  0  0  0
 13 14  2  0  0  0  0
 13  8  1  0  0  0  0
 14 11  1  0  0  0  0
 15  5  1  0  0  0  0
 15 12  1  0  0  0  0
 16  2  1  0  0  0  0
 17 18  1  0  0  0  0
 18 19  2  0  0  0  0
 20 22  2  0  0  0  0
 21 17  2  0  0  0  0
 21 20  1  0  0  0  0
 22 19  1  0  0  0  0
 22 16  1  0  0  0  0
 24 23  1  6  0  0  0
 24 25  1  0  0  0  0
 24 26  1  0  0  0  0
 25 27  1  6  0  0  0
 25 26  1  0  0  0  0
 27 28  1  0  0  0  0
 29 28  1  0  0  0  0
 29 31  1  0  0  0  0
 31 30  1  0  0  0  0
M  END
>  <MODEL>
8

>  <REMARK>
 VINA RESULT:      -7.3      2.842      6.067
  Name = 
  11 active torsions:
  status: ('A' for Active; 'I' for Inactive)
    1  A    between atoms: C_1  and  C_9
    2  A    between atoms: C_1  and  O_10
    3  A    between atoms: C_9  and  C_30
    4  A    between atoms: O_10  and  O_13
    5  A    between atoms: C_17  and  N_21
    6  A    between atoms: C_17  and  C_25
    7  A    between atoms: C_20  and  N_24
    8  A    between atoms: N_21  and  C_22
    9  A    between atoms: C_22  and  N_23
   10  A    between atoms: N_23  and  C_28
   11  A    between atoms: N_24  and  C_29
                            x       y       z     vdW  Elec       q    Type
                         _______ _______ _______ _____ _____    ______ ____

>  <TORSDO>
F 11

$$$$
=
 OpenBabel10222420263D

 31 34  0  0  1  0  0  0  0  0999 V2000
  188.5180  177.0220  142.4380 C   0  0  0  0  0  3  0  0  0  0  0  0
  187.3910  177.3940  143.0630 C   0  0  0  0  0  0  0  0  0  0  0  0
  186.4680  178.2780  142.4250 N   0  0  0  0  0  2  0  0  0  0  0  0
  185.4940  179.0610  143.1680 C   0  0  0  0  0  2  0  0  0  0  0  0
  179.7330  178.4370  141.8680 O   0  0  0  0  0  0  0  0  0  0  0  0
  181.7480  178.5460  141.2310 C   0  0  0  0  0  0  0  0  0  0  0  0
  183.0000  179.0440  144.6030 N   0  0  0  0  0  1  0  0  0  0  0  0
  182.8790  178.5510  140.4890 N   0  0  0  0  0  0  0  0  0  0  0  0
  180.4880  178.3790  140.7980 N   0  0  0  0  0  2  0  0  0  0  0  0
  181.7720  178.7150  142.6420 C   0  0  0  0  0  0  0  0  0  0  0  0
  182.9700  178.8980  143.3180 C   0  0  0  0  0  0  0  0  0  0  0  0
  179.8870  178.7380  144.2760 N   0  0  0  0  0  1  0  0  0  0  0  0
  184.0750  178.7290  141.1290 C   0  0  0  0  0  3  0  0  0  0  0  0
  184.1500  178.9100  142.5350 C   0  0  0  0  0  0  0  0  0  0  0  0
  180.4420  178.6330  142.9700 C   0  0  2  0  0  3  0  0  0  0  0  0
  187.0970  176.9310  144.3940 N   0  0  0  0  0  2  0  0  0  0  0  0
  188.7810  178.0800  148.1150 C   0  0  0  0  0  3  0  0  0  0  0  0
  187.4130  178.2290  147.8740 C   0  0  0  0  0  3  0  0  0  0  0  0
  186.8750  177.8490  146.6400 C   0  0  0  0  0  3  0  0  0  0  0  0
  189.0690  177.1670  145.8920 C   0  0  0  0  0  3  0  0  0  0  0  0
  189.6100  177.5480  147.1250 C   0  0  0  0  0  3  0  0  0  0  0  0
  187.6980  177.3200  145.6400 C   0  0  0  0  0  0  0  0  0  0  0  0
  188.9170  177.4210  141.1170 N   0  0  0  0  0  2  0  0  0  0  0  0
  189.9160  176.7580  140.2840 C   0  0  1  0  0  3  0  0  0  0  0  0
  190.0320  177.3430  138.9150 C   0  0  2  0  0  3  0  0  0  0  0  0
  190.9300  177.6760  139.9480 O   0  0  0  0  0  0  0  0  0  0  0  0
  189.1160  178.5310  138.6360 C   0  0  0  0  0  2  0  0  0  0  0  0
  188.2090  178.2340  137.4550 C   0  0  0  0  0  2  0  0  0  0  0  0
  187.1560  179.1540  137.4180 O   0  0  0  0  0  0  0  0  0  0  0  0
  185.5710  177.7130  137.6110 C   0  0  0  0  0  1  0  0  0  0  0  0
  186.2830  178.7020  138.2940 O   0  0  0  0  0  0  0  0  0  0  0  0
  1  2  2  0  0  0  0
  2 16  1  0  0  0  0
  3  2  1  0  0  0  0
  3  4  1  0  0  0  0
  5 15  1  0  0  0  0
  6 10  1  0  0  0  0
  8 13  1  0  0  0  0
  8  6  2  0  0  0  0
  9  6  1  0  0  0  0
  9  5  1  0  0  0  0
 10 15  1  0  0  0  0
 10 11  2  0  0  0  0
 11  7  1  0  0  0  0
 13 14  2  0  0  0  0
 14  4  1  0  0  0  0
 14 11  1  0  0  0  0
 15 12  1  1  0  0  0
 16 22  1  0  0  0  0
 18 17  1  0  0  0  0
 19 18  2  0  0  0  0
 20 21  1  0  0  0  0
 21 17  2  0  0  0  0
 22 20  2  0  0  0  0
 22 19  1  0  0  0  0
 23  1  1  0  0  0  0
 24 23  1  1  0  0  0
 25 27  1  1  0  0  0
 25 26  1  0  0  0  0
 25 24  1  0  0  0  0
 26 24  1  0  0  0  0
 28 27  1  0  0  0  0
 29 28  1  0  0  0  0
 29 31  1  0  0  0  0
 30 31  1  0  0  0  0
M  END
>  <MODEL>
9

>  <REMARK>
 VINA RESULT:      -7.3      2.472      4.247
  Name = 
  11 active torsions:
  status: ('A' for Active; 'I' for Inactive)
    1  A    between atoms: C_1  and  C_9
    2  A    between atoms: C_1  and  O_10
    3  A    between atoms: C_9  and  C_30
    4  A    between atoms: O_10  and  O_13
    5  A    between atoms: C_17  and  N_21
    6  A    between atoms: C_17  and  C_25
    7  A    between atoms: C_20  and  N_24
    8  A    between atoms: N_21  and  C_22
    9  A    between atoms: C_22  and  N_23
   10  A    between atoms: N_23  and  C_28
   11  A    between atoms: N_24  and  C_29
                            x       y       z     vdW  Elec       q    Type
                         _______ _______ _______ _____ _____    ______ ____

>  <TORSDO>
F 11

$$$$
