=
 OpenBabel10222416273D

 38 42  0  0  1  0  0  0  0  0999 V2000
  188.8680  178.3590  141.6540 S   0  0  0  0  0  0  0  0  0  0  0  0
  190.4500  177.2730  138.2230 C   0  0  2  0  0  3  0  0  0  0  0  0
  187.3510  177.9490  139.5120 N   0  0  0  0  0  0  0  0  0  0  0  0
  188.9070  178.8780  137.0790 C   0  0  0  0  0  2  0  0  0  0  0  0
  189.5990  176.9700  139.4670 C   0  0  1  0  0  3  0  0  0  0  0  0
  186.7800  178.1620  138.3610 C   0  0  0  0  0  0  0  0  0  0  0  0
  189.6040  177.5330  136.9810 C   0  0  0  0  0  2  0  0  0  0  0  0
  189.6540  176.7380  141.6810 C   0  0  1  0  0  3  0  0  0  0  0  0
  187.4740  178.6750  137.2120 N   0  0  0  0  0  2  0  0  0  0  0  0
  190.4420  176.6260  140.5350 O   0  0  0  0  0  0  0  0  0  0  0  0
  188.7480  178.1790  139.8610 C   0  0  2  0  0  3  0  0  0  0  0  0
  190.9900  174.9650  137.8770 O   0  0  0  0  0  0  0  0  0  0  0  0
  192.7870  176.4500  137.7400 N   0  0  0  0  0  2  0  0  0  0  0  0
  193.7610  175.4100  137.4540 C   0  0  0  0  0  1  0  0  0  0  0  0
  191.4050  176.1550  137.9370 C   0  0  0  0  0  0  0  0  0  0  0  0
  185.0260  177.8450  138.2160 S   0  0  0  0  0  0  0  0  0  0  0  0
  184.5550  179.3700  139.0990 C   0  0  0  0  0  2  0  0  0  0  0  0
  183.2590  178.4250  141.0840 N   0  0  0  0  0  2  0  0  0  0  0  0
  184.4070  179.1000  140.5620 C   0  0  0  0  0  0  0  0  0  0  0  0
  185.3250  179.4440  141.3500 O   0  0  0  0  0  0  0  0  0  0  0  0
  180.7820  178.3310  141.0160 C   0  0  1  0  0  3  0  0  0  0  0  0
  181.1930  179.2150  139.8310 C   0  0  2  0  0  0  0  0  0  0  0  0
  182.0790  178.0820  140.3000 C   0  0  1  0  0  0  0  0  0  0  0  0
  182.1050  176.8900  139.5730 O   0  0  0  0  0  1  0  0  0  0  0  0
  180.4220  179.8010  140.9990 C   0  0  0  0  0  2  0  0  0  0  0  0
  180.8290  179.6520  137.1450 S   0  0  0  0  0  1  0  0  0  0  0  0
  180.2810  178.8390  138.6750 C   0  0  0  0  0  2  0  0  0  0  0  0
  190.5120  176.6050  142.9280 C   0  0  0  0  0  2  0  0  0  0  0  0
  189.6500  176.5900  144.1790 C   0  0  0  0  0  2  0  0  0  0  0  0
  190.2130  177.5440  145.2300 C   0  0  2  0  0  3  0  0  0  0  0  0
  191.3340  176.8050  145.9540 C   0  0  0  0  0  1  0  0  0  0  0  0
  189.3240  177.2110  147.4230 C   0  0  0  0  0  2  0  0  0  0  0  0
  185.9200  178.9720  145.9240 O   0  0  0  0  0  1  0  0  0  0  0  0
  186.7010  178.0020  146.5480 C   0  0  1  0  0  3  0  0  0  0  0  0
  187.8540  177.5880  145.6180 C   0  0  0  0  0  2  0  0  0  0  0  0
  187.2000  178.5380  147.8920 C   0  0  0  0  0  2  0  0  0  0  0  0
  189.1640  177.9630  146.1700 N   0  0  0  0  0  0  0  0  0  0  0  0
  188.2880  177.6340  148.4740 C   0  0  0  0  0  2  0  0  0  0  0  0
  1  8  1  0  0  0  0
  2 15  1  6  0  0  0
  2  5  1  0  0  0  0
  4  9  1  0  0  0  0
  5 11  1  0  0  0  0
  5 10  1  1  0  0  0
  6  3  2  0  0  0  0
  7  4  1  0  0  0  0
  7  2  1  0  0  0  0
  8 28  1  1  0  0  0
  9  6  1  0  0  0  0
 10  8  1  0  0  0  0
 11  3  1  1  0  0  0
 11  1  1  0  0  0  0
 12 15  2  0  0  0  0
 13 15  1  0  0  0  0
 14 13  1  0  0  0  0
 16  6  1  0  0  0  0
 16 17  1  0  0  0  0
 17 19  1  0  0  0  0
 19 18  1  0  0  0  0
 19 20  2  0  0  0  0
 21 25  1  1  0  0  0
 22 27  1  6  0  0  0
 22 23  1  0  0  0  0
 22 25  1  0  0  0  0
 22 21  1  0  0  0  0
 23 24  1  6  0  0  0
 23 21  1  0  0  0  0
 23 18  1  0  0  0  0
 26 27  1  0  0  0  0
 28 29  1  0  0  0  0
 29 30  1  0  0  0  0
 30 31  1  1  0  0  0
 30 37  1  0  0  0  0
 32 38  1  0  0  0  0
 34 33  1  6  0  0  0
 34 36  1  0  0  0  0
 35 37  1  0  0  0  0
 35 34  1  0  0  0  0
 36 38  1  0  0  0  0
 37 32  1  0  0  0  0
M  END
>  <MODEL>
1

>  <REMARK>
 VINA RESULT:      -8.4      0.000      0.000
  Name = 
  10 active torsions:
  status: ('A' for Active; 'I' for Inactive)
    1  A    between atoms: C_5  and  C_38
    2  A    between atoms: S_9  and  C_20
    3  A    between atoms: S_9  and  C_29
    4  A    between atoms: C_10  and  C_16
    5  A    between atoms: C_13  and  N_15
    6  A    between atoms: C_21  and  C_31
    7  A    between atoms: C_21  and  C_32
    8  A    between atoms: C_25  and  C_32
    9  A    between atoms: C_26  and  C_29
   10  A    between atoms: N_27  and  C_31
                            x       y       z     vdW  Elec       q    Type
                         _______ _______ _______ _____ _____    ______ ____

>  <TORSDO>
F 10

$$$$
=
 OpenBabel10222416273D

 38 42  0  0  1  0  0  0  0  0999 V2000
  188.6660  178.3610  141.3010 S   0  0  0  0  0  0  0  0  0  0  0  0
  190.5010  177.0880  138.0660 C   0  0  2  0  0  3  0  0  0  0  0  0
  187.3110  177.8060  139.0840 N   0  0  0  0  0  0  0  0  0  0  0  0
  189.0350  178.6030  136.7170 C   0  0  0  0  0  2  0  0  0  0  0  0
  189.5640  176.8510  139.2610 C   0  0  1  0  0  3  0  0  0  0  0  0
  186.8240  177.9420  137.8840 C   0  0  0  0  0  0  0  0  0  0  0  0
  189.7460  177.2630  136.7530 C   0  0  0  0  0  2  0  0  0  0  0  0
  189.4590  176.7530  141.4840 C   0  0  1  0  0  3  0  0  0  0  0  0
  187.5970  178.3930  136.7590 N   0  0  0  0  0  2  0  0  0  0  0  0
  190.3290  176.5820  140.4060 O   0  0  0  0  0  0  0  0  0  0  0  0
  188.6780  178.0720  139.5190 C   0  0  2  0  0  3  0  0  0  0  0  0
  191.0810  174.7700  137.8920 O   0  0  0  0  0  0  0  0  0  0  0  0
  192.8740  176.2640  137.8150 N   0  0  0  0  0  2  0  0  0  0  0  0
  193.8730  175.2190  137.6650 C   0  0  0  0  0  1  0  0  0  0  0  0
  191.4820  175.9660  137.9190 C   0  0  0  0  0  0  0  0  0  0  0  0
  185.0880  177.5970  137.6320 S   0  0  0  0  0  0  0  0  0  0  0  0
  184.6000  178.2360  139.2700 C   0  0  0  0  0  2  0  0  0  0  0  0
  182.3800  179.4940  139.2390 N   0  0  0  0  0  2  0  0  0  0  0  0
  183.8050  179.4940  139.1220 C   0  0  0  0  0  0  0  0  0  0  0  0
  184.4030  180.5820  138.9220 O   0  0  0  0  0  0  0  0  0  0  0  0
  180.2230  178.4050  138.6820 C   0  0  1  0  0  3  0  0  0  0  0  0
  181.3070  177.4960  138.0900 C   0  0  2  0  0  0  0  0  0  0  0  0
  181.5630  178.2910  139.3510 C   0  0  1  0  0  0  0  0  0  0  0  0
  181.5270  177.6420  140.5880 O   0  0  0  0  0  1  0  0  0  0  0  0
  180.3450  178.2380  137.1830 C   0  0  0  0  0  2  0  0  0  0  0  0
  182.1170  174.8930  137.7580 S   0  0  0  0  0  1  0  0  0  0  0  0
  180.8620  176.0660  138.3500 C   0  0  0  0  0  2  0  0  0  0  0  0
  190.2250  176.7060  142.7950 C   0  0  0  0  0  2  0  0  0  0  0  0
  189.2850  176.8720  143.9780 C   0  0  0  0  0  2  0  0  0  0  0  0
  189.9550  177.6800  145.0860 C   0  0  2  0  0  3  0  0  0  0  0  0
  191.0690  176.8130  145.6640 C   0  0  0  0  0  1  0  0  0  0  0  0
  189.2340  177.2350  147.3200 C   0  0  0  0  0  2  0  0  0  0  0  0
  185.7320  179.0680  146.1760 O   0  0  0  0  0  1  0  0  0  0  0  0
  186.5540  178.0680  146.6890 C   0  0  1  0  0  3  0  0  0  0  0  0
  187.6320  177.7020  145.6540 C   0  0  0  0  0  2  0  0  0  0  0  0
  187.1560  178.5350  148.0170 C   0  0  0  0  0  2  0  0  0  0  0  0
  188.9810  178.0500  146.1230 N   0  0  0  0  0  0  0  0  0  0  0  0
  188.2820  177.6020  148.4670 C   0  0  0  0  0  2  0  0  0  0  0  0
  1  8  1  0  0  0  0
  2 15  1  6  0  0  0
  2  5  1  0  0  0  0
  4  7  1  0  0  0  0
  4  9  1  0  0  0  0
  5 11  1  0  0  0  0
  5 10  1  1  0  0  0
  6  3  2  0  0  0  0
  7  2  1  0  0  0  0
  8 28  1  1  0  0  0
  9  6  1  0  0  0  0
 10  8  1  0  0  0  0
 11  3  1  1  0  0  0
 11  1  1  0  0  0  0
 12 15  2  0  0  0  0
 13 15  1  0  0  0  0
 14 13  1  0  0  0  0
 16  6  1  0  0  0  0
 16 17  1  0  0  0  0
 18 23  1  0  0  0  0
 19 18  1  0  0  0  0
 19 17  1  0  0  0  0
 20 19  2  0  0  0  0
 21 25  1  6  0  0  0
 21 23  1  0  0  0  0
 22 27  1  1  0  0  0
 22 21  1  0  0  0  0
 22 23  1  0  0  0  0
 23 24  1  1  0  0  0
 25 22  1  0  0  0  0
 26 27  1  0  0  0  0
 28 29  1  0  0  0  0
 29 30  1  0  0  0  0
 30 31  1  1  0  0  0
 30 37  1  0  0  0  0
 32 38  1  0  0  0  0
 34 33  1  6  0  0  0
 34 36  1  0  0  0  0
 35 37  1  0  0  0  0
 35 34  1  0  0  0  0
 36 38  1  0  0  0  0
 37 32  1  0  0  0  0
M  END
>  <MODEL>
2

>  <REMARK>
 VINA RESULT:      -8.2      1.219      1.498
  Name = 
  10 active torsions:
  status: ('A' for Active; 'I' for Inactive)
    1  A    between atoms: C_5  and  C_38
    2  A    between atoms: S_9  and  C_20
    3  A    between atoms: S_9  and  C_29
    4  A    between atoms: C_10  and  C_16
    5  A    between atoms: C_13  and  N_15
    6  A    between atoms: C_21  and  C_31
    7  A    between atoms: C_21  and  C_32
    8  A    between atoms: C_25  and  C_32
    9  A    between atoms: C_26  and  C_29
   10  A    between atoms: N_27  and  C_31
                            x       y       z     vdW  Elec       q    Type
                         _______ _______ _______ _____ _____    ______ ____

>  <TORSDO>
F 10

$$$$
=
 OpenBabel10222416273D

 38 42  0  0  1  0  0  0  0  0999 V2000
  189.0570  178.2440  140.2060 S   0  0  0  0  0  0  0  0  0  0  0  0
  191.2460  176.3430  137.5520 C   0  0  2  0  0  3  0  0  0  0  0  0
  187.9320  176.9120  138.2020 N   0  0  0  0  0  0  0  0  0  0  0  0
  189.7200  177.2120  135.7680 C   0  0  0  0  0  2  0  0  0  0  0  0
  190.2590  176.3400  138.7300 C   0  0  1  0  0  3  0  0  0  0  0  0
  187.5190  176.6370  136.9970 C   0  0  0  0  0  0  0  0  0  0  0  0
  190.5700  176.0380  136.2180 C   0  0  0  0  0  2  0  0  0  0  0  0
  190.0080  176.8690  140.8780 C   0  0  1  0  0  3  0  0  0  0  0  0
  188.3150  176.8420  135.8180 N   0  0  0  0  0  2  0  0  0  0  0  0
  190.9660  176.5090  139.9300 O   0  0  0  0  0  0  0  0  0  0  0  0
  189.2270  177.4620  138.5880 C   0  0  2  0  0  3  0  0  0  0  0  0
  192.1050  174.1220  137.8130 O   0  0  0  0  0  0  0  0  0  0  0  0
  193.6870  175.8350  137.9440 N   0  0  0  0  0  2  0  0  0  0  0  0
  194.8040  174.9290  138.1580 C   0  0  0  0  0  1  0  0  0  0  0  0
  192.3520  175.3590  137.7730 C   0  0  0  0  0  0  0  0  0  0  0  0
  185.8540  176.0190  136.7960 S   0  0  0  0  0  0  0  0  0  0  0  0
  185.0990  177.4040  137.7130 C   0  0  0  0  0  2  0  0  0  0  0  0
  182.7990  178.4650  138.0220 N   0  0  0  0  0  2  0  0  0  0  0  0
  183.6640  177.5630  137.3260 C   0  0  0  0  0  0  0  0  0  0  0  0
  183.2120  176.9150  136.3480 O   0  0  0  0  0  0  0  0  0  0  0  0
  182.0070  179.4330  140.1640 C   0  0  1  0  0  3  0  0  0  0  0  0
  183.0960  178.4230  140.5470 C   0  0  2  0  0  0  0  0  0  0  0  0
  183.1640  179.1810  139.2390 C   0  0  1  0  0  0  0  0  0  0  0  0
  184.0410  180.2610  139.1200 O   0  0  0  0  0  1  0  0  0  0  0  0
  181.6530  178.1880  140.9480 C   0  0  0  0  0  2  0  0  0  0  0  0
  185.4940  178.2080  141.8670 S   0  0  0  0  0  1  0  0  0  0  0  0
  183.9030  179.0620  141.6650 C   0  0  0  0  0  2  0  0  0  0  0  0
  190.6800  177.2960  142.1730 C   0  0  0  0  0  2  0  0  0  0  0  0
  189.7470  177.1020  143.3570 C   0  0  0  0  0  2  0  0  0  0  0  0
  190.2730  177.8460  144.5820 C   0  0  2  0  0  3  0  0  0  0  0  0
  191.4440  177.0370  145.1300 C   0  0  0  0  0  1  0  0  0  0  0  0
  189.4630  177.0390  146.6800 C   0  0  0  0  0  2  0  0  0  0  0  0
  185.9020  178.7770  145.5680 O   0  0  0  0  0  1  0  0  0  0  0  0
  186.7680  177.7730  145.9930 C   0  0  1  0  0  3  0  0  0  0  0  0
  187.9270  177.6310  144.9910 C   0  0  0  0  0  2  0  0  0  0  0  0
  187.2560  178.0850  147.4090 C   0  0  0  0  0  2  0  0  0  0  0  0
  189.2170  177.9970  145.5920 N   0  0  0  0  0  0  0  0  0  0  0  0
  188.4230  177.1750  147.8010 C   0  0  0  0  0  2  0  0  0  0  0  0
  1  8  1  0  0  0  0
  2 15  1  1  0  0  0
  2  5  1  0  0  0  0
  4  9  1  0  0  0  0
  4  7  1  0  0  0  0
  5 10  1  1  0  0  0
  6  3  2  0  0  0  0
  7  2  1  0  0  0  0
  8 28  1  1  0  0  0
  9  6  1  0  0  0  0
 10  8  1  0  0  0  0
 11  3  1  1  0  0  0
 11  5  1  0  0  0  0
 11  1  1  0  0  0  0
 13 14  1  0  0  0  0
 15 12  2  0  0  0  0
 15 13  1  0  0  0  0
 16  6  1  0  0  0  0
 16 17  1  0  0  0  0
 18 23  1  0  0  0  0
 19 17  1  0  0  0  0
 19 18  1  0  0  0  0
 20 19  2  0  0  0  0
 21 22  1  0  0  0  0
 21 25  1  6  0  0  0
 22 25  1  0  0  0  0
 22 27  1  1  0  0  0
 23 24  1  6  0  0  0
 23 21  1  0  0  0  0
 23 22  1  0  0  0  0
 27 26  1  0  0  0  0
 28 29  1  0  0  0  0
 29 30  1  0  0  0  0
 30 31  1  1  0  0  0
 30 37  1  0  0  0  0
 32 38  1  0  0  0  0
 34 33  1  6  0  0  0
 34 36  1  0  0  0  0
 35 37  1  0  0  0  0
 35 34  1  0  0  0  0
 36 38  1  0  0  0  0
 37 32  1  0  0  0  0
M  END
>  <MODEL>
3

>  <REMARK>
 VINA RESULT:      -7.9      1.811      2.380
  Name = 
  10 active torsions:
  status: ('A' for Active; 'I' for Inactive)
    1  A    between atoms: C_5  and  C_38
    2  A    between atoms: S_9  and  C_20
    3  A    between atoms: S_9  and  C_29
    4  A    between atoms: C_10  and  C_16
    5  A    between atoms: C_13  and  N_15
    6  A    between atoms: C_21  and  C_31
    7  A    between atoms: C_21  and  C_32
    8  A    between atoms: C_25  and  C_32
    9  A    between atoms: C_26  and  C_29
   10  A    between atoms: N_27  and  C_31
                            x       y       z     vdW  Elec       q    Type
                         _______ _______ _______ _____ _____    ______ ____

>  <TORSDO>
F 10

$$$$
=
 OpenBabel10222416273D

 38 42  0  0  1  0  0  0  0  0999 V2000
  188.1690  178.5530  140.5700 S   0  0  0  0  0  0  0  0  0  0  0  0
  190.3640  176.9500  137.7290 C   0  0  2  0  0  3  0  0  0  0  0  0
  187.0710  177.6870  138.3110 N   0  0  0  0  0  0  0  0  0  0  0  0
  189.0230  178.2420  136.0550 C   0  0  0  0  0  2  0  0  0  0  0  0
  189.3090  176.8330  138.8400 C   0  0  1  0  0  3  0  0  0  0  0  0
  186.7130  177.6590  137.0590 C   0  0  0  0  0  0  0  0  0  0  0  0
  189.7510  176.9390  136.3330 C   0  0  0  0  0  2  0  0  0  0  0  0
  188.9670  177.0060  141.0340 C   0  0  1  0  0  3  0  0  0  0  0  0
  187.5930  177.9920  135.9730 N   0  0  0  0  0  2  0  0  0  0  0  0
  189.9520  176.7310  140.0830 O   0  0  0  0  0  0  0  0  0  0  0  0
  188.3780  178.0480  138.8490 C   0  0  2  0  0  3  0  0  0  0  0  0
  191.0010  174.6500  137.9320 O   0  0  0  0  0  0  0  0  0  0  0  0
  192.7650  176.1750  137.8050 N   0  0  0  0  0  2  0  0  0  0  0  0
  193.7940  175.1520  137.8910 C   0  0  0  0  0  1  0  0  0  0  0  0
  191.3750  175.8510  137.8270 C   0  0  0  0  0  0  0  0  0  0  0  0
  185.0200  177.2310  136.6730 S   0  0  0  0  0  0  0  0  0  0  0  0
  184.4370  177.4940  138.3820 C   0  0  0  0  0  2  0  0  0  0  0  0
  182.4550  176.7030  139.7800 N   0  0  0  0  0  2  0  0  0  0  0  0
  183.4140  176.4670  138.7470 C   0  0  0  0  0  0  0  0  0  0  0  0
  183.3740  175.3820  138.1110 O   0  0  0  0  0  0  0  0  0  0  0  0
  181.8570  179.0940  140.0630 C   0  0  1  0  0  3  0  0  0  0  0  0
  181.1400  178.3530  141.2000 C   0  0  2  0  0  0  0  0  0  0  0  0
  182.4680  177.8610  140.6670 C   0  0  1  0  0  0  0  0  0  0  0  0
  183.6320  178.1060  141.4000 O   0  0  0  0  0  1  0  0  0  0  0  0
  180.3460  179.0270  140.0980 C   0  0  0  0  0  2  0  0  0  0  0  0
  180.3050  178.5350  143.8090 S   0  0  0  0  0  1  0  0  0  0  0  0
  181.2660  179.2320  142.4330 C   0  0  0  0  0  2  0  0  0  0  0  0
  189.5890  177.1450  142.4140 C   0  0  0  0  0  2  0  0  0  0  0  0
  188.7150  177.9970  143.3190 C   0  0  0  0  0  2  0  0  0  0  0  0
  187.6800  177.1320  144.0340 C   0  0  2  0  0  3  0  0  0  0  0  0
  186.3060  177.6960  143.6880 C   0  0  0  0  0  1  0  0  0  0  0  0
  186.9830  178.1120  146.0990 C   0  0  0  0  0  2  0  0  0  0  0  0
  190.5850  176.7490  147.5500 O   0  0  0  0  0  1  0  0  0  0  0  0
  189.5770  177.6650  147.2590 C   0  0  1  0  0  3  0  0  0  0  0  0
  189.2660  177.6310  145.7530 C   0  0  0  0  0  2  0  0  0  0  0  0
  188.3460  177.3570  148.1160 C   0  0  0  0  0  2  0  0  0  0  0  0
  187.9050  177.1440  145.4860 N   0  0  0  0  0  0  0  0  0  0  0  0
  187.1270  178.1420  147.6270 C   0  0  0  0  0  2  0  0  0  0  0  0
  1  8  1  0  0  0  0
  2 15  1  6  0  0  0
  2  5  1  0  0  0  0
  4  7  1  0  0  0  0
  5 11  1  0  0  0  0
  5 10  1  1  0  0  0
  6  3  2  0  0  0  0
  7  2  1  0  0  0  0
  8 28  1  1  0  0  0
  9  4  1  0  0  0  0
  9  6  1  0  0  0  0
 10  8  1  0  0  0  0
 11  3  1  1  0  0  0
 11  1  1  0  0  0  0
 13 15  1  0  0  0  0
 13 14  1  0  0  0  0
 15 12  2  0  0  0  0
 16  6  1  0  0  0  0
 16 17  1  0  0  0  0
 17 19  1  0  0  0  0
 18 23  1  0  0  0  0
 19 18  1  0  0  0  0
 20 19  2  0  0  0  0
 21 25  1  6  0  0  0
 21 23  1  0  0  0  0
 21 22  1  0  0  0  0
 22 27  1  1  0  0  0
 23 22  1  0  0  0  0
 23 24  1  1  0  0  0
 25 22  1  0  0  0  0
 27 26  1  0  0  0  0
 28 29  1  0  0  0  0
 29 30  1  0  0  0  0
 30 31  1  1  0  0  0
 30 37  1  0  0  0  0
 32 38  1  0  0  0  0
 34 33  1  6  0  0  0
 34 36  1  0  0  0  0
 35 34  1  0  0  0  0
 37 35  1  0  0  0  0
 37 32  1  0  0  0  0
 38 36  1  0  0  0  0
M  END
>  <MODEL>
4

>  <REMARK>
 VINA RESULT:      -7.7      1.929      2.530
  Name = 
  10 active torsions:
  status: ('A' for Active; 'I' for Inactive)
    1  A    between atoms: C_5  and  C_38
    2  A    between atoms: S_9  and  C_20
    3  A    between atoms: S_9  and  C_29
    4  A    between atoms: C_10  and  C_16
    5  A    between atoms: C_13  and  N_15
    6  A    between atoms: C_21  and  C_31
    7  A    between atoms: C_21  and  C_32
    8  A    between atoms: C_25  and  C_32
    9  A    between atoms: C_26  and  C_29
   10  A    between atoms: N_27  and  C_31
                            x       y       z     vdW  Elec       q    Type
                         _______ _______ _______ _____ _____    ______ ____

>  <TORSDO>
F 10

$$$$
=
 OpenBabel10222416273D

 38 42  0  0  1  0  0  0  0  0999 V2000
  183.7610  179.0020  143.9060 S   0  0  0  0  0  0  0  0  0  0  0  0
  186.4160  178.8330  141.0120 C   0  0  2  0  0  3  0  0  0  0  0  0
  183.1760  177.8760  141.5710 N   0  0  0  0  0  0  0  0  0  0  0  0
  184.6010  179.4450  139.4000 C   0  0  0  0  0  2  0  0  0  0  0  0
  185.5580  178.1520  142.0890 C   0  0  1  0  0  3  0  0  0  0  0  0
  182.8580  177.7690  140.3120 C   0  0  0  0  0  0  0  0  0  0  0  0
  185.8640  178.6280  139.6050 C   0  0  0  0  0  2  0  0  0  0  0  0
  185.2040  177.9910  144.2820 C   0  0  1  0  0  3  0  0  0  0  0  0
  183.4610  178.5540  139.2700 N   0  0  0  0  0  2  0  0  0  0  0  0
  186.1880  178.2820  143.3360 O   0  0  0  0  0  0  0  0  0  0  0  0
  184.1620  178.7760  142.1590 C   0  0  2  0  0  3  0  0  0  0  0  0
  188.4290  178.2310  142.1610 O   0  0  0  0  0  0  0  0  0  0  0  0
  188.4920  178.0030  139.8380 N   0  0  0  0  0  2  0  0  0  0  0  0
  189.8610  177.5160  139.8180 C   0  0  0  0  0  1  0  0  0  0  0  0
  187.8300  178.3410  141.0570 C   0  0  0  0  0  0  0  0  0  0  0  0
  181.5660  176.6170  139.8630 S   0  0  0  0  0  0  0  0  0  0  0  0
  182.6820  175.5630  138.8770 C   0  0  0  0  0  2  0  0  0  0  0  0
  182.5310  173.8060  137.0320 N   0  0  0  0  0  2  0  0  0  0  0  0
  181.9040  174.7840  137.8660 C   0  0  0  0  0  0  0  0  0  0  0  0
  180.6630  174.9670  137.7660 O   0  0  0  0  0  0  0  0  0  0  0  0
  184.4750  173.2870  135.5820 C   0  0  1  0  0  3  0  0  0  0  0  0
  184.8110  174.6230  136.2580 C   0  0  2  0  0  0  0  0  0  0  0  0
  183.9710  173.5830  136.9660 C   0  0  1  0  0  0  0  0  0  0  0  0
  184.5540  172.7960  137.9630 O   0  0  0  0  0  1  0  0  0  0  0  0
  184.5880  174.5520  134.7600 C   0  0  0  0  0  2  0  0  0  0  0  0
  186.9520  176.2410  136.8380 S   0  0  0  0  0  1  0  0  0  0  0  0
  186.2860  174.5650  136.6190 C   0  0  0  0  0  2  0  0  0  0  0  0
  185.7030  178.3120  145.6810 C   0  0  0  0  0  2  0  0  0  0  0  0
  187.2220  178.3590  145.7160 C   0  0  0  0  0  2  0  0  0  0  0  0
  187.7650  177.4030  146.7750 C   0  0  2  0  0  3  0  0  0  0  0  0
  187.7310  178.1420  148.1080 C   0  0  0  0  0  1  0  0  0  0  0  0
  189.9770  177.1270  147.6350 C   0  0  0  0  0  2  0  0  0  0  0  0
  191.1240  177.0910  143.6830 O   0  0  0  0  0  1  0  0  0  0  0  0
  191.1080  177.4940  145.0160 C   0  0  1  0  0  3  0  0  0  0  0  0
  189.6760  177.8840  145.4210 C   0  0  0  0  0  2  0  0  0  0  0  0
  191.6790  176.3770  145.8930 C   0  0  0  0  0  2  0  0  0  0  0  0
  189.1310  176.9770  146.4420 N   0  0  0  0  0  0  0  0  0  0  0  0
  191.4130  176.6530  147.3750 C   0  0  0  0  0  2  0  0  0  0  0  0
  1  8  1  0  0  0  0
  2 15  1  6  0  0  0
  2  5  1  0  0  0  0
  4  7  1  0  0  0  0
  5 11  1  0  0  0  0
  5 10  1  1  0  0  0
  6  3  2  0  0  0  0
  7  2  1  0  0  0  0
  8 28  1  1  0  0  0
  9  4  1  0  0  0  0
  9  6  1  0  0  0  0
 10  8  1  0  0  0  0
 11  3  1  1  0  0  0
 11  1  1  0  0  0  0
 13 15  1  0  0  0  0
 14 13  1  0  0  0  0
 15 12  2  0  0  0  0
 16  6  1  0  0  0  0
 17 16  1  0  0  0  0
 18 19  1  0  0  0  0
 19 17  1  0  0  0  0
 20 19  2  0  0  0  0
 21 25  1  6  0  0  0
 21 22  1  0  0  0  0
 21 23  1  0  0  0  0
 22 27  1  1  0  0  0
 22 23  1  0  0  0  0
 23 18  1  0  0  0  0
 23 24  1  1  0  0  0
 25 22  1  0  0  0  0
 27 26  1  0  0  0  0
 28 29  1  0  0  0  0
 29 30  1  0  0  0  0
 30 31  1  1  0  0  0
 34 33  1  6  0  0  0
 34 35  1  0  0  0  0
 34 36  1  0  0  0  0
 35 37  1  0  0  0  0
 36 38  1  0  0  0  0
 37 30  1  0  0  0  0
 37 32  1  0  0  0  0
 38 32  1  0  0  0  0
M  END
>  <MODEL>
5

>  <REMARK>
 VINA RESULT:      -7.5      3.060      5.356
  Name = 
  10 active torsions:
  status: ('A' for Active; 'I' for Inactive)
    1  A    between atoms: C_5  and  C_38
    2  A    between atoms: S_9  and  C_20
    3  A    between atoms: S_9  and  C_29
    4  A    between atoms: C_10  and  C_16
    5  A    between atoms: C_13  and  N_15
    6  A    between atoms: C_21  and  C_31
    7  A    between atoms: C_21  and  C_32
    8  A    between atoms: C_25  and  C_32
    9  A    between atoms: C_26  and  C_29
   10  A    between atoms: N_27  and  C_31
                            x       y       z     vdW  Elec       q    Type
                         _______ _______ _______ _____ _____    ______ ____

>  <TORSDO>
F 10

$$$$
=
 OpenBabel10222416273D

 38 42  0  0  1  0  0  0  0  0999 V2000
  183.9130  179.3810  144.4620 S   0  0  0  0  0  0  0  0  0  0  0  0
  186.3250  178.7360  141.4260 C   0  0  2  0  0  3  0  0  0  0  0  0
  183.0050  178.3690  142.1800 N   0  0  0  0  0  0  0  0  0  0  0  0
  184.5560  179.6540  139.9110 C   0  0  0  0  0  2  0  0  0  0  0  0
  185.4240  178.2210  142.5590 C   0  0  1  0  0  3  0  0  0  0  0  0
  182.6010  178.3150  140.9420 C   0  0  0  0  0  0  0  0  0  0  0  0
  185.6650  178.6270  140.0550 C   0  0  0  0  0  2  0  0  0  0  0  0
  185.1740  178.1320  144.7710 C   0  0  1  0  0  3  0  0  0  0  0  0
  183.2710  178.9780  139.8580 N   0  0  0  0  0  2  0  0  0  0  0  0
  186.1380  178.2410  143.7670 O   0  0  0  0  0  0  0  0  0  0  0  0
  184.1670  179.0820  142.7000 C   0  0  2  0  0  3  0  0  0  0  0  0
  187.9420  177.2230  142.3410 O   0  0  0  0  0  0  0  0  0  0  0  0
  188.5180  178.1960  140.2980 N   0  0  0  0  0  2  0  0  0  0  0  0
  189.7960  177.5090  140.2120 C   0  0  0  0  0  1  0  0  0  0  0  0
  187.6300  178.0020  141.3980 C   0  0  0  0  0  0  0  0  0  0  0  0
  181.1020  177.4080  140.5820 S   0  0  0  0  0  0  0  0  0  0  0  0
  181.9180  176.2970  139.3880 C   0  0  0  0  0  2  0  0  0  0  0  0
  180.6610  176.4500  137.1730 N   0  0  0  0  0  2  0  0  0  0  0  0
  180.9240  175.7710  138.4030 C   0  0  0  0  0  0  0  0  0  0  0  0
  180.3260  174.6900  138.6450 O   0  0  0  0  0  0  0  0  0  0  0  0
  180.4060  178.4760  135.7640 C   0  0  1  0  0  3  0  0  0  0  0  0
  180.3770  178.9760  137.2140 C   0  0  2  0  0  0  0  0  0  0  0  0
  181.1940  177.7630  136.8270 C   0  0  1  0  0  0  0  0  0  0  0  0
  182.5780  177.8870  136.6870 O   0  0  0  0  0  1  0  0  0  0  0  0
  179.1460  179.0870  136.3360 C   0  0  0  0  0  2  0  0  0  0  0  0
  180.7460  181.2510  138.7070 S   0  0  0  0  0  1  0  0  0  0  0  0
  181.1780  180.2670  137.2410 C   0  0  0  0  0  2  0  0  0  0  0  0
  185.8030  178.3640  146.1340 C   0  0  0  0  0  2  0  0  0  0  0  0
  187.3180  178.4190  146.0310 C   0  0  0  0  0  2  0  0  0  0  0  0
  187.9600  177.4480  147.0180 C   0  0  2  0  0  3  0  0  0  0  0  0
  188.1350  178.1970  148.3350 C   0  0  0  0  0  1  0  0  0  0  0  0
  190.2130  176.9290  147.6200 C   0  0  0  0  0  2  0  0  0  0  0  0
  190.9820  177.2260  143.5880 O   0  0  0  0  0  1  0  0  0  0  0  0
  191.1220  177.4870  144.9490 C   0  0  1  0  0  3  0  0  0  0  0  0
  189.7690  177.9330  145.5320 C   0  0  0  0  0  2  0  0  0  0  0  0
  191.6810  176.2470  145.6510 C   0  0  0  0  0  2  0  0  0  0  0  0
  189.2510  176.9640  146.5090 N   0  0  0  0  0  0  0  0  0  0  0  0
  191.5760  176.3840  147.1720 C   0  0  0  0  0  2  0  0  0  0  0  0
  1  8  1  0  0  0  0
  2 15  1  6  0  0  0
  2  5  1  0  0  0  0
  4  7  1  0  0  0  0
  5 11  1  0  0  0  0
  5 10  1  1  0  0  0
  6  3  2  0  0  0  0
  7  2  1  0  0  0  0
  8 28  1  1  0  0  0
  9  4  1  0  0  0  0
  9  6  1  0  0  0  0
 10  8  1  0  0  0  0
 11  3  1  1  0  0  0
 11  1  1  0  0  0  0
 13 15  1  0  0  0  0
 14 13  1  0  0  0  0
 15 12  2  0  0  0  0
 16  6  1  0  0  0  0
 17 16  1  0  0  0  0
 18 19  1  0  0  0  0
 19 20  2  0  0  0  0
 19 17  1  0  0  0  0
 21 25  1  1  0  0  0
 21 23  1  0  0  0  0
 21 22  1  0  0  0  0
 22 27  1  1  0  0  0
 23 24  1  6  0  0  0
 23 18  1  0  0  0  0
 23 22  1  0  0  0  0
 25 22  1  0  0  0  0
 27 26  1  0  0  0  0
 29 28  1  0  0  0  0
 29 30  1  0  0  0  0
 30 31  1  1  0  0  0
 34 33  1  6  0  0  0
 34 35  1  0  0  0  0
 34 36  1  0  0  0  0
 35 37  1  0  0  0  0
 36 38  1  0  0  0  0
 37 30  1  0  0  0  0
 37 32  1  0  0  0  0
 38 32  1  0  0  0  0
M  END
>  <MODEL>
6

>  <REMARK>
 VINA RESULT:      -7.2      2.696      4.733
  Name = 
  10 active torsions:
  status: ('A' for Active; 'I' for Inactive)
    1  A    between atoms: C_5  and  C_38
    2  A    between atoms: S_9  and  C_20
    3  A    between atoms: S_9  and  C_29
    4  A    between atoms: C_10  and  C_16
    5  A    between atoms: C_13  and  N_15
    6  A    between atoms: C_21  and  C_31
    7  A    between atoms: C_21  and  C_32
    8  A    between atoms: C_25  and  C_32
    9  A    between atoms: C_26  and  C_29
   10  A    between atoms: N_27  and  C_31
                            x       y       z     vdW  Elec       q    Type
                         _______ _______ _______ _____ _____    ______ ____

>  <TORSDO>
F 10

$$$$
=
 OpenBabel10222416273D

 38 42  0  0  1  0  0  0  0  0999 V2000
  191.4340  176.7910  138.0230 S   0  0  0  0  0  0  0  0  0  0  0  0
  187.8720  175.9360  136.5970 C   0  0  2  0  0  3  0  0  0  0  0  0
  189.2300  177.4530  139.3500 N   0  0  0  0  0  0  0  0  0  0  0  0
  187.1110  178.2100  137.3140 C   0  0  0  0  0  2  0  0  0  0  0  0
  188.9940  175.7240  137.6260 C   0  0  1  0  0  3  0  0  0  0  0  0
  188.1510  178.1060  139.6790 C   0  0  0  0  0  0  0  0  0  0  0  0
  186.7110  176.7550  137.1540 C   0  0  0  0  0  2  0  0  0  0  0  0
  191.0920  175.0260  137.8940 C   0  0  1  0  0  3  0  0  0  0  0  0
  187.1680  178.5460  138.7280 N   0  0  0  0  0  2  0  0  0  0  0  0
  189.9650  174.8680  137.0850 O   0  0  0  0  0  0  0  0  0  0  0  0
  189.6480  177.0530  138.0110 C   0  0  2  0  0  3  0  0  0  0  0  0
  187.5510  174.2760  134.9000 O   0  0  0  0  0  0  0  0  0  0  0  0
  186.6100  173.7820  136.9790 N   0  0  0  0  0  2  0  0  0  0  0  0
  186.0800  172.4990  136.5510 C   0  0  0  0  0  1  0  0  0  0  0  0
  187.3470  174.6260  136.0950 C   0  0  0  0  0  0  0  0  0  0  0  0
  187.9060  178.5200  141.4010 S   0  0  0  0  0  0  0  0  0  0  0  0
  189.0870  177.2630  141.9960 C   0  0  0  0  0  2  0  0  0  0  0  0
  189.7140  177.7560  144.4210 N   0  0  0  0  0  2  0  0  0  0  0  0
  190.0000  177.8530  143.0230 C   0  0  0  0  0  0  0  0  0  0  0  0
  191.0610  178.4190  142.6540 O   0  0  0  0  0  0  0  0  0  0  0  0
  188.5540  176.8700  146.4260 C   0  0  1  0  0  3  0  0  0  0  0  0
  187.7340  178.0880  145.9810 C   0  0  2  0  0  0  0  0  0  0  0  0
  188.4680  177.2340  144.9710 C   0  0  1  0  0  0  0  0  0  0  0  0
  187.7490  176.3190  144.1990 O   0  0  0  0  0  1  0  0  0  0  0  0
  188.4780  178.1000  147.3020 C   0  0  0  0  0  2  0  0  0  0  0  0
  185.1980  178.9950  145.4510 S   0  0  0  0  0  1  0  0  0  0  0  0
  186.2720  177.7090  146.1530 C   0  0  0  0  0  2  0  0  0  0  0  0
  192.2870  174.3160  137.2800 C   0  0  0  0  0  2  0  0  0  0  0  0
  193.5880  174.9580  137.7320 C   0  0  0  0  0  2  0  0  0  0  0  0
  194.7560  174.4540  136.8870 C   0  0  2  0  0  3  0  0  0  0  0  0
  194.5310  172.9640  136.6520 C   0  0  0  0  0  1  0  0  0  0  0  0
  197.0100  173.6950  137.1110 C   0  0  0  0  0  2  0  0  0  0  0  0
  196.9960  175.8100  140.6410 O   0  0  0  0  0  1  0  0  0  0  0  0
  197.1540  174.7130  139.7970 C   0  0  1  0  0  3  0  0  0  0  0  0
  195.8520  174.4730  139.0120 C   0  0  0  0  0  2  0  0  0  0  0  0
  198.3550  174.9460  138.8770 C   0  0  0  0  0  2  0  0  0  0  0  0
  196.0350  174.6940  137.5700 N   0  0  0  0  0  0  0  0  0  0  0  0
  198.3900  173.9140  137.7480 C   0  0  0  0  0  2  0  0  0  0  0  0
  2 15  1  1  0  0  0
  2  7  1  0  0  0  0
  2  5  1  0  0  0  0
  3  6  2  0  0  0  0
  4  9  1  0  0  0  0
  5 10  1  6  0  0  0
  5 11  1  0  0  0  0
  6 16  1  0  0  0  0
  7  4  1  0  0  0  0
  8 28  1  6  0  0  0
  8  1  1  0  0  0  0
  9  6  1  0  0  0  0
 10  8  1  0  0  0  0
 11  1  1  1  0  0  0
 11  3  1  0  0  0  0
 12 15  2  0  0  0  0
 14 13  1  0  0  0  0
 15 13  1  0  0  0  0
 16 17  1  0  0  0  0
 17 19  1  0  0  0  0
 18 23  1  0  0  0  0
 19 18  1  0  0  0  0
 20 19  2  0  0  0  0
 21 25  1  1  0  0  0
 22 27  1  1  0  0  0
 22 21  1  0  0  0  0
 22 25  1  0  0  0  0
 23 24  1  6  0  0  0
 23 22  1  0  0  0  0
 23 21  1  0  0  0  0
 26 27  1  0  0  0  0
 28 29  1  0  0  0  0
 30 31  1  1  0  0  0
 30 37  1  0  0  0  0
 30 29  1  0  0  0  0
 32 37  1  0  0  0  0
 32 38  1  0  0  0  0
 34 33  1  1  0  0  0
 35 34  1  0  0  0  0
 36 34  1  0  0  0  0
 37 35  1  0  0  0  0
 38 36  1  0  0  0  0
M  END
>  <MODEL>
7

>  <REMARK>
 VINA RESULT:      -7.2      3.729      8.164
  Name = 
  10 active torsions:
  status: ('A' for Active; 'I' for Inactive)
    1  A    between atoms: C_5  and  C_38
    2  A    between atoms: S_9  and  C_20
    3  A    between atoms: S_9  and  C_29
    4  A    between atoms: C_10  and  C_16
    5  A    between atoms: C_13  and  N_15
    6  A    between atoms: C_21  and  C_31
    7  A    between atoms: C_21  and  C_32
    8  A    between atoms: C_25  and  C_32
    9  A    between atoms: C_26  and  C_29
   10  A    between atoms: N_27  and  C_31
                            x       y       z     vdW  Elec       q    Type
                         _______ _______ _______ _____ _____    ______ ____

>  <TORSDO>
F 10

$$$$
=
 OpenBabel10222416273D

 38 42  0  0  1  0  0  0  0  0999 V2000
  188.2690  178.4090  141.4240 S   0  0  0  0  0  0  0  0  0  0  0  0
  190.1460  177.4270  138.1120 C   0  0  2  0  0  3  0  0  0  0  0  0
  186.9630  178.1880  139.1210 N   0  0  0  0  0  0  0  0  0  0  0  0
  188.8020  179.1650  136.9130 C   0  0  0  0  0  2  0  0  0  0  0  0
  189.1590  177.1020  139.2450 C   0  0  1  0  0  3  0  0  0  0  0  0
  186.5240  178.4890  137.9320 C   0  0  0  0  0  0  0  0  0  0  0  0
  189.4440  177.7930  136.8090 C   0  0  0  0  0  2  0  0  0  0  0  0
  188.9760  176.7520  141.4370 C   0  0  1  0  0  3  0  0  0  0  0  0
  187.3550  179.0270  136.8900 N   0  0  0  0  0  2  0  0  0  0  0  0
  189.8720  176.6610  140.3710 O   0  0  0  0  0  0  0  0  0  0  0  0
  188.3270  178.3290  139.6210 C   0  0  2  0  0  3  0  0  0  0  0  0
  192.2970  176.3740  138.1570 O   0  0  0  0  0  0  0  0  0  0  0  0
  190.5630  175.0810  137.2770 N   0  0  0  0  0  2  0  0  0  0  0  0
  191.4140  173.9320  137.0130 C   0  0  0  0  0  1  0  0  0  0  0  0
  191.0750  176.2800  137.8600 C   0  0  0  0  0  0  0  0  0  0  0  0
  184.7820  178.2680  137.5950 S   0  0  0  0  0  0  0  0  0  0  0  0
  184.5450  177.0800  138.9580 C   0  0  0  0  0  2  0  0  0  0  0  0
  182.5300  175.5910  138.4710 N   0  0  0  0  0  2  0  0  0  0  0  0
  183.0960  176.7400  139.1060 C   0  0  0  0  0  0  0  0  0  0  0  0
  182.3630  177.4610  139.8310 O   0  0  0  0  0  0  0  0  0  0  0  0
  182.3320  173.9880  136.5890 C   0  0  1  0  0  3  0  0  0  0  0  0
  183.1900  175.1430  136.0560 C   0  0  2  0  0  0  0  0  0  0  0  0
  183.2390  174.7470  137.5160 C   0  0  1  0  0  0  0  0  0  0  0  0
  184.3220  174.0010  137.9850 O   0  0  0  0  0  1  0  0  0  0  0  0
  181.8110  174.8800  135.4830 C   0  0  0  0  0  2  0  0  0  0  0  0
  185.6310  175.7040  134.9320 S   0  0  0  0  0  1  0  0  0  0  0  0
  184.2880  174.5130  135.2160 C   0  0  0  0  0  2  0  0  0  0  0  0
  189.6950  176.5110  142.7530 C   0  0  0  0  0  2  0  0  0  0  0  0
  188.8250  176.9270  143.9290 C   0  0  0  0  0  2  0  0  0  0  0  0
  189.6380  177.7300  144.9410 C   0  0  2  0  0  3  0  0  0  0  0  0
  190.8260  176.8660  145.3500 C   0  0  0  0  0  1  0  0  0  0  0  0
  189.1080  177.1410  147.1950 C   0  0  0  0  0  2  0  0  0  0  0  0
  185.7050  179.3780  146.6030 O   0  0  0  0  0  1  0  0  0  0  0  0
  186.4730  178.2660  146.9360 C   0  0  1  0  0  3  0  0  0  0  0  0
  187.3980  177.9050  145.7610 C   0  0  0  0  0  2  0  0  0  0  0  0
  187.2500  178.5490  148.2240 C   0  0  0  0  0  2  0  0  0  0  0  0
  188.8160  178.0850  146.1060 N   0  0  0  0  0  0  0  0  0  0  0  0
  188.3190  177.4820  148.4670 C   0  0  0  0  0  2  0  0  0  0  0  0
  1  8  1  0  0  0  0
  2 15  1  6  0  0  0
  2  5  1  0  0  0  0
  5 11  1  0  0  0  0
  5 10  1  1  0  0  0
  6  3  2  0  0  0  0
  7  4  1  0  0  0  0
  7  2  1  0  0  0  0
  8 28  1  1  0  0  0
  9  4  1  0  0  0  0
  9  6  1  0  0  0  0
 10  8  1  0  0  0  0
 11  3  1  6  0  0  0
 11  1  1  0  0  0  0
 13 15  1  0  0  0  0
 14 13  1  0  0  0  0
 15 12  2  0  0  0  0
 16  6  1  0  0  0  0
 16 17  1  0  0  0  0
 17 19  1  0  0  0  0
 18 19  1  0  0  0  0
 19 20  2  0  0  0  0
 21 25  1  1  0  0  0
 21 23  1  0  0  0  0
 22 27  1  6  0  0  0
 22 21  1  0  0  0  0
 22 23  1  0  0  0  0
 23 24  1  1  0  0  0
 23 18  1  0  0  0  0
 25 22  1  0  0  0  0
 26 27  1  0  0  0  0
 28 29  1  0  0  0  0
 29 30  1  0  0  0  0
 30 31  1  1  0  0  0
 30 37  1  0  0  0  0
 32 38  1  0  0  0  0
 34 33  1  6  0  0  0
 34 36  1  0  0  0  0
 35 37  1  0  0  0  0
 35 34  1  0  0  0  0
 36 38  1  0  0  0  0
 37 32  1  0  0  0  0
M  END
>  <MODEL>
8

>  <REMARK>
 VINA RESULT:      -7.1      2.392      2.949
  Name = 
  10 active torsions:
  status: ('A' for Active; 'I' for Inactive)
    1  A    between atoms: C_5  and  C_38
    2  A    between atoms: S_9  and  C_20
    3  A    between atoms: S_9  and  C_29
    4  A    between atoms: C_10  and  C_16
    5  A    between atoms: C_13  and  N_15
    6  A    between atoms: C_21  and  C_31
    7  A    between atoms: C_21  and  C_32
    8  A    between atoms: C_25  and  C_32
    9  A    between atoms: C_26  and  C_29
   10  A    between atoms: N_27  and  C_31
                            x       y       z     vdW  Elec       q    Type
                         _______ _______ _______ _____ _____    ______ ____

>  <TORSDO>
F 10

$$$$
=
 OpenBabel10222416273D

 38 42  0  0  1  0  0  0  0  0999 V2000
  187.6260  178.5290  141.4480 S   0  0  0  0  0  0  0  0  0  0  0  0
  191.0870  177.2160  142.7730 C   0  0  2  0  0  3  0  0  0  0  0  0
  189.2090  177.0450  139.9140 N   0  0  0  0  0  0  0  0  0  0  0  0
  192.0810  177.7900  140.5480 C   0  0  0  0  0  2  0  0  0  0  0  0
  189.6360  176.9690  142.3290 C   0  0  1  0  0  3  0  0  0  0  0  0
  190.2000  176.7230  139.1320 C   0  0  0  0  0  0  0  0  0  0  0  0
  192.1030  176.8120  141.7100 C   0  0  0  0  0  2  0  0  0  0  0  0
  187.5020  177.3700  142.8220 C   0  0  1  0  0  3  0  0  0  0  0  0
  191.5590  177.1270  139.3650 N   0  0  0  0  0  2  0  0  0  0  0  0
  188.7690  177.2500  143.3950 O   0  0  0  0  0  0  0  0  0  0  0  0
  189.2680  177.8480  141.1310 C   0  0  2  0  0  3  0  0  0  0  0  0
  191.6760  175.2560  144.0170 O   0  0  0  0  0  0  0  0  0  0  0  0
  191.3590  177.1930  145.2820 N   0  0  0  0  0  2  0  0  0  0  0  0
  191.6520  176.5400  146.5470 C   0  0  0  0  0  1  0  0  0  0  0  0
  191.3940  176.4850  144.0430 C   0  0  0  0  0  0  0  0  0  0  0  0
  189.8400  175.7690  137.6630 S   0  0  0  0  0  0  0  0  0  0  0  0
  188.1290  176.3850  137.5350 C   0  0  0  0  0  2  0  0  0  0  0  0
  186.3770  176.0390  135.7110 N   0  0  0  0  0  2  0  0  0  0  0  0
  187.6970  176.4270  136.1040 C   0  0  0  0  0  0  0  0  0  0  0  0
  188.4980  176.8410  135.2280 O   0  0  0  0  0  0  0  0  0  0  0  0
  184.7100  176.4150  137.5080 C   0  0  1  0  0  3  0  0  0  0  0  0
  183.9370  175.7470  136.3640 C   0  0  2  0  0  0  0  0  0  0  0  0
  185.3970  175.4320  136.6040 C   0  0  1  0  0  0  0  0  0  0  0  0
  185.7430  174.2320  137.2300 O   0  0  0  0  0  1  0  0  0  0  0  0
  183.6310  177.1760  136.7680 C   0  0  0  0  0  2  0  0  0  0  0  0
  181.9390  173.9680  135.7480 S   0  0  0  0  0  1  0  0  0  0  0  0
  182.9840  174.7540  137.0090 C   0  0  0  0  0  2  0  0  0  0  0  0
  186.5070  177.8930  143.8450 C   0  0  0  0  0  2  0  0  0  0  0  0
  185.1380  178.0910  143.2160 C   0  0  0  0  0  2  0  0  0  0  0  0
  184.4010  179.2480  143.8870 C   0  0  2  0  0  3  0  0  0  0  0  0
  184.4390  178.9920  145.3910 C   0  0  0  0  0  1  0  0  0  0  0  0
  182.1390  178.6260  144.3440 C   0  0  0  0  0  2  0  0  0  0  0  0
  181.4940  179.4160  140.3570 O   0  0  0  0  0  1  0  0  0  0  0  0
  181.4920  178.6850  141.5420 C   0  0  1  0  0  3  0  0  0  0  0  0
  182.9180  178.6280  142.1170 C   0  0  0  0  0  2  0  0  0  0  0  0
  180.4910  179.3040  142.5210 C   0  0  0  0  0  2  0  0  0  0  0  0
  183.0170  179.3360  143.4020 N   0  0  0  0  0  0  0  0  0  0  0  0
  180.6650  178.7200  143.9250 C   0  0  0  0  0  2  0  0  0  0  0  0
  1  8  1  0  0  0  0
  2 15  1  1  0  0  0
  4  7  1  0  0  0  0
  5  2  1  0  0  0  0
  5 10  1  1  0  0  0
  6  9  1  0  0  0  0
  6  3  2  0  0  0  0
  7  2  1  0  0  0  0
  8 10  1  0  0  0  0
  8 28  1  1  0  0  0
  9  4  1  0  0  0  0
 11  3  1  6  0  0  0
 11  1  1  0  0  0  0
 11  5  1  0  0  0  0
 12 15  2  0  0  0  0
 13 14  1  0  0  0  0
 15 13  1  0  0  0  0
 16  6  1  0  0  0  0
 17 16  1  0  0  0  0
 18 19  1  0  0  0  0
 18 23  1  0  0  0  0
 19 17  1  0  0  0  0
 20 19  2  0  0  0  0
 21 25  1  6  0  0  0
 22 23  1  0  0  0  0
 22 25  1  0  0  0  0
 22 27  1  1  0  0  0
 22 21  1  0  0  0  0
 23 24  1  1  0  0  0
 23 21  1  0  0  0  0
 26 27  1  0  0  0  0
 29 28  1  0  0  0  0
 29 30  1  0  0  0  0
 30 31  1  1  0  0  0
 34 33  1  6  0  0  0
 34 35  1  0  0  0  0
 34 36  1  0  0  0  0
 35 37  1  0  0  0  0
 36 38  1  0  0  0  0
 37 30  1  0  0  0  0
 37 32  1  0  0  0  0
 38 32  1  0  0  0  0
M  END
>  <MODEL>
9

>  <REMARK>
 VINA RESULT:      -7.1      2.957      5.882
  Name = 
  10 active torsions:
  status: ('A' for Active; 'I' for Inactive)
    1  A    between atoms: C_5  and  C_38
    2  A    between atoms: S_9  and  C_20
    3  A    between atoms: S_9  and  C_29
    4  A    between atoms: C_10  and  C_16
    5  A    between atoms: C_13  and  N_15
    6  A    between atoms: C_21  and  C_31
    7  A    between atoms: C_21  and  C_32
    8  A    between atoms: C_25  and  C_32
    9  A    between atoms: C_26  and  C_29
   10  A    between atoms: N_27  and  C_31
                            x       y       z     vdW  Elec       q    Type
                         _______ _______ _______ _____ _____    ______ ____

>  <TORSDO>
F 10

$$$$
