=
 OpenBabel10222417193D

 46 48  0  0  1  0  0  0  0  0999 V2000
  185.6280  178.9090  141.7000 C   0  0  0  0  0  0  0  0  0  0  0  0
  181.8800  178.7760  142.3090 C   0  0  0  0  0  1  0  0  0  0  0  0
  184.3800  178.9380  142.3460 C   0  0  0  0  0  0  0  0  0  0  0  0
  184.3180  179.1330  143.7230 O   0  0  0  0  0  1  0  0  0  0  0  0
  183.2700  178.5520  140.2140 C   0  0  0  0  0  0  0  0  0  0  0  0
  185.6920  178.7060  140.3190 C   0  0  0  0  0  3  0  0  0  0  0  0
  183.2000  178.7600  141.6050 C   0  0  0  0  0  0  0  0  0  0  0  0
  184.5220  178.5300  139.5810 C   0  0  0  0  0  3  0  0  0  0  0  0
  186.8950  179.0130  142.4860 C   0  0  0  0  0  2  0  0  0  0  0  0
  188.4230  176.9600  142.2850 C   0  0  2  0  0  3  0  0  0  0  0  0
  187.3120  177.6540  143.0640 C   0  0  1  0  0  3  0  0  0  0  0  0
  189.0370  176.0150  143.3010 C   0  0  0  0  0  2  0  0  0  0  0  0
  188.8630  176.6720  144.6620 C   0  0  0  0  0  2  0  0  0  0  0  0
  187.7850  177.7340  144.5070 C   0  0  2  0  0  3  0  0  0  0  0  0
  186.6270  177.4440  145.4460 C   0  0  0  0  0  2  0  0  0  0  0  0
  186.8530  178.1270  146.7790 C   0  0  0  0  0  2  0  0  0  0  0  0
  187.6300  177.3060  147.5940 O   0  0  0  0  0  0  0  0  0  0  0  0
  188.5100  178.1780  148.2340 C   0  0  0  0  0  1  0  0  0  0  0  0
  189.4950  177.9380  141.7980 C   0  0  0  0  0  2  0  0  0  0  0  0
  190.6530  176.1990  140.6570 O   0  0  0  0  0  1  0  0  0  0  0  0
  190.1030  177.4720  140.4830 C   0  0  1  0  0  3  0  0  0  0  0  0
  189.2950  176.3690  138.5200 O   0  0  0  0  0  1  0  0  0  0  0  0
  189.0490  177.4440  139.3770 C   0  0  2  0  0  3  0  0  0  0  0  0
  189.0890  178.7290  138.5630 C   0  0  0  0  0  2  0  0  0  0  0  0
  189.0690  178.4180  137.0740 C   0  0  0  0  0  2  0  0  0  0  0  0
  187.7070  178.6650  136.5150 C   0  0  0  0  0  3  0  0  0  0  0  0
  187.1170  179.7020  136.7720 O   0  0  0  0  0  0  0  0  0  0  0  0
  182.0170  178.3250  139.4120 C   0  0  2  0  0  3  0  0  0  0  0  0
  179.6930  173.0940  138.7430 O   0  0  0  0  0  0  0  0  0  0  0  0
  181.2430  174.1650  137.2750 C   0  0  0  0  0  0  0  0  0  0  0  0
  181.6360  176.1640  138.2320 C   0  0  0  0  0  0  0  0  0  0  0  0
  180.4610  175.5660  139.4610 S   0  0  0  0  0  0  0  0  0  0  0  0
  181.9050  175.2680  137.1580 N   0  0  0  0  0  0  0  0  0  0  0  0
  182.2530  177.3410  138.3060 C   0  0  0  0  0  3  0  0  0  0  0  0
  180.3980  174.0940  138.4550 C   0  0  0  0  0  0  0  0  0  0  0  0
  181.3330  173.1270  136.3470 O   0  0  0  0  0  0  0  0  0  0  0  0
  181.7130  171.8120  136.7270 C   0  0  0  0  0  2  0  0  0  0  0  0
  183.0000  171.4360  136.0240 C   0  0  0  0  0  1  0  0  0  0  0  0
  181.4330  179.6150  138.9050 C   0  0  0  0  0  0  0  0  0  0  0  0
  179.3080  178.8740  139.6130 O   0  0  0  0  0  1  0  0  0  0  0  0
  182.2870  180.5620  138.3470 O   0  0  0  0  0  1  0  0  0  0  0  0
  180.1110  179.8430  139.0130 C   0  0  0  0  0  0  0  0  0  0  0  0
  179.4150  182.1560  139.2460 N   0  0  0  0  0  2  0  0  0  0  0  0
  179.4520  181.0820  138.5290 C   0  0  0  0  0  0  0  0  0  0  0  0
  178.9500  181.1460  137.1250 C   0  0  0  0  0  2  0  0  0  0  0  0
  179.9570  181.6250  136.2860 O   0  0  0  0  0  1  0  0  0  0  0  0
  1  3  1  0  0  0  0
  1  9  1  0  0  0  0
  3  4  1  0  0  0  0
  5  7  1  0  0  0  0
  6  1  2  0  0  0  0
  7  2  1  0  0  0  0
  7  3  2  0  0  0  0
  8  5  2  0  0  0  0
  8  6  1  0  0  0  0
 10 19  1  1  0  0  0
 10 11  1  0  0  0  0
 10 12  1  0  0  0  0
 11  9  1  6  0  0  0
 11 14  1  0  0  0  0
 12 13  1  0  0  0  0
 14 13  1  0  0  0  0
 14 15  1  1  0  0  0
 15 16  1  0  0  0  0
 16 17  1  0  0  0  0
 17 18  1  0  0  0  0
 21 20  1  1  0  0  0
 21 19  1  0  0  0  0
 23 22  1  6  0  0  0
 23 21  1  0  0  0  0
 24 23  1  0  0  0  0
 25 24  1  0  0  0  0
 26 27  2  0  0  0  0
 26 25  1  0  0  0  0
 28 34  1  6  0  0  0
 28  5  1  0  0  0  0
 30 35  1  0  0  0  0
 31 34  2  0  0  0  0
 31 32  1  0  0  0  0
 33 30  2  0  0  0  0
 33 31  1  0  0  0  0
 35 29  2  0  0  0  0
 35 32  1  0  0  0  0
 36 37  1  0  0  0  0
 36 30  1  0  0  0  0
 38 37  1  0  0  0  0
 39 42  2  0  0  0  0
 39 28  1  0  0  0  0
 41 39  1  0  0  0  0
 42 40  1  0  0  0  0
 44 42  1  0  0  0  0
 44 43  2  0  0  0  0
 45 44  1  0  0  0  0
 46 45  1  0  0  0  0
M  END
>  <MODEL>
1

>  <REMARK>
 VINA RESULT:      -6.4      0.000      0.000
  Name = 
  18 active torsions:
  status: ('A' for Active; 'I' for Inactive)
    1  A    between atoms: C_1  and  C_21
    2  A    between atoms: C_3  and  C_11
    3  A    between atoms: C_3  and  C_22
    4  A    between atoms: C_3  and  C_38
    5  A    between atoms: C_4  and  C_23
    6  A    between atoms: C_5  and  C_18
    7  A    between atoms: C_6  and  C_21
    8  A    between atoms: O_8  and  C_14
    9  A    between atoms: O_8  and  C_26
   10  A    between atoms: O_13  and  C_35
   11  A    between atoms: C_18  and  C_45
   12  A    between atoms: C_23  and  C_30
   13  A    between atoms: C_27  and  C_34
   14  A    between atoms: C_27  and  C_40
   15  A    between atoms: C_28  and  C_34
   16  A    between atoms: C_30  and  C_40
   17  A    between atoms: C_31  and  C_33
   18  A    between atoms: C_31  and  C_35
                            x       y       z     vdW  Elec       q    Type
                         _______ _______ _______ _____ _____    ______ ____

>  <TORSDO>
F 18

$$$$
=
 OpenBabel10222417193D

 46 48  0  0  1  0  0  0  0  0999 V2000
  184.7480  178.8820  140.5030 C   0  0  0  0  0  0  0  0  0  0  0  0
  187.9550  178.2700  138.5610 C   0  0  0  0  0  1  0  0  0  0  0  0
  185.6660  178.7800  139.4450 C   0  0  0  0  0  0  0  0  0  0  0  0
  185.2560  179.0510  138.1420 O   0  0  0  0  0  1  0  0  0  0  0  0
  187.3990  178.1080  141.0180 C   0  0  0  0  0  0  0  0  0  0  0  0
  185.1560  178.6030  141.8090 C   0  0  0  0  0  3  0  0  0  0  0  0
  186.9930  178.3920  139.6990 C   0  0  0  0  0  0  0  0  0  0  0  0
  186.4720  178.2200  142.0650 C   0  0  0  0  0  3  0  0  0  0  0  0
  183.3130  179.2120  140.2370 C   0  0  0  0  0  2  0  0  0  0  0  0
  181.1820  177.9730  140.9540 C   0  0  2  0  0  3  0  0  0  0  0  0
  182.4580  177.9430  140.1200 C   0  0  1  0  0  3  0  0  0  0  0  0
  180.2780  176.9690  140.2630 C   0  0  0  0  0  2  0  0  0  0  0  0
  180.6560  176.9910  138.7900 C   0  0  0  0  0  2  0  0  0  0  0  0
  182.0300  177.6350  138.6930 C   0  0  2  0  0  3  0  0  0  0  0  0
  183.0160  176.6700  138.0580 C   0  0  0  0  0  2  0  0  0  0  0  0
  182.2740  175.6230  137.2520 C   0  0  0  0  0  2  0  0  0  0  0  0
  182.7440  174.3570  137.5940 O   0  0  0  0  0  0  0  0  0  0  0  0
  182.6920  173.6300  136.4050 C   0  0  0  0  0  1  0  0  0  0  0  0
  180.5070  179.3470  140.9410 C   0  0  0  0  0  2  0  0  0  0  0  0
  178.9310  179.9910  142.6040 O   0  0  0  0  0  1  0  0  0  0  0  0
  180.3010  179.8680  142.3570 C   0  0  1  0  0  3  0  0  0  0  0  0
  180.0600  178.7290  144.4470 O   0  0  0  0  0  1  0  0  0  0  0  0
  180.9390  178.9290  143.3800 C   0  0  2  0  0  3  0  0  0  0  0  0
  182.2300  179.5230  143.9230 C   0  0  0  0  0  2  0  0  0  0  0  0
  183.0140  178.4750  144.6980 C   0  0  0  0  0  2  0  0  0  0  0  0
  184.2430  179.0830  145.2860 C   0  0  0  0  0  3  0  0  0  0  0  0
  184.5200  178.8970  146.4600 O   0  0  0  0  0  0  0  0  0  0  0  0
  188.8060  177.6590  141.3030 C   0  0  2  0  0  3  0  0  0  0  0  0
  194.2300  176.9530  139.4870 O   0  0  0  0  0  0  0  0  0  0  0  0
  192.2940  175.8120  138.6780 C   0  0  0  0  0  0  0  0  0  0  0  0
  190.5980  176.6370  139.9070 C   0  0  0  0  0  0  0  0  0  0  0  0
  191.9130  177.5940  140.6860 S   0  0  0  0  0  0  0  0  0  0  0  0
  191.0180  175.7530  138.8720 N   0  0  0  0  0  0  0  0  0  0  0  0
  189.3110  176.7450  140.2290 C   0  0  0  0  0  3  0  0  0  0  0  0
  192.9900  176.7500  139.5410 C   0  0  0  0  0  0  0  0  0  0  0  0
  192.9490  175.0390  137.7190 O   0  0  0  0  0  0  0  0  0  0  0  0
  192.2750  174.5290  136.5780 C   0  0  0  0  0  2  0  0  0  0  0  0
  192.5310  175.4360  135.3930 C   0  0  0  0  0  1  0  0  0  0  0  0
  188.9350  177.0470  142.6720 C   0  0  0  0  0  0  0  0  0  0  0  0
  190.0570  178.9960  143.3850 O   0  0  0  0  0  1  0  0  0  0  0  0
  188.3840  175.7880  142.8940 O   0  0  0  0  0  1  0  0  0  0  0  0
  189.5560  177.7230  143.6550 C   0  0  0  0  0  0  0  0  0  0  0  0
  190.8970  176.8360  145.4730 N   0  0  0  0  0  2  0  0  0  0  0  0
  189.7360  177.1880  145.0280 C   0  0  0  0  0  0  0  0  0  0  0  0
  188.5840  177.1940  145.9750 C   0  0  0  0  0  2  0  0  0  0  0  0
  187.6390  178.1340  145.5640 O   0  0  0  0  0  1  0  0  0  0  0  0
  1  6  1  0  0  0  0
  2  7  1  0  0  0  0
  3  7  1  0  0  0  0
  3  1  2  0  0  0  0
  4  3  1  0  0  0  0
  5 28  1  0  0  0  0
  5  8  1  0  0  0  0
  6  8  2  0  0  0  0
  7  5  2  0  0  0  0
  9  1  1  0  0  0  0
 10 19  1  6  0  0  0
 11  9  1  6  0  0  0
 11 10  1  0  0  0  0
 12 10  1  0  0  0  0
 13 12  1  0  0  0  0
 14 15  1  1  0  0  0
 14 13  1  0  0  0  0
 14 11  1  0  0  0  0
 16 17  1  0  0  0  0
 16 15  1  0  0  0  0
 18 17  1  0  0  0  0
 19 21  1  0  0  0  0
 21 20  1  1  0  0  0
 21 23  1  0  0  0  0
 23 24  1  0  0  0  0
 23 22  1  1  0  0  0
 24 25  1  0  0  0  0
 25 26  1  0  0  0  0
 26 27  2  0  0  0  0
 28 34  1  6  0  0  0
 28 39  1  0  0  0  0
 29 35  2  0  0  0  0
 30 33  2  0  0  0  0
 30 35  1  0  0  0  0
 31 34  2  0  0  0  0
 31 32  1  0  0  0  0
 33 31  1  0  0  0  0
 35 32  1  0  0  0  0
 36 30  1  0  0  0  0
 37 36  1  0  0  0  0
 38 37  1  0  0  0  0
 39 41  1  0  0  0  0
 39 42  2  0  0  0  0
 40 42  1  0  0  0  0
 42 44  1  0  0  0  0
 44 43  2  0  0  0  0
 44 45  1  0  0  0  0
 46 45  1  0  0  0  0
M  END
>  <MODEL>
2

>  <REMARK>
 VINA RESULT:      -5.7      3.687      9.714
  Name = 
  18 active torsions:
  status: ('A' for Active; 'I' for Inactive)
    1  A    between atoms: C_1  and  C_21
    2  A    between atoms: C_3  and  C_11
    3  A    between atoms: C_3  and  C_22
    4  A    between atoms: C_3  and  C_38
    5  A    between atoms: C_4  and  C_23
    6  A    between atoms: C_5  and  C_18
    7  A    between atoms: C_6  and  C_21
    8  A    between atoms: O_8  and  C_14
    9  A    between atoms: O_8  and  C_26
   10  A    between atoms: O_13  and  C_35
   11  A    between atoms: C_18  and  C_45
   12  A    between atoms: C_23  and  C_30
   13  A    between atoms: C_27  and  C_34
   14  A    between atoms: C_27  and  C_40
   15  A    between atoms: C_28  and  C_34
   16  A    between atoms: C_30  and  C_40
   17  A    between atoms: C_31  and  C_33
   18  A    between atoms: C_31  and  C_35
                            x       y       z     vdW  Elec       q    Type
                         _______ _______ _______ _____ _____    ______ ____

>  <TORSDO>
F 18

$$$$
=
 OpenBabel10222417193D

 46 48  0  0  1  0  0  0  0  0999 V2000
  185.0190  178.7710  141.0580 C   0  0  0  0  0  0  0  0  0  0  0  0
  181.2860  178.3160  141.5930 C   0  0  0  0  0  1  0  0  0  0  0  0
  183.7590  178.7110  141.6750 C   0  0  0  0  0  0  0  0  0  0  0  0
  183.6440  178.9570  143.0410 O   0  0  0  0  0  1  0  0  0  0  0  0
  182.7420  178.1340  139.5390 C   0  0  0  0  0  0  0  0  0  0  0  0
  185.1370  178.5170  139.6890 C   0  0  0  0  0  3  0  0  0  0  0  0
  182.6190  178.3920  140.9190 C   0  0  0  0  0  0  0  0  0  0  0  0
  184.0070  178.2020  138.9350 C   0  0  0  0  0  3  0  0  0  0  0  0
  186.2520  179.0260  141.8650 C   0  0  0  0  0  2  0  0  0  0  0  0
  187.6640  176.9040  142.1690 C   0  0  2  0  0  3  0  0  0  0  0  0
  186.6000  177.8250  142.7550 C   0  0  1  0  0  3  0  0  0  0  0  0
  188.2360  176.1990  143.3850 C   0  0  0  0  0  2  0  0  0  0  0  0
  188.1120  177.1720  144.5470 C   0  0  0  0  0  2  0  0  0  0  0  0
  187.0920  178.2240  144.1380 C   0  0  2  0  0  3  0  0  0  0  0  0
  185.9290  178.2310  145.1140 C   0  0  0  0  0  2  0  0  0  0  0  0
  186.4290  178.5060  146.5180 C   0  0  0  0  0  2  0  0  0  0  0  0
  185.3430  178.7300  147.3610 O   0  0  0  0  0  0  0  0  0  0  0  0
  184.2250  178.5540  146.5450 C   0  0  0  0  0  1  0  0  0  0  0  0
  188.7830  177.6760  141.4650 C   0  0  0  0  0  2  0  0  0  0  0  0
  190.2590  176.4840  140.0280 O   0  0  0  0  0  1  0  0  0  0  0  0
  190.0480  176.8350  141.3640 C   0  0  1  0  0  3  0  0  0  0  0  0
  192.2430  177.6760  140.9200 O   0  0  0  0  0  1  0  0  0  0  0  0
  191.2550  177.6020  141.9030 C   0  0  2  0  0  3  0  0  0  0  0  0
  191.8380  176.8990  143.1210 C   0  0  0  0  0  2  0  0  0  0  0  0
  191.5550  177.6990  144.3840 C   0  0  0  0  0  2  0  0  0  0  0  0
  191.6300  176.8110  145.5810 C   0  0  0  0  0  3  0  0  0  0  0  0
  190.9340  177.0380  146.5580 O   0  0  0  0  0  0  0  0  0  0  0  0
  181.5370  177.7570  138.7220 C   0  0  2  0  0  3  0  0  0  0  0  0
  179.8750  172.2730  138.1120 O   0  0  0  0  0  0  0  0  0  0  0  0
  181.2950  173.5060  136.6400 C   0  0  0  0  0  0  0  0  0  0  0  0
  181.4320  175.5510  137.5710 C   0  0  0  0  0  0  0  0  0  0  0  0
  180.3290  174.8290  138.8010 S   0  0  0  0  0  0  0  0  0  0  0  0
  181.8180  174.6800  136.5110 N   0  0  0  0  0  0  0  0  0  0  0  0
  181.9000  176.7960  137.6320 C   0  0  0  0  0  3  0  0  0  0  0  0
  180.4550  173.3480  137.8150 C   0  0  0  0  0  0  0  0  0  0  0  0
  181.5190  172.4750  135.7270 O   0  0  0  0  0  0  0  0  0  0  0  0
  182.1430  171.2570  136.1090 C   0  0  0  0  0  2  0  0  0  0  0  0
  183.5060  171.5520  136.6990 C   0  0  0  0  0  1  0  0  0  0  0  0
  180.8170  178.9670  138.1920 C   0  0  0  0  0  0  0  0  0  0  0  0
  182.0230  178.7410  136.1770 O   0  0  0  0  0  1  0  0  0  0  0  0
  179.8660  179.5850  138.9980 O   0  0  0  0  0  1  0  0  0  0  0  0
  181.0860  179.4200  136.9540 C   0  0  0  0  0  0  0  0  0  0  0  0
  179.4000  180.5080  135.5880 N   0  0  0  0  0  2  0  0  0  0  0  0
  180.4320  180.6130  136.3590 C   0  0  0  0  0  0  0  0  0  0  0  0
  180.8730  181.9760  136.7740 C   0  0  0  0  0  2  0  0  0  0  0  0
  179.8920  182.5670  137.5700 O   0  0  0  0  0  1  0  0  0  0  0  0
  1  3  1  0  0  0  0
  1  9  1  0  0  0  0
  3  4  1  0  0  0  0
  5  7  1  0  0  0  0
  6  1  2  0  0  0  0
  7  2  1  0  0  0  0
  7  3  2  0  0  0  0
  8  5  2  0  0  0  0
  8  6  1  0  0  0  0
 10 19  1  1  0  0  0
 10 11  1  0  0  0  0
 10 12  1  0  0  0  0
 11  9  1  6  0  0  0
 11 14  1  0  0  0  0
 12 13  1  0  0  0  0
 14 13  1  0  0  0  0
 14 15  1  1  0  0  0
 15 16  1  0  0  0  0
 16 17  1  0  0  0  0
 18 17  1  0  0  0  0
 21 20  1  6  0  0  0
 21 19  1  0  0  0  0
 21 23  1  0  0  0  0
 23 22  1  6  0  0  0
 23 24  1  0  0  0  0
 24 25  1  0  0  0  0
 25 26  1  0  0  0  0
 26 27  2  0  0  0  0
 28 34  1  6  0  0  0
 28  5  1  0  0  0  0
 30 35  1  0  0  0  0
 31 34  2  0  0  0  0
 31 32  1  0  0  0  0
 33 30  2  0  0  0  0
 33 31  1  0  0  0  0
 35 29  2  0  0  0  0
 35 32  1  0  0  0  0
 36 37  1  0  0  0  0
 36 30  1  0  0  0  0
 37 38  1  0  0  0  0
 39 28  1  0  0  0  0
 39 41  1  0  0  0  0
 40 42  1  0  0  0  0
 42 39  2  0  0  0  0
 43 44  2  0  0  0  0
 44 45  1  0  0  0  0
 44 42  1  0  0  0  0
 45 46  1  0  0  0  0
M  END
>  <MODEL>
3

>  <REMARK>
 VINA RESULT:      -5.5      1.855      3.142
  Name = 
  18 active torsions:
  status: ('A' for Active; 'I' for Inactive)
    1  A    between atoms: C_1  and  C_21
    2  A    between atoms: C_3  and  C_11
    3  A    between atoms: C_3  and  C_22
    4  A    between atoms: C_3  and  C_38
    5  A    between atoms: C_4  and  C_23
    6  A    between atoms: C_5  and  C_18
    7  A    between atoms: C_6  and  C_21
    8  A    between atoms: O_8  and  C_14
    9  A    between atoms: O_8  and  C_26
   10  A    between atoms: O_13  and  C_35
   11  A    between atoms: C_18  and  C_45
   12  A    between atoms: C_23  and  C_30
   13  A    between atoms: C_27  and  C_34
   14  A    between atoms: C_27  and  C_40
   15  A    between atoms: C_28  and  C_34
   16  A    between atoms: C_30  and  C_40
   17  A    between atoms: C_31  and  C_33
   18  A    between atoms: C_31  and  C_35
                            x       y       z     vdW  Elec       q    Type
                         _______ _______ _______ _____ _____    ______ ____

>  <TORSDO>
F 18

$$$$
=
 OpenBabel10222417193D

 46 48  0  0  1  0  0  0  0  0999 V2000
  189.0590  177.6800  140.0530 C   0  0  0  0  0  0  0  0  0  0  0  0
  192.4150  176.1260  139.1850 C   0  0  0  0  0  1  0  0  0  0  0  0
  190.4140  177.3140  140.1130 C   0  0  0  0  0  0  0  0  0  0  0  0
  191.2110  177.7780  141.1570 O   0  0  0  0  0  1  0  0  0  0  0  0
  190.1580  176.0360  138.0570 C   0  0  0  0  0  0  0  0  0  0  0  0
  188.2600  177.2210  139.0020 C   0  0  0  0  0  3  0  0  0  0  0  0
  190.9670  176.4930  139.1160 C   0  0  0  0  0  0  0  0  0  0  0  0
  188.8060  176.4040  138.0120 C   0  0  0  0  0  3  0  0  0  0  0  0
  188.4780  178.6210  141.0590 C   0  0  0  0  0  2  0  0  0  0  0  0
  187.7680  177.1520  143.0410 C   0  0  2  0  0  3  0  0  0  0  0  0
  187.3240  177.9720  141.8350 C   0  0  1  0  0  3  0  0  0  0  0  0
  186.5370  177.1230  143.9280 C   0  0  0  0  0  2  0  0  0  0  0  0
  185.7870  178.4200  143.6690 C   0  0  0  0  0  2  0  0  0  0  0  0
  186.3050  178.9760  142.3510 C   0  0  2  0  0  3  0  0  0  0  0  0
  185.1660  179.1110  141.3570 C   0  0  0  0  0  2  0  0  0  0  0  0
  184.0950  178.0800  141.6490 C   0  0  0  0  0  2  0  0  0  0  0  0
  183.2470  177.9700  140.5490 O   0  0  0  0  0  0  0  0  0  0  0  0
  181.9670  178.1540  141.0730 C   0  0  0  0  0  1  0  0  0  0  0  0
  188.9190  177.8110  143.8040 C   0  0  0  0  0  2  0  0  0  0  0  0
  190.7300  176.2660  143.7950 O   0  0  0  0  0  1  0  0  0  0  0  0
  189.7100  176.7800  144.5990 C   0  0  1  0  0  3  0  0  0  0  0  0
  191.6700  177.1460  145.9200 O   0  0  0  0  0  1  0  0  0  0  0  0
  190.3000  177.4050  145.8630 C   0  0  2  0  0  3  0  0  0  0  0  0
  189.6460  176.8210  147.1070 C   0  0  0  0  0  2  0  0  0  0  0  0
  188.8500  177.8880  147.8430 C   0  0  0  0  0  2  0  0  0  0  0  0
  187.3920  177.7150  147.5780 C   0  0  0  0  0  3  0  0  0  0  0  0
  186.8170  178.4560  146.7980 O   0  0  0  0  0  0  0  0  0  0  0  0
  190.7430  175.1840  136.9630 C   0  0  2  0  0  3  0  0  0  0  0  0
  195.6770  172.6970  135.3260 O   0  0  0  0  0  0  0  0  0  0  0  0
  195.1210  175.0140  135.1570 C   0  0  0  0  0  0  0  0  0  0  0  0
  193.0340  175.1550  135.9860 C   0  0  0  0  0  0  0  0  0  0  0  0
  193.2240  173.3730  136.1860 S   0  0  0  0  0  0  0  0  0  0  0  0
  194.1550  175.8280  135.4200 N   0  0  0  0  0  0  0  0  0  0  0  0
  191.9500  175.8330  136.3580 C   0  0  0  0  0  3  0  0  0  0  0  0
  194.8490  173.6280  135.4970 C   0  0  0  0  0  0  0  0  0  0  0  0
  196.3290  175.4300  134.5940 O   0  0  0  0  0  0  0  0  0  0  0  0
  197.3530  176.0290  135.3740 C   0  0  0  0  0  2  0  0  0  0  0  0
  198.4800  175.0370  135.5750 C   0  0  0  0  0  1  0  0  0  0  0  0
  189.7170  174.8200  135.9250 C   0  0  0  0  0  0  0  0  0  0  0  0
  188.8700  173.1880  137.4030 O   0  0  0  0  0  1  0  0  0  0  0  0
  189.7000  175.5290  134.7260 O   0  0  0  0  0  1  0  0  0  0  0  0
  188.8290  173.8400  136.1710 C   0  0  0  0  0  0  0  0  0  0  0  0
  187.7830  172.2190  134.6980 N   0  0  0  0  0  2  0  0  0  0  0  0
  187.7930  173.4110  135.1980 C   0  0  0  0  0  0  0  0  0  0  0  0
  186.6470  174.3180  134.8980 C   0  0  0  0  0  2  0  0  0  0  0  0
  185.6150  174.0900  135.8070 O   0  0  0  0  0  1  0  0  0  0  0  0
  1  3  1  0  0  0  0
  1  9  1  0  0  0  0
  3  4  1  0  0  0  0
  5  7  1  0  0  0  0
  6  1  2  0  0  0  0
  7  2  1  0  0  0  0
  7  3  2  0  0  0  0
  8  5  2  0  0  0  0
  8  6  1  0  0  0  0
 10 19  1  1  0  0  0
 10 12  1  0  0  0  0
 11  9  1  1  0  0  0
 11 14  1  0  0  0  0
 11 10  1  0  0  0  0
 13 12  1  0  0  0  0
 14 15  1  6  0  0  0
 14 13  1  0  0  0  0
 15 16  1  0  0  0  0
 17 18  1  0  0  0  0
 17 16  1  0  0  0  0
 19 21  1  0  0  0  0
 21 20  1  6  0  0  0
 21 23  1  0  0  0  0
 23 22  1  1  0  0  0
 23 24  1  0  0  0  0
 24 25  1  0  0  0  0
 26 25  1  0  0  0  0
 27 26  2  0  0  0  0
 28 34  1  6  0  0  0
 28  5  1  0  0  0  0
 29 35  2  0  0  0  0
 30 33  2  0  0  0  0
 30 35  1  0  0  0  0
 31 32  1  0  0  0  0
 31 34  2  0  0  0  0
 33 31  1  0  0  0  0
 35 32  1  0  0  0  0
 36 30  1  0  0  0  0
 36 37  1  0  0  0  0
 37 38  1  0  0  0  0
 39 42  2  0  0  0  0
 39 28  1  0  0  0  0
 41 39  1  0  0  0  0
 42 40  1  0  0  0  0
 43 44  2  0  0  0  0
 44 42  1  0  0  0  0
 45 44  1  0  0  0  0
 45 46  1  0  0  0  0
M  END
>  <MODEL>
4

>  <REMARK>
 VINA RESULT:      -5.4      4.854      9.652
  Name = 
  18 active torsions:
  status: ('A' for Active; 'I' for Inactive)
    1  A    between atoms: C_1  and  C_21
    2  A    between atoms: C_3  and  C_11
    3  A    between atoms: C_3  and  C_22
    4  A    between atoms: C_3  and  C_38
    5  A    between atoms: C_4  and  C_23
    6  A    between atoms: C_5  and  C_18
    7  A    between atoms: C_6  and  C_21
    8  A    between atoms: O_8  and  C_14
    9  A    between atoms: O_8  and  C_26
   10  A    between atoms: O_13  and  C_35
   11  A    between atoms: C_18  and  C_45
   12  A    between atoms: C_23  and  C_30
   13  A    between atoms: C_27  and  C_34
   14  A    between atoms: C_27  and  C_40
   15  A    between atoms: C_28  and  C_34
   16  A    between atoms: C_30  and  C_40
   17  A    between atoms: C_31  and  C_33
   18  A    between atoms: C_31  and  C_35
                            x       y       z     vdW  Elec       q    Type
                         _______ _______ _______ _____ _____    ______ ____

>  <TORSDO>
F 18

$$$$
=
 OpenBabel10222417193D

 46 48  0  0  1  0  0  0  0  0999 V2000
  189.2410  177.8210  142.8150 C   0  0  0  0  0  0  0  0  0  0  0  0
  192.4290  177.5210  140.7710 C   0  0  0  0  0  1  0  0  0  0  0  0
  190.5950  177.8640  142.4430 C   0  0  0  0  0  0  0  0  0  0  0  0
  191.5480  178.3270  143.3480 O   0  0  0  0  0  1  0  0  0  0  0  0
  190.0170  176.9970  140.2430 C   0  0  0  0  0  0  0  0  0  0  0  0
  188.2840  177.3640  141.9060 C   0  0  0  0  0  3  0  0  0  0  0  0
  190.9860  177.4530  141.1580 C   0  0  0  0  0  0  0  0  0  0  0  0
  188.6690  176.9540  140.6300 C   0  0  0  0  0  3  0  0  0  0  0  0
  188.8000  178.3330  144.1490 C   0  0  0  0  0  2  0  0  0  0  0  0
  187.2600  177.3520  145.9530 C   0  0  2  0  0  3  0  0  0  0  0  0
  187.3980  177.8260  144.5100 C   0  0  1  0  0  3  0  0  0  0  0  0
  185.7720  177.4670  146.2270 C   0  0  0  0  0  2  0  0  0  0  0  0
  185.2630  178.6160  145.3710 C   0  0  0  0  0  2  0  0  0  0  0  0
  186.3080  178.8650  144.2950 C   0  0  2  0  0  3  0  0  0  0  0  0
  185.6940  178.6870  142.9180 C   0  0  0  0  0  2  0  0  0  0  0  0
  184.1930  178.5090  143.0360 C   0  0  0  0  0  2  0  0  0  0  0  0
  183.5660  179.1510  141.9700 O   0  0  0  0  0  0  0  0  0  0  0  0
  182.2720  178.6320  141.9610 C   0  0  0  0  0  1  0  0  0  0  0  0
  188.0210  178.2420  146.9370 C   0  0  0  0  0  2  0  0  0  0  0  0
  188.1320  176.1070  147.9830 O   0  0  0  0  0  1  0  0  0  0  0  0
  188.5830  177.4250  148.0920 C   0  0  1  0  0  3  0  0  0  0  0  0
  190.5570  178.6010  148.7580 O   0  0  0  0  0  1  0  0  0  0  0  0
  190.1110  177.4600  148.0890 C   0  0  2  0  0  3  0  0  0  0  0  0
  190.6450  177.4960  146.6650 C   0  0  0  0  0  2  0  0  0  0  0  0
  191.5900  176.3290  146.4200 C   0  0  0  0  0  2  0  0  0  0  0  0
  192.0320  175.7440  147.7200 C   0  0  0  0  0  3  0  0  0  0  0  0
  193.1350  176.0080  148.1700 O   0  0  0  0  0  0  0  0  0  0  0  0
  190.4140  176.5860  138.8520 C   0  0  2  0  0  3  0  0  0  0  0  0
  194.0100  173.0300  136.0880 O   0  0  0  0  0  0  0  0  0  0  0  0
  194.5750  175.1020  137.1350 C   0  0  0  0  0  0  0  0  0  0  0  0
  192.6250  175.8680  137.9570 C   0  0  0  0  0  0  0  0  0  0  0  0
  191.9680  174.3620  137.2160 S   0  0  0  0  0  0  0  0  0  0  0  0
  194.0260  176.0670  137.7940 N   0  0  0  0  0  0  0  0  0  0  0  0
  191.8890  176.7410  138.6410 C   0  0  0  0  0  3  0  0  0  0  0  0
  193.6550  174.0550  136.7250 C   0  0  0  0  0  0  0  0  0  0  0  0
  195.9390  175.0650  136.8430 O   0  0  0  0  0  0  0  0  0  0  0  0
  196.8790  174.4640  137.7220 C   0  0  0  0  0  2  0  0  0  0  0  0
  197.2160  173.0740  137.2270 C   0  0  0  0  0  1  0  0  0  0  0  0
  189.6150  177.3090  137.8020 C   0  0  0  0  0  0  0  0  0  0  0  0
  188.5800  175.2630  137.2480 O   0  0  0  0  0  1  0  0  0  0  0  0
  189.7890  178.6830  137.6590 O   0  0  0  0  0  1  0  0  0  0  0  0
  188.7390  176.6320  137.0370 C   0  0  0  0  0  0  0  0  0  0  0  0
  188.3560  177.3820  134.7610 N   0  0  0  0  0  2  0  0  0  0  0  0
  187.9220  177.2650  135.9730 C   0  0  0  0  0  0  0  0  0  0  0  0
  186.5080  177.6440  136.2610 C   0  0  0  0  0  2  0  0  0  0  0  0
  186.4780  178.8280  136.9980 O   0  0  0  0  0  1  0  0  0  0  0  0
  1  9  1  0  0  0  0
  2  7  1  0  0  0  0
  3  1  1  0  0  0  0
  3  4  1  0  0  0  0
  5  8  2  0  0  0  0
  5  7  1  0  0  0  0
  6  1  2  0  0  0  0
  7  3  2  0  0  0  0
  8  6  1  0  0  0  0
 10 12  1  0  0  0  0
 10 19  1  1  0  0  0
 11  9  1  1  0  0  0
 11 10  1  0  0  0  0
 13 12  1  0  0  0  0
 14 15  1  6  0  0  0
 14 11  1  0  0  0  0
 14 13  1  0  0  0  0
 15 16  1  0  0  0  0
 17 16  1  0  0  0  0
 18 17  1  0  0  0  0
 19 21  1  0  0  0  0
 21 20  1  6  0  0  0
 23 21  1  0  0  0  0
 23 22  1  1  0  0  0
 24 23  1  0  0  0  0
 25 24  1  0  0  0  0
 25 26  1  0  0  0  0
 26 27  2  0  0  0  0
 28 34  1  6  0  0  0
 28  5  1  0  0  0  0
 29 35  2  0  0  0  0
 30 33  2  0  0  0  0
 31 34  2  0  0  0  0
 32 31  1  0  0  0  0
 33 31  1  0  0  0  0
 35 30  1  0  0  0  0
 35 32  1  0  0  0  0
 36 30  1  0  0  0  0
 36 37  1  0  0  0  0
 38 37  1  0  0  0  0
 39 28  1  0  0  0  0
 41 39  1  0  0  0  0
 42 40  1  0  0  0  0
 42 39  2  0  0  0  0
 43 44  2  0  0  0  0
 44 45  1  0  0  0  0
 44 42  1  0  0  0  0
 45 46  1  0  0  0  0
M  END
>  <MODEL>
5

>  <REMARK>
 VINA RESULT:      -5.3      4.464      9.207
  Name = 
  18 active torsions:
  status: ('A' for Active; 'I' for Inactive)
    1  A    between atoms: C_1  and  C_21
    2  A    between atoms: C_3  and  C_11
    3  A    between atoms: C_3  and  C_22
    4  A    between atoms: C_3  and  C_38
    5  A    between atoms: C_4  and  C_23
    6  A    between atoms: C_5  and  C_18
    7  A    between atoms: C_6  and  C_21
    8  A    between atoms: O_8  and  C_14
    9  A    between atoms: O_8  and  C_26
   10  A    between atoms: O_13  and  C_35
   11  A    between atoms: C_18  and  C_45
   12  A    between atoms: C_23  and  C_30
   13  A    between atoms: C_27  and  C_34
   14  A    between atoms: C_27  and  C_40
   15  A    between atoms: C_28  and  C_34
   16  A    between atoms: C_30  and  C_40
   17  A    between atoms: C_31  and  C_33
   18  A    between atoms: C_31  and  C_35
                            x       y       z     vdW  Elec       q    Type
                         _______ _______ _______ _____ _____    ______ ____

>  <TORSDO>
F 18

$$$$
=
 OpenBabel10222417193D

 46 48  0  0  1  0  0  0  0  0999 V2000
  188.8650  176.8450  143.3100 C   0  0  0  0  0  0  0  0  0  0  0  0
  187.8320  178.6300  140.1190 C   0  0  0  0  0  1  0  0  0  0  0  0
  188.1550  177.6480  142.4020 C   0  0  0  0  0  0  0  0  0  0  0  0
  186.9950  178.2990  142.8130 O   0  0  0  0  0  1  0  0  0  0  0  0
  189.7760  177.1150  140.6650 C   0  0  0  0  0  0  0  0  0  0  0  0
  190.0250  176.1850  142.8960 C   0  0  0  0  0  3  0  0  0  0  0  0
  188.6080  177.7850  141.0790 C   0  0  0  0  0  0  0  0  0  0  0  0
  190.4780  176.3200  141.5840 C   0  0  0  0  0  3  0  0  0  0  0  0
  188.3500  176.6230  144.6960 C   0  0  0  0  0  2  0  0  0  0  0  0
  187.9250  178.4200  146.4800 C   0  0  2  0  0  3  0  0  0  0  0  0
  188.9570  177.6240  145.6880 C   0  0  1  0  0  3  0  0  0  0  0  0
  188.6840  178.8570  147.7190 C   0  0  0  0  0  2  0  0  0  0  0  0
  189.7190  177.7780  147.9940 C   0  0  0  0  0  2  0  0  0  0  0  0
  189.8750  176.9750  146.7120 C   0  0  2  0  0  3  0  0  0  0  0  0
  191.3130  177.0390  146.2270 C   0  0  0  0  0  2  0  0  0  0  0  0
  191.9840  175.6920  146.4090 C   0  0  0  0  0  2  0  0  0  0  0  0
  191.7950  175.2560  147.7190 O   0  0  0  0  0  0  0  0  0  0  0  0
  192.8040  175.8850  148.4470 C   0  0  0  0  0  1  0  0  0  0  0  0
  186.7260  177.5670  146.9010 C   0  0  0  0  0  2  0  0  0  0  0  0
  185.7480  179.7260  146.6840 O   0  0  0  0  0  1  0  0  0  0  0  0
  185.4360  178.3740  146.8500 C   0  0  1  0  0  3  0  0  0  0  0  0
  185.3300  177.5070  144.6230 O   0  0  0  0  0  1  0  0  0  0  0  0
  184.5410  177.8960  145.7070 C   0  0  2  0  0  3  0  0  0  0  0  0
  183.6100  179.0110  145.2510 C   0  0  0  0  0  2  0  0  0  0  0  0
  183.5190  179.0410  143.7330 C   0  0  0  0  0  2  0  0  0  0  0  0
  182.0910  179.1160  143.3050 C   0  0  0  0  0  3  0  0  0  0  0  0
  181.2230  178.5660  143.9630 O   0  0  0  0  0  0  0  0  0  0  0  0
  190.2550  177.2230  139.2430 C   0  0  2  0  0  3  0  0  0  0  0  0
  187.0020  178.6180  134.6960 O   0  0  0  0  0  0  0  0  0  0  0  0
  187.4200  176.4200  135.5310 C   0  0  0  0  0  0  0  0  0  0  0  0
  188.7840  176.7360  137.2930 C   0  0  0  0  0  0  0  0  0  0  0  0
  188.6310  178.4710  136.8260 S   0  0  0  0  0  0  0  0  0  0  0  0
  188.0670  175.8180  136.4730 N   0  0  0  0  0  0  0  0  0  0  0  0
  189.4840  176.3080  138.3410 C   0  0  0  0  0  3  0  0  0  0  0  0
  187.5680  177.8650  135.5280 C   0  0  0  0  0  0  0  0  0  0  0  0
  186.6420  175.7390  134.5940 O   0  0  0  0  0  0  0  0  0  0  0  0
  185.2360  175.6080  134.7380 C   0  0  0  0  0  2  0  0  0  0  0  0
  184.8850  175.5290  136.2090 C   0  0  0  0  0  1  0  0  0  0  0  0
  191.7400  177.0060  139.1320 C   0  0  0  0  0  0  0  0  0  0  0  0
  191.3190  175.1990  137.6760 O   0  0  0  0  0  1  0  0  0  0  0  0
  192.5930  177.8670  139.8180 O   0  0  0  0  0  1  0  0  0  0  0  0
  192.2190  176.0080  138.3680 C   0  0  0  0  0  0  0  0  0  0  0  0
  194.4610  175.6650  139.2310 N   0  0  0  0  0  2  0  0  0  0  0  0
  193.6660  175.7180  138.2140 C   0  0  0  0  0  0  0  0  0  0  0  0
  194.1990  175.3290  136.8750 C   0  0  0  0  0  2  0  0  0  0  0  0
  195.0670  176.3160  136.4080 O   0  0  0  0  0  1  0  0  0  0  0  0
  1  9  1  0  0  0  0
  2  7  1  0  0  0  0
  3  4  1  0  0  0  0
  3  1  2  0  0  0  0
  5  7  2  0  0  0  0
  5  8  1  0  0  0  0
  6  1  1  0  0  0  0
  7  3  1  0  0  0  0
  8  6  2  0  0  0  0
 10 19  1  1  0  0  0
 10 12  1  0  0  0  0
 11  9  1  1  0  0  0
 11 10  1  0  0  0  0
 11 14  1  0  0  0  0
 12 13  1  0  0  0  0
 14 15  1  6  0  0  0
 14 13  1  0  0  0  0
 15 16  1  0  0  0  0
 16 17  1  0  0  0  0
 17 18  1  0  0  0  0
 21 20  1  6  0  0  0
 21 19  1  0  0  0  0
 23 22  1  6  0  0  0
 23 21  1  0  0  0  0
 24 23  1  0  0  0  0
 25 24  1  0  0  0  0
 26 25  1  0  0  0  0
 26 27  2  0  0  0  0
 28 34  1  6  0  0  0
 28  5  1  0  0  0  0
 29 35  2  0  0  0  0
 30 33  2  0  0  0  0
 31 34  2  0  0  0  0
 32 31  1  0  0  0  0
 33 31  1  0  0  0  0
 35 30  1  0  0  0  0
 35 32  1  0  0  0  0
 36 37  1  0  0  0  0
 36 30  1  0  0  0  0
 37 38  1  0  0  0  0
 39 28  1  0  0  0  0
 39 41  1  0  0  0  0
 40 42  1  0  0  0  0
 42 39  2  0  0  0  0
 44 42  1  0  0  0  0
 44 43  2  0  0  0  0
 45 44  1  0  0  0  0
 46 45  1  0  0  0  0
M  END
>  <MODEL>
6

>  <REMARK>
 VINA RESULT:      -5.1      4.229      8.350
  Name = 
  18 active torsions:
  status: ('A' for Active; 'I' for Inactive)
    1  A    between atoms: C_1  and  C_21
    2  A    between atoms: C_3  and  C_11
    3  A    between atoms: C_3  and  C_22
    4  A    between atoms: C_3  and  C_38
    5  A    between atoms: C_4  and  C_23
    6  A    between atoms: C_5  and  C_18
    7  A    between atoms: C_6  and  C_21
    8  A    between atoms: O_8  and  C_14
    9  A    between atoms: O_8  and  C_26
   10  A    between atoms: O_13  and  C_35
   11  A    between atoms: C_18  and  C_45
   12  A    between atoms: C_23  and  C_30
   13  A    between atoms: C_27  and  C_34
   14  A    between atoms: C_27  and  C_40
   15  A    between atoms: C_28  and  C_34
   16  A    between atoms: C_30  and  C_40
   17  A    between atoms: C_31  and  C_33
   18  A    between atoms: C_31  and  C_35
                            x       y       z     vdW  Elec       q    Type
                         _______ _______ _______ _____ _____    ______ ____

>  <TORSDO>
F 18

$$$$
=
 OpenBabel10222417193D

 46 48  0  0  1  0  0  0  0  0999 V2000
  189.1140  177.9120  139.0580 C   0  0  0  0  0  0  0  0  0  0  0  0
  189.0770  177.9610  135.2600 C   0  0  0  0  0  1  0  0  0  0  0  0
  188.9400  178.3420  137.7330 C   0  0  0  0  0  0  0  0  0  0  0  0
  188.4140  179.6060  137.4780 O   0  0  0  0  0  1  0  0  0  0  0  0
  189.8050  176.2130  136.9290 C   0  0  0  0  0  0  0  0  0  0  0  0
  189.6350  176.6410  139.3150 C   0  0  0  0  0  3  0  0  0  0  0  0
  189.2840  177.4950  136.6660 C   0  0  0  0  0  0  0  0  0  0  0  0
  189.9790  175.7980  138.2580 C   0  0  0  0  0  3  0  0  0  0  0  0
  188.6750  178.7690  140.2020 C   0  0  0  0  0  2  0  0  0  0  0  0
  188.3370  177.2540  142.2460 C   0  0  2  0  0  3  0  0  0  0  0  0
  187.6820  178.0300  141.1090 C   0  0  1  0  0  3  0  0  0  0  0  0
  187.2310  177.1260  143.2770 C   0  0  0  0  0  2  0  0  0  0  0  0
  186.3510  178.3570  143.1210 C   0  0  0  0  0  2  0  0  0  0  0  0
  186.6560  178.9500  141.7540 C   0  0  2  0  0  3  0  0  0  0  0  0
  185.3960  178.9880  140.9070 C   0  0  0  0  0  2  0  0  0  0  0  0
  185.6350  178.2850  139.5860 C   0  0  0  0  0  2  0  0  0  0  0  0
  184.4410  178.2270  138.8710 O   0  0  0  0  0  0  0  0  0  0  0  0
  183.4450  178.3000  139.8450 C   0  0  0  0  0  1  0  0  0  0  0  0
  189.5160  178.0070  142.8670 C   0  0  0  0  0  2  0  0  0  0  0  0
  191.7300  178.0550  141.9950 O   0  0  0  0  0  1  0  0  0  0  0  0
  190.8170  177.2420  142.6720 C   0  0  1  0  0  3  0  0  0  0  0  0
  191.1930  175.4370  144.1970 O   0  0  0  0  0  1  0  0  0  0  0  0
  191.3980  176.8060  144.0180 C   0  0  2  0  0  3  0  0  0  0  0  0
  190.7210  177.5480  145.1610 C   0  0  0  0  0  2  0  0  0  0  0  0
  190.4170  176.5970  146.3080 C   0  0  0  0  0  2  0  0  0  0  0  0
  191.4450  176.7380  147.3790 C   0  0  0  0  0  3  0  0  0  0  0  0
  192.4380  176.0280  147.3760 O   0  0  0  0  0  0  0  0  0  0  0  0
  190.1460  175.2800  135.7990 C   0  0  2  0  0  3  0  0  0  0  0  0
  184.8880  173.2480  134.6000 O   0  0  0  0  0  0  0  0  0  0  0  0
  186.6920  172.0420  135.5990 C   0  0  0  0  0  0  0  0  0  0  0  0
  188.3770  173.5300  135.7030 C   0  0  0  0  0  0  0  0  0  0  0  0
  187.1750  174.6220  134.9190 S   0  0  0  0  0  0  0  0  0  0  0  0
  187.9170  172.2080  135.9710 N   0  0  0  0  0  0  0  0  0  0  0  0
  189.6060  173.9050  136.0490 C   0  0  0  0  0  3  0  0  0  0  0  0
  186.0780  173.2180  135.0080 C   0  0  0  0  0  0  0  0  0  0  0  0
  186.0130  170.8320  135.7520 O   0  0  0  0  0  0  0  0  0  0  0  0
  185.3210  170.2180  134.6740 C   0  0  0  0  0  2  0  0  0  0  0  0
  183.9240  169.8430  135.1200 C   0  0  0  0  0  1  0  0  0  0  0  0
  191.6230  175.2630  135.5110 C   0  0  0  0  0  0  0  0  0  0  0  0
  191.8390  173.4290  136.9780 O   0  0  0  0  0  1  0  0  0  0  0  0
  192.1370  176.1880  134.6070 O   0  0  0  0  0  1  0  0  0  0  0  0
  192.4140  174.3540  136.1090 C   0  0  0  0  0  0  0  0  0  0  0  0
  194.3820  173.6930  134.8510 N   0  0  0  0  0  2  0  0  0  0  0  0
  193.8800  174.2760  135.8900 C   0  0  0  0  0  0  0  0  0  0  0  0
  194.8000  175.0140  136.8040 C   0  0  0  0  0  2  0  0  0  0  0  0
  194.9600  176.3240  136.3550 O   0  0  0  0  0  1  0  0  0  0  0  0
  1  6  1  0  0  0  0
  1  9  1  0  0  0  0
  2  7  1  0  0  0  0
  3  1  2  0  0  0  0
  4  3  1  0  0  0  0
  5  8  1  0  0  0  0
  7  5  2  0  0  0  0
  7  3  1  0  0  0  0
  8  6  2  0  0  0  0
 10 19  1  1  0  0  0
 10 12  1  0  0  0  0
 11  9  1  1  0  0  0
 11 14  1  0  0  0  0
 11 10  1  0  0  0  0
 13 12  1  0  0  0  0
 14 15  1  6  0  0  0
 14 13  1  0  0  0  0
 16 15  1  0  0  0  0
 17 16  1  0  0  0  0
 17 18  1  0  0  0  0
 21 20  1  1  0  0  0
 21 19  1  0  0  0  0
 21 23  1  0  0  0  0
 23 22  1  1  0  0  0
 23 24  1  0  0  0  0
 24 25  1  0  0  0  0
 25 26  1  0  0  0  0
 27 26  2  0  0  0  0
 28 34  1  1  0  0  0
 28  5  1  0  0  0  0
 29 35  2  0  0  0  0
 30 36  1  0  0  0  0
 30 33  2  0  0  0  0
 31 33  1  0  0  0  0
 31 34  2  0  0  0  0
 32 35  1  0  0  0  0
 32 31  1  0  0  0  0
 35 30  1  0  0  0  0
 37 38  1  0  0  0  0
 37 36  1  0  0  0  0
 39 28  1  0  0  0  0
 39 42  2  0  0  0  0
 41 39  1  0  0  0  0
 42 40  1  0  0  0  0
 43 44  2  0  0  0  0
 44 42  1  0  0  0  0
 44 45  1  0  0  0  0
 46 45  1  0  0  0  0
M  END
>  <MODEL>
7

>  <REMARK>
 VINA RESULT:      -5.0      4.024      8.702
  Name = 
  18 active torsions:
  status: ('A' for Active; 'I' for Inactive)
    1  A    between atoms: C_1  and  C_21
    2  A    between atoms: C_3  and  C_11
    3  A    between atoms: C_3  and  C_22
    4  A    between atoms: C_3  and  C_38
    5  A    between atoms: C_4  and  C_23
    6  A    between atoms: C_5  and  C_18
    7  A    between atoms: C_6  and  C_21
    8  A    between atoms: O_8  and  C_14
    9  A    between atoms: O_8  and  C_26
   10  A    between atoms: O_13  and  C_35
   11  A    between atoms: C_18  and  C_45
   12  A    between atoms: C_23  and  C_30
   13  A    between atoms: C_27  and  C_34
   14  A    between atoms: C_27  and  C_40
   15  A    between atoms: C_28  and  C_34
   16  A    between atoms: C_30  and  C_40
   17  A    between atoms: C_31  and  C_33
   18  A    between atoms: C_31  and  C_35
                            x       y       z     vdW  Elec       q    Type
                         _______ _______ _______ _____ _____    ______ ____

>  <TORSDO>
F 18

$$$$
=
 OpenBabel10222417193D

 46 48  0  0  1  0  0  0  0  0999 V2000
  186.0410  178.9110  140.7450 C   0  0  0  0  0  0  0  0  0  0  0  0
  183.3350  178.2620  138.1590 C   0  0  0  0  0  1  0  0  0  0  0  0
  184.8040  178.9190  140.0800 C   0  0  0  0  0  0  0  0  0  0  0  0
  183.7140  179.5710  140.6510 O   0  0  0  0  0  1  0  0  0  0  0  0
  185.7660  177.5920  138.2800 C   0  0  0  0  0  0  0  0  0  0  0  0
  187.1330  178.2500  140.1770 C   0  0  0  0  0  3  0  0  0  0  0  0
  184.6630  178.2600  138.8470 C   0  0  0  0  0  0  0  0  0  0  0  0
  186.9960  177.5970  138.9530 C   0  0  0  0  0  3  0  0  0  0  0  0
  186.1840  179.5360  142.0960 C   0  0  0  0  0  2  0  0  0  0  0  0
  186.5790  177.5530  143.6780 C   0  0  2  0  0  3  0  0  0  0  0  0
  185.6140  178.6310  143.1970 C   0  0  1  0  0  3  0  0  0  0  0  0
  186.0700  177.2100  145.0660 C   0  0  0  0  0  2  0  0  0  0  0  0
  185.4390  178.4780  145.6200 C   0  0  0  0  0  2  0  0  0  0  0  0
  185.1730  179.3950  144.4360 C   0  0  2  0  0  3  0  0  0  0  0  0
  183.6910  179.7130  144.3440 C   0  0  0  0  0  2  0  0  0  0  0  0
  182.9380  178.5250  143.7800 C   0  0  0  0  0  2  0  0  0  0  0  0
  181.5880  178.6380  144.1040 O   0  0  0  0  0  0  0  0  0  0  0  0
  181.0370  179.3760  143.0550 C   0  0  0  0  0  1  0  0  0  0  0  0
  188.0190  178.0610  143.7830 C   0  0  0  0  0  2  0  0  0  0  0  0
  188.8690  175.9430  143.1070 O   0  0  0  0  0  1  0  0  0  0  0  0
  188.9790  176.9220  144.0980 C   0  0  1  0  0  3  0  0  0  0  0  0
  190.4600  178.7800  143.8180 O   0  0  0  0  0  1  0  0  0  0  0  0
  190.4180  177.4310  144.1780 C   0  0  2  0  0  3  0  0  0  0  0  0
  191.3180  176.6510  143.2300 C   0  0  0  0  0  2  0  0  0  0  0  0
  191.8600  177.5610  142.1390 C   0  0  0  0  0  2  0  0  0  0  0  0
  191.3600  177.1190  140.8050 C   0  0  0  0  0  3  0  0  0  0  0  0
  190.3980  177.6710  140.2940 O   0  0  0  0  0  0  0  0  0  0  0  0
  185.6230  176.8520  136.9770 C   0  0  2  0  0  3  0  0  0  0  0  0
  181.0900  173.6960  135.3320 O   0  0  0  0  0  0  0  0  0  0  0  0
  183.0100  172.9240  136.5260 C   0  0  0  0  0  0  0  0  0  0  0  0
  184.3040  174.7510  136.7550 C   0  0  0  0  0  0  0  0  0  0  0  0
  182.9720  175.5450  135.8350 S   0  0  0  0  0  0  0  0  0  0  0  0
  184.1250  173.3610  137.0100 N   0  0  0  0  0  0  0  0  0  0  0  0
  185.3790  175.3920  137.2070 C   0  0  0  0  0  3  0  0  0  0  0  0
  182.2110  173.9330  135.8520 C   0  0  0  0  0  0  0  0  0  0  0  0
  182.6050  171.5940  136.6430 O   0  0  0  0  0  0  0  0  0  0  0  0
  183.4500  170.5160  136.2680 C   0  0  0  0  0  2  0  0  0  0  0  0
  182.8610  169.8070  135.0660 C   0  0  0  0  0  1  0  0  0  0  0  0
  186.7930  177.0920  136.0630 C   0  0  0  0  0  0  0  0  0  0  0  0
  187.7360  175.0650  136.8160 O   0  0  0  0  0  1  0  0  0  0  0  0
  186.7920  178.2310  135.2620 O   0  0  0  0  0  1  0  0  0  0  0  0
  187.8050  176.2060  136.0180 C   0  0  0  0  0  0  0  0  0  0  0  0
  189.4370  177.5410  134.8180 N   0  0  0  0  0  2  0  0  0  0  0  0
  189.0000  176.3730  135.1550 C   0  0  0  0  0  0  0  0  0  0  0  0
  189.8120  175.1770  134.7850 C   0  0  0  0  0  2  0  0  0  0  0  0
  190.8890  175.0480  135.6620 O   0  0  0  0  0  1  0  0  0  0  0  0
  1  9  1  0  0  0  0
  2  7  1  0  0  0  0
  3  4  1  0  0  0  0
  3  1  2  0  0  0  0
  5  7  2  0  0  0  0
  5  8  1  0  0  0  0
  6  1  1  0  0  0  0
  7  3  1  0  0  0  0
  8  6  2  0  0  0  0
 10 19  1  1  0  0  0
 10 12  1  0  0  0  0
 11  9  1  6  0  0  0
 11 10  1  0  0  0  0
 11 14  1  0  0  0  0
 12 13  1  0  0  0  0
 14 15  1  6  0  0  0
 14 13  1  0  0  0  0
 16 17  1  0  0  0  0
 16 15  1  0  0  0  0
 18 17  1  0  0  0  0
 19 21  1  0  0  0  0
 21 20  1  6  0  0  0
 21 23  1  0  0  0  0
 23 22  1  6  0  0  0
 24 23  1  0  0  0  0
 25 24  1  0  0  0  0
 26 25  1  0  0  0  0
 27 26  2  0  0  0  0
 28 34  1  1  0  0  0
 28  5  1  0  0  0  0
 29 35  2  0  0  0  0
 30 36  1  0  0  0  0
 30 33  2  0  0  0  0
 31 33  1  0  0  0  0
 31 34  2  0  0  0  0
 32 35  1  0  0  0  0
 32 31  1  0  0  0  0
 35 30  1  0  0  0  0
 37 36  1  0  0  0  0
 38 37  1  0  0  0  0
 39 28  1  0  0  0  0
 41 39  1  0  0  0  0
 42 39  2  0  0  0  0
 42 40  1  0  0  0  0
 43 44  2  0  0  0  0
 44 42  1  0  0  0  0
 45 44  1  0  0  0  0
 45 46  1  0  0  0  0
M  END
>  <MODEL>
8

>  <REMARK>
 VINA RESULT:      -5.0      3.057      5.644
  Name = 
  18 active torsions:
  status: ('A' for Active; 'I' for Inactive)
    1  A    between atoms: C_1  and  C_21
    2  A    between atoms: C_3  and  C_11
    3  A    between atoms: C_3  and  C_22
    4  A    between atoms: C_3  and  C_38
    5  A    between atoms: C_4  and  C_23
    6  A    between atoms: C_5  and  C_18
    7  A    between atoms: C_6  and  C_21
    8  A    between atoms: O_8  and  C_14
    9  A    between atoms: O_8  and  C_26
   10  A    between atoms: O_13  and  C_35
   11  A    between atoms: C_18  and  C_45
   12  A    between atoms: C_23  and  C_30
   13  A    between atoms: C_27  and  C_34
   14  A    between atoms: C_27  and  C_40
   15  A    between atoms: C_28  and  C_34
   16  A    between atoms: C_30  and  C_40
   17  A    between atoms: C_31  and  C_33
   18  A    between atoms: C_31  and  C_35
                            x       y       z     vdW  Elec       q    Type
                         _______ _______ _______ _____ _____    ______ ____

>  <TORSDO>
F 18

$$$$
=
 OpenBabel10222417193D

 46 48  0  0  1  0  0  0  0  0999 V2000
  188.5830  177.9710  141.0980 C   0  0  0  0  0  0  0  0  0  0  0  0
  187.0570  177.9230  137.6190 C   0  0  0  0  0  1  0  0  0  0  0  0
  187.7530  178.2620  140.0020 C   0  0  0  0  0  0  0  0  0  0  0  0
  186.7190  179.1830  140.1420 O   0  0  0  0  0  1  0  0  0  0  0  0
  189.0000  176.6760  138.6390 C   0  0  0  0  0  0  0  0  0  0  0  0
  189.6170  177.0400  140.9600 C   0  0  0  0  0  3  0  0  0  0  0  0
  187.9590  177.6150  138.7720 C   0  0  0  0  0  0  0  0  0  0  0  0
  189.8250  176.3990  139.7400 C   0  0  0  0  0  3  0  0  0  0  0  0
  188.3240  178.5870  142.4350 C   0  0  0  0  0  2  0  0  0  0  0  0
  187.7480  177.3260  144.5960 C   0  0  2  0  0  3  0  0  0  0  0  0
  187.2740  177.7950  143.2250 C   0  0  1  0  0  3  0  0  0  0  0  0
  186.4600  177.1220  145.3700 C   0  0  0  0  0  2  0  0  0  0  0  0
  185.4570  178.1200  144.8120 C   0  0  0  0  0  2  0  0  0  0  0  0
  185.9860  178.5710  143.4590 C   0  0  2  0  0  3  0  0  0  0  0  0
  184.9820  178.2420  142.3690 C   0  0  0  0  0  2  0  0  0  0  0  0
  183.5740  178.5180  142.8580 C   0  0  0  0  0  2  0  0  0  0  0  0
  182.7640  178.8420  141.7720 O   0  0  0  0  0  0  0  0  0  0  0  0
  181.4910  179.0020  142.3200 C   0  0  0  0  0  1  0  0  0  0  0  0
  188.6020  178.3760  145.3100 C   0  0  0  0  0  2  0  0  0  0  0  0
  188.6650  176.7590  147.0560 O   0  0  0  0  0  1  0  0  0  0  0  0
  189.4260  177.7450  146.4240 C   0  0  1  0  0  3  0  0  0  0  0  0
  191.6850  177.0950  146.8720 O   0  0  0  0  0  1  0  0  0  0  0  0
  190.7160  177.1400  145.8680 C   0  0  2  0  0  3  0  0  0  0  0  0
  191.2510  177.9790  144.7170 C   0  0  0  0  0  2  0  0  0  0  0  0
  191.8580  177.0880  143.6450 C   0  0  0  0  0  2  0  0  0  0  0  0
  191.3090  175.7050  143.7540 C   0  0  0  0  0  3  0  0  0  0  0  0
  192.0540  174.7620  143.9670 O   0  0  0  0  0  0  0  0  0  0  0  0
  189.2120  175.9500  137.3380 C   0  0  2  0  0  3  0  0  0  0  0  0
  184.5060  173.8960  134.7220 O   0  0  0  0  0  0  0  0  0  0  0  0
  186.0020  172.6790  136.1300 C   0  0  0  0  0  0  0  0  0  0  0  0
  187.5680  174.1830  136.7230 C   0  0  0  0  0  0  0  0  0  0  0  0
  186.5960  175.2850  135.6790 S   0  0  0  0  0  0  0  0  0  0  0  0
  187.0800  172.8480  136.8210 N   0  0  0  0  0  0  0  0  0  0  0  0
  188.6530  174.5610  137.3950 C   0  0  0  0  0  3  0  0  0  0  0  0
  185.5440  173.8670  135.4310 C   0  0  0  0  0  0  0  0  0  0  0  0
  185.3320  171.4570  136.0620 O   0  0  0  0  0  0  0  0  0  0  0  0
  185.1290  170.7800  134.8300 C   0  0  0  0  0  2  0  0  0  0  0  0
  183.6450  170.5940  134.5950 C   0  0  0  0  0  1  0  0  0  0  0  0
  190.6570  175.9600  136.9180 C   0  0  0  0  0  0  0  0  0  0  0  0
  189.9720  175.4270  134.7240 O   0  0  0  0  0  1  0  0  0  0  0  0
  191.6270  176.2670  137.8690 O   0  0  0  0  0  1  0  0  0  0  0  0
  190.9880  175.6930  135.6410 C   0  0  0  0  0  0  0  0  0  0  0  0
  192.9290  176.7060  134.5940 N   0  0  0  0  0  2  0  0  0  0  0  0
  192.3870  175.6710  135.1470 C   0  0  0  0  0  0  0  0  0  0  0  0
  193.2450  174.4820  135.4240 C   0  0  0  0  0  2  0  0  0  0  0  0
  194.5900  174.8420  135.3430 O   0  0  0  0  0  1  0  0  0  0  0  0
  1  9  1  0  0  0  0
  2  7  1  0  0  0  0
  3  4  1  0  0  0  0
  3  1  2  0  0  0  0
  5  7  2  0  0  0  0
  5  8  1  0  0  0  0
  6  1  1  0  0  0  0
  7  3  1  0  0  0  0
  8  6  2  0  0  0  0
 10 19  1  1  0  0  0
 10 12  1  0  0  0  0
 11  9  1  1  0  0  0
 11 14  1  0  0  0  0
 11 10  1  0  0  0  0
 13 12  1  0  0  0  0
 14 15  1  6  0  0  0
 14 13  1  0  0  0  0
 15 16  1  0  0  0  0
 17 18  1  0  0  0  0
 17 16  1  0  0  0  0
 19 21  1  0  0  0  0
 21 20  1  6  0  0  0
 23 21  1  0  0  0  0
 23 22  1  1  0  0  0
 24 23  1  0  0  0  0
 25 26  1  0  0  0  0
 25 24  1  0  0  0  0
 26 27  2  0  0  0  0
 28 34  1  1  0  0  0
 28  5  1  0  0  0  0
 29 35  2  0  0  0  0
 30 33  2  0  0  0  0
 31 33  1  0  0  0  0
 31 34  2  0  0  0  0
 32 31  1  0  0  0  0
 35 32  1  0  0  0  0
 35 30  1  0  0  0  0
 36 30  1  0  0  0  0
 37 36  1  0  0  0  0
 38 37  1  0  0  0  0
 39 28  1  0  0  0  0
 39 41  1  0  0  0  0
 40 42  1  0  0  0  0
 42 39  2  0  0  0  0
 43 44  2  0  0  0  0
 44 45  1  0  0  0  0
 44 42  1  0  0  0  0
 46 45  1  0  0  0  0
M  END
>  <MODEL>
9

>  <REMARK>
 VINA RESULT:      -5.0      3.807      7.751
  Name = 
  18 active torsions:
  status: ('A' for Active; 'I' for Inactive)
    1  A    between atoms: C_1  and  C_21
    2  A    between atoms: C_3  and  C_11
    3  A    between atoms: C_3  and  C_22
    4  A    between atoms: C_3  and  C_38
    5  A    between atoms: C_4  and  C_23
    6  A    between atoms: C_5  and  C_18
    7  A    between atoms: C_6  and  C_21
    8  A    between atoms: O_8  and  C_14
    9  A    between atoms: O_8  and  C_26
   10  A    between atoms: O_13  and  C_35
   11  A    between atoms: C_18  and  C_45
   12  A    between atoms: C_23  and  C_30
   13  A    between atoms: C_27  and  C_34
   14  A    between atoms: C_27  and  C_40
   15  A    between atoms: C_28  and  C_34
   16  A    between atoms: C_30  and  C_40
   17  A    between atoms: C_31  and  C_33
   18  A    between atoms: C_31  and  C_35
                            x       y       z     vdW  Elec       q    Type
                         _______ _______ _______ _____ _____    ______ ____

>  <TORSDO>
F 18

$$$$
