=
 OpenBabel10222417543D

 70 75  0  0  1  0  0  0  0  0999 V2000
  188.0660  177.2280  144.0340 N   0  0  0  0  0  0  0  0  0  0  0  0
  189.0710  177.2720  145.0610 C   0  0  0  0  0  0  0  0  0  0  0  0
  188.7300  176.9880  146.3980 C   0  0  0  0  0  3  0  0  0  0  0  0
  189.6780  177.0480  147.4010 C   0  0  0  0  0  3  0  0  0  0  0  0
  191.3600  177.6940  145.7980 C   0  0  0  0  0  3  0  0  0  0  0  0
  190.4080  177.6030  144.7830 C   0  0  0  0  0  3  0  0  0  0  0  0
  190.9930  177.4200  147.1180 C   0  0  0  0  0  3  0  0  0  0  0  0
  186.6230  176.9630  144.3730 C   0  0  0  0  0  2  0  0  0  0  0  0
  186.0100  177.9160  145.4270 C   0  0  0  0  0  2  0  0  0  0  0  0
  184.1600  178.3610  144.0170 N   0  0  0  0  0  0  0  0  0  0  0  0
  184.9690  178.7960  144.9240 N   0  0  0  0  0  0  0  0  0  0  0  0
  183.1260  179.2290  143.5120 C   0  0  0  0  0  0  0  0  0  0  0  0
  182.5320  179.9990  144.2870 O   0  0  0  0  0  0  0  0  0  0  0  0
  180.6880  177.7810  141.0580 C   0  0  0  0  0  2  0  0  0  0  0  0
  183.2770  176.2390  139.5690 O   0  0  0  0  0  1  0  0  0  0  0  0
  181.4210  177.6840  139.7870 N   0  0  0  0  0  0  0  0  0  0  0  0
  182.8770  177.5530  139.8810 C   0  0  1  0  0  3  0  0  0  0  0  0
  182.6360  179.1300  142.0480 C   0  0  1  0  0  3  0  0  0  0  0  0
  183.3740  177.9690  141.3170 C   0  0  0  0  0  2  0  0  0  0  0  0
  181.1400  178.9750  141.9870 C   0  0  0  0  0  2  0  0  0  0  0  0
  180.7960  177.3280  138.4280 C   0  0  2  0  0  3  0  0  0  0  0  0
  179.4000  180.3180  138.6290 C   0  0  0  0  0  2  0  0  0  0  0  0
  181.8720  180.7230  138.0470 O   0  0  0  0  0  0  0  0  0  0  0  0
  178.9700  178.9590  138.4590 N   0  0  0  0  0  2  0  0  0  0  0  0
  180.2820  178.6850  137.9240 C   0  0  1  0  0  3  0  0  0  0  0  0
  180.8370  180.0680  138.1920 C   0  0  0  0  0  0  0  0  0  0  0  0
  179.7960  176.0890  138.4160 C   0  0  1  0  0  3  0  0  0  0  0  0
  179.9160  175.1890  137.3460 O   0  0  0  0  0  0  0  0  0  0  0  0
  181.1620  174.6250  136.9210 C   0  0  0  0  0  0  0  0  0  0  0  0
  182.1350  174.5480  137.6690 O   0  0  0  0  0  0  0  0  0  0  0  0
  181.1610  174.0410  135.5510 C   0  0  0  0  0  2  0  0  0  0  0  0
  178.9430  172.2810  134.9080 O   0  0  0  0  0  1  0  0  0  0  0  0
  180.4790  172.3320  135.6120 P   0  0  0  0  0  0  0  0  0  0  0  0
  180.3680  171.7890  137.2190 O   0  0  0  0  0  1  0  0  0  0  0  0
  181.3800  171.4180  134.7880 O   0  0  0  0  0  0  0  0  0  0  0  0
  179.2180  175.4900  139.7290 C   0  0  0  0  0  2  0  0  0  0  0  0
  179.7550  174.0610  139.9270 C   0  0  0  0  0  2  0  0  0  0  0  0
  178.9320  174.4390  142.1770 O   0  0  0  0  0  1  0  0  0  0  0  0
  179.2370  173.4510  141.2310 C   0  0  0  0  0  2  0  0  0  0  0  0
  188.4730  177.6620  142.6580 C   0  0  0  0  0  2  0  0  0  0  0  0
  190.4310  175.4910  142.7830 O   0  0  0  0  0  1  0  0  0  0  0  0
  189.8390  176.7360  141.8160 P   0  0  1  0  0  0  0  0  0  0  0  0
  189.2460  176.0330  140.6240 O   0  0  0  0  0  0  0  0  0  0  0  0
  191.2120  177.7570  141.4920 O   0  0  0  0  0  0  0  0  0  0  0  0
  192.0790  176.9840  140.6890 C   0  0  0  0  0  2  0  0  0  0  0  0
  191.5480  175.3710  137.0330 C   0  0  2  0  0  3  0  0  0  0  0  0
  190.9560  176.6850  136.5480 C   0  0  0  0  0  2  0  0  0  0  0  0
  191.5510  176.8160  139.2770 C   0  0  0  0  0  0  0  0  0  0  0  0
  192.1920  175.6790  138.3960 C   0  0  0  0  0  2  0  0  0  0  0  0
  190.0270  177.6060  137.3990 C   0  0  2  0  0  3  0  0  0  0  0  0
  190.6670  177.7130  138.7500 C   0  0  0  0  0  3  0  0  0  0  0  0
  192.3740  174.5290  135.8220 C   0  0  1  0  0  3  0  0  0  0  0  0
  193.1900  175.5330  135.3940 O   0  0  0  0  0  0  0  0  0  0  0  0
  195.4930  176.3440  135.2420 C   0  0  0  0  0  2  0  0  0  0  0  0
  195.6600  174.8890  135.4840 C   0  0  2  0  0  3  0  0  0  0  0  0
  194.4750  175.6900  136.1340 C   0  0  2  0  0  3  0  0  0  0  0  0
  198.2860  174.7210  135.4810 O   0  0  0  0  0  1  0  0  0  0  0  0
  197.1120  174.9190  136.2500 C   0  0  0  0  0  2  0  0  0  0  0  0
  193.1720  173.3600  135.9930 O   0  0  0  0  0  0  0  0  0  0  0  0
  191.5800  172.3090  134.5970 O   0  0  0  0  0  1  0  0  0  0  0  0
  193.3360  172.2520  134.5940 P   0  0  2  0  0  0  0  0  0  0  0  0
  194.8890  170.1860  135.2470 O   0  0  0  0  0  0  0  0  0  0  0  0
  195.0720  171.0490  136.3590 C   0  0  0  0  0  2  0  0  0  0  0  0
  193.7090  170.8530  135.7840 C   0  0  1  0  0  3  0  0  0  0  0  0
  188.6340  177.1380  137.4290 O   0  0  0  0  0  0  0  0  0  0  0  0
  187.5970  177.8440  136.8650 C   0  0  0  0  0  0  0  0  0  0  0  0
  186.8120  178.6020  137.5950 O   0  0  0  0  0  0  0  0  0  0  0  0
  186.2340  178.0530  134.9370 O   0  0  0  0  0  1  0  0  0  0  0  0
  187.3630  177.7360  135.4760 C   0  0  0  0  0  0  0  0  0  0  0  0
  188.3770  177.3760  134.6260 O   0  0  0  0  0  0  0  0  0  0  0  0
  1  8  1  0  0  0  0
  1  2  1  0  0  0  0
  2  3  1  0  0  0  0
  3  4  2  0  0  0  0
  5  7  2  0  0  0  0
  6  2  2  0  0  0  0
  6  5  1  0  0  0  0
  7  4  1  0  0  0  0
  8  9  1  0  0  0  0
 10 11  2  0  0  0  0
 11  9  1  0  0  0  0
 12 10  1  0  0  0  0
 12 13  2  0  0  0  0
 14 20  1  0  0  0  0
 16 17  1  0  0  0  0
 16 14  1  0  0  0  0
 17 15  1  1  0  0  0
 17 19  1  0  0  0  0
 18 12  1  1  0  0  0
 19 18  1  0  0  0  0
 20 18  1  0  0  0  0
 21 27  1  1  0  0  0
 21 16  1  0  0  0  0
 23 26  2  0  0  0  0
 24 22  1  0  0  0  0
 25 26  1  0  0  0  0
 25 21  1  1  0  0  0
 25 24  1  0  0  0  0
 26 22  1  0  0  0  0
 27 36  1  1  0  0  0
 28 27  1  0  0  0  0
 29 28  1  0  0  0  0
 29 30  2  0  0  0  0
 31 33  1  0  0  0  0
 31 29  1  0  0  0  0
 32 33  1  0  0  0  0
 33 34  1  0  0  0  0
 35 33  2  0  0  0  0
 36 37  1  0  0  0  0
 37 39  1  0  0  0  0
 39 38  1  0  0  0  0
 40  1  1  0  0  0  0
 42 43  2  6  0  0  0
 42 40  1  0  0  0  0
 42 41  1  0  0  0  0
 44 42  1  0  0  0  0
 45 44  1  0  0  0  0
 46 52  1  6  0  0  0
 46 49  1  0  0  0  0
 47 46  1  0  0  0  0
 47 50  1  0  0  0  0
 48 45  1  0  0  0  0
 49 48  1  0  0  0  0
 50 65  1  1  0  0  0
 50 51  1  0  0  0  0
 51 48  2  0  0  0  0
 52 53  1  1  0  0  0
 52 59  1  0  0  0  0
 54 55  1  0  0  0  0
 54 56  1  0  0  0  0
 55 56  1  0  0  0  0
 55 58  1  1  0  0  0
 56 53  1  6  0  0  0
 57 58  1  0  0  0  0
 61 60  1  1  0  0  0
 61 59  1  0  0  0  0
 62 64  1  0  0  0  0
 62 63  1  0  0  0  0
 64 61  1  6  0  0  0
 64 63  1  0  0  0  0
 66 65  1  0  0  0  0
 66 67  2  0  0  0  0
 68 69  1  0  0  0  0
 69 66  1  0  0  0  0
 70 69  2  0  0  0  0
M  END
>  <MODEL>
1

>  <REMARK>
 VINA RESULT:      -5.0      0.000      0.000
  Name = 
  31 active torsions:
  status: ('A' for Active; 'I' for Inactive)
    1  A    between atoms: C_4  and  N_20
    2  A    between atoms: C_7  and  C_67
    3  A    between atoms: C_9  and  P_16
    4  A    between atoms: C_9  and  C_36
    5  A    between atoms: O_14  and  C_22
    6  A    between atoms: O_14  and  P_30
    7  A    between atoms: C_15  and  C_21
    8  A    between atoms: C_15  and  O_37
    9  A    between atoms: C_15  and  C_52
   10  A    between atoms: C_17  and  N_20
   11  A    between atoms: C_17  and  P_30
   12  A    between atoms: C_18  and  N_34
   13  A    between atoms: C_18  and  C_56
   14  A    between atoms: N_20  and  C_33
   15  A    between atoms: C_21  and  C_45
   16  A    between atoms: C_22  and  C_31
   17  A    between atoms: C_24  and  C_40
   18  A    between atoms: O_25  and  P_35
   19  A    between atoms: O_25  and  C_67
   20  A    between atoms: C_27  and  C_52
   21  A    between atoms: O_32  and  C_40
   22  A    between atoms: O_32  and  C_58
   23  A    between atoms: C_33  and  C_60
   24  A    between atoms: P_35  and  C_68
   25  A    between atoms: C_36  and  O_37
   26  A    between atoms: N_38  and  C_52
   27  A    between atoms: N_43  and  C_60
   28  A    between atoms: C_45  and  C_64
   29  A    between atoms: C_48  and  C_62
   30  A    between atoms: O_50  and  C_57
   31  A    between atoms: O_50  and  C_67
                            x       y       z     vdW  Elec       q    Type
                         _______ _______ _______ _____ _____    ______ ____

>  <TORSDO>
F 31

$$$$
=
 OpenBabel10222417543D

 70 75  0  0  1  0  0  0  0  0999 V2000
  182.2800  175.3940  137.9370 N   0  0  0  0  0  0  0  0  0  0  0  0
  181.8650  174.3180  137.0800 C   0  0  0  0  0  0  0  0  0  0  0  0
  181.3220  173.1410  137.6320 C   0  0  0  0  0  3  0  0  0  0  0  0
  180.9400  172.0880  136.8240 C   0  0  0  0  0  3  0  0  0  0  0  0
  181.6320  173.3130  134.8670 C   0  0  0  0  0  3  0  0  0  0  0  0
  181.9890  174.3870  135.6810 C   0  0  0  0  0  3  0  0  0  0  0  0
  181.1080  172.1520  135.4410 C   0  0  0  0  0  3  0  0  0  0  0  0
  183.7360  175.7540  138.0810 C   0  0  0  0  0  2  0  0  0  0  0  0
  184.7200  174.8100  137.3490 C   0  0  0  0  0  2  0  0  0  0  0  0
  186.3590  175.0370  135.6540 N   0  0  0  0  0  0  0  0  0  0  0  0
  185.8830  175.4650  136.7750 N   0  0  0  0  0  0  0  0  0  0  0  0
  187.5130  175.6800  135.0810 C   0  0  0  0  0  0  0  0  0  0  0  0
  187.4180  176.8360  134.6290 O   0  0  0  0  0  0  0  0  0  0  0  0
  190.6040  174.2160  136.6200 C   0  0  0  0  0  2  0  0  0  0  0  0
  192.4020  176.4240  134.8350 O   0  0  0  0  0  1  0  0  0  0  0  0
  191.6440  174.3170  135.5850 N   0  0  0  0  0  0  0  0  0  0  0  0
  191.4800  175.3870  134.5970 C   0  0  1  0  0  3  0  0  0  0  0  0
  188.8450  174.9190  134.8840 C   0  0  1  0  0  3  0  0  0  0  0  0
  190.0010  175.9290  134.6150 C   0  0  0  0  0  2  0  0  0  0  0  0
  189.1380  174.0280  136.0620 C   0  0  0  0  0  2  0  0  0  0  0  0
  193.0400  173.6780  135.6650 C   0  0  2  0  0  3  0  0  0  0  0  0
  193.3740  170.5150  134.7620 C   0  0  0  0  0  2  0  0  0  0  0  0
  190.8540  170.8970  135.1010 O   0  0  0  0  0  0  0  0  0  0  0  0
  194.1500  171.7220  134.6970 N   0  0  0  0  0  2  0  0  0  0  0  0
  192.9010  172.4430  134.7620 C   0  0  1  0  0  3  0  0  0  0  0  0
  192.0380  171.2150  134.9590 C   0  0  0  0  0  0  0  0  0  0  0  0
  193.6410  173.4820  137.1270 C   0  0  1  0  0  3  0  0  0  0  0  0
  194.5750  172.4480  137.2930 O   0  0  0  0  0  0  0  0  0  0  0  0
  195.9690  172.5840  136.9970 C   0  0  0  0  0  0  0  0  0  0  0  0
  196.5980  171.7150  136.3950 O   0  0  0  0  0  0  0  0  0  0  0  0
  196.5740  173.8910  137.3710 C   0  0  0  0  0  2  0  0  0  0  0  0
  196.0610  176.5090  136.2220 O   0  0  0  0  0  1  0  0  0  0  0  0
  196.6750  174.9700  135.8820 P   0  0  0  0  0  0  0  0  0  0  0  0
  195.7920  174.2970  134.5960 O   0  0  0  0  0  0  0  0  0  0  0  0
  198.1410  175.1450  135.5050 O   0  0  0  0  0  1  0  0  0  0  0  0
  193.7730  174.6670  138.1240 C   0  0  0  0  0  2  0  0  0  0  0  0
  193.4250  175.9860  137.4110 C   0  0  0  0  0  2  0  0  0  0  0  0
  191.1750  176.5110  138.1470 O   0  0  0  0  0  1  0  0  0  0  0  0
  192.5250  176.8650  138.2800 C   0  0  0  0  0  2  0  0  0  0  0  0
  181.2050  176.2690  138.5070 C   0  0  0  0  0  2  0  0  0  0  0  0
  179.4120  174.4600  139.9460 O   0  0  0  0  0  0  0  0  0  0  0  0
  180.4430  175.7800  140.1240 P   0  0  1  0  0  0  0  0  0  0  0  0
  181.5460  175.2740  141.0140 O   0  0  0  0  0  1  0  0  0  0  0  0
  179.4520  177.0490  140.7850 O   0  0  0  0  0  0  0  0  0  0  0  0
  180.2880  177.7580  141.6750 C   0  0  0  0  0  2  0  0  0  0  0  0
  184.0180  178.8820  140.6380 C   0  0  2  0  0  3  0  0  0  0  0  0
  183.4490  180.1230  139.9680 C   0  0  0  0  0  2  0  0  0  0  0  0
  181.3950  178.5000  140.9500 C   0  0  0  0  0  0  0  0  0  0  0  0
  182.8660  178.2890  141.4690 C   0  0  0  0  0  2  0  0  0  0  0  0
  182.1120  180.1610  139.1630 C   0  0  2  0  0  3  0  0  0  0  0  0
  181.1040  179.4250  139.9900 C   0  0  0  0  0  3  0  0  0  0  0  0
  185.5580  179.1270  141.2900 C   0  0  1  0  0  3  0  0  0  0  0  0
  185.1910  179.6200  142.5060 O   0  0  0  0  0  0  0  0  0  0  0  0
  184.5220  178.1980  144.3810 C   0  0  0  0  0  2  0  0  0  0  0  0
  185.0950  179.3940  145.0480 C   0  0  2  0  0  3  0  0  0  0  0  0
  185.6820  178.8620  143.6920 C   0  0  2  0  0  3  0  0  0  0  0  0
  185.6490  179.4690  147.6200 O   0  0  0  0  0  1  0  0  0  0  0  0
  185.6180  178.6890  146.4360 C   0  0  0  0  0  2  0  0  0  0  0  0
  186.5580  178.1340  141.5030 O   0  0  0  0  0  0  0  0  0  0  0  0
  187.8590  178.6330  139.5930 O   0  0  0  0  0  1  0  0  0  0  0  0
  188.2710  178.6200  141.3010 P   0  0  2  0  0  0  0  0  0  0  0  0
  190.2340  176.8580  141.6830 O   0  0  0  0  0  0  0  0  0  0  0  0
  189.5040  176.7450  142.8940 C   0  0  0  0  0  2  0  0  0  0  0  0
  188.7800  176.8410  141.5930 C   0  0  1  0  0  3  0  0  0  0  0  0
  182.2590  179.6460  137.7940 O   0  0  0  0  0  0  0  0  0  0  0  0
  181.1890  179.4560  136.9500 C   0  0  0  0  0  0  0  0  0  0  0  0
  181.0790  178.3690  136.2230 O   0  0  0  0  0  0  0  0  0  0  0  0
  179.1060  180.4270  137.5320 O   0  0  0  0  0  1  0  0  0  0  0  0
  180.2010  180.4610  136.8500 C   0  0  0  0  0  0  0  0  0  0  0  0
  180.4190  181.5770  136.0840 O   0  0  0  0  0  0  0  0  0  0  0  0
  1  8  1  0  0  0  0
  1 40  1  0  0  0  0
  2  3  1  0  0  0  0
  2  1  1  0  0  0  0
  4  3  2  0  0  0  0
  5  7  2  0  0  0  0
  5  6  1  0  0  0  0
  6  2  2  0  0  0  0
  7  4  1  0  0  0  0
  9  8  1  0  0  0  0
 10 11  2  0  0  0  0
 11  9  1  0  0  0  0
 12 10  1  0  0  0  0
 13 12  2  0  0  0  0
 16 21  1  0  0  0  0
 16 14  1  0  0  0  0
 17 19  1  0  0  0  0
 17 15  1  1  0  0  0
 17 16  1  0  0  0  0
 18 12  1  1  0  0  0
 18 20  1  0  0  0  0
 19 18  1  0  0  0  0
 20 14  1  0  0  0  0
 21 27  1  1  0  0  0
 22 26  1  0  0  0  0
 24 22  1  0  0  0  0
 24 25  1  0  0  0  0
 25 26  1  0  0  0  0
 25 21  1  1  0  0  0
 26 23  2  0  0  0  0
 27 28  1  0  0  0  0
 27 36  1  6  0  0  0
 29 28  1  0  0  0  0
 29 31  1  0  0  0  0
 30 29  2  0  0  0  0
 33 32  1  0  0  0  0
 33 31  1  0  0  0  0
 34 33  2  0  0  0  0
 35 33  1  0  0  0  0
 37 36  1  0  0  0  0
 37 39  1  0  0  0  0
 38 39  1  0  0  0  0
 40 42  1  0  0  0  0
 42 41  2  6  0  0  0
 42 44  1  0  0  0  0
 42 43  1  0  0  0  0
 44 45  1  0  0  0  0
 46 52  1  1  0  0  0
 46 49  1  0  0  0  0
 47 46  1  0  0  0  0
 48 49  1  0  0  0  0
 48 45  1  0  0  0  0
 50 65  1  6  0  0  0
 50 47  1  0  0  0  0
 50 51  1  0  0  0  0
 51 48  2  0  0  0  0
 52 59  1  1  0  0  0
 52 53  1  0  0  0  0
 54 55  1  0  0  0  0
 55 58  1  1  0  0  0
 56 53  1  6  0  0  0
 56 54  1  0  0  0  0
 56 55  1  0  0  0  0
 58 57  1  0  0  0  0
 61 60  1  6  0  0  0
 61 59  1  0  0  0  0
 62 63  1  0  0  0  0
 64 61  1  1  0  0  0
 64 62  1  0  0  0  0
 64 63  1  0  0  0  0
 66 65  1  0  0  0  0
 67 66  2  0  0  0  0
 69 66  1  0  0  0  0
 69 68  1  0  0  0  0
 70 69  2  0  0  0  0
M  END
>  <MODEL>
2

>  <REMARK>
 VINA RESULT:      -4.0      3.106     12.201
  Name = 
  31 active torsions:
  status: ('A' for Active; 'I' for Inactive)
    1  A    between atoms: C_4  and  N_20
    2  A    between atoms: C_7  and  C_67
    3  A    between atoms: C_9  and  P_16
    4  A    between atoms: C_9  and  C_36
    5  A    between atoms: O_14  and  C_22
    6  A    between atoms: O_14  and  P_30
    7  A    between atoms: C_15  and  C_21
    8  A    between atoms: C_15  and  O_37
    9  A    between atoms: C_15  and  C_52
   10  A    between atoms: C_17  and  N_20
   11  A    between atoms: C_17  and  P_30
   12  A    between atoms: C_18  and  N_34
   13  A    between atoms: C_18  and  C_56
   14  A    between atoms: N_20  and  C_33
   15  A    between atoms: C_21  and  C_45
   16  A    between atoms: C_22  and  C_31
   17  A    between atoms: C_24  and  C_40
   18  A    between atoms: O_25  and  P_35
   19  A    between atoms: O_25  and  C_67
   20  A    between atoms: C_27  and  C_52
   21  A    between atoms: O_32  and  C_40
   22  A    between atoms: O_32  and  C_58
   23  A    between atoms: C_33  and  C_60
   24  A    between atoms: P_35  and  C_68
   25  A    between atoms: C_36  and  O_37
   26  A    between atoms: N_38  and  C_52
   27  A    between atoms: N_43  and  C_60
   28  A    between atoms: C_45  and  C_64
   29  A    between atoms: C_48  and  C_62
   30  A    between atoms: O_50  and  C_57
   31  A    between atoms: O_50  and  C_67
                            x       y       z     vdW  Elec       q    Type
                         _______ _______ _______ _____ _____    ______ ____

>  <TORSDO>
F 31

$$$$
=
 OpenBabel10222417543D

 70 75  0  0  1  0  0  0  0  0999 V2000
  188.0200  177.1070  144.2900 N   0  0  0  0  0  0  0  0  0  0  0  0
  189.2010  177.2510  145.0970 C   0  0  0  0  0  0  0  0  0  0  0  0
  190.2100  178.1590  144.7190 C   0  0  0  0  0  3  0  0  0  0  0  0
  191.3620  178.2930  145.4700 C   0  0  0  0  0  3  0  0  0  0  0  0
  190.5760  176.6140  147.0110 C   0  0  0  0  0  3  0  0  0  0  0  0
  189.4010  176.5020  146.2690 C   0  0  0  0  0  3  0  0  0  0  0  0
  191.5670  177.5120  146.6070 C   0  0  0  0  0  3  0  0  0  0  0  0
  186.7010  176.7240  144.9090 C   0  0  0  0  0  2  0  0  0  0  0  0
  186.0990  177.7750  145.8730 C   0  0  0  0  0  2  0  0  0  0  0  0
  184.2630  178.3260  144.4820 N   0  0  0  0  0  0  0  0  0  0  0  0
  185.2150  178.7430  145.2470 N   0  0  0  0  0  0  0  0  0  0  0  0
  183.3840  179.2800  143.8560 C   0  0  0  0  0  0  0  0  0  0  0  0
  182.6480  179.9970  144.5580 O   0  0  0  0  0  0  0  0  0  0  0  0
  182.7970  177.4550  140.6330 C   0  0  0  0  0  2  0  0  0  0  0  0
  185.8750  178.3990  139.6700 O   0  0  0  0  0  1  0  0  0  0  0  0
  183.5210  178.2230  139.6100 N   0  0  0  0  0  0  0  0  0  0  0  0
  184.6700  179.0060  140.0710 C   0  0  1  0  0  3  0  0  0  0  0  0
  183.2280  179.3450  142.3190 C   0  0  1  0  0  3  0  0  0  0  0  0
  184.6190  179.1840  141.6360 C   0  0  0  0  0  2  0  0  0  0  0  0
  182.2390  178.3200  141.8310 C   0  0  0  0  0  2  0  0  0  0  0  0
  183.4290  177.9860  138.0930 C   0  0  2  0  0  3  0  0  0  0  0  0
  180.6680  179.7020  137.4900 C   0  0  0  0  0  2  0  0  0  0  0  0
  181.9150  180.9840  139.3380 O   0  0  0  0  0  0  0  0  0  0  0  0
  181.4610  178.7050  136.8270 N   0  0  0  0  0  2  0  0  0  0  0  0
  182.5770  179.1710  137.6140 C   0  0  1  0  0  3  0  0  0  0  0  0
  181.7710  180.1540  138.4370 C   0  0  0  0  0  0  0  0  0  0  0  0
  183.0110  176.5190  137.6350 C   0  0  1  0  0  3  0  0  0  0  0  0
  183.3640  176.1400  136.3300 O   0  0  0  0  0  0  0  0  0  0  0  0
  183.6410  174.7890  135.9450 C   0  0  0  0  0  0  0  0  0  0  0  0
  183.2040  174.3030  134.9030 O   0  0  0  0  0  0  0  0  0  0  0  0
  184.5820  174.0550  136.8340 C   0  0  0  0  0  2  0  0  0  0  0  0
  186.7740  172.1490  136.7960 O   0  0  0  0  0  1  0  0  0  0  0  0
  185.6280  172.9250  135.8240 P   0  0  0  0  0  0  0  0  0  0  0  0
  186.4360  173.7900  134.6040 O   0  0  0  0  0  0  0  0  0  0  0  0
  184.7380  171.8410  135.2270 O   0  0  0  0  0  1  0  0  0  0  0  0
  182.8650  175.3530  138.6520 C   0  0  0  0  0  2  0  0  0  0  0  0
  181.5920  174.5470  138.3360 C   0  0  0  0  0  2  0  0  0  0  0  0
  179.7230  174.2980  139.8610 O   0  0  0  0  0  1  0  0  0  0  0  0
  180.3590  175.1830  138.9800 C   0  0  0  0  0  2  0  0  0  0  0  0
  188.1070  177.5540  142.8630 C   0  0  0  0  0  2  0  0  0  0  0  0
  190.5340  175.9290  142.7040 O   0  0  0  0  0  1  0  0  0  0  0  0
  189.5910  177.0510  141.8750 P   0  0  1  0  0  0  0  0  0  0  0  0
  189.1010  176.3030  140.6640 O   0  0  0  0  0  0  0  0  0  0  0  0
  190.6500  178.3970  141.5620 O   0  0  0  0  0  0  0  0  0  0  0  0
  191.7500  177.8580  140.8590 C   0  0  0  0  0  2  0  0  0  0  0  0
  191.5790  175.1570  137.8720 C   0  0  2  0  0  3  0  0  0  0  0  0
  190.9340  176.2010  136.9750 C   0  0  0  0  0  2  0  0  0  0  0  0
  191.3320  177.2180  139.5480 C   0  0  0  0  0  0  0  0  0  0  0  0
  192.1060  175.9240  139.0970 C   0  0  0  0  0  2  0  0  0  0  0  0
  189.8910  177.2590  137.4530 C   0  0  2  0  0  3  0  0  0  0  0  0
  190.4290  177.8310  138.7290 C   0  0  0  0  0  3  0  0  0  0  0  0
  192.5400  174.0550  137.0240 C   0  0  1  0  0  3  0  0  0  0  0  0
  191.7370  173.8770  135.9360 O   0  0  0  0  0  0  0  0  0  0  0  0
  191.2500  171.8450  134.6640 C   0  0  0  0  0  2  0  0  0  0  0  0
  189.9400  172.5440  134.7050 C   0  0  2  0  0  3  0  0  0  0  0  0
  190.9390  172.6180  135.9150 C   0  0  2  0  0  3  0  0  0  0  0  0
  189.3740  170.0220  135.2020 O   0  0  0  0  0  1  0  0  0  0  0  0
  188.9480  171.2380  134.6110 C   0  0  0  0  0  2  0  0  0  0  0  0
  193.8690  174.2700  136.5570 O   0  0  0  0  0  0  0  0  0  0  0  0
  195.3970  175.0730  138.1710 O   0  0  0  0  0  1  0  0  0  0  0  0
  195.2050  173.4810  137.4540 P   0  0  2  0  0  0  0  0  0  0  0  0
  196.6910  174.9780  135.8240 O   0  0  0  0  0  0  0  0  0  0  0  0
  197.6380  174.0290  136.2890 C   0  0  0  0  0  2  0  0  0  0  0  0
  196.2640  173.5880  135.9110 C   0  0  1  0  0  3  0  0  0  0  0  0
  188.5330  176.7060  137.5670 O   0  0  0  0  0  0  0  0  0  0  0  0
  187.4880  177.1280  136.7780 C   0  0  0  0  0  0  0  0  0  0  0  0
  186.2430  176.8670  137.1010 O   0  0  0  0  0  0  0  0  0  0  0  0
  188.4130  177.3150  134.6040 O   0  0  0  0  0  0  0  0  0  0  0  0
  187.7630  177.8370  135.5880 C   0  0  0  0  0  0  0  0  0  0  0  0
  187.2540  179.0950  135.3950 O   0  0  0  0  0  1  0  0  0  0  0  0
  1  8  1  0  0  0  0
  1  2  1  0  0  0  0
  2  6  1  0  0  0  0
  3  2  2  0  0  0  0
  3  4  1  0  0  0  0
  4  7  2  0  0  0  0
  6  5  2  0  0  0  0
  7  5  1  0  0  0  0
  8  9  1  0  0  0  0
 10 11  2  0  0  0  0
 11  9  1  0  0  0  0
 12 10  1  0  0  0  0
 12 13  2  0  0  0  0
 14 20  1  0  0  0  0
 16 17  1  0  0  0  0
 16 14  1  0  0  0  0
 17 15  1  1  0  0  0
 17 19  1  0  0  0  0
 18 12  1  1  0  0  0
 19 18  1  0  0  0  0
 20 18  1  0  0  0  0
 21 27  1  1  0  0  0
 21 16  1  0  0  0  0
 22 26  1  0  0  0  0
 24 22  1  0  0  0  0
 24 25  1  0  0  0  0
 25 21  1  1  0  0  0
 25 26  1  0  0  0  0
 26 23  2  0  0  0  0
 27 36  1  1  0  0  0
 28 27  1  0  0  0  0
 29 28  1  0  0  0  0
 29 31  1  0  0  0  0
 30 29  2  0  0  0  0
 33 32  1  0  0  0  0
 33 31  1  0  0  0  0
 34 33  2  0  0  0  0
 35 33  1  0  0  0  0
 37 36  1  0  0  0  0
 37 39  1  0  0  0  0
 39 38  1  0  0  0  0
 40  1  1  0  0  0  0
 42 43  2  6  0  0  0
 42 41  1  0  0  0  0
 42 40  1  0  0  0  0
 44 42  1  0  0  0  0
 45 44  1  0  0  0  0
 46 52  1  6  0  0  0
 46 49  1  0  0  0  0
 47 50  1  0  0  0  0
 47 46  1  0  0  0  0
 48 45  1  0  0  0  0
 49 48  1  0  0  0  0
 50 65  1  1  0  0  0
 50 51  1  0  0  0  0
 51 48  2  0  0  0  0
 52 53  1  6  0  0  0
 54 55  1  0  0  0  0
 54 56  1  0  0  0  0
 55 58  1  1  0  0  0
 55 56  1  0  0  0  0
 56 53  1  6  0  0  0
 58 57  1  0  0  0  0
 59 52  1  0  0  0  0
 59 61  1  0  0  0  0
 61 60  1  1  0  0  0
 62 64  1  0  0  0  0
 62 63  1  0  0  0  0
 64 63  1  0  0  0  0
 64 61  1  1  0  0  0
 66 67  2  0  0  0  0
 66 65  1  0  0  0  0
 68 69  2  0  0  0  0
 69 66  1  0  0  0  0
 70 69  1  0  0  0  0
M  END
>  <MODEL>
3

>  <REMARK>
 VINA RESULT:      -3.9      2.039      3.253
  Name = 
  31 active torsions:
  status: ('A' for Active; 'I' for Inactive)
    1  A    between atoms: C_4  and  N_20
    2  A    between atoms: C_7  and  C_67
    3  A    between atoms: C_9  and  P_16
    4  A    between atoms: C_9  and  C_36
    5  A    between atoms: O_14  and  C_22
    6  A    between atoms: O_14  and  P_30
    7  A    between atoms: C_15  and  C_21
    8  A    between atoms: C_15  and  O_37
    9  A    between atoms: C_15  and  C_52
   10  A    between atoms: C_17  and  N_20
   11  A    between atoms: C_17  and  P_30
   12  A    between atoms: C_18  and  N_34
   13  A    between atoms: C_18  and  C_56
   14  A    between atoms: N_20  and  C_33
   15  A    between atoms: C_21  and  C_45
   16  A    between atoms: C_22  and  C_31
   17  A    between atoms: C_24  and  C_40
   18  A    between atoms: O_25  and  P_35
   19  A    between atoms: O_25  and  C_67
   20  A    between atoms: C_27  and  C_52
   21  A    between atoms: O_32  and  C_40
   22  A    between atoms: O_32  and  C_58
   23  A    between atoms: C_33  and  C_60
   24  A    between atoms: P_35  and  C_68
   25  A    between atoms: C_36  and  O_37
   26  A    between atoms: N_38  and  C_52
   27  A    between atoms: N_43  and  C_60
   28  A    between atoms: C_45  and  C_64
   29  A    between atoms: C_48  and  C_62
   30  A    between atoms: O_50  and  C_57
   31  A    between atoms: O_50  and  C_67
                            x       y       z     vdW  Elec       q    Type
                         _______ _______ _______ _____ _____    ______ ____

>  <TORSDO>
F 31

$$$$
=
 OpenBabel10222417543D

 70 75  0  0  1  0  0  0  0  0999 V2000
  188.0360  177.1200  144.3210 N   0  0  0  0  0  0  0  0  0  0  0  0
  189.1950  177.2410  145.1620 C   0  0  0  0  0  0  0  0  0  0  0  0
  190.3790  177.8150  144.6580 C   0  0  0  0  0  3  0  0  0  0  0  0
  191.5090  177.9190  145.4460 C   0  0  0  0  0  3  0  0  0  0  0  0
  190.3510  176.8670  147.2800 C   0  0  0  0  0  3  0  0  0  0  0  0
  189.2020  176.7920  146.4940 C   0  0  0  0  0  3  0  0  0  0  0  0
  191.5160  177.4290  146.7520 C   0  0  0  0  0  3  0  0  0  0  0  0
  186.6950  176.7490  144.8980 C   0  0  0  0  0  2  0  0  0  0  0  0
  186.0860  177.7930  145.8660 C   0  0  0  0  0  2  0  0  0  0  0  0
  184.5950  178.6090  144.2170 N   0  0  0  0  0  0  0  0  0  0  0  0
  185.3600  178.8740  145.2210 N   0  0  0  0  0  0  0  0  0  0  0  0
  183.8740  179.6760  143.5710 C   0  0  0  0  0  0  0  0  0  0  0  0
  183.4430  180.6280  144.2460 O   0  0  0  0  0  0  0  0  0  0  0  0
  181.9580  177.9550  140.8460 C   0  0  0  0  0  2  0  0  0  0  0  0
  184.9020  177.1520  139.4380 O   0  0  0  0  0  1  0  0  0  0  0  0
  182.7620  178.1320  139.6280 N   0  0  0  0  0  0  0  0  0  0  0  0
  184.2030  178.3140  139.8170 C   0  0  1  0  0  3  0  0  0  0  0  0
  183.4990  179.6030  142.0730 C   0  0  1  0  0  3  0  0  0  0  0  0
  184.5160  178.7000  141.3120 C   0  0  0  0  0  2  0  0  0  0  0  0
  182.0800  179.1310  141.8920 C   0  0  0  0  0  2  0  0  0  0  0  0
  182.3070  177.7700  138.2050 C   0  0  2  0  0  3  0  0  0  0  0  0
  179.7840  179.7660  137.4410 C   0  0  0  0  0  2  0  0  0  0  0  0
  180.9100  180.7990  139.5090 O   0  0  0  0  0  0  0  0  0  0  0  0
  180.5640  178.7500  136.7920 N   0  0  0  0  0  2  0  0  0  0  0  0
  181.6160  179.0580  137.7300 C   0  0  1  0  0  3  0  0  0  0  0  0
  180.8030  180.0500  138.5350 C   0  0  0  0  0  0  0  0  0  0  0  0
  181.5280  176.3910  138.0440 C   0  0  1  0  0  3  0  0  0  0  0  0
  181.4410  175.8610  136.7470 O   0  0  0  0  0  0  0  0  0  0  0  0
  182.5820  175.5260  135.9500 C   0  0  0  0  0  0  0  0  0  0  0  0
  182.5260  175.4570  134.7230 O   0  0  0  0  0  0  0  0  0  0  0  0
  183.8590  175.3760  136.6990 C   0  0  0  0  0  2  0  0  0  0  0  0
  183.4500  172.5460  136.1890 O   0  0  0  0  0  1  0  0  0  0  0  0
  184.6280  173.7550  136.2850 P   0  0  0  0  0  0  0  0  0  0  0  0
  185.7720  173.3170  137.4630 O   0  0  0  0  0  1  0  0  0  0  0  0
  185.2760  173.8600  134.9080 O   0  0  0  0  0  0  0  0  0  0  0  0
  181.4590  175.3500  139.1960 C   0  0  0  0  0  2  0  0  0  0  0  0
  180.4770  174.2250  138.8210 C   0  0  0  0  0  2  0  0  0  0  0  0
  178.9370  175.4550  140.2350 O   0  0  0  0  0  1  0  0  0  0  0  0
  179.2960  174.1740  139.7920 C   0  0  0  0  0  2  0  0  0  0  0  0
  188.1690  177.5790  142.9010 C   0  0  0  0  0  2  0  0  0  0  0  0
  190.4350  175.7400  142.6900 O   0  0  0  0  0  1  0  0  0  0  0  0
  189.6500  177.0240  141.9350 P   0  0  1  0  0  0  0  0  0  0  0  0
  189.1560  176.4470  140.6350 O   0  0  0  0  0  0  0  0  0  0  0  0
  190.8480  178.2800  141.8050 O   0  0  0  0  0  0  0  0  0  0  0  0
  191.9630  177.6770  141.1810 C   0  0  0  0  0  2  0  0  0  0  0  0
  191.8460  175.1350  138.0550 C   0  0  2  0  0  3  0  0  0  0  0  0
  191.4000  176.2750  137.1540 C   0  0  0  0  0  2  0  0  0  0  0  0
  191.6240  177.1380  139.8040 C   0  0  0  0  0  0  0  0  0  0  0  0
  192.3140  175.7940  139.3640 C   0  0  0  0  0  2  0  0  0  0  0  0
  190.4170  177.4100  137.5810 C   0  0  2  0  0  3  0  0  0  0  0  0
  190.8720  177.8710  138.9320 C   0  0  0  0  0  3  0  0  0  0  0  0
  192.7820  173.9800  137.2490 C   0  0  1  0  0  3  0  0  0  0  0  0
  193.7650  173.8250  138.1810 O   0  0  0  0  0  0  0  0  0  0  0  0
  196.0650  173.0250  138.4060 C   0  0  0  0  0  2  0  0  0  0  0  0
  196.1600  174.4510  138.8080 C   0  0  2  0  0  3  0  0  0  0  0  0
  195.1620  173.9880  137.6870 C   0  0  2  0  0  3  0  0  0  0  0  0
  198.4990  175.5950  139.1890 O   0  0  0  0  0  1  0  0  0  0  0  0
  197.7170  174.7390  138.3730 C   0  0  0  0  0  2  0  0  0  0  0  0
  192.3600  172.6820  136.8370 O   0  0  0  0  0  0  0  0  0  0  0  0
  190.9460  171.8900  135.1170 O   0  0  0  0  0  1  0  0  0  0  0  0
  192.6740  172.2040  135.1390 P   0  0  2  0  0  0  0  0  0  0  0  0
  193.9950  169.9540  134.5950 O   0  0  0  0  0  0  0  0  0  0  0  0
  194.8580  170.5760  135.5320 C   0  0  0  0  0  2  0  0  0  0  0  0
  193.3840  170.5840  135.7580 C   0  0  1  0  0  3  0  0  0  0  0  0
  189.0090  176.9900  137.5310 O   0  0  0  0  0  0  0  0  0  0  0  0
  188.4570  176.3590  136.4410 C   0  0  0  0  0  0  0  0  0  0  0  0
  189.0090  175.2850  135.9240 O   0  0  0  0  0  0  0  0  0  0  0  0
  186.5810  177.8070  136.4230 O   0  0  0  0  0  1  0  0  0  0  0  0
  187.2860  176.8880  135.8550 C   0  0  0  0  0  0  0  0  0  0  0  0
  186.9060  176.5060  134.5940 O   0  0  0  0  0  0  0  0  0  0  0  0
  1  8  1  0  0  0  0
  1  2  1  0  0  0  0
  2  6  1  0  0  0  0
  3  2  2  0  0  0  0
  3  4  1  0  0  0  0
  4  7  2  0  0  0  0
  6  5  2  0  0  0  0
  7  5  1  0  0  0  0
  8  9  1  0  0  0  0
 10 11  2  0  0  0  0
 11  9  1  0  0  0  0
 12 10  1  0  0  0  0
 12 13  2  0  0  0  0
 14 20  1  0  0  0  0
 16 17  1  0  0  0  0
 16 14  1  0  0  0  0
 17 15  1  1  0  0  0
 17 19  1  0  0  0  0
 18 12  1  1  0  0  0
 19 18  1  0  0  0  0
 20 18  1  0  0  0  0
 21 27  1  1  0  0  0
 21 16  1  0  0  0  0
 22 26  1  0  0  0  0
 24 22  1  0  0  0  0
 24 25  1  0  0  0  0
 25 21  1  1  0  0  0
 25 26  1  0  0  0  0
 26 23  2  0  0  0  0
 27 36  1  1  0  0  0
 28 27  1  0  0  0  0
 29 31  1  0  0  0  0
 29 28  1  0  0  0  0
 30 29  2  0  0  0  0
 32 33  1  0  0  0  0
 33 31  1  0  0  0  0
 33 34  1  0  0  0  0
 35 33  2  0  0  0  0
 37 36  1  0  0  0  0
 37 39  1  0  0  0  0
 39 38  1  0  0  0  0
 40  1  1  0  0  0  0
 42 43  2  6  0  0  0
 42 41  1  0  0  0  0
 42 40  1  0  0  0  0
 44 42  1  0  0  0  0
 45 44  1  0  0  0  0
 46 52  1  6  0  0  0
 46 49  1  0  0  0  0
 47 50  1  0  0  0  0
 47 46  1  0  0  0  0
 48 45  1  0  0  0  0
 49 48  1  0  0  0  0
 50 65  1  1  0  0  0
 50 51  1  0  0  0  0
 51 48  2  0  0  0  0
 52 59  1  1  0  0  0
 52 53  1  0  0  0  0
 54 55  1  0  0  0  0
 55 58  1  6  0  0  0
 56 53  1  1  0  0  0
 56 54  1  0  0  0  0
 56 55  1  0  0  0  0
 58 57  1  0  0  0  0
 61 60  1  6  0  0  0
 61 59  1  0  0  0  0
 62 63  1  0  0  0  0
 62 64  1  0  0  0  0
 63 64  1  0  0  0  0
 64 61  1  6  0  0  0
 66 65  1  0  0  0  0
 67 66  2  0  0  0  0
 69 68  1  0  0  0  0
 69 66  1  0  0  0  0
 70 69  2  0  0  0  0
M  END
>  <MODEL>
4

>  <REMARK>
 VINA RESULT:      -3.8      1.707      2.088
  Name = 
  31 active torsions:
  status: ('A' for Active; 'I' for Inactive)
    1  A    between atoms: C_4  and  N_20
    2  A    between atoms: C_7  and  C_67
    3  A    between atoms: C_9  and  P_16
    4  A    between atoms: C_9  and  C_36
    5  A    between atoms: O_14  and  C_22
    6  A    between atoms: O_14  and  P_30
    7  A    between atoms: C_15  and  C_21
    8  A    between atoms: C_15  and  O_37
    9  A    between atoms: C_15  and  C_52
   10  A    between atoms: C_17  and  N_20
   11  A    between atoms: C_17  and  P_30
   12  A    between atoms: C_18  and  N_34
   13  A    between atoms: C_18  and  C_56
   14  A    between atoms: N_20  and  C_33
   15  A    between atoms: C_21  and  C_45
   16  A    between atoms: C_22  and  C_31
   17  A    between atoms: C_24  and  C_40
   18  A    between atoms: O_25  and  P_35
   19  A    between atoms: O_25  and  C_67
   20  A    between atoms: C_27  and  C_52
   21  A    between atoms: O_32  and  C_40
   22  A    between atoms: O_32  and  C_58
   23  A    between atoms: C_33  and  C_60
   24  A    between atoms: P_35  and  C_68
   25  A    between atoms: C_36  and  O_37
   26  A    between atoms: N_38  and  C_52
   27  A    between atoms: N_43  and  C_60
   28  A    between atoms: C_45  and  C_64
   29  A    between atoms: C_48  and  C_62
   30  A    between atoms: O_50  and  C_57
   31  A    between atoms: O_50  and  C_67
                            x       y       z     vdW  Elec       q    Type
                         _______ _______ _______ _____ _____    ______ ____

>  <TORSDO>
F 31

$$$$
=
 OpenBabel10222417543D

 70 75  0  0  1  0  0  0  0  0999 V2000
  182.2840  175.4010  137.9540 N   0  0  0  0  0  0  0  0  0  0  0  0
  181.8000  174.3240  137.1360 C   0  0  0  0  0  0  0  0  0  0  0  0
  180.8770  174.5780  136.1010 C   0  0  0  0  0  3  0  0  0  0  0  0
  180.3840  173.5510  135.3210 C   0  0  0  0  0  3  0  0  0  0  0  0
  181.6880  171.9520  136.5680 C   0  0  0  0  0  3  0  0  0  0  0  0
  182.2090  172.9930  137.3350 C   0  0  0  0  0  3  0  0  0  0  0  0
  180.7650  172.2300  135.5570 C   0  0  0  0  0  3  0  0  0  0  0  0
  183.7590  175.6840  138.0700 C   0  0  0  0  0  2  0  0  0  0  0  0
  184.6720  174.7610  137.2270 C   0  0  0  0  0  2  0  0  0  0  0  0
  186.3150  175.0310  135.5430 N   0  0  0  0  0  0  0  0  0  0  0  0
  185.8630  175.4010  136.6940 N   0  0  0  0  0  0  0  0  0  0  0  0
  187.4960  175.6590  135.0090 C   0  0  0  0  0  0  0  0  0  0  0  0
  187.4590  176.8530  134.6620 O   0  0  0  0  0  0  0  0  0  0  0  0
  190.4160  173.7360  136.3650 C   0  0  0  0  0  2  0  0  0  0  0  0
  192.4300  176.0770  135.0370 O   0  0  0  0  0  1  0  0  0  0  0  0
  191.5030  173.9350  135.3930 N   0  0  0  0  0  0  0  0  0  0  0  0
  191.4520  175.1640  134.5990 C   0  0  1  0  0  3  0  0  0  0  0  0
  188.7820  174.8470  134.7240 C   0  0  1  0  0  3  0  0  0  0  0  0
  190.0130  175.8010  134.6650 C   0  0  0  0  0  2  0  0  0  0  0  0
  188.9660  173.7510  135.7400 C   0  0  0  0  0  2  0  0  0  0  0  0
  192.8490  173.1920  135.4040 C   0  0  2  0  0  3  0  0  0  0  0  0
  192.4200  169.9540  134.8890 C   0  0  0  0  0  2  0  0  0  0  0  0
  190.1060  171.0350  134.5940 O   0  0  0  0  0  0  0  0  0  0  0  0
  193.5100  170.8890  134.9000 N   0  0  0  0  0  2  0  0  0  0  0  0
  192.5390  171.9150  134.6060 C   0  0  1  0  0  3  0  0  0  0  0  0
  191.3340  171.0040  134.7050 C   0  0  0  0  0  0  0  0  0  0  0  0
  193.5600  173.0440  136.8220 C   0  0  1  0  0  3  0  0  0  0  0  0
  194.8010  172.3900  136.8410 O   0  0  0  0  0  0  0  0  0  0  0  0
  196.0260  173.0000  136.4200 C   0  0  0  0  0  0  0  0  0  0  0  0
  196.0470  173.9800  135.6770 O   0  0  0  0  0  0  0  0  0  0  0  0
  197.2610  172.4360  137.0300 C   0  0  0  0  0  2  0  0  0  0  0  0
  198.5840  170.4180  135.4140 O   0  0  0  0  0  0  0  0  0  0  0  0
  197.4000  170.6510  136.5980 P   0  0  0  0  0  0  0  0  0  0  0  0
  195.9160  170.0600  136.0170 O   0  0  0  0  0  1  0  0  0  0  0  0
  197.8470  169.8830  137.8370 O   0  0  0  0  0  1  0  0  0  0  0  0
  193.3290  174.0710  137.9650 C   0  0  0  0  0  2  0  0  0  0  0  0
  194.6420  174.8140  138.2680 C   0  0  0  0  0  2  0  0  0  0  0  0
  194.0760  176.9810  139.1970 O   0  0  0  0  0  1  0  0  0  0  0  0
  194.5100  175.6870  139.5170 C   0  0  0  0  0  2  0  0  0  0  0  0
  181.2660  176.3520  138.5080 C   0  0  0  0  0  2  0  0  0  0  0  0
  179.3120  174.8610  140.0950 O   0  0  0  0  0  0  0  0  0  0  0  0
  180.5540  175.9950  140.1810 P   0  0  1  0  0  0  0  0  0  0  0  0
  181.6220  175.3170  140.9960 O   0  0  0  0  0  1  0  0  0  0  0  0
  179.8330  177.4100  140.8950 O   0  0  0  0  0  0  0  0  0  0  0  0
  180.8050  177.9230  141.7820 C   0  0  0  0  0  2  0  0  0  0  0  0
  184.6470  178.1730  140.5880 C   0  0  2  0  0  3  0  0  0  0  0  0
  184.3890  179.5820  140.0790 C   0  0  0  0  0  2  0  0  0  0  0  0
  182.0320  178.4350  141.0520 C   0  0  0  0  0  0  0  0  0  0  0  0
  183.4210  177.8040  141.4410 C   0  0  0  0  0  2  0  0  0  0  0  0
  183.0730  180.0440  139.3790 C   0  0  2  0  0  3  0  0  0  0  0  0
  181.9470  179.5020  140.2050 C   0  0  0  0  0  3  0  0  0  0  0  0
  186.2270  177.9480  141.1470 C   0  0  1  0  0  3  0  0  0  0  0  0
  186.8690  178.7970  140.2940 O   0  0  0  0  0  0  0  0  0  0  0  0
  188.8630  178.9930  138.8910 C   0  0  0  0  0  2  0  0  0  0  0  0
  188.8860  177.5710  139.3200 C   0  0  2  0  0  3  0  0  0  0  0  0
  188.3560  178.7000  140.2760 C   0  0  2  0  0  3  0  0  0  0  0  0
  191.1090  176.5850  140.3250 O   0  0  0  0  0  1  0  0  0  0  0  0
  190.5070  177.3130  139.2690 C   0  0  0  0  0  2  0  0  0  0  0  0
  186.7070  178.2030  142.4640 O   0  0  0  0  0  0  0  0  0  0  0  0
  186.7980  177.4800  144.7130 O   0  0  0  0  0  1  0  0  0  0  0  0
  187.6340  176.9040  143.2790 P   0  0  2  0  0  0  0  0  0  0  0  0
  189.4270  178.3680  144.6010 O   0  0  0  0  0  0  0  0  0  0  0  0
  190.2440  177.3630  144.0230 C   0  0  0  0  0  2  0  0  0  0  0  0
  189.1570  177.9930  143.2190 C   0  0  1  0  0  3  0  0  0  0  0  0
  183.0180  179.6600  137.9610 O   0  0  0  0  0  0  0  0  0  0  0  0
  181.8390  179.3800  137.3100 C   0  0  0  0  0  0  0  0  0  0  0  0
  181.6710  178.2510  136.6610 O   0  0  0  0  0  0  0  0  0  0  0  0
  180.9930  181.5770  137.0390 O   0  0  0  0  0  0  0  0  0  0  0  0
  180.7980  180.3340  137.3240 C   0  0  0  0  0  0  0  0  0  0  0  0
  179.5020  179.9460  137.5500 O   0  0  0  0  0  1  0  0  0  0  0  0
  1  8  1  0  0  0  0
  1 40  1  0  0  0  0
  2  6  1  0  0  0  0
  2  1  1  0  0  0  0
  3  2  2  0  0  0  0
  4  7  2  0  0  0  0
  4  3  1  0  0  0  0
  5  6  2  0  0  0  0
  7  5  1  0  0  0  0
  9  8  1  0  0  0  0
 10 11  2  0  0  0  0
 11  9  1  0  0  0  0
 12 10  1  0  0  0  0
 13 12  2  0  0  0  0
 16 21  1  0  0  0  0
 16 14  1  0  0  0  0
 17 19  1  0  0  0  0
 17 15  1  1  0  0  0
 17 16  1  0  0  0  0
 18 12  1  1  0  0  0
 18 20  1  0  0  0  0
 19 18  1  0  0  0  0
 20 14  1  0  0  0  0
 21 27  1  1  0  0  0
 22 24  1  0  0  0  0
 23 26  2  0  0  0  0
 25 26  1  0  0  0  0
 25 24  1  0  0  0  0
 25 21  1  1  0  0  0
 26 22  1  0  0  0  0
 27 28  1  0  0  0  0
 27 36  1  6  0  0  0
 29 28  1  0  0  0  0
 29 31  1  0  0  0  0
 30 29  2  0  0  0  0
 32 33  2  0  0  0  0
 33 31  1  0  0  0  0
 33 35  1  0  0  0  0
 34 33  1  0  0  0  0
 36 37  1  0  0  0  0
 37 39  1  0  0  0  0
 38 39  1  0  0  0  0
 40 42  1  0  0  0  0
 42 41  2  6  0  0  0
 42 44  1  0  0  0  0
 42 43  1  0  0  0  0
 44 45  1  0  0  0  0
 46 52  1  1  0  0  0
 46 49  1  0  0  0  0
 47 46  1  0  0  0  0
 48 49  1  0  0  0  0
 48 45  1  0  0  0  0
 50 65  1  6  0  0  0
 50 47  1  0  0  0  0
 50 51  1  0  0  0  0
 51 48  2  0  0  0  0
 52 53  1  6  0  0  0
 52 59  1  0  0  0  0
 54 55  1  0  0  0  0
 54 56  1  0  0  0  0
 55 58  1  1  0  0  0
 55 56  1  0  0  0  0
 56 53  1  6  0  0  0
 58 57  1  0  0  0  0
 59 61  1  0  0  0  0
 61 60  1  1  0  0  0
 63 62  1  0  0  0  0
 64 61  1  1  0  0  0
 64 63  1  0  0  0  0
 64 62  1  0  0  0  0
 66 69  1  0  0  0  0
 66 65  1  0  0  0  0
 67 66  2  0  0  0  0
 68 69  2  0  0  0  0
 69 70  1  0  0  0  0
M  END
>  <MODEL>
5

>  <REMARK>
 VINA RESULT:      -3.0      3.249     11.844
  Name = 
  31 active torsions:
  status: ('A' for Active; 'I' for Inactive)
    1  A    between atoms: C_4  and  N_20
    2  A    between atoms: C_7  and  C_67
    3  A    between atoms: C_9  and  P_16
    4  A    between atoms: C_9  and  C_36
    5  A    between atoms: O_14  and  C_22
    6  A    between atoms: O_14  and  P_30
    7  A    between atoms: C_15  and  C_21
    8  A    between atoms: C_15  and  O_37
    9  A    between atoms: C_15  and  C_52
   10  A    between atoms: C_17  and  N_20
   11  A    between atoms: C_17  and  P_30
   12  A    between atoms: C_18  and  N_34
   13  A    between atoms: C_18  and  C_56
   14  A    between atoms: N_20  and  C_33
   15  A    between atoms: C_21  and  C_45
   16  A    between atoms: C_22  and  C_31
   17  A    between atoms: C_24  and  C_40
   18  A    between atoms: O_25  and  P_35
   19  A    between atoms: O_25  and  C_67
   20  A    between atoms: C_27  and  C_52
   21  A    between atoms: O_32  and  C_40
   22  A    between atoms: O_32  and  C_58
   23  A    between atoms: C_33  and  C_60
   24  A    between atoms: P_35  and  C_68
   25  A    between atoms: C_36  and  O_37
   26  A    between atoms: N_38  and  C_52
   27  A    between atoms: N_43  and  C_60
   28  A    between atoms: C_45  and  C_64
   29  A    between atoms: C_48  and  C_62
   30  A    between atoms: O_50  and  C_57
   31  A    between atoms: O_50  and  C_67
                            x       y       z     vdW  Elec       q    Type
                         _______ _______ _______ _____ _____    ______ ____

>  <TORSDO>
F 31

$$$$
=
 OpenBabel10222417543D

 70 75  0  0  1  0  0  0  0  0999 V2000
  182.2280  175.5760  137.9900 N   0  0  0  0  0  0  0  0  0  0  0  0
  181.6990  174.5240  137.1660 C   0  0  0  0  0  0  0  0  0  0  0  0
  182.3340  174.1860  135.9540 C   0  0  0  0  0  3  0  0  0  0  0  0
  181.8260  173.1940  135.1390 C   0  0  0  0  0  3  0  0  0  0  0  0
  180.0110  172.8270  136.6830 C   0  0  0  0  0  3  0  0  0  0  0  0
  180.5430  173.8080  137.5200 C   0  0  0  0  0  3  0  0  0  0  0  0
  180.6530  172.5200  135.4810 C   0  0  0  0  0  3  0  0  0  0  0  0
  183.7130  175.7980  138.1040 C   0  0  0  0  0  2  0  0  0  0  0  0
  184.5830  174.9090  137.1830 C   0  0  0  0  0  2  0  0  0  0  0  0
  186.2530  175.2280  135.5340 N   0  0  0  0  0  0  0  0  0  0  0  0
  185.8040  175.5350  136.7040 N   0  0  0  0  0  0  0  0  0  0  0  0
  187.4640  175.8420  135.0540 C   0  0  0  0  0  0  0  0  0  0  0  0
  187.4770  177.0570  134.7830 O   0  0  0  0  0  0  0  0  0  0  0  0
  190.2440  173.6610  136.3090 C   0  0  0  0  0  2  0  0  0  0  0  0
  192.4070  176.0210  135.2820 O   0  0  0  0  0  1  0  0  0  0  0  0
  191.3730  173.9000  135.3970 N   0  0  0  0  0  0  0  0  0  0  0  0
  191.4060  175.2010  134.7250 C   0  0  1  0  0  3  0  0  0  0  0  0
  188.7220  175.0010  134.7330 C   0  0  1  0  0  3  0  0  0  0  0  0
  189.9950  175.8970  134.8070 C   0  0  0  0  0  2  0  0  0  0  0  0
  188.8200  173.8050  135.6430 C   0  0  0  0  0  2  0  0  0  0  0  0
  192.6830  173.0960  135.3790 C   0  0  2  0  0  3  0  0  0  0  0  0
  192.4450  169.8340  134.8970 C   0  0  0  0  0  2  0  0  0  0  0  0
  190.0540  170.6640  135.3500 O   0  0  0  0  0  0  0  0  0  0  0  0
  193.3880  170.8800  134.6140 N   0  0  0  0  0  2  0  0  0  0  0  0
  192.2760  171.7980  134.6640 C   0  0  1  0  0  3  0  0  0  0  0  0
  191.2550  170.7630  135.0870 C   0  0  0  0  0  0  0  0  0  0  0  0
  193.4610  172.9850  136.7650 C   0  0  1  0  0  3  0  0  0  0  0  0
  194.7060  172.3390  136.7410 O   0  0  0  0  0  0  0  0  0  0  0  0
  195.7830  172.7240  135.8790 C   0  0  0  0  0  0  0  0  0  0  0  0
  195.5880  173.2240  134.7720 O   0  0  0  0  0  0  0  0  0  0  0  0
  197.1460  172.5790  136.4600 C   0  0  0  0  0  2  0  0  0  0  0  0
  198.9460  170.3600  136.9840 O   0  0  0  0  0  1  0  0  0  0  0  0
  197.3440  170.8800  137.1430 P   0  0  0  0  0  0  0  0  0  0  0  0
  196.3270  169.7870  136.3320 O   0  0  0  0  0  0  0  0  0  0  0  0
  197.0310  170.9150  138.6350 O   0  0  0  0  0  1  0  0  0  0  0  0
  193.2760  174.0360  137.8940 C   0  0  0  0  0  2  0  0  0  0  0  0
  194.4260  175.0580  137.8450 C   0  0  0  0  0  2  0  0  0  0  0  0
  195.6780  175.0260  139.9220 O   0  0  0  0  0  1  0  0  0  0  0  0
  195.6520  174.5480  138.6050 C   0  0  0  0  0  2  0  0  0  0  0  0
  181.2510  176.5620  138.5540 C   0  0  0  0  0  2  0  0  0  0  0  0
  179.5270  175.3860  140.6040 O   0  0  0  0  0  0  0  0  0  0  0  0
  180.8180  176.4380  140.3510 P   0  0  1  0  0  0  0  0  0  0  0  0
  181.9760  175.7820  141.0550 O   0  0  0  0  0  1  0  0  0  0  0  0
  180.2970  177.9660  141.0010 O   0  0  0  0  0  0  0  0  0  0  0  0
  181.3780  178.4340  141.7800 C   0  0  0  0  0  2  0  0  0  0  0  0
  185.1310  178.7190  140.3380 C   0  0  2  0  0  3  0  0  0  0  0  0
  184.7720  180.0450  139.6860 C   0  0  0  0  0  2  0  0  0  0  0  0
  182.5350  178.9130  140.9240 C   0  0  0  0  0  0  0  0  0  0  0  0
  183.9740  178.3970  141.2990 C   0  0  0  0  0  2  0  0  0  0  0  0
  183.3970  180.3600  139.0180 C   0  0  2  0  0  3  0  0  0  0  0  0
  182.3470  179.8670  139.9660 C   0  0  0  0  0  3  0  0  0  0  0  0
  186.7490  178.6360  140.8230 C   0  0  1  0  0  3  0  0  0  0  0  0
  186.5550  178.5720  142.1710 O   0  0  0  0  0  0  0  0  0  0  0  0
  186.9760  177.1780  144.1370 C   0  0  0  0  0  2  0  0  0  0  0  0
  187.7780  178.3980  144.4060 C   0  0  2  0  0  3  0  0  0  0  0  0
  187.6030  177.8470  142.9460 C   0  0  2  0  0  3  0  0  0  0  0  0
  190.1860  177.3840  144.7250 O   0  0  0  0  0  1  0  0  0  0  0  0
  188.9560  177.7320  145.3380 C   0  0  0  0  0  2  0  0  0  0  0  0
  187.6910  177.6270  140.4670 O   0  0  0  0  0  0  0  0  0  0  0  0
  187.7900  178.3130  138.2080 O   0  0  0  0  0  1  0  0  0  0  0  0
  189.0560  178.1000  139.4070 P   0  0  2  0  0  0  0  0  0  0  0  0
  190.4060  176.2210  138.0830 O   0  0  0  0  0  0  0  0  0  0  0  0
  190.9780  176.1310  139.3780 C   0  0  0  0  0  2  0  0  0  0  0  0
  189.5030  176.2900  139.2250 C   0  0  1  0  0  3  0  0  0  0  0  0
  183.2860  179.8090  137.6590 O   0  0  0  0  0  0  0  0  0  0  0  0
  182.0800  179.6410  137.0190 C   0  0  0  0  0  0  0  0  0  0  0  0
  181.8770  178.6320  136.2040 O   0  0  0  0  0  0  0  0  0  0  0  0
  181.0820  181.7710  136.7280 O   0  0  0  0  0  0  0  0  0  0  0  0
  181.0490  180.5820  137.2290 C   0  0  0  0  0  0  0  0  0  0  0  0
  179.9100  180.2270  137.9050 O   0  0  0  0  0  1  0  0  0  0  0  0
  1  8  1  0  0  0  0
  1 40  1  0  0  0  0
  2  6  1  0  0  0  0
  2  1  1  0  0  0  0
  3  2  2  0  0  0  0
  4  7  2  0  0  0  0
  4  3  1  0  0  0  0
  5  6  2  0  0  0  0
  7  5  1  0  0  0  0
  9  8  1  0  0  0  0
 10 11  2  0  0  0  0
 11  9  1  0  0  0  0
 12 10  1  0  0  0  0
 13 12  2  0  0  0  0
 16 14  1  0  0  0  0
 17 19  1  0  0  0  0
 17 15  1  1  0  0  0
 17 16  1  0  0  0  0
 18 19  1  0  0  0  0
 18 12  1  1  0  0  0
 18 20  1  0  0  0  0
 20 14  1  0  0  0  0
 21 16  1  0  0  0  0
 21 27  1  1  0  0  0
 22 26  1  0  0  0  0
 24 25  1  0  0  0  0
 24 22  1  0  0  0  0
 25 26  1  0  0  0  0
 25 21  1  1  0  0  0
 26 23  2  0  0  0  0
 27 36  1  6  0  0  0
 28 27  1  0  0  0  0
 29 31  1  0  0  0  0
 29 28  1  0  0  0  0
 30 29  2  0  0  0  0
 31 33  1  0  0  0  0
 32 33  1  0  0  0  0
 33 35  1  0  0  0  0
 34 33  2  0  0  0  0
 37 36  1  0  0  0  0
 37 39  1  0  0  0  0
 39 38  1  0  0  0  0
 40 42  1  0  0  0  0
 42 41  2  1  0  0  0
 42 44  1  0  0  0  0
 42 43  1  0  0  0  0
 44 45  1  0  0  0  0
 46 52  1  1  0  0  0
 46 49  1  0  0  0  0
 47 46  1  0  0  0  0
 48 49  1  0  0  0  0
 48 45  1  0  0  0  0
 50 65  1  6  0  0  0
 50 47  1  0  0  0  0
 50 51  1  0  0  0  0
 51 48  2  0  0  0  0
 52 59  1  6  0  0  0
 52 53  1  0  0  0  0
 54 55  1  0  0  0  0
 55 58  1  1  0  0  0
 56 53  1  6  0  0  0
 56 54  1  0  0  0  0
 56 55  1  0  0  0  0
 57 58  1  0  0  0  0
 61 60  1  6  0  0  0
 61 59  1  0  0  0  0
 62 64  1  0  0  0  0
 62 63  1  0  0  0  0
 64 63  1  0  0  0  0
 64 61  1  1  0  0  0
 66 69  1  0  0  0  0
 66 65  1  0  0  0  0
 67 66  2  0  0  0  0
 68 69  2  0  0  0  0
 69 70  1  0  0  0  0
M  END
>  <MODEL>
6

>  <REMARK>
 VINA RESULT:      -2.4      3.241     11.796
  Name = 
  31 active torsions:
  status: ('A' for Active; 'I' for Inactive)
    1  A    between atoms: C_4  and  N_20
    2  A    between atoms: C_7  and  C_67
    3  A    between atoms: C_9  and  P_16
    4  A    between atoms: C_9  and  C_36
    5  A    between atoms: O_14  and  C_22
    6  A    between atoms: O_14  and  P_30
    7  A    between atoms: C_15  and  C_21
    8  A    between atoms: C_15  and  O_37
    9  A    between atoms: C_15  and  C_52
   10  A    between atoms: C_17  and  N_20
   11  A    between atoms: C_17  and  P_30
   12  A    between atoms: C_18  and  N_34
   13  A    between atoms: C_18  and  C_56
   14  A    between atoms: N_20  and  C_33
   15  A    between atoms: C_21  and  C_45
   16  A    between atoms: C_22  and  C_31
   17  A    between atoms: C_24  and  C_40
   18  A    between atoms: O_25  and  P_35
   19  A    between atoms: O_25  and  C_67
   20  A    between atoms: C_27  and  C_52
   21  A    between atoms: O_32  and  C_40
   22  A    between atoms: O_32  and  C_58
   23  A    between atoms: C_33  and  C_60
   24  A    between atoms: P_35  and  C_68
   25  A    between atoms: C_36  and  O_37
   26  A    between atoms: N_38  and  C_52
   27  A    between atoms: N_43  and  C_60
   28  A    between atoms: C_45  and  C_64
   29  A    between atoms: C_48  and  C_62
   30  A    between atoms: O_50  and  C_57
   31  A    between atoms: O_50  and  C_67
                            x       y       z     vdW  Elec       q    Type
                         _______ _______ _______ _____ _____    ______ ____

>  <TORSDO>
F 31

$$$$
