=
 OpenBabel10222415133D

 34 37  0  0  1  0  0  0  0  0999 V2000
  186.0000  178.7440  142.1760 C   0  0  1  0  0  0  0  0  0  0  0  0
  182.5110  178.1720  141.3190 C   0  0  0  0  0  3  0  0  0  0  0  0
  184.8970  178.6980  141.1260 C   0  0  0  0  0  0  0  0  0  0  0  0
  183.8720  177.6030  141.1350 C   0  0  0  0  0  2  0  0  0  0  0  0
  182.6310  179.4340  139.1890 C   0  0  0  0  0  0  0  0  0  0  0  0
  181.9460  178.9910  140.4320 C   0  0  0  0  0  0  0  0  0  0  0  0
  184.9000  179.5830  140.1680 N   0  0  0  0  0  0  0  0  0  0  0  0
  183.9360  179.7260  139.1100 C   0  0  0  0  0  3  0  0  0  0  0  0
  180.6040  179.4040  140.6660 N   0  0  0  0  0  1  0  0  0  0  0  0
  181.1570  179.9100  137.0440 C   0  0  0  0  0  3  0  0  0  0  0  0
  181.8300  179.6940  138.0220 C   0  0  0  0  0  0  0  0  0  0  0  0
  187.3740  178.8980  141.4910 C   0  0  0  0  0  2  0  0  0  0  0  0
  191.1410  177.7810  139.9140 C   0  0  0  0  0  2  0  0  0  0  0  0
  189.8520  176.0120  138.7810 C   0  0  0  0  0  0  0  0  0  0  0  0
  188.6830  176.7370  138.6800 O   0  0  0  0  0  0  0  0  0  0  0  0
  190.6660  176.3440  139.9840 C   0  0  2  0  0  3  0  0  0  0  0  0
  187.3950  178.3720  140.0560 C   0  0  2  0  0  3  0  0  0  0  0  0
  188.6350  177.6160  139.7720 C   0  0  2  0  0  0  0  0  0  0  0  0
  188.4710  178.9440  139.3460 O   0  0  0  0  0  0  0  0  0  0  0  0
  190.1870  175.1440  137.9330 O   0  0  0  0  0  0  0  0  0  0  0  0
  189.8620  177.4570  140.6710 C   0  0  2  0  0  3  0  0  0  0  0  0
  185.7500  179.9300  143.1280 C   0  0  0  0  0  2  0  0  0  0  0  0
  183.5490  179.7310  144.0350 O   0  0  0  0  0  0  0  0  0  0  0  0
  185.2570  179.3310  145.5070 O   0  0  0  0  0  1  0  0  0  0  0  0
  184.7870  179.6620  144.2430 C   0  0  0  0  0  0  0  0  0  0  0  0
  185.9820  177.4590  143.0370 C   0  0  0  0  0  2  0  0  0  0  0  0
  187.8440  175.9940  143.0600 O   0  0  0  0  0  0  0  0  0  0  0  0
  187.3310  177.0020  143.5190 C   0  0  0  0  0  0  0  0  0  0  0  0
  188.0670  177.8320  144.5210 C   0  0  0  0  0  2  0  0  0  0  0  0
  189.0510  176.9850  145.3130 C   0  0  0  0  0  2  0  0  0  0  0  0
  190.7570  177.3380  144.7970 P   0  0  0  0  0  0  0  0  0  0  0  0
  191.7890  177.1950  146.1290 O   0  0  0  0  0  1  0  0  0  0  0  0
  190.8470  178.9150  144.1890 O   0  0  0  0  0  1  0  0  0  0  0  0
  191.1900  176.3660  143.7240 O   0  0  0  0  0  0  0  0  0  0  0  0
  1 12  1  6  0  0  0
  1 26  1  0  0  0  0
  1 22  1  0  0  0  0
  3  4  1  0  0  0  0
  3  1  1  0  0  0  0
  4  2  1  0  0  0  0
  5  6  1  0  0  0  0
  6  9  1  0  0  0  0
  6  2  2  0  0  0  0
  7  3  2  0  0  0  0
  8  5  2  0  0  0  0
  8  7  1  0  0  0  0
 10 11  3  0  0  0  0
 11  5  1  0  0  0  0
 14 16  1  0  0  0  0
 15 14  1  0  0  0  0
 16 13  1  6  0  0  0
 16 21  1  0  0  0  0
 17 12  1  1  0  0  0
 18 15  1  6  0  0  0
 18 17  1  0  0  0  0
 18 21  1  0  0  0  0
 19 18  1  0  0  0  0
 19 17  1  0  0  0  0
 20 14  2  0  0  0  0
 21 13  1  6  0  0  0
 22 25  1  0  0  0  0
 23 25  2  0  0  0  0
 25 24  1  0  0  0  0
 26 28  1  0  0  0  0
 27 28  2  0  0  0  0
 28 29  1  0  0  0  0
 29 30  1  0  0  0  0
 31 30  1  0  0  0  0
 31 32  1  0  0  0  0
 33 31  1  0  0  0  0
 34 31  2  0  0  0  0
M  END
>  <MODEL>
1

>  <REMARK>
 VINA RESULT:      -6.6      0.000      0.000
  Name = 
  11 active torsions:
  status: ('A' for Active; 'I' for Inactive)
    1  A    between atoms: P_2  and  C_23
    2  A    between atoms: C_4  and  C_23
    3  A    between atoms: C_4  and  C_29
    4  A    between atoms: C_9  and  C_15
    5  A    between atoms: C_11  and  C_12
    6  A    between atoms: C_11  and  C_15
    7  A    between atoms: C_13  and  C_15
    8  A    between atoms: C_13  and  C_21
    9  A    between atoms: C_14  and  C_15
   10  A    between atoms: C_14  and  C_29
   11  A    between atoms: C_18  and  C_33
                            x       y       z     vdW  Elec       q    Type
                         _______ _______ _______ _____ _____    ______ ____

>  <TORSDO>
F 11

$$$$
=
 OpenBabel10222415133D

 34 37  0  0  1  0  0  0  0  0999 V2000
  185.4500  178.7230  143.0050 C   0  0  1  0  0  0  0  0  0  0  0  0
  188.1390  176.2840  143.2450 C   0  0  0  0  0  3  0  0  0  0  0  0
  186.4750  177.9780  143.8520 C   0  0  0  0  0  0  0  0  0  0  0  0
  186.7250  176.5140  143.6430 C   0  0  0  0  0  2  0  0  0  0  0  0
  189.0040  177.1670  145.3920 C   0  0  0  0  0  0  0  0  0  0  0  0
  189.1680  176.5690  144.0410 C   0  0  0  0  0  0  0  0  0  0  0  0
  187.0790  178.6140  144.8160 N   0  0  0  0  0  0  0  0  0  0  0  0
  188.0920  178.1000  145.6990 C   0  0  0  0  0  3  0  0  0  0  0  0
  190.4740  176.2240  143.5930 N   0  0  0  0  0  1  0  0  0  0  0  0
  190.7610  176.5420  147.2700 C   0  0  0  0  0  3  0  0  0  0  0  0
  189.9610  176.8270  146.4130 C   0  0  0  0  0  0  0  0  0  0  0  0
  184.4830  177.7190  142.3430 C   0  0  0  0  0  2  0  0  0  0  0  0
  180.3920  177.9370  141.2760 C   0  0  0  0  0  2  0  0  0  0  0  0
  181.1410  179.7640  139.8010 C   0  0  0  0  0  0  0  0  0  0  0  0
  182.4050  179.2580  139.5850 O   0  0  0  0  0  0  0  0  0  0  0  0
  180.5790  179.4350  141.1410 C   0  0  2  0  0  3  0  0  0  0  0  0
  184.1650  178.0590  140.8870 C   0  0  2  0  0  3  0  0  0  0  0  0
  182.7730  178.5380  140.7320 C   0  0  2  0  0  0  0  0  0  0  0  0
  183.1370  177.2210  140.4070 O   0  0  0  0  0  0  0  0  0  0  0  0
  180.5290  180.4510  138.9410 O   0  0  0  0  0  0  0  0  0  0  0  0
  181.6720  178.5750  141.7930 C   0  0  2  0  0  3  0  0  0  0  0  0
  184.6630  179.7010  143.8990 C   0  0  0  0  0  2  0  0  0  0  0  0
  182.5970  178.7350  144.6110 O   0  0  0  0  0  0  0  0  0  0  0  0
  184.2430  178.8150  146.2020 O   0  0  0  0  0  1  0  0  0  0  0  0
  183.7720  179.0590  144.9180 C   0  0  0  0  0  0  0  0  0  0  0  0
  186.1570  179.5680  141.9190 C   0  0  0  0  0  2  0  0  0  0  0  0
  188.4880  179.1540  141.9690 O   0  0  0  0  0  0  0  0  0  0  0  0
  187.4310  178.9740  141.3860 C   0  0  0  0  0  0  0  0  0  0  0  0
  187.3800  178.1080  140.1690 C   0  0  0  0  0  2  0  0  0  0  0  0
  188.7800  177.7760  139.6770 C   0  0  0  0  0  2  0  0  0  0  0  0
  188.8990  178.0210  137.8790 P   0  0  0  0  0  0  0  0  0  0  0  0
  190.3050  177.2800  137.3030 O   0  0  0  0  0  1  0  0  0  0  0  0
  188.9630  179.6780  137.5400 O   0  0  0  0  0  1  0  0  0  0  0  0
  187.6980  177.4180  137.1890 O   0  0  0  0  0  0  0  0  0  0  0  0
  1 26  1  6  0  0  0
  1  3  1  0  0  0  0
  1 22  1  0  0  0  0
  2  4  1  0  0  0  0
  2  6  2  0  0  0  0
  3  7  2  0  0  0  0
  4  3  1  0  0  0  0
  5  8  2  0  0  0  0
  5 11  1  0  0  0  0
  6  5  1  0  0  0  0
  7  8  1  0  0  0  0
  9  6  1  0  0  0  0
 11 10  3  0  0  0  0
 12  1  1  0  0  0  0
 14 16  1  0  0  0  0
 15 14  1  0  0  0  0
 16 13  1  6  0  0  0
 16 21  1  0  0  0  0
 17 12  1  1  0  0  0
 18 15  1  6  0  0  0
 18 17  1  0  0  0  0
 18 21  1  0  0  0  0
 19 18  1  0  0  0  0
 19 17  1  0  0  0  0
 20 14  2  0  0  0  0
 21 13  1  6  0  0  0
 22 25  1  0  0  0  0
 23 25  2  0  0  0  0
 25 24  1  0  0  0  0
 28 26  1  0  0  0  0
 28 27  2  0  0  0  0
 29 28  1  0  0  0  0
 30 29  1  0  0  0  0
 31 30  1  0  0  0  0
 32 31  1  0  0  0  0
 33 31  1  0  0  0  0
 34 31  2  0  0  0  0
M  END
>  <MODEL>
2

>  <REMARK>
 VINA RESULT:      -6.2      2.842      7.180
  Name = 
  11 active torsions:
  status: ('A' for Active; 'I' for Inactive)
    1  A    between atoms: P_2  and  C_23
    2  A    between atoms: C_4  and  C_23
    3  A    between atoms: C_4  and  C_29
    4  A    between atoms: C_9  and  C_15
    5  A    between atoms: C_11  and  C_12
    6  A    between atoms: C_11  and  C_15
    7  A    between atoms: C_13  and  C_15
    8  A    between atoms: C_13  and  C_21
    9  A    between atoms: C_14  and  C_15
   10  A    between atoms: C_14  and  C_29
   11  A    between atoms: C_18  and  C_33
                            x       y       z     vdW  Elec       q    Type
                         _______ _______ _______ _____ _____    ______ ____

>  <TORSDO>
F 11

$$$$
=
 OpenBabel10222415133D

 34 37  0  0  1  0  0  0  0  0999 V2000
  190.1070  176.3980  137.7380 C   0  0  1  0  0  0  0  0  0  0  0  0
  188.2310  178.3770  140.1460 C   0  0  0  0  0  3  0  0  0  0  0  0
  189.9820  176.9910  139.1360 C   0  0  0  0  0  0  0  0  0  0  0  0
  189.4780  178.3900  139.3350 C   0  0  0  0  0  2  0  0  0  0  0  0
  189.3930  177.4250  142.1170 C   0  0  0  0  0  0  0  0  0  0  0  0
  188.1970  177.9520  141.4090 C   0  0  0  0  0  0  0  0  0  0  0  0
  190.3940  176.2930  140.1570 N   0  0  0  0  0  0  0  0  0  0  0  0
  190.3330  176.6600  141.5470 C   0  0  0  0  0  3  0  0  0  0  0  0
  186.9690  178.0690  142.1190 N   0  0  0  0  0  1  0  0  0  0  0  0
  189.5790  177.8080  144.7290 C   0  0  0  0  0  3  0  0  0  0  0  0
  189.4940  177.6350  143.5380 C   0  0  0  0  0  0  0  0  0  0  0  0
  191.4020  175.5650  137.6320 C   0  0  0  0  0  2  0  0  0  0  0  0
  195.2100  173.9870  138.5950 C   0  0  0  0  0  2  0  0  0  0  0  0
  195.8800  174.9810  136.4420 C   0  0  0  0  0  0  0  0  0  0  0  0
  194.9740  176.0190  136.4810 O   0  0  0  0  0  0  0  0  0  0  0  0
  195.4050  173.7390  137.1140 C   0  0  2  0  0  3  0  0  0  0  0  0
  192.6180  176.3920  137.2170 C   0  0  2  0  0  3  0  0  0  0  0  0
  193.8510  175.5730  137.1940 C   0  0  2  0  0  0  0  0  0  0  0  0
  193.5590  176.4310  138.2670 O   0  0  0  0  0  0  0  0  0  0  0  0
  197.0010  175.0800  135.8770 O   0  0  0  0  0  0  0  0  0  0  0  0
  194.0220  174.1250  137.6570 C   0  0  2  0  0  3  0  0  0  0  0  0
  188.8830  175.5070  137.4490 C   0  0  0  0  0  2  0  0  0  0  0  0
  189.4170  173.1790  137.5030 O   0  0  0  0  0  1  0  0  0  0  0  0
  189.2140  174.0920  135.4120 O   0  0  0  0  0  0  0  0  0  0  0  0
  189.1880  174.1940  136.7970 C   0  0  0  0  0  0  0  0  0  0  0  0
  190.1140  177.5200  136.6720 C   0  0  0  0  0  2  0  0  0  0  0  0
  188.9090  177.0780  134.6820 O   0  0  0  0  0  0  0  0  0  0  0  0
  188.8910  177.5690  135.7990 C   0  0  0  0  0  0  0  0  0  0  0  0
  187.6330  178.1700  136.3380 C   0  0  0  0  0  2  0  0  0  0  0  0
  186.4130  177.6170  135.6180 C   0  0  0  0  0  2  0  0  0  0  0  0
  185.1520  177.0870  136.8150 P   0  0  0  0  0  0  0  0  0  0  0  0
  183.6140  177.3150  136.1500 O   0  0  0  0  0  0  0  0  0  0  0  0
  185.2910  178.0100  138.2270 O   0  0  0  0  0  1  0  0  0  0  0  0
  185.3360  175.6260  137.1560 O   0  0  0  0  0  1  0  0  0  0  0  0
  1 26  1  6  0  0  0
  1  3  1  0  0  0  0
  2  6  2  0  0  0  0
  3  4  1  0  0  0  0
  3  7  2  0  0  0  0
  4  2  1  0  0  0  0
  5 11  1  0  0  0  0
  6  5  1  0  0  0  0
  6  9  1  0  0  0  0
  7  8  1  0  0  0  0
  8  5  2  0  0  0  0
 11 10  3  0  0  0  0
 12  1  1  0  0  0  0
 14 15  1  0  0  0  0
 14 16  1  0  0  0  0
 16 21  1  0  0  0  0
 16 13  1  1  0  0  0
 17 12  1  1  0  0  0
 17 19  1  0  0  0  0
 18 15  1  6  0  0  0
 18 17  1  0  0  0  0
 18 21  1  0  0  0  0
 18 19  1  0  0  0  0
 20 14  2  0  0  0  0
 21 13  1  1  0  0  0
 22  1  1  0  0  0  0
 24 25  2  0  0  0  0
 25 22  1  0  0  0  0
 25 23  1  0  0  0  0
 27 28  2  0  0  0  0
 28 29  1  0  0  0  0
 28 26  1  0  0  0  0
 30 29  1  0  0  0  0
 30 31  1  0  0  0  0
 31 34  1  0  0  0  0
 31 33  1  0  0  0  0
 32 31  2  0  0  0  0
M  END
>  <MODEL>
3

>  <REMARK>
 VINA RESULT:      -6.1      4.686      8.065
  Name = 
  11 active torsions:
  status: ('A' for Active; 'I' for Inactive)
    1  A    between atoms: P_2  and  C_23
    2  A    between atoms: C_4  and  C_23
    3  A    between atoms: C_4  and  C_29
    4  A    between atoms: C_9  and  C_15
    5  A    between atoms: C_11  and  C_12
    6  A    between atoms: C_11  and  C_15
    7  A    between atoms: C_13  and  C_15
    8  A    between atoms: C_13  and  C_21
    9  A    between atoms: C_14  and  C_15
   10  A    between atoms: C_14  and  C_29
   11  A    between atoms: C_18  and  C_33
                            x       y       z     vdW  Elec       q    Type
                         _______ _______ _______ _____ _____    ______ ____

>  <TORSDO>
F 11

$$$$
=
 OpenBabel10222415133D

 34 37  0  0  1  0  0  0  0  0999 V2000
  180.9210  178.8700  139.5790 C   0  0  1  0  0  0  0  0  0  0  0  0
  184.3150  178.4460  140.8200 C   0  0  0  0  0  3  0  0  0  0  0  0
  181.8700  178.5950  140.7390 C   0  0  0  0  0  0  0  0  0  0  0  0
  183.0570  177.6950  140.5640 C   0  0  0  0  0  2  0  0  0  0  0  0
  183.7060  178.8780  143.1830 C   0  0  0  0  0  0  0  0  0  0  0  0
  184.6130  178.9700  142.0080 C   0  0  0  0  0  0  0  0  0  0  0  0
  181.5920  179.0900  141.9130 N   0  0  0  0  0  0  0  0  0  0  0  0
  182.3710  178.9720  143.1160 C   0  0  0  0  0  3  0  0  0  0  0  0
  185.8840  179.5900  142.1640 N   0  0  0  0  0  1  0  0  0  0  0  0
  184.7820  178.7560  145.5980 C   0  0  0  0  0  3  0  0  0  0  0  0
  184.2930  178.8120  144.4960 C   0  0  0  0  0  0  0  0  0  0  0  0
  181.5600  178.4030  138.2540 C   0  0  0  0  0  2  0  0  0  0  0  0
  182.9950  175.0590  136.0920 C   0  0  0  0  0  2  0  0  0  0  0  0
  180.7220  174.1770  136.4510 C   0  0  0  0  0  0  0  0  0  0  0  0
  180.0990  175.4070  136.4710 O   0  0  0  0  0  0  0  0  0  0  0  0
  182.1170  174.1980  136.9760 C   0  0  2  0  0  3  0  0  0  0  0  0
  180.5700  177.7060  137.3210 C   0  0  2  0  0  3  0  0  0  0  0  0
  181.0190  176.3380  136.9760 C   0  0  2  0  0  0  0  0  0  0  0  0
  181.1890  177.4130  136.0880 O   0  0  0  0  0  0  0  0  0  0  0  0
  180.1520  173.1340  136.0340 O   0  0  0  0  0  0  0  0  0  0  0  0
  182.3520  175.6750  137.3240 C   0  0  2  0  0  3  0  0  0  0  0  0
  179.5940  178.1240  139.8150 C   0  0  0  0  0  2  0  0  0  0  0  0
  179.2890  176.9660  141.8830 O   0  0  0  0  0  1  0  0  0  0  0  0
  180.2150  175.7290  140.1930 O   0  0  0  0  0  0  0  0  0  0  0  0
  179.6900  176.9140  140.6930 C   0  0  0  0  0  0  0  0  0  0  0  0
  180.5860  180.3790  139.4990 C   0  0  0  0  0  2  0  0  0  0  0  0
  182.6290  181.3460  138.7910 O   0  0  0  0  0  0  0  0  0  0  0  0
  181.4460  181.1670  138.5500 C   0  0  0  0  0  0  0  0  0  0  0  0
  180.8510  181.6770  137.2780 C   0  0  0  0  0  2  0  0  0  0  0  0
  180.0210  182.9260  137.5260 C   0  0  0  0  0  2  0  0  0  0  0  0
  180.8220  184.3820  136.7900 P   0  0  0  0  0  0  0  0  0  0  0  0
  182.3040  184.6550  137.5580 O   0  0  0  0  0  1  0  0  0  0  0  0
  179.8290  185.7370  136.9970 O   0  0  0  0  0  1  0  0  0  0  0  0
  181.0590  184.1590  135.3150 O   0  0  0  0  0  0  0  0  0  0  0  0
  1 12  1  6  0  0  0
  1 22  1  0  0  0  0
  1  3  1  0  0  0  0
  2  6  2  0  0  0  0
  3  7  2  0  0  0  0
  4  3  1  0  0  0  0
  4  2  1  0  0  0  0
  5 11  1  0  0  0  0
  6  9  1  0  0  0  0
  6  5  1  0  0  0  0
  7  8  1  0  0  0  0
  8  5  2  0  0  0  0
 11 10  3  0  0  0  0
 14 15  1  0  0  0  0
 14 16  1  0  0  0  0
 15 18  1  0  0  0  0
 16 13  1  6  0  0  0
 16 21  1  0  0  0  0
 17 12  1  1  0  0  0
 18 19  1  6  0  0  0
 18 17  1  0  0  0  0
 18 21  1  0  0  0  0
 19 17  1  0  0  0  0
 20 14  2  0  0  0  0
 21 13  1  6  0  0  0
 22 25  1  0  0  0  0
 24 25  2  0  0  0  0
 25 23  1  0  0  0  0
 26  1  1  0  0  0  0
 28 27  2  0  0  0  0
 28 26  1  0  0  0  0
 29 30  1  0  0  0  0
 29 28  1  0  0  0  0
 31 33  1  0  0  0  0
 31 30  1  0  0  0  0
 31 32  1  0  0  0  0
 34 31  2  0  0  0  0
M  END
>  <MODEL>
4

>  <REMARK>
 VINA RESULT:      -6.0      5.985      8.763
  Name = 
  11 active torsions:
  status: ('A' for Active; 'I' for Inactive)
    1  A    between atoms: P_2  and  C_23
    2  A    between atoms: C_4  and  C_23
    3  A    between atoms: C_4  and  C_29
    4  A    between atoms: C_9  and  C_15
    5  A    between atoms: C_11  and  C_12
    6  A    between atoms: C_11  and  C_15
    7  A    between atoms: C_13  and  C_15
    8  A    between atoms: C_13  and  C_21
    9  A    between atoms: C_14  and  C_15
   10  A    between atoms: C_14  and  C_29
   11  A    between atoms: C_18  and  C_33
                            x       y       z     vdW  Elec       q    Type
                         _______ _______ _______ _____ _____    ______ ____

>  <TORSDO>
F 11

$$$$
=
 OpenBabel10222415133D

 34 37  0  0  1  0  0  0  0  0999 V2000
  188.9040  178.1880  141.9770 C   0  0  1  0  0  0  0  0  0  0  0  0
  186.8300  177.3650  144.8510 C   0  0  0  0  0  3  0  0  0  0  0  0
  187.5190  178.0130  142.5900 C   0  0  0  0  0  0  0  0  0  0  0  0
  187.2260  176.8630  143.5080 C   0  0  0  0  0  2  0  0  0  0  0  0
  184.8130  178.4930  143.9570 C   0  0  0  0  0  0  0  0  0  0  0  0
  185.7320  178.0910  145.0540 C   0  0  0  0  0  0  0  0  0  0  0  0
  186.5670  178.8330  142.2440 N   0  0  0  0  0  0  0  0  0  0  0  0
  185.2130  178.8530  142.7300 C   0  0  0  0  0  3  0  0  0  0  0  0
  185.4020  178.4420  146.3930 N   0  0  0  0  0  1  0  0  0  0  0  0
  182.2360  178.7510  144.5040 C   0  0  0  0  0  3  0  0  0  0  0  0
  183.4110  178.6320  144.2540 C   0  0  0  0  0  0  0  0  0  0  0  0
  188.7760  178.6030  140.4960 C   0  0  0  0  0  2  0  0  0  0  0  0
  188.6070  179.1140  136.2970 C   0  0  0  0  0  2  0  0  0  0  0  0
  187.9400  176.7420  136.2950 C   0  0  0  0  0  0  0  0  0  0  0  0
  187.3210  176.7710  137.5270 O   0  0  0  0  0  0  0  0  0  0  0  0
  189.0880  177.6830  136.1730 C   0  0  2  0  0  3  0  0  0  0  0  0
  187.6770  177.8460  139.7510 C   0  0  2  0  0  3  0  0  0  0  0  0
  187.9760  177.7380  138.3050 C   0  0  2  0  0  0  0  0  0  0  0  0
  187.0680  178.6890  138.7980 O   0  0  0  0  0  0  0  0  0  0  0  0
  187.5680  175.9770  135.3670 O   0  0  0  0  0  0  0  0  0  0  0  0
  189.1210  178.3940  137.5340 C   0  0  2  0  0  3  0  0  0  0  0  0
  189.6770  179.2670  142.7610 C   0  0  0  0  0  2  0  0  0  0  0  0
  189.7700  178.3680  144.9730 O   0  0  0  0  0  1  0  0  0  0  0  0
  191.7990  178.7570  143.9850 O   0  0  0  0  0  0  0  0  0  0  0  0
  190.4110  178.7740  143.9700 C   0  0  0  0  0  0  0  0  0  0  0  0
  189.7160  176.8760  142.0890 C   0  0  0  0  0  2  0  0  0  0  0  0
  191.9760  177.1660  141.4420 O   0  0  0  0  0  0  0  0  0  0  0  0
  190.8680  176.7620  141.1280 C   0  0  0  0  0  0  0  0  0  0  0  0
  190.6550  176.0920  139.8100 C   0  0  0  0  0  2  0  0  0  0  0  0
  191.7340  176.4910  138.8150 C   0  0  0  0  0  2  0  0  0  0  0  0
  191.9740  175.1840  137.5750 P   0  0  0  0  0  0  0  0  0  0  0  0
  192.0650  175.8800  136.0360 O   0  0  0  0  0  0  0  0  0  0  0  0
  190.6650  174.1120  137.6260 O   0  0  0  0  0  1  0  0  0  0  0  0
  193.2500  174.4260  137.8550 O   0  0  0  0  0  1  0  0  0  0  0  0
  1 12  1  6  0  0  0
  1 26  1  0  0  0  0
  1  3  1  0  0  0  0
  1 22  1  0  0  0  0
  2  6  2  0  0  0  0
  3  4  1  0  0  0  0
  4  2  1  0  0  0  0
  5 11  1  0  0  0  0
  5  6  1  0  0  0  0
  6  9  1  0  0  0  0
  7  3  2  0  0  0  0
  7  8  1  0  0  0  0
  8  5  2  0  0  0  0
 11 10  3  0  0  0  0
 14 15  1  0  0  0  0
 16 14  1  0  0  0  0
 16 13  1  6  0  0  0
 16 21  1  0  0  0  0
 17 12  1  1  0  0  0
 18 15  1  6  0  0  0
 18 19  1  0  0  0  0
 18 17  1  0  0  0  0
 19 17  1  0  0  0  0
 20 14  2  0  0  0  0
 21 13  1  6  0  0  0
 21 18  1  0  0  0  0
 22 25  1  0  0  0  0
 25 24  2  0  0  0  0
 25 23  1  0  0  0  0
 28 27  2  0  0  0  0
 28 26  1  0  0  0  0
 29 28  1  0  0  0  0
 30 29  1  0  0  0  0
 31 33  1  0  0  0  0
 31 34  1  0  0  0  0
 31 30  1  0  0  0  0
 32 31  2  0  0  0  0
M  END
>  <MODEL>
5

>  <REMARK>
 VINA RESULT:      -6.0      3.329      5.265
  Name = 
  11 active torsions:
  status: ('A' for Active; 'I' for Inactive)
    1  A    between atoms: P_2  and  C_23
    2  A    between atoms: C_4  and  C_23
    3  A    between atoms: C_4  and  C_29
    4  A    between atoms: C_9  and  C_15
    5  A    between atoms: C_11  and  C_12
    6  A    between atoms: C_11  and  C_15
    7  A    between atoms: C_13  and  C_15
    8  A    between atoms: C_13  and  C_21
    9  A    between atoms: C_14  and  C_15
   10  A    between atoms: C_14  and  C_29
   11  A    between atoms: C_18  and  C_33
                            x       y       z     vdW  Elec       q    Type
                         _______ _______ _______ _____ _____    ______ ____

>  <TORSDO>
F 11

$$$$
=
 OpenBabel10222415133D

 34 37  0  0  1  0  0  0  0  0999 V2000
  189.2250  177.0540  137.7950 C   0  0  1  0  0  0  0  0  0  0  0  0
  189.5290  174.3530  135.3760 C   0  0  0  0  0  3  0  0  0  0  0  0
  188.5770  175.9360  136.9870 C   0  0  0  0  0  0  0  0  0  0  0  0
  188.9480  175.7110  135.5510 C   0  0  0  0  0  2  0  0  0  0  0  0
  187.4230  173.2440  136.0670 C   0  0  0  0  0  0  0  0  0  0  0  0
  188.8340  173.2380  135.5980 C   0  0  0  0  0  0  0  0  0  0  0  0
  187.6340  175.2240  137.5380 N   0  0  0  0  0  0  0  0  0  0  0  0
  186.9270  174.1140  136.9570 C   0  0  0  0  0  3  0  0  0  0  0  0
  189.4610  171.9930  135.3120 N   0  0  0  0  0  1  0  0  0  0  0  0
  185.8310  171.2770  135.2940 C   0  0  0  0  0  3  0  0  0  0  0  0
  186.5570  172.1740  135.6450 C   0  0  0  0  0  0  0  0  0  0  0  0
  189.0160  176.8040  139.3030 C   0  0  0  0  0  2  0  0  0  0  0  0
  188.0440  176.4970  143.4120 C   0  0  0  0  0  2  0  0  0  0  0  0
  189.9520  178.0280  143.7120 C   0  0  0  0  0  0  0  0  0  0  0  0
  189.8120  178.6640  142.4970 O   0  0  0  0  0  0  0  0  0  0  0  0
  189.5280  176.6000  143.6990 C   0  0  2  0  0  3  0  0  0  0  0  0
  189.2010  178.0610  140.1530 C   0  0  2  0  0  3  0  0  0  0  0  0
  189.2660  177.7370  141.5960 C   0  0  2  0  0  0  0  0  0  0  0  0
  188.0920  178.2350  141.0070 O   0  0  0  0  0  0  0  0  0  0  0  0
  190.4090  178.6070  144.7320 O   0  0  0  0  0  0  0  0  0  0  0  0
  189.0330  176.3800  142.2630 C   0  0  2  0  0  3  0  0  0  0  0  0
  190.7320  177.1080  137.4740 C   0  0  0  0  0  2  0  0  0  0  0  0
  192.4670  176.7650  139.0800 O   0  0  0  0  0  1  0  0  0  0  0  0
  191.4450  174.8630  138.3170 O   0  0  0  0  0  0  0  0  0  0  0  0
  191.6000  176.2430  138.3350 C   0  0  0  0  0  0  0  0  0  0  0  0
  188.6270  178.4250  137.4000 C   0  0  0  0  0  2  0  0  0  0  0  0
  186.7690  178.3070  135.9350 O   0  0  0  0  0  0  0  0  0  0  0  0
  187.1560  178.4050  137.0880 C   0  0  0  0  0  0  0  0  0  0  0  0
  186.1710  178.4440  138.2120 C   0  0  0  0  0  2  0  0  0  0  0  0
  184.8340  177.8580  137.7860 C   0  0  0  0  0  2  0  0  0  0  0  0
  183.4730  178.6410  138.7010 P   0  0  0  0  0  0  0  0  0  0  0  0
  183.9880  180.1340  139.3040 O   0  0  0  0  0  1  0  0  0  0  0  0
  183.0160  177.6460  139.9920 O   0  0  0  0  0  1  0  0  0  0  0  0
  182.2850  178.8520  137.7920 O   0  0  0  0  0  0  0  0  0  0  0  0
  1 26  1  6  0  0  0
  1 12  1  0  0  0  0
  2  4  1  0  0  0  0
  2  6  2  0  0  0  0
  3  7  2  0  0  0  0
  3  1  1  0  0  0  0
  4  3  1  0  0  0  0
  5  8  2  0  0  0  0
  6  5  1  0  0  0  0
  8  7  1  0  0  0  0
  9  6  1  0  0  0  0
 10 11  3  0  0  0  0
 11  5  1  0  0  0  0
 14 20  2  0  0  0  0
 15 14  1  0  0  0  0
 16 13  1  1  0  0  0
 16 14  1  0  0  0  0
 17 12  1  6  0  0  0
 17 19  1  0  0  0  0
 17 18  1  0  0  0  0
 18 19  1  1  0  0  0
 18 21  1  0  0  0  0
 18 15  1  0  0  0  0
 21 13  1  1  0  0  0
 21 16  1  0  0  0  0
 22  1  1  0  0  0  0
 22 25  1  0  0  0  0
 24 25  2  0  0  0  0
 25 23  1  0  0  0  0
 27 28  2  0  0  0  0
 28 26  1  0  0  0  0
 28 29  1  0  0  0  0
 30 29  1  0  0  0  0
 30 31  1  0  0  0  0
 31 32  1  0  0  0  0
 31 33  1  0  0  0  0
 34 31  2  0  0  0  0
M  END
>  <MODEL>
6

>  <REMARK>
 VINA RESULT:      -5.8      4.080      7.766
  Name = 
  11 active torsions:
  status: ('A' for Active; 'I' for Inactive)
    1  A    between atoms: P_2  and  C_23
    2  A    between atoms: C_4  and  C_23
    3  A    between atoms: C_4  and  C_29
    4  A    between atoms: C_9  and  C_15
    5  A    between atoms: C_11  and  C_12
    6  A    between atoms: C_11  and  C_15
    7  A    between atoms: C_13  and  C_15
    8  A    between atoms: C_13  and  C_21
    9  A    between atoms: C_14  and  C_15
   10  A    between atoms: C_14  and  C_29
   11  A    between atoms: C_18  and  C_33
                            x       y       z     vdW  Elec       q    Type
                         _______ _______ _______ _____ _____    ______ ____

>  <TORSDO>
F 11

$$$$
=
 OpenBabel10222415133D

 34 37  0  0  1  0  0  0  0  0999 V2000
  188.7410  177.0850  138.2320 C   0  0  1  0  0  0  0  0  0  0  0  0
  187.7820  177.9070  141.6450 C   0  0  0  0  0  3  0  0  0  0  0  0
  189.1330  177.3150  139.6870 C   0  0  0  0  0  0  0  0  0  0  0  0
  188.5320  178.4400  140.4760 C   0  0  0  0  0  2  0  0  0  0  0  0
  189.8260  176.9350  142.6540 C   0  0  0  0  0  0  0  0  0  0  0  0
  188.3700  177.2370  142.6350 C   0  0  0  0  0  0  0  0  0  0  0  0
  190.0590  176.5660  140.2170 N   0  0  0  0  0  0  0  0  0  0  0  0
  190.5430  176.6040  141.5710 C   0  0  0  0  0  3  0  0  0  0  0  0
  187.5710  176.8500  143.7470 N   0  0  0  0  0  1  0  0  0  0  0  0
  191.0550  176.8050  144.9940 C   0  0  0  0  0  3  0  0  0  0  0  0
  190.4940  176.8650  143.9280 C   0  0  0  0  0  0  0  0  0  0  0  0
  188.5830  175.5750  137.9610 C   0  0  0  0  0  2  0  0  0  0  0  0
  188.7730  172.4090  135.1570 C   0  0  0  0  0  2  0  0  0  0  0  0
  186.4920  171.9140  135.9500 C   0  0  0  0  0  0  0  0  0  0  0  0
  186.1670  173.2190  136.2570 O   0  0  0  0  0  0  0  0  0  0  0  0
  187.9370  171.5950  136.1230 C   0  0  2  0  0  3  0  0  0  0  0  0
  187.2910  175.2270  137.2210 C   0  0  2  0  0  3  0  0  0  0  0  0
  187.3520  173.8730  136.6270 C   0  0  2  0  0  0  0  0  0  0  0  0
  187.5570  175.0250  135.8500 O   0  0  0  0  0  0  0  0  0  0  0  0
  185.6360  171.0740  135.5680 O   0  0  0  0  0  0  0  0  0  0  0  0
  188.5530  172.9290  136.5680 C   0  0  2  0  0  3  0  0  0  0  0  0
  187.4150  177.8150  137.9390 C   0  0  0  0  0  2  0  0  0  0  0  0
  187.7020  179.9180  136.8440 O   0  0  0  0  0  1  0  0  0  0  0  0
  187.1370  178.1690  135.4780 O   0  0  0  0  0  0  0  0  0  0  0  0
  187.4260  178.6970  136.7290 C   0  0  0  0  0  0  0  0  0  0  0  0
  189.8070  177.6820  137.2840 C   0  0  0  0  0  2  0  0  0  0  0  0
  190.6450  176.1740  135.6600 O   0  0  0  0  0  0  0  0  0  0  0  0
  190.8070  176.6910  136.7540 C   0  0  0  0  0  0  0  0  0  0  0  0
  192.0330  176.3940  137.5540 C   0  0  0  0  0  2  0  0  0  0  0  0
  192.3040  174.8980  137.6020 C   0  0  0  0  0  2  0  0  0  0  0  0
  194.0530  174.5540  137.2460 P   0  0  0  0  0  0  0  0  0  0  0  0
  195.0180  175.2500  138.4470 O   0  0  0  0  0  1  0  0  0  0  0  0
  194.4640  175.2180  135.7450 O   0  0  0  0  0  0  0  0  0  0  0  0
  194.2960  173.0630  137.2130 O   0  0  0  0  0  1  0  0  0  0  0  0
  1 26  1  6  0  0  0
  1  3  1  0  0  0  0
  2  6  2  0  0  0  0
  3  7  2  0  0  0  0
  3  4  1  0  0  0  0
  4  2  1  0  0  0  0
  5 11  1  0  0  0  0
  6  5  1  0  0  0  0
  6  9  1  0  0  0  0
  7  8  1  0  0  0  0
  8  5  2  0  0  0  0
 11 10  3  0  0  0  0
 12  1  1  0  0  0  0
 14 16  1  0  0  0  0
 14 15  1  0  0  0  0
 15 18  1  0  0  0  0
 16 13  1  6  0  0  0
 16 21  1  0  0  0  0
 17 12  1  1  0  0  0
 18 19  1  6  0  0  0
 18 17  1  0  0  0  0
 19 17  1  0  0  0  0
 20 14  2  0  0  0  0
 21 13  1  6  0  0  0
 21 18  1  0  0  0  0
 22  1  1  0  0  0  0
 24 25  2  0  0  0  0
 25 23  1  0  0  0  0
 25 22  1  0  0  0  0
 27 28  2  0  0  0  0
 28 26  1  0  0  0  0
 28 29  1  0  0  0  0
 29 30  1  0  0  0  0
 31 30  1  0  0  0  0
 31 32  1  0  0  0  0
 33 31  2  0  0  0  0
 34 31  1  0  0  0  0
M  END
>  <MODEL>
7

>  <REMARK>
 VINA RESULT:      -5.8      4.998      7.475
  Name = 
  11 active torsions:
  status: ('A' for Active; 'I' for Inactive)
    1  A    between atoms: P_2  and  C_23
    2  A    between atoms: C_4  and  C_23
    3  A    between atoms: C_4  and  C_29
    4  A    between atoms: C_9  and  C_15
    5  A    between atoms: C_11  and  C_12
    6  A    between atoms: C_11  and  C_15
    7  A    between atoms: C_13  and  C_15
    8  A    between atoms: C_13  and  C_21
    9  A    between atoms: C_14  and  C_15
   10  A    between atoms: C_14  and  C_29
   11  A    between atoms: C_18  and  C_33
                            x       y       z     vdW  Elec       q    Type
                         _______ _______ _______ _____ _____    ______ ____

>  <TORSDO>
F 11

$$$$
=
 OpenBabel10222415133D

 34 37  0  0  1  0  0  0  0  0999 V2000
  189.0920  176.2740  137.4650 C   0  0  1  0  0  0  0  0  0  0  0  0
  192.7230  176.4860  137.3430 C   0  0  0  0  0  3  0  0  0  0  0  0
  190.4350  175.6310  137.1370 C   0  0  0  0  0  0  0  0  0  0  0  0
  191.5210  176.4200  136.4680 C   0  0  0  0  0  2  0  0  0  0  0  0
  193.0520  174.0310  137.2630 C   0  0  0  0  0  0  0  0  0  0  0  0
  193.4210  175.4060  137.6920 C   0  0  0  0  0  0  0  0  0  0  0  0
  190.6010  174.3600  137.3750 N   0  0  0  0  0  0  0  0  0  0  0  0
  191.7930  173.5820  137.1670 C   0  0  0  0  0  3  0  0  0  0  0  0
  194.6050  175.5960  138.4580 N   0  0  0  0  0  1  0  0  0  0  0  0
  194.9900  172.2680  136.8910 C   0  0  0  0  0  3  0  0  0  0  0  0
  194.1060  173.0720  137.0590 C   0  0  0  0  0  0  0  0  0  0  0  0
  189.0670  176.7180  138.9420 C   0  0  0  0  0  2  0  0  0  0  0  0
  189.3380  178.1880  142.9020 C   0  0  0  0  0  2  0  0  0  0  0  0
  190.9080  176.3140  143.2160 C   0  0  0  0  0  0  0  0  0  0  0  0
  191.3640  176.2980  141.9150 O   0  0  0  0  0  0  0  0  0  0  0  0
  189.4890  176.7500  143.3520 C   0  0  2  0  0  3  0  0  0  0  0  0
  190.4330  176.6250  139.6230 C   0  0  2  0  0  3  0  0  0  0  0  0
  190.3160  176.7410  141.0940 C   0  0  2  0  0  0  0  0  0  0  0  0
  190.7190  177.8280  140.3010 O   0  0  0  0  0  0  0  0  0  0  0  0
  191.6280  175.9790  144.1920 O   0  0  0  0  0  0  0  0  0  0  0  0
  189.0660  177.0680  141.9110 C   0  0  2  0  0  3  0  0  0  0  0  0
  188.8710  177.4900  136.5450 C   0  0  0  0  0  2  0  0  0  0  0  0
  189.0110  179.6550  137.5470 O   0  0  0  0  0  1  0  0  0  0  0  0
  186.9080  178.7530  137.4480 O   0  0  0  0  0  0  0  0  0  0  0  0
  188.2750  178.6930  137.2090 C   0  0  0  0  0  0  0  0  0  0  0  0
  187.9360  175.2820  137.1930 C   0  0  0  0  0  2  0  0  0  0  0  0
  188.0170  175.0160  134.8410 O   0  0  0  0  0  0  0  0  0  0  0  0
  187.3540  175.3550  135.8080 C   0  0  0  0  0  0  0  0  0  0  0  0
  185.9340  175.7860  135.6360 C   0  0  0  0  0  2  0  0  0  0  0  0
  185.1360  175.5580  136.9100 C   0  0  0  0  0  2  0  0  0  0  0  0
  184.3320  173.9290  136.8760 P   0  0  0  0  0  0  0  0  0  0  0  0
  185.1030  172.8990  137.9730 O   0  0  0  0  0  1  0  0  0  0  0  0
  184.4480  173.2750  135.3200 O   0  0  0  0  0  0  0  0  0  0  0  0
  182.8740  174.0580  137.2540 O   0  0  0  0  0  1  0  0  0  0  0  0
  1 22  1  6  0  0  0
  1 12  1  0  0  0  0
  2  6  2  0  0  0  0
  3  7  2  0  0  0  0
  3  1  1  0  0  0  0
  4  3  1  0  0  0  0
  4  2  1  0  0  0  0
  5  6  1  0  0  0  0
  6  9  1  0  0  0  0
  8  5  2  0  0  0  0
  8  7  1  0  0  0  0
 10 11  3  0  0  0  0
 11  5  1  0  0  0  0
 14 16  1  0  0  0  0
 14 20  2  0  0  0  0
 15 14  1  0  0  0  0
 16 13  1  1  0  0  0
 17 12  1  6  0  0  0
 17 19  1  0  0  0  0
 17 18  1  0  0  0  0
 18 19  1  1  0  0  0
 18 21  1  0  0  0  0
 18 15  1  0  0  0  0
 21 13  1  1  0  0  0
 21 16  1  0  0  0  0
 22 25  1  0  0  0  0
 25 24  2  0  0  0  0
 25 23  1  0  0  0  0
 26  1  1  0  0  0  0
 27 28  2  0  0  0  0
 28 26  1  0  0  0  0
 29 28  1  0  0  0  0
 29 30  1  0  0  0  0
 31 30  1  0  0  0  0
 31 34  1  0  0  0  0
 31 32  1  0  0  0  0
 33 31  2  0  0  0  0
M  END
>  <MODEL>
8

>  <REMARK>
 VINA RESULT:      -5.8      4.863      8.902
  Name = 
  11 active torsions:
  status: ('A' for Active; 'I' for Inactive)
    1  A    between atoms: P_2  and  C_23
    2  A    between atoms: C_4  and  C_23
    3  A    between atoms: C_4  and  C_29
    4  A    between atoms: C_9  and  C_15
    5  A    between atoms: C_11  and  C_12
    6  A    between atoms: C_11  and  C_15
    7  A    between atoms: C_13  and  C_15
    8  A    between atoms: C_13  and  C_21
    9  A    between atoms: C_14  and  C_15
   10  A    between atoms: C_14  and  C_29
   11  A    between atoms: C_18  and  C_33
                            x       y       z     vdW  Elec       q    Type
                         _______ _______ _______ _____ _____    ______ ____

>  <TORSDO>
F 11

$$$$
=
 OpenBabel10222415133D

 34 37  0  0  1  0  0  0  0  0999 V2000
  189.8930  177.5170  141.7390 C   0  0  1  0  0  0  0  0  0  0  0  0
  189.7410  178.2630  145.2970 C   0  0  0  0  0  3  0  0  0  0  0  0
  190.5230  177.4390  143.1250 C   0  0  0  0  0  0  0  0  0  0  0  0
  190.4790  178.6150  144.0550 C   0  0  0  0  0  2  0  0  0  0  0  0
  191.4000  176.5310  145.9230 C   0  0  0  0  0  0  0  0  0  0  0  0
  190.1650  177.3280  146.1470 C   0  0  0  0  0  0  0  0  0  0  0  0
  191.1710  176.3610  143.4640 N   0  0  0  0  0  0  0  0  0  0  0  0
  191.8030  176.0830  144.7260 C   0  0  0  0  0  3  0  0  0  0  0  0
  189.4270  177.1360  147.3480 N   0  0  0  0  0  1  0  0  0  0  0  0
  192.7800  175.7310  148.0350 C   0  0  0  0  0  3  0  0  0  0  0  0
  192.1510  176.0970  147.0720 C   0  0  0  0  0  0  0  0  0  0  0  0
  190.9590  177.2370  140.6590 C   0  0  0  0  0  2  0  0  0  0  0  0
  193.4890  176.7140  137.3050 C   0  0  0  0  0  2  0  0  0  0  0  0
  192.6960  174.3820  137.3950 C   0  0  0  0  0  0  0  0  0  0  0  0
  191.4560  174.6790  137.9210 O   0  0  0  0  0  0  0  0  0  0  0  0
  193.7730  175.3200  137.8230 C   0  0  2  0  0  3  0  0  0  0  0  0
  190.4800  176.2730  139.5740 C   0  0  2  0  0  3  0  0  0  0  0  0
  191.5950  175.8340  138.7050 C   0  0  2  0  0  0  0  0  0  0  0  0
  190.6950  176.8320  138.2980 O   0  0  0  0  0  0  0  0  0  0  0  0
  192.8930  173.4000  136.6330 O   0  0  0  0  0  0  0  0  0  0  0  0
  193.0380  176.3380  138.7070 C   0  0  2  0  0  3  0  0  0  0  0  0
  188.7550  176.4820  141.6360 C   0  0  0  0  0  2  0  0  0  0  0  0
  188.0710  175.1860  143.5230 O   0  0  0  0  0  1  0  0  0  0  0  0
  187.1340  177.2700  143.3720 O   0  0  0  0  0  0  0  0  0  0  0  0
  187.9700  176.2700  142.8940 C   0  0  0  0  0  0  0  0  0  0  0  0
  189.2630  178.9100  141.5080 C   0  0  0  0  0  2  0  0  0  0  0  0
  188.6290  179.0840  139.2320 O   0  0  0  0  0  0  0  0  0  0  0  0
  188.2590  178.9720  140.3890 C   0  0  0  0  0  0  0  0  0  0  0  0
  186.8050  178.8300  140.7050 C   0  0  0  0  0  2  0  0  0  0  0  0
  186.0240  178.3710  139.4830 C   0  0  0  0  0  2  0  0  0  0  0  0
  184.3130  178.9790  139.5540 P   0  0  0  0  0  0  0  0  0  0  0  0
  183.7510  178.8910  141.1460 O   0  0  0  0  0  1  0  0  0  0  0  0
  183.3330  178.0210  138.5620 O   0  0  0  0  0  0  0  0  0  0  0  0
  184.2480  180.4130  139.0810 O   0  0  0  0  0  1  0  0  0  0  0  0
  1 12  1  6  0  0  0
  1  3  1  0  0  0  0
  2  6  2  0  0  0  0
  3  7  2  0  0  0  0
  3  4  1  0  0  0  0
  4  2  1  0  0  0  0
  5  6  1  0  0  0  0
  5 11  1  0  0  0  0
  6  9  1  0  0  0  0
  7  8  1  0  0  0  0
  8  5  2  0  0  0  0
 11 10  3  0  0  0  0
 14 16  1  0  0  0  0
 14 15  1  0  0  0  0
 16 13  1  6  0  0  0
 16 21  1  0  0  0  0
 17 12  1  1  0  0  0
 18 15  1  6  0  0  0
 18 21  1  0  0  0  0
 18 17  1  0  0  0  0
 19 18  1  0  0  0  0
 19 17  1  0  0  0  0
 20 14  2  0  0  0  0
 21 13  1  6  0  0  0
 22  1  1  0  0  0  0
 22 25  1  0  0  0  0
 25 24  2  0  0  0  0
 25 23  1  0  0  0  0
 26  1  1  0  0  0  0
 27 28  2  0  0  0  0
 28 29  1  0  0  0  0
 28 26  1  0  0  0  0
 30 31  1  0  0  0  0
 30 29  1  0  0  0  0
 31 32  1  0  0  0  0
 33 31  2  0  0  0  0
 34 31  1  0  0  0  0
M  END
>  <MODEL>
9

>  <REMARK>
 VINA RESULT:      -5.8      3.864      7.416
  Name = 
  11 active torsions:
  status: ('A' for Active; 'I' for Inactive)
    1  A    between atoms: P_2  and  C_23
    2  A    between atoms: C_4  and  C_23
    3  A    between atoms: C_4  and  C_29
    4  A    between atoms: C_9  and  C_15
    5  A    between atoms: C_11  and  C_12
    6  A    between atoms: C_11  and  C_15
    7  A    between atoms: C_13  and  C_15
    8  A    between atoms: C_13  and  C_21
    9  A    between atoms: C_14  and  C_15
   10  A    between atoms: C_14  and  C_29
   11  A    between atoms: C_18  and  C_33
                            x       y       z     vdW  Elec       q    Type
                         _______ _______ _______ _____ _____    ______ ____

>  <TORSDO>
F 11

$$$$
