=
 OpenBabel10222420123D

 27 28  0  0  1  0  0  0  0  0999 V2000
  187.7600  177.1300  147.9680 O   0  0  0  0  0  1  0  0  0  0  0  0
  190.0220  177.3740  147.7520 O   0  0  0  0  0  0  0  0  0  0  0  0
  188.9050  177.2310  147.1870 C   0  0  0  0  0  0  0  0  0  0  0  0
  188.8100  177.1690  145.7520 N   0  0  0  0  0  0  0  0  0  0  0  0
  191.1280  178.6050  143.3020 C   0  0  0  0  0  2  0  0  0  0  0  0
  190.4770  178.6170  144.6400 C   0  0  0  0  0  2  0  0  0  0  0  0
  190.7910  177.5720  142.5410 C   0  0  2  0  0  3  0  0  0  0  0  0
  189.9840  177.1960  144.8800 C   0  0  2  0  0  3  0  0  0  0  0  0
  189.6350  176.4210  143.2650 S   0  0  0  0  0  0  0  0  0  0  0  0
  191.3500  177.3650  141.1690 C   0  0  0  0  0  2  0  0  0  0  0  0
  190.3230  176.7370  140.2350 C   0  0  0  0  0  2  0  0  0  0  0  0
  188.3730  178.8190  139.9990 O   0  0  0  0  0  1  0  0  0  0  0  0
  188.9950  179.3770  137.8670 O   0  0  0  0  0  0  0  0  0  0  0  0
  190.1120  177.5710  139.0600 N   0  0  0  0  0  2  0  0  0  0  0  0
  189.1260  178.6040  139.0130 C   0  0  0  0  0  0  0  0  0  0  0  0
  187.5130  177.0050  145.1140 C   0  0  0  0  0  2  0  0  0  0  0  0
  186.7060  178.2890  145.2270 C   0  0  0  0  0  2  0  0  0  0  0  0
  184.4190  178.7380  144.3130 C   0  0  0  0  0  3  0  0  0  0  0  0
  183.5410  178.8510  143.2350 C   0  0  0  0  0  3  0  0  0  0  0  0
  184.0100  178.6230  141.9330 C   0  0  0  0  0  0  0  0  0  0  0  0
  186.1910  178.1810  142.7790 C   0  0  0  0  0  3  0  0  0  0  0  0
  185.3190  178.2970  141.7420 N   0  0  0  0  0  0  0  0  0  0  0  0
  185.7530  178.3950  144.0880 C   0  0  0  0  0  0  0  0  0  0  0  0
  183.4380  179.3890  139.5540 C   0  0  0  0  0  0  0  0  0  0  0  0
  182.4160  179.3940  138.4750 C   0  0  0  0  0  1  0  0  0  0  0  0
  183.1480  178.7270  140.7910 N   0  0  0  0  0  2  0  0  0  0  0  0
  184.5400  179.9680  139.3630 O   0  0  0  0  0  0  0  0  0  0  0  0
  3  2  2  0  0  0  0
  3  1  1  0  0  0  0
  4  3  1  0  0  0  0
  5  6  1  0  0  0  0
  6  8  1  0  0  0  0
  7 10  1  1  0  0  0
  7  9  1  0  0  0  0
  7  5  1  0  0  0  0
  8  4  1  1  0  0  0
  9  8  1  0  0  0  0
 11 10  1  0  0  0  0
 13 15  2  0  0  0  0
 14 11  1  0  0  0  0
 15 14  1  0  0  0  0
 15 12  1  0  0  0  0
 16 17  1  0  0  0  0
 16  4  1  0  0  0  0
 19 18  2  0  0  0  0
 20 19  1  0  0  0  0
 21 23  2  0  0  0  0
 22 20  2  0  0  0  0
 22 21  1  0  0  0  0
 23 18  1  0  0  0  0
 23 17  1  0  0  0  0
 24 26  1  0  0  0  0
 25 24  1  0  0  0  0
 26 20  1  0  0  0  0
 27 24  2  0  0  0  0
M  END
>  <MODEL>
1

>  <REMARK>
 VINA RESULT:      -8.1      0.000      0.000
  Name = 
  8 active torsions:
  status: ('A' for Active; 'I' for Inactive)
    1  A    between atoms: C_6  and  N_18
    2  A    between atoms: C_7  and  N_14
    3  A    between atoms: C_7  and  C_27
    4  A    between atoms: C_8  and  C_12
    5  A    between atoms: C_8  and  C_26
    6  A    between atoms: C_12  and  N_24
    7  A    between atoms: C_16  and  C_27
    8  A    between atoms: C_21  and  N_24
                            x       y       z     vdW  Elec       q    Type
                         _______ _______ _______ _____ _____    ______ ____

>  <TORSDO>
F 8

$$$$
=
 OpenBabel10222420123D

 27 28  0  0  1  0  0  0  0  0999 V2000
  187.8040  177.4220  148.5920 O   0  0  0  0  0  1  0  0  0  0  0  0
  189.9720  177.4580  147.8670 O   0  0  0  0  0  0  0  0  0  0  0  0
  188.7490  177.3870  147.5730 C   0  0  0  0  0  0  0  0  0  0  0  0
  188.3300  177.2690  146.2000 N   0  0  0  0  0  0  0  0  0  0  0  0
  190.2560  178.4370  143.3090 C   0  0  0  0  0  2  0  0  0  0  0  0
  189.9210  178.4930  144.7580 C   0  0  0  0  0  2  0  0  0  0  0  0
  189.6050  177.4990  142.6350 C   0  0  2  0  0  3  0  0  0  0  0  0
  189.2760  177.1540  145.0910 C   0  0  2  0  0  3  0  0  0  0  0  0
  188.4680  176.5070  143.5880 S   0  0  0  0  0  0  0  0  0  0  0  0
  189.8150  177.2660  141.1720 C   0  0  0  0  0  2  0  0  0  0  0  0
  188.5300  177.4850  140.3810 C   0  0  0  0  0  2  0  0  0  0  0  0
  189.2000  177.5090  137.5980 O   0  0  0  0  0  1  0  0  0  0  0  0
  189.0190  179.7850  137.4120 O   0  0  0  0  0  0  0  0  0  0  0  0
  188.6330  178.6730  139.5450 N   0  0  0  0  0  2  0  0  0  0  0  0
  188.9610  178.6130  138.1550 C   0  0  0  0  0  0  0  0  0  0  0  0
  186.9130  177.1900  145.8760 C   0  0  0  0  0  2  0  0  0  0  0  0
  186.3100  178.5840  145.8160 C   0  0  0  0  0  2  0  0  0  0  0  0
  185.5310  178.4680  143.4390 C   0  0  0  0  0  3  0  0  0  0  0  0
  184.5070  178.4950  142.4930 C   0  0  0  0  0  3  0  0  0  0  0  0
  183.1810  178.6810  142.9120 C   0  0  0  0  0  0  0  0  0  0  0  0
  183.8990  178.8060  145.1780 C   0  0  0  0  0  3  0  0  0  0  0  0
  182.9150  178.8300  144.2390 N   0  0  0  0  0  0  0  0  0  0  0  0
  185.2290  178.6290  144.7920 C   0  0  0  0  0  0  0  0  0  0  0  0
  180.8870  179.4820  142.0940 C   0  0  0  0  0  0  0  0  0  0  0  0
  179.8630  179.3930  141.0210 C   0  0  0  0  0  1  0  0  0  0  0  0
  182.0920  178.7170  141.9780 N   0  0  0  0  0  2  0  0  0  0  0  0
  180.6770  180.2270  143.0870 O   0  0  0  0  0  0  0  0  0  0  0  0
  3  2  2  0  0  0  0
  3  1  1  0  0  0  0
  4  3  1  0  0  0  0
  5  6  1  0  0  0  0
  6  8  1  0  0  0  0
  7 10  1  1  0  0  0
  7  5  1  0  0  0  0
  7  9  1  0  0  0  0
  8  4  1  1  0  0  0
  9  8  1  0  0  0  0
 11 10  1  0  0  0  0
 12 15  1  0  0  0  0
 13 15  2  0  0  0  0
 14 11  1  0  0  0  0
 15 14  1  0  0  0  0
 16  4  1  0  0  0  0
 17 16  1  0  0  0  0
 18 23  1  0  0  0  0
 19 20  1  0  0  0  0
 19 18  2  0  0  0  0
 20 22  2  0  0  0  0
 22 21  1  0  0  0  0
 23 21  2  0  0  0  0
 23 17  1  0  0  0  0
 24 27  2  0  0  0  0
 25 24  1  0  0  0  0
 26 24  1  0  0  0  0
 26 20  1  0  0  0  0
M  END
>  <MODEL>
2

>  <REMARK>
 VINA RESULT:      -7.7      1.813      2.051
  Name = 
  8 active torsions:
  status: ('A' for Active; 'I' for Inactive)
    1  A    between atoms: C_6  and  N_18
    2  A    between atoms: C_7  and  N_14
    3  A    between atoms: C_7  and  C_27
    4  A    between atoms: C_8  and  C_12
    5  A    between atoms: C_8  and  C_26
    6  A    between atoms: C_12  and  N_24
    7  A    between atoms: C_16  and  C_27
    8  A    between atoms: C_21  and  N_24
                            x       y       z     vdW  Elec       q    Type
                         _______ _______ _______ _____ _____    ______ ____

>  <TORSDO>
F 8

$$$$
=
 OpenBabel10222420123D

 27 28  0  0  1  0  0  0  0  0999 V2000
  192.4240  175.6980  145.8870 O   0  0  0  0  0  0  0  0  0  0  0  0
  191.6190  176.8320  147.7010 O   0  0  0  0  0  1  0  0  0  0  0  0
  191.4670  176.5010  146.4940 C   0  0  0  0  0  0  0  0  0  0  0  0
  190.3180  176.9490  145.7500 N   0  0  0  0  0  0  0  0  0  0  0  0
  187.6140  177.9640  148.0060 C   0  0  0  0  0  2  0  0  0  0  0  0
  189.0180  177.5330  147.7700 C   0  0  0  0  0  2  0  0  0  0  0  0
  186.8980  178.1220  146.9000 C   0  0  2  0  0  3  0  0  0  0  0  0
  189.3150  177.8550  146.3100 C   0  0  2  0  0  3  0  0  0  0  0  0
  187.7530  177.7870  145.3700 S   0  0  0  0  0  0  0  0  0  0  0  0
  185.4710  178.5700  146.9200 C   0  0  0  0  0  2  0  0  0  0  0  0
  185.0370  179.1160  145.5650 C   0  0  0  0  0  2  0  0  0  0  0  0
  183.6250  178.6240  143.1240 O   0  0  0  0  0  0  0  0  0  0  0  0
  181.5610  178.7270  144.1130 O   0  0  0  0  0  1  0  0  0  0  0  0
  183.5890  179.0550  145.4220 N   0  0  0  0  0  2  0  0  0  0  0  0
  182.9470  178.7930  144.1720 C   0  0  0  0  0  0  0  0  0  0  0  0
  190.1550  176.5580  144.3580 C   0  0  0  0  0  2  0  0  0  0  0  0
  190.8900  177.5320  143.4500 C   0  0  0  0  0  2  0  0  0  0  0  0
  191.0590  177.1340  140.9840 C   0  0  0  0  0  3  0  0  0  0  0  0
  190.4810  177.1010  139.7150 C   0  0  0  0  0  3  0  0  0  0  0  0
  189.1300  177.4450  139.5610 C   0  0  0  0  0  0  0  0  0  0  0  0
  188.9470  177.8400  141.9010 C   0  0  0  0  0  3  0  0  0  0  0  0
  188.4030  177.8020  140.6550 N   0  0  0  0  0  0  0  0  0  0  0  0
  190.2910  177.5110  142.0870 C   0  0  0  0  0  0  0  0  0  0  0  0
  188.4230  178.5050  137.3360 C   0  0  0  0  0  0  0  0  0  0  0  0
  187.7100  178.3030  136.0480 C   0  0  0  0  0  1  0  0  0  0  0  0
  188.4880  177.4270  138.2780 N   0  0  0  0  0  2  0  0  0  0  0  0
  188.9550  179.6200  137.5780 O   0  0  0  0  0  0  0  0  0  0  0  0
  1  3  2  0  0  0  0
  3  2  1  0  0  0  0
  4  3  1  0  0  0  0
  6  5  1  0  0  0  0
  7 10  1  6  0  0  0
  7  5  1  0  0  0  0
  8  4  1  6  0  0  0
  8  6  1  0  0  0  0
  9  8  1  0  0  0  0
  9  7  1  0  0  0  0
 11 10  1  0  0  0  0
 12 15  2  0  0  0  0
 13 15  1  0  0  0  0
 14 11  1  0  0  0  0
 15 14  1  0  0  0  0
 16  4  1  0  0  0  0
 17 16  1  0  0  0  0
 18 23  1  0  0  0  0
 19 18  2  0  0  0  0
 20 19  1  0  0  0  0
 20 22  2  0  0  0  0
 21 23  2  0  0  0  0
 22 21  1  0  0  0  0
 23 17  1  0  0  0  0
 24 27  2  0  0  0  0
 24 26  1  0  0  0  0
 25 24  1  0  0  0  0
 26 20  1  0  0  0  0
M  END
>  <MODEL>
3

>  <REMARK>
 VINA RESULT:      -7.7      2.593      5.766
  Name = 
  8 active torsions:
  status: ('A' for Active; 'I' for Inactive)
    1  A    between atoms: C_6  and  N_18
    2  A    between atoms: C_7  and  N_14
    3  A    between atoms: C_7  and  C_27
    4  A    between atoms: C_8  and  C_12
    5  A    between atoms: C_8  and  C_26
    6  A    between atoms: C_12  and  N_24
    7  A    between atoms: C_16  and  C_27
    8  A    between atoms: C_21  and  N_24
                            x       y       z     vdW  Elec       q    Type
                         _______ _______ _______ _____ _____    ______ ____

>  <TORSDO>
F 8

$$$$
=
 OpenBabel10222420123D

 27 28  0  0  1  0  0  0  0  0999 V2000
  187.5160  177.7900  148.3570 O   0  0  0  0  0  1  0  0  0  0  0  0
  189.7410  177.7780  147.8350 O   0  0  0  0  0  0  0  0  0  0  0  0
  188.5510  177.6610  147.4380 C   0  0  0  0  0  0  0  0  0  0  0  0
  188.2620  177.3930  146.0530 N   0  0  0  0  0  0  0  0  0  0  0  0
  190.4920  178.2960  143.2890 C   0  0  0  0  0  2  0  0  0  0  0  0
  190.0200  178.4690  144.6890 C   0  0  0  0  0  2  0  0  0  0  0  0
  189.8830  177.3240  142.6240 C   0  0  2  0  0  3  0  0  0  0  0  0
  189.3070  177.1730  145.0550 C   0  0  2  0  0  3  0  0  0  0  0  0
  188.6310  176.4320  143.5310 S   0  0  0  0  0  0  0  0  0  0  0  0
  190.2270  176.9760  141.2100 C   0  0  0  0  0  2  0  0  0  0  0  0
  189.0550  177.2350  140.2700 C   0  0  0  0  0  2  0  0  0  0  0  0
  187.6960  177.7680  137.8080 O   0  0  0  0  0  1  0  0  0  0  0  0
  188.9540  179.6220  137.3320 O   0  0  0  0  0  0  0  0  0  0  0  0
  189.3560  178.3280  139.3570 N   0  0  0  0  0  2  0  0  0  0  0  0
  188.6280  178.5450  138.1460 C   0  0  0  0  0  0  0  0  0  0  0  0
  186.8820  177.2610  145.6100 C   0  0  0  0  0  2  0  0  0  0  0  0
  186.2020  178.6220  145.6000 C   0  0  0  0  0  2  0  0  0  0  0  0
  183.8030  178.9420  144.9600 C   0  0  0  0  0  3  0  0  0  0  0  0
  182.7960  178.9740  143.9960 C   0  0  0  0  0  3  0  0  0  0  0  0
  183.1110  178.7050  142.6560 C   0  0  0  0  0  0  0  0  0  0  0  0
  185.3950  178.3830  143.2410 C   0  0  0  0  0  3  0  0  0  0  0  0
  184.3980  178.4190  142.3170 N   0  0  0  0  0  0  0  0  0  0  0  0
  185.1130  178.6400  144.5850 C   0  0  0  0  0  0  0  0  0  0  0  0
  182.0710  177.9040  140.4530 C   0  0  0  0  0  0  0  0  0  0  0  0
  180.9500  178.0640  139.4910 C   0  0  0  0  0  1  0  0  0  0  0  0
  182.1110  178.7240  141.6270 N   0  0  0  0  0  2  0  0  0  0  0  0
  182.9670  177.0510  140.2190 O   0  0  0  0  0  0  0  0  0  0  0  0
  3  2  2  0  0  0  0
  3  1  1  0  0  0  0
  4  3  1  0  0  0  0
  5  6  1  0  0  0  0
  6  8  1  0  0  0  0
  7 10  1  1  0  0  0
  7  5  1  0  0  0  0
  7  9  1  0  0  0  0
  8  4  1  1  0  0  0
  9  8  1  0  0  0  0
 11 10  1  0  0  0  0
 12 15  1  0  0  0  0
 13 15  2  0  0  0  0
 14 11  1  0  0  0  0
 15 14  1  0  0  0  0
 16  4  1  0  0  0  0
 17 16  1  0  0  0  0
 19 18  2  0  0  0  0
 20 19  1  0  0  0  0
 21 23  2  0  0  0  0
 22 20  2  0  0  0  0
 22 21  1  0  0  0  0
 23 18  1  0  0  0  0
 23 17  1  0  0  0  0
 24 26  1  0  0  0  0
 25 24  1  0  0  0  0
 26 20  1  0  0  0  0
 27 24  2  0  0  0  0
M  END
>  <MODEL>
4

>  <REMARK>
 VINA RESULT:      -7.6      1.306      1.330
  Name = 
  8 active torsions:
  status: ('A' for Active; 'I' for Inactive)
    1  A    between atoms: C_6  and  N_18
    2  A    between atoms: C_7  and  N_14
    3  A    between atoms: C_7  and  C_27
    4  A    between atoms: C_8  and  C_12
    5  A    between atoms: C_8  and  C_26
    6  A    between atoms: C_12  and  N_24
    7  A    between atoms: C_16  and  C_27
    8  A    between atoms: C_21  and  N_24
                            x       y       z     vdW  Elec       q    Type
                         _______ _______ _______ _____ _____    ______ ____

>  <TORSDO>
F 8

$$$$
=
 OpenBabel10222420123D

 27 28  0  0  1  0  0  0  0  0999 V2000
  190.1530  177.2730  147.9550 O   0  0  0  0  0  1  0  0  0  0  0  0
  191.7840  176.1520  146.8120 O   0  0  0  0  0  0  0  0  0  0  0  0
  190.7610  176.8870  146.7660 C   0  0  0  0  0  0  0  0  0  0  0  0
  190.2230  177.3200  145.5030 N   0  0  0  0  0  0  0  0  0  0  0  0
  191.5890  177.7560  142.1300 C   0  0  0  0  0  2  0  0  0  0  0  0
  191.6720  177.9520  143.6020 C   0  0  0  0  0  2  0  0  0  0  0  0
  190.5410  177.0480  141.7320 C   0  0  2  0  0  3  0  0  0  0  0  0
  190.7730  176.8880  144.2180 C   0  0  2  0  0  3  0  0  0  0  0  0
  189.4510  176.4830  143.0270 S   0  0  0  0  0  0  0  0  0  0  0  0
  190.2870  176.7220  140.2940 C   0  0  0  0  0  2  0  0  0  0  0  0
  189.8330  177.9510  139.5150 C   0  0  0  0  0  2  0  0  0  0  0  0
  187.2020  177.5330  138.4670 O   0  0  0  0  0  0  0  0  0  0  0  0
  186.1830  178.7690  140.1050 O   0  0  0  0  0  1  0  0  0  0  0  0
  188.6030  178.4940  140.0730 N   0  0  0  0  0  2  0  0  0  0  0  0
  187.3170  178.2360  139.5060 C   0  0  0  0  0  0  0  0  0  0  0  0
  189.0420  178.1690  145.4670 C   0  0  0  0  0  2  0  0  0  0  0  0
  187.9230  177.5450  146.2860 C   0  0  0  0  0  2  0  0  0  0  0  0
  186.3220  177.7980  144.3780 C   0  0  0  0  0  3  0  0  0  0  0  0
  185.0720  178.1670  143.8800 C   0  0  0  0  0  3  0  0  0  0  0  0
  184.1050  178.6870  144.7520 C   0  0  0  0  0  0  0  0  0  0  0  0
  185.6130  178.4680  146.5800 C   0  0  0  0  0  3  0  0  0  0  0  0
  184.4020  178.8210  146.0740 N   0  0  0  0  0  0  0  0  0  0  0  0
  186.6000  177.9520  145.7370 C   0  0  0  0  0  0  0  0  0  0  0  0
  182.3130  179.0090  142.9460 C   0  0  0  0  0  0  0  0  0  0  0  0
  180.9310  179.4670  142.6520 C   0  0  0  0  0  1  0  0  0  0  0  0
  182.8050  179.0820  144.2900 N   0  0  0  0  0  2  0  0  0  0  0  0
  183.0300  178.5680  142.0090 O   0  0  0  0  0  0  0  0  0  0  0  0
  3  2  2  0  0  0  0
  3  1  1  0  0  0  0
  4  3  1  0  0  0  0
  5  6  1  0  0  0  0
  6  8  1  0  0  0  0
  7 10  1  1  0  0  0
  7  5  1  0  0  0  0
  7  9  1  0  0  0  0
  8  4  1  1  0  0  0
  9  8  1  0  0  0  0
 11 14  1  0  0  0  0
 11 10  1  0  0  0  0
 12 15  2  0  0  0  0
 15 14  1  0  0  0  0
 15 13  1  0  0  0  0
 16  4  1  0  0  0  0
 16 17  1  0  0  0  0
 18 23  1  0  0  0  0
 19 18  2  0  0  0  0
 19 20  1  0  0  0  0
 20 22  2  0  0  0  0
 22 21  1  0  0  0  0
 23 17  1  0  0  0  0
 23 21  2  0  0  0  0
 24 26  1  0  0  0  0
 25 24  1  0  0  0  0
 26 20  1  0  0  0  0
 27 24  2  0  0  0  0
M  END
>  <MODEL>
5

>  <REMARK>
 VINA RESULT:      -7.5      2.002      2.531
  Name = 
  8 active torsions:
  status: ('A' for Active; 'I' for Inactive)
    1  A    between atoms: C_6  and  N_18
    2  A    between atoms: C_7  and  N_14
    3  A    between atoms: C_7  and  C_27
    4  A    between atoms: C_8  and  C_12
    5  A    between atoms: C_8  and  C_26
    6  A    between atoms: C_12  and  N_24
    7  A    between atoms: C_16  and  C_27
    8  A    between atoms: C_21  and  N_24
                            x       y       z     vdW  Elec       q    Type
                         _______ _______ _______ _____ _____    ______ ____

>  <TORSDO>
F 8

$$$$
=
 OpenBabel10222420123D

 27 28  0  0  1  0  0  0  0  0999 V2000
  190.0870  177.5150  147.7690 O   0  0  0  0  0  0  0  0  0  0  0  0
  187.9410  176.8910  148.2510 O   0  0  0  0  0  1  0  0  0  0  0  0
  188.7650  177.3100  147.3930 C   0  0  0  0  0  0  0  0  0  0  0  0
  188.3450  177.5780  146.0420 N   0  0  0  0  0  0  0  0  0  0  0  0
  185.4620  178.1440  143.8510 C   0  0  0  0  0  2  0  0  0  0  0  0
  186.8230  177.5960  144.0940 C   0  0  0  0  0  2  0  0  0  0  0  0
  184.9040  178.7090  144.9140 C   0  0  2  0  0  3  0  0  0  0  0  0
  186.9550  177.4530  145.6050 C   0  0  2  0  0  3  0  0  0  0  0  0
  185.8890  178.7020  146.4020 S   0  0  0  0  0  0  0  0  0  0  0  0
  183.5310  179.3030  144.8840 C   0  0  0  0  0  2  0  0  0  0  0  0
  182.8230  179.0060  143.5680 C   0  0  0  0  0  2  0  0  0  0  0  0
  180.3760  180.3300  142.8940 O   0  0  0  0  0  0  0  0  0  0  0  0
  179.0560  178.6260  143.6690 O   0  0  0  0  0  1  0  0  0  0  0  0
  181.4840  178.4840  143.8050 N   0  0  0  0  0  2  0  0  0  0  0  0
  180.3010  179.1940  143.4320 C   0  0  0  0  0  0  0  0  0  0  0  0
  189.3080  178.0600  145.0630 C   0  0  0  0  0  2  0  0  0  0  0  0
  190.1880  176.9160  144.5850 C   0  0  0  0  0  2  0  0  0  0  0  0
  191.6160  177.4970  142.6120 C   0  0  0  0  0  3  0  0  0  0  0  0
  191.8120  177.5720  141.2330 C   0  0  0  0  0  3  0  0  0  0  0  0
  190.7900  177.1610  140.3650 C   0  0  0  0  0  0  0  0  0  0  0  0
  189.4090  176.6120  142.2240 C   0  0  0  0  0  3  0  0  0  0  0  0
  189.6220  176.6930  140.8830 N   0  0  0  0  0  0  0  0  0  0  0  0
  190.4050  177.0190  143.1150 C   0  0  0  0  0  0  0  0  0  0  0  0
  190.9760  176.1080  138.0340 C   0  0  0  0  0  0  0  0  0  0  0  0
  191.1420  176.3610  136.5790 C   0  0  0  0  0  1  0  0  0  0  0  0
  190.9430  177.2180  138.9390 N   0  0  0  0  0  2  0  0  0  0  0  0
  190.8690  174.9230  138.4460 O   0  0  0  0  0  0  0  0  0  0  0  0
  3  1  2  0  0  0  0
  3  2  1  0  0  0  0
  4  3  1  0  0  0  0
  5  6  1  0  0  0  0
  5  7  1  0  0  0  0
  6  8  1  0  0  0  0
  7 10  1  1  0  0  0
  7  9  1  0  0  0  0
  8  4  1  6  0  0  0
  8  9  1  0  0  0  0
 11 14  1  0  0  0  0
 11 10  1  0  0  0  0
 12 15  2  0  0  0  0
 15 13  1  0  0  0  0
 15 14  1  0  0  0  0
 16  4  1  0  0  0  0
 17 16  1  0  0  0  0
 18 23  1  0  0  0  0
 19 18  2  0  0  0  0
 20 22  2  0  0  0  0
 20 19  1  0  0  0  0
 21 23  2  0  0  0  0
 22 21  1  0  0  0  0
 23 17  1  0  0  0  0
 24 27  2  0  0  0  0
 24 26  1  0  0  0  0
 25 24  1  0  0  0  0
 26 20  1  0  0  0  0
M  END
>  <MODEL>
6

>  <REMARK>
 VINA RESULT:      -7.3      2.742      6.787
  Name = 
  8 active torsions:
  status: ('A' for Active; 'I' for Inactive)
    1  A    between atoms: C_6  and  N_18
    2  A    between atoms: C_7  and  N_14
    3  A    between atoms: C_7  and  C_27
    4  A    between atoms: C_8  and  C_12
    5  A    between atoms: C_8  and  C_26
    6  A    between atoms: C_12  and  N_24
    7  A    between atoms: C_16  and  C_27
    8  A    between atoms: C_21  and  N_24
                            x       y       z     vdW  Elec       q    Type
                         _______ _______ _______ _____ _____    ______ ____

>  <TORSDO>
F 8

$$$$
=
 OpenBabel10222420123D

 27 28  0  0  1  0  0  0  0  0999 V2000
  190.5970  176.3290  147.3330 O   0  0  0  0  0  0  0  0  0  0  0  0
  188.9970  177.5400  148.4270 O   0  0  0  0  0  1  0  0  0  0  0  0
  189.4480  177.1110  147.3310 C   0  0  0  0  0  0  0  0  0  0  0  0
  188.7890  177.4270  146.0910 N   0  0  0  0  0  0  0  0  0  0  0  0
  185.4340  178.6150  146.9670 C   0  0  0  0  0  2  0  0  0  0  0  0
  186.8480  178.3270  147.3290 C   0  0  0  0  0  2  0  0  0  0  0  0
  185.1410  178.3920  145.6920 C   0  0  2  0  0  3  0  0  0  0  0  0
  187.6210  178.3050  146.0170 C   0  0  2  0  0  3  0  0  0  0  0  0
  186.4860  177.7960  144.6810 S   0  0  0  0  0  0  0  0  0  0  0  0
  183.7800  178.6380  145.1220 C   0  0  0  0  0  2  0  0  0  0  0  0
  183.8360  179.5870  143.9300 C   0  0  0  0  0  2  0  0  0  0  0  0
  185.5240  179.5490  141.6190 O   0  0  0  0  0  1  0  0  0  0  0  0
  184.1320  178.1710  140.4300 O   0  0  0  0  0  0  0  0  0  0  0  0
  183.5570  178.8770  142.6900 N   0  0  0  0  0  2  0  0  0  0  0  0
  184.4510  178.8900  141.5750 C   0  0  0  0  0  0  0  0  0  0  0  0
  189.3220  176.9240  144.8340 C   0  0  0  0  0  2  0  0  0  0  0  0
  190.2090  177.9740  144.1830 C   0  0  0  0  0  2  0  0  0  0  0  0
  189.0370  177.9660  141.9710 C   0  0  0  0  0  3  0  0  0  0  0  0
  189.0590  177.8120  140.5840 C   0  0  0  0  0  3  0  0  0  0  0  0
  190.2620  177.4900  139.9410 C   0  0  0  0  0  0  0  0  0  0  0  0
  191.3960  177.4800  142.0340 C   0  0  0  0  0  3  0  0  0  0  0  0
  191.3940  177.3350  140.6820 N   0  0  0  0  0  0  0  0  0  0  0  0
  190.2120  177.7950  142.7050 C   0  0  0  0  0  0  0  0  0  0  0  0
  190.6600  176.1170  137.8130 C   0  0  0  0  0  0  0  0  0  0  0  0
  190.6890  176.1290  136.3270 C   0  0  0  0  0  1  0  0  0  0  0  0
  190.3370  177.3200  138.5180 N   0  0  0  0  0  2  0  0  0  0  0  0
  190.9220  175.0480  138.4260 O   0  0  0  0  0  0  0  0  0  0  0  0
  3  1  2  0  0  0  0
  3  2  1  0  0  0  0
  4  3  1  0  0  0  0
  5  6  1  0  0  0  0
  7 10  1  6  0  0  0
  7  5  1  0  0  0  0
  8  4  1  1  0  0  0
  8  6  1  0  0  0  0
  9  7  1  0  0  0  0
  9  8  1  0  0  0  0
 11 10  1  0  0  0  0
 13 15  2  0  0  0  0
 14 11  1  0  0  0  0
 15 12  1  0  0  0  0
 15 14  1  0  0  0  0
 16  4  1  0  0  0  0
 17 16  1  0  0  0  0
 18 23  1  0  0  0  0
 19 18  2  0  0  0  0
 20 19  1  0  0  0  0
 20 22  2  0  0  0  0
 21 23  2  0  0  0  0
 22 21  1  0  0  0  0
 23 17  1  0  0  0  0
 24 27  2  0  0  0  0
 24 26  1  0  0  0  0
 25 24  1  0  0  0  0
 26 20  1  0  0  0  0
M  END
>  <MODEL>
7

>  <REMARK>
 VINA RESULT:      -7.3      1.989      5.774
  Name = 
  8 active torsions:
  status: ('A' for Active; 'I' for Inactive)
    1  A    between atoms: C_6  and  N_18
    2  A    between atoms: C_7  and  N_14
    3  A    between atoms: C_7  and  C_27
    4  A    between atoms: C_8  and  C_12
    5  A    between atoms: C_8  and  C_26
    6  A    between atoms: C_12  and  N_24
    7  A    between atoms: C_16  and  C_27
    8  A    between atoms: C_21  and  N_24
                            x       y       z     vdW  Elec       q    Type
                         _______ _______ _______ _____ _____    ______ ____

>  <TORSDO>
F 8

$$$$
=
 OpenBabel10222420123D

 27 28  0  0  1  0  0  0  0  0999 V2000
  187.4090  178.3500  139.4460 O   0  0  0  0  0  1  0  0  0  0  0  0
  189.4470  177.3180  139.3850 O   0  0  0  0  0  0  0  0  0  0  0  0
  188.5480  177.8650  140.0780 C   0  0  0  0  0  0  0  0  0  0  0  0
  188.6950  177.9910  141.5050 N   0  0  0  0  0  0  0  0  0  0  0  0
  190.6810  175.9170  143.7820 C   0  0  0  0  0  2  0  0  0  0  0  0
  189.8660  176.0810  142.5480 C   0  0  0  0  0  2  0  0  0  0  0  0
  190.8750  177.0410  144.4600 C   0  0  2  0  0  3  0  0  0  0  0  0
  189.9000  177.5670  142.2170 C   0  0  2  0  0  3  0  0  0  0  0  0
  190.1240  178.5030  143.7670 S   0  0  0  0  0  0  0  0  0  0  0  0
  191.6840  177.0940  145.7180 C   0  0  0  0  0  2  0  0  0  0  0  0
  190.9520  176.4330  146.8810 C   0  0  0  0  0  2  0  0  0  0  0  0
  188.1400  176.9520  146.9990 O   0  0  0  0  0  0  0  0  0  0  0  0
  188.3480  178.5880  148.5890 O   0  0  0  0  0  1  0  0  0  0  0  0
  190.3100  177.4320  147.7240 N   0  0  0  0  0  2  0  0  0  0  0  0
  188.8950  177.6320  147.7430 C   0  0  0  0  0  0  0  0  0  0  0  0
  187.6470  178.6240  142.2910 C   0  0  0  0  0  2  0  0  0  0  0  0
  186.7450  177.5680  142.9110 C   0  0  0  0  0  2  0  0  0  0  0  0
  184.8750  178.5350  144.2660 C   0  0  0  0  0  3  0  0  0  0  0  0
  183.5770  179.0380  144.3620 C   0  0  0  0  0  3  0  0  0  0  0  0
  182.7700  179.0950  143.2170 C   0  0  0  0  0  0  0  0  0  0  0  0
  184.5290  178.1660  141.9100 C   0  0  0  0  0  3  0  0  0  0  0  0
  183.2670  178.6600  142.0270 N   0  0  0  0  0  0  0  0  0  0  0  0
  185.3560  178.0900  143.0330 C   0  0  0  0  0  0  0  0  0  0  0  0
  180.2440  178.8710  143.6010 C   0  0  0  0  0  0  0  0  0  0  0  0
  178.9320  179.5680  143.5970 C   0  0  0  0  0  1  0  0  0  0  0  0
  181.4290  179.6030  143.2640 N   0  0  0  0  0  2  0  0  0  0  0  0
  180.2920  177.6490  143.9000 O   0  0  0  0  0  0  0  0  0  0  0  0
  1  3  1  0  0  0  0
  2  3  2  0  0  0  0
  3  4  1  0  0  0  0
  4 16  1  0  0  0  0
  5  7  1  0  0  0  0
  6  5  1  0  0  0  0
  7 10  1  6  0  0  0
  8  4  1  1  0  0  0
  8  6  1  0  0  0  0
  8  9  1  0  0  0  0
  9  7  1  0  0  0  0
 10 11  1  0  0  0  0
 11 14  1  0  0  0  0
 12 15  2  0  0  0  0
 14 15  1  0  0  0  0
 15 13  1  0  0  0  0
 16 17  1  0  0  0  0
 17 23  1  0  0  0  0
 18 19  2  0  0  0  0
 20 26  1  0  0  0  0
 20 19  1  0  0  0  0
 21 22  1  0  0  0  0
 21 23  2  0  0  0  0
 22 20  2  0  0  0  0
 23 18  1  0  0  0  0
 24 27  2  0  0  0  0
 25 24  1  0  0  0  0
 26 24  1  0  0  0  0
M  END
>  <MODEL>
8

>  <REMARK>
 VINA RESULT:      -7.2      2.295      5.394
  Name = 
  8 active torsions:
  status: ('A' for Active; 'I' for Inactive)
    1  A    between atoms: C_6  and  N_18
    2  A    between atoms: C_7  and  N_14
    3  A    between atoms: C_7  and  C_27
    4  A    between atoms: C_8  and  C_12
    5  A    between atoms: C_8  and  C_26
    6  A    between atoms: C_12  and  N_24
    7  A    between atoms: C_16  and  C_27
    8  A    between atoms: C_21  and  N_24
                            x       y       z     vdW  Elec       q    Type
                         _______ _______ _______ _____ _____    ______ ____

>  <TORSDO>
F 8

$$$$
=
 OpenBabel10222420123D

 27 28  0  0  1  0  0  0  0  0999 V2000
  187.3520  178.3020  148.1960 O   0  0  0  0  0  1  0  0  0  0  0  0
  185.6890  179.7990  147.7330 O   0  0  0  0  0  0  0  0  0  0  0  0
  186.4350  178.8710  147.3210 C   0  0  0  0  0  0  0  0  0  0  0  0
  186.3430  178.4040  145.9620 N   0  0  0  0  0  0  0  0  0  0  0  0
  183.2390  178.8050  144.0550 C   0  0  0  0  0  2  0  0  0  0  0  0
  183.9860  178.8150  145.3420 C   0  0  0  0  0  2  0  0  0  0  0  0
  183.9940  178.5750  142.9890 C   0  0  2  0  0  3  0  0  0  0  0  0
  185.4520  179.0110  144.9750 C   0  0  2  0  0  3  0  0  0  0  0  0
  185.7310  178.3230  143.3080 S   0  0  0  0  0  0  0  0  0  0  0  0
  183.4380  178.5440  141.6000 C   0  0  0  0  0  2  0  0  0  0  0  0
  184.5020  178.8860  140.5640 C   0  0  0  0  0  2  0  0  0  0  0  0
  186.2840  178.7620  138.3270 O   0  0  0  0  0  1  0  0  0  0  0  0
  184.8500  177.5100  137.0530 O   0  0  0  0  0  0  0  0  0  0  0  0
  184.2280  178.2190  139.2990 N   0  0  0  0  0  2  0  0  0  0  0  0
  185.1690  178.1840  138.2240 C   0  0  0  0  0  0  0  0  0  0  0  0
  187.2110  177.3300  145.5010 C   0  0  0  0  0  2  0  0  0  0  0  0
  188.6590  177.7920  145.4940 C   0  0  0  0  0  2  0  0  0  0  0  0
  188.8910  176.3480  143.4630 C   0  0  0  0  0  3  0  0  0  0  0  0
  189.4790  176.0710  142.2280 C   0  0  0  0  0  3  0  0  0  0  0  0
  190.4640  176.9310  141.7220 C   0  0  0  0  0  0  0  0  0  0  0  0
  190.2700  178.3140  143.6490 C   0  0  0  0  0  3  0  0  0  0  0  0
  190.8290  178.0270  142.4440 N   0  0  0  0  0  0  0  0  0  0  0  0
  189.2900  177.4740  144.1840 C   0  0  0  0  0  0  0  0  0  0  0  0
  190.6160  177.0820  139.1660 C   0  0  0  0  0  0  0  0  0  0  0  0
  191.4130  176.7440  137.9590 C   0  0  0  0  0  1  0  0  0  0  0  0
  191.0980  176.6910  140.4570 N   0  0  0  0  0  2  0  0  0  0  0  0
  189.5290  177.7030  139.0340 O   0  0  0  0  0  0  0  0  0  0  0  0
  3  2  2  0  0  0  0
  3  1  1  0  0  0  0
  4  3  1  0  0  0  0
  5  6  1  0  0  0  0
  7 10  1  6  0  0  0
  7  9  1  0  0  0  0
  7  5  1  0  0  0  0
  8  6  1  0  0  0  0
  8  4  1  1  0  0  0
  9  8  1  0  0  0  0
 11 10  1  0  0  0  0
 13 15  2  0  0  0  0
 14 11  1  0  0  0  0
 15 12  1  0  0  0  0
 15 14  1  0  0  0  0
 16  4  1  0  0  0  0
 17 16  1  0  0  0  0
 18 23  1  0  0  0  0
 19 18  2  0  0  0  0
 20 19  1  0  0  0  0
 20 22  2  0  0  0  0
 21 23  2  0  0  0  0
 22 21  1  0  0  0  0
 23 17  1  0  0  0  0
 24 26  1  0  0  0  0
 25 24  1  0  0  0  0
 26 20  1  0  0  0  0
 27 24  2  0  0  0  0
M  END
>  <MODEL>
9

>  <REMARK>
 VINA RESULT:      -7.1      2.093      5.595
  Name = 
  8 active torsions:
  status: ('A' for Active; 'I' for Inactive)
    1  A    between atoms: C_6  and  N_18
    2  A    between atoms: C_7  and  N_14
    3  A    between atoms: C_7  and  C_27
    4  A    between atoms: C_8  and  C_12
    5  A    between atoms: C_8  and  C_26
    6  A    between atoms: C_12  and  N_24
    7  A    between atoms: C_16  and  C_27
    8  A    between atoms: C_21  and  N_24
                            x       y       z     vdW  Elec       q    Type
                         _______ _______ _______ _____ _____    ______ ____

>  <TORSDO>
F 8

$$$$
