=
 OpenBabel10222417183D

 46 48  0  0  1  0  0  0  0  0999 V2000
  191.8970  179.0360  144.0200 F   0  0  0  0  0  0  0  0  0  0  0  0
  191.0110  178.0950  143.5960 C   0  0  0  0  0  0  0  0  0  0  0  0
  190.7150  178.0330  142.2940 C   0  0  0  0  0  3  0  0  0  0  0  0
  191.5500  176.3370  145.2530 C   0  0  0  0  0  2  0  0  0  0  0  0
  189.6840  177.8420  145.6850 C   0  0  2  0  0  3  0  0  0  0  0  0
  190.4400  177.1180  144.5810 C   0  0  1  0  0  3  0  0  0  0  0  0
  191.0630  176.0910  146.6610 C   0  0  1  0  0  3  0  0  0  0  0  0
  192.2370  176.0210  147.6140 C   0  0  0  0  0  1  0  0  0  0  0  0
  190.1830  177.2770  147.0040 C   0  0  0  0  0  2  0  0  0  0  0  0
  188.1920  177.5860  145.5570 C   0  0  0  0  0  2  0  0  0  0  0  0
  187.4940  178.2390  146.5770 O   0  0  0  0  0  0  0  0  0  0  0  0
  185.3560  178.8230  147.1010 O   0  0  0  0  0  1  0  0  0  0  0  0
  186.1460  177.9990  146.3010 C   0  0  1  0  0  3  0  0  0  0  0  0
  185.8690  178.2740  144.8980 N   0  0  0  0  0  2  0  0  0  0  0  0
  184.6230  179.0250  144.8290 C   0  0  0  0  0  2  0  0  0  0  0  0
  184.4800  178.0720  142.6520 O   0  0  0  0  0  0  0  0  0  0  0  0
  182.5330  179.1080  143.4150 N   0  0  0  0  0  2  0  0  0  0  0  0
  183.8910  178.6940  143.5740 C   0  0  0  0  0  0  0  0  0  0  0  0
  181.8300  178.8180  142.2910 O   0  0  0  0  0  0  0  0  0  0  0  0
  179.8940  178.5230  144.0420 O   0  0  0  0  0  1  0  0  0  0  0  0
  180.2070  179.1180  142.6870 P   0  0  1  0  0  0  0  0  0  0  0  0
  179.9270  180.7860  142.7210 O   0  0  0  0  0  0  0  0  0  0  0  0
  179.1990  178.3940  141.4950 O   0  0  0  0  0  0  0  0  0  0  0  0
  179.4720  177.1510  140.9160 C   0  0  0  0  0  0  0  0  0  0  0  0
  179.1480  176.1030  141.5340 O   0  0  0  0  0  0  0  0  0  0  0  0
  180.1360  177.0240  139.5860 C   0  0  0  0  0  1  0  0  0  0  0  0
  189.7630  177.0270  141.7210 C   0  0  0  0  0  2  0  0  0  0  0  0
  189.9330  176.9260  139.2220 C   0  0  0  0  0  0  0  0  0  0  0  0
  190.8330  175.8170  139.3260 N   0  0  0  0  0  2  0  0  0  0  0  0
  189.6910  177.4390  138.0950 O   0  0  0  0  0  0  0  0  0  0  0  0
  189.3160  177.4600  140.4050 N   0  0  0  0  0  0  0  0  0  0  0  0
  193.4120  176.0680  136.5970 C   0  0  2  0  0  3  0  0  0  0  0  0
  192.2850  176.4430  137.4760 C   0  0  1  0  0  3  0  0  0  0  0  0
  192.0570  176.2900  136.0200 N   0  0  2  0  0  0  0  0  0  0  0  0
  191.5740  175.2980  138.1880 C   0  0  2  0  0  3  0  0  0  0  0  0
  190.6240  174.7330  137.1700 C   0  0  0  0  0  2  0  0  0  0  0  0
  191.2720  175.0630  135.8510 C   0  0  0  0  0  2  0  0  0  0  0  0
  194.6350  174.4080  137.8220 O   0  0  0  0  0  1  0  0  0  0  0  0
  194.7330  174.2830  135.4550 C   0  0  0  0  0  1  0  0  0  0  0  0
  193.8790  174.6030  136.6680 C   0  0  2  0  0  3  0  0  0  0  0  0
  188.3610  178.5600  140.3180 C   0  0  0  0  0  2  0  0  0  0  0  0
  186.9520  178.0260  140.0920 C   0  0  0  0  0  2  0  0  0  0  0  0
  186.2010  178.9050  139.2610 O   0  0  0  0  0  0  0  0  0  0  0  0
  184.5980  177.5710  138.1770 C   0  0  0  0  0  2  0  0  0  0  0  0
  183.7630  179.5690  139.2720 C   0  0  0  0  0  1  0  0  0  0  0  0
  184.8760  178.6510  138.8890 C   0  0  0  0  0  0  0  0  0  0  0  0
  2  1  1  0  0  0  0
  3  2  2  0  0  0  0
  4  7  1  0  0  0  0
  5 10  1  6  0  0  0
  5  9  1  0  0  0  0
  6  2  1  6  0  0  0
  6  4  1  0  0  0  0
  6  5  1  0  0  0  0
  7  9  1  0  0  0  0
  7  8  1  1  0  0  0
 10 11  1  0  0  0  0
 13 11  1  0  0  0  0
 13 12  1  1  0  0  0
 14 13  1  0  0  0  0
 15 14  1  0  0  0  0
 16 18  2  0  0  0  0
 17 18  1  0  0  0  0
 18 15  1  0  0  0  0
 19 21  1  0  0  0  0
 19 17  1  0  0  0  0
 21 22  2  1  0  0  0
 21 20  1  0  0  0  0
 23 21  1  0  0  0  0
 24 23  1  0  0  0  0
 24 25  2  0  0  0  0
 26 24  1  0  0  0  0
 27  3  1  0  0  0  0
 28 29  1  0  0  0  0
 28 31  1  0  0  0  0
 30 28  2  0  0  0  0
 31 27  1  0  0  0  0
 32 40  1  1  0  0  0
 32 33  1  0  0  0  0
 33 35  1  0  0  0  0
 34 32  1  0  0  0  0
 34 33  1  0  0  0  0
 35 29  1  0  0  0  0
 36 35  1  0  0  0  0
 37 34  1  0  0  0  0
 37 36  1  0  0  0  0
 39 40  1  0  0  0  0
 40 38  1  0  0  0  0
 41 31  1  0  0  0  0
 42 41  1  0  0  0  0
 43 42  1  0  0  0  0
 44 46  2  0  0  0  0
 46 43  1  0  0  0  0
 46 45  1  0  0  0  0
M  END
>  <MODEL>
1

>  <REMARK>
 VINA RESULT:      -7.6      0.000      0.000
  Name = 
  19 active torsions:
  status: ('A' for Active; 'I' for Inactive)
    1  A    between atoms: C_2  and  C_7
    2  A    between atoms: C_2  and  N_24
    3  A    between atoms: C_6  and  C_23
    4  A    between atoms: C_6  and  N_43
    5  A    between atoms: C_7  and  O_8
    6  A    between atoms: O_8  and  C_45
    7  A    between atoms: C_10  and  O_30
    8  A    between atoms: C_11  and  C_36
    9  A    between atoms: N_13  and  C_37
   10  A    between atoms: C_14  and  C_34
   11  A    between atoms: O_15  and  C_34
   12  A    between atoms: O_15  and  C_46
   13  A    between atoms: C_18  and  C_27
   14  A    between atoms: C_21  and  C_26
   15  A    between atoms: N_22  and  O_31
   16  A    between atoms: N_24  and  C_26
   17  A    between atoms: O_30  and  P_38
   18  A    between atoms: O_31  and  P_38
   19  A    between atoms: N_43  and  C_46
                            x       y       z     vdW  Elec       q    Type
                         _______ _______ _______ _____ _____    ______ ____

>  <TORSDO>
F 19

$$$$
=
 OpenBabel10222417183D

 46 48  0  0  1  0  0  0  0  0999 V2000
  191.5650  179.1550  143.4970 F   0  0  0  0  0  0  0  0  0  0  0  0
  190.9380  178.0870  142.9340 C   0  0  0  0  0  0  0  0  0  0  0  0
  190.9990  177.9330  141.6080 C   0  0  0  0  0  3  0  0  0  0  0  0
  191.0690  176.8290  145.0620 C   0  0  0  0  0  2  0  0  0  0  0  0
  188.8980  177.6040  144.2750 C   0  0  2  0  0  3  0  0  0  0  0  0
  190.2510  177.0830  143.8130 C   0  0  1  0  0  3  0  0  0  0  0  0
  190.0570  176.5790  146.1530 C   0  0  1  0  0  3  0  0  0  0  0  0
  190.6050  177.0380  147.4880 C   0  0  0  0  0  1  0  0  0  0  0  0
  188.8390  177.4020  145.7790 C   0  0  0  0  0  2  0  0  0  0  0  0
  187.7780  176.8190  143.6140 C   0  0  0  0  0  2  0  0  0  0  0  0
  187.4380  177.3930  142.3860 O   0  0  0  0  0  0  0  0  0  0  0  0
  186.1220  179.0560  141.5520 O   0  0  0  0  0  1  0  0  0  0  0  0
  186.6760  178.5170  142.7130 C   0  0  1  0  0  3  0  0  0  0  0  0
  185.6080  178.1450  143.6310 N   0  0  0  0  0  2  0  0  0  0  0  0
  185.0410  179.3700  144.1770 C   0  0  0  0  0  2  0  0  0  0  0  0
  183.5360  178.9670  145.9770 O   0  0  0  0  0  0  0  0  0  0  0  0
  182.5670  178.9870  143.8540 N   0  0  0  0  0  2  0  0  0  0  0  0
  183.6850  179.1060  144.7350 C   0  0  0  0  0  0  0  0  0  0  0  0
  181.3150  178.7560  144.3240 O   0  0  0  0  0  0  0  0  0  0  0  0
  178.9410  178.3570  143.2720 O   0  0  0  0  0  1  0  0  0  0  0  0
  180.2870  178.9880  142.9940 P   0  0  1  0  0  0  0  0  0  0  0  0
  180.0890  180.6440  142.7070 O   0  0  0  0  0  0  0  0  0  0  0  0
  180.9920  178.2490  141.6090 O   0  0  0  0  0  0  0  0  0  0  0  0
  181.3260  178.9570  140.4500 C   0  0  0  0  0  0  0  0  0  0  0  0
  182.5390  179.1830  140.2000 O   0  0  0  0  0  0  0  0  0  0  0  0
  180.2910  179.4560  139.4980 C   0  0  0  0  0  1  0  0  0  0  0  0
  190.3560  176.7850  140.8900 C   0  0  0  0  0  2  0  0  0  0  0  0
  190.8430  176.6410  138.4360 C   0  0  0  0  0  0  0  0  0  0  0  0
  191.7800  175.5860  138.6810 N   0  0  0  0  0  2  0  0  0  0  0  0
  190.7180  177.1150  137.2730 O   0  0  0  0  0  0  0  0  0  0  0  0
  190.0550  177.1650  139.5170 N   0  0  0  0  0  0  0  0  0  0  0  0
  194.3700  176.0110  135.9840 C   0  0  2  0  0  3  0  0  0  0  0  0
  193.1390  176.2380  136.7710 C   0  0  1  0  0  3  0  0  0  0  0  0
  193.0350  175.7970  135.3590 N   0  0  2  0  0  0  0  0  0  0  0  0
  192.6850  175.0860  137.6590 C   0  0  2  0  0  3  0  0  0  0  0  0
  191.9540  174.1460  136.7420 C   0  0  0  0  0  2  0  0  0  0  0  0
  192.5760  174.4040  135.3940 C   0  0  0  0  0  2  0  0  0  0  0  0
  195.9020  174.9320  137.4810 O   0  0  0  0  0  1  0  0  0  0  0  0
  196.1230  174.4290  135.1740 C   0  0  0  0  0  1  0  0  0  0  0  0
  195.1690  174.7360  136.3120 C   0  0  2  0  0  3  0  0  0  0  0  0
  189.0620  178.2070  139.2810 C   0  0  0  0  0  2  0  0  0  0  0  0
  187.7110  177.5900  138.9400 C   0  0  0  0  0  2  0  0  0  0  0  0
  186.9900  178.4110  138.0270 O   0  0  0  0  0  0  0  0  0  0  0  0
  187.5110  178.1230  135.7540 C   0  0  0  0  0  2  0  0  0  0  0  0
  185.3030  177.3920  136.4470 C   0  0  0  0  0  1  0  0  0  0  0  0
  186.6390  177.9890  136.7400 C   0  0  0  0  0  0  0  0  0  0  0  0
  2  1  1  0  0  0  0
  3  2  2  0  0  0  0
  4  7  1  0  0  0  0
  5 10  1  6  0  0  0
  5  9  1  0  0  0  0
  6  2  1  6  0  0  0
  6  5  1  0  0  0  0
  6  4  1  0  0  0  0
  7  8  1  1  0  0  0
  9  7  1  0  0  0  0
 11 13  1  0  0  0  0
 11 10  1  0  0  0  0
 13 12  1  6  0  0  0
 13 14  1  0  0  0  0
 14 15  1  0  0  0  0
 15 18  1  0  0  0  0
 17 19  1  0  0  0  0
 17 18  1  0  0  0  0
 18 16  2  0  0  0  0
 21 22  2  6  0  0  0
 21 20  1  0  0  0  0
 21 19  1  0  0  0  0
 23 21  1  0  0  0  0
 24 23  1  0  0  0  0
 25 24  2  0  0  0  0
 26 24  1  0  0  0  0
 27  3  1  0  0  0  0
 28 29  1  0  0  0  0
 28 31  1  0  0  0  0
 30 28  2  0  0  0  0
 31 27  1  0  0  0  0
 32 40  1  1  0  0  0
 32 33  1  0  0  0  0
 33 35  1  0  0  0  0
 34 37  1  0  0  0  0
 34 32  1  0  0  0  0
 34 33  1  0  0  0  0
 35 29  1  0  0  0  0
 36 35  1  0  0  0  0
 37 36  1  0  0  0  0
 39 40  1  0  0  0  0
 40 38  1  0  0  0  0
 41 31  1  0  0  0  0
 42 41  1  0  0  0  0
 43 42  1  0  0  0  0
 44 46  2  0  0  0  0
 45 46  1  0  0  0  0
 46 43  1  0  0  0  0
M  END
>  <MODEL>
2

>  <REMARK>
 VINA RESULT:      -7.2      1.621      2.141
  Name = 
  19 active torsions:
  status: ('A' for Active; 'I' for Inactive)
    1  A    between atoms: C_2  and  C_7
    2  A    between atoms: C_2  and  N_24
    3  A    between atoms: C_6  and  C_23
    4  A    between atoms: C_6  and  N_43
    5  A    between atoms: C_7  and  O_8
    6  A    between atoms: O_8  and  C_45
    7  A    between atoms: C_10  and  O_30
    8  A    between atoms: C_11  and  C_36
    9  A    between atoms: N_13  and  C_37
   10  A    between atoms: C_14  and  C_34
   11  A    between atoms: O_15  and  C_34
   12  A    between atoms: O_15  and  C_46
   13  A    between atoms: C_18  and  C_27
   14  A    between atoms: C_21  and  C_26
   15  A    between atoms: N_22  and  O_31
   16  A    between atoms: N_24  and  C_26
   17  A    between atoms: O_30  and  P_38
   18  A    between atoms: O_31  and  P_38
   19  A    between atoms: N_43  and  C_46
                            x       y       z     vdW  Elec       q    Type
                         _______ _______ _______ _____ _____    ______ ____

>  <TORSDO>
F 19

$$$$
=
 OpenBabel10222417183D

 46 48  0  0  1  0  0  0  0  0999 V2000
  182.4420  175.9260  140.0120 F   0  0  0  0  0  0  0  0  0  0  0  0
  183.1400  176.2330  138.8860 C   0  0  0  0  0  0  0  0  0  0  0  0
  183.5000  175.2420  138.0640 C   0  0  0  0  0  3  0  0  0  0  0  0
  182.3170  178.2600  137.7290 C   0  0  0  0  0  2  0  0  0  0  0  0
  183.5170  178.5020  139.8350 C   0  0  2  0  0  3  0  0  0  0  0  0
  183.4330  177.6690  138.5640 C   0  0  1  0  0  3  0  0  0  0  0  0
  182.2220  179.7030  138.1620 C   0  0  1  0  0  3  0  0  0  0  0  0
  180.7980  180.1970  138.0220 C   0  0  0  0  0  1  0  0  0  0  0  0
  182.6400  179.7230  139.6190 C   0  0  0  0  0  2  0  0  0  0  0  0
  184.9490  178.9440  140.0810 C   0  0  0  0  0  2  0  0  0  0  0  0
  185.0940  179.4320  141.3830 O   0  0  0  0  0  0  0  0  0  0  0  0
  186.3730  177.9990  142.6080 O   0  0  0  0  0  1  0  0  0  0  0  0
  185.0740  178.2970  142.1960 C   0  0  1  0  0  3  0  0  0  0  0  0
  184.2390  178.5360  143.3650 N   0  0  0  0  0  2  0  0  0  0  0  0
  184.9260  179.4990  144.2150 C   0  0  0  0  0  2  0  0  0  0  0  0
  184.0970  178.6090  146.2630 O   0  0  0  0  0  0  0  0  0  0  0  0
  186.4180  178.8090  146.1310 N   0  0  0  0  0  2  0  0  0  0  0  0
  185.1050  178.9400  145.5850 C   0  0  0  0  0  0  0  0  0  0  0  0
  186.6230  178.2970  147.3700 O   0  0  0  0  0  0  0  0  0  0  0  0
  189.0290  178.6520  148.3640 O   0  0  0  0  0  1  0  0  0  0  0  0
  188.2470  177.8010  147.3880 P   0  0  1  0  0  0  0  0  0  0  0  0
  188.3430  176.1760  147.8460 O   0  0  0  0  0  0  0  0  0  0  0  0
  188.9040  177.9890  145.8090 O   0  0  0  0  0  0  0  0  0  0  0  0
  190.0220  177.2810  145.3560 C   0  0  0  0  0  0  0  0  0  0  0  0
  191.0020  177.1260  146.1300 O   0  0  0  0  0  0  0  0  0  0  0  0
  190.0920  176.7020  143.9830 C   0  0  0  0  0  1  0  0  0  0  0  0
  184.2570  175.4730  136.7910 C   0  0  0  0  0  2  0  0  0  0  0  0
  186.7100  175.0150  137.0350 C   0  0  0  0  0  0  0  0  0  0  0  0
  186.8930  176.3020  137.6350 N   0  0  0  0  0  2  0  0  0  0  0  0
  187.7100  174.2890  136.7800 O   0  0  0  0  0  0  0  0  0  0  0  0
  185.3860  174.5570  136.7130 N   0  0  0  0  0  0  0  0  0  0  0  0
  189.5920  177.6820  139.8660 C   0  0  2  0  0  3  0  0  0  0  0  0
  188.2490  177.4670  139.2860 C   0  0  1  0  0  3  0  0  0  0  0  0
  188.8790  178.8060  139.1980 N   0  0  2  0  0  0  0  0  0  0  0  0
  188.2070  176.8720  137.8840 C   0  0  2  0  0  3  0  0  0  0  0  0
  188.4490  178.0310  136.9580 C   0  0  0  0  0  2  0  0  0  0  0  0
  189.2500  178.9960  137.7920 C   0  0  0  0  0  2  0  0  0  0  0  0
  190.6460  175.6970  139.0270 O   0  0  0  0  0  1  0  0  0  0  0  0
  192.0740  177.4280  139.7980 C   0  0  0  0  0  1  0  0  0  0  0  0
  190.7790  177.0830  139.0890 C   0  0  2  0  0  3  0  0  0  0  0  0
  185.1720  173.2300  136.1450 C   0  0  0  0  0  2  0  0  0  0  0  0
  184.4990  172.3170  137.1610 C   0  0  0  0  0  2  0  0  0  0  0  0
  183.7710  171.2790  136.5120 O   0  0  0  0  0  0  0  0  0  0  0  0
  181.6190  172.0210  137.0970 C   0  0  0  0  0  2  0  0  0  0  0  0
  181.7840  170.7200  135.0550 C   0  0  0  0  0  1  0  0  0  0  0  0
  182.3980  171.3610  136.2550 C   0  0  0  0  0  0  0  0  0  0  0  0
  2  1  1  0  0  0  0
  3  2  2  0  0  0  0
  4  7  1  0  0  0  0
  4  6  1  0  0  0  0
  5 10  1  6  0  0  0
  6  2  1  1  0  0  0
  6  5  1  0  0  0  0
  7  8  1  1  0  0  0
  7  9  1  0  0  0  0
  9  5  1  0  0  0  0
 10 11  1  0  0  0  0
 11 13  1  0  0  0  0
 13 12  1  1  0  0  0
 13 14  1  0  0  0  0
 14 15  1  0  0  0  0
 15 18  1  0  0  0  0
 17 19  1  0  0  0  0
 18 17  1  0  0  0  0
 18 16  2  0  0  0  0
 19 21  1  0  0  0  0
 21 22  2  1  0  0  0
 21 20  1  0  0  0  0
 23 21  1  0  0  0  0
 24 23  1  0  0  0  0
 24 25  2  0  0  0  0
 26 24  1  0  0  0  0
 27  3  1  0  0  0  0
 28 29  1  0  0  0  0
 29 35  1  0  0  0  0
 30 28  2  0  0  0  0
 31 27  1  0  0  0  0
 31 28  1  0  0  0  0
 32 40  1  6  0  0  0
 33 32  1  0  0  0  0
 34 33  1  0  0  0  0
 34 32  1  0  0  0  0
 35 33  1  0  0  0  0
 36 37  1  0  0  0  0
 36 35  1  0  0  0  0
 37 34  1  0  0  0  0
 38 40  1  0  0  0  0
 40 39  1  0  0  0  0
 41 31  1  0  0  0  0
 41 42  1  0  0  0  0
 43 42  1  0  0  0  0
 45 46  1  0  0  0  0
 46 43  1  0  0  0  0
 46 44  2  0  0  0  0
M  END
>  <MODEL>
3

>  <REMARK>
 VINA RESULT:      -7.0      3.850      7.921
  Name = 
  19 active torsions:
  status: ('A' for Active; 'I' for Inactive)
    1  A    between atoms: C_2  and  C_7
    2  A    between atoms: C_2  and  N_24
    3  A    between atoms: C_6  and  C_23
    4  A    between atoms: C_6  and  N_43
    5  A    between atoms: C_7  and  O_8
    6  A    between atoms: O_8  and  C_45
    7  A    between atoms: C_10  and  O_30
    8  A    between atoms: C_11  and  C_36
    9  A    between atoms: N_13  and  C_37
   10  A    between atoms: C_14  and  C_34
   11  A    between atoms: O_15  and  C_34
   12  A    between atoms: O_15  and  C_46
   13  A    between atoms: C_18  and  C_27
   14  A    between atoms: C_21  and  C_26
   15  A    between atoms: N_22  and  O_31
   16  A    between atoms: N_24  and  C_26
   17  A    between atoms: O_30  and  P_38
   18  A    between atoms: O_31  and  P_38
   19  A    between atoms: N_43  and  C_46
                            x       y       z     vdW  Elec       q    Type
                         _______ _______ _______ _____ _____    ______ ____

>  <TORSDO>
F 19

$$$$
=
 OpenBabel10222417183D

 46 48  0  0  1  0  0  0  0  0999 V2000
  188.8150  178.8800  136.3930 F   0  0  0  0  0  0  0  0  0  0  0  0
  187.9820  178.0850  137.1170 C   0  0  0  0  0  0  0  0  0  0  0  0
  186.6900  178.0340  136.7800 C   0  0  0  0  0  3  0  0  0  0  0  0
  189.6100  176.3130  137.6970 C   0  0  0  0  0  2  0  0  0  0  0  0
  189.2030  178.1150  139.2850 C   0  0  2  0  0  3  0  0  0  0  0  0
  188.5400  177.2440  138.2280 C   0  0  1  0  0  3  0  0  0  0  0  0
  190.6170  176.1920  138.8150 C   0  0  1  0  0  3  0  0  0  0  0  0
  192.0010  175.9590  138.2470 C   0  0  0  0  0  1  0  0  0  0  0  0
  190.5720  177.5150  139.5530 C   0  0  0  0  0  2  0  0  0  0  0  0
  188.3850  178.1020  140.5650 C   0  0  0  0  0  2  0  0  0  0  0  0
  187.0840  178.5510  140.3190 O   0  0  0  0  0  0  0  0  0  0  0  0
  185.4080  179.6430  141.4080 O   0  0  0  0  0  1  0  0  0  0  0  0
  186.5880  178.9200  141.5720 C   0  0  1  0  0  3  0  0  0  0  0  0
  186.3210  177.7310  142.3700 N   0  0  0  0  0  2  0  0  0  0  0  0
  185.9300  178.1680  143.7030 C   0  0  0  0  0  2  0  0  0  0  0  0
  186.8780  178.1820  145.8880 O   0  0  0  0  0  0  0  0  0  0  0  0
  188.0700  176.9660  144.2920 N   0  0  0  0  0  2  0  0  0  0  0  0
  186.9670  177.7770  144.6990 C   0  0  0  0  0  0  0  0  0  0  0  0
  189.0300  176.5810  145.1700 O   0  0  0  0  0  0  0  0  0  0  0  0
  190.7230  176.7380  143.1670 O   0  0  0  0  0  0  0  0  0  0  0  0
  190.4760  177.2400  144.5720 P   0  0  1  0  0  0  0  0  0  0  0  0
  190.3720  178.9290  144.5610 O   0  0  0  0  0  1  0  0  0  0  0  0
  191.7740  176.7540  145.5920 O   0  0  0  0  0  0  0  0  0  0  0  0
  191.6350  176.5710  146.9710 C   0  0  0  0  0  0  0  0  0  0  0  0
  190.7450  177.2130  147.5880 O   0  0  0  0  0  0  0  0  0  0  0  0
  192.5090  175.6360  147.7390 C   0  0  0  0  0  1  0  0  0  0  0  0
  185.6920  177.1810  137.5030 C   0  0  0  0  0  2  0  0  0  0  0  0
  183.2720  177.8290  137.5800 C   0  0  0  0  0  0  0  0  0  0  0  0
  183.4790  178.4590  138.8500 N   0  0  0  0  0  2  0  0  0  0  0  0
  182.1070  177.7420  137.1020 O   0  0  0  0  0  0  0  0  0  0  0  0
  184.3900  177.2880  136.8590 N   0  0  0  0  0  0  0  0  0  0  0  0
  180.5910  177.9490  141.2090 C   0  0  2  0  0  3  0  0  0  0  0  0
  181.4750  177.7580  140.0400 C   0  0  1  0  0  3  0  0  0  0  0  0
  180.0710  178.1860  139.8340 N   0  0  2  0  0  0  0  0  0  0  0  0
  182.3830  178.9290  139.6810 C   0  0  2  0  0  3  0  0  0  0  0  0
  181.5140  179.8740  138.9000 C   0  0  0  0  0  2  0  0  0  0  0  0
  180.1250  179.5880  139.4090 C   0  0  0  0  0  2  0  0  0  0  0  0
  182.0060  179.0480  142.8050 O   0  0  0  0  0  1  0  0  0  0  0  0
  179.6720  179.4250  143.0000 C   0  0  0  0  0  1  0  0  0  0  0  0
  180.8400  179.2100  142.0580 C   0  0  2  0  0  3  0  0  0  0  0  0
  184.2090  176.6830  135.5430 C   0  0  0  0  0  2  0  0  0  0  0  0
  185.0570  175.4240  135.4130 C   0  0  0  0  0  2  0  0  0  0  0  0
  184.2610  174.2540  135.5650 O   0  0  0  0  0  0  0  0  0  0  0  0
  184.6020  173.5270  137.7730 C   0  0  0  0  0  2  0  0  0  0  0  0
  182.2920  173.7140  137.0530 C   0  0  0  0  0  1  0  0  0  0  0  0
  183.7580  173.8320  136.8000 C   0  0  0  0  0  0  0  0  0  0  0  0
  1  2  1  0  0  0  0
  3  2  2  0  0  0  0
  3 27  1  0  0  0  0
  4  6  1  0  0  0  0
  4  7  1  0  0  0  0
  5  9  1  0  0  0  0
  5 10  1  1  0  0  0
  6  2  1  6  0  0  0
  6  5  1  0  0  0  0
  7  8  1  6  0  0  0
  7  9  1  0  0  0  0
 11 10  1  0  0  0  0
 11 13  1  0  0  0  0
 13 12  1  6  0  0  0
 13 14  1  0  0  0  0
 14 15  1  0  0  0  0
 15 18  1  0  0  0  0
 17 18  1  0  0  0  0
 17 19  1  0  0  0  0
 18 16  2  0  0  0  0
 21 20  2  6  0  0  0
 21 19  1  0  0  0  0
 21 23  1  0  0  0  0
 22 21  1  0  0  0  0
 23 24  1  0  0  0  0
 24 25  2  0  0  0  0
 24 26  1  0  0  0  0
 28 29  1  0  0  0  0
 29 35  1  0  0  0  0
 30 28  2  0  0  0  0
 31 27  1  0  0  0  0
 31 28  1  0  0  0  0
 32 40  1  1  0  0  0
 33 32  1  0  0  0  0
 34 33  1  0  0  0  0
 34 32  1  0  0  0  0
 35 33  1  0  0  0  0
 36 37  1  0  0  0  0
 36 35  1  0  0  0  0
 37 34  1  0  0  0  0
 40 38  1  0  0  0  0
 40 39  1  0  0  0  0
 41 31  1  0  0  0  0
 42 41  1  0  0  0  0
 42 43  1  0  0  0  0
 43 46  1  0  0  0  0
 46 45  1  0  0  0  0
 46 44  2  0  0  0  0
M  END
>  <MODEL>
4

>  <REMARK>
 VINA RESULT:      -6.9      3.528      9.215
  Name = 
  19 active torsions:
  status: ('A' for Active; 'I' for Inactive)
    1  A    between atoms: C_2  and  C_7
    2  A    between atoms: C_2  and  N_24
    3  A    between atoms: C_6  and  C_23
    4  A    between atoms: C_6  and  N_43
    5  A    between atoms: C_7  and  O_8
    6  A    between atoms: O_8  and  C_45
    7  A    between atoms: C_10  and  O_30
    8  A    between atoms: C_11  and  C_36
    9  A    between atoms: N_13  and  C_37
   10  A    between atoms: C_14  and  C_34
   11  A    between atoms: O_15  and  C_34
   12  A    between atoms: O_15  and  C_46
   13  A    between atoms: C_18  and  C_27
   14  A    between atoms: C_21  and  C_26
   15  A    between atoms: N_22  and  O_31
   16  A    between atoms: N_24  and  C_26
   17  A    between atoms: O_30  and  P_38
   18  A    between atoms: O_31  and  P_38
   19  A    between atoms: N_43  and  C_46
                            x       y       z     vdW  Elec       q    Type
                         _______ _______ _______ _____ _____    ______ ____

>  <TORSDO>
F 19

$$$$
=
 OpenBabel10222417183D

 46 48  0  0  1  0  0  0  0  0999 V2000
  192.0730  178.6100  143.5720 F   0  0  0  0  0  0  0  0  0  0  0  0
  191.2280  177.8010  142.8780 C   0  0  0  0  0  0  0  0  0  0  0  0
  191.4330  177.6320  141.5680 C   0  0  0  0  0  3  0  0  0  0  0  0
  190.5740  176.7260  145.0100 C   0  0  0  0  0  2  0  0  0  0  0  0
  188.8990  177.9560  143.7390 C   0  0  2  0  0  3  0  0  0  0  0  0
  190.1330  177.0760  143.6040 C   0  0  1  0  0  3  0  0  0  0  0  0
  189.3260  176.8280  145.8520 C   0  0  1  0  0  3  0  0  0  0  0  0
  189.6810  177.2400  147.2650 C   0  0  0  0  0  1  0  0  0  0  0  0
  188.4740  177.8970  145.1960 C   0  0  0  0  0  2  0  0  0  0  0  0
  187.7770  177.4260  142.8630 C   0  0  0  0  0  2  0  0  0  0  0  0
  187.3290  178.4200  141.9870 O   0  0  0  0  0  0  0  0  0  0  0  0
  185.4960  178.4700  143.3380 O   0  0  0  0  0  1  0  0  0  0  0  0
  185.9360  178.3300  142.0220 C   0  0  1  0  0  3  0  0  0  0  0  0
  185.3480  179.3800  141.2010 N   0  0  0  0  0  2  0  0  0  0  0  0
  184.0070  178.9540  140.8250 C   0  0  0  0  0  2  0  0  0  0  0  0
  184.4120  180.3510  138.9400 O   0  0  0  0  0  0  0  0  0  0  0  0
  182.3140  179.3290  138.9900 N   0  0  0  0  0  2  0  0  0  0  0  0
  183.6110  179.5820  139.5330 C   0  0  0  0  0  0  0  0  0  0  0  0
  181.9190  179.8750  137.8130 O   0  0  0  0  0  0  0  0  0  0  0  0
  179.5390  180.8930  137.3690 O   0  0  0  0  0  0  0  0  0  0  0  0
  180.7730  181.0560  138.2280 P   0  0  1  0  0  0  0  0  0  0  0  0
  180.3550  180.8980  139.8590 O   0  0  0  0  0  1  0  0  0  0  0  0
  181.4560  182.6130  137.9610 O   0  0  0  0  0  0  0  0  0  0  0  0
  180.7510  183.6660  137.3680 C   0  0  0  0  0  0  0  0  0  0  0  0
  179.8520  184.2490  138.0290 O   0  0  0  0  0  0  0  0  0  0  0  0
  181.0310  184.1220  135.9760 C   0  0  0  0  0  1  0  0  0  0  0  0
  190.5700  176.7520  140.7150 C   0  0  0  0  0  2  0  0  0  0  0  0
  189.7700  177.2130  138.3840 C   0  0  0  0  0  0  0  0  0  0  0  0
  188.4380  177.3990  138.8760 N   0  0  0  0  0  2  0  0  0  0  0  0
  189.9920  177.2280  137.1420 O   0  0  0  0  0  0  0  0  0  0  0  0
  190.8500  176.9980  139.3070 N   0  0  0  0  0  0  0  0  0  0  0  0
  185.7930  175.9850  136.6030 C   0  0  2  0  0  3  0  0  0  0  0  0
  187.1250  176.2240  137.1980 C   0  0  1  0  0  3  0  0  0  0  0  0
  186.8780  176.5900  135.7830 N   0  0  2  0  0  0  0  0  0  0  0  0
  187.2850  177.5120  137.9970 C   0  0  2  0  0  3  0  0  0  0  0  0
  187.5240  178.5840  136.9710 C   0  0  0  0  0  2  0  0  0  0  0  0
  186.8440  178.0550  135.7350 C   0  0  0  0  0  2  0  0  0  0  0  0
  184.0190  176.4250  138.1570 O   0  0  0  0  0  1  0  0  0  0  0  0
  183.6640  177.0880  135.9070 C   0  0  0  0  0  1  0  0  0  0  0  0
  184.6660  176.9420  137.0360 C   0  0  2  0  0  3  0  0  0  0  0  0
  192.2220  176.8520  138.8310 C   0  0  0  0  0  2  0  0  0  0  0  0
  192.3830  175.5480  138.0600 C   0  0  0  0  0  2  0  0  0  0  0  0
  193.6860  175.0040  138.2430 O   0  0  0  0  0  0  0  0  0  0  0  0
  195.1520  173.3670  137.4120 C   0  0  0  0  0  2  0  0  0  0  0  0
  194.4520  175.0750  135.8370 C   0  0  0  0  0  1  0  0  0  0  0  0
  194.4360  174.4590  137.1960 C   0  0  0  0  0  0  0  0  0  0  0  0
  2  1  1  0  0  0  0
  3  2  2  0  0  0  0
  4  7  1  0  0  0  0
  5 10  1  6  0  0  0
  5  9  1  0  0  0  0
  6  2  1  1  0  0  0
  6  5  1  0  0  0  0
  6  4  1  0  0  0  0
  7  8  1  1  0  0  0
  9  7  1  0  0  0  0
 11 13  1  0  0  0  0
 11 10  1  0  0  0  0
 13 12  1  1  0  0  0
 14 13  1  0  0  0  0
 15 14  1  0  0  0  0
 16 18  2  0  0  0  0
 17 18  1  0  0  0  0
 18 15  1  0  0  0  0
 19 21  1  0  0  0  0
 19 17  1  0  0  0  0
 21 20  2  6  0  0  0
 21 22  1  0  0  0  0
 23 21  1  0  0  0  0
 24 23  1  0  0  0  0
 24 25  2  0  0  0  0
 26 24  1  0  0  0  0
 27  3  1  0  0  0  0
 28 29  1  0  0  0  0
 28 31  1  0  0  0  0
 30 28  2  0  0  0  0
 31 27  1  0  0  0  0
 32 40  1  1  0  0  0
 32 33  1  0  0  0  0
 33 35  1  0  0  0  0
 34 32  1  0  0  0  0
 34 33  1  0  0  0  0
 35 29  1  0  0  0  0
 36 35  1  0  0  0  0
 37 34  1  0  0  0  0
 37 36  1  0  0  0  0
 39 40  1  0  0  0  0
 40 38  1  0  0  0  0
 41 31  1  0  0  0  0
 42 43  1  0  0  0  0
 42 41  1  0  0  0  0
 45 46  1  0  0  0  0
 46 44  2  0  0  0  0
 46 43  1  0  0  0  0
M  END
>  <MODEL>
5

>  <REMARK>
 VINA RESULT:      -6.9      2.893      5.856
  Name = 
  19 active torsions:
  status: ('A' for Active; 'I' for Inactive)
    1  A    between atoms: C_2  and  C_7
    2  A    between atoms: C_2  and  N_24
    3  A    between atoms: C_6  and  C_23
    4  A    between atoms: C_6  and  N_43
    5  A    between atoms: C_7  and  O_8
    6  A    between atoms: O_8  and  C_45
    7  A    between atoms: C_10  and  O_30
    8  A    between atoms: C_11  and  C_36
    9  A    between atoms: N_13  and  C_37
   10  A    between atoms: C_14  and  C_34
   11  A    between atoms: O_15  and  C_34
   12  A    between atoms: O_15  and  C_46
   13  A    between atoms: C_18  and  C_27
   14  A    between atoms: C_21  and  C_26
   15  A    between atoms: N_22  and  O_31
   16  A    between atoms: N_24  and  C_26
   17  A    between atoms: O_30  and  P_38
   18  A    between atoms: O_31  and  P_38
   19  A    between atoms: N_43  and  C_46
                            x       y       z     vdW  Elec       q    Type
                         _______ _______ _______ _____ _____    ______ ____

>  <TORSDO>
F 19

$$$$
=
 OpenBabel10222417183D

 46 48  0  0  1  0  0  0  0  0999 V2000
  189.4310  179.3110  137.8410 F   0  0  0  0  0  0  0  0  0  0  0  0
  188.5610  178.2980  138.0990 C   0  0  0  0  0  0  0  0  0  0  0  0
  187.6870  177.9460  137.1520 C   0  0  0  0  0  3  0  0  0  0  0  0
  190.0480  177.0470  139.6330 C   0  0  0  0  0  2  0  0  0  0  0  0
  188.3280  178.4960  140.5690 C   0  0  2  0  0  3  0  0  0  0  0  0
  188.6430  177.5660  139.4070 C   0  0  1  0  0  3  0  0  0  0  0  0
  190.2650  177.1320  141.1240 C   0  0  1  0  0  3  0  0  0  0  0  0
  191.7290  177.3750  141.4250 C   0  0  0  0  0  1  0  0  0  0  0  0
  189.4350  178.3100  141.5930 C   0  0  0  0  0  2  0  0  0  0  0  0
  186.9940  178.1260  141.1930 C   0  0  0  0  0  2  0  0  0  0  0  0
  186.1290  179.2240  141.1850 O   0  0  0  0  0  0  0  0  0  0  0  0
  184.3190  177.9240  141.6570 O   0  0  0  0  0  1  0  0  0  0  0  0
  185.1590  178.9240  142.1440 C   0  0  1  0  0  3  0  0  0  0  0  0
  185.7960  178.4670  143.3710 N   0  0  0  0  0  2  0  0  0  0  0  0
  184.7490  178.2120  144.3500 C   0  0  0  0  0  2  0  0  0  0  0  0
  184.4700  178.9590  146.5940 O   0  0  0  0  0  0  0  0  0  0  0  0
  186.6220  178.2460  146.0420 N   0  0  0  0  0  2  0  0  0  0  0  0
  185.2510  178.4900  145.7250 C   0  0  0  0  0  0  0  0  0  0  0  0
  187.1150  178.4770  147.2840 O   0  0  0  0  0  0  0  0  0  0  0  0
  189.5880  178.1950  148.1250 O   0  0  0  0  0  0  0  0  0  0  0  0
  188.4660  177.4590  147.4270 P   0  0  1  0  0  0  0  0  0  0  0  0
  188.0520  176.0810  148.3170 O   0  0  0  0  0  1  0  0  0  0  0  0
  188.9800  176.9900  145.8530 O   0  0  0  0  0  0  0  0  0  0  0  0
  190.1230  177.5070  145.2360 C   0  0  0  0  0  0  0  0  0  0  0  0
  190.1490  178.7250  144.9180 O   0  0  0  0  0  0  0  0  0  0  0  0
  191.3160  176.6620  144.9400 C   0  0  0  0  0  1  0  0  0  0  0  0
  186.6960  176.8350  137.3290 C   0  0  0  0  0  2  0  0  0  0  0  0
  184.4090  177.3060  136.4160 C   0  0  0  0  0  0  0  0  0  0  0  0
  184.0600  177.9770  137.6320 N   0  0  0  0  0  2  0  0  0  0  0  0
  183.5360  177.1220  135.5230 O   0  0  0  0  0  0  0  0  0  0  0  0
  185.7520  176.8320  136.2210 N   0  0  0  0  0  0  0  0  0  0  0  0
  181.4850  180.3940  138.9350 C   0  0  2  0  0  3  0  0  0  0  0  0
  182.7230  179.5880  138.8730 C   0  0  1  0  0  3  0  0  0  0  0  0
  181.7450  179.3470  139.9610 N   0  0  2  0  0  0  0  0  0  0  0  0
  182.6980  178.3830  137.9400 C   0  0  2  0  0  3  0  0  0  0  0  0
  182.0020  177.3000  138.7160 C   0  0  0  0  0  2  0  0  0  0  0  0
  181.1140  178.0560  139.6700 C   0  0  0  0  0  2  0  0  0  0  0  0
  180.8620  180.3630  136.6180 O   0  0  0  0  0  1  0  0  0  0  0  0
  179.1560  180.8830  138.1820 C   0  0  0  0  0  1  0  0  0  0  0  0
  180.3970  180.0600  137.8970 C   0  0  2  0  0  3  0  0  0  0  0  0
  186.1420  176.1860  134.9720 C   0  0  0  0  0  2  0  0  0  0  0  0
  186.8560  174.8700  135.2520 C   0  0  0  0  0  2  0  0  0  0  0  0
  185.9370  173.7820  135.2560 O   0  0  0  0  0  0  0  0  0  0  0  0
  184.8350  172.1160  136.4940 C   0  0  0  0  0  2  0  0  0  0  0  0
  187.1870  172.4410  136.9950 C   0  0  0  0  0  1  0  0  0  0  0  0
  185.9500  172.7810  136.2330 C   0  0  0  0  0  0  0  0  0  0  0  0
  1  2  1  0  0  0  0
  3 27  1  0  0  0  0
  3  2  2  0  0  0  0
  4  7  1  0  0  0  0
  5 10  1  1  0  0  0
  5  9  1  0  0  0  0
  6  2  1  6  0  0  0
  6  4  1  0  0  0  0
  6  5  1  0  0  0  0
  7  8  1  6  0  0  0
  7  9  1  0  0  0  0
 11 10  1  0  0  0  0
 11 13  1  0  0  0  0
 13 12  1  6  0  0  0
 13 14  1  0  0  0  0
 14 15  1  0  0  0  0
 15 18  1  0  0  0  0
 17 19  1  0  0  0  0
 18 17  1  0  0  0  0
 18 16  2  0  0  0  0
 19 21  1  0  0  0  0
 21 20  2  1  0  0  0
 21 22  1  0  0  0  0
 23 21  1  0  0  0  0
 24 23  1  0  0  0  0
 25 24  2  0  0  0  0
 26 24  1  0  0  0  0
 28 29  1  0  0  0  0
 29 35  1  0  0  0  0
 30 28  2  0  0  0  0
 31 28  1  0  0  0  0
 31 27  1  0  0  0  0
 32 40  1  6  0  0  0
 32 34  1  0  0  0  0
 33 32  1  0  0  0  0
 33 34  1  0  0  0  0
 35 36  1  0  0  0  0
 35 33  1  0  0  0  0
 36 37  1  0  0  0  0
 37 34  1  0  0  0  0
 38 40  1  0  0  0  0
 40 39  1  0  0  0  0
 41 42  1  0  0  0  0
 41 31  1  0  0  0  0
 42 43  1  0  0  0  0
 43 46  1  0  0  0  0
 46 44  2  0  0  0  0
 46 45  1  0  0  0  0
M  END
>  <MODEL>
6

>  <REMARK>
 VINA RESULT:      -6.8      3.841      8.433
  Name = 
  19 active torsions:
  status: ('A' for Active; 'I' for Inactive)
    1  A    between atoms: C_2  and  C_7
    2  A    between atoms: C_2  and  N_24
    3  A    between atoms: C_6  and  C_23
    4  A    between atoms: C_6  and  N_43
    5  A    between atoms: C_7  and  O_8
    6  A    between atoms: O_8  and  C_45
    7  A    between atoms: C_10  and  O_30
    8  A    between atoms: C_11  and  C_36
    9  A    between atoms: N_13  and  C_37
   10  A    between atoms: C_14  and  C_34
   11  A    between atoms: O_15  and  C_34
   12  A    between atoms: O_15  and  C_46
   13  A    between atoms: C_18  and  C_27
   14  A    between atoms: C_21  and  C_26
   15  A    between atoms: N_22  and  O_31
   16  A    between atoms: N_24  and  C_26
   17  A    between atoms: O_30  and  P_38
   18  A    between atoms: O_31  and  P_38
   19  A    between atoms: N_43  and  C_46
                            x       y       z     vdW  Elec       q    Type
                         _______ _______ _______ _____ _____    ______ ____

>  <TORSDO>
F 19

$$$$
=
 OpenBabel10222417183D

 46 48  0  0  1  0  0  0  0  0999 V2000
  192.0480  178.3950  143.7390 F   0  0  0  0  0  0  0  0  0  0  0  0
  191.1490  177.6920  142.9990 C   0  0  0  0  0  0  0  0  0  0  0  0
  191.3770  177.5340  141.6920 C   0  0  0  0  0  3  0  0  0  0  0  0
  190.3180  176.6580  145.0890 C   0  0  0  0  0  2  0  0  0  0  0  0
  188.8120  178.0520  143.7760 C   0  0  2  0  0  3  0  0  0  0  0  0
  189.9650  177.0630  143.6730 C   0  0  1  0  0  3  0  0  0  0  0  0
  189.0530  176.8660  145.8870 C   0  0  1  0  0  3  0  0  0  0  0  0
  189.3910  177.2270  147.3170 C   0  0  0  0  0  1  0  0  0  0  0  0
  188.3290  178.0160  145.2160 C   0  0  0  0  0  2  0  0  0  0  0  0
  187.6810  177.6380  142.8510 C   0  0  0  0  0  2  0  0  0  0  0  0
  187.5580  178.5440  141.7930 O   0  0  0  0  0  0  0  0  0  0  0  0
  185.5190  178.5790  140.7790 O   0  0  0  0  0  1  0  0  0  0  0  0
  186.2490  179.0240  141.8800 C   0  0  1  0  0  3  0  0  0  0  0  0
  185.6230  178.5420  143.1040 N   0  0  0  0  0  2  0  0  0  0  0  0
  184.9180  179.6610  143.7140 C   0  0  0  0  0  2  0  0  0  0  0  0
  183.3500  179.0400  145.3940 O   0  0  0  0  0  0  0  0  0  0  0  0
  182.5310  179.0150  143.2090 N   0  0  0  0  0  2  0  0  0  0  0  0
  183.5660  179.2320  144.1690 C   0  0  0  0  0  0  0  0  0  0  0  0
  181.2850  178.6320  143.5840 O   0  0  0  0  0  0  0  0  0  0  0  0
  179.0250  178.3780  142.2680 O   0  0  0  0  0  0  0  0  0  0  0  0
  180.2470  179.2600  142.3970 P   0  0  1  0  0  0  0  0  0  0  0  0
  179.7730  180.8270  142.8230 O   0  0  0  0  0  1  0  0  0  0  0  0
  181.0820  179.3050  140.8930 O   0  0  0  0  0  0  0  0  0  0  0  0
  180.9550  178.3120  139.9170 C   0  0  0  0  0  0  0  0  0  0  0  0
  180.5600  178.6330  138.7650 O   0  0  0  0  0  0  0  0  0  0  0  0
  181.2730  176.8810  140.1950 C   0  0  0  0  0  1  0  0  0  0  0  0
  190.4570  176.7660  140.7910 C   0  0  0  0  0  2  0  0  0  0  0  0
  189.7960  177.2470  138.4210 C   0  0  0  0  0  0  0  0  0  0  0  0
  188.4470  177.4780  138.8430 N   0  0  0  0  0  2  0  0  0  0  0  0
  190.0820  177.2510  137.1920 O   0  0  0  0  0  0  0  0  0  0  0  0
  190.8190  176.9980  139.3990 N   0  0  0  0  0  0  0  0  0  0  0  0
  185.7900  176.1370  136.5380 C   0  0  2  0  0  3  0  0  0  0  0  0
  187.1110  176.3050  137.1800 C   0  0  1  0  0  3  0  0  0  0  0  0
  186.9560  176.5970  135.7350 N   0  0  2  0  0  0  0  0  0  0  0  0
  187.3460  177.6250  137.9050 C   0  0  2  0  0  3  0  0  0  0  0  0
  187.7170  178.6050  136.8270 C   0  0  0  0  0  2  0  0  0  0  0  0
  187.0470  178.0530  135.5940 C   0  0  0  0  0  2  0  0  0  0  0  0
  184.2550  177.0250  138.1540 O   0  0  0  0  0  1  0  0  0  0  0  0
  183.5760  177.0850  135.8820 C   0  0  0  0  0  1  0  0  0  0  0  0
  184.7310  177.2080  136.8570 C   0  0  2  0  0  3  0  0  0  0  0  0
  192.2070  176.8060  138.9960 C   0  0  0  0  0  2  0  0  0  0  0  0
  192.3570  175.5190  138.1950 C   0  0  0  0  0  2  0  0  0  0  0  0
  193.3600  175.6540  137.1940 O   0  0  0  0  0  0  0  0  0  0  0  0
  195.3750  174.5830  136.6330 C   0  0  0  0  0  2  0  0  0  0  0  0
  193.3380  173.3700  136.1140 C   0  0  0  0  0  1  0  0  0  0  0  0
  194.0520  174.5620  136.6590 C   0  0  0  0  0  0  0  0  0  0  0  0
  2  1  1  0  0  0  0
  3  2  2  0  0  0  0
  4  7  1  0  0  0  0
  5 10  1  6  0  0  0
  5  9  1  0  0  0  0
  6  2  1  1  0  0  0
  6  5  1  0  0  0  0
  6  4  1  0  0  0  0
  7  8  1  1  0  0  0
  9  7  1  0  0  0  0
 11 13  1  0  0  0  0
 11 10  1  0  0  0  0
 13 12  1  6  0  0  0
 13 14  1  0  0  0  0
 14 15  1  0  0  0  0
 15 18  1  0  0  0  0
 17 19  1  0  0  0  0
 17 18  1  0  0  0  0
 18 16  2  0  0  0  0
 21 20  2  6  0  0  0
 21 22  1  0  0  0  0
 21 19  1  0  0  0  0
 23 21  1  0  0  0  0
 24 26  1  0  0  0  0
 24 23  1  0  0  0  0
 25 24  2  0  0  0  0
 27  3  1  0  0  0  0
 28 29  1  0  0  0  0
 28 31  1  0  0  0  0
 30 28  2  0  0  0  0
 31 27  1  0  0  0  0
 32 40  1  1  0  0  0
 32 33  1  0  0  0  0
 33 35  1  0  0  0  0
 34 32  1  0  0  0  0
 34 33  1  0  0  0  0
 35 29  1  0  0  0  0
 36 35  1  0  0  0  0
 37 34  1  0  0  0  0
 37 36  1  0  0  0  0
 39 40  1  0  0  0  0
 40 38  1  0  0  0  0
 41 31  1  0  0  0  0
 42 41  1  0  0  0  0
 43 42  1  0  0  0  0
 44 46  2  0  0  0  0
 45 46  1  0  0  0  0
 46 43  1  0  0  0  0
M  END
>  <MODEL>
7

>  <REMARK>
 VINA RESULT:      -6.8      1.922      5.124
  Name = 
  19 active torsions:
  status: ('A' for Active; 'I' for Inactive)
    1  A    between atoms: C_2  and  C_7
    2  A    between atoms: C_2  and  N_24
    3  A    between atoms: C_6  and  C_23
    4  A    between atoms: C_6  and  N_43
    5  A    between atoms: C_7  and  O_8
    6  A    between atoms: O_8  and  C_45
    7  A    between atoms: C_10  and  O_30
    8  A    between atoms: C_11  and  C_36
    9  A    between atoms: N_13  and  C_37
   10  A    between atoms: C_14  and  C_34
   11  A    between atoms: O_15  and  C_34
   12  A    between atoms: O_15  and  C_46
   13  A    between atoms: C_18  and  C_27
   14  A    between atoms: C_21  and  C_26
   15  A    between atoms: N_22  and  O_31
   16  A    between atoms: N_24  and  C_26
   17  A    between atoms: O_30  and  P_38
   18  A    between atoms: O_31  and  P_38
   19  A    between atoms: N_43  and  C_46
                            x       y       z     vdW  Elec       q    Type
                         _______ _______ _______ _____ _____    ______ ____

>  <TORSDO>
F 19

$$$$
=
 OpenBabel10222417183D

 46 48  0  0  1  0  0  0  0  0999 V2000
  185.4940  180.0380  142.4020 F   0  0  0  0  0  0  0  0  0  0  0  0
  186.0580  179.0450  141.6650 C   0  0  0  0  0  0  0  0  0  0  0  0
  187.3660  178.8070  141.8030 C   0  0  0  0  0  3  0  0  0  0  0  0
  183.8460  177.9650  141.4080 C   0  0  0  0  0  2  0  0  0  0  0  0
  184.9320  178.9220  139.4490 C   0  0  2  0  0  3  0  0  0  0  0  0
  185.1960  178.2070  140.7670 C   0  0  1  0  0  3  0  0  0  0  0  0
  182.8640  177.9300  140.2620 C   0  0  1  0  0  3  0  0  0  0  0  0
  181.5110  178.4320  140.7190 C   0  0  0  0  0  1  0  0  0  0  0  0
  183.4340  178.8560  139.2060 C   0  0  0  0  0  2  0  0  0  0  0  0
  185.6600  178.2220  138.3160 C   0  0  0  0  0  2  0  0  0  0  0  0
  186.9240  178.7890  138.1220 O   0  0  0  0  0  0  0  0  0  0  0  0
  188.5370  178.2920  136.5920 O   0  0  0  0  0  1  0  0  0  0  0  0
  187.1910  178.6140  136.7620 C   0  0  1  0  0  3  0  0  0  0  0  0
  186.3640  177.5420  136.2260 N   0  0  0  0  0  2  0  0  0  0  0  0
  187.1680  176.7960  135.2670 C   0  0  0  0  0  2  0  0  0  0  0  0
  187.5680  174.4700  134.9500 O   0  0  0  0  0  0  0  0  0  0  0  0
  185.3690  175.0390  135.4850 N   0  0  0  0  0  2  0  0  0  0  0  0
  186.7340  175.3710  135.2290 C   0  0  0  0  0  0  0  0  0  0  0  0
  184.9360  173.7530  135.4700 O   0  0  0  0  0  0  0  0  0  0  0  0
  183.5320  172.2460  137.1000 O   0  0  0  0  0  0  0  0  0  0  0  0
  184.5020  173.4060  137.0730 P   0  0  1  0  0  0  0  0  0  0  0  0
  185.8840  173.0130  137.9660 O   0  0  0  0  0  1  0  0  0  0  0  0
  183.7540  174.7950  137.7610 O   0  0  0  0  0  0  0  0  0  0  0  0
  182.3980  175.0950  137.5930 C   0  0  0  0  0  0  0  0  0  0  0  0
  181.9880  175.4590  136.4600 O   0  0  0  0  0  0  0  0  0  0  0  0
  181.4200  175.0000  138.7150 C   0  0  0  0  0  1  0  0  0  0  0  0
  188.0820  177.7280  141.0480 C   0  0  0  0  0  2  0  0  0  0  0  0
  190.4500  177.0890  140.5290 C   0  0  0  0  0  0  0  0  0  0  0  0
  190.0400  176.6050  139.2460 N   0  0  0  0  0  2  0  0  0  0  0  0
  191.6420  176.9300  140.9130 O   0  0  0  0  0  0  0  0  0  0  0  0
  189.4990  177.7460  141.3840 N   0  0  0  0  0  0  0  0  0  0  0  0
  192.7760  176.2610  136.6840 C   0  0  2  0  0  3  0  0  0  0  0  0
  191.5500  176.7590  137.3440 C   0  0  1  0  0  3  0  0  0  0  0  0
  191.4530  176.0980  136.0200 N   0  0  2  0  0  0  0  0  0  0  0  0
  190.9190  175.8360  138.3790 C   0  0  2  0  0  3  0  0  0  0  0  0
  190.1180  174.8430  137.5850 C   0  0  0  0  0  2  0  0  0  0  0  0
  190.8250  174.7940  136.2550 C   0  0  0  0  0  2  0  0  0  0  0  0
  194.1550  175.2960  138.3940 O   0  0  0  0  0  1  0  0  0  0  0  0
  194.2940  174.3310  136.2310 C   0  0  0  0  0  1  0  0  0  0  0  0
  193.3970  174.9780  137.2680 C   0  0  2  0  0  3  0  0  0  0  0  0
  189.9050  178.2880  142.6760 C   0  0  0  0  0  2  0  0  0  0  0  0
  189.6870  177.2600  143.7790 C   0  0  0  0  0  2  0  0  0  0  0  0
  189.3380  177.8930  145.0050 O   0  0  0  0  0  0  0  0  0  0  0  0
  188.3050  177.2500  147.0160 C   0  0  0  0  0  2  0  0  0  0  0  0
  186.8380  177.5390  145.1030 C   0  0  0  0  0  1  0  0  0  0  0  0
  188.1910  177.5590  145.7330 C   0  0  0  0  0  0  0  0  0  0  0  0
  2  3  2  0  0  0  0
  2  1  1  0  0  0  0
  5 10  1  6  0  0  0
  5  6  1  0  0  0  0
  6  4  1  0  0  0  0
  6  2  1  1  0  0  0
  7  8  1  1  0  0  0
  7  4  1  0  0  0  0
  9  5  1  0  0  0  0
  9  7  1  0  0  0  0
 11 10  1  0  0  0  0
 13 12  1  1  0  0  0
 13 11  1  0  0  0  0
 14 13  1  0  0  0  0
 15 14  1  0  0  0  0
 16 18  2  0  0  0  0
 18 15  1  0  0  0  0
 18 17  1  0  0  0  0
 19 17  1  0  0  0  0
 19 21  1  0  0  0  0
 21 20  2  1  0  0  0
 21 23  1  0  0  0  0
 21 22  1  0  0  0  0
 24 23  1  0  0  0  0
 24 26  1  0  0  0  0
 25 24  2  0  0  0  0
 27 31  1  0  0  0  0
 27  3  1  0  0  0  0
 28 30  2  0  0  0  0
 28 31  1  0  0  0  0
 29 28  1  0  0  0  0
 31 41  1  0  0  0  0
 32 40  1  1  0  0  0
 32 33  1  0  0  0  0
 33 35  1  0  0  0  0
 34 37  1  0  0  0  0
 34 32  1  0  0  0  0
 34 33  1  0  0  0  0
 35 29  1  0  0  0  0
 36 35  1  0  0  0  0
 37 36  1  0  0  0  0
 39 40  1  0  0  0  0
 40 38  1  0  0  0  0
 41 42  1  0  0  0  0
 42 43  1  0  0  0  0
 43 46  1  0  0  0  0
 45 46  1  0  0  0  0
 46 44  2  0  0  0  0
M  END
>  <MODEL>
8

>  <REMARK>
 VINA RESULT:      -6.7      3.644      6.967
  Name = 
  19 active torsions:
  status: ('A' for Active; 'I' for Inactive)
    1  A    between atoms: C_2  and  C_7
    2  A    between atoms: C_2  and  N_24
    3  A    between atoms: C_6  and  C_23
    4  A    between atoms: C_6  and  N_43
    5  A    between atoms: C_7  and  O_8
    6  A    between atoms: O_8  and  C_45
    7  A    between atoms: C_10  and  O_30
    8  A    between atoms: C_11  and  C_36
    9  A    between atoms: N_13  and  C_37
   10  A    between atoms: C_14  and  C_34
   11  A    between atoms: O_15  and  C_34
   12  A    between atoms: O_15  and  C_46
   13  A    between atoms: C_18  and  C_27
   14  A    between atoms: C_21  and  C_26
   15  A    between atoms: N_22  and  O_31
   16  A    between atoms: N_24  and  C_26
   17  A    between atoms: O_30  and  P_38
   18  A    between atoms: O_31  and  P_38
   19  A    between atoms: N_43  and  C_46
                            x       y       z     vdW  Elec       q    Type
                         _______ _______ _______ _____ _____    ______ ____

>  <TORSDO>
F 19

$$$$
=
 OpenBabel10222417183D

 46 48  0  0  1  0  0  0  0  0999 V2000
  187.8880  179.6500  136.6060 F   0  0  0  0  0  0  0  0  0  0  0  0
  188.1570  178.3990  137.0660 C   0  0  0  0  0  0  0  0  0  0  0  0
  189.4300  177.9960  137.1210 C   0  0  0  0  0  3  0  0  0  0  0  0
  186.2020  178.2750  138.5790 C   0  0  0  0  0  2  0  0  0  0  0  0
  186.0980  177.1640  136.4140 C   0  0  2  0  0  3  0  0  0  0  0  0
  187.0340  177.5320  137.5550 C   0  0  1  0  0  3  0  0  0  0  0  0
  184.7880  177.7890  138.3670 C   0  0  1  0  0  3  0  0  0  0  0  0
  183.8020  178.8790  138.7240 C   0  0  0  0  0  1  0  0  0  0  0  0
  184.6860  177.4560  136.8910 C   0  0  0  0  0  2  0  0  0  0  0  0
  186.2260  175.6870  136.0840 C   0  0  0  0  0  2  0  0  0  0  0  0
  186.5760  174.9590  137.2250 O   0  0  0  0  0  0  0  0  0  0  0  0
  186.5360  172.7750  137.8720 O   0  0  0  0  0  1  0  0  0  0  0  0
  185.8970  173.7450  137.1000 C   0  0  1  0  0  3  0  0  0  0  0  0
  184.5210  173.8960  137.5520 N   0  0  0  0  0  2  0  0  0  0  0  0
  183.6970  172.9660  136.7910 C   0  0  0  0  0  2  0  0  0  0  0  0
  181.4530  172.1950  136.9960 O   0  0  0  0  0  0  0  0  0  0  0  0
  181.7990  174.4250  137.5930 N   0  0  0  0  0  2  0  0  0  0  0  0
  182.2590  173.1530  137.1340 C   0  0  0  0  0  0  0  0  0  0  0  0
  180.5000  174.6320  137.9240 O   0  0  0  0  0  0  0  0  0  0  0  0
  179.9240  174.7120  140.4860 O   0  0  0  0  0  1  0  0  0  0  0  0
  180.5420  175.5230  139.3680 P   0  0  1  0  0  0  0  0  0  0  0  0
  182.1430  175.9020  139.7600 O   0  0  0  0  0  0  0  0  0  0  0  0
  179.6470  176.9770  139.1530 O   0  0  0  0  0  0  0  0  0  0  0  0
  180.1680  178.1080  138.5170 C   0  0  0  0  0  0  0  0  0  0  0  0
  180.2480  179.1880  139.1590 O   0  0  0  0  0  0  0  0  0  0  0  0
  180.6310  178.0790  137.0990 C   0  0  0  0  0  1  0  0  0  0  0  0
  189.8360  176.6430  137.6250 C   0  0  0  0  0  2  0  0  0  0  0  0
  190.7880  177.0810  139.9020 C   0  0  0  0  0  0  0  0  0  0  0  0
  189.4690  177.0570  140.4600 N   0  0  0  0  0  2  0  0  0  0  0  0
  191.7750  177.3850  140.6280 O   0  0  0  0  0  0  0  0  0  0  0  0
  190.9830  176.7690  138.5130 N   0  0  0  0  0  0  0  0  0  0  0  0
  189.2620  176.4720  144.1720 C   0  0  2  0  0  3  0  0  0  0  0  0
  189.0990  176.2380  142.7220 C   0  0  1  0  0  3  0  0  0  0  0  0
  187.8990  176.3810  143.5800 N   0  0  2  0  0  0  0  0  0  0  0  0
  189.1880  177.4680  141.8260 C   0  0  2  0  0  3  0  0  0  0  0  0
  187.8290  178.1070  141.9010 C   0  0  0  0  0  2  0  0  0  0  0  0
  187.3050  177.6790  143.2470 C   0  0  0  0  0  2  0  0  0  0  0  0
  191.0700  178.0440  144.2970 O   0  0  0  0  0  1  0  0  0  0  0  0
  189.5120  178.0560  146.0850 C   0  0  0  0  0  1  0  0  0  0  0  0
  189.7180  177.8810  144.5930 C   0  0  2  0  0  3  0  0  0  0  0  0
  192.3220  176.7420  137.9340 C   0  0  0  0  0  2  0  0  0  0  0  0
  192.8920  175.3290  137.9750 C   0  0  0  0  0  2  0  0  0  0  0  0
  194.2890  175.3510  138.2460 O   0  0  0  0  0  0  0  0  0  0  0  0
  196.1280  174.1530  139.0890 C   0  0  0  0  0  2  0  0  0  0  0  0
  194.7530  172.9960  137.4570 C   0  0  0  0  0  1  0  0  0  0  0  0
  195.0730  174.1930  138.2900 C   0  0  0  0  0  0  0  0  0  0  0  0
  1  2  1  0  0  0  0
  2  3  2  0  0  0  0
  3 27  1  0  0  0  0
  5 10  1  1  0  0  0
  5  9  1  0  0  0  0
  5  6  1  0  0  0  0
  6  2  1  6  0  0  0
  6  4  1  0  0  0  0
  7  4  1  0  0  0  0
  7  8  1  6  0  0  0
  9  7  1  0  0  0  0
 10 11  1  0  0  0  0
 13 11  1  0  0  0  0
 13 14  1  0  0  0  0
 13 12  1  1  0  0  0
 15 18  1  0  0  0  0
 15 14  1  0  0  0  0
 16 18  2  0  0  0  0
 17 19  1  0  0  0  0
 18 17  1  0  0  0  0
 19 21  1  0  0  0  0
 21 22  2  1  0  0  0
 21 20  1  0  0  0  0
 23 21  1  0  0  0  0
 24 23  1  0  0  0  0
 24 25  2  0  0  0  0
 26 24  1  0  0  0  0
 27 31  1  0  0  0  0
 28 29  1  0  0  0  0
 28 30  2  0  0  0  0
 29 35  1  0  0  0  0
 31 28  1  0  0  0  0
 32 40  1  6  0  0  0
 33 34  1  0  0  0  0
 33 32  1  0  0  0  0
 34 32  1  0  0  0  0
 35 36  1  0  0  0  0
 35 33  1  0  0  0  0
 36 37  1  0  0  0  0
 37 34  1  0  0  0  0
 38 40  1  0  0  0  0
 40 39  1  0  0  0  0
 41 42  1  0  0  0  0
 41 31  1  0  0  0  0
 42 43  1  0  0  0  0
 43 46  1  0  0  0  0
 45 46  1  0  0  0  0
 46 44  2  0  0  0  0
M  END
>  <MODEL>
9

>  <REMARK>
 VINA RESULT:      -6.7      3.404      8.120
  Name = 
  19 active torsions:
  status: ('A' for Active; 'I' for Inactive)
    1  A    between atoms: C_2  and  C_7
    2  A    between atoms: C_2  and  N_24
    3  A    between atoms: C_6  and  C_23
    4  A    between atoms: C_6  and  N_43
    5  A    between atoms: C_7  and  O_8
    6  A    between atoms: O_8  and  C_45
    7  A    between atoms: C_10  and  O_30
    8  A    between atoms: C_11  and  C_36
    9  A    between atoms: N_13  and  C_37
   10  A    between atoms: C_14  and  C_34
   11  A    between atoms: O_15  and  C_34
   12  A    between atoms: O_15  and  C_46
   13  A    between atoms: C_18  and  C_27
   14  A    between atoms: C_21  and  C_26
   15  A    between atoms: N_22  and  O_31
   16  A    between atoms: N_24  and  C_26
   17  A    between atoms: O_30  and  P_38
   18  A    between atoms: O_31  and  P_38
   19  A    between atoms: N_43  and  C_46
                            x       y       z     vdW  Elec       q    Type
                         _______ _______ _______ _____ _____    ______ ____

>  <TORSDO>
F 19

$$$$
