=
 OpenBabel10222416473D

 45 52  0  0  1  0  0  0  0  0999 V2000
  185.0720  178.0980  142.5390 C   0  0  0  0  0  3  0  0  0  0  0  0
  181.1770  178.0370  140.6690 C   0  0  1  0  0  3  0  0  0  0  0  0
  180.1590  177.0860  140.2450 N   0  0  0  0  0  2  0  0  0  0  0  0
  185.4530  178.2170  143.8150 C   0  0  0  0  0  3  0  0  0  0  0  0
  183.8780  178.8780  142.0430 C   0  0  0  0  0  0  0  0  0  0  0  0
  181.5080  178.9890  143.0560 C   0  0  0  0  0  2  0  0  0  0  0  0
  182.8430  179.1030  143.1350 C   0  0  0  0  0  0  0  0  0  0  0  0
  180.7190  178.5430  141.9420 N   0  0  2  0  0  0  0  0  0  0  0  0
  182.7720  176.6230  139.6060 C   0  0  0  0  0  2  0  0  0  0  0  0
  183.3700  178.5470  140.7080 N   0  0  0  0  0  0  0  0  0  0  0  0
  179.3620  178.2850  142.1470 N   0  0  0  0  0  2  0  0  0  0  0  0
  184.1720  176.9300  139.1510 C   0  0  2  0  0  3  0  0  0  0  0  0
  184.4550  178.2650  139.7690 C   0  0  0  0  0  2  0  0  0  0  0  0
  183.3950  179.3880  144.4670 C   0  0  0  0  0  3  0  0  0  0  0  0
  184.6400  179.0050  144.7800 C   0  0  0  0  0  0  0  0  0  0  0  0
  182.5070  177.4380  140.7830 N   0  0  1  0  0  0  0  0  0  0  0  0
  178.9640  177.4980  140.9840 C   0  0  0  0  0  2  0  0  0  0  0  0
  184.1900  177.0390  137.6910 C   0  0  0  0  0  0  0  0  0  0  0  0
  184.2210  177.1120  136.4870 C   0  0  0  0  0  0  0  0  0  0  0  0
  184.3050  177.1830  135.0290 C   0  0  0  0  0  2  0  0  0  0  0  0
  185.7560  177.3150  134.5940 C   0  0  0  0  0  2  0  0  0  0  0  0
  186.6650  176.3840  135.4040 C   0  0  1  0  0  3  0  0  0  0  0  0
  187.0620  175.3220  134.5940 O   0  0  0  0  0  1  0  0  0  0  0  0
  189.2830  177.0140  138.1610 C   0  0  0  0  0  0  0  0  0  0  0  0
  189.0670  175.1160  136.7510 O   0  0  0  0  0  1  0  0  0  0  0  0
  188.8390  179.1550  136.9970 C   0  0  0  0  0  2  0  0  0  0  0  0
  187.5720  178.5000  136.4550 C   0  0  0  0  0  2  0  0  0  0  0  0
  189.9120  176.3220  139.1790 O   0  0  0  0  0  1  0  0  0  0  0  0
  188.3970  176.2540  137.1980 C   0  0  2  0  0  3  0  0  0  0  0  0
  187.8960  177.0770  136.0010 C   0  0  1  0  0  3  0  0  0  0  0  0
  189.4460  178.3330  138.0900 C   0  0  0  0  0  3  0  0  0  0  0  0
  185.1130  179.2670  146.1000 N   0  0  0  0  0  2  0  0  0  0  0  0
  185.2540  178.2590  147.0660 N   0  0  0  0  0  0  0  0  0  0  0  0
  186.4270  177.9080  147.4970 C   0  0  0  0  0  3  0  0  0  0  0  0
  189.6140  177.6380  146.8530 C   0  0  1  0  0  0  0  0  0  0  0  0
  187.6710  178.5730  146.9830 C   0  0  1  0  0  3  0  0  0  0  0  0
  187.9040  176.4680  145.6170 O   0  0  0  0  0  1  0  0  0  0  0  0
  189.7670  178.1760  145.4390 C   0  0  2  0  0  3  0  0  0  0  0  0
  188.8330  178.3910  147.9270 C   0  0  0  0  0  2  0  0  0  0  0  0
  188.3870  177.7530  145.9130 C   0  0  2  0  0  0  0  0  0  0  0  0
  189.9170  176.2990  147.1380 O   0  0  0  0  0  1  0  0  0  0  0  0
  190.2990  177.2620  144.3190 C   0  0  2  0  0  0  0  0  0  0  0  0
  191.6810  177.5020  143.8740 C   0  0  0  0  0  2  0  0  0  0  0  0
  189.3580  176.8340  143.2090 C   0  0  0  0  0  1  0  0  0  0  0  0
  191.3190  176.3520  144.5970 O   0  0  0  0  0  0  0  0  0  0  0  0
  1  4  1  0  0  0  0
  2  3  1  1  0  0  0
  2 16  1  0  0  0  0
  2  8  1  0  0  0  0
  3 17  1  0  0  0  0
  4 15  2  0  0  0  0
  5  1  2  0  0  0  0
  5  7  1  0  0  0  0
  6  7  1  0  0  0  0
  7 14  2  0  0  0  0
  8 11  1  0  0  0  0
  8  6  1  1  0  0  0
 10 16  1  0  0  0  0
 10  5  1  0  0  0  0
 12 18  1  6  0  0  0
 12  9  1  0  0  0  0
 12 13  1  0  0  0  0
 13 10  1  0  0  0  0
 14 15  1  0  0  0  0
 15 32  1  0  0  0  0
 16  9  1  6  0  0  0
 17 11  1  0  0  0  0
 19 18  3  0  0  0  0
 20 19  1  0  0  0  0
 21 20  1  0  0  0  0
 21 22  1  0  0  0  0
 22 23  1  6  0  0  0
 24 28  1  0  0  0  0
 26 31  1  0  0  0  0
 27 26  1  0  0  0  0
 29 25  1  6  0  0  0
 29 24  1  0  0  0  0
 30 22  1  1  0  0  0
 30 27  1  0  0  0  0
 30 29  1  0  0  0  0
 31 24  2  0  0  0  0
 32 33  1  0  0  0  0
 33 34  2  0  0  0  0
 35 41  1  1  0  0  0
 35 39  1  0  0  0  0
 36 34  1  1  0  0  0
 36 39  1  0  0  0  0
 38 42  1  6  0  0  0
 38 40  1  0  0  0  0
 38 35  1  0  0  0  0
 40 37  1  6  0  0  0
 40 35  1  0  0  0  0
 40 36  1  0  0  0  0
 42 44  1  6  0  0  0
 42 45  1  0  0  0  0
 43 42  1  0  0  0  0
 43 45  1  0  0  0  0
M  END
>  <MODEL>
1

>  <REMARK>
 VINA RESULT:      -8.4      0.000      0.000
  Name = 
  9 active torsions:
  status: ('A' for Active; 'I' for Inactive)
    1  A    between atoms: C_1  and  C_36
    2  A    between atoms: C_1  and  C_39
    3  A    between atoms: C_2  and  C_39
    4  A    between atoms: C_2  and  C_45
    5  A    between atoms: C_7  and  C_24
    6  A    between atoms: C_13  and  C_16
    7  A    between atoms: N_22  and  N_44
    8  A    between atoms: C_29  and  C_43
    9  A    between atoms: C_35  and  N_44
                            x       y       z     vdW  Elec       q    Type
                         _______ _______ _______ _____ _____    ______ ____

>  <TORSDO>
F 9

$$$$
=
 OpenBabel10222416473D

 45 52  0  0  1  0  0  0  0  0999 V2000
  183.1330  179.0380  142.6790 C   0  0  0  0  0  3  0  0  0  0  0  0
  185.5570  178.2240  139.1950 C   0  0  1  0  0  3  0  0  0  0  0  0
  186.0440  178.8910  137.9970 N   0  0  0  0  0  2  0  0  0  0  0  0
  183.4430  179.4600  143.9090 C   0  0  0  0  0  3  0  0  0  0  0  0
  184.0640  178.0910  141.9610 C   0  0  0  0  0  0  0  0  0  0  0  0
  186.6010  178.3370  141.5640 C   0  0  0  0  0  2  0  0  0  0  0  0
  185.5180  178.3020  142.3550 C   0  0  0  0  0  0  0  0  0  0  0  0
  186.6570  178.2680  140.1310 N   0  0  2  0  0  0  0  0  0  0  0  0
  183.4130  179.1260  138.6810 C   0  0  0  0  0  2  0  0  0  0  0  0
  183.7940  177.8360  140.5420 N   0  0  0  0  0  0  0  0  0  0  0  0
  187.8680  178.5500  139.4960 N   0  0  0  0  0  2  0  0  0  0  0  0
  182.0540  178.7000  139.1620 C   0  0  2  0  0  3  0  0  0  0  0  0
  182.3610  177.7400  140.2710 C   0  0  0  0  0  2  0  0  0  0  0  0
  185.7400  178.6000  143.7770 C   0  0  0  0  0  3  0  0  0  0  0  0
  184.7520  179.1120  144.5240 C   0  0  0  0  0  0  0  0  0  0  0  0
  184.3600  178.8550  139.7540 N   0  0  1  0  0  0  0  0  0  0  0  0
  187.5010  178.7830  138.1030 C   0  0  0  0  0  2  0  0  0  0  0  0
  181.3560  178.0060  138.0770 C   0  0  0  0  0  0  0  0  0  0  0  0
  180.7760  177.4160  137.1980 C   0  0  0  0  0  0  0  0  0  0  0  0
  180.0810  176.6590  136.1580 C   0  0  0  0  0  2  0  0  0  0  0  0
  180.7350  175.2990  135.9750 C   0  0  0  0  0  2  0  0  0  0  0  0
  180.5640  174.4280  137.2240 C   0  0  1  0  0  3  0  0  0  0  0  0
  179.3920  173.6840  137.1010 O   0  0  0  0  0  1  0  0  0  0  0  0
  184.2870  173.4380  137.1100 C   0  0  0  0  0  0  0  0  0  0  0  0
  183.2590  175.1250  138.4260 O   0  0  0  0  0  1  0  0  0  0  0  0
  182.9220  171.3800  136.9150 C   0  0  0  0  0  2  0  0  0  0  0  0
  181.7500  172.2920  136.5630 C   0  0  0  0  0  2  0  0  0  0  0  0
  185.5270  174.0470  137.1020 O   0  0  0  0  0  1  0  0  0  0  0  0
  183.0560  174.2890  137.3290 C   0  0  2  0  0  3  0  0  0  0  0  0
  181.7510  173.4970  137.5030 C   0  0  1  0  0  3  0  0  0  0  0  0
  184.2170  172.1280  136.8810 C   0  0  0  0  0  3  0  0  0  0  0  0
  185.0310  179.4230  145.8880 N   0  0  0  0  0  2  0  0  0  0  0  0
  184.9750  178.4610  146.9090 N   0  0  0  0  0  0  0  0  0  0  0  0
  186.0520  178.0870  147.5310 C   0  0  0  0  0  3  0  0  0  0  0  0
  189.2630  177.6010  147.2230 C   0  0  1  0  0  0  0  0  0  0  0  0
  187.3890  178.6750  147.1870 C   0  0  1  0  0  3  0  0  0  0  0  0
  187.6220  176.6140  145.7550 O   0  0  0  0  0  1  0  0  0  0  0  0
  189.6100  178.1820  145.8600 C   0  0  2  0  0  3  0  0  0  0  0  0
  188.4230  178.3680  148.2410 C   0  0  0  0  0  2  0  0  0  0  0  0
  188.1600  177.8470  146.1620 C   0  0  2  0  0  0  0  0  0  0  0  0
  189.4370  176.2330  147.4750 O   0  0  0  0  0  1  0  0  0  0  0  0
  190.1960  177.2750  144.7620 C   0  0  2  0  0  0  0  0  0  0  0  0
  191.6080  177.4980  144.4090 C   0  0  0  0  0  2  0  0  0  0  0  0
  189.3210  176.8800  143.5890 C   0  0  0  0  0  1  0  0  0  0  0  0
  191.1820  176.3440  145.0890 O   0  0  0  0  0  0  0  0  0  0  0  0
  1  4  1  0  0  0  0
  2  3  1  6  0  0  0
  2 16  1  0  0  0  0
  2  8  1  0  0  0  0
  3 17  1  0  0  0  0
  4 15  2  0  0  0  0
  5  7  1  0  0  0  0
  5  1  2  0  0  0  0
  6  7  1  0  0  0  0
  7 14  2  0  0  0  0
  8  6  1  1  0  0  0
  9 12  1  0  0  0  0
 10  5  1  0  0  0  0
 11  8  1  0  0  0  0
 12 18  1  6  0  0  0
 12 13  1  0  0  0  0
 13 10  1  0  0  0  0
 14 15  1  0  0  0  0
 15 32  1  0  0  0  0
 16  9  1  6  0  0  0
 16 10  1  0  0  0  0
 17 11  1  0  0  0  0
 19 18  3  0  0  0  0
 20 19  1  0  0  0  0
 21 20  1  0  0  0  0
 21 22  1  0  0  0  0
 22 23  1  6  0  0  0
 24 29  1  0  0  0  0
 27 26  1  0  0  0  0
 27 30  1  0  0  0  0
 28 24  1  0  0  0  0
 29 30  1  0  0  0  0
 29 25  1  1  0  0  0
 30 22  1  6  0  0  0
 31 26  1  0  0  0  0
 31 24  2  0  0  0  0
 32 33  1  0  0  0  0
 33 34  2  0  0  0  0
 35 41  1  1  0  0  0
 35 39  1  0  0  0  0
 36 34  1  1  0  0  0
 36 39  1  0  0  0  0
 38 42  1  6  0  0  0
 38 40  1  0  0  0  0
 38 35  1  0  0  0  0
 40 37  1  6  0  0  0
 40 36  1  0  0  0  0
 40 35  1  0  0  0  0
 42 44  1  6  0  0  0
 42 45  1  0  0  0  0
 43 42  1  0  0  0  0
 43 45  1  0  0  0  0
M  END
>  <MODEL>
2

>  <REMARK>
 VINA RESULT:      -8.3      2.863      4.616
  Name = 
  9 active torsions:
  status: ('A' for Active; 'I' for Inactive)
    1  A    between atoms: C_1  and  C_36
    2  A    between atoms: C_1  and  C_39
    3  A    between atoms: C_2  and  C_39
    4  A    between atoms: C_2  and  C_45
    5  A    between atoms: C_7  and  C_24
    6  A    between atoms: C_13  and  C_16
    7  A    between atoms: N_22  and  N_44
    8  A    between atoms: C_29  and  C_43
    9  A    between atoms: C_35  and  N_44
                            x       y       z     vdW  Elec       q    Type
                         _______ _______ _______ _____ _____    ______ ____

>  <TORSDO>
F 9

$$$$
=
 OpenBabel10222416473D

 45 52  0  0  1  0  0  0  0  0999 V2000
  186.7260  178.7270  141.8070 C   0  0  0  0  0  3  0  0  0  0  0  0
  190.0810  176.8580  143.7880 C   0  0  1  0  0  3  0  0  0  0  0  0
  191.4350  177.1720  144.2210 N   0  0  0  0  0  2  0  0  0  0  0  0
  185.6560  179.3770  142.2750 C   0  0  0  0  0  3  0  0  0  0  0  0
  187.2640  177.5370  142.5650 C   0  0  0  0  0  0  0  0  0  0  0  0
  187.8870  177.3810  145.0630 C   0  0  0  0  0  2  0  0  0  0  0  0
  187.0350  177.6580  144.0640 C   0  0  0  0  0  0  0  0  0  0  0  0
  189.2640  176.9820  144.9730 N   0  0  2  0  0  0  0  0  0  0  0  0
  190.6400  177.8690  141.7050 C   0  0  0  0  0  2  0  0  0  0  0  0
  188.5590  177.0000  142.1340 N   0  0  0  0  0  0  0  0  0  0  0  0
  190.0310  176.9650  146.1380 N   0  0  0  0  0  2  0  0  0  0  0  0
  189.9770  177.7290  140.3630 C   0  0  2  0  0  3  0  0  0  0  0  0
  188.6970  177.0170  140.6790 C   0  0  0  0  0  2  0  0  0  0  0  0
  185.7430  178.2420  144.4510 C   0  0  0  0  0  3  0  0  0  0  0  0
  185.0710  179.0250  143.5960 C   0  0  0  0  0  0  0  0  0  0  0  0
  189.6040  177.7380  142.7190 N   0  0  1  0  0  0  0  0  0  0  0  0
  191.4100  176.9180  145.6630 C   0  0  0  0  0  2  0  0  0  0  0  0
  190.8140  176.8940  139.4980 C   0  0  0  0  0  0  0  0  0  0  0  0
  191.5030  176.2230  138.7690 C   0  0  0  0  0  0  0  0  0  0  0  0
  192.3170  175.4330  137.8460 C   0  0  0  0  0  2  0  0  0  0  0  0
  191.4240  174.5860  136.9540 C   0  0  0  0  0  2  0  0  0  0  0  0
  190.8550  175.4110  135.7940 C   0  0  1  0  0  3  0  0  0  0  0  0
  191.0960  174.7360  134.5990 O   0  0  0  0  0  1  0  0  0  0  0  0
  187.8640  177.6350  136.7730 C   0  0  0  0  0  0  0  0  0  0  0  0
  189.3910  177.9390  134.9810 O   0  0  0  0  0  1  0  0  0  0  0  0
  187.2310  175.2660  137.1300 C   0  0  0  0  0  2  0  0  0  0  0  0
  188.7220  174.9480  137.0740 C   0  0  0  0  0  2  0  0  0  0  0  0
  187.5550  178.9770  136.8810 O   0  0  0  0  0  1  0  0  0  0  0  0
  189.1930  177.2360  136.1690 C   0  0  2  0  0  3  0  0  0  0  0  0
  189.3610  175.7280  135.9260 C   0  0  1  0  0  3  0  0  0  0  0  0
  186.9990  176.7400  137.2440 C   0  0  0  0  0  3  0  0  0  0  0  0
  183.8430  179.6020  144.0360 N   0  0  0  0  0  2  0  0  0  0  0  0
  182.6710  178.8480  144.2030 N   0  0  0  0  0  0  0  0  0  0  0  0
  181.9080  178.5700  143.1900 C   0  0  0  0  0  3  0  0  0  0  0  0
  181.2560  178.4140  139.9980 C   0  0  1  0  0  0  0  0  0  0  0  0
  182.2560  179.0380  141.8070 C   0  0  1  0  0  3  0  0  0  0  0  0
  179.7750  179.4290  141.6090 O   0  0  0  0  0  1  0  0  0  0  0  0
  181.1830  179.8650  139.5490 C   0  0  2  0  0  3  0  0  0  0  0  0
  182.4070  177.8840  140.8480 C   0  0  0  0  0  2  0  0  0  0  0  0
  181.0480  179.5520  141.0290 C   0  0  2  0  0  0  0  0  0  0  0  0
  180.1260  177.5880  139.9100 O   0  0  0  0  0  1  0  0  0  0  0  0
  179.8770  180.4250  138.9540 C   0  0  2  0  0  0  0  0  0  0  0  0
  179.7010  180.2790  137.5000 C   0  0  0  0  0  2  0  0  0  0  0  0
  179.3010  181.7070  139.5220 C   0  0  0  0  0  1  0  0  0  0  0  0
  178.9310  179.5490  138.4220 O   0  0  0  0  0  0  0  0  0  0  0  0
  1  4  2  0  0  0  0
  1  5  1  0  0  0  0
  2  3  1  1  0  0  0
  2  8  1  0  0  0  0
  3 17  1  0  0  0  0
  4 15  1  0  0  0  0
  5  7  2  0  0  0  0
  7 14  1  0  0  0  0
  7  6  1  0  0  0  0
  8  6  1  6  0  0  0
  8 11  1  0  0  0  0
 10  5  1  0  0  0  0
 10 16  1  0  0  0  0
 12 18  1  6  0  0  0
 12 13  1  0  0  0  0
 12  9  1  0  0  0  0
 13 10  1  0  0  0  0
 15 32  1  0  0  0  0
 15 14  2  0  0  0  0
 16  9  1  6  0  0  0
 16  2  1  0  0  0  0
 17 11  1  0  0  0  0
 19 18  3  0  0  0  0
 20 19  1  0  0  0  0
 21 20  1  0  0  0  0
 22 23  1  6  0  0  0
 22 21  1  0  0  0  0
 24 28  1  0  0  0  0
 24 31  2  0  0  0  0
 26 31  1  0  0  0  0
 27 26  1  0  0  0  0
 29 25  1  6  0  0  0
 29 24  1  0  0  0  0
 30 22  1  1  0  0  0
 30 29  1  0  0  0  0
 30 27  1  0  0  0  0
 32 33  1  0  0  0  0
 34 33  2  0  0  0  0
 35 41  1  6  0  0  0
 35 39  1  0  0  0  0
 35 40  1  0  0  0  0
 36 34  1  1  0  0  0
 38 42  1  6  0  0  0
 38 35  1  0  0  0  0
 38 40  1  0  0  0  0
 39 36  1  0  0  0  0
 40 37  1  1  0  0  0
 40 36  1  0  0  0  0
 42 44  1  1  0  0  0
 43 45  1  0  0  0  0
 43 42  1  0  0  0  0
 45 42  1  0  0  0  0
M  END
>  <MODEL>
3

>  <REMARK>
 VINA RESULT:      -8.3      3.750      7.768
  Name = 
  9 active torsions:
  status: ('A' for Active; 'I' for Inactive)
    1  A    between atoms: C_1  and  C_36
    2  A    between atoms: C_1  and  C_39
    3  A    between atoms: C_2  and  C_39
    4  A    between atoms: C_2  and  C_45
    5  A    between atoms: C_7  and  C_24
    6  A    between atoms: C_13  and  C_16
    7  A    between atoms: N_22  and  N_44
    8  A    between atoms: C_29  and  C_43
    9  A    between atoms: C_35  and  N_44
                            x       y       z     vdW  Elec       q    Type
                         _______ _______ _______ _____ _____    ______ ____

>  <TORSDO>
F 9

$$$$
=
 OpenBabel10222416473D

 45 52  0  0  1  0  0  0  0  0999 V2000
  186.8920  177.4630  137.9640 C   0  0  0  0  0  3  0  0  0  0  0  0
  191.1240  176.7000  137.5390 C   0  0  1  0  0  3  0  0  0  0  0  0
  192.0930  175.6390  137.7740 N   0  0  0  0  0  2  0  0  0  0  0  0
  185.8650  177.3200  137.1200 C   0  0  0  0  0  3  0  0  0  0  0  0
  188.2290  177.9260  137.4370 C   0  0  0  0  0  0  0  0  0  0  0  0
  189.5900  176.9650  135.4680 C   0  0  0  0  0  2  0  0  0  0  0  0
  188.4710  177.4740  136.0040 C   0  0  0  0  0  0  0  0  0  0  0  0
  190.8220  176.6350  136.1280 N   0  0  2  0  0  0  0  0  0  0  0  0
  190.2840  176.2510  139.7220 C   0  0  0  0  0  2  0  0  0  0  0  0
  189.3700  177.8540  138.3550 N   0  0  0  0  0  0  0  0  0  0  0  0
  191.7810  175.9050  135.4240 N   0  0  0  0  0  2  0  0  0  0  0  0
  189.4370  177.1120  140.6190 C   0  0  2  0  0  3  0  0  0  0  0  0
  188.9950  178.2250  139.7180 C   0  0  0  0  0  2  0  0  0  0  0  0
  187.2900  177.5200  135.1300 C   0  0  0  0  0  3  0  0  0  0  0  0
  186.0580  177.4850  135.6540 C   0  0  0  0  0  0  0  0  0  0  0  0
  189.9120  176.5550  138.3480 N   0  0  1  0  0  0  0  0  0  0  0  0
  192.6870  175.4080  136.4550 C   0  0  0  0  0  2  0  0  0  0  0  0
  190.2690  177.6430  141.7010 C   0  0  0  0  0  0  0  0  0  0  0  0
  190.9580  178.0590  142.6000 C   0  0  0  0  0  0  0  0  0  0  0  0
  191.7830  178.5220  143.7150 C   0  0  0  0  0  2  0  0  0  0  0  0
  190.9570  178.5740  144.9910 C   0  0  0  0  0  2  0  0  0  0  0  0
  190.5610  177.1680  145.4540 C   0  0  1  0  0  3  0  0  0  0  0  0
  191.5430  176.6810  146.3140 O   0  0  0  0  0  1  0  0  0  0  0  0
  186.8340  178.0760  145.8220 C   0  0  0  0  0  0  0  0  0  0  0  0
  187.8530  176.7110  144.1690 O   0  0  0  0  0  1  0  0  0  0  0  0
  187.7900  177.7560  148.0850 C   0  0  0  0  0  2  0  0  0  0  0  0
  189.1630  177.8980  147.4320 C   0  0  0  0  0  2  0  0  0  0  0  0
  185.7650  178.4340  145.0230 O   0  0  0  0  0  1  0  0  0  0  0  0
  188.1270  177.6480  145.1650 C   0  0  2  0  0  3  0  0  0  0  0  0
  189.1870  177.0970  146.1310 C   0  0  1  0  0  3  0  0  0  0  0  0
  186.7010  178.1630  147.1440 C   0  0  0  0  0  3  0  0  0  0  0  0
  184.9460  177.4880  134.7600 N   0  0  0  0  0  2  0  0  0  0  0  0
  184.0370  176.4210  134.6830 N   0  0  0  0  0  0  0  0  0  0  0  0
  182.8770  176.4900  135.2620 C   0  0  0  0  0  3  0  0  0  0  0  0
  180.9200  177.7750  137.5330 C   0  0  1  0  0  0  0  0  0  0  0  0
  182.4660  177.7150  136.0260 C   0  0  1  0  0  3  0  0  0  0  0  0
  182.6800  176.2020  138.0300 O   0  0  0  0  0  1  0  0  0  0  0  0
  181.8510  178.5610  138.4440 C   0  0  2  0  0  3  0  0  0  0  0  0
  180.9700  177.9060  136.0140 C   0  0  0  0  0  2  0  0  0  0  0  0
  182.4440  177.4960  137.5370 C   0  0  2  0  0  0  0  0  0  0  0  0
  180.1970  176.6820  138.0330 O   0  0  0  0  0  1  0  0  0  0  0  0
  181.9730  178.1850  139.9330 C   0  0  2  0  0  0  0  0  0  0  0  0
  181.0790  178.8920  140.8640 C   0  0  0  0  0  2  0  0  0  0  0  0
  183.3430  177.8760  140.5040 C   0  0  0  0  0  1  0  0  0  0  0  0
  180.9190  177.5280  140.5670 O   0  0  0  0  0  0  0  0  0  0  0  0
  2  3  1  1  0  0  0
  2 16  1  0  0  0  0
  4  1  2  0  0  0  0
  5  1  1  0  0  0  0
  5 10  1  0  0  0  0
  6  7  1  0  0  0  0
  7  5  2  0  0  0  0
  8  6  1  1  0  0  0
  8  2  1  0  0  0  0
  9 12  1  0  0  0  0
 10 13  1  0  0  0  0
 11  8  1  0  0  0  0
 11 17  1  0  0  0  0
 12 18  1  1  0  0  0
 13 12  1  0  0  0  0
 14 15  2  0  0  0  0
 14  7  1  0  0  0  0
 15  4  1  0  0  0  0
 16 10  1  0  0  0  0
 16  9  1  1  0  0  0
 17  3  1  0  0  0  0
 18 19  3  0  0  0  0
 19 20  1  0  0  0  0
 20 21  1  0  0  0  0
 21 22  1  0  0  0  0
 22 23  1  1  0  0  0
 24 31  2  0  0  0  0
 27 26  1  0  0  0  0
 28 24  1  0  0  0  0
 29 25  1  6  0  0  0
 29 24  1  0  0  0  0
 29 30  1  0  0  0  0
 30 22  1  6  0  0  0
 30 27  1  0  0  0  0
 31 26  1  0  0  0  0
 32 15  1  0  0  0  0
 33 32  1  0  0  0  0
 33 34  2  0  0  0  0
 35 40  1  0  0  0  0
 35 41  1  1  0  0  0
 35 38  1  0  0  0  0
 36 34  1  6  0  0  0
 36 40  1  0  0  0  0
 38 42  1  1  0  0  0
 39 36  1  0  0  0  0
 39 35  1  0  0  0  0
 40 37  1  1  0  0  0
 40 38  1  0  0  0  0
 42 44  1  1  0  0  0
 42 45  1  0  0  0  0
 42 43  1  0  0  0  0
 45 43  1  0  0  0  0
M  END
>  <MODEL>
4

>  <REMARK>
 VINA RESULT:      -8.3      4.055     10.275
  Name = 
  9 active torsions:
  status: ('A' for Active; 'I' for Inactive)
    1  A    between atoms: C_1  and  C_36
    2  A    between atoms: C_1  and  C_39
    3  A    between atoms: C_2  and  C_39
    4  A    between atoms: C_2  and  C_45
    5  A    between atoms: C_7  and  C_24
    6  A    between atoms: C_13  and  C_16
    7  A    between atoms: N_22  and  N_44
    8  A    between atoms: C_29  and  C_43
    9  A    between atoms: C_35  and  N_44
                            x       y       z     vdW  Elec       q    Type
                         _______ _______ _______ _____ _____    ______ ____

>  <TORSDO>
F 9

$$$$
=
 OpenBabel10222416473D

 45 52  0  0  1  0  0  0  0  0999 V2000
  185.1970  178.0160  142.4260 C   0  0  0  0  0  3  0  0  0  0  0  0
  180.9590  178.8040  142.1200 C   0  0  1  0  0  3  0  0  0  0  0  0
  179.6980  178.0860  142.0050 N   0  0  0  0  0  2  0  0  0  0  0  0
  186.0090  177.8700  143.4770 C   0  0  0  0  0  3  0  0  0  0  0  0
  184.0750  179.0250  142.4850 C   0  0  0  0  0  0  0  0  0  0  0  0
  182.2650  179.2970  144.3030 C   0  0  0  0  0  2  0  0  0  0  0  0
  183.5410  179.2100  143.8980 C   0  0  0  0  0  0  0  0  0  0  0  0
  181.0720  179.1540  143.5180 N   0  0  2  0  0  0  0  0  0  0  0  0
  181.7930  177.3740  140.4080 C   0  0  0  0  0  2  0  0  0  0  0  0
  183.0860  178.9890  141.4040 N   0  0  0  0  0  0  0  0  0  0  0  0
  179.8460  179.0570  144.1790 N   0  0  0  0  0  2  0  0  0  0  0  0
  182.9820  177.5530  139.5050 C   0  0  2  0  0  3  0  0  0  0  0  0
  183.7070  178.7170  140.1090 C   0  0  0  0  0  2  0  0  0  0  0  0
  184.5620  179.1940  144.9560 C   0  0  0  0  0  3  0  0  0  0  0  0
  185.7430  178.5950  144.7490 C   0  0  0  0  0  0  0  0  0  0  0  0
  182.1090  178.0140  141.6760 N   0  0  1  0  0  0  0  0  0  0  0  0
  178.9310  178.5340  143.1690 C   0  0  0  0  0  2  0  0  0  0  0  0
  182.5160  177.8960  138.1590 C   0  0  0  0  0  0  0  0  0  0  0  0
  182.1090  178.1730  137.0570 C   0  0  0  0  0  0  0  0  0  0  0  0
  181.5790  178.4790  135.7290 C   0  0  0  0  0  2  0  0  0  0  0  0
  181.1380  179.9320  135.6640 C   0  0  0  0  0  2  0  0  0  0  0  0
  179.6110  180.0520  135.7080 C   0  0  1  0  0  3  0  0  0  0  0  0
  179.0730  178.8320  136.1140 O   0  0  0  0  0  1  0  0  0  0  0  0
  179.6470  183.6330  137.1320 C   0  0  0  0  0  0  0  0  0  0  0  0
  178.9900  182.9250  134.9640 O   0  0  0  0  0  1  0  0  0  0  0  0
  178.9350  182.0820  138.9280 C   0  0  0  0  0  2  0  0  0  0  0  0
  179.5080  180.9590  138.0690 C   0  0  0  0  0  2  0  0  0  0  0  0
  179.9880  184.9110  136.7300 O   0  0  0  0  0  1  0  0  0  0  0  0
  179.6660  182.5160  136.1120 C   0  0  2  0  0  3  0  0  0  0  0  0
  179.0980  181.1790  136.6130 C   0  0  1  0  0  3  0  0  0  0  0  0
  179.3560  183.4230  138.4140 C   0  0  0  0  0  3  0  0  0  0  0  0
  186.6820  178.5700  145.8220 N   0  0  0  0  0  2  0  0  0  0  0  0
  187.2360  177.3770  146.3120 N   0  0  0  0  0  0  0  0  0  0  0  0
  188.4340  177.0100  145.9720 C   0  0  0  0  0  3  0  0  0  0  0  0
  190.8140  177.0970  143.7430 C   0  0  1  0  0  0  0  0  0  0  0  0
  189.2690  177.8510  145.0500 C   0  0  1  0  0  3  0  0  0  0  0  0
  188.6520  176.1040  143.3410 O   0  0  0  0  0  1  0  0  0  0  0  0
  190.2450  177.9320  142.6050 C   0  0  2  0  0  3  0  0  0  0  0  0
  190.7400  177.5510  145.1980 C   0  0  0  0  0  2  0  0  0  0  0  0
  189.2870  177.3270  143.6160 C   0  0  2  0  0  0  0  0  0  0  0  0
  191.1490  175.7520  143.5340 O   0  0  0  0  0  1  0  0  0  0  0  0
  190.0740  177.3140  141.2050 C   0  0  2  0  0  0  0  0  0  0  0  0
  191.2870  177.2140  140.3780 C   0  0  0  0  0  2  0  0  0  0  0  0
  188.8120  177.6110  140.4180 C   0  0  0  0  0  1  0  0  0  0  0  0
  190.6580  176.0800  140.9190 O   0  0  0  0  0  0  0  0  0  0  0  0
  1  5  2  0  0  0  0
  1  4  1  0  0  0  0
  2  3  1  1  0  0  0
  2  8  1  0  0  0  0
  3 17  1  0  0  0  0
  4 15  2  0  0  0  0
  5  7  1  0  0  0  0
  7  6  1  0  0  0  0
  7 14  2  0  0  0  0
  8 11  1  0  0  0  0
  8  6  1  1  0  0  0
 10 16  1  0  0  0  0
 10  5  1  0  0  0  0
 12 18  1  6  0  0  0
 12 13  1  0  0  0  0
 12  9  1  0  0  0  0
 13 10  1  0  0  0  0
 15 14  1  0  0  0  0
 15 32  1  0  0  0  0
 16  9  1  6  0  0  0
 16  2  1  0  0  0  0
 17 11  1  0  0  0  0
 19 18  3  0  0  0  0
 20 19  1  0  0  0  0
 21 22  1  0  0  0  0
 21 20  1  0  0  0  0
 22 23  1  1  0  0  0
 24 31  2  0  0  0  0
 27 26  1  0  0  0  0
 28 24  1  0  0  0  0
 29 25  1  6  0  0  0
 29 30  1  0  0  0  0
 29 24  1  0  0  0  0
 30 22  1  6  0  0  0
 30 27  1  0  0  0  0
 31 26  1  0  0  0  0
 32 33  1  0  0  0  0
 34 33  2  0  0  0  0
 35 41  1  6  0  0  0
 35 39  1  0  0  0  0
 36 39  1  0  0  0  0
 36 34  1  1  0  0  0
 38 42  1  6  0  0  0
 38 40  1  0  0  0  0
 38 35  1  0  0  0  0
 40 37  1  6  0  0  0
 40 35  1  0  0  0  0
 40 36  1  0  0  0  0
 42 44  1  6  0  0  0
 43 45  1  0  0  0  0
 43 42  1  0  0  0  0
 45 42  1  0  0  0  0
M  END
>  <MODEL>
5

>  <REMARK>
 VINA RESULT:      -7.9      3.897      5.489
  Name = 
  9 active torsions:
  status: ('A' for Active; 'I' for Inactive)
    1  A    between atoms: C_1  and  C_36
    2  A    between atoms: C_1  and  C_39
    3  A    between atoms: C_2  and  C_39
    4  A    between atoms: C_2  and  C_45
    5  A    between atoms: C_7  and  C_24
    6  A    between atoms: C_13  and  C_16
    7  A    between atoms: N_22  and  N_44
    8  A    between atoms: C_29  and  C_43
    9  A    between atoms: C_35  and  N_44
                            x       y       z     vdW  Elec       q    Type
                         _______ _______ _______ _____ _____    ______ ____

>  <TORSDO>
F 9

$$$$
=
 OpenBabel10222416473D

 45 52  0  0  1  0  0  0  0  0999 V2000
  188.2620  177.8480  141.2880 C   0  0  0  0  0  3  0  0  0  0  0  0
  187.5500  177.1230  137.0880 C   0  0  1  0  0  3  0  0  0  0  0  0
  187.3410  176.0140  136.1680 N   0  0  0  0  0  2  0  0  0  0  0  0
  187.4350  178.0960  142.3090 C   0  0  0  0  0  3  0  0  0  0  0  0
  187.9540  178.4200  139.9250 C   0  0  0  0  0  0  0  0  0  0  0  0
  185.7590  178.2550  138.5800 C   0  0  0  0  0  2  0  0  0  0  0  0
  186.4590  178.5610  139.6830 C   0  0  0  0  0  0  0  0  0  0  0  0
  186.2290  177.6360  137.3730 N   0  0  2  0  0  0  0  0  0  0  0  0
  189.3810  175.8870  137.9760 C   0  0  0  0  0  2  0  0  0  0  0  0
  188.7640  177.9390  138.8000 N   0  0  0  0  0  0  0  0  0  0  0  0
  185.2890  177.2010  136.4370 N   0  0  0  0  0  2  0  0  0  0  0  0
  190.5490  176.3600  138.7970 C   0  0  2  0  0  3  0  0  0  0  0  0
  190.1640  177.7580  139.1780 C   0  0  0  0  0  2  0  0  0  0  0  0
  185.6790  179.0020  140.8490 C   0  0  0  0  0  3  0  0  0  0  0  0
  186.1530  178.8180  142.0890 C   0  0  0  0  0  0  0  0  0  0  0  0
  188.2410  176.7260  138.3150 N   0  0  1  0  0  0  0  0  0  0  0  0
  186.0360  176.2970  135.5680 C   0  0  0  0  0  2  0  0  0  0  0  0
  191.7490  176.3830  137.9570 C   0  0  0  0  0  0  0  0  0  0  0  0
  192.7350  176.3780  137.2600 C   0  0  0  0  0  0  0  0  0  0  0  0
  193.9330  176.3230  136.4240 C   0  0  0  0  0  2  0  0  0  0  0  0
  194.1250  174.9180  135.8750 C   0  0  0  0  0  2  0  0  0  0  0  0
  194.4320  173.9210  136.9980 C   0  0  1  0  0  3  0  0  0  0  0  0
  193.6890  172.7610  136.7880 O   0  0  0  0  0  1  0  0  0  0  0  0
  198.0570  174.6150  138.1070 C   0  0  0  0  0  0  0  0  0  0  0  0
  196.1810  174.1010  139.4680 O   0  0  0  0  0  1  0  0  0  0  0  0
  198.1170  173.3250  135.9920 C   0  0  0  0  0  2  0  0  0  0  0  0
  196.6560  173.7250  135.8060 C   0  0  0  0  0  2  0  0  0  0  0  0
  198.7290  175.2980  139.1020 O   0  0  0  0  0  1  0  0  0  0  0  0
  196.5500  174.5040  138.1850 C   0  0  2  0  0  3  0  0  0  0  0  0
  195.9190  173.5750  137.1370 C   0  0  1  0  0  3  0  0  0  0  0  0
  198.7560  174.1150  137.0900 C   0  0  0  0  0  3  0  0  0  0  0  0
  185.3380  179.2250  143.1880 N   0  0  0  0  0  2  0  0  0  0  0  0
  184.6830  178.3060  144.0220 N   0  0  0  0  0  0  0  0  0  0  0  0
  185.1450  178.0320  145.2040 C   0  0  0  0  0  3  0  0  0  0  0  0
  187.6840  177.8800  147.2460 C   0  0  1  0  0  0  0  0  0  0  0  0
  186.3890  178.6930  145.7210 C   0  0  1  0  0  3  0  0  0  0  0  0
  187.4250  176.4290  145.3370 O   0  0  0  0  0  1  0  0  0  0  0  0
  188.8920  178.2100  146.3830 C   0  0  2  0  0  3  0  0  0  0  0  0
  186.4170  178.7310  147.2290 C   0  0  0  0  0  2  0  0  0  0  0  0
  187.6060  177.7730  145.7020 C   0  0  2  0  0  0  0  0  0  0  0  0
  187.5710  176.6210  147.8540 O   0  0  0  0  0  1  0  0  0  0  0  0
  190.0200  177.1760  146.2070 C   0  0  2  0  0  0  0  0  0  0  0  0
  191.0480  177.1380  147.2600 C   0  0  0  0  0  2  0  0  0  0  0  0
  190.5510  176.8960  144.8140 C   0  0  0  0  0  1  0  0  0  0  0  0
  190.1150  176.1010  147.0910 O   0  0  0  0  0  0  0  0  0  0  0  0
  1  4  1  0  0  0  0
  2  3  1  6  0  0  0
  2  8  1  0  0  0  0
  2 16  1  0  0  0  0
  5  1  2  0  0  0  0
  6  7  1  0  0  0  0
  7  5  1  0  0  0  0
  7 14  2  0  0  0  0
  8  6  1  1  0  0  0
  9 12  1  0  0  0  0
 10 13  1  0  0  0  0
 10  5  1  0  0  0  0
 11  8  1  0  0  0  0
 12 18  1  6  0  0  0
 12 13  1  0  0  0  0
 14 15  1  0  0  0  0
 15  4  2  0  0  0  0
 15 32  1  0  0  0  0
 16  9  1  6  0  0  0
 16 10  1  0  0  0  0
 17  3  1  0  0  0  0
 17 11  1  0  0  0  0
 19 18  3  0  0  0  0
 20 19  1  0  0  0  0
 21 20  1  0  0  0  0
 21 22  1  0  0  0  0
 22 23  1  6  0  0  0
 24 29  1  0  0  0  0
 24 28  1  0  0  0  0
 26 31  1  0  0  0  0
 27 26  1  0  0  0  0
 27 30  1  0  0  0  0
 29 25  1  1  0  0  0
 30 22  1  6  0  0  0
 30 29  1  0  0  0  0
 31 24  2  0  0  0  0
 32 33  1  0  0  0  0
 33 34  2  0  0  0  0
 35 41  1  1  0  0  0
 36 34  1  1  0  0  0
 36 39  1  0  0  0  0
 38 42  1  1  0  0  0
 38 35  1  0  0  0  0
 39 35  1  0  0  0  0
 40 37  1  6  0  0  0
 40 36  1  0  0  0  0
 40 38  1  0  0  0  0
 40 35  1  0  0  0  0
 42 44  1  6  0  0  0
 42 45  1  0  0  0  0
 42 43  1  0  0  0  0
 45 43  1  0  0  0  0
M  END
>  <MODEL>
6

>  <REMARK>
 VINA RESULT:      -7.9      4.594      6.420
  Name = 
  9 active torsions:
  status: ('A' for Active; 'I' for Inactive)
    1  A    between atoms: C_1  and  C_36
    2  A    between atoms: C_1  and  C_39
    3  A    between atoms: C_2  and  C_39
    4  A    between atoms: C_2  and  C_45
    5  A    between atoms: C_7  and  C_24
    6  A    between atoms: C_13  and  C_16
    7  A    between atoms: N_22  and  N_44
    8  A    between atoms: C_29  and  C_43
    9  A    between atoms: C_35  and  N_44
                            x       y       z     vdW  Elec       q    Type
                         _______ _______ _______ _____ _____    ______ ____

>  <TORSDO>
F 9

$$$$
=
 OpenBabel10222416473D

 45 52  0  0  1  0  0  0  0  0999 V2000
  189.2650  177.1710  140.5480 C   0  0  0  0  0  3  0  0  0  0  0  0
  189.0520  177.8150  144.8160 C   0  0  1  0  0  3  0  0  0  0  0  0
  188.6800  177.1070  146.0320 N   0  0  0  0  0  2  0  0  0  0  0  0
  190.2550  176.7550  139.7520 C   0  0  0  0  0  3  0  0  0  0  0  0
  189.5810  178.0620  141.7250 C   0  0  0  0  0  0  0  0  0  0  0  0
  191.3290  177.6920  143.5860 C   0  0  0  0  0  2  0  0  0  0  0  0
  190.9640  177.7900  142.2990 C   0  0  0  0  0  0  0  0  0  0  0  0
  190.4930  177.7350  144.7530 N   0  0  2  0  0  0  0  0  0  0  0  0
  187.0230  177.0060  143.8670 C   0  0  0  0  0  2  0  0  0  0  0  0
  188.5020  178.3070  142.6880 N   0  0  0  0  0  0  0  0  0  0  0  0
  191.0490  177.3870  145.9850 N   0  0  0  0  0  2  0  0  0  0  0  0
  186.2590  177.5030  142.6710 C   0  0  2  0  0  3  0  0  0  0  0  0
  187.2090  178.4650  142.0250 C   0  0  0  0  0  2  0  0  0  0  0  0
  192.0060  177.5050  141.3020 C   0  0  0  0  0  3  0  0  0  0  0  0
  191.6740  177.0520  140.0850 C   0  0  0  0  0  0  0  0  0  0  0  0
  188.4350  177.2500  143.6140 N   0  0  1  0  0  0  0  0  0  0  0  0
  189.8960  177.1480  146.8480 C   0  0  0  0  0  2  0  0  0  0  0  0
  185.0610  178.2110  143.1260 C   0  0  0  0  0  0  0  0  0  0  0  0
  184.0640  178.7750  143.5090 C   0  0  0  0  0  0  0  0  0  0  0  0
  182.8330  179.4140  143.9680 C   0  0  0  0  0  2  0  0  0  0  0  0
  181.6490  178.4840  143.7550 C   0  0  0  0  0  2  0  0  0  0  0  0
  180.5200  179.1880  142.9930 C   0  0  1  0  0  3  0  0  0  0  0  0
  180.6690  180.5660  143.1340 O   0  0  0  0  0  1  0  0  0  0  0  0
  180.8080  176.7600  140.0130 C   0  0  0  0  0  0  0  0  0  0  0  0
  179.1560  176.7980  141.7180 O   0  0  0  0  0  1  0  0  0  0  0  0
  181.4840  179.0180  139.2520 C   0  0  0  0  0  2  0  0  0  0  0  0
  181.6350  179.3770  140.7280 C   0  0  0  0  0  2  0  0  0  0  0  0
  180.6610  175.4110  139.7510 O   0  0  0  0  0  1  0  0  0  0  0  0
  180.4170  177.2860  141.3770 C   0  0  2  0  0  3  0  0  0  0  0  0
  180.4450  178.8170  141.5060 C   0  0  1  0  0  3  0  0  0  0  0  0
  181.3290  177.5420  139.0710 C   0  0  0  0  0  3  0  0  0  0  0  0
  192.7250  176.7500  139.1690 N   0  0  0  0  0  2  0  0  0  0  0  0
  192.5450  176.7810  137.7770 N   0  0  0  0  0  0  0  0  0  0  0  0
  192.9420  175.7950  137.0320 C   0  0  0  0  0  3  0  0  0  0  0  0
  194.9260  173.2450  136.5820 C   0  0  1  0  0  0  0  0  0  0  0  0
  193.5990  174.5870  137.6330 C   0  0  1  0  0  3  0  0  0  0  0  0
  195.6840  175.5350  136.5840 O   0  0  0  0  0  1  0  0  0  0  0  0
  195.8930  173.2990  137.7560 C   0  0  2  0  0  3  0  0  0  0  0  0
  193.4160  173.3630  136.7690 C   0  0  0  0  0  2  0  0  0  0  0  0
  195.1070  174.5490  137.4000 C   0  0  2  0  0  0  0  0  0  0  0  0
  195.3970  173.3940  135.2700 O   0  0  0  0  0  1  0  0  0  0  0  0
  197.4030  173.4740  137.5050 C   0  0  2  0  0  0  0  0  0  0  0  0
  198.1680  172.2490  137.2180 C   0  0  0  0  0  2  0  0  0  0  0  0
  198.1670  174.5070  138.3080 C   0  0  0  0  0  1  0  0  0  0  0  0
  197.9240  173.2240  136.2350 O   0  0  0  0  0  0  0  0  0  0  0  0
  1  5  1  0  0  0  0
  2  3  1  1  0  0  0
  3 17  1  0  0  0  0
  4 15  1  0  0  0  0
  4  1  2  0  0  0  0
  5  7  2  0  0  0  0
  5 10  1  0  0  0  0
  7  6  1  0  0  0  0
  8  6  1  6  0  0  0
  8  2  1  0  0  0  0
  8 11  1  0  0  0  0
 10 16  1  0  0  0  0
 11 17  1  0  0  0  0
 12 18  1  1  0  0  0
 12  9  1  0  0  0  0
 13 12  1  0  0  0  0
 13 10  1  0  0  0  0
 14  7  1  0  0  0  0
 15 14  2  0  0  0  0
 16  9  1  1  0  0  0
 16  2  1  0  0  0  0
 18 19  3  0  0  0  0
 19 20  1  0  0  0  0
 21 20  1  0  0  0  0
 22 23  1  6  0  0  0
 22 21  1  0  0  0  0
 24 29  1  0  0  0  0
 26 27  1  0  0  0  0
 27 30  1  0  0  0  0
 28 24  1  0  0  0  0
 29 30  1  0  0  0  0
 29 25  1  6  0  0  0
 30 22  1  1  0  0  0
 31 26  1  0  0  0  0
 31 24  2  0  0  0  0
 32 15  1  0  0  0  0
 33 32  1  0  0  0  0
 34 33  2  0  0  0  0
 35 41  1  6  0  0  0
 35 39  1  0  0  0  0
 35 40  1  0  0  0  0
 35 38  1  0  0  0  0
 36 34  1  6  0  0  0
 38 42  1  6  0  0  0
 39 36  1  0  0  0  0
 40 37  1  6  0  0  0
 40 36  1  0  0  0  0
 40 38  1  0  0  0  0
 42 44  1  1  0  0  0
 43 42  1  0  0  0  0
 45 43  1  0  0  0  0
 45 42  1  0  0  0  0
M  END
>  <MODEL>
7

>  <REMARK>
 VINA RESULT:      -7.9      5.304      9.682
  Name = 
  9 active torsions:
  status: ('A' for Active; 'I' for Inactive)
    1  A    between atoms: C_1  and  C_36
    2  A    between atoms: C_1  and  C_39
    3  A    between atoms: C_2  and  C_39
    4  A    between atoms: C_2  and  C_45
    5  A    between atoms: C_7  and  C_24
    6  A    between atoms: C_13  and  C_16
    7  A    between atoms: N_22  and  N_44
    8  A    between atoms: C_29  and  C_43
    9  A    between atoms: C_35  and  N_44
                            x       y       z     vdW  Elec       q    Type
                         _______ _______ _______ _____ _____    ______ ____

>  <TORSDO>
F 9

$$$$
=
 OpenBabel10222416473D

 45 52  0  0  1  0  0  0  0  0999 V2000
  183.1590  178.3920  141.6610 C   0  0  0  0  0  3  0  0  0  0  0  0
  187.4790  178.3140  141.7050 C   0  0  1  0  0  3  0  0  0  0  0  0
  188.5740  177.3710  141.8810 N   0  0  0  0  0  2  0  0  0  0  0  0
  182.2690  178.2790  140.6700 C   0  0  0  0  0  3  0  0  0  0  0  0
  184.4540  179.1280  141.4180 C   0  0  0  0  0  0  0  0  0  0  0  0
  186.1640  178.7690  139.5200 C   0  0  0  0  0  2  0  0  0  0  0  0
  184.9240  179.0050  139.9760 C   0  0  0  0  0  0  0  0  0  0  0  0
  187.3510  178.4880  140.2770 N   0  0  2  0  0  0  0  0  0  0  0  0
  186.4840  177.3340  143.6340 C   0  0  0  0  0  2  0  0  0  0  0  0
  185.4830  179.0340  142.4590 N   0  0  0  0  0  0  0  0  0  0  0  0
  188.4880  178.0490  139.5960 N   0  0  0  0  0  2  0  0  0  0  0  0
  185.4140  177.8770  144.5420 C   0  0  2  0  0  3  0  0  0  0  0  0
  184.9020  179.0740  143.8000 C   0  0  0  0  0  2  0  0  0  0  0  0
  183.8570  179.0590  138.9670 C   0  0  0  0  0  3  0  0  0  0  0  0
  182.5950  178.7530  139.2980 C   0  0  0  0  0  0  0  0  0  0  0  0
  186.2240  177.8490  142.2980 N   0  0  1  0  0  0  0  0  0  0  0  0
  189.3410  177.4880  140.6390 C   0  0  0  0  0  2  0  0  0  0  0  0
  186.0240  178.2940  145.8070 C   0  0  0  0  0  0  0  0  0  0  0  0
  186.5470  178.6270  146.8430 C   0  0  0  0  0  0  0  0  0  0  0  0
  187.2110  178.9920  148.0920 C   0  0  0  0  0  2  0  0  0  0  0  0
  188.7200  178.9390  147.9180 C   0  0  0  0  0  2  0  0  0  0  0  0
  189.2510  177.5130  148.1030 C   0  0  1  0  0  3  0  0  0  0  0  0
  188.2260  176.6100  147.8300 O   0  0  0  0  0  1  0  0  0  0  0  0
  191.0100  176.2710  144.9070 C   0  0  0  0  0  0  0  0  0  0  0  0
  189.7900  178.2830  145.2200 O   0  0  0  0  0  1  0  0  0  0  0  0
  192.4060  175.6570  146.8600 C   0  0  0  0  0  2  0  0  0  0  0  0
  191.1670  175.9060  147.7160 C   0  0  0  0  0  2  0  0  0  0  0  0
  190.7800  176.2150  143.5460 O   0  0  0  0  0  1  0  0  0  0  0  0
  190.0390  177.0310  145.7830 C   0  0  2  0  0  3  0  0  0  0  0  0
  190.4800  177.1880  147.2460 C   0  0  1  0  0  3  0  0  0  0  0  0
  192.0560  175.6160  145.4060 C   0  0  0  0  0  3  0  0  0  0  0  0
  181.6040  178.7800  138.2730 N   0  0  0  0  0  2  0  0  0  0  0  0
  181.9280  178.7170  136.9080 N   0  0  0  0  0  0  0  0  0  0  0  0
  181.9610  177.5790  136.2840 C   0  0  0  0  0  3  0  0  0  0  0  0
  181.5870  174.3460  136.0690 C   0  0  1  0  0  0  0  0  0  0  0  0
  181.6470  176.2960  136.9960 C   0  0  1  0  0  3  0  0  0  0  0  0
  183.7140  175.4570  135.8230 O   0  0  0  0  0  1  0  0  0  0  0  0
  182.4150  173.7860  137.2160 C   0  0  2  0  0  3  0  0  0  0  0  0
  180.6000  175.4920  136.2660 C   0  0  0  0  0  2  0  0  0  0  0  0
  182.6850  175.2050  136.7460 C   0  0  2  0  0  0  0  0  0  0  0  0
  181.9200  174.0410  134.7420 O   0  0  0  0  0  1  0  0  0  0  0  0
  183.6000  172.8450  136.9260 C   0  0  2  0  0  0  0  0  0  0  0  0
  183.2830  171.4160  136.7740 C   0  0  0  0  0  2  0  0  0  0  0  0
  184.9350  173.1150  137.5920 C   0  0  0  0  0  1  0  0  0  0  0  0
  183.6880  172.2090  135.6870 O   0  0  0  0  0  0  0  0  0  0  0  0
  2  3  1  6  0  0  0
  2 16  1  0  0  0  0
  4  1  2  0  0  0  0
  5  1  1  0  0  0  0
  5 10  1  0  0  0  0
  6  7  1  0  0  0  0
  7  5  2  0  0  0  0
  8  6  1  6  0  0  0
  8  2  1  0  0  0  0
  9 12  1  0  0  0  0
 10 13  1  0  0  0  0
 11  8  1  0  0  0  0
 11 17  1  0  0  0  0
 12 18  1  1  0  0  0
 13 12  1  0  0  0  0
 14 15  2  0  0  0  0
 14  7  1  0  0  0  0
 15  4  1  0  0  0  0
 16 10  1  0  0  0  0
 16  9  1  1  0  0  0
 17  3  1  0  0  0  0
 18 19  3  0  0  0  0
 19 20  1  0  0  0  0
 21 20  1  0  0  0  0
 21 22  1  0  0  0  0
 22 23  1  6  0  0  0
 24 31  2  0  0  0  0
 24 29  1  0  0  0  0
 26 27  1  0  0  0  0
 28 24  1  0  0  0  0
 29 25  1  6  0  0  0
 29 30  1  0  0  0  0
 30 27  1  0  0  0  0
 30 22  1  1  0  0  0
 31 26  1  0  0  0  0
 32 15  1  0  0  0  0
 33 32  1  0  0  0  0
 34 33  2  0  0  0  0
 35 41  1  6  0  0  0
 35 39  1  0  0  0  0
 35 40  1  0  0  0  0
 35 38  1  0  0  0  0
 36 34  1  6  0  0  0
 38 42  1  6  0  0  0
 39 36  1  0  0  0  0
 40 37  1  6  0  0  0
 40 36  1  0  0  0  0
 40 38  1  0  0  0  0
 42 44  1  1  0  0  0
 43 42  1  0  0  0  0
 45 43  1  0  0  0  0
 45 42  1  0  0  0  0
M  END
>  <MODEL>
8

>  <REMARK>
 VINA RESULT:      -7.4      2.936      9.638
  Name = 
  9 active torsions:
  status: ('A' for Active; 'I' for Inactive)
    1  A    between atoms: C_1  and  C_36
    2  A    between atoms: C_1  and  C_39
    3  A    between atoms: C_2  and  C_39
    4  A    between atoms: C_2  and  C_45
    5  A    between atoms: C_7  and  C_24
    6  A    between atoms: C_13  and  C_16
    7  A    between atoms: N_22  and  N_44
    8  A    between atoms: C_29  and  C_43
    9  A    between atoms: C_35  and  N_44
                            x       y       z     vdW  Elec       q    Type
                         _______ _______ _______ _____ _____    ______ ____

>  <TORSDO>
F 9

$$$$
=
 OpenBabel10222416473D

 45 52  0  0  1  0  0  0  0  0999 V2000
  185.6080  177.1000  136.2370 C   0  0  0  0  0  3  0  0  0  0  0  0
  182.7440  174.0900  137.4240 C   0  0  1  0  0  3  0  0  0  0  0  0
  181.5610  173.4130  136.9100 N   0  0  0  0  0  2  0  0  0  0  0  0
  186.7980  177.0190  135.6340 C   0  0  0  0  0  3  0  0  0  0  0  0
  185.2040  176.0400  137.2340 C   0  0  0  0  0  0  0  0  0  0  0  0
  185.2130  173.4780  136.9330 C   0  0  0  0  0  2  0  0  0  0  0  0
  185.8050  174.6820  136.9040 C   0  0  0  0  0  0  0  0  0  0  0  0
  183.8360  173.1710  137.2000 N   0  0  2  0  0  0  0  0  0  0  0  0
  181.7470  176.1270  136.6990 C   0  0  0  0  0  2  0  0  0  0  0  0
  183.8130  176.0530  137.6970 N   0  0  0  0  0  0  0  0  0  0  0  0
  183.3830  171.8740  136.9570 N   0  0  0  0  0  2  0  0  0  0  0  0
  182.0450  177.5420  137.1140 C   0  0  2  0  0  3  0  0  0  0  0  0
  183.3190  177.4140  137.8940 C   0  0  0  0  0  2  0  0  0  0  0  0
  187.1860  174.7180  136.4010 C   0  0  0  0  0  3  0  0  0  0  0  0
  187.6710  175.8310  135.8330 C   0  0  0  0  0  0  0  0  0  0  0  0
  182.9920  175.3780  136.7750 N   0  0  1  0  0  0  0  0  0  0  0  0
  181.9280  171.9960  136.9380 C   0  0  0  0  0  2  0  0  0  0  0  0
  180.9710  178.0250  137.9840 C   0  0  0  0  0  0  0  0  0  0  0  0
  180.0710  178.4060  138.6920 C   0  0  0  0  0  0  0  0  0  0  0  0
  178.9490  178.8480  139.5190 C   0  0  0  0  0  2  0  0  0  0  0  0
  179.2850  178.6770  140.9920 C   0  0  0  0  0  2  0  0  0  0  0  0
  180.4870  179.5400  141.3910 C   0  0  1  0  0  3  0  0  0  0  0  0
  180.0630  180.5190  142.2870 O   0  0  0  0  0  1  0  0  0  0  0  0
  183.2260  178.8720  144.0190 C   0  0  0  0  0  0  0  0  0  0  0  0
  180.8750  178.6590  144.2660 O   0  0  0  0  0  1  0  0  0  0  0  0
  184.0530  178.1070  141.8120 C   0  0  0  0  0  2  0  0  0  0  0  0
  182.9410  178.9530  141.1970 C   0  0  0  0  0  2  0  0  0  0  0  0
  183.4570  179.0950  145.3630 O   0  0  0  0  0  1  0  0  0  0  0  0
  181.8640  179.1990  143.4460 C   0  0  2  0  0  3  0  0  0  0  0  0
  181.6530  178.7470  141.9930 C   0  0  1  0  0  3  0  0  0  0  0  0
  184.2250  178.4170  143.2650 C   0  0  0  0  0  3  0  0  0  0  0  0
  189.0020  175.8000  135.3220 N   0  0  0  0  0  2  0  0  0  0  0  0
  189.8980  176.8680  135.4860 N   0  0  0  0  0  0  0  0  0  0  0  0
  190.3910  177.1510  136.6530 C   0  0  0  0  0  3  0  0  0  0  0  0
  190.7780  176.6870  139.8590 C   0  0  1  0  0  0  0  0  0  0  0  0
  190.0260  176.3410  137.8630 C   0  0  1  0  0  3  0  0  0  0  0  0
  189.6430  178.5970  138.9190 O   0  0  0  0  0  1  0  0  0  0  0  0
  189.3630  176.5620  140.4030 C   0  0  2  0  0  3  0  0  0  0  0  0
  191.2480  175.9070  138.6340 C   0  0  0  0  0  2  0  0  0  0  0  0
  189.5670  177.2000  139.0390 C   0  0  2  0  0  0  0  0  0  0  0  0
  191.6040  177.7430  140.2690 O   0  0  0  0  0  1  0  0  0  0  0  0
  188.8440  177.5740  141.4420 C   0  0  2  0  0  0  0  0  0  0  0  0
  188.8380  177.1300  142.8460 C   0  0  0  0  0  2  0  0  0  0  0  0
  187.6830  178.4770  141.0740 C   0  0  0  0  0  1  0  0  0  0  0  0
  189.7250  178.1150  142.3780 O   0  0  0  0  0  0  0  0  0  0  0  0
  1  5  1  0  0  0  0
  2  3  1  6  0  0  0
  3 17  1  0  0  0  0
  4 15  1  0  0  0  0
  4  1  2  0  0  0  0
  5 10  1  0  0  0  0
  7  6  1  0  0  0  0
  7  5  2  0  0  0  0
  8  6  1  6  0  0  0
  8  2  1  0  0  0  0
  9 12  1  0  0  0  0
 10 13  1  0  0  0  0
 11  8  1  0  0  0  0
 12 13  1  0  0  0  0
 12 18  1  1  0  0  0
 14  7  1  0  0  0  0
 15 14  2  0  0  0  0
 16  9  1  1  0  0  0
 16  2  1  0  0  0  0
 16 10  1  0  0  0  0
 17 11  1  0  0  0  0
 18 19  3  0  0  0  0
 19 20  1  0  0  0  0
 20 21  1  0  0  0  0
 21 22  1  0  0  0  0
 22 23  1  1  0  0  0
 24 28  1  0  0  0  0
 26 31  1  0  0  0  0
 27 26  1  0  0  0  0
 27 30  1  0  0  0  0
 29 24  1  0  0  0  0
 29 25  1  1  0  0  0
 30 22  1  6  0  0  0
 30 29  1  0  0  0  0
 31 24  2  0  0  0  0
 32 33  1  0  0  0  0
 32 15  1  0  0  0  0
 33 34  2  0  0  0  0
 35 41  1  1  0  0  0
 35 38  1  0  0  0  0
 36 34  1  6  0  0  0
 36 39  1  0  0  0  0
 36 40  1  0  0  0  0
 38 42  1  1  0  0  0
 39 35  1  0  0  0  0
 40 37  1  6  0  0  0
 40 35  1  0  0  0  0
 40 38  1  0  0  0  0
 42 44  1  6  0  0  0
 42 45  1  0  0  0  0
 42 43  1  0  0  0  0
 45 43  1  0  0  0  0
M  END
>  <MODEL>
9

>  <REMARK>
 VINA RESULT:      -7.4      3.706      7.763
  Name = 
  9 active torsions:
  status: ('A' for Active; 'I' for Inactive)
    1  A    between atoms: C_1  and  C_36
    2  A    between atoms: C_1  and  C_39
    3  A    between atoms: C_2  and  C_39
    4  A    between atoms: C_2  and  C_45
    5  A    between atoms: C_7  and  C_24
    6  A    between atoms: C_13  and  C_16
    7  A    between atoms: N_22  and  N_44
    8  A    between atoms: C_29  and  C_43
    9  A    between atoms: C_35  and  N_44
                            x       y       z     vdW  Elec       q    Type
                         _______ _______ _______ _____ _____    ______ ____

>  <TORSDO>
F 9

$$$$
