=
 OpenBabel10222416023D

 67 73  0  0  1  0  0  0  0  0999 V2000
  183.8230  175.4230  137.4690 C   0  0  1  0  0  3  0  0  0  0  0  0
  182.3090  176.8180  135.9600 N   0  0  0  0  0  1  0  0  0  0  0  0
  183.0580  175.6230  136.1960 C   0  0  0  0  0  0  0  0  0  0  0  0
  183.0970  174.7380  135.3070 O   0  0  0  0  0  0  0  0  0  0  0  0
  182.9740  174.8860  138.5740 C   0  0  0  0  0  3  0  0  0  0  0  0
  181.8440  175.4600  138.8820 C   0  0  0  0  0  0  0  0  0  0  0  0
  180.7070  176.0140  139.2000 C   0  0  0  0  0  3  0  0  0  0  0  0
  180.5000  176.5590  140.5700 C   0  0  2  0  0  3  0  0  0  0  0  0
  179.1760  176.1860  141.0390 N   0  0  0  0  0  1  0  0  0  0  0  0
  180.6330  178.0710  140.5400 C   0  0  0  0  0  2  0  0  0  0  0  0
  180.8890  178.6060  141.9400 C   0  0  0  0  0  2  0  0  0  0  0  0
  182.0460  179.5950  141.9320 C   0  0  0  0  0  2  0  0  0  0  0  0
  183.3580  178.8800  142.2080 C   0  0  0  0  0  2  0  0  0  0  0  0
  189.2150  176.2100  143.6270 C   0  0  0  0  0  2  0  0  0  0  0  0
  190.2330  177.2610  145.3180 C   0  0  2  0  0  0  0  0  0  0  0  0
  190.3200  178.6150  144.9210 O   0  0  0  0  0  0  0  0  0  0  0  0
  188.3340  178.4430  146.2370 O   0  0  0  0  0  1  0  0  0  0  0  0
  190.4630  176.3610  144.2650 O   0  0  0  0  0  0  0  0  0  0  0  0
  187.8750  178.6140  140.5970 O   0  0  0  0  0  1  0  0  0  0  0  0
  188.4490  178.3450  142.7970 O   0  0  0  0  0  0  0  0  0  0  0  0
  188.3580  177.4420  143.8890 C   0  0  1  0  0  0  0  0  0  0  0  0
  184.6490  177.9780  145.5300 O   0  0  0  0  0  0  0  0  0  0  0  0
  186.1480  178.2940  142.2050 C   0  0  0  0  0  2  0  0  0  0  0  0
  184.7050  178.1800  144.2890 C   0  0  0  0  0  0  0  0  0  0  0  0
  186.9160  177.0140  144.2480 C   0  0  0  0  0  2  0  0  0  0  0  0
  187.5630  177.9450  141.7800 C   0  0  1  0  0  3  0  0  0  0  0  0
  189.0300  178.0600  145.0850 C   0  0  2  0  0  0  0  0  0  0  0  0
  185.9090  177.8440  143.5770 N   0  0  0  0  0  0  0  0  0  0  0  0
  183.5360  178.7050  143.6410 N   0  0  0  0  0  2  0  0  0  0  0  0
  190.7780  176.9330  146.7230 C   0  0  1  0  0  3  0  0  0  0  0  0
  189.7780  176.3520  147.5040 O   0  0  0  0  0  1  0  0  0  0  0  0
  192.2890  175.2160  145.6230 N   0  0  0  0  0  2  0  0  0  0  0  0
  191.9920  176.0530  146.7340 C   0  0  0  0  0  0  0  0  0  0  0  0
  192.7410  176.0120  147.7850 N   0  0  0  0  0  1  0  0  0  0  0  0
  184.9590  174.5400  137.2340 N   0  0  0  0  0  2  0  0  0  0  0  0
  186.9760  176.0830  136.9350 C   0  0  2  0  0  3  0  0  0  0  0  0
  186.1790  173.0610  135.0170 O   0  0  0  0  0  1  0  0  0  0  0  0
  186.1360  177.3540  137.0550 C   0  0  0  0  0  2  0  0  0  0  0  0
  186.9920  178.5220  137.5080 C   0  0  0  0  0  2  0  0  0  0  0  0
  188.0370  177.2910  134.8930 C   0  0  0  0  0  2  0  0  0  0  0  0
  188.5850  178.5520  135.5400 C   0  0  0  0  0  2  0  0  0  0  0  0
  188.1050  176.1200  135.8760 C   0  0  2  0  0  3  0  0  0  0  0  0
  186.1430  174.9260  136.5270 C   0  0  0  0  0  0  0  0  0  0  0  0
  187.5050  179.3050  136.3040 C   0  0  0  0  0  2  0  0  0  0  0  0
  187.9960  174.8070  135.0960 C   0  0  2  0  0  3  0  0  0  0  0  0
  186.7020  174.2380  135.5430 C   0  0  0  0  0  0  0  0  0  0  0  0
  190.7700  175.2450  134.5950 O   0  0  0  0  0  0  0  0  0  0  0  0
  190.4590  174.2440  135.2970 C   0  0  0  0  0  0  0  0  0  0  0  0
  189.0800  173.9190  135.5000 N   0  0  0  0  0  2  0  0  0  0  0  0
  191.4880  173.4160  135.9540 C   0  0  0  0  0  3  0  0  0  0  0  0
  195.2160  175.1930  136.5850 C   0  0  0  0  0  3  0  0  0  0  0  0
  192.4860  173.8380  136.7370 C   0  0  0  0  0  0  0  0  0  0  0  0
  193.3820  172.7820  137.3080 C   0  0  0  0  0  2  0  0  0  0  0  0
  195.5360  174.0580  137.2270 C   0  0  0  0  0  0  0  0  0  0  0  0
  193.9600  175.8270  136.5580 O   0  0  0  0  0  0  0  0  0  0  0  0
  192.7100  175.3100  137.0200 C   0  0  2  0  0  3  0  0  0  0  0  0
  194.5260  173.3720  138.1100 C   0  0  2  0  0  3  0  0  0  0  0  0
  195.0910  172.3990  138.9330 O   0  0  0  0  0  1  0  0  0  0  0  0
  190.6070  176.3520  139.8030 C   0  0  0  0  0  2  0  0  0  0  0  0
  190.9420  176.2160  138.4440 O   0  0  0  0  0  0  0  0  0  0  0  0
  192.2990  175.8500  138.3960 C   0  0  2  0  0  3  0  0  0  0  0  0
  193.1860  177.0210  138.8390 C   0  0  0  0  0  2  0  0  0  0  0  0
  191.2980  177.5830  140.3910 C   0  0  0  0  0  2  0  0  0  0  0  0
  192.8100  177.4060  140.2680 C   0  0  0  0  0  2  0  0  0  0  0  0
  197.0820  172.4260  136.4350 O   0  0  0  0  0  0  0  0  0  0  0  0
  196.9090  173.5180  137.0330 C   0  0  0  0  0  0  0  0  0  0  0  0
  198.0200  174.1930  137.5180 O   0  0  0  0  0  1  0  0  0  0  0  0
  1  5  1  1  0  0  0
  2  3  1  0  0  0  0
  3  1  1  0  0  0  0
  4  3  2  0  0  0  0
  5  6  2  0  0  0  0
  6  7  2  0  0  0  0
  7  8  1  0  0  0  0
  8  9  1  6  0  0  0
 10  8  1  0  0  0  0
 10 11  1  0  0  0  0
 12 11  1  0  0  0  0
 12 13  1  0  0  0  0
 13 29  1  0  0  0  0
 14 18  1  0  0  0  0
 15 30  1  1  0  0  0
 16 27  1  0  0  0  0
 16 15  1  0  0  0  0
 18 15  1  0  0  0  0
 20 21  1  0  0  0  0
 21 14  1  6  0  0  0
 21 25  1  0  0  0  0
 21 27  1  0  0  0  0
 23 28  1  0  0  0  0
 24 22  2  0  0  0  0
 26 19  1  6  0  0  0
 26 23  1  0  0  0  0
 26 20  1  0  0  0  0
 27 15  1  0  0  0  0
 27 17  1  1  0  0  0
 28 25  1  0  0  0  0
 28 24  1  0  0  0  0
 29 24  1  0  0  0  0
 30 33  1  0  0  0  0
 30 31  1  1  0  0  0
 32 33  2  0  0  0  0
 33 34  1  0  0  0  0
 35  1  1  0  0  0  0
 36 38  1  6  0  0  0
 37 46  1  0  0  0  0
 38 39  1  0  0  0  0
 40 41  1  0  0  0  0
 41 44  1  0  0  0  0
 42 40  1  6  0  0  0
 42 36  1  0  0  0  0
 43 36  1  0  0  0  0
 43 35  1  0  0  0  0
 44 39  1  0  0  0  0
 45 49  1  1  0  0  0
 45 46  1  0  0  0  0
 45 42  1  0  0  0  0
 46 43  2  0  0  0  0
 47 48  2  0  0  0  0
 48 49  1  0  0  0  0
 48 50  1  0  0  0  0
 50 52  2  0  0  0  0
 51 54  2  0  0  0  0
 52 56  1  0  0  0  0
 52 53  1  0  0  0  0
 53 57  1  0  0  0  0
 54 57  1  0  0  0  0
 55 51  1  0  0  0  0
 56 55  1  1  0  0  0
 56 61  1  0  0  0  0
 57 58  1  6  0  0  0
 59 63  1  0  0  0  0
 60 59  1  0  0  0  0
 61 60  1  0  0  0  0
 61 62  1  6  0  0  0
 62 64  1  0  0  0  0
 64 63  1  0  0  0  0
 65 66  2  0  0  0  0
 66 54  1  0  0  0  0
 66 67  1  0  0  0  0
M  END
>  <MODEL>
1

>  <REMARK>
 VINA RESULT:      -7.1      0.000      0.000
  Name = 
  16 active torsions:
  status: ('A' for Active; 'I' for Inactive)
    1  A    between atoms: C_2  and  C_13
    2  A    between atoms: C_4  and  C_15
    3  A    between atoms: C_4  and  C_51
    4  A    between atoms: C_5  and  C_9
    5  A    between atoms: C_9  and  C_42
    6  A    between atoms: N_12  and  C_23
    7  A    between atoms: N_12  and  C_46
    8  A    between atoms: C_15  and  N_67
    9  A    between atoms: C_18  and  C_23
   10  A    between atoms: C_19  and  C_23
   11  A    between atoms: N_22  and  C_61
   12  A    between atoms: C_31  and  C_36
   13  A    between atoms: C_41  and  C_49
   14  A    between atoms: C_41  and  C_54
   15  A    between atoms: C_49  and  C_51
   16  A    between atoms: C_52  and  C_63
                            x       y       z     vdW  Elec       q    Type
                         _______ _______ _______ _____ _____    ______ ____

>  <TORSDO>
F 16

$$$$
=
 OpenBabel10222416023D

 67 73  0  0  1  0  0  0  0  0999 V2000
  190.7360  177.4020  143.9460 C   0  0  1  0  0  3  0  0  0  0  0  0
  192.0910  175.3190  144.5270 N   0  0  0  0  0  1  0  0  0  0  0  0
  191.6490  176.6380  144.8560 C   0  0  0  0  0  0  0  0  0  0  0  0
  192.0550  177.1750  145.9150 O   0  0  0  0  0  0  0  0  0  0  0  0
  191.3770  177.7490  142.6430 C   0  0  0  0  0  3  0  0  0  0  0  0
  190.6490  177.9680  141.5830 C   0  0  0  0  0  0  0  0  0  0  0  0
  189.9390  178.1990  140.5140 C   0  0  0  0  0  3  0  0  0  0  0  0
  190.1160  177.3510  139.3030 C   0  0  2  0  0  3  0  0  0  0  0  0
  189.3580  176.1230  139.4620 N   0  0  0  0  0  1  0  0  0  0  0  0
  191.5890  177.0310  139.1200 C   0  0  0  0  0  2  0  0  0  0  0  0
  191.7550  175.7530  138.3130 C   0  0  0  0  0  2  0  0  0  0  0  0
  192.1080  176.0740  136.8670 C   0  0  0  0  0  2  0  0  0  0  0  0
  190.8910  175.9040  135.9730 C   0  0  0  0  0  2  0  0  0  0  0  0
  184.5550  175.0450  137.5730 C   0  0  0  0  0  2  0  0  0  0  0  0
  183.5090  173.6590  136.1630 C   0  0  2  0  0  0  0  0  0  0  0  0
  183.6880  174.2250  134.8790 O   0  0  0  0  0  0  0  0  0  0  0  0
  185.4390  172.6220  135.1400 O   0  0  0  0  0  1  0  0  0  0  0  0
  183.2760  174.6180  137.1610 O   0  0  0  0  0  0  0  0  0  0  0  0
  186.6290  178.1130  135.8310 O   0  0  0  0  0  1  0  0  0  0  0  0
  185.7470  176.0050  135.7040 O   0  0  0  0  0  0  0  0  0  0  0  0
  185.5550  174.8110  136.4480 C   0  0  1  0  0  0  0  0  0  0  0  0
  189.0650  172.7220  136.2090 O   0  0  0  0  0  0  0  0  0  0  0  0
  188.0660  176.2430  136.1590 C   0  0  0  0  0  2  0  0  0  0  0  0
  189.1980  173.9730  136.1790 C   0  0  0  0  0  0  0  0  0  0  0  0
  186.8550  174.1960  137.0190 C   0  0  0  0  0  2  0  0  0  0  0  0
  186.6800  176.8260  136.3630 C   0  0  1  0  0  3  0  0  0  0  0  0
  184.8430  173.8090  135.5800 C   0  0  2  0  0  0  0  0  0  0  0  0
  188.0560  174.8080  136.4400 N   0  0  0  0  0  0  0  0  0  0  0  0
  190.5080  174.5010  135.9180 N   0  0  0  0  0  2  0  0  0  0  0  0
  182.7460  172.3200  136.2100 C   0  0  1  0  0  3  0  0  0  0  0  0
  183.2570  171.5100  137.2260 O   0  0  0  0  0  1  0  0  0  0  0  0
  180.6380  172.1080  137.6080 N   0  0  0  0  0  1  0  0  0  0  0  0
  181.2620  172.4510  136.3760 C   0  0  0  0  0  0  0  0  0  0  0  0
  180.5380  172.8230  135.3740 N   0  0  0  0  0  2  0  0  0  0  0  0
  189.5120  176.6430  143.7170 N   0  0  0  0  0  2  0  0  0  0  0  0
  187.9050  178.2400  144.9030 C   0  0  2  0  0  3  0  0  0  0  0  0
  187.1370  175.9430  142.1500 O   0  0  0  0  0  1  0  0  0  0  0  0
  188.4290  177.8800  146.2930 C   0  0  0  0  0  2  0  0  0  0  0  0
  188.1600  179.0050  147.2750 C   0  0  0  0  0  2  0  0  0  0  0  0
  185.5660  177.9620  146.0000 C   0  0  0  0  0  2  0  0  0  0  0  0
  185.6320  178.9880  147.1190 C   0  0  0  0  0  2  0  0  0  0  0  0
  186.3740  178.4420  144.7930 C   0  0  2  0  0  3  0  0  0  0  0  0
  188.1940  177.1630  143.9250 C   0  0  0  0  0  0  0  0  0  0  0  0
  186.8460  178.7660  148.0110 C   0  0  0  0  0  2  0  0  0  0  0  0
  185.9330  177.6580  143.5540 C   0  0  2  0  0  3  0  0  0  0  0  0
  187.1310  176.8610  143.1960 C   0  0  0  0  0  0  0  0  0  0  0  0
  184.1960  177.1480  141.3490 O   0  0  0  0  0  0  0  0  0  0  0  0
  184.6830  178.3080  141.4470 C   0  0  0  0  0  0  0  0  0  0  0  0
  185.6360  178.5940  142.4760 N   0  0  0  0  0  2  0  0  0  0  0  0
  184.2600  179.3980  140.5470 C   0  0  0  0  0  3  0  0  0  0  0  0
  181.2270  178.5150  137.8120 C   0  0  0  0  0  3  0  0  0  0  0  0
  183.0470  179.5840  140.0170 C   0  0  0  0  0  0  0  0  0  0  0  0
  182.8710  180.7950  139.1530 C   0  0  0  0  0  2  0  0  0  0  0  0
  181.2900  179.8130  137.4770 C   0  0  0  0  0  0  0  0  0  0  0  0
  181.4140  177.9590  139.0920 O   0  0  0  0  0  0  0  0  0  0  0  0
  181.9110  178.6110  140.2640 C   0  0  2  0  0  3  0  0  0  0  0  0
  181.4880  180.8650  138.5370 C   0  0  2  0  0  3  0  0  0  0  0  0
  181.2270  182.1570  138.0810 O   0  0  0  0  0  1  0  0  0  0  0  0
  179.2870  180.5870  141.8320 C   0  0  0  0  0  2  0  0  0  0  0  0
  180.5140  180.3990  141.1710 O   0  0  0  0  0  0  0  0  0  0  0  0
  180.8080  179.0260  141.2450 C   0  0  2  0  0  3  0  0  0  0  0  0
  181.1470  178.6280  142.6880 C   0  0  0  0  0  2  0  0  0  0  0  0
  179.4670  180.3730  143.3360 C   0  0  0  0  0  2  0  0  0  0  0  0
  179.9470  178.9440  143.5770 C   0  0  0  0  0  2  0  0  0  0  0  0
  180.6220  181.2460  135.6920 O   0  0  0  0  0  1  0  0  0  0  0  0
  181.1570  180.1610  136.0360 C   0  0  0  0  0  0  0  0  0  0  0  0
  181.6000  179.2970  135.0460 O   0  0  0  0  0  0  0  0  0  0  0  0
  1  5  1  6  0  0  0
  1  3  1  0  0  0  0
  2  3  1  0  0  0  0
  3  4  2  0  0  0  0
  6  5  2  0  0  0  0
  7  6  2  0  0  0  0
  8  9  1  1  0  0  0
  8  7  1  0  0  0  0
 10  8  1  0  0  0  0
 11 10  1  0  0  0  0
 12 11  1  0  0  0  0
 13 12  1  0  0  0  0
 15 30  1  1  0  0  0
 15 18  1  0  0  0  0
 16 27  1  0  0  0  0
 16 15  1  0  0  0  0
 18 14  1  0  0  0  0
 20 26  1  0  0  0  0
 20 21  1  0  0  0  0
 21 25  1  1  0  0  0
 21 14  1  0  0  0  0
 23 26  1  0  0  0  0
 23 28  1  0  0  0  0
 24 22  2  0  0  0  0
 24 28  1  0  0  0  0
 26 19  1  6  0  0  0
 27 17  1  6  0  0  0
 27 15  1  0  0  0  0
 27 21  1  0  0  0  0
 28 25  1  0  0  0  0
 29 13  1  0  0  0  0
 29 24  1  0  0  0  0
 30 33  1  0  0  0  0
 30 31  1  1  0  0  0
 33 32  1  0  0  0  0
 34 33  2  0  0  0  0
 35 43  1  0  0  0  0
 35  1  1  0  0  0  0
 36 38  1  1  0  0  0
 37 46  1  0  0  0  0
 38 39  1  0  0  0  0
 39 44  1  0  0  0  0
 40 41  1  0  0  0  0
 41 44  1  0  0  0  0
 42 36  1  0  0  0  0
 42 40  1  1  0  0  0
 43 36  1  0  0  0  0
 45 49  1  6  0  0  0
 45 42  1  0  0  0  0
 46 45  1  0  0  0  0
 46 43  2  0  0  0  0
 47 48  2  0  0  0  0
 48 49  1  0  0  0  0
 50 48  1  0  0  0  0
 51 55  1  0  0  0  0
 52 56  1  0  0  0  0
 52 50  2  0  0  0  0
 53 52  1  0  0  0  0
 54 51  2  0  0  0  0
 54 57  1  0  0  0  0
 56 55  1  6  0  0  0
 56 61  1  0  0  0  0
 57 58  1  6  0  0  0
 57 53  1  0  0  0  0
 59 63  1  0  0  0  0
 60 61  1  0  0  0  0
 60 59  1  0  0  0  0
 61 62  1  1  0  0  0
 62 64  1  0  0  0  0
 63 64  1  0  0  0  0
 65 66  1  0  0  0  0
 66 54  1  0  0  0  0
 67 66  2  0  0  0  0
M  END
>  <MODEL>
2

>  <REMARK>
 VINA RESULT:      -5.3      3.021     11.673
  Name = 
  16 active torsions:
  status: ('A' for Active; 'I' for Inactive)
    1  A    between atoms: C_2  and  C_13
    2  A    between atoms: C_4  and  C_15
    3  A    between atoms: C_4  and  C_51
    4  A    between atoms: C_5  and  C_9
    5  A    between atoms: C_9  and  C_42
    6  A    between atoms: N_12  and  C_23
    7  A    between atoms: N_12  and  C_46
    8  A    between atoms: C_15  and  N_67
    9  A    between atoms: C_18  and  C_23
   10  A    between atoms: C_19  and  C_23
   11  A    between atoms: N_22  and  C_61
   12  A    between atoms: C_31  and  C_36
   13  A    between atoms: C_41  and  C_49
   14  A    between atoms: C_41  and  C_54
   15  A    between atoms: C_49  and  C_51
   16  A    between atoms: C_52  and  C_63
                            x       y       z     vdW  Elec       q    Type
                         _______ _______ _______ _____ _____    ______ ____

>  <TORSDO>
F 16

$$$$
=
 OpenBabel10222416023D

 67 73  0  0  1  0  0  0  0  0999 V2000
  190.7800  176.3750  145.6180 C   0  0  1  0  0  3  0  0  0  0  0  0
  192.5980  175.7770  147.3050 N   0  0  0  0  0  1  0  0  0  0  0  0
  191.6430  176.7100  146.7950 C   0  0  0  0  0  0  0  0  0  0  0  0
  191.5460  177.8420  147.3290 O   0  0  0  0  0  0  0  0  0  0  0  0
  189.3230  176.3860  145.9470 C   0  0  0  0  0  3  0  0  0  0  0  0
  188.7280  177.4970  146.2860 C   0  0  0  0  0  0  0  0  0  0  0  0
  188.1130  178.5980  146.6170 C   0  0  0  0  0  3  0  0  0  0  0  0
  187.4550  178.7130  147.9480 C   0  0  2  0  0  3  0  0  0  0  0  0
  187.4900  177.4220  148.6130 N   0  0  0  0  0  1  0  0  0  0  0  0
  186.0170  179.1640  147.7650 C   0  0  0  0  0  2  0  0  0  0  0  0
  185.6090  179.0450  146.3050 C   0  0  0  0  0  2  0  0  0  0  0  0
  184.2360  178.4000  146.1830 C   0  0  0  0  0  2  0  0  0  0  0  0
  183.5180  178.9080  144.9430 C   0  0  0  0  0  2  0  0  0  0  0  0
  179.5340  178.3040  139.7280 C   0  0  0  0  0  2  0  0  0  0  0  0
  180.3840  179.2730  137.9000 C   0  0  2  0  0  0  0  0  0  0  0  0
  180.6240  180.6190  138.2650 O   0  0  0  0  0  0  0  0  0  0  0  0
  182.6890  179.4680  138.6040 O   0  0  0  0  0  1  0  0  0  0  0  0
  179.1930  178.7590  138.4370 O   0  0  0  0  0  0  0  0  0  0  0  0
  179.4390  180.6360  143.0900 O   0  0  0  0  0  1  0  0  0  0  0  0
  180.3680  180.1410  141.0570 O   0  0  0  0  0  0  0  0  0  0  0  0
  180.7600  179.0590  140.2250 C   0  0  1  0  0  0  0  0  0  0  0  0
  184.4440  177.8610  141.5430 O   0  0  0  0  0  0  0  0  0  0  0  0
  181.4640  179.3850  143.0250 C   0  0  0  0  0  2  0  0  0  0  0  0
  183.6930  178.3240  142.4410 C   0  0  0  0  0  0  0  0  0  0  0  0
  181.7550  178.0730  140.8820 C   0  0  0  0  0  2  0  0  0  0  0  0
  180.1290  179.6690  142.3610 C   0  0  1  0  0  3  0  0  0  0  0  0
  181.3420  179.6140  138.9530 C   0  0  2  0  0  0  0  0  0  0  0  0
  182.3160  178.6030  142.1290 N   0  0  0  0  0  0  0  0  0  0  0  0
  184.2520  178.5130  143.7490 N   0  0  0  0  0  2  0  0  0  0  0  0
  180.7980  178.8790  136.4680 C   0  0  1  0  0  3  0  0  0  0  0  0
  180.4570  177.5490  136.2170 O   0  0  0  0  0  1  0  0  0  0  0  0
  180.8090  181.0130  135.0940 N   0  0  0  0  0  1  0  0  0  0  0  0
  180.2260  179.7500  135.3900 C   0  0  0  0  0  0  0  0  0  0  0  0
  179.1600  179.3750  134.7650 N   0  0  0  0  0  2  0  0  0  0  0  0
  191.0530  177.2960  144.5210 N   0  0  0  0  0  2  0  0  0  0  0  0
  189.9930  178.1600  142.3600 C   0  0  2  0  0  3  0  0  0  0  0  0
  191.4980  174.8670  142.9430 O   0  0  0  0  0  1  0  0  0  0  0  0
  188.7970  178.7740  143.0850 C   0  0  0  0  0  2  0  0  0  0  0  0
  188.1870  179.8930  142.2610 C   0  0  0  0  0  2  0  0  0  0  0  0
  188.1950  177.2260  140.7330 C   0  0  0  0  0  2  0  0  0  0  0  0
  187.5360  178.5050  140.2450 C   0  0  0  0  0  2  0  0  0  0  0  0
  189.6800  177.4680  141.0110 C   0  0  2  0  0  3  0  0  0  0  0  0
  190.6210  177.0890  143.1720 C   0  0  0  0  0  0  0  0  0  0  0  0
  187.0440  179.3600  141.4050 C   0  0  0  0  0  2  0  0  0  0  0  0
  190.4070  176.1210  141.0480 C   0  0  2  0  0  3  0  0  0  0  0  0
  190.8490  175.9970  142.4570 C   0  0  0  0  0  0  0  0  0  0  0  0
  190.3750  175.8530  138.2070 O   0  0  0  0  0  0  0  0  0  0  0  0
  191.4780  176.1320  138.7510 C   0  0  0  0  0  0  0  0  0  0  0  0
  191.5750  176.1840  140.1780 N   0  0  0  0  0  2  0  0  0  0  0  0
  192.6720  176.4520  137.9460 C   0  0  0  0  0  3  0  0  0  0  0  0
  195.7030  173.5770  137.8470 C   0  0  0  0  0  3  0  0  0  0  0  0
  193.4730  175.5900  137.3100 C   0  0  0  0  0  0  0  0  0  0  0  0
  194.6090  176.1810  136.5320 C   0  0  0  0  0  2  0  0  0  0  0  0
  196.3080  174.3910  136.9660 C   0  0  0  0  0  0  0  0  0  0  0  0
  194.3200  173.3580  137.9880 O   0  0  0  0  0  0  0  0  0  0  0  0
  193.2520  174.0930  137.3840 C   0  0  2  0  0  3  0  0  0  0  0  0
  195.5000  175.1170  135.9210 C   0  0  2  0  0  3  0  0  0  0  0  0
  196.2850  175.6670  134.9090 O   0  0  0  0  0  1  0  0  0  0  0  0
  190.8780  173.2080  134.7700 C   0  0  0  0  0  2  0  0  0  0  0  0
  191.2550  173.5780  136.0740 O   0  0  0  0  0  0  0  0  0  0  0  0
  192.6460  173.3920  136.1620 C   0  0  2  0  0  3  0  0  0  0  0  0
  192.9890  171.8970  136.1310 C   0  0  0  0  0  2  0  0  0  0  0  0
  191.0170  171.6960  134.5960 C   0  0  0  0  0  2  0  0  0  0  0  0
  192.4750  171.3040  134.8210 C   0  0  0  0  0  2  0  0  0  0  0  0
  198.5450  173.7820  136.4120 O   0  0  0  0  0  0  0  0  0  0  0  0
  197.7840  174.5410  137.0660 C   0  0  0  0  0  0  0  0  0  0  0  0
  198.3540  175.5020  137.8890 O   0  0  0  0  0  1  0  0  0  0  0  0
  1  5  1  1  0  0  0
  1  3  1  0  0  0  0
  3  2  1  0  0  0  0
  3  4  2  0  0  0  0
  5  6  2  0  0  0  0
  6  7  2  0  0  0  0
  7  8  1  0  0  0  0
  8  9  1  6  0  0  0
 10  8  1  0  0  0  0
 11 10  1  0  0  0  0
 12 11  1  0  0  0  0
 13 12  1  0  0  0  0
 15 30  1  6  0  0  0
 15 16  1  0  0  0  0
 15 18  1  0  0  0  0
 15 27  1  0  0  0  0
 16 27  1  0  0  0  0
 18 14  1  0  0  0  0
 20 26  1  0  0  0  0
 21 14  1  6  0  0  0
 21 25  1  0  0  0  0
 21 20  1  0  0  0  0
 22 24  2  0  0  0  0
 24 29  1  0  0  0  0
 25 28  1  0  0  0  0
 26 23  1  0  0  0  0
 26 19  1  1  0  0  0
 27 17  1  6  0  0  0
 27 21  1  0  0  0  0
 28 24  1  0  0  0  0
 28 23  1  0  0  0  0
 29 13  1  0  0  0  0
 30 31  1  6  0  0  0
 32 33  1  0  0  0  0
 33 30  1  0  0  0  0
 34 33  2  0  0  0  0
 35  1  1  0  0  0  0
 36 38  1  1  0  0  0
 36 43  1  0  0  0  0
 39 38  1  0  0  0  0
 41 40  1  0  0  0  0
 41 44  1  0  0  0  0
 42 40  1  1  0  0  0
 42 45  1  0  0  0  0
 42 36  1  0  0  0  0
 43 35  1  0  0  0  0
 44 39  1  0  0  0  0
 45 49  1  6  0  0  0
 45 46  1  0  0  0  0
 46 37  1  0  0  0  0
 46 43  2  0  0  0  0
 47 48  2  0  0  0  0
 48 49  1  0  0  0  0
 50 48  1  0  0  0  0
 51 55  1  0  0  0  0
 52 50  2  0  0  0  0
 53 52  1  0  0  0  0
 54 66  1  0  0  0  0
 54 51  2  0  0  0  0
 56 52  1  6  0  0  0
 56 55  1  0  0  0  0
 57 58  1  6  0  0  0
 57 53  1  0  0  0  0
 57 54  1  0  0  0  0
 59 60  1  0  0  0  0
 60 61  1  0  0  0  0
 61 62  1  1  0  0  0
 61 56  1  0  0  0  0
 63 59  1  0  0  0  0
 63 64  1  0  0  0  0
 64 62  1  0  0  0  0
 65 66  2  0  0  0  0
 66 67  1  0  0  0  0
M  END
>  <MODEL>
3

>  <REMARK>
 VINA RESULT:      -5.2      2.918      8.604
  Name = 
  16 active torsions:
  status: ('A' for Active; 'I' for Inactive)
    1  A    between atoms: C_2  and  C_13
    2  A    between atoms: C_4  and  C_15
    3  A    between atoms: C_4  and  C_51
    4  A    between atoms: C_5  and  C_9
    5  A    between atoms: C_9  and  C_42
    6  A    between atoms: N_12  and  C_23
    7  A    between atoms: N_12  and  C_46
    8  A    between atoms: C_15  and  N_67
    9  A    between atoms: C_18  and  C_23
   10  A    between atoms: C_19  and  C_23
   11  A    between atoms: N_22  and  C_61
   12  A    between atoms: C_31  and  C_36
   13  A    between atoms: C_41  and  C_49
   14  A    between atoms: C_41  and  C_54
   15  A    between atoms: C_49  and  C_51
   16  A    between atoms: C_52  and  C_63
                            x       y       z     vdW  Elec       q    Type
                         _______ _______ _______ _____ _____    ______ ____

>  <TORSDO>
F 16

$$$$
=
 OpenBabel10222416023D

 67 73  0  0  1  0  0  0  0  0999 V2000
  190.5160  177.9890  143.3750 C   0  0  1  0  0  3  0  0  0  0  0  0
  192.1540  179.7080  144.3090 N   0  0  0  0  0  1  0  0  0  0  0  0
  191.8310  178.3520  143.9930 C   0  0  0  0  0  0  0  0  0  0  0  0
  192.6570  177.4460  144.2640 O   0  0  0  0  0  0  0  0  0  0  0  0
  190.6660  177.1780  142.1310 C   0  0  0  0  0  3  0  0  0  0  0  0
  190.3600  177.6850  140.9680 C   0  0  0  0  0  0  0  0  0  0  0  0
  190.0690  178.1750  139.7950 C   0  0  0  0  0  3  0  0  0  0  0  0
  189.0140  177.5370  138.9610 C   0  0  2  0  0  3  0  0  0  0  0  0
  187.7160  177.7660  139.5710 N   0  0  0  0  0  1  0  0  0  0  0  0
  189.2830  176.0460  138.8570 C   0  0  0  0  0  2  0  0  0  0  0  0
  188.9570  175.5470  137.4580 C   0  0  0  0  0  2  0  0  0  0  0  0
  188.9050  176.7070  136.4740 C   0  0  0  0  0  2  0  0  0  0  0  0
  190.1630  176.7380  135.6220 C   0  0  0  0  0  2  0  0  0  0  0  0
  196.2360  174.6460  137.1010 C   0  0  0  0  0  2  0  0  0  0  0  0
  196.2480  172.5250  137.8100 C   0  0  2  0  0  0  0  0  0  0  0  0
  195.3640  172.4930  138.9130 O   0  0  0  0  0  0  0  0  0  0  0  0
  194.0700  171.8400  137.0150 O   0  0  0  0  0  1  0  0  0  0  0  0
  197.0310  173.6890  137.7640 O   0  0  0  0  0  0  0  0  0  0  0  0
  193.5760  177.1270  138.9780 O   0  0  0  0  0  1  0  0  0  0  0  0
  194.1920  175.0190  138.3340 O   0  0  0  0  0  0  0  0  0  0  0  0
  194.7650  174.2840  137.2620 C   0  0  1  0  0  0  0  0  0  0  0  0
  191.7430  173.5810  134.5940 O   0  0  0  0  0  0  0  0  0  0  0  0
  192.5730  176.1780  137.0380 C   0  0  0  0  0  2  0  0  0  0  0  0
  191.6330  174.6580  135.2370 C   0  0  0  0  0  0  0  0  0  0  0  0
  194.0310  174.4460  135.9100 C   0  0  0  0  0  2  0  0  0  0  0  0
  193.8270  176.3010  137.8840 C   0  0  1  0  0  3  0  0  0  0  0  0
  194.8260  172.8310  137.6500 C   0  0  2  0  0  0  0  0  0  0  0  0
  192.7260  175.0970  136.0640 N   0  0  0  0  0  0  0  0  0  0  0  0
  190.4240  175.4140  135.0750 N   0  0  0  0  0  2  0  0  0  0  0  0
  196.8780  171.1750  137.4100 C   0  0  1  0  0  3  0  0  0  0  0  0
  196.0030  170.1290  137.7060 O   0  0  0  0  0  1  0  0  0  0  0  0
  198.3560  171.8900  135.4750 N   0  0  0  0  0  1  0  0  0  0  0  0
  197.2980  171.0820  135.9740 C   0  0  0  0  0  0  0  0  0  0  0  0
  196.6540  170.3020  135.1700 N   0  0  0  0  0  2  0  0  0  0  0  0
  189.6910  177.2750  144.3430 N   0  0  0  0  0  2  0  0  0  0  0  0
  187.5160  178.3850  145.1030 C   0  0  2  0  0  3  0  0  0  0  0  0
  187.8860  175.5370  142.8230 O   0  0  0  0  0  1  0  0  0  0  0  0
  187.9630  178.4690  146.5620 C   0  0  0  0  0  2  0  0  0  0  0  0
  187.2200  179.5770  147.2860 C   0  0  0  0  0  2  0  0  0  0  0  0
  185.2910  177.4950  146.1080 C   0  0  0  0  0  2  0  0  0  0  0  0
  184.8800  178.6520  147.0030 C   0  0  0  0  0  2  0  0  0  0  0  0
  186.0300  178.0180  144.8740 C   0  0  2  0  0  3  0  0  0  0  0  0
  188.2600  177.3290  144.3740 C   0  0  0  0  0  0  0  0  0  0  0  0
  185.9840  179.0210  147.9840 C   0  0  0  0  0  2  0  0  0  0  0  0
  186.0240  176.9340  143.7930 C   0  0  2  0  0  3  0  0  0  0  0  0
  187.4520  176.5570  143.6640 C   0  0  0  0  0  0  0  0  0  0  0  0
  183.5460  178.2940  143.4090 O   0  0  0  0  0  0  0  0  0  0  0  0
  184.3460  178.2610  142.4350 C   0  0  0  0  0  0  0  0  0  0  0  0
  185.5610  177.5120  142.5370 N   0  0  0  0  0  2  0  0  0  0  0  0
  184.0810  179.0180  141.1960 C   0  0  0  0  0  3  0  0  0  0  0  0
  181.4530  177.2780  138.4530 C   0  0  0  0  0  3  0  0  0  0  0  0
  182.9600  179.0060  140.4660 C   0  0  0  0  0  0  0  0  0  0  0  0
  182.9370  179.8940  139.2610 C   0  0  0  0  0  2  0  0  0  0  0  0
  181.5920  178.4140  137.7520 C   0  0  0  0  0  0  0  0  0  0  0  0
  181.4420  177.1400  139.8530 O   0  0  0  0  0  0  0  0  0  0  0  0
  181.7800  178.1280  140.8310 C   0  0  2  0  0  3  0  0  0  0  0  0
  181.6580  179.7430  138.4610 C   0  0  2  0  0  3  0  0  0  0  0  0
  181.4930  180.8290  137.6020 O   0  0  0  0  0  1  0  0  0  0  0  0
  179.3160  180.6680  141.6810 C   0  0  0  0  0  2  0  0  0  0  0  0
  180.6100  180.1970  141.3940 O   0  0  0  0  0  0  0  0  0  0  0  0
  180.5570  178.7940  141.4720 C   0  0  2  0  0  3  0  0  0  0  0  0
  180.3570  178.3460  142.9260 C   0  0  0  0  0  2  0  0  0  0  0  0
  178.9900  180.4350  143.1570 C   0  0  0  0  0  2  0  0  0  0  0  0
  179.0490  178.9370  143.4450 C   0  0  0  0  0  2  0  0  0  0  0  0
  182.7550  177.9790  135.7170 O   0  0  0  0  0  1  0  0  0  0  0  0
  181.6740  178.3070  136.2710 C   0  0  0  0  0  0  0  0  0  0  0  0
  180.5740  178.5800  135.4690 O   0  0  0  0  0  0  0  0  0  0  0  0
  1  5  1  6  0  0  0
  1  3  1  0  0  0  0
  1 35  1  0  0  0  0
  3  4  2  0  0  0  0
  3  2  1  0  0  0  0
  6  5  2  0  0  0  0
  7  6  2  0  0  0  0
  8  9  1  1  0  0  0
  8  7  1  0  0  0  0
 10  8  1  0  0  0  0
 11 10  1  0  0  0  0
 12 11  1  0  0  0  0
 13 12  1  0  0  0  0
 14 21  1  0  0  0  0
 14 18  1  0  0  0  0
 15 30  1  6  0  0  0
 15 16  1  0  0  0  0
 18 15  1  0  0  0  0
 21 25  1  6  0  0  0
 21 27  1  0  0  0  0
 21 20  1  0  0  0  0
 22 24  2  0  0  0  0
 23 26  1  0  0  0  0
 24 28  1  0  0  0  0
 25 28  1  0  0  0  0
 26 20  1  0  0  0  0
 26 19  1  1  0  0  0
 27 17  1  6  0  0  0
 27 15  1  0  0  0  0
 27 16  1  0  0  0  0
 28 23  1  0  0  0  0
 29 24  1  0  0  0  0
 29 13  1  0  0  0  0
 30 31  1  6  0  0  0
 32 33  1  0  0  0  0
 33 30  1  0  0  0  0
 34 33  2  0  0  0  0
 35 43  1  0  0  0  0
 36 38  1  1  0  0  0
 37 46  1  0  0  0  0
 38 39  1  0  0  0  0
 39 44  1  0  0  0  0
 40 41  1  0  0  0  0
 41 44  1  0  0  0  0
 42 36  1  0  0  0  0
 42 40  1  1  0  0  0
 43 36  1  0  0  0  0
 45 49  1  6  0  0  0
 45 42  1  0  0  0  0
 46 45  1  0  0  0  0
 46 43  2  0  0  0  0
 48 49  1  0  0  0  0
 48 47  2  0  0  0  0
 50 48  1  0  0  0  0
 51 55  1  0  0  0  0
 52 56  1  0  0  0  0
 52 50  2  0  0  0  0
 53 52  1  0  0  0  0
 54 51  2  0  0  0  0
 54 57  1  0  0  0  0
 56 55  1  6  0  0  0
 56 61  1  0  0  0  0
 57 58  1  6  0  0  0
 57 53  1  0  0  0  0
 59 63  1  0  0  0  0
 60 61  1  0  0  0  0
 60 59  1  0  0  0  0
 61 62  1  1  0  0  0
 62 64  1  0  0  0  0
 63 64  1  0  0  0  0
 65 66  1  0  0  0  0
 66 54  1  0  0  0  0
 67 66  2  0  0  0  0
M  END
>  <MODEL>
4

>  <REMARK>
 VINA RESULT:      -4.8      2.996     11.447
  Name = 
  16 active torsions:
  status: ('A' for Active; 'I' for Inactive)
    1  A    between atoms: C_2  and  C_13
    2  A    between atoms: C_4  and  C_15
    3  A    between atoms: C_4  and  C_51
    4  A    between atoms: C_5  and  C_9
    5  A    between atoms: C_9  and  C_42
    6  A    between atoms: N_12  and  C_23
    7  A    between atoms: N_12  and  C_46
    8  A    between atoms: C_15  and  N_67
    9  A    between atoms: C_18  and  C_23
   10  A    between atoms: C_19  and  C_23
   11  A    between atoms: N_22  and  C_61
   12  A    between atoms: C_31  and  C_36
   13  A    between atoms: C_41  and  C_49
   14  A    between atoms: C_41  and  C_54
   15  A    between atoms: C_49  and  C_51
   16  A    between atoms: C_52  and  C_63
                            x       y       z     vdW  Elec       q    Type
                         _______ _______ _______ _____ _____    ______ ____

>  <TORSDO>
F 16

$$$$
=
 OpenBabel10222416023D

 67 73  0  0  1  0  0  0  0  0999 V2000
  180.7600  175.2930  140.1050 C   0  0  1  0  0  3  0  0  0  0  0  0
  179.4620  173.1350  140.5170 N   0  0  0  0  0  1  0  0  0  0  0  0
  179.7180  174.5050  140.8380 C   0  0  0  0  0  0  0  0  0  0  0  0
  179.0760  175.0470  141.7690 O   0  0  0  0  0  0  0  0  0  0  0  0
  180.4720  175.4150  138.6450 C   0  0  0  0  0  3  0  0  0  0  0  0
  180.8790  174.4990  137.8100 C   0  0  0  0  0  0  0  0  0  0  0  0
  181.2690  173.5900  136.9600 C   0  0  0  0  0  3  0  0  0  0  0  0
  182.1930  173.9530  135.8500 C   0  0  2  0  0  3  0  0  0  0  0  0
  182.2320  172.8690  134.8850 N   0  0  0  0  0  1  0  0  0  0  0  0
  183.5830  174.2000  136.4100 C   0  0  0  0  0  2  0  0  0  0  0  0
  183.9870  175.6500  136.1950 C   0  0  0  0  0  2  0  0  0  0  0  0
  185.4970  175.8070  136.3020 C   0  0  0  0  0  2  0  0  0  0  0  0
  186.1990  174.8730  135.3310 C   0  0  0  0  0  2  0  0  0  0  0  0
  192.7480  174.8170  134.5940 C   0  0  0  0  0  2  0  0  0  0  0  0
  193.8130  174.4900  136.5330 C   0  0  2  0  0  0  0  0  0  0  0  0
  193.3580  175.5190  137.3900 O   0  0  0  0  0  0  0  0  0  0  0  0
  191.9720  173.6270  137.8420 O   0  0  0  0  0  1  0  0  0  0  0  0
  194.0120  174.9190  135.2120 O   0  0  0  0  0  0  0  0  0  0  0  0
  189.9400  177.7930  134.5940 O   0  0  0  0  0  1  0  0  0  0  0  0
  191.1540  176.2260  135.7370 O   0  0  0  0  0  0  0  0  0  0  0  0
  191.6570  174.9010  135.6530 C   0  0  1  0  0  0  0  0  0  0  0  0
  188.5740  172.4240  136.7010 O   0  0  0  0  0  0  0  0  0  0  0  0
  188.9170  175.7110  135.1260 C   0  0  0  0  0  2  0  0  0  0  0  0
  188.2180  173.4890  136.1320 C   0  0  0  0  0  0  0  0  0  0  0  0
  190.5800  173.8230  135.3860 C   0  0  0  0  0  2  0  0  0  0  0  0
  190.1930  176.4300  134.7300 C   0  0  1  0  0  3  0  0  0  0  0  0
  192.4040  174.5860  136.9200 C   0  0  2  0  0  0  0  0  0  0  0  0
  189.2200  174.3460  135.5560 N   0  0  0  0  0  0  0  0  0  0  0  0
  186.8120  173.7720  136.0570 N   0  0  0  0  0  2  0  0  0  0  0  0
  194.7990  173.4810  137.1560 C   0  0  1  0  0  3  0  0  0  0  0  0
  195.3540  172.6730  136.1620 O   0  0  0  0  0  1  0  0  0  0  0  0
  197.0670  174.6080  137.3310 N   0  0  0  0  0  2  0  0  0  0  0  0
  195.8990  174.1000  137.9650 C   0  0  0  0  0  0  0  0  0  0  0  0
  195.8110  174.1190  139.2530 N   0  0  0  0  0  1  0  0  0  0  0  0
  180.8940  176.6170  140.7020 N   0  0  0  0  0  2  0  0  0  0  0  0
  180.9910  179.0730  139.9980 C   0  0  2  0  0  3  0  0  0  0  0  0
  183.6400  176.5580  139.6790 O   0  0  0  0  0  1  0  0  0  0  0  0
  179.6010  179.0410  139.3660 C   0  0  0  0  0  2  0  0  0  0  0  0
  179.0000  180.4340  139.3220 C   0  0  0  0  0  2  0  0  0  0  0  0
  181.6710  180.2980  137.8090 C   0  0  0  0  0  2  0  0  0  0  0  0
  180.7510  181.5070  137.8420 C   0  0  0  0  0  2  0  0  0  0  0  0
  182.0600  179.8910  139.2320 C   0  0  2  0  0  3  0  0  0  0  0  0
  181.5750  177.7130  140.0800 C   0  0  0  0  0  0  0  0  0  0  0  0
  179.2920  181.0980  137.9810 C   0  0  0  0  0  2  0  0  0  0  0  0
  183.3080  179.0060  139.1740 C   0  0  2  0  0  3  0  0  0  0  0  0
  182.8250  177.6850  139.6430 C   0  0  0  0  0  0  0  0  0  0  0  0
  183.9340  177.8650  141.7130 O   0  0  0  0  0  0  0  0  0  0  0  0
  184.6310  178.8440  141.3300 C   0  0  0  0  0  0  0  0  0  0  0  0
  184.3020  179.5180  140.1110 N   0  0  0  0  0  2  0  0  0  0  0  0
  185.8140  179.2900  142.0900 C   0  0  0  0  0  3  0  0  0  0  0  0
  188.3520  176.3080  143.5470 C   0  0  0  0  0  3  0  0  0  0  0  0
  186.9980  178.6750  142.1770 C   0  0  0  0  0  0  0  0  0  0  0  0
  188.0500  179.3590  142.9960 C   0  0  0  0  0  2  0  0  0  0  0  0
  189.1360  177.3170  143.9600 C   0  0  0  0  0  0  0  0  0  0  0  0
  187.5650  176.2670  142.3810 O   0  0  0  0  0  0  0  0  0  0  0  0
  187.2590  177.3470  141.4950 C   0  0  2  0  0  3  0  0  0  0  0  0
  189.3220  178.5390  143.0980 C   0  0  2  0  0  3  0  0  0  0  0  0
  190.3830  179.3430  143.5100 O   0  0  0  0  0  1  0  0  0  0  0  0
  190.1620  177.1040  139.3120 C   0  0  0  0  0  2  0  0  0  0  0  0
  189.4830  177.4640  140.4910 O   0  0  0  0  0  0  0  0  0  0  0  0
  188.1090  177.3470  140.2180 C   0  0  2  0  0  3  0  0  0  0  0  0
  187.6630  178.4380  139.2350 C   0  0  0  0  0  2  0  0  0  0  0  0
  189.9500  178.1730  138.2400 C   0  0  0  0  0  2  0  0  0  0  0  0
  188.4570  178.2820  137.9400 C   0  0  0  0  0  2  0  0  0  0  0  0
  189.3070  177.7200  146.3030 O   0  0  0  0  0  1  0  0  0  0  0  0
  189.8020  177.1770  145.2820 C   0  0  0  0  0  0  0  0  0  0  0  0
  190.9860  176.4650  145.4180 O   0  0  0  0  0  0  0  0  0  0  0  0
  1  5  1  6  0  0  0
  1 35  1  0  0  0  0
  1  3  1  0  0  0  0
  2  3  1  0  0  0  0
  3  4  2  0  0  0  0
  6  5  2  0  0  0  0
  7  6  2  0  0  0  0
  8  9  1  6  0  0  0
  8 10  1  0  0  0  0
  8  7  1  0  0  0  0
 11 12  1  0  0  0  0
 11 10  1  0  0  0  0
 13 29  1  0  0  0  0
 13 12  1  0  0  0  0
 14 18  1  0  0  0  0
 15 27  1  0  0  0  0
 15 30  1  1  0  0  0
 15 16  1  0  0  0  0
 18 15  1  0  0  0  0
 21 14  1  6  0  0  0
 21 20  1  0  0  0  0
 21 27  1  0  0  0  0
 23 28  1  0  0  0  0
 24 22  2  0  0  0  0
 25 28  1  0  0  0  0
 25 21  1  0  0  0  0
 26 19  1  1  0  0  0
 26 23  1  0  0  0  0
 26 20  1  0  0  0  0
 27 16  1  0  0  0  0
 27 17  1  1  0  0  0
 28 24  1  0  0  0  0
 29 24  1  0  0  0  0
 30 31  1  6  0  0  0
 30 33  1  0  0  0  0
 32 33  2  0  0  0  0
 33 34  1  0  0  0  0
 36 38  1  6  0  0  0
 36 43  1  0  0  0  0
 39 38  1  0  0  0  0
 40 41  1  0  0  0  0
 41 44  1  0  0  0  0
 42 40  1  6  0  0  0
 42 36  1  0  0  0  0
 43 35  1  0  0  0  0
 44 39  1  0  0  0  0
 45 42  1  0  0  0  0
 45 46  1  0  0  0  0
 45 49  1  1  0  0  0
 46 37  1  0  0  0  0
 46 43  2  0  0  0  0
 48 47  2  0  0  0  0
 48 50  1  0  0  0  0
 49 48  1  0  0  0  0
 50 52  2  0  0  0  0
 51 54  2  0  0  0  0
 52 53  1  0  0  0  0
 53 57  1  0  0  0  0
 54 66  1  0  0  0  0
 55 51  1  0  0  0  0
 56 52  1  1  0  0  0
 56 55  1  0  0  0  0
 57 58  1  1  0  0  0
 57 54  1  0  0  0  0
 59 60  1  0  0  0  0
 61 62  1  6  0  0  0
 61 60  1  0  0  0  0
 61 56  1  0  0  0  0
 63 59  1  0  0  0  0
 64 63  1  0  0  0  0
 64 62  1  0  0  0  0
 66 67  2  0  0  0  0
 66 65  1  0  0  0  0
M  END
>  <MODEL>
5

>  <REMARK>
 VINA RESULT:      -4.2      2.660      8.355
  Name = 
  16 active torsions:
  status: ('A' for Active; 'I' for Inactive)
    1  A    between atoms: C_2  and  C_13
    2  A    between atoms: C_4  and  C_15
    3  A    between atoms: C_4  and  C_51
    4  A    between atoms: C_5  and  C_9
    5  A    between atoms: C_9  and  C_42
    6  A    between atoms: N_12  and  C_23
    7  A    between atoms: N_12  and  C_46
    8  A    between atoms: C_15  and  N_67
    9  A    between atoms: C_18  and  C_23
   10  A    between atoms: C_19  and  C_23
   11  A    between atoms: N_22  and  C_61
   12  A    between atoms: C_31  and  C_36
   13  A    between atoms: C_41  and  C_49
   14  A    between atoms: C_41  and  C_54
   15  A    between atoms: C_49  and  C_51
   16  A    between atoms: C_52  and  C_63
                            x       y       z     vdW  Elec       q    Type
                         _______ _______ _______ _____ _____    ______ ____

>  <TORSDO>
F 16

$$$$
=
 OpenBabel10222416023D

 67 73  0  0  1  0  0  0  0  0999 V2000
  192.0580  176.4090  139.7930 C   0  0  1  0  0  3  0  0  0  0  0  0
  193.4820  177.0280  137.7680 N   0  0  0  0  0  1  0  0  0  0  0  0
  193.2070  177.1380  139.1660 C   0  0  0  0  0  0  0  0  0  0  0  0
  193.9260  177.8830  139.8760 O   0  0  0  0  0  0  0  0  0  0  0  0
  191.5010  177.1210  140.9810 C   0  0  0  0  0  3  0  0  0  0  0  0
  190.3690  176.7440  141.5100 C   0  0  0  0  0  0  0  0  0  0  0  0
  189.2440  176.3780  142.0580 C   0  0  0  0  0  3  0  0  0  0  0  0
  188.1020  177.3310  142.1280 C   0  0  2  0  0  3  0  0  0  0  0  0
  188.6100  178.6910  142.0860 N   0  0  0  0  0  1  0  0  0  0  0  0
  187.3310  177.1050  143.4160 C   0  0  0  0  0  2  0  0  0  0  0  0
  187.5880  178.2420  144.3920 C   0  0  0  0  0  2  0  0  0  0  0  0
  186.3570  178.5010  145.2490 C   0  0  0  0  0  2  0  0  0  0  0  0
  185.1050  178.5190  144.3890 C   0  0  0  0  0  2  0  0  0  0  0  0
  179.9320  178.0680  140.3290 C   0  0  0  0  0  2  0  0  0  0  0  0
  179.6540  179.9220  139.1080 C   0  0  2  0  0  0  0  0  0  0  0  0
  179.5370  180.9750  140.0450 O   0  0  0  0  0  0  0  0  0  0  0  0
  181.8380  180.9140  139.4110 O   0  0  0  0  0  1  0  0  0  0  0  0
  179.0030  178.7460  139.5140 O   0  0  0  0  0  0  0  0  0  0  0  0
  180.3040  178.6440  144.3640 O   0  0  0  0  0  1  0  0  0  0  0  0
  180.5190  179.4400  142.2290 O   0  0  0  0  0  0  0  0  0  0  0  0
  180.9180  179.0710  140.9170 C   0  0  1  0  0  0  0  0  0  0  0  0
  184.9960  179.3800  140.8160 O   0  0  0  0  0  0  0  0  0  0  0  0
  182.4550  178.6320  143.3430 C   0  0  0  0  0  2  0  0  0  0  0  0
  184.5240  179.0600  141.9390 C   0  0  0  0  0  0  0  0  0  0  0  0
  182.3570  178.5140  140.8180 C   0  0  0  0  0  2  0  0  0  0  0  0
  180.9590  178.4690  143.1470 C   0  0  1  0  0  3  0  0  0  0  0  0
  180.7570  180.2600  140.0100 C   0  0  2  0  0  0  0  0  0  0  0  0
  183.1240  178.7430  142.0470 N   0  0  0  0  0  0  0  0  0  0  0  0
  185.4280  178.9940  143.0520 N   0  0  0  0  0  2  0  0  0  0  0  0
  179.6130  180.3330  137.6220 C   0  0  1  0  0  3  0  0  0  0  0  0
  180.0300  181.6570  137.4780 O   0  0  0  0  0  1  0  0  0  0  0  0
  181.2100  180.0230  135.6740 N   0  0  0  0  0  2  0  0  0  0  0  0
  180.4150  179.4560  136.7090 C   0  0  0  0  0  0  0  0  0  0  0  0
  180.3370  178.1720  136.8260 N   0  0  0  0  0  1  0  0  0  0  0  0
  191.0100  176.1870  138.8030 N   0  0  0  0  0  2  0  0  0  0  0  0
  191.8290  174.3660  137.2060 C   0  0  2  0  0  3  0  0  0  0  0  0
  190.2120  177.5370  136.3280 O   0  0  0  0  0  1  0  0  0  0  0  0
  193.1460  174.1730  137.9570 C   0  0  0  0  0  2  0  0  0  0  0  0
  193.7110  172.7880  137.7000 C   0  0  0  0  0  2  0  0  0  0  0  0
  193.3380  174.3660  135.0900 C   0  0  0  0  0  2  0  0  0  0  0  0
  194.0050  173.0050  135.1950 C   0  0  0  0  0  2  0  0  0  0  0  0
  191.9200  174.3050  135.6620 C   0  0  2  0  0  3  0  0  0  0  0  0
  191.2480  175.7030  137.4760 C   0  0  0  0  0  0  0  0  0  0  0  0
  194.6970  172.8220  136.5380 C   0  0  0  0  0  2  0  0  0  0  0  0
  191.1220  175.5050  135.1450 C   0  0  2  0  0  3  0  0  0  0  0  0
  190.8620  176.3080  136.3630 C   0  0  0  0  0  0  0  0  0  0  0  0
  189.7250  173.1580  135.9680 O   0  0  0  0  0  0  0  0  0  0  0  0
  189.1620  173.8990  135.1160 C   0  0  0  0  0  0  0  0  0  0  0  0
  189.8550  175.0370  134.5940 N   0  0  0  0  0  2  0  0  0  0  0  0
  187.7780  173.6450  134.6710 C   0  0  0  0  0  3  0  0  0  0  0  0
  185.0630  172.3860  137.5870 C   0  0  0  0  0  3  0  0  0  0  0  0
  186.6600  173.7810  135.3920 C   0  0  0  0  0  0  0  0  0  0  0  0
  185.3700  173.4860  134.6890 C   0  0  0  0  0  2  0  0  0  0  0  0
  184.1390  172.4610  136.6150 C   0  0  0  0  0  0  0  0  0  0  0  0
  186.1790  173.2240  137.7630 O   0  0  0  0  0  0  0  0  0  0  0  0
  186.6960  174.1960  136.8490 C   0  0  2  0  0  3  0  0  0  0  0  0
  184.1750  173.5890  135.6160 C   0  0  2  0  0  3  0  0  0  0  0  0
  182.9980  173.7010  134.8770 O   0  0  0  0  0  1  0  0  0  0  0  0
  185.1070  177.4630  136.6120 C   0  0  0  0  0  2  0  0  0  0  0  0
  185.7440  176.3180  136.1000 O   0  0  0  0  0  0  0  0  0  0  0  0
  186.2940  175.6340  137.1990 C   0  0  2  0  0  3  0  0  0  0  0  0
  187.4670  176.4270  137.7900 C   0  0  0  0  0  2  0  0  0  0  0  0
  186.1510  178.4550  137.1260 C   0  0  0  0  0  2  0  0  0  0  0  0
  186.9560  177.7930  138.2420 C   0  0  0  0  0  2  0  0  0  0  0  0
  183.2830  170.3550  135.8980 O   0  0  0  0  0  0  0  0  0  0  0  0
  183.0960  171.4010  136.5700 C   0  0  0  0  0  0  0  0  0  0  0  0
  181.8950  171.5470  137.2500 O   0  0  0  0  0  1  0  0  0  0  0  0
  1  5  1  1  0  0  0
  2  3  1  0  0  0  0
  3  1  1  0  0  0  0
  3  4  2  0  0  0  0
  5  6  2  0  0  0  0
  6  7  2  0  0  0  0
  7  8  1  0  0  0  0
  8  9  1  1  0  0  0
  8 10  1  0  0  0  0
 10 11  1  0  0  0  0
 11 12  1  0  0  0  0
 13 12  1  0  0  0  0
 15 30  1  6  0  0  0
 15 18  1  0  0  0  0
 15 27  1  0  0  0  0
 15 16  1  0  0  0  0
 18 14  1  0  0  0  0
 20 26  1  0  0  0  0
 21 14  1  6  0  0  0
 21 20  1  0  0  0  0
 22 24  2  0  0  0  0
 24 28  1  0  0  0  0
 24 29  1  0  0  0  0
 25 21  1  0  0  0  0
 25 28  1  0  0  0  0
 26 23  1  0  0  0  0
 26 19  1  1  0  0  0
 27 17  1  6  0  0  0
 27 16  1  0  0  0  0
 27 21  1  0  0  0  0
 28 23  1  0  0  0  0
 29 13  1  0  0  0  0
 30 31  1  1  0  0  0
 32 33  2  0  0  0  0
 33 34  1  0  0  0  0
 33 30  1  0  0  0  0
 35  1  1  0  0  0  0
 36 43  1  0  0  0  0
 36 38  1  1  0  0  0
 37 46  1  0  0  0  0
 39 38  1  0  0  0  0
 40 41  1  0  0  0  0
 41 44  1  0  0  0  0
 42 40  1  1  0  0  0
 42 36  1  0  0  0  0
 43 35  1  0  0  0  0
 44 39  1  0  0  0  0
 45 49  1  1  0  0  0
 45 42  1  0  0  0  0
 45 46  1  0  0  0  0
 46 43  2  0  0  0  0
 48 47  2  0  0  0  0
 49 48  1  0  0  0  0
 50 48  1  0  0  0  0
 50 52  2  0  0  0  0
 51 55  1  0  0  0  0
 53 52  1  0  0  0  0
 53 57  1  0  0  0  0
 54 51  2  0  0  0  0
 56 52  1  6  0  0  0
 56 61  1  0  0  0  0
 56 55  1  0  0  0  0
 57 58  1  6  0  0  0
 57 54  1  0  0  0  0
 59 63  1  0  0  0  0
 60 59  1  0  0  0  0
 60 61  1  0  0  0  0
 61 62  1  6  0  0  0
 62 64  1  0  0  0  0
 63 64  1  0  0  0  0
 65 66  2  0  0  0  0
 66 54  1  0  0  0  0
 66 67  1  0  0  0  0
M  END
>  <MODEL>
6

>  <REMARK>
 VINA RESULT:      -4.1      3.309      9.045
  Name = 
  16 active torsions:
  status: ('A' for Active; 'I' for Inactive)
    1  A    between atoms: C_2  and  C_13
    2  A    between atoms: C_4  and  C_15
    3  A    between atoms: C_4  and  C_51
    4  A    between atoms: C_5  and  C_9
    5  A    between atoms: C_9  and  C_42
    6  A    between atoms: N_12  and  C_23
    7  A    between atoms: N_12  and  C_46
    8  A    between atoms: C_15  and  N_67
    9  A    between atoms: C_18  and  C_23
   10  A    between atoms: C_19  and  C_23
   11  A    between atoms: N_22  and  C_61
   12  A    between atoms: C_31  and  C_36
   13  A    between atoms: C_41  and  C_49
   14  A    between atoms: C_41  and  C_54
   15  A    between atoms: C_49  and  C_51
   16  A    between atoms: C_52  and  C_63
                            x       y       z     vdW  Elec       q    Type
                         _______ _______ _______ _____ _____    ______ ____

>  <TORSDO>
F 16

$$$$
