=
 OpenBabel10222418203D

 34 37  0  0  1  0  0  0  0  0999 V2000
  189.8100  177.2950  140.4160 C   0  0  0  0  0  0  0  0  0  0  0  0
  185.6440  177.8590  137.3510 C   0  0  0  0  0  2  0  0  0  0  0  0
  184.8190  179.2210  143.3440 C   0  0  0  0  0  2  0  0  0  0  0  0
  182.8890  177.2370  139.0630 N   0  0  0  0  0  0  0  0  0  0  0  0
  182.3000  178.6400  141.8470 C   0  0  0  0  0  2  0  0  0  0  0  0
  189.4930  176.9590  139.0960 C   0  0  0  0  0  3  0  0  0  0  0  0
  181.2650  179.0180  139.6260 C   0  0  1  0  0  3  0  0  0  0  0  0
  181.1860  178.5890  143.9540 O   0  0  0  0  0  1  0  0  0  0  0  0
  181.0290  179.3190  137.4000 C   0  0  0  0  0  3  0  0  0  0  0  0
  184.7480  176.6520  137.5910 C   0  0  0  0  0  2  0  0  0  0  0  0
  180.8720  179.9090  138.7260 C   0  0  0  0  0  3  0  0  0  0  0  0
  188.2720  177.3500  138.5460 C   0  0  0  0  0  3  0  0  0  0  0  0
  185.6150  177.9310  142.3470 S   0  0  0  0  0  0  0  0  0  0  0  0
  188.8900  178.0130  141.1800 C   0  0  0  0  0  3  0  0  0  0  0  0
  186.0640  178.4810  138.6470 C   0  0  0  0  0  0  0  0  0  0  0  0
  187.3410  178.0840  139.2980 C   0  0  0  0  0  0  0  0  0  0  0  0
  183.5770  178.6510  144.0140 C   0  0  2  0  0  3  0  0  0  0  0  0
  186.7170  179.1310  141.5460 C   0  0  0  0  0  2  0  0  0  0  0  0
  181.3900  178.0540  137.5580 C   0  0  2  0  0  3  0  0  0  0  0  0
  181.1330  179.2520  141.0940 C   0  0  0  0  0  2  0  0  0  0  0  0
  181.5090  177.6940  138.9850 C   0  0  1  0  0  3  0  0  0  0  0  0
  183.3460  177.0840  137.8580 C   0  0  0  0  0  0  0  0  0  0  0  0
  182.3060  179.1040  143.2960 C   0  0  1  0  0  3  0  0  0  0  0  0
  187.6640  178.4170  140.6390 C   0  0  0  0  0  0  0  0  0  0  0  0
  185.3110  179.3450  139.1670 O   0  0  0  0  0  0  0  0  0  0  0  0
  182.4760  177.5250  136.8180 N   0  0  0  0  0  2  0  0  0  0  0  0
  183.5400  179.0900  145.4010 N   0  0  0  0  0  2  0  0  0  0  0  0
  185.2460  178.3150  146.9360 C   0  0  0  0  0  1  0  0  0  0  0  0
  184.9170  179.2860  145.8230 C   0  0  0  0  0  2  0  0  0  0  0  0
  191.0510  176.8980  141.0080 N   0  0  0  0  0  2  0  0  0  0  0  0
  191.5240  177.3920  142.2940 C   0  0  0  0  0  2  0  0  0  0  0  0
  191.2520  176.3730  143.3860 C   0  0  2  0  0  3  0  0  0  0  0  0
  190.5400  175.2910  142.8690 O   0  0  0  0  0  1  0  0  0  0  0  0
  190.4410  177.0230  144.4870 C   0  0  0  0  0  1  0  0  0  0  0  0
  1 30  1  0  0  0  0
  1 14  1  0  0  0  0
  2 10  1  0  0  0  0
  2 15  1  0  0  0  0
  3 17  1  0  0  0  0
  5 23  1  0  0  0  0
  6  1  2  0  0  0  0
  7 11  1  6  0  0  0
  7 20  1  0  0  0  0
  9 11  2  0  0  0  0
 10 22  1  0  0  0  0
 12  6  1  0  0  0  0
 12 16  2  0  0  0  0
 13  3  1  0  0  0  0
 15 25  2  0  0  0  0
 15 16  1  0  0  0  0
 16 24  1  0  0  0  0
 17 27  1  1  0  0  0
 18 13  1  0  0  0  0
 19  9  1  1  0  0  0
 19 21  1  0  0  0  0
 20  5  1  0  0  0  0
 21  4  1  6  0  0  0
 21  7  1  0  0  0  0
 22  4  2  0  0  0  0
 23  8  1  1  0  0  0
 23 17  1  0  0  0  0
 24 14  2  0  0  0  0
 24 18  1  0  0  0  0
 26 19  1  0  0  0  0
 26 22  1  0  0  0  0
 27 29  1  0  0  0  0
 29 28  1  0  0  0  0
 30 31  1  0  0  0  0
 31 32  1  0  0  0  0
 32 34  1  1  0  0  0
 33 32  1  0  0  0  0
M  END
>  <MODEL>
1

>  <REMARK>
 VINA RESULT:      -8.1      0.000      0.000
  Name = 
  5 active torsions:
  status: ('A' for Active; 'I' for Inactive)
    1  A    between atoms: C_1  and  N_33
    2  A    between atoms: C_9  and  C_31
    3  A    between atoms: N_10  and  C_22
    4  A    between atoms: N_10  and  C_30
    5  A    between atoms: C_31  and  N_33
                            x       y       z     vdW  Elec       q    Type
                         _______ _______ _______ _____ _____    ______ ____

>  <TORSDO>
F 5

$$$$
=
 OpenBabel10222418203D

 34 37  0  0  1  0  0  0  0  0999 V2000
  188.4970  178.4340  138.5270 C   0  0  0  0  0  0  0  0  0  0  0  0
  191.2530  176.8260  142.6370 C   0  0  0  0  0  2  0  0  0  0  0  0
  185.3170  178.2500  143.7280 C   0  0  0  0  0  2  0  0  0  0  0  0
  190.1390  178.2810  145.3840 N   0  0  0  0  0  0  0  0  0  0  0  0
  187.0610  178.2610  146.1540 C   0  0  0  0  0  2  0  0  0  0  0  0
  189.8490  178.1800  138.7810 C   0  0  0  0  0  3  0  0  0  0  0  0
  188.9570  177.0140  147.1520 C   0  0  1  0  0  3  0  0  0  0  0  0
  185.2510  179.2840  147.3190 O   0  0  0  0  0  1  0  0  0  0  0  0
  190.8450  175.7900  147.3480 C   0  0  0  0  0  3  0  0  0  0  0  0
  191.6090  178.0650  143.4460 C   0  0  0  0  0  2  0  0  0  0  0  0
  189.4060  175.8440  147.5850 C   0  0  0  0  0  3  0  0  0  0  0  0
  190.2460  177.6580  140.0130 C   0  0  0  0  0  3  0  0  0  0  0  0
  186.7260  178.9330  142.8110 S   0  0  0  0  0  0  0  0  0  0  0  0
  187.5520  178.1710  139.5190 C   0  0  0  0  0  3  0  0  0  0  0  0
  189.7940  176.8070  142.3000 C   0  0  0  0  0  0  0  0  0  0  0  0
  189.3050  177.3760  141.0170 C   0  0  0  0  0  0  0  0  0  0  0  0
  185.0320  179.1220  144.9430 C   0  0  2  0  0  3  0  0  0  0  0  0
  186.8660  177.4460  141.7790 C   0  0  0  0  0  2  0  0  0  0  0  0
  191.2280  176.9750  146.8970 C   0  0  2  0  0  3  0  0  0  0  0  0
  187.5420  177.4490  147.3420 C   0  0  0  0  0  2  0  0  0  0  0  0
  190.0910  177.9120  146.7920 C   0  0  1  0  0  3  0  0  0  0  0  0
  191.2630  177.8700  144.8830 C   0  0  0  0  0  0  0  0  0  0  0  0
  185.5560  178.4730  146.2230 C   0  0  1  0  0  3  0  0  0  0  0  0
  187.9360  177.6400  140.7560 C   0  0  0  0  0  0  0  0  0  0  0  0
  188.9960  176.2970  143.1310 O   0  0  0  0  0  0  0  0  0  0  0  0
  192.0600  177.0700  145.7540 N   0  0  0  0  0  2  0  0  0  0  0  0
  183.5960  179.3320  145.0510 N   0  0  0  0  0  2  0  0  0  0  0  0
  181.5290  178.7230  143.9450 C   0  0  0  0  0  1  0  0  0  0  0  0
  183.0130  178.9610  143.7730 C   0  0  0  0  0  2  0  0  0  0  0  0
  188.0640  178.9790  137.2770 N   0  0  0  0  0  2  0  0  0  0  0  0
  187.1770  178.2800  136.3580 C   0  0  0  0  0  2  0  0  0  0  0  0
  187.7620  176.9300  135.9810 C   0  0  2  0  0  3  0  0  0  0  0  0
  187.7940  176.7880  134.5940 O   0  0  0  0  0  1  0  0  0  0  0  0
  186.9080  175.8300  136.5750 C   0  0  0  0  0  1  0  0  0  0  0  0
  1  6  2  0  0  0  0
  1 14  1  0  0  0  0
  2 10  1  0  0  0  0
  3 17  1  0  0  0  0
  5 23  1  0  0  0  0
  5 20  1  0  0  0  0
  6 12  1  0  0  0  0
  7 20  1  1  0  0  0
  7 11  1  0  0  0  0
  9 11  2  0  0  0  0
 10 22  1  0  0  0  0
 12 16  2  0  0  0  0
 13  3  1  0  0  0  0
 14 24  2  0  0  0  0
 15  2  1  0  0  0  0
 15 25  2  0  0  0  0
 16 15  1  0  0  0  0
 17 27  1  1  0  0  0
 17 23  1  0  0  0  0
 18 13  1  0  0  0  0
 19  9  1  6  0  0  0
 21  4  1  6  0  0  0
 21 19  1  0  0  0  0
 21  7  1  0  0  0  0
 22  4  2  0  0  0  0
 22 26  1  0  0  0  0
 23  8  1  1  0  0  0
 24 16  1  0  0  0  0
 24 18  1  0  0  0  0
 26 19  1  0  0  0  0
 29 28  1  0  0  0  0
 29 27  1  0  0  0  0
 30  1  1  0  0  0  0
 31 30  1  0  0  0  0
 32 31  1  0  0  0  0
 32 34  1  1  0  0  0
 33 32  1  0  0  0  0
M  END
>  <MODEL>
2

>  <REMARK>
 VINA RESULT:      -7.6      3.260      7.574
  Name = 
  5 active torsions:
  status: ('A' for Active; 'I' for Inactive)
    1  A    between atoms: C_1  and  N_33
    2  A    between atoms: C_9  and  C_31
    3  A    between atoms: N_10  and  C_22
    4  A    between atoms: N_10  and  C_30
    5  A    between atoms: C_31  and  N_33
                            x       y       z     vdW  Elec       q    Type
                         _______ _______ _______ _____ _____    ______ ____

>  <TORSDO>
F 5

$$$$
=
 OpenBabel10222418203D

 34 37  0  0  1  0  0  0  0  0999 V2000
  190.4830  177.1520  147.0670 C   0  0  0  0  0  0  0  0  0  0  0  0
  185.5140  177.9290  145.7320 C   0  0  0  0  0  2  0  0  0  0  0  0
  189.4960  177.1180  141.0480 C   0  0  0  0  0  2  0  0  0  0  0  0
  185.3550  179.4990  142.8310 N   0  0  0  0  0  0  0  0  0  0  0  0
  186.9420  178.4670  140.2850 C   0  0  0  0  0  2  0  0  0  0  0  0
  189.3190  177.5330  147.7420 C   0  0  0  0  0  3  0  0  0  0  0  0
  184.5150  178.3890  140.7840 C   0  0  1  0  0  3  0  0  0  0  0  0
  187.9550  178.9590  138.1840 O   0  0  0  0  0  1  0  0  0  0  0  0
  182.5680  178.1140  141.8960 C   0  0  0  0  0  3  0  0  0  0  0  0
  185.3990  179.3740  145.2700 C   0  0  0  0  0  2  0  0  0  0  0  0
  183.4120  177.6550  140.7970 C   0  0  0  0  0  3  0  0  0  0  0  0
  188.0950  177.5600  147.0720 C   0  0  0  0  0  3  0  0  0  0  0  0
  189.4170  178.0320  142.6140 S   0  0  0  0  0  0  0  0  0  0  0  0
  190.4110  176.8120  145.7160 C   0  0  0  0  0  3  0  0  0  0  0  0
  186.6670  177.2440  145.0670 C   0  0  0  0  0  0  0  0  0  0  0  0
  188.0050  177.2070  145.7160 C   0  0  0  0  0  0  0  0  0  0  0  0
  189.3980  178.0960  139.8850 C   0  0  2  0  0  3  0  0  0  0  0  0
  189.2150  176.5050  143.5760 C   0  0  0  0  0  2  0  0  0  0  0  0
  183.1380  179.1870  142.4240 C   0  0  2  0  0  3  0  0  0  0  0  0
  185.5500  178.2610  139.7160 C   0  0  0  0  0  2  0  0  0  0  0  0
  184.3980  179.5320  141.7350 C   0  0  1  0  0  3  0  0  0  0  0  0
  184.7040  179.4490  143.9520 C   0  0  0  0  0  0  0  0  0  0  0  0
  188.0010  178.0750  139.2650 C   0  0  1  0  0  3  0  0  0  0  0  0
  189.1890  176.8280  145.0330 C   0  0  0  0  0  0  0  0  0  0  0  0
  186.4740  176.7020  143.9460 O   0  0  0  0  0  0  0  0  0  0  0  0
  183.2920  179.2950  143.8280 N   0  0  0  0  0  2  0  0  0  0  0  0
  190.3870  177.7390  138.8800 N   0  0  0  0  0  2  0  0  0  0  0  0
  190.7190  175.5650  137.8640 C   0  0  0  0  0  1  0  0  0  0  0  0
  190.7910  176.3690  139.1450 C   0  0  0  0  0  2  0  0  0  0  0  0
  191.7520  177.1260  147.7270 N   0  0  0  0  0  2  0  0  0  0  0  0
  192.5130  175.9060  147.9600 C   0  0  0  0  0  2  0  0  0  0  0  0
  193.4400  176.0800  149.1510 C   0  0  2  0  0  3  0  0  0  0  0  0
  193.1830  175.0990  150.1090 O   0  0  0  0  0  1  0  0  0  0  0  0
  193.2170  177.4460  149.7640 C   0  0  0  0  0  1  0  0  0  0  0  0
  1 30  1  0  0  0  0
  1  6  1  0  0  0  0
  3 13  1  0  0  0  0
  4 22  2  0  0  0  0
  7 20  1  6  0  0  0
  7 11  1  0  0  0  0
  7 21  1  0  0  0  0
 10  2  1  0  0  0  0
 11  9  2  0  0  0  0
 12  6  2  0  0  0  0
 13 18  1  0  0  0  0
 14  1  2  0  0  0  0
 15 16  1  0  0  0  0
 15  2  1  0  0  0  0
 16 12  1  0  0  0  0
 17 27  1  6  0  0  0
 17  3  1  0  0  0  0
 18 24  1  0  0  0  0
 19  9  1  1  0  0  0
 19 26  1  0  0  0  0
 20  5  1  0  0  0  0
 21 19  1  0  0  0  0
 21  4  1  1  0  0  0
 22 10  1  0  0  0  0
 23  8  1  6  0  0  0
 23 17  1  0  0  0  0
 23  5  1  0  0  0  0
 24 16  2  0  0  0  0
 24 14  1  0  0  0  0
 25 15  2  0  0  0  0
 26 22  1  0  0  0  0
 27 29  1  0  0  0  0
 28 29  1  0  0  0  0
 30 31  1  0  0  0  0
 31 32  1  0  0  0  0
 32 34  1  1  0  0  0
 32 33  1  0  0  0  0
M  END
>  <MODEL>
3

>  <REMARK>
 VINA RESULT:      -7.6      3.097      6.687
  Name = 
  5 active torsions:
  status: ('A' for Active; 'I' for Inactive)
    1  A    between atoms: C_1  and  N_33
    2  A    between atoms: C_9  and  C_31
    3  A    between atoms: N_10  and  C_22
    4  A    between atoms: N_10  and  C_30
    5  A    between atoms: C_31  and  N_33
                            x       y       z     vdW  Elec       q    Type
                         _______ _______ _______ _____ _____    ______ ____

>  <TORSDO>
F 5

$$$$
=
 OpenBabel10222418203D

 34 37  0  0  1  0  0  0  0  0999 V2000
  190.1540  177.5050  146.1080 C   0  0  0  0  0  0  0  0  0  0  0  0
  185.1350  177.9470  144.8070 C   0  0  0  0  0  2  0  0  0  0  0  0
  189.1140  177.2410  140.1040 C   0  0  0  0  0  2  0  0  0  0  0  0
  184.8550  179.4220  141.8660 N   0  0  0  0  0  0  0  0  0  0  0  0
  186.4770  178.4140  139.3320 C   0  0  0  0  0  2  0  0  0  0  0  0
  188.9760  177.8350  146.7850 C   0  0  0  0  0  3  0  0  0  0  0  0
  184.0640  178.2060  139.8600 C   0  0  1  0  0  3  0  0  0  0  0  0
  187.4380  178.9050  137.2060 O   0  0  0  0  0  1  0  0  0  0  0  0
  182.1470  177.8480  141.0000 C   0  0  0  0  0  3  0  0  0  0  0  0
  184.9290  179.3690  144.3060 C   0  0  0  0  0  2  0  0  0  0  0  0
  183.0060  177.4090  139.9050 C   0  0  0  0  0  3  0  0  0  0  0  0
  187.7460  177.7700  146.1280 C   0  0  0  0  0  3  0  0  0  0  0  0
  188.9950  178.1930  141.6440 S   0  0  0  0  0  0  0  0  0  0  0  0
  190.0890  177.1220  144.7680 C   0  0  0  0  0  3  0  0  0  0  0  0
  186.3210  177.3130  144.1480 C   0  0  0  0  0  0  0  0  0  0  0  0
  187.6640  177.3750  144.7830 C   0  0  0  0  0  0  0  0  0  0  0  0
  188.9460  178.1780  138.9150 C   0  0  2  0  0  3  0  0  0  0  0  0
  188.8930  176.6850  142.6500 C   0  0  0  0  0  2  0  0  0  0  0  0
  182.6570  178.9670  141.4920 C   0  0  2  0  0  3  0  0  0  0  0  0
  185.0940  178.1100  138.7850 C   0  0  0  0  0  2  0  0  0  0  0  0
  183.8870  179.3670  140.7800 C   0  0  1  0  0  3  0  0  0  0  0  0
  184.2190  179.3660  142.9950 C   0  0  0  0  0  0  0  0  0  0  0  0
  187.5470  178.0560  138.3110 C   0  0  1  0  0  3  0  0  0  0  0  0
  188.8620  177.0460  144.0990 C   0  0  0  0  0  0  0  0  0  0  0  0
  186.1500  176.7290  143.0460 O   0  0  0  0  0  0  0  0  0  0  0  0
  182.8170  179.1240  142.8910 N   0  0  0  0  0  2  0  0  0  0  0  0
  189.9450  177.8520  137.9090 N   0  0  0  0  0  2  0  0  0  0  0  0
  191.8540  176.3880  137.6210 C   0  0  0  0  0  1  0  0  0  0  0  0
  190.4870  176.5480  138.2510 C   0  0  0  0  0  2  0  0  0  0  0  0
  191.4280  177.5730  146.7540 N   0  0  0  0  0  2  0  0  0  0  0  0
  191.6680  177.1070  148.1130 C   0  0  0  0  0  2  0  0  0  0  0  0
  192.4200  175.7870  148.0950 C   0  0  2  0  0  3  0  0  0  0  0  0
  193.7340  175.9760  148.5240 O   0  0  0  0  0  1  0  0  0  0  0  0
  192.4300  175.2360  146.6850 C   0  0  0  0  0  1  0  0  0  0  0  0
  1 30  1  0  0  0  0
  1  6  1  0  0  0  0
  3 13  1  0  0  0  0
  4 22  2  0  0  0  0
  7 20  1  6  0  0  0
  7 11  1  0  0  0  0
  7 21  1  0  0  0  0
 10  2  1  0  0  0  0
 11  9  2  0  0  0  0
 12  6  2  0  0  0  0
 13 18  1  0  0  0  0
 14  1  2  0  0  0  0
 15 16  1  0  0  0  0
 15  2  1  0  0  0  0
 16 12  1  0  0  0  0
 17 27  1  6  0  0  0
 17  3  1  0  0  0  0
 18 24  1  0  0  0  0
 19  9  1  1  0  0  0
 19 26  1  0  0  0  0
 20  5  1  0  0  0  0
 21 19  1  0  0  0  0
 21  4  1  1  0  0  0
 22 10  1  0  0  0  0
 23  8  1  6  0  0  0
 23 17  1  0  0  0  0
 23  5  1  0  0  0  0
 24 14  1  0  0  0  0
 24 16  2  0  0  0  0
 25 15  2  0  0  0  0
 26 22  1  0  0  0  0
 27 29  1  0  0  0  0
 28 29  1  0  0  0  0
 30 31  1  0  0  0  0
 32 34  1  6  0  0  0
 32 31  1  0  0  0  0
 32 33  1  0  0  0  0
M  END
>  <MODEL>
4

>  <REMARK>
 VINA RESULT:      -7.2      2.814      6.185
  Name = 
  5 active torsions:
  status: ('A' for Active; 'I' for Inactive)
    1  A    between atoms: C_1  and  N_33
    2  A    between atoms: C_9  and  C_31
    3  A    between atoms: N_10  and  C_22
    4  A    between atoms: N_10  and  C_30
    5  A    between atoms: C_31  and  N_33
                            x       y       z     vdW  Elec       q    Type
                         _______ _______ _______ _____ _____    ______ ____

>  <TORSDO>
F 5

$$$$
=
 OpenBabel10222418203D

 34 37  0  0  1  0  0  0  0  0999 V2000
  183.0420  178.3240  139.3140 C   0  0  0  0  0  0  0  0  0  0  0  0
  186.3120  178.2770  143.3600 C   0  0  0  0  0  2  0  0  0  0  0  0
  188.9070  177.7170  137.7560 C   0  0  0  0  0  2  0  0  0  0  0  0
  188.9290  176.3810  142.6760 N   0  0  0  0  0  0  0  0  0  0  0  0
  190.6120  176.7570  140.0140 C   0  0  0  0  0  2  0  0  0  0  0  0
  182.9040  178.2540  140.7040 C   0  0  0  0  0  3  0  0  0  0  0  0
  191.1900  177.3350  142.3530 C   0  0  1  0  0  3  0  0  0  0  0  0
  192.0620  175.8110  138.3750 O   0  0  0  0  0  1  0  0  0  0  0  0
  191.0200  178.1030  144.4710 C   0  0  0  0  0  3  0  0  0  0  0  0
  186.7090  176.8260  143.5940 C   0  0  0  0  0  2  0  0  0  0  0  0
  191.6810  178.2500  143.1780 C   0  0  0  0  0  3  0  0  0  0  0  0
  184.0260  178.3560  141.5270 C   0  0  0  0  0  3  0  0  0  0  0  0
  187.4790  177.0540  138.6580 S   0  0  0  0  0  0  0  0  0  0  0  0
  184.3110  178.4860  138.7580 C   0  0  0  0  0  3  0  0  0  0  0  0
  186.4600  178.6470  141.9170 C   0  0  0  0  0  0  0  0  0  0  0  0
  185.3090  178.5310  140.9830 C   0  0  0  0  0  0  0  0  0  0  0  0
  189.9540  176.6240  137.5890 C   0  0  2  0  0  3  0  0  0  0  0  0
  186.7680  178.7080  138.8910 C   0  0  0  0  0  2  0  0  0  0  0  0
  190.2490  177.0270  144.4130 C   0  0  2  0  0  3  0  0  0  0  0  0
  191.7250  177.1290  140.9760 C   0  0  0  0  0  2  0  0  0  0  0  0
  190.3240  176.3720  143.0920 C   0  0  1  0  0  3  0  0  0  0  0  0
  188.1910  176.6990  143.6960 C   0  0  0  0  0  0  0  0  0  0  0  0
  191.1070  176.8110  138.5750 C   0  0  1  0  0  3  0  0  0  0  0  0
  185.4440  178.5960  139.5720 C   0  0  0  0  0  0  0  0  0  0  0  0
  187.5820  179.0580  141.5180 O   0  0  0  0  0  0  0  0  0  0  0  0
  188.9080  177.0850  144.8670 N   0  0  0  0  0  2  0  0  0  0  0  0
  190.4630  176.6580  136.2270 N   0  0  0  0  0  2  0  0  0  0  0  0
  189.5900  174.3990  136.1790 C   0  0  0  0  0  1  0  0  0  0  0  0
  189.6670  175.7230  135.4500 C   0  0  0  0  0  2  0  0  0  0  0  0
  181.9090  178.2120  138.4470 N   0  0  0  0  0  2  0  0  0  0  0  0
  180.7490  179.0900  138.5200 C   0  0  0  0  0  2  0  0  0  0  0  0
  181.1810  180.5450  138.4590 C   0  0  2  0  0  3  0  0  0  0  0  0
  180.5500  181.2770  139.4650 O   0  0  0  0  0  1  0  0  0  0  0  0
  180.8050  181.1220  137.1100 C   0  0  0  0  0  1  0  0  0  0  0  0
  1  6  1  0  0  0  0
  2 10  1  0  0  0  0
  3 13  1  0  0  0  0
  4 22  2  0  0  0  0
  5 20  1  0  0  0  0
  6 12  2  0  0  0  0
  7 20  1  1  0  0  0
  7 21  1  0  0  0  0
  7 11  1  0  0  0  0
 10 22  1  0  0  0  0
 11  9  2  0  0  0  0
 13 18  1  0  0  0  0
 14  1  2  0  0  0  0
 14 24  1  0  0  0  0
 15  2  1  0  0  0  0
 16 12  1  0  0  0  0
 16 15  1  0  0  0  0
 17 27  1  6  0  0  0
 17  3  1  0  0  0  0
 17 23  1  0  0  0  0
 18 24  1  0  0  0  0
 19  9  1  6  0  0  0
 19 26  1  0  0  0  0
 21  4  1  6  0  0  0
 21 19  1  0  0  0  0
 22 26  1  0  0  0  0
 23  8  1  1  0  0  0
 23  5  1  0  0  0  0
 24 16  2  0  0  0  0
 25 15  2  0  0  0  0
 29 28  1  0  0  0  0
 29 27  1  0  0  0  0
 30 31  1  0  0  0  0
 30  1  1  0  0  0  0
 32 34  1  6  0  0  0
 32 31  1  0  0  0  0
 32 33  1  0  0  0  0
M  END
>  <MODEL>
5

>  <REMARK>
 VINA RESULT:      -7.0      2.499      9.116
  Name = 
  5 active torsions:
  status: ('A' for Active; 'I' for Inactive)
    1  A    between atoms: C_1  and  N_33
    2  A    between atoms: C_9  and  C_31
    3  A    between atoms: N_10  and  C_22
    4  A    between atoms: N_10  and  C_30
    5  A    between atoms: C_31  and  N_33
                            x       y       z     vdW  Elec       q    Type
                         _______ _______ _______ _____ _____    ______ ____

>  <TORSDO>
F 5

$$$$
=
 OpenBabel10222418203D

 34 37  0  0  1  0  0  0  0  0999 V2000
  191.2130  177.6160  143.7640 C   0  0  0  0  0  0  0  0  0  0  0  0
  190.9250  176.9720  138.6090 C   0  0  0  0  0  2  0  0  0  0  0  0
  185.7590  178.9730  141.3960 C   0  0  0  0  0  2  0  0  0  0  0  0
  187.8590  176.0940  137.7490 N   0  0  0  0  0  0  0  0  0  0  0  0
  185.3200  177.7350  138.7120 C   0  0  0  0  0  2  0  0  0  0  0  0
  192.0350  177.0480  142.7840 C   0  0  0  0  0  3  0  0  0  0  0  0
  186.3720  177.6060  136.4720 C   0  0  1  0  0  3  0  0  0  0  0  0
  182.9860  177.7700  139.1970 O   0  0  0  0  0  1  0  0  0  0  0  0
  187.9370  177.5470  134.8440 C   0  0  0  0  0  3  0  0  0  0  0  0
  190.1830  175.6660  138.3650 C   0  0  0  0  0  2  0  0  0  0  0  0
  186.8070  178.2750  135.4140 C   0  0  0  0  0  3  0  0  0  0  0  0
  191.6780  177.1270  141.4370 C   0  0  0  0  0  3  0  0  0  0  0  0
  187.0490  177.7270  141.6710 S   0  0  0  0  0  0  0  0  0  0  0  0
  190.0310  178.2510  143.3830 C   0  0  0  0  0  3  0  0  0  0  0  0
  190.1850  177.8340  139.5850 C   0  0  0  0  0  0  0  0  0  0  0  0
  190.4970  177.7740  141.0380 C   0  0  0  0  0  0  0  0  0  0  0  0
  184.4590  178.2810  141.0120 C   0  0  2  0  0  3  0  0  0  0  0  0
  188.3540  178.9870  141.7240 C   0  0  0  0  0  2  0  0  0  0  0  0
  188.0590  176.4050  135.5040 C   0  0  2  0  0  3  0  0  0  0  0  0
  185.1520  178.0110  137.2290 C   0  0  0  0  0  2  0  0  0  0  0  0
  187.0370  176.2730  136.5610 C   0  0  1  0  0  3  0  0  0  0  0  0
  189.0820  175.8640  137.3800 C   0  0  0  0  0  0  0  0  0  0  0  0
  184.2000  178.3880  139.5090 C   0  0  1  0  0  3  0  0  0  0  0  0
  189.6650  178.3430  142.0350 C   0  0  0  0  0  0  0  0  0  0  0  0
  189.2940  178.6070  139.1440 O   0  0  0  0  0  0  0  0  0  0  0  0
  189.3270  175.9880  135.9800 N   0  0  0  0  0  2  0  0  0  0  0  0
  183.3600  178.8930  141.7440 N   0  0  0  0  0  2  0  0  0  0  0  0
  182.3770  179.0020  143.9550 C   0  0  0  0  0  1  0  0  0  0  0  0
  183.6260  178.6940  143.1580 C   0  0  0  0  0  2  0  0  0  0  0  0
  191.5500  177.5410  145.1520 N   0  0  0  0  0  2  0  0  0  0  0  0
  190.5990  177.1670  146.1920 C   0  0  0  0  0  2  0  0  0  0  0  0
  191.2810  176.3210  147.2540 C   0  0  2  0  0  3  0  0  0  0  0  0
  192.0460  177.1290  148.0950 O   0  0  0  0  0  1  0  0  0  0  0  0
  192.1810  175.3050  146.5830 C   0  0  0  0  0  1  0  0  0  0  0  0
  1 30  1  0  0  0  0
  2 15  1  0  0  0  0
  3 13  1  0  0  0  0
  5 23  1  0  0  0  0
  6  1  2  0  0  0  0
  7 11  1  6  0  0  0
  7 21  1  0  0  0  0
  7 20  1  0  0  0  0
  9 11  2  0  0  0  0
 10  2  1  0  0  0  0
 12  6  1  0  0  0  0
 13 18  1  0  0  0  0
 14  1  1  0  0  0  0
 15 16  1  0  0  0  0
 16 12  2  0  0  0  0
 16 24  1  0  0  0  0
 17  3  1  0  0  0  0
 17 27  1  1  0  0  0
 18 24  1  0  0  0  0
 19  9  1  1  0  0  0
 19 26  1  0  0  0  0
 19 21  1  0  0  0  0
 20  5  1  0  0  0  0
 21  4  1  1  0  0  0
 22  4  2  0  0  0  0
 22 10  1  0  0  0  0
 23  8  1  1  0  0  0
 23 17  1  0  0  0  0
 24 14  2  0  0  0  0
 25 15  2  0  0  0  0
 26 22  1  0  0  0  0
 27 29  1  0  0  0  0
 29 28  1  0  0  0  0
 30 31  1  0  0  0  0
 31 32  1  0  0  0  0
 32 34  1  6  0  0  0
 32 33  1  0  0  0  0
M  END
>  <MODEL>
6

>  <REMARK>
 VINA RESULT:      -6.8      2.763      4.762
  Name = 
  5 active torsions:
  status: ('A' for Active; 'I' for Inactive)
    1  A    between atoms: C_1  and  N_33
    2  A    between atoms: C_9  and  C_31
    3  A    between atoms: N_10  and  C_22
    4  A    between atoms: N_10  and  C_30
    5  A    between atoms: C_31  and  N_33
                            x       y       z     vdW  Elec       q    Type
                         _______ _______ _______ _____ _____    ______ ____

>  <TORSDO>
F 5

$$$$
=
 OpenBabel10222418203D

 34 37  0  0  1  0  0  0  0  0999 V2000
  189.6850  177.1450  139.4980 C   0  0  0  0  0  0  0  0  0  0  0  0
  185.0600  177.5890  137.1580 C   0  0  0  0  0  2  0  0  0  0  0  0
  185.2520  179.2170  143.1380 C   0  0  0  0  0  2  0  0  0  0  0  0
  182.6350  177.0530  139.3350 N   0  0  0  0  0  0  0  0  0  0  0  0
  182.5190  178.5800  142.1140 C   0  0  0  0  0  2  0  0  0  0  0  0
  189.1510  176.7520  138.2660 C   0  0  0  0  0  3  0  0  0  0  0  0
  181.1230  178.8640  140.0860 C   0  0  1  0  0  3  0  0  0  0  0  0
  181.7770  178.6260  144.3790 O   0  0  0  0  0  1  0  0  0  0  0  0
  180.5140  179.0670  137.9200 C   0  0  0  0  0  3  0  0  0  0  0  0
  184.2220  176.3970  137.5990 C   0  0  0  0  0  2  0  0  0  0  0  0
  180.5810  179.7150  139.2260 C   0  0  0  0  0  3  0  0  0  0  0  0
  187.8530  177.1230  137.9140 C   0  0  0  0  0  3  0  0  0  0  0  0
  185.8730  177.8810  142.0790 S   0  0  0  0  0  0  0  0  0  0  0  0
  188.9050  177.8990  140.3740 C   0  0  0  0  0  3  0  0  0  0  0  0
  185.6900  178.2650  138.3350 C   0  0  0  0  0  0  0  0  0  0  0  0
  187.0600  177.8930  138.7800 C   0  0  0  0  0  0  0  0  0  0  0  0
  184.1430  178.6810  144.0330 C   0  0  2  0  0  3  0  0  0  0  0  0
  186.8210  179.0400  141.0520 C   0  0  0  0  0  2  0  0  0  0  0  0
  180.9010  177.8090  138.0700 C   0  0  2  0  0  3  0  0  0  0  0  0
  181.2390  179.1620  141.5430 C   0  0  0  0  0  2  0  0  0  0  0  0
  181.2600  177.5120  139.4720 C   0  0  1  0  0  3  0  0  0  0  0  0
  182.8840  176.8460  138.0790 C   0  0  0  0  0  0  0  0  0  0  0  0
  182.7680  179.1080  143.5200 C   0  0  1  0  0  3  0  0  0  0  0  0
  187.6040  178.2840  140.0300 C   0  0  0  0  0  0  0  0  0  0  0  0
  185.0320  179.1550  138.9370 O   0  0  0  0  0  0  0  0  0  0  0  0
  181.8490  177.2440  137.1820 N   0  0  0  0  0  2  0  0  0  0  0  0
  184.3390  179.1810  145.3850 N   0  0  0  0  0  2  0  0  0  0  0  0
  185.7470  178.4200  147.2030 C   0  0  0  0  0  1  0  0  0  0  0  0
  185.7090  178.8730  145.7600 C   0  0  0  0  0  2  0  0  0  0  0  0
  191.0090  176.7690  139.8890 N   0  0  0  0  0  2  0  0  0  0  0  0
  192.2050  177.1460  139.1470 C   0  0  0  0  0  2  0  0  0  0  0  0
  192.8410  175.9220  138.5110 C   0  0  2  0  0  3  0  0  0  0  0  0
  194.2260  175.9580  138.6760 O   0  0  0  0  0  1  0  0  0  0  0  0
  192.5160  175.9000  137.0320 C   0  0  0  0  0  1  0  0  0  0  0  0
  1 30  1  0  0  0  0
  1 14  1  0  0  0  0
  2 10  1  0  0  0  0
  2 15  1  0  0  0  0
  3 17  1  0  0  0  0
  5 23  1  0  0  0  0
  6  1  2  0  0  0  0
  7 11  1  1  0  0  0
  7 20  1  0  0  0  0
  9 11  2  0  0  0  0
 10 22  1  0  0  0  0
 12  6  1  0  0  0  0
 12 16  2  0  0  0  0
 13  3  1  0  0  0  0
 15 16  1  0  0  0  0
 15 25  2  0  0  0  0
 16 24  1  0  0  0  0
 17 27  1  1  0  0  0
 18 13  1  0  0  0  0
 19  9  1  1  0  0  0
 19 21  1  0  0  0  0
 20  5  1  0  0  0  0
 21  4  1  6  0  0  0
 21  7  1  0  0  0  0
 22  4  2  0  0  0  0
 23 17  1  0  0  0  0
 23  8  1  1  0  0  0
 24 14  2  0  0  0  0
 24 18  1  0  0  0  0
 26 19  1  0  0  0  0
 26 22  1  0  0  0  0
 27 29  1  0  0  0  0
 29 28  1  0  0  0  0
 31 30  1  0  0  0  0
 32 34  1  6  0  0  0
 32 33  1  0  0  0  0
 32 31  1  0  0  0  0
M  END
>  <MODEL>
7

>  <REMARK>
 VINA RESULT:      -6.8      1.643      2.051
  Name = 
  5 active torsions:
  status: ('A' for Active; 'I' for Inactive)
    1  A    between atoms: C_1  and  N_33
    2  A    between atoms: C_9  and  C_31
    3  A    between atoms: N_10  and  C_22
    4  A    between atoms: N_10  and  C_30
    5  A    between atoms: C_31  and  N_33
                            x       y       z     vdW  Elec       q    Type
                         _______ _______ _______ _____ _____    ______ ____

>  <TORSDO>
F 5

$$$$
=
 OpenBabel10222418203D

 34 37  0  0  1  0  0  0  0  0999 V2000
  191.1660  176.3840  136.6990 C   0  0  0  0  0  0  0  0  0  0  0  0
  186.1930  177.5690  135.7310 C   0  0  0  0  0  2  0  0  0  0  0  0
  188.1180  178.4590  141.5580 C   0  0  0  0  0  2  0  0  0  0  0  0
  184.3580  177.0320  138.4240 N   0  0  0  0  0  0  0  0  0  0  0  0
  185.1550  178.2280  141.2520 C   0  0  0  0  0  2  0  0  0  0  0  0
  190.2880  176.1950  135.6270 C   0  0  0  0  0  3  0  0  0  0  0  0
  183.3350  178.8880  139.7040 C   0  0  0  0  0  0  0  0  0  0  0  0
  185.0290  178.0840  143.6290 O   0  0  0  0  0  1  0  0  0  0  0  0
  182.2230  179.4040  137.8070 C   0  0  0  0  0  2  0  0  0  0  0  0
  185.3490  176.4250  136.2760 C   0  0  0  0  0  2  0  0  0  0  0  0
  182.7060  179.8840  139.0980 C   0  0  0  0  0  3  0  0  0  0  0  0
  189.0020  176.7350  135.6680 C   0  0  0  0  0  3  0  0  0  0  0  0
  188.2690  177.1990  140.2610 S   0  0  0  0  0  0  0  0  0  0  0  0
  190.7390  177.1070  137.8140 C   0  0  0  0  0  3  0  0  0  0  0  0
  187.1860  178.0350  136.7500 C   0  0  0  0  0  0  0  0  0  0  0  0
  188.5630  177.4760  136.7770 C   0  0  0  0  0  0  0  0  0  0  0  0
  187.2150  177.9380  142.6670 C   0  0  2  0  0  3  0  0  0  0  0  0
  189.0630  178.3670  139.1200 C   0  0  0  0  0  2  0  0  0  0  0  0
  182.4710  178.1040  137.7390 C   0  0  2  0  0  3  0  0  0  0  0  0
  183.8580  179.0000  141.0970 C   0  0  0  0  0  2  0  0  0  0  0  0
  183.1340  177.6100  138.9620 C   0  0  1  0  0  3  0  0  0  0  0  0
  184.2480  176.9490  137.1340 C   0  0  0  0  0  0  0  0  0  0  0  0
  185.8210  178.5590  142.5800 C   0  0  1  0  0  3  0  0  0  0  0  0
  189.4550  177.6600  137.8650 C   0  0  0  0  0  0  0  0  0  0  0  0
  186.8240  178.9110  137.5800 O   0  0  0  0  0  0  0  0  0  0  0  0
  183.0780  177.5520  136.5840 N   0  0  0  0  0  2  0  0  0  0  0  0
  187.8130  178.2540  143.9550 N   0  0  0  0  0  2  0  0  0  0  0  0
  189.0680  177.3030  145.7950 C   0  0  0  0  0  1  0  0  0  0  0  0
  188.4580  177.0440  144.4350 C   0  0  0  0  0  2  0  0  0  0  0  0
  192.4860  175.8330  136.6870 N   0  0  0  0  0  2  0  0  0  0  0  0
  192.9100  174.7420  137.5550 C   0  0  0  0  0  2  0  0  0  0  0  0
  194.3610  174.9280  137.9680 C   0  0  2  0  0  3  0  0  0  0  0  0
  195.0570  175.6250  136.9810 O   0  0  0  0  0  1  0  0  0  0  0  0
  195.0020  173.5700  138.1670 C   0  0  0  0  0  1  0  0  0  0  0  0
  1 14  1  0  0  0  0
  2 10  1  0  0  0  0
  2 15  1  0  0  0  0
  3 17  1  0  0  0  0
  5 23  1  0  0  0  0
  6 12  1  0  0  0  0
  6  1  2  0  0  0  0
  7 20  1  0  0  0  0
  9 11  1  0  0  0  0
 10 22  1  0  0  0  0
 11  7  2  0  0  0  0
 12 16  2  0  0  0  0
 13  3  1  0  0  0  0
 14 24  2  0  0  0  0
 15 16  1  0  0  0  0
 15 25  2  0  0  0  0
 16 24  1  0  0  0  0
 17 27  1  1  0  0  0
 18 13  1  0  0  0  0
 19  9  1  6  0  0  0
 19 21  1  0  0  0  0
 20  5  1  0  0  0  0
 21  4  1  6  0  0  0
 21  7  1  0  0  0  0
 22  4  2  0  0  0  0
 23 17  1  0  0  0  0
 23  8  1  1  0  0  0
 24 18  1  0  0  0  0
 26 22  1  0  0  0  0
 26 19  1  0  0  0  0
 27 29  1  0  0  0  0
 29 28  1  0  0  0  0
 30  1  1  0  0  0  0
 30 31  1  0  0  0  0
 31 32  1  0  0  0  0
 32 34  1  6  0  0  0
 33 32  1  0  0  0  0
M  END
>  <MODEL>
8

>  <REMARK>
 VINA RESULT:      -6.4      2.999      3.778
  Name = 
  5 active torsions:
  status: ('A' for Active; 'I' for Inactive)
    1  A    between atoms: C_1  and  N_33
    2  A    between atoms: C_9  and  C_31
    3  A    between atoms: N_10  and  C_22
    4  A    between atoms: N_10  and  C_30
    5  A    between atoms: C_31  and  N_33
                            x       y       z     vdW  Elec       q    Type
                         _______ _______ _______ _____ _____    ______ ____

>  <TORSDO>
F 5

$$$$
=
 OpenBabel10222418203D

 34 37  0  0  1  0  0  0  0  0999 V2000
  181.9260  178.6790  140.2860 C   0  0  0  0  0  0  0  0  0  0  0  0
  185.6950  178.5800  143.8720 C   0  0  0  0  0  2  0  0  0  0  0  0
  187.5400  178.1050  137.9710 C   0  0  0  0  0  2  0  0  0  0  0  0
  188.2000  176.6990  142.8270 N   0  0  0  0  0  0  0  0  0  0  0  0
  189.5230  177.1150  139.9740 C   0  0  0  0  0  2  0  0  0  0  0  0
  181.9700  178.5890  141.6810 C   0  0  0  0  0  3  0  0  0  0  0  0
  190.4000  177.6620  142.2270 C   0  0  1  0  0  3  0  0  0  0  0  0
  190.7470  176.1950  138.1470 O   0  0  0  0  0  1  0  0  0  0  0  0
  190.5070  178.3980  144.3590 C   0  0  0  0  0  3  0  0  0  0  0  0
  186.1190  177.1270  144.0310 C   0  0  0  0  0  2  0  0  0  0  0  0
  190.9940  178.5650  142.9930 C   0  0  0  0  0  3  0  0  0  0  0  0
  183.1900  178.6810  142.3520 C   0  0  0  0  0  3  0  0  0  0  0  0
  186.2410  177.4260  139.0410 S   0  0  0  0  0  0  0  0  0  0  0  0
  183.1130  178.8510  139.5720 C   0  0  0  0  0  3  0  0  0  0  0  0
  185.6540  178.9710  142.4270 C   0  0  0  0  0  0  0  0  0  0  0  0
  184.3910  178.8660  141.6490 C   0  0  0  0  0  0  0  0  0  0  0  0
  188.5550  177.0160  137.6540 C   0  0  2  0  0  3  0  0  0  0  0  0
  185.5660  179.0750  139.3880 C   0  0  0  0  0  2  0  0  0  0  0  0
  189.7350  177.3220  144.3870 C   0  0  2  0  0  3  0  0  0  0  0  0
  190.7520  177.4760  140.7880 C   0  0  0  0  0  2  0  0  0  0  0  0
  189.6370  176.6860  143.0580 C   0  0  1  0  0  3  0  0  0  0  0  0
  187.6020  177.0000  143.9380 C   0  0  0  0  0  0  0  0  0  0  0  0
  189.8270  177.1910  138.4840 C   0  0  1  0  0  3  0  0  0  0  0  0
  184.3420  178.9520  140.2340 C   0  0  0  0  0  0  0  0  0  0  0  0
  186.7140  179.3890  141.8920 O   0  0  0  0  0  0  0  0  0  0  0  0
  188.4640  177.3710  145.0110 N   0  0  0  0  0  2  0  0  0  0  0  0
  188.8830  177.0700  136.2370 N   0  0  0  0  0  2  0  0  0  0  0  0
  188.6340  174.8400  135.3250 C   0  0  0  0  0  1  0  0  0  0  0  0
  187.9640  176.1780  135.5520 C   0  0  0  0  0  2  0  0  0  0  0  0
  180.6900  178.5770  139.5720 N   0  0  0  0  0  2  0  0  0  0  0  0
  180.3560  177.4620  138.6970 C   0  0  0  0  0  2  0  0  0  0  0  0
  180.5120  176.1440  139.4360 C   0  0  2  0  0  3  0  0  0  0  0  0
  180.9100  175.1400  138.5520 O   0  0  0  0  0  1  0  0  0  0  0  0
  179.1870  175.7610  140.0610 C   0  0  0  0  0  1  0  0  0  0  0  0
  1  6  1  0  0  0  0
  2 10  1  0  0  0  0
  3 13  1  0  0  0  0
  4 22  2  0  0  0  0
  5 20  1  0  0  0  0
  6 12  2  0  0  0  0
  7 20  1  1  0  0  0
  7 11  1  0  0  0  0
  7 21  1  0  0  0  0
 11  9  2  0  0  0  0
 13 18  1  0  0  0  0
 14 24  1  0  0  0  0
 14  1  2  0  0  0  0
 15  2  1  0  0  0  0
 16 12  1  0  0  0  0
 16 15  1  0  0  0  0
 17 27  1  6  0  0  0
 17  3  1  0  0  0  0
 17 23  1  0  0  0  0
 18 24  1  0  0  0  0
 19  9  1  6  0  0  0
 19 26  1  0  0  0  0
 21  4  1  6  0  0  0
 21 19  1  0  0  0  0
 22 10  1  0  0  0  0
 22 26  1  0  0  0  0
 23  8  1  6  0  0  0
 23  5  1  0  0  0  0
 24 16  2  0  0  0  0
 25 15  2  0  0  0  0
 28 29  1  0  0  0  0
 29 27  1  0  0  0  0
 30  1  1  0  0  0  0
 31 32  1  0  0  0  0
 31 30  1  0  0  0  0
 32 34  1  6  0  0  0
 33 32  1  0  0  0  0
M  END
>  <MODEL>
9

>  <REMARK>
 VINA RESULT:      -6.2      2.655      8.797
  Name = 
  5 active torsions:
  status: ('A' for Active; 'I' for Inactive)
    1  A    between atoms: C_1  and  N_33
    2  A    between atoms: C_9  and  C_31
    3  A    between atoms: N_10  and  C_22
    4  A    between atoms: N_10  and  C_30
    5  A    between atoms: C_31  and  N_33
                            x       y       z     vdW  Elec       q    Type
                         _______ _______ _______ _____ _____    ______ ____

>  <TORSDO>
F 5

$$$$
