=
 OpenBabel10222420103D

 48 54  0  0  1  0  0  0  0  0999 V2000
  188.2010  178.1240  138.7840 C   0  0  0  0  0  3  0  0  0  0  0  0
  186.4100  178.5440  140.3940 C   0  0  0  0  0  0  0  0  0  0  0  0
  186.3400  178.1550  144.0900 C   0  0  0  0  0  0  0  0  0  0  0  0
  185.9590  178.5470  141.7280 C   0  0  0  0  0  0  0  0  0  0  0  0
  187.7310  178.1380  140.1040 C   0  0  0  0  0  0  0  0  0  0  0  0
  184.5020  178.5950  145.6260 C   0  0  0  0  0  3  0  0  0  0  0  0
  189.5030  177.7270  138.4970 C   0  0  0  0  0  3  0  0  0  0  0  0
  184.8090  178.2310  147.9610 F   0  0  0  0  0  0  0  0  0  0  0  0
  186.8190  178.1440  142.7700 C   0  0  0  0  0  0  0  0  0  0  0  0
  185.0120  178.5710  144.3250 C   0  0  0  0  0  0  0  0  0  0  0  0
  188.5980  177.7350  141.1510 C   0  0  0  0  0  0  0  0  0  0  0  0
  189.9230  177.3280  140.8630 C   0  0  0  0  0  0  0  0  0  0  0  0
  190.3730  177.3370  139.5200 C   0  0  0  0  0  0  0  0  0  0  0  0
  185.3060  178.2070  146.7000 C   0  0  0  0  0  0  0  0  0  0  0  0
  184.2310  178.9470  143.2820 N   0  0  0  0  0  0  0  0  0  0  0  0
  184.6880  178.9350  142.0290 N   0  0  0  0  0  0  0  0  0  0  0  0
  187.1390  177.7680  145.1790 C   0  0  0  0  0  3  0  0  0  0  0  0
  188.1260  177.7440  142.4700 C   0  0  0  0  0  3  0  0  0  0  0  0
  186.6230  177.7940  146.4780 C   0  0  0  0  0  3  0  0  0  0  0  0
  190.7820  176.1410  144.0720 N   0  0  0  0  0  2  0  0  0  0  0  0
  190.8150  176.8790  141.9980 C   0  0  1  0  0  3  0  0  0  0  0  0
  191.3520  178.0350  142.7950 C   0  0  0  0  0  2  0  0  0  0  0  0
  191.2220  177.5230  144.1930 C   0  0  0  0  0  2  0  0  0  0  0  0
  190.1400  176.0190  142.8760 O   0  0  0  0  0  0  0  0  0  0  0  0
  184.7950  179.2900  138.4900 N   0  0  0  0  0  0  0  0  0  0  0  0
  185.5130  178.9590  139.3350 C   0  0  0  0  0  0  0  0  0  0  0  0
  191.7630  176.9150  139.1440 C   0  0  0  0  0  2  0  0  0  0  0  0
  192.7950  175.1550  135.9460 C   0  0  0  0  0  0  0  0  0  0  0  0
  190.6620  174.2630  136.6690 C   0  0  0  0  0  0  0  0  0  0  0  0
  193.8190  175.1730  135.0610 F   0  0  0  0  0  0  0  0  0  0  0  0
  190.6810  175.1190  137.7760 C   0  0  0  0  0  3  0  0  0  0  0  0
  192.8120  176.0110  137.0520 C   0  0  0  0  0  3  0  0  0  0  0  0
  191.7560  175.9930  137.9700 C   0  0  0  0  0  0  0  0  0  0  0  0
  191.7220  174.2810  135.7560 C   0  0  0  0  0  3  0  0  0  0  0  0
  189.5230  173.3200  136.4700 C   0  0  0  0  0  2  0  0  0  0  0  0
  187.0550  173.4840  137.0300 C   0  0  0  0  0  0  0  0  0  0  0  0
  187.0430  172.3010  137.4650 O   0  0  0  0  0  0  0  0  0  0  0  0
  183.7890  175.0820  137.6590 C   0  0  0  0  0  0  0  0  0  0  0  0
  184.4490  176.1120  137.1320 C   0  0  0  0  0  3  0  0  0  0  0  0
  185.8150  175.6820  136.7150 C   0  0  0  0  0  2  0  0  0  0  0  0
  188.2580  174.0390  136.4900 N   0  0  0  0  0  2  0  0  0  0  0  0
  185.8600  174.2730  137.0730 N   0  0  0  0  0  0  0  0  0  0  0  0
  184.6000  173.8310  137.6500 C   0  0  2  0  0  3  0  0  0  0  0  0
  183.7360  173.0420  135.4310 O   0  0  0  0  0  0  0  0  0  0  0  0
  183.6100  171.6910  137.2770 O   0  0  0  0  0  1  0  0  0  0  0  0
  183.9600  172.7930  136.7800 C   0  0  0  0  0  0  0  0  0  0  0  0
  182.3510  175.9480  139.4790 C   0  0  0  0  0  1  0  0  0  0  0  0
  182.3880  175.1710  138.1760 C   0  0  0  0  0  2  0  0  0  0  0  0
  1  5  1  0  0  0  0
  2  4  1  0  0  0  0
  3 10  1  0  0  0  0
  3 17  1  0  0  0  0
  4 16  2  0  0  0  0
  4  9  1  0  0  0  0
  5  2  2  0  0  0  0
  5 11  1  0  0  0  0
  6 14  2  0  0  0  0
  7  1  2  0  0  0  0
  7 13  1  0  0  0  0
  9  3  2  0  0  0  0
 10  6  1  0  0  0  0
 11 18  2  0  0  0  0
 12 11  1  0  0  0  0
 13 12  2  0  0  0  0
 14  8  1  0  0  0  0
 15 10  2  0  0  0  0
 16 15  1  0  0  0  0
 17 19  2  0  0  0  0
 18  9  1  0  0  0  0
 19 14  1  0  0  0  0
 20 23  1  0  0  0  0
 21 12  1  6  0  0  0
 21 22  1  0  0  0  0
 21 24  1  0  0  0  0
 22 23  1  0  0  0  0
 24 20  1  0  0  0  0
 25 26  3  0  0  0  0
 26  2  1  0  0  0  0
 27 13  1  0  0  0  0
 28 32  1  0  0  0  0
 29 31  2  0  0  0  0
 30 28  1  0  0  0  0
 31 33  1  0  0  0  0
 32 33  2  0  0  0  0
 33 27  1  0  0  0  0
 34 28  2  0  0  0  0
 34 29  1  0  0  0  0
 35 41  1  0  0  0  0
 35 29  1  0  0  0  0
 36 42  1  0  0  0  0
 36 37  2  0  0  0  0
 38 48  1  0  0  0  0
 39 38  2  0  0  0  0
 40 42  1  0  0  0  0
 40 39  1  0  0  0  0
 41 36  1  0  0  0  0
 42 43  1  0  0  0  0
 43 46  1  6  0  0  0
 43 38  1  0  0  0  0
 44 46  2  0  0  0  0
 46 45  1  0  0  0  0
 48 47  1  0  0  0  0
M  END
>  <MODEL>
1

>  <REMARK>
 VINA RESULT:      -9.9      0.000      0.000
  Name = 
  8 active torsions:
  status: ('A' for Active; 'I' for Inactive)
    1  A    between atoms: C_4  and  C_27
    2  A    between atoms: C_5  and  C_43
    3  A    between atoms: C_9  and  C_11
    4  A    between atoms: C_9  and  N_42
    5  A    between atoms: C_26  and  C_37
    6  A    between atoms: C_28  and  C_48
    7  A    between atoms: C_30  and  C_37
    8  A    between atoms: C_36  and  C_47
                            x       y       z     vdW  Elec       q    Type
                         _______ _______ _______ _____ _____    ______ ____

>  <TORSDO>
F 8

$$$$
=
 OpenBabel10222420103D

 48 54  0  0  1  0  0  0  0  0999 V2000
  191.5320  177.0010  142.3130 C   0  0  0  0  0  3  0  0  0  0  0  0
  189.9040  177.2440  144.1200 C   0  0  0  0  0  0  0  0  0  0  0  0
  186.3210  178.2310  144.0310 C   0  0  0  0  0  0  0  0  0  0  0  0
  188.5950  177.5540  144.5340 C   0  0  0  0  0  0  0  0  0  0  0  0
  190.2360  177.3020  142.7490 C   0  0  0  0  0  0  0  0  0  0  0  0
  184.7640  178.4520  145.8890 C   0  0  0  0  0  3  0  0  0  0  0  0
  191.8590  177.0550  140.9620 C   0  0  0  0  0  3  0  0  0  0  0  0
  182.5140  179.1140  145.4640 F   0  0  0  0  0  0  0  0  0  0  0  0
  187.6180  177.9250  143.5860 C   0  0  0  0  0  0  0  0  0  0  0  0
  186.0430  178.1550  145.4110 C   0  0  0  0  0  0  0  0  0  0  0  0
  189.2550  177.6720  141.7940 C   0  0  0  0  0  0  0  0  0  0  0  0
  189.5830  177.7320  140.4190 C   0  0  0  0  0  0  0  0  0  0  0  0
  190.9000  177.4090  140.0080 C   0  0  0  0  0  0  0  0  0  0  0  0
  183.7540  178.8270  144.9990 C   0  0  0  0  0  0  0  0  0  0  0  0
  187.0240  177.7930  146.2770 N   0  0  0  0  0  0  0  0  0  0  0  0
  188.2550  177.5030  145.8530 N   0  0  0  0  0  0  0  0  0  0  0  0
  185.2970  178.6080  143.1450 C   0  0  0  0  0  3  0  0  0  0  0  0
  187.9590  177.9790  142.2310 C   0  0  0  0  0  3  0  0  0  0  0  0
  184.0200  178.9040  143.6280 C   0  0  0  0  0  3  0  0  0  0  0  0
  187.4480  177.5040  137.6200 N   0  0  0  0  0  2  0  0  0  0  0  0
  188.5220  178.1550  139.4280 C   0  0  1  0  0  3  0  0  0  0  0  0
  189.0730  179.0440  138.3480 C   0  0  0  0  0  2  0  0  0  0  0  0
  188.3860  178.5050  137.1350 C   0  0  0  0  0  2  0  0  0  0  0  0
  187.9170  177.0490  138.8170 O   0  0  0  0  0  0  0  0  0  0  0  0
  191.6870  176.5670  145.8960 N   0  0  0  0  0  0  0  0  0  0  0  0
  190.8960  176.8670  145.1060 C   0  0  0  0  0  0  0  0  0  0  0  0
  191.3180  177.4540  138.5680 C   0  0  0  0  0  2  0  0  0  0  0  0
  192.8770  174.2720  137.2140 C   0  0  0  0  0  0  0  0  0  0  0  0
  190.4660  174.0470  137.1380 C   0  0  0  0  0  0  0  0  0  0  0  0
  194.1100  173.7610  136.9850 F   0  0  0  0  0  0  0  0  0  0  0  0
  190.3310  175.3280  137.6850 C   0  0  0  0  0  3  0  0  0  0  0  0
  192.7410  175.5520  137.7590 C   0  0  0  0  0  3  0  0  0  0  0  0
  191.4680  176.0810  137.9990 C   0  0  0  0  0  0  0  0  0  0  0  0
  191.7400  173.5190  136.9040 C   0  0  0  0  0  3  0  0  0  0  0  0
  189.2550  173.2380  136.8180 C   0  0  0  0  0  2  0  0  0  0  0  0
  186.9150  174.1920  136.5970 C   0  0  0  0  0  0  0  0  0  0  0  0
  186.5230  173.5450  137.6050 O   0  0  0  0  0  0  0  0  0  0  0  0
  184.2370  176.4520  135.4390 C   0  0  0  0  0  0  0  0  0  0  0  0
  185.2080  176.7960  134.5940 C   0  0  0  0  0  3  0  0  0  0  0  0
  186.4100  175.9420  134.8220 C   0  0  0  0  0  2  0  0  0  0  0  0
  188.2620  174.0550  136.1350 N   0  0  0  0  0  2  0  0  0  0  0  0
  186.0090  175.0630  135.9090 N   0  0  0  0  0  0  0  0  0  0  0  0
  184.6380  175.3210  136.3240 C   0  0  2  0  0  3  0  0  0  0  0  0
  182.9530  173.6190  137.0680 O   0  0  0  0  0  1  0  0  0  0  0  0
  183.8160  173.5540  134.9460 O   0  0  0  0  0  0  0  0  0  0  0  0
  183.7790  174.1210  136.0700 C   0  0  0  0  0  0  0  0  0  0  0  0
  182.5460  177.5290  136.8890 C   0  0  0  0  0  1  0  0  0  0  0  0
  182.8960  177.1110  135.4740 C   0  0  0  0  0  2  0  0  0  0  0  0
  1  5  1  0  0  0  0
  2  4  1  0  0  0  0
  2 26  1  0  0  0  0
  3 10  1  0  0  0  0
  4 16  1  0  0  0  0
  5  2  2  0  0  0  0
  7  1  2  0  0  0  0
  9  3  1  0  0  0  0
  9  4  2  0  0  0  0
 10  6  2  0  0  0  0
 10 15  1  0  0  0  0
 11 18  2  0  0  0  0
 11  5  1  0  0  0  0
 12 11  1  0  0  0  0
 13 12  2  0  0  0  0
 13  7  1  0  0  0  0
 14  8  1  0  0  0  0
 14  6  1  0  0  0  0
 16 15  2  0  0  0  0
 17 19  1  0  0  0  0
 17  3  2  0  0  0  0
 18  9  1  0  0  0  0
 19 14  2  0  0  0  0
 20 24  1  0  0  0  0
 21 12  1  1  0  0  0
 22 21  1  0  0  0  0
 23 20  1  0  0  0  0
 23 22  1  0  0  0  0
 24 21  1  0  0  0  0
 26 25  3  0  0  0  0
 27 13  1  0  0  0  0
 28 32  1  0  0  0  0
 29 31  2  0  0  0  0
 30 28  1  0  0  0  0
 31 33  1  0  0  0  0
 32 33  2  0  0  0  0
 33 27  1  0  0  0  0
 34 29  1  0  0  0  0
 34 28  2  0  0  0  0
 35 29  1  0  0  0  0
 36 37  2  0  0  0  0
 38 48  1  0  0  0  0
 38 43  1  0  0  0  0
 39 40  1  0  0  0  0
 39 38  2  0  0  0  0
 40 42  1  0  0  0  0
 41 36  1  0  0  0  0
 41 35  1  0  0  0  0
 42 43  1  0  0  0  0
 42 36  1  0  0  0  0
 43 46  1  6  0  0  0
 45 46  2  0  0  0  0
 46 44  1  0  0  0  0
 48 47  1  0  0  0  0
M  END
>  <MODEL>
2

>  <REMARK>
 VINA RESULT:      -9.8      1.914      3.585
  Name = 
  8 active torsions:
  status: ('A' for Active; 'I' for Inactive)
    1  A    between atoms: C_4  and  C_27
    2  A    between atoms: C_5  and  C_43
    3  A    between atoms: C_9  and  C_11
    4  A    between atoms: C_9  and  N_42
    5  A    between atoms: C_26  and  C_37
    6  A    between atoms: C_28  and  C_48
    7  A    between atoms: C_30  and  C_37
    8  A    between atoms: C_36  and  C_47
                            x       y       z     vdW  Elec       q    Type
                         _______ _______ _______ _____ _____    ______ ____

>  <TORSDO>
F 8

$$$$
=
 OpenBabel10222420103D

 48 54  0  0  1  0  0  0  0  0999 V2000
  185.1620  178.6290  141.6580 C   0  0  0  0  0  3  0  0  0  0  0  0
  185.8990  178.2340  143.9550 C   0  0  0  0  0  0  0  0  0  0  0  0
  189.2520  177.3680  145.3040 C   0  0  0  0  0  0  0  0  0  0  0  0
  186.9340  177.9180  144.8560 C   0  0  0  0  0  0  0  0  0  0  0  0
  186.1760  178.3190  142.5730 C   0  0  0  0  0  0  0  0  0  0  0  0
  189.9020  176.9870  147.6190 C   0  0  0  0  0  3  0  0  0  0  0  0
  185.4350  178.7150  140.2960 C   0  0  0  0  0  3  0  0  0  0  0  0
  192.1650  176.4420  148.1300 F   0  0  0  0  0  0  0  0  0  0  0  0
  188.2410  177.6830  144.3810 C   0  0  0  0  0  0  0  0  0  0  0  0
  188.9210  177.2980  146.6730 C   0  0  0  0  0  0  0  0  0  0  0  0
  187.4910  178.0850  142.0950 C   0  0  0  0  0  0  0  0  0  0  0  0
  187.7720  178.1700  140.7110 C   0  0  0  0  0  0  0  0  0  0  0  0
  186.7280  178.4980  139.8110 C   0  0  0  0  0  0  0  0  0  0  0  0
  191.2160  176.7430  147.2110 C   0  0  0  0  0  0  0  0  0  0  0  0
  187.6460  177.5330  147.0700 N   0  0  0  0  0  0  0  0  0  0  0  0
  186.6870  177.8320  146.1930 N   0  0  0  0  0  0  0  0  0  0  0  0
  190.5770  177.1210  144.9060 C   0  0  0  0  0  3  0  0  0  0  0  0
  188.5030  177.7700  143.0100 C   0  0  0  0  0  3  0  0  0  0  0  0
  191.5540  176.8110  145.8560 C   0  0  0  0  0  3  0  0  0  0  0  0
  190.4340  177.8220  138.4220 N   0  0  0  0  0  2  0  0  0  0  0  0
  189.1780  177.8900  140.2290 C   0  0  1  0  0  3  0  0  0  0  0  0
  189.4300  176.4220  140.0260 C   0  0  0  0  0  2  0  0  0  0  0  0
  190.2020  176.4230  138.7470 C   0  0  0  0  0  2  0  0  0  0  0  0
  189.4510  178.5510  139.0230 O   0  0  0  0  0  0  0  0  0  0  0  0
  183.4930  178.6600  144.8600 N   0  0  0  0  0  0  0  0  0  0  0  0
  184.5610  178.4700  144.4580 C   0  0  0  0  0  0  0  0  0  0  0  0
  186.9550  178.6010  138.3320 C   0  0  0  0  0  2  0  0  0  0  0  0
  186.9260  175.3610  136.3590 C   0  0  0  0  0  0  0  0  0  0  0  0
  184.6380  176.0030  136.8290 C   0  0  0  0  0  0  0  0  0  0  0  0
  187.8120  174.5020  135.8010 F   0  0  0  0  0  0  0  0  0  0  0  0
  185.0970  177.1360  137.5100 C   0  0  0  0  0  3  0  0  0  0  0  0
  187.3840  176.4940  137.0380 C   0  0  0  0  0  3  0  0  0  0  0  0
  186.4710  177.3820  137.6180 C   0  0  0  0  0  0  0  0  0  0  0  0
  185.5540  175.1150  136.2560 C   0  0  0  0  0  3  0  0  0  0  0  0
  183.1740  175.7320  136.7280 C   0  0  0  0  0  2  0  0  0  0  0  0
  181.9580  176.7840  138.6900 C   0  0  0  0  0  0  0  0  0  0  0  0
  182.1600  175.7630  139.4020 O   0  0  0  0  0  0  0  0  0  0  0  0
  180.3970  179.4400  140.7210 C   0  0  0  0  0  0  0  0  0  0  0  0
  180.5450  180.0920  139.5690 C   0  0  0  0  0  3  0  0  0  0  0  0
  181.1070  179.1750  138.5330 C   0  0  0  0  0  2  0  0  0  0  0  0
  182.4140  176.8160  137.3340 N   0  0  0  0  0  2  0  0  0  0  0  0
  181.2680  177.9130  139.2380 N   0  0  0  0  0  0  0  0  0  0  0  0
  180.8120  178.0120  140.6160 C   0  0  2  0  0  3  0  0  0  0  0  0
  178.9310  176.5810  139.7770 O   0  0  0  0  0  0  0  0  0  0  0  0
  179.2980  176.8220  142.0260 O   0  0  0  0  0  1  0  0  0  0  0  0
  179.6440  177.1030  140.8490 C   0  0  0  0  0  0  0  0  0  0  0  0
  180.7330  179.7350  143.1550 C   0  0  0  0  0  1  0  0  0  0  0  0
  179.8540  180.0680  141.9650 C   0  0  0  0  0  2  0  0  0  0  0  0
  1  5  1  0  0  0  0
  2 26  1  0  0  0  0
  2  4  1  0  0  0  0
  3 10  1  0  0  0  0
  4 16  1  0  0  0  0
  5  2  2  0  0  0  0
  7  1  2  0  0  0  0
  9  4  2  0  0  0  0
  9  3  1  0  0  0  0
 10 15  1  0  0  0  0
 10  6  2  0  0  0  0
 11  5  1  0  0  0  0
 11 18  2  0  0  0  0
 12 11  1  0  0  0  0
 13  7  1  0  0  0  0
 13 12  2  0  0  0  0
 14  6  1  0  0  0  0
 14  8  1  0  0  0  0
 16 15  2  0  0  0  0
 17  3  2  0  0  0  0
 17 19  1  0  0  0  0
 18  9  1  0  0  0  0
 19 14  2  0  0  0  0
 20 23  1  0  0  0  0
 20 24  1  0  0  0  0
 21 12  1  6  0  0  0
 22 21  1  0  0  0  0
 23 22  1  0  0  0  0
 24 21  1  0  0  0  0
 26 25  3  0  0  0  0
 27 13  1  0  0  0  0
 28 32  1  0  0  0  0
 29 31  2  0  0  0  0
 30 28  1  0  0  0  0
 31 33  1  0  0  0  0
 32 33  2  0  0  0  0
 33 27  1  0  0  0  0
 34 28  2  0  0  0  0
 34 29  1  0  0  0  0
 35 29  1  0  0  0  0
 35 41  1  0  0  0  0
 36 42  1  0  0  0  0
 36 37  2  0  0  0  0
 38 48  1  0  0  0  0
 39 38  2  0  0  0  0
 40 42  1  0  0  0  0
 40 39  1  0  0  0  0
 41 36  1  0  0  0  0
 42 43  1  0  0  0  0
 43 38  1  0  0  0  0
 43 46  1  6  0  0  0
 44 46  2  0  0  0  0
 46 45  1  0  0  0  0
 48 47  1  0  0  0  0
M  END
>  <MODEL>
3

>  <REMARK>
 VINA RESULT:      -9.7      3.334      5.429
  Name = 
  8 active torsions:
  status: ('A' for Active; 'I' for Inactive)
    1  A    between atoms: C_4  and  C_27
    2  A    between atoms: C_5  and  C_43
    3  A    between atoms: C_9  and  C_11
    4  A    between atoms: C_9  and  N_42
    5  A    between atoms: C_26  and  C_37
    6  A    between atoms: C_28  and  C_48
    7  A    between atoms: C_30  and  C_37
    8  A    between atoms: C_36  and  C_47
                            x       y       z     vdW  Elec       q    Type
                         _______ _______ _______ _____ _____    ______ ____

>  <TORSDO>
F 8

$$$$
=
 OpenBabel10222420103D

 48 54  0  0  1  0  0  0  0  0999 V2000
  185.0600  178.7070  141.5280 C   0  0  0  0  0  3  0  0  0  0  0  0
  185.7690  178.3220  143.8360 C   0  0  0  0  0  0  0  0  0  0  0  0
  189.0910  177.3960  145.2230 C   0  0  0  0  0  0  0  0  0  0  0  0
  186.7890  177.9920  144.7490 C   0  0  0  0  0  0  0  0  0  0  0  0
  186.0600  178.3840  142.4550 C   0  0  0  0  0  0  0  0  0  0  0  0
  189.7130  177.0260  147.5480 C   0  0  0  0  0  3  0  0  0  0  0  0
  185.3470  178.7720  140.1680 C   0  0  0  0  0  3  0  0  0  0  0  0
  191.9590  176.4370  148.0840 F   0  0  0  0  0  0  0  0  0  0  0  0
  188.0950  177.7230  144.2880 C   0  0  0  0  0  0  0  0  0  0  0  0
  188.7470  177.3480  146.5900 C   0  0  0  0  0  0  0  0  0  0  0  0
  187.3730  178.1170  141.9910 C   0  0  0  0  0  0  0  0  0  0  0  0
  187.6680  178.1800  140.6090 C   0  0  0  0  0  0  0  0  0  0  0  0
  186.6380  178.5210  139.6970 C   0  0  0  0  0  0  0  0  0  0  0  0
  191.0250  176.7490  147.1540 C   0  0  0  0  0  0  0  0  0  0  0  0
  187.4740  177.6160  146.9740 N   0  0  0  0  0  0  0  0  0  0  0  0
  186.5300  177.9270  146.0850 N   0  0  0  0  0  0  0  0  0  0  0  0
  190.4140  177.1160  144.8390 C   0  0  0  0  0  3  0  0  0  0  0  0
  188.3710  177.7890  142.9180 C   0  0  0  0  0  3  0  0  0  0  0  0
  191.3750  176.7940  145.8010 C   0  0  0  0  0  3  0  0  0  0  0  0
  190.3790  177.8820  138.3710 N   0  0  0  0  0  2  0  0  0  0  0  0
  189.0710  177.8630  140.1420 C   0  0  1  0  0  3  0  0  0  0  0  0
  189.2490  176.4060  139.8160 C   0  0  0  0  0  2  0  0  0  0  0  0
  190.0610  176.4750  138.5640 C   0  0  0  0  0  2  0  0  0  0  0  0
  189.4180  178.6100  139.0080 O   0  0  0  0  0  0  0  0  0  0  0  0
  183.3650  178.8090  144.7160 N   0  0  0  0  0  0  0  0  0  0  0  0
  184.4330  178.5930  144.3250 C   0  0  0  0  0  0  0  0  0  0  0  0
  186.8800  178.6020  138.2180 C   0  0  0  0  0  2  0  0  0  0  0  0
  186.1260  175.6350  135.9790 C   0  0  0  0  0  0  0  0  0  0  0  0
  184.0410  176.4740  136.8840 C   0  0  0  0  0  0  0  0  0  0  0  0
  186.7950  174.7500  135.2020 F   0  0  0  0  0  0  0  0  0  0  0  0
  184.7430  177.4610  137.5830 C   0  0  0  0  0  3  0  0  0  0  0  0
  186.8270  176.6230  136.6770 C   0  0  0  0  0  3  0  0  0  0  0  0
  186.1370  177.5360  137.4830 C   0  0  0  0  0  0  0  0  0  0  0  0
  184.7340  175.5590  136.0840 C   0  0  0  0  0  3  0  0  0  0  0  0
  182.5560  176.3840  137.0040 C   0  0  0  0  0  2  0  0  0  0  0  0
  181.7110  178.7240  137.4980 C   0  0  0  0  0  0  0  0  0  0  0  0
  182.0000  178.6030  138.7190 O   0  0  0  0  0  0  0  0  0  0  0  0
  180.5820  182.1690  136.8120 C   0  0  0  0  0  0  0  0  0  0  0  0
  180.5540  181.6700  135.5770 C   0  0  0  0  0  3  0  0  0  0  0  0
  180.9120  180.2210  135.6040 C   0  0  0  0  0  2  0  0  0  0  0  0
  181.9360  177.6360  136.5960 N   0  0  0  0  0  2  0  0  0  0  0  0
  181.1530  179.9500  137.0130 N   0  0  0  0  0  0  0  0  0  0  0  0
  180.9350  181.1360  137.8270 C   0  0  2  0  0  3  0  0  0  0  0  0
  179.6800  181.6880  139.9280 O   0  0  0  0  0  1  0  0  0  0  0  0
  178.9470  180.0220  138.5370 O   0  0  0  0  0  0  0  0  0  0  0  0
  179.7970  180.9190  138.7770 C   0  0  0  0  0  0  0  0  0  0  0  0
  181.5450  184.4130  137.2170 C   0  0  0  0  0  1  0  0  0  0  0  0
  180.2700  183.5950  137.1370 C   0  0  0  0  0  2  0  0  0  0  0  0
  1  5  1  0  0  0  0
  2 26  1  0  0  0  0
  2  4  1  0  0  0  0
  3 10  1  0  0  0  0
  4 16  1  0  0  0  0
  5  2  2  0  0  0  0
  7  1  2  0  0  0  0
  9  4  2  0  0  0  0
  9  3  1  0  0  0  0
 10 15  1  0  0  0  0
 10  6  2  0  0  0  0
 11  5  1  0  0  0  0
 11 18  2  0  0  0  0
 12 11  1  0  0  0  0
 13  7  1  0  0  0  0
 13 12  2  0  0  0  0
 14  6  1  0  0  0  0
 14  8  1  0  0  0  0
 16 15  2  0  0  0  0
 17  3  2  0  0  0  0
 17 19  1  0  0  0  0
 18  9  1  0  0  0  0
 19 14  2  0  0  0  0
 20 23  1  0  0  0  0
 20 24  1  0  0  0  0
 21 12  1  6  0  0  0
 22 21  1  0  0  0  0
 23 22  1  0  0  0  0
 24 21  1  0  0  0  0
 26 25  3  0  0  0  0
 27 13  1  0  0  0  0
 28 34  2  0  0  0  0
 28 32  1  0  0  0  0
 29 35  1  0  0  0  0
 29 31  2  0  0  0  0
 30 28  1  0  0  0  0
 32 33  2  0  0  0  0
 33 31  1  0  0  0  0
 33 27  1  0  0  0  0
 34 29  1  0  0  0  0
 36 37  2  0  0  0  0
 38 48  1  0  0  0  0
 38 43  1  0  0  0  0
 39 40  1  0  0  0  0
 39 38  2  0  0  0  0
 40 42  1  0  0  0  0
 41 35  1  0  0  0  0
 41 36  1  0  0  0  0
 42 36  1  0  0  0  0
 42 43  1  0  0  0  0
 43 46  1  1  0  0  0
 45 46  2  0  0  0  0
 46 44  1  0  0  0  0
 48 47  1  0  0  0  0
M  END
>  <MODEL>
4

>  <REMARK>
 VINA RESULT:      -9.6      4.111      6.130
  Name = 
  8 active torsions:
  status: ('A' for Active; 'I' for Inactive)
    1  A    between atoms: C_4  and  C_27
    2  A    between atoms: C_5  and  C_43
    3  A    between atoms: C_9  and  C_11
    4  A    between atoms: C_9  and  N_42
    5  A    between atoms: C_26  and  C_37
    6  A    between atoms: C_28  and  C_48
    7  A    between atoms: C_30  and  C_37
    8  A    between atoms: C_36  and  C_47
                            x       y       z     vdW  Elec       q    Type
                         _______ _______ _______ _____ _____    ______ ____

>  <TORSDO>
F 8

$$$$
=
 OpenBabel10222420103D

 48 54  0  0  1  0  0  0  0  0999 V2000
  184.6950  178.9780  138.4400 C   0  0  0  0  0  3  0  0  0  0  0  0
  185.7200  177.0510  137.3390 C   0  0  0  0  0  0  0  0  0  0  0  0
  184.4470  173.5960  136.8300 C   0  0  0  0  0  0  0  0  0  0  0  0
  185.6430  175.7020  136.9420 C   0  0  0  0  0  0  0  0  0  0  0  0
  184.6400  177.6390  138.0320 C   0  0  0  0  0  0  0  0  0  0  0  0
  185.5410  171.7260  135.7190 C   0  0  0  0  0  3  0  0  0  0  0  0
  183.6290  179.5590  139.1200 C   0  0  0  0  0  3  0  0  0  0  0  0
  184.4210  169.6280  135.5730 F   0  0  0  0  0  0  0  0  0  0  0  0
  184.4930  174.9400  137.2370 C   0  0  0  0  0  0  0  0  0  0  0  0
  185.5530  173.0590  136.1390 C   0  0  0  0  0  0  0  0  0  0  0  0
  183.4820  176.8740  138.3270 C   0  0  0  0  0  0  0  0  0  0  0  0
  182.3970  177.4610  139.0200 C   0  0  0  0  0  0  0  0  0  0  0  0
  182.4780  178.8210  139.4080 C   0  0  0  0  0  0  0  0  0  0  0  0
  184.4310  170.9200  135.9820 C   0  0  0  0  0  0  0  0  0  0  0  0
  186.6320  173.8410  135.8850 N   0  0  0  0  0  0  0  0  0  0  0  0
  186.6750  175.1170  136.2720 N   0  0  0  0  0  0  0  0  0  0  0  0
  183.3360  172.7750  137.0870 C   0  0  0  0  0  3  0  0  0  0  0  0
  183.4290  175.5340  137.9230 C   0  0  0  0  0  3  0  0  0  0  0  0
  183.3290  171.4430  136.6650 C   0  0  0  0  0  3  0  0  0  0  0  0
  180.4560  174.5360  139.3700 N   0  0  0  0  0  2  0  0  0  0  0  0
  181.1880  176.6120  139.3430 C   0  0  1  0  0  3  0  0  0  0  0  0
  180.2010  176.5690  138.2090 C   0  0  0  0  0  2  0  0  0  0  0  0
  179.8060  175.1280  138.2100 C   0  0  0  0  0  2  0  0  0  0  0  0
  181.5510  175.2950  139.6570 O   0  0  0  0  0  0  0  0  0  0  0  0
  187.8590  178.4330  136.7850 N   0  0  0  0  0  0  0  0  0  0  0  0
  186.9090  177.8200  137.0310 C   0  0  0  0  0  0  0  0  0  0  0  0
  181.3660  179.5040  140.1490 C   0  0  0  0  0  2  0  0  0  0  0  0
  180.2540  178.7500  143.6960 C   0  0  0  0  0  0  0  0  0  0  0  0
  182.6760  178.7780  143.6320 C   0  0  0  0  0  0  0  0  0  0  0  0
  179.1010  178.6000  144.3900 F   0  0  0  0  0  0  0  0  0  0  0  0
  182.6350  179.0610  142.2620 C   0  0  0  0  0  3  0  0  0  0  0  0
  180.2140  179.0340  142.3270 C   0  0  0  0  0  3  0  0  0  0  0  0
  181.4040  179.1870  141.6070 C   0  0  0  0  0  0  0  0  0  0  0  0
  181.4840  178.6210  144.3480 C   0  0  0  0  0  3  0  0  0  0  0  0
  183.9870  178.6280  144.3270 C   0  0  0  0  0  2  0  0  0  0  0  0
  186.2700  177.8880  143.5040 C   0  0  0  0  0  0  0  0  0  0  0  0
  186.4340  177.1610  144.5210 O   0  0  0  0  0  0  0  0  0  0  0  0
  189.0500  177.3740  141.1340 C   0  0  0  0  0  0  0  0  0  0  0  0
  188.2990  178.2140  140.4240 C   0  0  0  0  0  3  0  0  0  0  0  0
  187.1140  178.6390  141.2260 C   0  0  0  0  0  2  0  0  0  0  0  0
  185.0800  178.6710  143.3660 N   0  0  0  0  0  2  0  0  0  0  0  0
  187.2770  177.9330  142.4870 N   0  0  0  0  0  0  0  0  0  0  0  0
  188.4960  177.1380  142.4980 C   0  0  2  0  0  3  0  0  0  0  0  0
  190.1620  178.8100  143.3450 O   0  0  0  0  0  0  0  0  0  0  0  0
  189.5920  176.9880  144.6120 O   0  0  0  0  0  1  0  0  0  0  0  0
  189.4400  177.6390  143.5460 C   0  0  0  0  0  0  0  0  0  0  0  0
  190.3460  176.7890  139.1080 C   0  0  0  0  0  1  0  0  0  0  0  0
  190.3160  176.7610  140.6240 C   0  0  0  0  0  2  0  0  0  0  0  0
  1  7  1  0  0  0  0
  2  5  1  0  0  0  0
  3 17  1  0  0  0  0
  3  9  1  0  0  0  0
  4  9  1  0  0  0  0
  4  2  2  0  0  0  0
  5 11  1  0  0  0  0
  5  1  2  0  0  0  0
  6 14  2  0  0  0  0
  6 10  1  0  0  0  0
  7 13  2  0  0  0  0
  8 14  1  0  0  0  0
  9 18  2  0  0  0  0
 10  3  2  0  0  0  0
 11 12  2  0  0  0  0
 12 13  1  0  0  0  0
 13 27  1  0  0  0  0
 14 19  1  0  0  0  0
 15 10  1  0  0  0  0
 15 16  2  0  0  0  0
 16  4  1  0  0  0  0
 18 11  1  0  0  0  0
 19 17  2  0  0  0  0
 20 24  1  0  0  0  0
 21 12  1  6  0  0  0
 21 24  1  0  0  0  0
 22 23  1  0  0  0  0
 22 21  1  0  0  0  0
 23 20  1  0  0  0  0
 25 26  3  0  0  0  0
 26  2  1  0  0  0  0
 27 33  1  0  0  0  0
 28 34  1  0  0  0  0
 28 30  1  0  0  0  0
 29 35  1  0  0  0  0
 29 34  2  0  0  0  0
 31 29  1  0  0  0  0
 32 28  2  0  0  0  0
 33 31  2  0  0  0  0
 33 32  1  0  0  0  0
 36 37  2  0  0  0  0
 38 43  1  0  0  0  0
 39 38  2  0  0  0  0
 39 40  1  0  0  0  0
 40 42  1  0  0  0  0
 41 36  1  0  0  0  0
 41 35  1  0  0  0  0
 42 43  1  0  0  0  0
 42 36  1  0  0  0  0
 43 46  1  1  0  0  0
 44 46  2  0  0  0  0
 46 45  1  0  0  0  0
 47 48  1  0  0  0  0
 48 38  1  0  0  0  0
M  END
>  <MODEL>
5

>  <REMARK>
 VINA RESULT:      -9.1      3.056      9.758
  Name = 
  8 active torsions:
  status: ('A' for Active; 'I' for Inactive)
    1  A    between atoms: C_4  and  C_27
    2  A    between atoms: C_5  and  C_43
    3  A    between atoms: C_9  and  C_11
    4  A    between atoms: C_9  and  N_42
    5  A    between atoms: C_26  and  C_37
    6  A    between atoms: C_28  and  C_48
    7  A    between atoms: C_30  and  C_37
    8  A    between atoms: C_36  and  C_47
                            x       y       z     vdW  Elec       q    Type
                         _______ _______ _______ _____ _____    ______ ____

>  <TORSDO>
F 8

$$$$
=
 OpenBabel10222420103D

 48 54  0  0  1  0  0  0  0  0999 V2000
  187.1520  178.2930  140.3320 C   0  0  0  0  0  3  0  0  0  0  0  0
  187.2910  178.0970  142.7650 C   0  0  0  0  0  0  0  0  0  0  0  0
  190.0640  176.9210  144.9420 C   0  0  0  0  0  0  0  0  0  0  0  0
  188.0330  177.7490  143.9090 C   0  0  0  0  0  0  0  0  0  0  0  0
  187.8720  177.9570  141.4850 C   0  0  0  0  0  0  0  0  0  0  0  0
  190.1170  176.7530  147.3710 C   0  0  0  0  0  3  0  0  0  0  0  0
  187.7250  178.1590  139.0710 C   0  0  0  0  0  3  0  0  0  0  0  0
  192.0830  175.9460  148.4490 F   0  0  0  0  0  0  0  0  0  0  0  0
  189.3500  177.2610  143.7810 C   0  0  0  0  0  0  0  0  0  0  0  0
  189.4360  177.0810  146.1950 C   0  0  0  0  0  0  0  0  0  0  0  0
  189.1970  177.4680  141.3550 C   0  0  0  0  0  0  0  0  0  0  0  0
  189.7830  177.3280  140.0750 C   0  0  0  0  0  0  0  0  0  0  0  0
  189.0340  177.6880  138.9280 C   0  0  0  0  0  0  0  0  0  0  0  0
  191.4240  176.2640  147.3090 C   0  0  0  0  0  0  0  0  0  0  0  0
  188.1660  177.5550  146.2560 N   0  0  0  0  0  0  0  0  0  0  0  0
  187.4900  177.8770  145.1530 N   0  0  0  0  0  0  0  0  0  0  0  0
  191.3790  176.4290  144.8930 C   0  0  0  0  0  3  0  0  0  0  0  0
  189.9150  177.1270  142.5090 C   0  0  0  0  0  3  0  0  0  0  0  0
  192.0560  176.1020  146.0720 C   0  0  0  0  0  3  0  0  0  0  0  0
  193.2240  177.2850  139.3000 N   0  0  0  0  0  2  0  0  0  0  0  0
  191.1880  176.7790  139.9670 C   0  0  1  0  0  3  0  0  0  0  0  0
  191.3790  175.9360  138.7370 C   0  0  0  0  0  2  0  0  0  0  0  0
  192.7280  176.3810  138.2740 C   0  0  0  0  0  2  0  0  0  0  0  0
  192.1420  177.8060  139.9450 O   0  0  0  0  0  0  0  0  0  0  0  0
  184.8580  178.9940  143.0300 N   0  0  0  0  0  0  0  0  0  0  0  0
  185.9380  178.5950  142.9130 C   0  0  0  0  0  0  0  0  0  0  0  0
  189.5920  177.5610  137.5410 C   0  0  0  0  0  2  0  0  0  0  0  0
  188.8860  174.4670  135.4630 C   0  0  0  0  0  0  0  0  0  0  0  0
  186.8100  175.6750  135.7870 C   0  0  0  0  0  0  0  0  0  0  0  0
  189.5620  173.4150  134.9430 F   0  0  0  0  0  0  0  0  0  0  0  0
  187.4910  176.6400  136.5370 C   0  0  0  0  0  3  0  0  0  0  0  0
  189.5650  175.4330  136.2130 C   0  0  0  0  0  3  0  0  0  0  0  0
  188.8680  176.5200  136.7530 C   0  0  0  0  0  0  0  0  0  0  0  0
  187.5090  174.5870  135.2520 C   0  0  0  0  0  3  0  0  0  0  0  0
  185.3390  175.7940  135.5700 C   0  0  0  0  0  2  0  0  0  0  0  0
  183.9010  176.3730  137.5780 C   0  0  0  0  0  0  0  0  0  0  0  0
  183.5600  175.1680  137.7190 O   0  0  0  0  0  0  0  0  0  0  0  0
  182.5870  178.3850  140.3780 C   0  0  0  0  0  0  0  0  0  0  0  0
  183.2820  179.3200  139.7320 C   0  0  0  0  0  3  0  0  0  0  0  0
  183.8670  178.7490  138.4830 C   0  0  0  0  0  2  0  0  0  0  0  0
  184.7640  176.7530  136.5020 N   0  0  0  0  0  2  0  0  0  0  0  0
  183.4220  177.3640  138.4940 N   0  0  0  0  0  0  0  0  0  0  0  0
  182.5880  177.0820  139.6530 C   0  0  2  0  0  3  0  0  0  0  0  0
  180.6030  175.5490  139.6910 O   0  0  0  0  0  1  0  0  0  0  0  0
  180.5770  177.4590  138.4250 O   0  0  0  0  0  0  0  0  0  0  0  0
  181.2010  176.7140  139.2250 C   0  0  0  0  0  0  0  0  0  0  0  0
  180.5730  179.3760  141.4220 C   0  0  0  0  0  1  0  0  0  0  0  0
  181.8700  178.6270  141.6680 C   0  0  0  0  0  2  0  0  0  0  0  0
  1  5  1  0  0  0  0
  2 26  1  0  0  0  0
  2  4  1  0  0  0  0
  3 10  1  0  0  0  0
  4 16  1  0  0  0  0
  5  2  2  0  0  0  0
  7  1  2  0  0  0  0
  9  4  2  0  0  0  0
  9  3  1  0  0  0  0
 10 15  1  0  0  0  0
 10  6  2  0  0  0  0
 11  5  1  0  0  0  0
 11 18  2  0  0  0  0
 12 11  1  0  0  0  0
 13  7  1  0  0  0  0
 13 12  2  0  0  0  0
 14  6  1  0  0  0  0
 14  8  1  0  0  0  0
 16 15  2  0  0  0  0
 17  3  2  0  0  0  0
 17 19  1  0  0  0  0
 18  9  1  0  0  0  0
 19 14  2  0  0  0  0
 20 24  1  0  0  0  0
 21 12  1  6  0  0  0
 22 21  1  0  0  0  0
 23 22  1  0  0  0  0
 23 20  1  0  0  0  0
 24 21  1  0  0  0  0
 26 25  3  0  0  0  0
 27 13  1  0  0  0  0
 28 32  1  0  0  0  0
 29 31  2  0  0  0  0
 30 28  1  0  0  0  0
 31 33  1  0  0  0  0
 32 33  2  0  0  0  0
 33 27  1  0  0  0  0
 34 28  2  0  0  0  0
 34 29  1  0  0  0  0
 35 29  1  0  0  0  0
 35 41  1  0  0  0  0
 36 37  2  0  0  0  0
 36 42  1  0  0  0  0
 38 48  1  0  0  0  0
 39 38  2  0  0  0  0
 40 42  1  0  0  0  0
 40 39  1  0  0  0  0
 41 36  1  0  0  0  0
 42 43  1  0  0  0  0
 43 46  1  6  0  0  0
 43 38  1  0  0  0  0
 45 46  2  0  0  0  0
 46 44  1  0  0  0  0
 47 48  1  0  0  0  0
M  END
>  <MODEL>
6

>  <REMARK>
 VINA RESULT:      -9.0      2.789      4.332
  Name = 
  8 active torsions:
  status: ('A' for Active; 'I' for Inactive)
    1  A    between atoms: C_4  and  C_27
    2  A    between atoms: C_5  and  C_43
    3  A    between atoms: C_9  and  C_11
    4  A    between atoms: C_9  and  N_42
    5  A    between atoms: C_26  and  C_37
    6  A    between atoms: C_28  and  C_48
    7  A    between atoms: C_30  and  C_37
    8  A    between atoms: C_36  and  C_47
                            x       y       z     vdW  Elec       q    Type
                         _______ _______ _______ _____ _____    ______ ____

>  <TORSDO>
F 8

$$$$
=
 OpenBabel10222420103D

 48 54  0  0  1  0  0  0  0  0999 V2000
  190.7350  176.8510  139.9840 C   0  0  0  0  0  3  0  0  0  0  0  0
  189.7360  177.0260  142.2080 C   0  0  0  0  0  0  0  0  0  0  0  0
  186.3370  178.1070  143.2550 C   0  0  0  0  0  0  0  0  0  0  0  0
  188.6260  177.3440  143.0140 C   0  0  0  0  0  0  0  0  0  0  0  0
  189.6430  177.1590  140.8050 C   0  0  0  0  0  0  0  0  0  0  0  0
  185.4200  178.2560  145.5060 C   0  0  0  0  0  3  0  0  0  0  0  0
  190.6420  176.9780  138.6010 C   0  0  0  0  0  3  0  0  0  0  0  0
  183.1770  178.9990  145.8140 F   0  0  0  0  0  0  0  0  0  0  0  0
  187.4260  177.7960  142.4250 C   0  0  0  0  0  0  0  0  0  0  0  0
  186.4830  177.9560  144.6490 C   0  0  0  0  0  0  0  0  0  0  0  0
  188.4360  177.6100  140.2110 C   0  0  0  0  0  0  0  0  0  0  0  0
  188.3390  177.7430  138.8060 C   0  0  0  0  0  0  0  0  0  0  0  0
  189.4570  177.4120  138.0010 C   0  0  0  0  0  0  0  0  0  0  0  0
  184.2060  178.7080  144.9820 C   0  0  0  0  0  0  0  0  0  0  0  0
  187.6620  177.5180  145.1590 N   0  0  0  0  0  0  0  0  0  0  0  0
  188.6960  177.2230  144.3690 N   0  0  0  0  0  0  0  0  0  0  0  0
  185.1110  178.5620  142.7400 C   0  0  0  0  0  3  0  0  0  0  0  0
  187.3460  177.9220  141.0340 C   0  0  0  0  0  3  0  0  0  0  0  0
  184.0510  178.8610  143.6010 C   0  0  0  0  0  3  0  0  0  0  0  0
  185.0170  178.9260  138.7190 N   0  0  0  0  0  2  0  0  0  0  0  0
  187.0480  178.2520  138.2040 C   0  0  1  0  0  3  0  0  0  0  0  0
  186.1690  177.1360  137.7120 C   0  0  0  0  0  2  0  0  0  0  0  0
  184.8200  177.5950  138.1650 C   0  0  0  0  0  2  0  0  0  0  0  0
  186.3150  179.0130  139.1250 O   0  0  0  0  0  0  0  0  0  0  0  0
  191.9410  176.2000  143.3240 N   0  0  0  0  0  0  0  0  0  0  0  0
  190.9610  176.5660  142.8290 C   0  0  0  0  0  0  0  0  0  0  0  0
  189.4240  177.5330  136.5060 C   0  0  0  0  0  2  0  0  0  0  0  0
  187.7730  174.4950  134.9450 C   0  0  0  0  0  0  0  0  0  0  0  0
  190.1710  174.1470  134.9720 C   0  0  0  0  0  0  0  0  0  0  0  0
  186.5280  174.0560  134.6430 F   0  0  0  0  0  0  0  0  0  0  0  0
  190.3450  175.4010  135.5690 C   0  0  0  0  0  3  0  0  0  0  0  0
  187.9480  175.7470  135.5430 C   0  0  0  0  0  3  0  0  0  0  0  0
  189.2340  176.2030  135.8540 C   0  0  0  0  0  0  0  0  0  0  0  0
  188.8850  173.6960  134.6580 C   0  0  0  0  0  3  0  0  0  0  0  0
  191.3560  173.2980  134.6540 C   0  0  0  0  0  2  0  0  0  0  0  0
  193.5870  173.5420  135.8360 C   0  0  0  0  0  0  0  0  0  0  0  0
  193.3960  172.4760  136.4820 O   0  0  0  0  0  0  0  0  0  0  0  0
  196.9860  174.8170  136.4980 C   0  0  0  0  0  0  0  0  0  0  0  0
  196.5800  175.7080  135.5950 C   0  0  0  0  0  3  0  0  0  0  0  0
  195.1620  175.4400  135.2150 C   0  0  0  0  0  2  0  0  0  0  0  0
  192.5890  174.0220  134.9300 N   0  0  0  0  0  2  0  0  0  0  0  0
  194.8040  174.2760  136.0120 N   0  0  0  0  0  0  0  0  0  0  0  0
  195.9080  173.8530  136.8610 C   0  0  2  0  0  3  0  0  0  0  0  0
  195.3020  175.2440  138.8580 O   0  0  0  0  0  0  0  0  0  0  0  0
  195.4610  172.9640  139.0300 O   0  0  0  0  0  1  0  0  0  0  0  0
  195.5400  173.9910  138.3060 C   0  0  0  0  0  0  0  0  0  0  0  0
  198.9190  173.3940  137.1050 C   0  0  0  0  0  1  0  0  0  0  0  0
  198.3590  174.8040  137.0920 C   0  0  0  0  0  2  0  0  0  0  0  0
  1  5  1  0  0  0  0
  2 26  1  0  0  0  0
  2  4  1  0  0  0  0
  3 10  1  0  0  0  0
  4 16  1  0  0  0  0
  5  2  2  0  0  0  0
  7  1  2  0  0  0  0
  9  4  2  0  0  0  0
  9  3  1  0  0  0  0
 10 15  1  0  0  0  0
 10  6  2  0  0  0  0
 11  5  1  0  0  0  0
 11 18  2  0  0  0  0
 12 11  1  0  0  0  0
 13  7  1  0  0  0  0
 13 12  2  0  0  0  0
 14  6  1  0  0  0  0
 14  8  1  0  0  0  0
 16 15  2  0  0  0  0
 17  3  2  0  0  0  0
 17 19  1  0  0  0  0
 18  9  1  0  0  0  0
 19 14  2  0  0  0  0
 20 24  1  0  0  0  0
 21 12  1  1  0  0  0
 21 24  1  0  0  0  0
 22 23  1  0  0  0  0
 22 21  1  0  0  0  0
 23 20  1  0  0  0  0
 26 25  3  0  0  0  0
 27 13  1  0  0  0  0
 28 32  1  0  0  0  0
 29 31  2  0  0  0  0
 30 28  1  0  0  0  0
 31 33  1  0  0  0  0
 32 33  2  0  0  0  0
 33 27  1  0  0  0  0
 34 28  2  0  0  0  0
 34 29  1  0  0  0  0
 35 41  1  0  0  0  0
 35 29  1  0  0  0  0
 36 42  1  0  0  0  0
 36 37  2  0  0  0  0
 38 43  1  0  0  0  0
 38 48  1  0  0  0  0
 39 38  2  0  0  0  0
 40 39  1  0  0  0  0
 40 42  1  0  0  0  0
 41 36  1  0  0  0  0
 42 43  1  0  0  0  0
 43 46  1  1  0  0  0
 46 44  2  0  0  0  0
 46 45  1  0  0  0  0
 48 47  1  0  0  0  0
M  END
>  <MODEL>
7

>  <REMARK>
 VINA RESULT:      -8.9      3.289      7.080
  Name = 
  8 active torsions:
  status: ('A' for Active; 'I' for Inactive)
    1  A    between atoms: C_4  and  C_27
    2  A    between atoms: C_5  and  C_43
    3  A    between atoms: C_9  and  C_11
    4  A    between atoms: C_9  and  N_42
    5  A    between atoms: C_26  and  C_37
    6  A    between atoms: C_28  and  C_48
    7  A    between atoms: C_30  and  C_37
    8  A    between atoms: C_36  and  C_47
                            x       y       z     vdW  Elec       q    Type
                         _______ _______ _______ _____ _____    ______ ____

>  <TORSDO>
F 8

$$$$
=
 OpenBabel10222420103D

 48 54  0  0  1  0  0  0  0  0999 V2000
  185.0180  178.6170  141.1920 C   0  0  0  0  0  3  0  0  0  0  0  0
  185.7310  178.2280  143.4980 C   0  0  0  0  0  0  0  0  0  0  0  0
  189.0690  177.3600  144.8830 C   0  0  0  0  0  0  0  0  0  0  0  0
  186.7560  177.9130  144.4100 C   0  0  0  0  0  0  0  0  0  0  0  0
  186.0220  178.3080  142.1180 C   0  0  0  0  0  0  0  0  0  0  0  0
  189.6950  176.9850  147.2060 C   0  0  0  0  0  3  0  0  0  0  0  0
  185.3050  178.6980  139.8330 C   0  0  0  0  0  3  0  0  0  0  0  0
  191.9520  176.4370  147.7410 F   0  0  0  0  0  0  0  0  0  0  0  0
  188.0680  177.6740  143.9490 C   0  0  0  0  0  0  0  0  0  0  0  0
  188.7240  177.2950  146.2490 C   0  0  0  0  0  0  0  0  0  0  0  0
  187.3410  178.0700  141.6540 C   0  0  0  0  0  0  0  0  0  0  0  0
  187.6370  178.1500  140.2720 C   0  0  0  0  0  0  0  0  0  0  0  0
  186.6020  178.4770  139.3620 C   0  0  0  0  0  0  0  0  0  0  0  0
  191.0120  176.7380  146.8120 C   0  0  0  0  0  0  0  0  0  0  0  0
  187.4450  177.5340  146.6330 N   0  0  0  0  0  0  0  0  0  0  0  0
  186.4960  177.8320  145.7450 N   0  0  0  0  0  0  0  0  0  0  0  0
  190.3980  177.1100  144.4990 C   0  0  0  0  0  3  0  0  0  0  0  0
  188.3440  177.7560  142.5800 C   0  0  0  0  0  3  0  0  0  0  0  0
  191.3640  176.8000  145.4600 C   0  0  0  0  0  3  0  0  0  0  0  0
  190.5590  176.2730  139.6550 N   0  0  0  0  0  2  0  0  0  0  0  0
  189.0470  177.8660  139.8060 C   0  0  1  0  0  3  0  0  0  0  0  0
  190.0760  178.2550  140.8290 C   0  0  0  0  0  2  0  0  0  0  0  0
  191.0260  177.1040  140.7540 C   0  0  0  0  0  2  0  0  0  0  0  0
  189.2250  176.5090  139.5010 O   0  0  0  0  0  0  0  0  0  0  0  0
  183.3160  178.6590  144.3770 N   0  0  0  0  0  0  0  0  0  0  0  0
  184.3890  178.4690  143.9860 C   0  0  0  0  0  0  0  0  0  0  0  0
  186.8440  178.5750  137.8840 C   0  0  0  0  0  2  0  0  0  0  0  0
  186.4750  174.8710  137.1530 C   0  0  0  0  0  0  0  0  0  0  0  0
  188.1740  175.7850  135.6870 C   0  0  0  0  0  0  0  0  0  0  0  0
  185.7460  173.8160  137.5880 F   0  0  0  0  0  0  0  0  0  0  0  0
  187.9810  177.0490  136.2550 C   0  0  0  0  0  3  0  0  0  0  0  0
  186.2840  176.1350  137.7200 C   0  0  0  0  0  3  0  0  0  0  0  0
  187.0350  177.2270  137.2710 C   0  0  0  0  0  0  0  0  0  0  0  0
  187.4180  174.6970  136.1360 C   0  0  0  0  0  3  0  0  0  0  0  0
  189.1710  175.5990  134.5940 C   0  0  0  0  0  2  0  0  0  0  0  0
  191.3960  175.3200  135.7800 C   0  0  0  0  0  0  0  0  0  0  0  0
  191.4700  176.5600  135.9970 O   0  0  0  0  0  0  0  0  0  0  0  0
  194.1730  173.5810  137.4760 C   0  0  0  0  0  0  0  0  0  0  0  0
  193.5170  172.5330  136.9800 C   0  0  0  0  0  3  0  0  0  0  0  0
  192.3570  172.9970  136.1640 C   0  0  0  0  0  2  0  0  0  0  0  0
  190.2850  174.7830  135.0540 N   0  0  0  0  0  2  0  0  0  0  0  0
  192.4270  174.4470  136.2560 N   0  0  0  0  0  0  0  0  0  0  0  0
  193.5680  174.8750  137.0500 C   0  0  2  0  0  3  0  0  0  0  0  0
  195.2980  175.0210  135.2400 O   0  0  0  0  0  0  0  0  0  0  0  0
  194.6520  176.8960  136.3880 O   0  0  0  0  0  1  0  0  0  0  0  0
  194.5300  175.6560  136.2080 C   0  0  0  0  0  0  0  0  0  0  0  0
  196.3720  172.4750  137.7410 C   0  0  0  0  0  1  0  0  0  0  0  0
  195.3900  173.4660  138.3380 C   0  0  0  0  0  2  0  0  0  0  0  0
  1  5  1  0  0  0  0
  2 26  1  0  0  0  0
  2  4  1  0  0  0  0
  3 10  1  0  0  0  0
  4 16  1  0  0  0  0
  5  2  2  0  0  0  0
  7  1  2  0  0  0  0
  9  4  2  0  0  0  0
  9  3  1  0  0  0  0
 10 15  1  0  0  0  0
 10  6  2  0  0  0  0
 11  5  1  0  0  0  0
 11 18  2  0  0  0  0
 12 11  1  0  0  0  0
 13  7  1  0  0  0  0
 13 12  2  0  0  0  0
 14  6  1  0  0  0  0
 14  8  1  0  0  0  0
 16 15  2  0  0  0  0
 17  3  2  0  0  0  0
 17 19  1  0  0  0  0
 18  9  1  0  0  0  0
 19 14  2  0  0  0  0
 20 23  1  0  0  0  0
 21 12  1  1  0  0  0
 21 22  1  0  0  0  0
 23 22  1  0  0  0  0
 24 20  1  0  0  0  0
 24 21  1  0  0  0  0
 26 25  3  0  0  0  0
 27 13  1  0  0  0  0
 28 30  1  0  0  0  0
 28 32  1  0  0  0  0
 29 34  1  0  0  0  0
 29 31  2  0  0  0  0
 31 33  1  0  0  0  0
 33 32  2  0  0  0  0
 33 27  1  0  0  0  0
 34 28  2  0  0  0  0
 35 41  1  0  0  0  0
 35 29  1  0  0  0  0
 36 37  2  0  0  0  0
 36 42  1  0  0  0  0
 38 48  1  0  0  0  0
 39 38  2  0  0  0  0
 40 42  1  0  0  0  0
 40 39  1  0  0  0  0
 41 36  1  0  0  0  0
 42 43  1  0  0  0  0
 43 46  1  6  0  0  0
 43 38  1  0  0  0  0
 44 46  2  0  0  0  0
 46 45  1  0  0  0  0
 47 48  1  0  0  0  0
M  END
>  <MODEL>
8

>  <REMARK>
 VINA RESULT:      -8.9      3.348      6.355
  Name = 
  8 active torsions:
  status: ('A' for Active; 'I' for Inactive)
    1  A    between atoms: C_4  and  C_27
    2  A    between atoms: C_5  and  C_43
    3  A    between atoms: C_9  and  C_11
    4  A    between atoms: C_9  and  N_42
    5  A    between atoms: C_26  and  C_37
    6  A    between atoms: C_28  and  C_48
    7  A    between atoms: C_30  and  C_37
    8  A    between atoms: C_36  and  C_47
                            x       y       z     vdW  Elec       q    Type
                         _______ _______ _______ _____ _____    ______ ____

>  <TORSDO>
F 8

$$$$
=
 OpenBabel10222420103D

 48 54  0  0  1  0  0  0  0  0999 V2000
  184.6000  178.6990  140.4230 C   0  0  0  0  0  3  0  0  0  0  0  0
  184.4370  178.6880  142.8630 C   0  0  0  0  0  0  0  0  0  0  0  0
  187.0510  178.1960  145.4590 C   0  0  0  0  0  0  0  0  0  0  0  0
  185.0650  178.5600  144.1160 C   0  0  0  0  0  0  0  0  0  0  0  0
  185.2040  178.5790  141.6820 C   0  0  0  0  0  0  0  0  0  0  0  0
  186.8000  178.1960  147.8810 C   0  0  0  0  0  3  0  0  0  0  0  0
  185.3560  178.5960  139.2590 C   0  0  0  0  0  3  0  0  0  0  0  0
  188.7120  177.8440  149.2600 F   0  0  0  0  0  0  0  0  0  0  0  0
  186.4530  178.3210  144.1940 C   0  0  0  0  0  0  0  0  0  0  0  0
  186.2390  178.3150  146.6060 C   0  0  0  0  0  0  0  0  0  0  0  0
  186.6000  178.3410  141.7590 C   0  0  0  0  0  0  0  0  0  0  0  0
  187.3720  178.2330  140.5780 C   0  0  0  0  0  0  0  0  0  0  0  0
  186.7340  178.3720  139.3200 C   0  0  0  0  0  0  0  0  0  0  0  0
  188.1700  177.9590  148.0240 C   0  0  0  0  0  0  0  0  0  0  0  0
  184.9090  178.5440  146.4690 N   0  0  0  0  0  0  0  0  0  0  0  0
  184.3430  178.6620  145.2670 N   0  0  0  0  0  0  0  0  0  0  0  0
  188.4270  177.9580  145.6150 C   0  0  0  0  0  3  0  0  0  0  0  0
  187.2020  178.2160  143.0170 C   0  0  0  0  0  3  0  0  0  0  0  0
  188.9830  177.8410  146.8920 C   0  0  0  0  0  3  0  0  0  0  0  0
  190.3090  176.4440  141.3630 N   0  0  0  0  0  2  0  0  0  0  0  0
  188.8530  177.9530  140.6920 C   0  0  1  0  0  3  0  0  0  0  0  0
  189.4570  178.5650  141.9250 C   0  0  0  0  0  2  0  0  0  0  0  0
  190.3630  177.4720  142.3910 C   0  0  0  0  0  2  0  0  0  0  0  0
  189.1180  176.5760  140.7130 O   0  0  0  0  0  0  0  0  0  0  0  0
  181.8700  179.1230  142.7470 N   0  0  0  0  0  0  0  0  0  0  0  0
  183.0100  178.9300  142.7990 C   0  0  0  0  0  0  0  0  0  0  0  0
  187.4910  178.2640  138.0290 C   0  0  0  0  0  2  0  0  0  0  0  0
  188.3050  174.7010  137.0130 C   0  0  0  0  0  0  0  0  0  0  0  0
  186.1140  175.2730  136.1500 C   0  0  0  0  0  0  0  0  0  0  0  0
  189.3130  173.8080  137.1560 F   0  0  0  0  0  0  0  0  0  0  0  0
  186.2240  176.5460  136.7200 C   0  0  0  0  0  3  0  0  0  0  0  0
  188.4140  175.9750  137.5810 C   0  0  0  0  0  3  0  0  0  0  0  0
  187.3720  176.8990  137.4370 C   0  0  0  0  0  0  0  0  0  0  0  0
  187.1550  174.3500  136.3000 C   0  0  0  0  0  3  0  0  0  0  0  0
  184.8830  174.8910  135.3990 C   0  0  0  0  0  2  0  0  0  0  0  0
  182.8470  174.8720  136.9120 C   0  0  0  0  0  0  0  0  0  0  0  0
  183.0480  173.6660  137.2180 O   0  0  0  0  0  0  0  0  0  0  0  0
  180.0680  176.2300  138.9240 C   0  0  0  0  0  0  0  0  0  0  0  0
  180.4270  177.3280  138.2610 C   0  0  0  0  0  3  0  0  0  0  0  0
  181.5210  177.0080  137.2980 C   0  0  0  0  0  2  0  0  0  0  0  0
  183.7130  175.5310  135.9820 N   0  0  0  0  0  2  0  0  0  0  0  0
  181.7490  175.5840  137.4930 N   0  0  0  0  0  0  0  0  0  0  0  0
  180.8430  175.0320  138.4900 C   0  0  2  0  0  3  0  0  0  0  0  0
  179.1060  174.3590  136.8100 O   0  0  0  0  0  0  0  0  0  0  0  0
  179.9200  172.8380  138.3180 O   0  0  0  0  0  1  0  0  0  0  0  0
  179.9380  174.0140  137.8680 C   0  0  0  0  0  0  0  0  0  0  0  0
  179.3720  177.0810  141.1420 C   0  0  0  0  0  1  0  0  0  0  0  0
  178.9940  176.2030  139.9640 C   0  0  0  0  0  2  0  0  0  0  0  0
  1  5  1  0  0  0  0
  2  4  1  0  0  0  0
  3 17  2  0  0  0  0
  3 10  1  0  0  0  0
  4  9  2  0  0  0  0
  4 16  1  0  0  0  0
  5 11  1  0  0  0  0
  5  2  2  0  0  0  0
  6 14  1  0  0  0  0
  7 13  1  0  0  0  0
  7  1  2  0  0  0  0
  9  3  1  0  0  0  0
 10  6  2  0  0  0  0
 11 18  2  0  0  0  0
 12 11  1  0  0  0  0
 13 12  2  0  0  0  0
 14  8  1  0  0  0  0
 15 10  1  0  0  0  0
 16 15  2  0  0  0  0
 17 19  1  0  0  0  0
 18  9  1  0  0  0  0
 19 14  2  0  0  0  0
 20 23  1  0  0  0  0
 21 12  1  1  0  0  0
 21 24  1  0  0  0  0
 21 22  1  0  0  0  0
 22 23  1  0  0  0  0
 24 20  1  0  0  0  0
 25 26  3  0  0  0  0
 26  2  1  0  0  0  0
 27 13  1  0  0  0  0
 28 30  1  0  0  0  0
 28 32  1  0  0  0  0
 29 34  1  0  0  0  0
 29 31  2  0  0  0  0
 31 33  1  0  0  0  0
 33 32  2  0  0  0  0
 33 27  1  0  0  0  0
 34 28  2  0  0  0  0
 35 41  1  0  0  0  0
 35 29  1  0  0  0  0
 36 37  2  0  0  0  0
 36 42  1  0  0  0  0
 38 48  1  0  0  0  0
 39 38  2  0  0  0  0
 40 42  1  0  0  0  0
 40 39  1  0  0  0  0
 41 36  1  0  0  0  0
 42 43  1  0  0  0  0
 43 46  1  6  0  0  0
 43 38  1  0  0  0  0
 44 46  2  0  0  0  0
 46 45  1  0  0  0  0
 48 47  1  0  0  0  0
M  END
>  <MODEL>
9

>  <REMARK>
 VINA RESULT:      -8.9      2.459      3.767
  Name = 
  8 active torsions:
  status: ('A' for Active; 'I' for Inactive)
    1  A    between atoms: C_4  and  C_27
    2  A    between atoms: C_5  and  C_43
    3  A    between atoms: C_9  and  C_11
    4  A    between atoms: C_9  and  N_42
    5  A    between atoms: C_26  and  C_37
    6  A    between atoms: C_28  and  C_48
    7  A    between atoms: C_30  and  C_37
    8  A    between atoms: C_36  and  C_47
                            x       y       z     vdW  Elec       q    Type
                         _______ _______ _______ _____ _____    ______ ____

>  <TORSDO>
F 8

$$$$
