=
 OpenBabel10222416043D

 32 36  0  0  1  0  0  0  0  0999 V2000
  187.6360  178.2340  140.5780 C   0  0  0  0  0  2  0  0  0  0  0  0
  189.0110  177.7510  143.0440 O   0  0  0  0  0  0  0  0  0  0  0  0
  187.0010  178.5230  141.9390 C   0  0  2  0  0  3  0  0  0  0  0  0
  189.5250  177.2370  141.8400 C   0  0  0  0  0  2  0  0  0  0  0  0
  187.6130  177.5830  142.9930 C   0  0  2  0  0  3  0  0  0  0  0  0
  189.1560  178.1690  140.6840 C   0  0  1  0  0  3  0  0  0  0  0  0
  186.8920  177.9890  146.6220 C   0  0  0  0  0  0  0  0  0  0  0  0
  187.7290  177.6600  145.6010 C   0  0  0  0  0  0  0  0  0  0  0  0
  189.4590  177.2180  147.1120 C   0  0  0  0  0  0  0  0  0  0  0  0
  185.5610  178.3970  146.0980 C   0  0  0  0  0  2  0  0  0  0  0  0
  187.3110  177.9480  147.9100 N   0  0  0  0  0  0  0  0  0  0  0  0
  185.7900  178.2540  144.6080 C   0  0  0  0  0  3  0  0  0  0  0  0
  187.0310  177.8260  144.3520 C   0  0  0  0  0  0  0  0  0  0  0  0
  191.1070  176.7280  147.4430 Cl  0  0  0  0  0  0  0  0  0  0  0  0
  188.5960  177.5650  148.1740 C   0  0  0  0  0  3  0  0  0  0  0  0
  189.0110  177.2760  145.8240 N   0  0  0  0  0  0  0  0  0  0  0  0
  184.8120  178.8880  140.7900 C   0  0  0  0  0  0  0  0  0  0  0  0
  184.7400  179.6900  139.6310 N   0  0  0  0  0  0  0  0  0  0  0  0
  183.6350  179.0610  140.1280 C   0  0  1  0  0  3  0  0  0  0  0  0
  185.5650  178.3130  141.8530 N   0  0  0  0  0  2  0  0  0  0  0  0
  183.3190  177.8350  139.3270 C   0  0  0  0  0  0  0  0  0  0  0  0
  182.7680  176.6870  139.8520 C   0  0  0  0  0  3  0  0  0  0  0  0
  183.5150  177.7010  138.0370 O   0  0  0  0  0  0  0  0  0  0  0  0
  183.1220  176.5060  137.6690 C   0  0  0  0  0  3  0  0  0  0  0  0
  182.6410  175.8270  138.7750 C   0  0  0  0  0  3  0  0  0  0  0  0
  189.7170  177.6420  139.3760 C   0  0  0  0  0  2  0  0  0  0  0  0
  191.1130  177.0770  139.5750 C   0  0  0  0  0  2  0  0  0  0  0  0
  190.3780  175.1770  138.0920 N   0  0  0  0  0  2  0  0  0  0  0  0
  191.4050  176.0770  138.5130 C   0  0  0  0  0  0  0  0  0  0  0  0
  192.5650  175.9980  138.0320 O   0  0  0  0  0  0  0  0  0  0  0  0
  189.3150  173.3780  136.8410 C   0  0  0  0  0  1  0  0  0  0  0  0
  190.5920  174.1630  137.0720 C   0  0  0  0  0  2  0  0  0  0  0  0
  1  6  1  0  0  0  0
  1  3  1  0  0  0  0
  3 20  1  6  0  0  0
  3  5  1  0  0  0  0
  4  2  1  0  0  0  0
  5  2  1  0  0  0  0
  5 13  1  1  0  0  0
  6 26  1  6  0  0  0
  6  4  1  0  0  0  0
  7 11  1  0  0  0  0
  8 16  1  0  0  0  0
  8  7  2  0  0  0  0
  9 14  1  0  0  0  0
  9 15  1  0  0  0  0
 10  7  1  0  0  0  0
 11 15  2  0  0  0  0
 12 10  1  0  0  0  0
 13 12  2  0  0  0  0
 13  8  1  0  0  0  0
 16  9  2  0  0  0  0
 17 20  1  0  0  0  0
 18 19  1  0  0  0  0
 18 17  2  0  0  0  0
 19 21  1  6  0  0  0
 19 17  1  0  0  0  0
 21 22  2  0  0  0  0
 23 21  1  0  0  0  0
 24 23  1  0  0  0  0
 24 25  2  0  0  0  0
 25 22  1  0  0  0  0
 26 27  1  0  0  0  0
 28 29  1  0  0  0  0
 29 27  1  0  0  0  0
 30 29  2  0  0  0  0
 31 32  1  0  0  0  0
 32 28  1  0  0  0  0
M  END
>  <MODEL>
1

>  <REMARK>
 VINA RESULT:      -8.9      0.000      0.000
  Name = 
  7 active torsions:
  status: ('A' for Active; 'I' for Inactive)
    1  A    between atoms: N_4  and  C_18
    2  A    between atoms: C_7  and  C_23
    3  A    between atoms: C_7  and  C_30
    4  A    between atoms: C_10  and  N_26
    5  A    between atoms: C_16  and  C_21
    6  A    between atoms: C_17  and  C_22
    7  A    between atoms: C_23  and  C_25
                            x       y       z     vdW  Elec       q    Type
                         _______ _______ _______ _____ _____    ______ ____

>  <TORSDO>
F 7

$$$$
=
 OpenBabel10222416043D

 32 36  0  0  1  0  0  0  0  0999 V2000
  187.3110  178.3010  140.5190 C   0  0  0  0  0  2  0  0  0  0  0  0
  188.7480  177.7280  142.9300 O   0  0  0  0  0  0  0  0  0  0  0  0
  186.7380  178.6020  141.9040 C   0  0  2  0  0  3  0  0  0  0  0  0
  189.1960  177.2060  141.7040 C   0  0  0  0  0  2  0  0  0  0  0  0
  187.3430  177.6240  142.9270 C   0  0  2  0  0  3  0  0  0  0  0  0
  188.8300  178.1660  140.5720 C   0  0  1  0  0  3  0  0  0  0  0  0
  186.7670  178.0210  146.5820 C   0  0  0  0  0  0  0  0  0  0  0  0
  187.5530  177.6660  145.5290 C   0  0  0  0  0  0  0  0  0  0  0  0
  189.3130  177.1320  146.9750 C   0  0  0  0  0  0  0  0  0  0  0  0
  185.4380  178.4920  146.1100 C   0  0  0  0  0  2  0  0  0  0  0  0
  187.2280  177.9470  147.8550 N   0  0  0  0  0  0  0  0  0  0  0  0
  185.6090  178.3560  144.6110 C   0  0  0  0  0  3  0  0  0  0  0  0
  186.8200  177.8770  144.3070 C   0  0  0  0  0  0  0  0  0  0  0  0
  190.9480  176.5680  147.2430 Cl  0  0  0  0  0  0  0  0  0  0  0  0
  188.5030  177.5050  148.0700 C   0  0  0  0  0  3  0  0  0  0  0  0
  188.8230  177.2250  145.7040 N   0  0  0  0  0  0  0  0  0  0  0  0
  184.5390  178.9870  140.7790 C   0  0  0  0  0  0  0  0  0  0  0  0
  184.4760  179.7020  139.5640 N   0  0  0  0  0  0  0  0  0  0  0  0
  183.3560  179.1690  140.1320 C   0  0  1  0  0  3  0  0  0  0  0  0
  185.2920  178.4580  141.8660 N   0  0  0  0  0  2  0  0  0  0  0  0
  182.9610  177.9030  139.4350 C   0  0  0  0  0  0  0  0  0  0  0  0
  182.5900  177.8290  138.1110 C   0  0  0  0  0  3  0  0  0  0  0  0
  182.9240  176.7140  139.9880 O   0  0  0  0  0  0  0  0  0  0  0  0
  182.5400  175.8380  139.0900 C   0  0  0  0  0  3  0  0  0  0  0  0
  182.3180  176.4900  137.8890 C   0  0  0  0  0  3  0  0  0  0  0  0
  189.3210  177.6300  139.2390 C   0  0  0  0  0  2  0  0  0  0  0  0
  189.2880  178.7130  138.1750 C   0  0  0  0  0  2  0  0  0  0  0  0
  188.0470  177.1120  136.6750 N   0  0  0  0  0  2  0  0  0  0  0  0
  188.1930  178.4300  137.2080 C   0  0  0  0  0  0  0  0  0  0  0  0
  187.4390  179.3640  136.8280 O   0  0  0  0  0  0  0  0  0  0  0  0
  185.7760  176.2660  136.4380 C   0  0  0  0  0  1  0  0  0  0  0  0
  187.0120  176.7640  135.7140 C   0  0  0  0  0  2  0  0  0  0  0  0
  1  6  1  0  0  0  0
  1  3  1  0  0  0  0
  3 20  1  6  0  0  0
  3  5  1  0  0  0  0
  4  2  1  0  0  0  0
  5  2  1  0  0  0  0
  5 13  1  1  0  0  0
  6 26  1  6  0  0  0
  6  4  1  0  0  0  0
  7 11  1  0  0  0  0
  8 16  1  0  0  0  0
  8  7  2  0  0  0  0
  9 14  1  0  0  0  0
  9 15  1  0  0  0  0
 10  7  1  0  0  0  0
 11 15  2  0  0  0  0
 12 10  1  0  0  0  0
 13 12  2  0  0  0  0
 13  8  1  0  0  0  0
 16  9  2  0  0  0  0
 17 20  1  0  0  0  0
 18 19  1  0  0  0  0
 18 17  2  0  0  0  0
 19 21  1  6  0  0  0
 19 17  1  0  0  0  0
 21 23  1  0  0  0  0
 22 21  2  0  0  0  0
 24 23  1  0  0  0  0
 25 22  1  0  0  0  0
 25 24  2  0  0  0  0
 27 26  1  0  0  0  0
 28 29  1  0  0  0  0
 29 27  1  0  0  0  0
 30 29  2  0  0  0  0
 32 31  1  0  0  0  0
 32 28  1  0  0  0  0
M  END
>  <MODEL>
2

>  <REMARK>
 VINA RESULT:      -8.9      1.824      2.043
  Name = 
  7 active torsions:
  status: ('A' for Active; 'I' for Inactive)
    1  A    between atoms: N_4  and  C_18
    2  A    between atoms: C_7  and  C_23
    3  A    between atoms: C_7  and  C_30
    4  A    between atoms: C_10  and  N_26
    5  A    between atoms: C_16  and  C_21
    6  A    between atoms: C_17  and  C_22
    7  A    between atoms: C_23  and  C_25
                            x       y       z     vdW  Elec       q    Type
                         _______ _______ _______ _____ _____    ______ ____

>  <TORSDO>
F 7

$$$$
=
 OpenBabel10222416043D

 32 36  0  0  1  0  0  0  0  0999 V2000
  187.2040  178.3570  142.4770 C   0  0  0  0  0  2  0  0  0  0  0  0
  187.0060  178.5340  139.6260 O   0  0  0  0  0  0  0  0  0  0  0  0
  188.3720  178.0090  141.5530 C   0  0  2  0  0  3  0  0  0  0  0  0
  185.8470  178.6140  140.4170 C   0  0  0  0  0  2  0  0  0  0  0  0
  187.8200  177.5360  140.1970 C   0  0  2  0  0  3  0  0  0  0  0  0
  186.1880  179.2460  141.7670 C   0  0  1  0  0  3  0  0  0  0  0  0
  189.9790  176.3250  137.4170 C   0  0  0  0  0  0  0  0  0  0  0  0
  188.7680  176.4280  138.0300 C   0  0  0  0  0  0  0  0  0  0  0  0
  187.7480  175.2320  136.2990 C   0  0  0  0  0  0  0  0  0  0  0  0
  191.0290  177.0200  138.2090 C   0  0  0  0  0  3  0  0  0  0  0  0
  190.1090  175.6810  136.2320 N   0  0  0  0  0  0  0  0  0  0  0  0
  190.2060  177.5440  139.3670 C   0  0  0  0  0  3  0  0  0  0  0  0
  188.9230  177.1860  139.2450 C   0  0  0  0  0  0  0  0  0  0  0  0
  186.3230  174.5270  135.5660 Cl  0  0  0  0  0  0  0  0  0  0  0  0
  189.0000  175.1280  135.6560 C   0  0  0  0  0  3  0  0  0  0  0  0
  187.6460  175.8930  137.4880 N   0  0  0  0  0  2  0  0  0  0  0  0
  190.4460  177.2540  142.7250 C   0  0  0  0  0  0  0  0  0  0  0  0
  191.4810  178.1710  143.0050 N   0  0  0  0  0  0  0  0  0  0  0  0
  191.5630  176.8680  143.4010 C   0  0  1  0  0  3  0  0  0  0  0  0
  189.1710  176.9590  142.1640 N   0  0  0  0  0  2  0  0  0  0  0  0
  191.2520  176.7370  144.8600 C   0  0  0  0  0  0  0  0  0  0  0  0
  190.0900  177.1830  145.4490 C   0  0  0  0  0  3  0  0  0  0  0  0
  192.0350  176.1800  145.7540 O   0  0  0  0  0  0  0  0  0  0  0  0
  191.4480  176.2350  146.9260 C   0  0  0  0  0  3  0  0  0  0  0  0
  190.2190  176.8560  146.7880 C   0  0  0  0  0  3  0  0  0  0  0  0
  184.9450  179.3580  142.6310 C   0  0  0  0  0  2  0  0  0  0  0  0
  184.8380  178.1770  143.5800 C   0  0  0  0  0  2  0  0  0  0  0  0
  186.0080  178.6710  145.7560 N   0  0  0  0  0  2  0  0  0  0  0  0
  184.8050  178.6640  144.9850 C   0  0  0  0  0  0  0  0  0  0  0  0
  183.7110  179.0150  145.4990 O   0  0  0  0  0  0  0  0  0  0  0  0
  187.1390  178.3740  147.8920 C   0  0  0  0  0  1  0  0  0  0  0  0
  186.0520  179.1170  147.1400 C   0  0  0  0  0  2  0  0  0  0  0  0
  2  5  1  0  0  0  0
  2  4  1  0  0  0  0
  3 20  1  1  0  0  0
  3  1  1  0  0  0  0
  4  6  1  0  0  0  0
  5 13  1  6  0  0  0
  5  3  1  0  0  0  0
  6  1  1  0  0  0  0
  6 26  1  1  0  0  0
  7  8  1  0  0  0  0
  7 10  1  0  0  0  0
  8 13  2  0  0  0  0
  9 16  1  0  0  0  0
 10 12  2  0  0  0  0
 11  7  2  0  0  0  0
 13 12  1  0  0  0  0
 14  9  1  0  0  0  0
 15 11  1  0  0  0  0
 15  9  2  0  0  0  0
 16  8  1  0  0  0  0
 17 18  2  0  0  0  0
 17 19  1  0  0  0  0
 18 19  1  0  0  0  0
 19 21  1  1  0  0  0
 20 17  1  0  0  0  0
 21 22  2  0  0  0  0
 21 23  1  0  0  0  0
 22 25  1  0  0  0  0
 23 24  1  0  0  0  0
 25 24  2  0  0  0  0
 26 27  1  0  0  0  0
 27 29  1  0  0  0  0
 28 32  1  0  0  0  0
 29 30  2  0  0  0  0
 29 28  1  0  0  0  0
 32 31  1  0  0  0  0
M  END
>  <MODEL>
3

>  <REMARK>
 VINA RESULT:      -8.8      3.572      8.953
  Name = 
  7 active torsions:
  status: ('A' for Active; 'I' for Inactive)
    1  A    between atoms: N_4  and  C_18
    2  A    between atoms: C_7  and  C_23
    3  A    between atoms: C_7  and  C_30
    4  A    between atoms: C_10  and  N_26
    5  A    between atoms: C_16  and  C_21
    6  A    between atoms: C_17  and  C_22
    7  A    between atoms: C_23  and  C_25
                            x       y       z     vdW  Elec       q    Type
                         _______ _______ _______ _____ _____    ______ ____

>  <TORSDO>
F 7

$$$$
=
 OpenBabel10222416043D

 32 36  0  0  1  0  0  0  0  0999 V2000
  187.7300  178.1480  141.9240 C   0  0  0  0  0  2  0  0  0  0  0  0
  188.3160  178.1500  139.1210 O   0  0  0  0  0  0  0  0  0  0  0  0
  189.1080  177.7740  141.3760 C   0  0  2  0  0  3  0  0  0  0  0  0
  186.9850  178.2490  139.5600 C   0  0  0  0  0  2  0  0  0  0  0  0
  188.9500  177.2070  139.9540 C   0  0  2  0  0  3  0  0  0  0  0  0
  186.9410  178.9690  140.9090 C   0  0  1  0  0  3  0  0  0  0  0  0
  191.8110  175.7210  138.0940 C   0  0  0  0  0  0  0  0  0  0  0  0
  190.4910  175.7570  138.4240 C   0  0  0  0  0  0  0  0  0  0  0  0
  190.0430  173.9720  136.9790 C   0  0  0  0  0  0  0  0  0  0  0  0
  192.5610  176.7850  138.8140 C   0  0  0  0  0  3  0  0  0  0  0  0
  192.2830  174.8190  137.2000 N   0  0  0  0  0  0  0  0  0  0  0  0
  191.4400  177.4370  139.5970 C   0  0  0  0  0  3  0  0  0  0  0  0
  190.2730  176.8280  139.3630 C   0  0  0  0  0  0  0  0  0  0  0  0
  188.9190  172.8450  136.2510 Cl  0  0  0  0  0  0  0  0  0  0  0  0
  191.4100  173.9350  136.6300 C   0  0  0  0  0  3  0  0  0  0  0  0
  189.5950  174.8970  137.8780 N   0  0  0  0  0  2  0  0  0  0  0  0
  190.8290  177.1240  143.0680 C   0  0  0  0  0  0  0  0  0  0  0  0
  191.7880  178.0620  143.5060 N   0  0  0  0  0  0  0  0  0  0  0  0
  191.7450  176.7990  144.0200 C   0  0  1  0  0  3  0  0  0  0  0  0
  189.7170  176.7820  142.2470 N   0  0  0  0  0  2  0  0  0  0  0  0
  191.0950  176.7970  145.3700 C   0  0  0  0  0  0  0  0  0  0  0  0
  189.7890  177.1680  145.6030 C   0  0  0  0  0  3  0  0  0  0  0  0
  191.6760  176.4390  146.4900 O   0  0  0  0  0  0  0  0  0  0  0  0
  190.8150  176.5560  147.4730 C   0  0  0  0  0  3  0  0  0  0  0  0
  189.6100  177.0100  146.9660 C   0  0  0  0  0  3  0  0  0  0  0  0
  185.5090  179.1030  141.3940 C   0  0  0  0  0  2  0  0  0  0  0  0
  185.1660  178.0000  142.3810 C   0  0  0  0  0  2  0  0  0  0  0  0
  185.3010  178.1320  144.8930 N   0  0  0  0  0  2  0  0  0  0  0  0
  184.7290  178.5990  143.6700 C   0  0  0  0  0  0  0  0  0  0  0  0
  183.8230  179.4740  143.6770 O   0  0  0  0  0  0  0  0  0  0  0  0
  186.1350  178.8260  147.0730 C   0  0  0  0  0  1  0  0  0  0  0  0
  184.9120  178.6570  146.1930 C   0  0  0  0  0  2  0  0  0  0  0  0
  2  4  1  0  0  0  0
  2  5  1  0  0  0  0
  3  1  1  0  0  0  0
  3 20  1  1  0  0  0
  4  6  1  0  0  0  0
  5 13  1  6  0  0  0
  5  3  1  0  0  0  0
  6 26  1  1  0  0  0
  6  1  1  0  0  0  0
  7  8  1  0  0  0  0
  7 10  1  0  0  0  0
  8 13  2  0  0  0  0
  9 16  1  0  0  0  0
 10 12  2  0  0  0  0
 11  7  2  0  0  0  0
 13 12  1  0  0  0  0
 14  9  1  0  0  0  0
 15  9  2  0  0  0  0
 15 11  1  0  0  0  0
 16  8  1  0  0  0  0
 17 18  2  0  0  0  0
 17 19  1  0  0  0  0
 18 19  1  0  0  0  0
 19 21  1  1  0  0  0
 20 17  1  0  0  0  0
 21 22  2  0  0  0  0
 21 23  1  0  0  0  0
 22 25  1  0  0  0  0
 23 24  1  0  0  0  0
 25 24  2  0  0  0  0
 26 27  1  0  0  0  0
 27 29  1  0  0  0  0
 28 32  1  0  0  0  0
 29 30  2  0  0  0  0
 29 28  1  0  0  0  0
 32 31  1  0  0  0  0
M  END
>  <MODEL>
4

>  <REMARK>
 VINA RESULT:      -8.7      3.438      8.812
  Name = 
  7 active torsions:
  status: ('A' for Active; 'I' for Inactive)
    1  A    between atoms: N_4  and  C_18
    2  A    between atoms: C_7  and  C_23
    3  A    between atoms: C_7  and  C_30
    4  A    between atoms: C_10  and  N_26
    5  A    between atoms: C_16  and  C_21
    6  A    between atoms: C_17  and  C_22
    7  A    between atoms: C_23  and  C_25
                            x       y       z     vdW  Elec       q    Type
                         _______ _______ _______ _____ _____    ______ ____

>  <TORSDO>
F 7

$$$$
=
 OpenBabel10222416043D

 32 36  0  0  1  0  0  0  0  0999 V2000
  191.0110  176.3960  141.3400 C   0  0  0  0  0  2  0  0  0  0  0  0
  188.7240  178.0220  140.7670 O   0  0  0  0  0  0  0  0  0  0  0  0
  190.7070  176.9150  139.9340 C   0  0  2  0  0  3  0  0  0  0  0  0
  188.8240  177.3620  142.0040 C   0  0  0  0  0  2  0  0  0  0  0  0
  189.1900  177.1230  139.7880 C   0  0  2  0  0  3  0  0  0  0  0  0
  190.2960  177.2300  142.3980 C   0  0  1  0  0  3  0  0  0  0  0  0
  187.9680  177.6890  136.3170 C   0  0  0  0  0  0  0  0  0  0  0  0
  188.1300  176.8960  137.4120 C   0  0  0  0  0  0  0  0  0  0  0  0
  186.9790  175.1510  136.3620 C   0  0  0  0  0  0  0  0  0  0  0  0
  188.5720  179.0290  136.5470 C   0  0  0  0  0  3  0  0  0  0  0  0
  187.3080  177.2420  135.2220 N   0  0  0  0  0  0  0  0  0  0  0  0
  189.0920  178.8640  137.9600 C   0  0  0  0  0  3  0  0  0  0  0  0
  188.8330  177.6380  138.4270 C   0  0  0  0  0  0  0  0  0  0  0  0
  186.3340  173.5240  136.3770 Cl  0  0  0  0  0  0  0  0  0  0  0  0
  186.8040  175.9720  135.2280 C   0  0  0  0  0  3  0  0  0  0  0  0
  187.6420  175.6310  137.4540 N   0  0  0  0  0  2  0  0  0  0  0  0
  192.3530  176.2050  138.1920 C   0  0  0  0  0  0  0  0  0  0  0  0
  193.4260  177.0510  137.8380 N   0  0  0  0  0  0  0  0  0  0  0  0
  193.2820  175.8160  137.2770 C   0  0  1  0  0  3  0  0  0  0  0  0
  191.1780  175.9490  138.9540 N   0  0  0  0  0  2  0  0  0  0  0  0
  194.2290  174.8360  137.9000 C   0  0  0  0  0  0  0  0  0  0  0  0
  194.2490  173.4880  137.6160 C   0  0  0  0  0  3  0  0  0  0  0  0
  195.1540  175.1330  138.7820 O   0  0  0  0  0  0  0  0  0  0  0  0
  195.7980  174.0370  139.1080 C   0  0  0  0  0  3  0  0  0  0  0  0
  195.2670  172.9730  138.3990 C   0  0  0  0  0  3  0  0  0  0  0  0
  190.4270  176.5350  143.7420 C   0  0  0  0  0  2  0  0  0  0  0  0
  191.2780  177.3570  144.6940 C   0  0  0  0  0  2  0  0  0  0  0  0
  189.4370  177.1160  146.3980 N   0  0  0  0  0  2  0  0  0  0  0  0
  190.8330  177.1190  146.0940 C   0  0  0  0  0  0  0  0  0  0  0  0
  191.6900  176.9760  147.0060 O   0  0  0  0  0  0  0  0  0  0  0  0
  188.7550  178.2390  148.4480 C   0  0  0  0  0  1  0  0  0  0  0  0
  188.9270  176.9080  147.7450 C   0  0  0  0  0  2  0  0  0  0  0  0
  1  6  1  0  0  0  0
  2  4  1  0  0  0  0
  3 20  1  6  0  0  0
  3  1  1  0  0  0  0
  4  6  1  0  0  0  0
  5 13  1  6  0  0  0
  5  3  1  0  0  0  0
  5  2  1  0  0  0  0
  6 26  1  1  0  0  0
  7 10  1  0  0  0  0
  7  8  1  0  0  0  0
  8 16  1  0  0  0  0
  8 13  2  0  0  0  0
  9 14  1  0  0  0  0
  9 16  1  0  0  0  0
 10 12  2  0  0  0  0
 11 15  1  0  0  0  0
 11  7  2  0  0  0  0
 12 13  1  0  0  0  0
 15  9  2  0  0  0  0
 17 20  1  0  0  0  0
 18 17  2  0  0  0  0
 19 18  1  0  0  0  0
 19 21  1  1  0  0  0
 19 17  1  0  0  0  0
 21 23  1  0  0  0  0
 22 21  2  0  0  0  0
 22 25  1  0  0  0  0
 23 24  1  0  0  0  0
 25 24  2  0  0  0  0
 26 27  1  0  0  0  0
 27 29  1  0  0  0  0
 28 32  1  0  0  0  0
 29 28  1  0  0  0  0
 29 30  2  0  0  0  0
 32 31  1  0  0  0  0
M  END
>  <MODEL>
5

>  <REMARK>
 VINA RESULT:      -8.5      4.026      9.245
  Name = 
  7 active torsions:
  status: ('A' for Active; 'I' for Inactive)
    1  A    between atoms: N_4  and  C_18
    2  A    between atoms: C_7  and  C_23
    3  A    between atoms: C_7  and  C_30
    4  A    between atoms: C_10  and  N_26
    5  A    between atoms: C_16  and  C_21
    6  A    between atoms: C_17  and  C_22
    7  A    between atoms: C_23  and  C_25
                            x       y       z     vdW  Elec       q    Type
                         _______ _______ _______ _____ _____    ______ ____

>  <TORSDO>
F 7

$$$$
=
 OpenBabel10222416043D

 32 36  0  0  1  0  0  0  0  0999 V2000
  184.1930  178.5600  143.0640 C   0  0  0  0  0  2  0  0  0  0  0  0
  181.4340  179.3160  143.1960 O   0  0  0  0  0  0  0  0  0  0  0  0
  183.3630  178.8470  141.8130 C   0  0  2  0  0  3  0  0  0  0  0  0
  182.0810  178.8170  144.3400 C   0  0  0  0  0  2  0  0  0  0  0  0
  181.8830  178.5450  142.1070 C   0  0  2  0  0  3  0  0  0  0  0  0
  183.5620  179.1960  144.2990 C   0  0  1  0  0  3  0  0  0  0  0  0
  179.6610  178.4270  139.1230 C   0  0  0  0  0  0  0  0  0  0  0  0
  180.3770  177.8110  140.1030 C   0  0  0  0  0  0  0  0  0  0  0  0
  179.6800  175.7110  139.3450 C   0  0  0  0  0  0  0  0  0  0  0  0
  179.7920  179.9050  139.2270 C   0  0  0  0  0  3  0  0  0  0  0  0
  178.9330  177.7080  138.2330 N   0  0  0  0  0  0  0  0  0  0  0  0
  180.6930  180.0220  140.4380 C   0  0  0  0  0  3  0  0  0  0  0  0
  181.0180  178.8150  140.9140 C   0  0  0  0  0  0  0  0  0  0  0  0
  179.6790  173.9660  139.4770 Cl  0  0  0  0  0  0  0  0  0  0  0  0
  178.9310  176.3450  138.3310 C   0  0  0  0  0  3  0  0  0  0  0  0
  180.3970  176.4610  140.2320 N   0  0  0  0  0  2  0  0  0  0  0  0
  184.4010  178.6030  139.5520 C   0  0  0  0  0  0  0  0  0  0  0  0
  184.7560  179.7460  138.8040 N   0  0  0  0  0  0  0  0  0  0  0  0
  185.0060  178.4880  138.3390 C   0  0  1  0  0  3  0  0  0  0  0  0
  183.8380  178.0140  140.7200 N   0  0  0  0  0  2  0  0  0  0  0  0
  186.4490  178.1310  138.5240 C   0  0  0  0  0  0  0  0  0  0  0  0
  187.1720  177.3460  137.6540 C   0  0  0  0  0  3  0  0  0  0  0  0
  187.2040  178.5220  139.5240 O   0  0  0  0  0  0  0  0  0  0  0  0
  188.4090  178.0290  139.3650 C   0  0  0  0  0  3  0  0  0  0  0  0
  188.4420  177.2810  138.2000 C   0  0  0  0  0  3  0  0  0  0  0  0
  184.2770  178.6820  145.5360 C   0  0  0  0  0  2  0  0  0  0  0  0
  185.6940  178.2510  145.2000 C   0  0  0  0  0  2  0  0  0  0  0  0
  187.7420  177.5350  146.4820 N   0  0  0  0  0  2  0  0  0  0  0  0
  186.5350  178.2980  146.4270 C   0  0  0  0  0  0  0  0  0  0  0  0
  186.1520  178.9670  147.4220 O   0  0  0  0  0  0  0  0  0  0  0  0
  189.9820  177.0000  147.2740 C   0  0  0  0  0  1  0  0  0  0  0  0
  188.6080  177.5180  147.6510 C   0  0  0  0  0  2  0  0  0  0  0  0
  1  6  1  0  0  0  0
  2  4  1  0  0  0  0
  3 20  1  6  0  0  0
  3  5  1  0  0  0  0
  3  1  1  0  0  0  0
  5 13  1  6  0  0  0
  5  2  1  0  0  0  0
  6  4  1  0  0  0  0
  6 26  1  1  0  0  0
  7 10  1  0  0  0  0
  7  8  1  0  0  0  0
  8 16  1  0  0  0  0
  8 13  2  0  0  0  0
  9 14  1  0  0  0  0
  9 16  1  0  0  0  0
 10 12  2  0  0  0  0
 11 15  1  0  0  0  0
 11  7  2  0  0  0  0
 12 13  1  0  0  0  0
 15  9  2  0  0  0  0
 17 20  1  0  0  0  0
 18 17  2  0  0  0  0
 19 21  1  1  0  0  0
 19 18  1  0  0  0  0
 19 17  1  0  0  0  0
 21 23  1  0  0  0  0
 22 25  1  0  0  0  0
 22 21  2  0  0  0  0
 24 23  1  0  0  0  0
 25 24  2  0  0  0  0
 27 26  1  0  0  0  0
 27 29  1  0  0  0  0
 28 32  1  0  0  0  0
 29 28  1  0  0  0  0
 29 30  2  0  0  0  0
 31 32  1  0  0  0  0
M  END
>  <MODEL>
6

>  <REMARK>
 VINA RESULT:      -8.4      3.945      8.394
  Name = 
  7 active torsions:
  status: ('A' for Active; 'I' for Inactive)
    1  A    between atoms: N_4  and  C_18
    2  A    between atoms: C_7  and  C_23
    3  A    between atoms: C_7  and  C_30
    4  A    between atoms: C_10  and  N_26
    5  A    between atoms: C_16  and  C_21
    6  A    between atoms: C_17  and  C_22
    7  A    between atoms: C_23  and  C_25
                            x       y       z     vdW  Elec       q    Type
                         _______ _______ _______ _____ _____    ______ ____

>  <TORSDO>
F 7

$$$$
=
 OpenBabel10222416043D

 32 36  0  0  1  0  0  0  0  0999 V2000
  189.9230  176.3780  144.1510 C   0  0  0  0  0  2  0  0  0  0  0  0
  190.4720  178.1720  141.9870 O   0  0  0  0  0  0  0  0  0  0  0  0
  188.9930  176.5130  142.9450 C   0  0  2  0  0  3  0  0  0  0  0  0
  191.2090  178.2650  143.1810 C   0  0  0  0  0  2  0  0  0  0  0  0
  189.1340  177.9270  142.3540 C   0  0  2  0  0  3  0  0  0  0  0  0
  191.3250  176.8810  143.8230 C   0  0  1  0  0  3  0  0  0  0  0  0
  187.5380  178.0760  138.9940 C   0  0  0  0  0  0  0  0  0  0  0  0
  188.5940  177.7870  139.8020 C   0  0  0  0  0  0  0  0  0  0  0  0
  189.8240  177.0000  137.9750 C   0  0  0  0  0  0  0  0  0  0  0  0
  186.4070  178.6280  139.7870 C   0  0  0  0  0  3  0  0  0  0  0  0
  187.5900  177.8330  137.6620 N   0  0  0  0  0  0  0  0  0  0  0  0
  186.9970  178.5920  141.1810 C   0  0  0  0  0  3  0  0  0  0  0  0
  188.2470  178.1150  141.1610 C   0  0  0  0  0  0  0  0  0  0  0  0
  191.2850  176.3060  137.3060 Cl  0  0  0  0  0  0  0  0  0  0  0  0
  188.7290  177.2920  137.1340 C   0  0  0  0  0  3  0  0  0  0  0  0
  189.7400  177.2490  139.3140 N   0  0  0  0  0  2  0  0  0  0  0  0
  187.0470  177.0510  144.4190 C   0  0  0  0  0  0  0  0  0  0  0  0
  187.1590  178.0480  145.4120 N   0  0  0  0  0  0  0  0  0  0  0  0
  185.9850  177.3860  145.2000 C   0  0  1  0  0  3  0  0  0  0  0  0
  187.6220  176.2800  143.3680 N   0  0  0  0  0  2  0  0  0  0  0  0
  185.0300  178.2370  144.4200 C   0  0  0  0  0  0  0  0  0  0  0  0
  184.4970  179.4230  144.8750 C   0  0  0  0  0  3  0  0  0  0  0  0
  184.5890  177.9690  143.2140 O   0  0  0  0  0  0  0  0  0  0  0  0
  183.7760  178.9270  142.8360 C   0  0  0  0  0  3  0  0  0  0  0  0
  183.6860  179.8680  143.8470 C   0  0  0  0  0  3  0  0  0  0  0  0
  192.1330  176.9560  145.1050 C   0  0  0  0  0  2  0  0  0  0  0  0
  191.5340  176.0600  146.1750 C   0  0  0  0  0  2  0  0  0  0  0  0
  189.8150  177.4240  147.4150 N   0  0  0  0  0  2  0  0  0  0  0  0
  191.1360  176.8810  147.3500 C   0  0  0  0  0  0  0  0  0  0  0  0
  191.9790  177.1350  148.2500 O   0  0  0  0  0  0  0  0  0  0  0  0
  187.9290  177.8920  148.8830 C   0  0  0  0  0  1  0  0  0  0  0  0
  189.3580  178.2490  148.5230 C   0  0  0  0  0  2  0  0  0  0  0  0
  2  5  1  0  0  0  0
  2  4  1  0  0  0  0
  3 20  1  1  0  0  0
  3  1  1  0  0  0  0
  4  6  1  0  0  0  0
  5 13  1  6  0  0  0
  5  3  1  0  0  0  0
  6  1  1  0  0  0  0
  6 26  1  1  0  0  0
  7 10  1  0  0  0  0
  7  8  1  0  0  0  0
  8 13  2  0  0  0  0
  9 16  1  0  0  0  0
 10 12  2  0  0  0  0
 11  7  2  0  0  0  0
 13 12  1  0  0  0  0
 14  9  1  0  0  0  0
 15 11  1  0  0  0  0
 15  9  2  0  0  0  0
 16  8  1  0  0  0  0
 17 19  1  0  0  0  0
 17 18  2  0  0  0  0
 19 21  1  6  0  0  0
 19 18  1  0  0  0  0
 20 17  1  0  0  0  0
 21 22  2  0  0  0  0
 23 21  1  0  0  0  0
 24 23  1  0  0  0  0
 24 25  2  0  0  0  0
 25 22  1  0  0  0  0
 26 27  1  0  0  0  0
 27 29  1  0  0  0  0
 28 32  1  0  0  0  0
 29 28  1  0  0  0  0
 29 30  2  0  0  0  0
 32 31  1  0  0  0  0
M  END
>  <MODEL>
7

>  <REMARK>
 VINA RESULT:      -8.4      3.222      7.134
  Name = 
  7 active torsions:
  status: ('A' for Active; 'I' for Inactive)
    1  A    between atoms: N_4  and  C_18
    2  A    between atoms: C_7  and  C_23
    3  A    between atoms: C_7  and  C_30
    4  A    between atoms: C_10  and  N_26
    5  A    between atoms: C_16  and  C_21
    6  A    between atoms: C_17  and  C_22
    7  A    between atoms: C_23  and  C_25
                            x       y       z     vdW  Elec       q    Type
                         _______ _______ _______ _____ _____    ______ ____

>  <TORSDO>
F 7

$$$$
=
 OpenBabel10222416043D

 32 36  0  0  1  0  0  0  0  0999 V2000
  188.3910  177.8930  141.1540 C   0  0  0  0  0  2  0  0  0  0  0  0
  187.1160  177.5780  143.7000 O   0  0  0  0  0  0  0  0  0  0  0  0
  187.0730  178.5870  141.5010 C   0  0  2  0  0  3  0  0  0  0  0  0
  188.1780  176.7310  143.3350 C   0  0  0  0  0  2  0  0  0  0  0  0
  186.3210  177.7490  142.5500 C   0  0  2  0  0  3  0  0  0  0  0  0
  189.1420  177.4810  142.4160 C   0  0  1  0  0  3  0  0  0  0  0  0
  182.8210  178.9820  142.8440 C   0  0  0  0  0  0  0  0  0  0  0  0
  183.7940  178.2960  142.1840 C   0  0  0  0  0  0  0  0  0  0  0  0
  182.2760  177.6780  140.5140 C   0  0  0  0  0  0  0  0  0  0  0  0
  183.3590  179.5830  144.0940 C   0  0  0  0  0  2  0  0  0  0  0  0
  181.5540  179.0320  142.3650 N   0  0  0  0  0  0  0  0  0  0  0  0
  184.7970  179.1110  144.0350 C   0  0  0  0  0  3  0  0  0  0  0  0
  185.0200  178.3870  142.9330 C   0  0  0  0  0  0  0  0  0  0  0  0
  181.9100  176.8420  139.0200 Cl  0  0  0  0  0  0  0  0  0  0  0  0
  181.2630  178.3820  141.1990 C   0  0  0  0  0  3  0  0  0  0  0  0
  183.5420  177.6390  141.0240 N   0  0  0  0  0  0  0  0  0  0  0  0
  186.8500  178.5100  139.0130 C   0  0  0  0  0  0  0  0  0  0  0  0
  187.9710  178.2220  138.2050 N   0  0  0  0  0  0  0  0  0  0  0  0
  186.7370  178.4220  137.6590 C   0  0  1  0  0  3  0  0  0  0  0  0
  186.2710  178.7210  140.2960 N   0  0  0  0  0  2  0  0  0  0  0  0
  186.1030  177.1170  137.2880 C   0  0  0  0  0  0  0  0  0  0  0  0
  184.7760  176.9670  136.9500 C   0  0  0  0  0  3  0  0  0  0  0  0
  186.7240  175.9630  137.2290 O   0  0  0  0  0  0  0  0  0  0  0  0
  185.8680  175.0370  136.8680 C   0  0  0  0  0  3  0  0  0  0  0  0
  184.6260  175.6190  136.6780 C   0  0  0  0  0  3  0  0  0  0  0  0
  190.3070  176.5890  142.0250 C   0  0  0  0  0  2  0  0  0  0  0  0
  191.6320  177.2560  142.3490 C   0  0  0  0  0  2  0  0  0  0  0  0
  191.5750  176.5660  144.7720 N   0  0  0  0  0  2  0  0  0  0  0  0
  191.6770  177.6040  143.7950 C   0  0  0  0  0  0  0  0  0  0  0  0
  191.7510  178.8110  144.1450 O   0  0  0  0  0  0  0  0  0  0  0  0
  192.1990  175.6500  146.9400 C   0  0  0  0  0  1  0  0  0  0  0  0
  191.5950  176.8290  146.2020 C   0  0  0  0  0  2  0  0  0  0  0  0
  1  3  1  0  0  0  0
  1  6  1  0  0  0  0
  3 20  1  6  0  0  0
  3  5  1  0  0  0  0
  4  2  1  0  0  0  0
  5 13  1  1  0  0  0
  5  2  1  0  0  0  0
  6 26  1  6  0  0  0
  6  4  1  0  0  0  0
  7 10  1  0  0  0  0
  8  7  2  0  0  0  0
  8 13  1  0  0  0  0
  9 16  2  0  0  0  0
  9 15  1  0  0  0  0
 11  7  1  0  0  0  0
 12 10  1  0  0  0  0
 13 12  2  0  0  0  0
 14  9  1  0  0  0  0
 15 11  2  0  0  0  0
 16  8  1  0  0  0  0
 17 20  1  0  0  0  0
 18 17  2  0  0  0  0
 19 21  1  1  0  0  0
 19 18  1  0  0  0  0
 19 17  1  0  0  0  0
 22 21  2  0  0  0  0
 23 21  1  0  0  0  0
 24 23  1  0  0  0  0
 25 24  2  0  0  0  0
 25 22  1  0  0  0  0
 26 27  1  0  0  0  0
 27 29  1  0  0  0  0
 28 32  1  0  0  0  0
 29 30  2  0  0  0  0
 29 28  1  0  0  0  0
 32 31  1  0  0  0  0
M  END
>  <MODEL>
8

>  <REMARK>
 VINA RESULT:      -8.3      3.560      5.623
  Name = 
  7 active torsions:
  status: ('A' for Active; 'I' for Inactive)
    1  A    between atoms: N_4  and  C_18
    2  A    between atoms: C_7  and  C_23
    3  A    between atoms: C_7  and  C_30
    4  A    between atoms: C_10  and  N_26
    5  A    between atoms: C_16  and  C_21
    6  A    between atoms: C_17  and  C_22
    7  A    between atoms: C_23  and  C_25
                            x       y       z     vdW  Elec       q    Type
                         _______ _______ _______ _____ _____    ______ ____

>  <TORSDO>
F 7

$$$$
=
 OpenBabel10222416043D

 32 36  0  0  1  0  0  0  0  0999 V2000
  189.1560  177.4300  142.0480 C   0  0  0  0  0  2  0  0  0  0  0  0
  190.3590  176.9280  139.4980 O   0  0  0  0  0  0  0  0  0  0  0  0
  188.4190  177.6790  140.7320 C   0  0  2  0  0  3  0  0  0  0  0  0
  191.1510  176.9310  140.6600 C   0  0  0  0  0  2  0  0  0  0  0  0
  189.4440  177.9910  139.6280 C   0  0  2  0  0  3  0  0  0  0  0  0
  190.3160  176.4590  141.8510 C   0  0  1  0  0  3  0  0  0  0  0  0
  187.5360  177.8580  136.4350 C   0  0  0  0  0  0  0  0  0  0  0  0
  188.0020  177.2740  137.5720 C   0  0  0  0  0  0  0  0  0  0  0  0
  186.9200  175.2720  137.0310 C   0  0  0  0  0  0  0  0  0  0  0  0
  187.9880  179.2730  136.3490 C   0  0  0  0  0  3  0  0  0  0  0  0
  186.7490  177.1730  135.5690 N   0  0  0  0  0  0  0  0  0  0  0  0
  188.7770  179.3940  137.6360 C   0  0  0  0  0  3  0  0  0  0  0  0
  188.7760  178.2390  138.3100 C   0  0  0  0  0  0  0  0  0  0  0  0
  186.5130  173.6100  137.4020 Cl  0  0  0  0  0  0  0  0  0  0  0  0
  186.4300  175.8750  135.8540 C   0  0  0  0  0  3  0  0  0  0  0  0
  187.7040  175.9890  137.8880 N   0  0  0  0  0  2  0  0  0  0  0  0
  186.1140  178.6420  140.6380 C   0  0  0  0  0  0  0  0  0  0  0  0
  185.0260  177.8470  140.2170 N   0  0  0  0  0  0  0  0  0  0  0  0
  184.8460  179.1370  140.6230 C   0  0  1  0  0  3  0  0  0  0  0  0
  187.5050  178.7980  140.8990 N   0  0  0  0  0  2  0  0  0  0  0  0
  184.3030  179.1830  142.0180 C   0  0  0  0  0  0  0  0  0  0  0  0
  183.0590  178.7160  142.3820 C   0  0  0  0  0  3  0  0  0  0  0  0
  184.9370  179.6610  143.0620 O   0  0  0  0  0  0  0  0  0  0  0  0
  184.1690  179.5390  144.1190 C   0  0  0  0  0  3  0  0  0  0  0  0
  182.9750  178.9470  143.7440 C   0  0  0  0  0  3  0  0  0  0  0  0
  191.1570  176.4360  143.1150 C   0  0  0  0  0  2  0  0  0  0  0  0
  190.9030  177.6750  143.9560 C   0  0  0  0  0  2  0  0  0  0  0  0
  189.5090  177.2270  146.0070 N   0  0  0  0  0  2  0  0  0  0  0  0
  190.7960  177.2930  145.3900 C   0  0  0  0  0  0  0  0  0  0  0  0
  191.8410  177.0840  146.0600 O   0  0  0  0  0  0  0  0  0  0  0  0
  188.8670  178.0910  148.1910 C   0  0  0  0  0  1  0  0  0  0  0  0
  189.3260  176.8770  147.4070 C   0  0  0  0  0  2  0  0  0  0  0  0
  2  5  1  0  0  0  0
  2  4  1  0  0  0  0
  3 20  1  1  0  0  0
  3  1  1  0  0  0  0
  4  6  1  0  0  0  0
  5 13  1  6  0  0  0
  5  3  1  0  0  0  0
  6  1  1  0  0  0  0
  6 26  1  1  0  0  0
  7  8  1  0  0  0  0
  8 16  1  0  0  0  0
  8 13  2  0  0  0  0
  9 14  1  0  0  0  0
  9 16  1  0  0  0  0
 10  7  1  0  0  0  0
 10 12  2  0  0  0  0
 11 15  1  0  0  0  0
 11  7  2  0  0  0  0
 12 13  1  0  0  0  0
 15  9  2  0  0  0  0
 17 20  1  0  0  0  0
 18 19  1  0  0  0  0
 18 17  2  0  0  0  0
 19 17  1  0  0  0  0
 19 21  1  1  0  0  0
 21 22  2  0  0  0  0
 21 23  1  0  0  0  0
 22 25  1  0  0  0  0
 23 24  1  0  0  0  0
 25 24  2  0  0  0  0
 26 27  1  0  0  0  0
 27 29  1  0  0  0  0
 28 32  1  0  0  0  0
 29 28  1  0  0  0  0
 29 30  2  0  0  0  0
 32 31  1  0  0  0  0
M  END
>  <MODEL>
9

>  <REMARK>
 VINA RESULT:      -8.2      3.238      7.241
  Name = 
  7 active torsions:
  status: ('A' for Active; 'I' for Inactive)
    1  A    between atoms: N_4  and  C_18
    2  A    between atoms: C_7  and  C_23
    3  A    between atoms: C_7  and  C_30
    4  A    between atoms: C_10  and  N_26
    5  A    between atoms: C_16  and  C_21
    6  A    between atoms: C_17  and  C_22
    7  A    between atoms: C_23  and  C_25
                            x       y       z     vdW  Elec       q    Type
                         _______ _______ _______ _____ _____    ______ ____

>  <TORSDO>
F 7

$$$$
