=
 OpenBabel10222416253D

 38 43  0  0  1  0  0  0  0  0999 V2000
  189.2630  178.2380  139.0210 C   0  0  0  0  0  2  0  0  0  0  0  0
  182.4020  176.6500  137.3540 O   0  0  0  0  0  1  0  0  0  0  0  0
  189.4850  177.3230  135.5390 C   0  0  0  0  0  2  0  0  0  0  0  0
  189.9920  176.1630  138.0170 N   0  0  2  0  0  0  0  0  0  0  0  0
  187.6820  178.0460  137.1440 N   0  0  0  0  0  0  0  0  0  0  0  0
  188.4780  178.9760  137.9430 C   0  0  0  0  0  2  0  0  0  0  0  0
  188.0870  177.3170  136.0770 C   0  0  0  0  0  0  0  0  0  0  0  0
  184.6480  174.7620  136.6970 C   0  0  0  0  0  1  0  0  0  0  0  0
  184.5970  176.2480  136.3850 C   0  0  2  0  0  3  0  0  0  0  0  0
  185.9830  176.8190  136.4060 C   0  0  0  0  0  0  0  0  0  0  0  0
  187.0530  176.5300  135.5760 C   0  0  0  0  0  3  0  0  0  0  0  0
  185.4950  178.2550  138.3660 C   0  0  0  0  0  3  0  0  0  0  0  0
  190.0680  175.9820  135.6000 N   0  0  0  0  0  0  0  0  0  0  0  0
  183.7260  176.9300  137.3620 N   0  0  0  0  0  0  0  0  0  0  0  0
  190.8040  175.7650  136.8650 C   0  0  2  0  0  3  0  0  0  0  0  0
  190.4380  177.5140  138.3930 C   0  0  2  0  0  3  0  0  0  0  0  0
  184.2190  177.8570  138.3530 C   0  0  0  0  0  3  0  0  0  0  0  0
  190.8570  176.3750  139.1920 C   0  0  0  0  0  2  0  0  0  0  0  0
  186.3940  177.7280  137.3390 C   0  0  0  0  0  0  0  0  0  0  0  0
  190.9760  175.9500  134.5960 O   0  0  0  0  0  1  0  0  0  0  0  0
  192.6970  173.9530  136.7330 C   0  0  2  0  0  3  0  0  0  0  0  0
  190.6320  172.4920  135.3780 C   0  0  0  0  0  3  0  0  0  0  0  0
  192.0660  172.3320  134.9620 C   0  0  0  0  0  2  0  0  0  0  0  0
  188.9020  173.3480  136.7070 O   0  0  0  0  0  1  0  0  0  0  0  0
  192.8810  173.5830  135.2610 C   0  0  0  0  0  2  0  0  0  0  0  0
  190.2430  173.3280  136.3460 C   0  0  0  0  0  0  0  0  0  0  0  0
  191.2110  174.2760  137.0290 C   0  0  2  0  0  3  0  0  0  0  0  0
  194.9430  174.4300  137.7070 C   0  0  0  0  0  0  0  0  0  0  0  0
  193.6770  175.0400  137.2110 C   0  0  1  0  0  3  0  0  0  0  0  0
  194.1680  175.9060  136.0370 C   0  0  0  0  0  2  0  0  0  0  0  0
  195.0230  173.6710  138.7090 O   0  0  0  0  0  0  0  0  0  0  0  0
  196.0740  174.8500  136.9040 C   0  0  0  0  0  0  0  0  0  0  0  0
  195.6470  175.6870  135.9670 C   0  0  0  0  0  0  0  0  0  0  0  0
  197.4300  174.4100  137.0990 N   0  0  0  0  0  0  0  0  0  0  0  0
  198.3420  175.1900  137.7710 O   0  0  0  0  0  0  0  0  0  0  0  0
  197.8120  173.3270  136.6120 O   0  0  0  0  0  0  0  0  0  0  0  0
  196.4960  176.3600  134.9410 C   0  0  0  0  0  2  0  0  0  0  0  0
  196.4140  177.7330  135.0910 F   0  0  0  0  0  0  0  0  0  0  0  0
  2 14  1  0  0  0  0
  3 13  1  0  0  0  0
  3  7  1  0  0  0  0
  4 16  1  0  0  0  0
  4 18  1  1  0  0  0
  5 19  1  0  0  0  0
  5  6  1  0  0  0  0
  6  1  1  0  0  0  0
  7  5  1  0  0  0  0
  9 10  1  0  0  0  0
  9  8  1  1  0  0  0
  9 14  1  0  0  0  0
 10 19  2  0  0  0  0
 11  7  2  0  0  0  0
 11 10  1  0  0  0  0
 14 17  1  0  0  0  0
 15 13  1  6  0  0  0
 15 27  1  0  0  0  0
 15  4  1  0  0  0  0
 16  1  1  1  0  0  0
 16 18  1  0  0  0  0
 17 12  2  0  0  0  0
 19 12  1  0  0  0  0
 20 13  1  0  0  0  0
 21 25  1  6  0  0  0
 21 27  1  0  0  0  0
 21 29  1  0  0  0  0
 22 26  2  0  0  0  0
 23 25  1  0  0  0  0
 23 22  1  0  0  0  0
 26 24  1  0  0  0  0
 27 26  1  6  0  0  0
 28 31  2  0  0  0  0
 29 30  1  6  0  0  0
 29 28  1  0  0  0  0
 32 34  1  0  0  0  0
 32 28  1  0  0  0  0
 33 30  1  0  0  0  0
 33 32  2  0  0  0  0
 34 35  2  0  0  0  0
 36 34  2  0  0  0  0
 37 38  1  0  0  0  0
 37 33  1  0  0  0  0
M  END
>  <MODEL>
1

>  <REMARK>
 VINA RESULT:      -6.6      0.000      0.000
  Name = 
  4 active torsions:
  status: ('A' for Active; 'I' for Inactive)
    1  A    between atoms: N_1  and  C_32
    2  A    between atoms: C_2  and  C_22
    3  A    between atoms: C_12  and  C_34
    4  A    between atoms: C_29  and  C_38
                            x       y       z     vdW  Elec       q    Type
                         _______ _______ _______ _____ _____    ______ ____

>  <TORSDO>
F 4

$$$$
=
 OpenBabel10222416253D

 38 43  0  0  1  0  0  0  0  0999 V2000
  189.1470  177.0980  139.3360 C   0  0  0  0  0  2  0  0  0  0  0  0
  183.1520  178.8010  143.0130 O   0  0  0  0  0  1  0  0  0  0  0  0
  187.0450  178.5560  136.7930 C   0  0  0  0  0  2  0  0  0  0  0  0
  187.8060  176.0170  137.6400 N   0  0  2  0  0  0  0  0  0  0  0  0
  187.1640  178.5550  139.3100 N   0  0  0  0  0  0  0  0  0  0  0  0
  188.6190  178.5230  139.4480 C   0  0  0  0  0  2  0  0  0  0  0  0
  186.4430  178.5840  138.1640 C   0  0  0  0  0  0  0  0  0  0  0  0
  183.0220  177.2360  140.4480 C   0  0  0  0  0  1  0  0  0  0  0  0
  183.7800  178.5330  140.6780 C   0  0  2  0  0  3  0  0  0  0  0  0
  184.9980  178.5710  139.8060 C   0  0  0  0  0  0  0  0  0  0  0  0
  185.0750  178.5970  138.4230 C   0  0  0  0  0  3  0  0  0  0  0  0
  186.5400  178.5200  141.7450 C   0  0  0  0  0  3  0  0  0  0  0  0
  186.5860  177.3830  136.0500 N   0  0  0  0  0  0  0  0  0  0  0  0
  184.1420  178.6500  142.1040 N   0  0  0  0  0  0  0  0  0  0  0  0
  187.5020  176.2340  136.2230 C   0  0  2  0  0  3  0  0  0  0  0  0
  189.1100  176.6510  137.8870 C   0  0  2  0  0  3  0  0  0  0  0  0
  185.5020  178.5750  142.5850 C   0  0  0  0  0  3  0  0  0  0  0  0
  189.0290  175.2050  137.7720 C   0  0  0  0  0  2  0  0  0  0  0  0
  186.2680  178.5410  140.3080 C   0  0  0  0  0  0  0  0  0  0  0  0
  186.6420  177.7490  134.7470 O   0  0  0  0  0  1  0  0  0  0  0  0
  185.6070  174.4230  136.3420 C   0  0  2  0  0  3  0  0  0  0  0  0
  187.8460  172.6570  136.0210 C   0  0  0  0  0  3  0  0  0  0  0  0
  186.6780  172.2460  136.8690 C   0  0  0  0  0  2  0  0  0  0  0  0
  189.0150  174.1040  134.5940 O   0  0  0  0  0  1  0  0  0  0  0  0
  185.9650  173.4520  137.4670 C   0  0  0  0  0  2  0  0  0  0  0  0
  187.9270  173.8480  135.4180 C   0  0  0  0  0  0  0  0  0  0  0  0
  186.8900  174.9340  135.6370 C   0  0  2  0  0  3  0  0  0  0  0  0
  183.6280  175.8180  135.7460 C   0  0  0  0  0  0  0  0  0  0  0  0
  184.6550  175.5460  136.7900 C   0  0  1  0  0  3  0  0  0  0  0  0
  183.7950  175.1050  137.9890 C   0  0  0  0  0  2  0  0  0  0  0  0
  183.8830  176.2570  134.5940 O   0  0  0  0  0  0  0  0  0  0  0  0
  182.2940  175.5410  136.2410 C   0  0  0  0  0  0  0  0  0  0  0  0
  182.3800  175.1460  137.5050 C   0  0  0  0  0  0  0  0  0  0  0  0
  181.0870  175.6670  135.4680 N   0  0  0  0  0  0  0  0  0  0  0  0
  180.5970  174.6110  134.7360 O   0  0  0  0  0  0  0  0  0  0  0  0
  180.4910  176.7610  135.4130 O   0  0  0  0  0  0  0  0  0  0  0  0
  181.2350  174.7780  138.3870 C   0  0  0  0  0  2  0  0  0  0  0  0
  180.5200  175.9120  138.7290 F   0  0  0  0  0  0  0  0  0  0  0  0
  1  6  1  0  0  0  0
  3  7  1  0  0  0  0
  4 18  1  6  0  0  0
  4 16  1  0  0  0  0
  5  6  1  0  0  0  0
  5 19  1  0  0  0  0
  7 11  2  0  0  0  0
  7  5  1  0  0  0  0
  9  8  1  1  0  0  0
  9 14  1  0  0  0  0
 10 19  2  0  0  0  0
 10  9  1  0  0  0  0
 11 10  1  0  0  0  0
 12 17  2  0  0  0  0
 13  3  1  0  0  0  0
 14 17  1  0  0  0  0
 14  2  1  0  0  0  0
 15 13  1  1  0  0  0
 15  4  1  0  0  0  0
 16 18  1  1  0  0  0
 16  1  1  0  0  0  0
 19 12  1  0  0  0  0
 20 13  1  0  0  0  0
 21 29  1  0  0  0  0
 21 25  1  1  0  0  0
 22 23  1  0  0  0  0
 23 25  1  0  0  0  0
 24 26  1  0  0  0  0
 26 22  2  0  0  0  0
 27 26  1  1  0  0  0
 27 15  1  0  0  0  0
 27 21  1  0  0  0  0
 28 32  1  0  0  0  0
 28 29  1  0  0  0  0
 29 30  1  1  0  0  0
 31 28  2  0  0  0  0
 32 33  2  0  0  0  0
 33 30  1  0  0  0  0
 33 37  1  0  0  0  0
 34 32  1  0  0  0  0
 35 34  2  0  0  0  0
 36 34  2  0  0  0  0
 37 38  1  0  0  0  0
M  END
>  <MODEL>
2

>  <REMARK>
 VINA RESULT:      -5.2      5.133      8.461
  Name = 
  4 active torsions:
  status: ('A' for Active; 'I' for Inactive)
    1  A    between atoms: N_1  and  C_32
    2  A    between atoms: C_2  and  C_22
    3  A    between atoms: C_12  and  C_34
    4  A    between atoms: C_29  and  C_38
                            x       y       z     vdW  Elec       q    Type
                         _______ _______ _______ _____ _____    ______ ____

>  <TORSDO>
F 4

$$$$
=
 OpenBabel10222416253D

 38 43  0  0  1  0  0  0  0  0999 V2000
  186.0050  178.6050  138.9620 C   0  0  0  0  0  2  0  0  0  0  0  0
  179.4240  175.6000  138.7870 O   0  0  0  0  0  1  0  0  0  0  0  0
  185.8490  177.2310  135.6310 C   0  0  0  0  0  2  0  0  0  0  0  0
  186.9650  176.5650  138.0910 N   0  0  2  0  0  0  0  0  0  0  0  0
  184.2170  177.8580  137.4450 N   0  0  0  0  0  0  0  0  0  0  0  0
  184.9270  179.0230  137.9680 C   0  0  0  0  0  2  0  0  0  0  0  0
  184.5840  177.0600  136.4150 C   0  0  0  0  0  0  0  0  0  0  0  0
  181.8690  174.0610  137.9540 C   0  0  0  0  0  1  0  0  0  0  0  0
  181.4730  175.4510  137.4840 C   0  0  2  0  0  3  0  0  0  0  0  0
  182.7020  176.2540  137.1820 C   0  0  0  0  0  0  0  0  0  0  0  0
  183.6630  176.0370  136.2080 C   0  0  0  0  0  3  0  0  0  0  0  0
  182.2550  177.8590  139.0160 C   0  0  0  0  0  3  0  0  0  0  0  0
  186.6910  176.0390  135.7400 N   0  0  0  0  0  0  0  0  0  0  0  0
  180.6490  176.1070  138.5180 N   0  0  0  0  0  0  0  0  0  0  0  0
  187.6470  176.1480  136.8640 C   0  0  2  0  0  3  0  0  0  0  0  0
  187.1860  178.0140  138.2180 C   0  0  2  0  0  3  0  0  0  0  0  0
  181.0980  177.2450  139.2850 C   0  0  0  0  0  3  0  0  0  0  0  0
  187.9460  177.1000  139.0530 C   0  0  0  0  0  2  0  0  0  0  0  0
  183.0660  177.3510  137.9100 C   0  0  0  0  0  0  0  0  0  0  0  0
  187.4160  176.0170  134.5960 O   0  0  0  0  0  1  0  0  0  0  0  0
  189.8010  174.6820  136.5540 C   0  0  2  0  0  3  0  0  0  0  0  0
  187.8470  172.6920  135.8790 C   0  0  0  0  0  3  0  0  0  0  0  0
  189.1780  172.7080  135.1840 C   0  0  0  0  0  2  0  0  0  0  0  0
  186.2660  173.4550  137.4320 O   0  0  0  0  0  1  0  0  0  0  0  0
  189.7710  174.1100  135.1370 C   0  0  0  0  0  2  0  0  0  0  0  0
  187.4910  173.6000  136.7940 C   0  0  0  0  0  0  0  0  0  0  0  0
  188.3640  174.7960  137.1240 C   0  0  2  0  0  3  0  0  0  0  0  0
  191.4240  175.9940  137.9210 C   0  0  0  0  0  0  0  0  0  0  0  0
  190.6190  175.9810  136.6660 C   0  0  1  0  0  3  0  0  0  0  0  0
  191.7060  176.0530  135.5780 C   0  0  0  0  0  2  0  0  0  0  0  0
  190.9340  175.9970  139.0800 O   0  0  0  0  0  0  0  0  0  0  0  0
  192.8430  176.0340  137.6290 C   0  0  0  0  0  0  0  0  0  0  0  0
  193.0090  176.0750  136.3130 C   0  0  0  0  0  0  0  0  0  0  0  0
  193.8870  176.0180  138.6190 N   0  0  0  0  0  0  0  0  0  0  0  0
  193.9440  176.9710  139.6090 O   0  0  0  0  0  0  0  0  0  0  0  0
  194.7910  175.1590  138.5610 O   0  0  0  0  0  0  0  0  0  0  0  0
  194.3170  176.1390  135.5970 C   0  0  0  0  0  2  0  0  0  0  0  0
  194.8270  177.4230  135.6640 F   0  0  0  0  0  0  0  0  0  0  0  0
  3 13  1  0  0  0  0
  3  7  1  0  0  0  0
  4 16  1  0  0  0  0
  4 18  1  1  0  0  0
  5 19  1  0  0  0  0
  5  6  1  0  0  0  0
  6  1  1  0  0  0  0
  7  5  1  0  0  0  0
  9  8  1  1  0  0  0
  9 14  1  0  0  0  0
 10  9  1  0  0  0  0
 10 19  2  0  0  0  0
 11  7  2  0  0  0  0
 11 10  1  0  0  0  0
 12 17  2  0  0  0  0
 14  2  1  0  0  0  0
 14 17  1  0  0  0  0
 15 13  1  6  0  0  0
 15 27  1  0  0  0  0
 15  4  1  0  0  0  0
 16  1  1  1  0  0  0
 16 18  1  0  0  0  0
 19 12  1  0  0  0  0
 20 13  1  0  0  0  0
 21 25  1  6  0  0  0
 21 29  1  0  0  0  0
 21 27  1  0  0  0  0
 22 26  2  0  0  0  0
 23 22  1  0  0  0  0
 25 23  1  0  0  0  0
 26 24  1  0  0  0  0
 27 26  1  6  0  0  0
 28 31  2  0  0  0  0
 29 30  1  6  0  0  0
 29 28  1  0  0  0  0
 30 33  1  0  0  0  0
 32 28  1  0  0  0  0
 32 34  1  0  0  0  0
 33 32  2  0  0  0  0
 34 35  2  0  0  0  0
 36 34  2  0  0  0  0
 37 38  1  0  0  0  0
 37 33  1  0  0  0  0
M  END
>  <MODEL>
3

>  <REMARK>
 VINA RESULT:      -4.6      2.258      3.354
  Name = 
  4 active torsions:
  status: ('A' for Active; 'I' for Inactive)
    1  A    between atoms: N_1  and  C_32
    2  A    between atoms: C_2  and  C_22
    3  A    between atoms: C_12  and  C_34
    4  A    between atoms: C_29  and  C_38
                            x       y       z     vdW  Elec       q    Type
                         _______ _______ _______ _____ _____    ______ ____

>  <TORSDO>
F 4

$$$$
=
 OpenBabel10222416253D

 38 43  0  0  1  0  0  0  0  0999 V2000
  189.2020  177.8850  140.6330 C   0  0  0  0  0  2  0  0  0  0  0  0
  182.1830  177.3410  138.9580 O   0  0  0  0  0  1  0  0  0  0  0  0
  189.2160  178.2260  137.0430 C   0  0  0  0  0  2  0  0  0  0  0  0
  189.7390  176.2520  138.9330 N   0  0  2  0  0  0  0  0  0  0  0  0
  187.5370  178.4410  138.9090 N   0  0  0  0  0  0  0  0  0  0  0  0
  188.4290  178.9920  139.9270 C   0  0  0  0  0  2  0  0  0  0  0  0
  187.8440  178.1080  137.6330 C   0  0  0  0  0  0  0  0  0  0  0  0
  184.2600  175.6820  137.5520 C   0  0  0  0  0  1  0  0  0  0  0  0
  184.3020  177.1850  137.7740 C   0  0  2  0  0  3  0  0  0  0  0  0
  185.7250  177.6390  137.9020 C   0  0  0  0  0  0  0  0  0  0  0  0
  186.7380  177.6000  136.9580 C   0  0  0  0  0  3  0  0  0  0  0  0
  185.4220  178.3280  140.2630 C   0  0  0  0  0  3  0  0  0  0  0  0
  189.7040  176.9190  136.6010 N   0  0  0  0  0  0  0  0  0  0  0  0
  183.5230  177.5300  138.9780 N   0  0  0  0  0  0  0  0  0  0  0  0
  190.4730  176.2370  137.6660 C   0  0  2  0  0  3  0  0  0  0  0  0
  190.2960  177.3630  139.7220 C   0  0  2  0  0  3  0  0  0  0  0  0
  184.1210  178.0280  140.1950 C   0  0  0  0  0  3  0  0  0  0  0  0
  190.6650  175.9970  140.0520 C   0  0  0  0  0  2  0  0  0  0  0  0
  186.2380  178.1440  139.0640 C   0  0  0  0  0  0  0  0  0  0  0  0
  190.5650  177.1890  135.5920 O   0  0  0  0  0  1  0  0  0  0  0  0
  192.1120  174.5340  136.5250 C   0  0  2  0  0  3  0  0  0  0  0  0
  189.6580  173.5630  135.4000 C   0  0  0  0  0  3  0  0  0  0  0  0
  190.9240  173.5240  134.5940 C   0  0  0  0  0  2  0  0  0  0  0  0
  188.3920  173.9940  137.3240 O   0  0  0  0  0  1  0  0  0  0  0  0
  191.8920  174.6220  135.0150 C   0  0  0  0  0  2  0  0  0  0  0  0
  189.5940  174.0720  136.6340 C   0  0  0  0  0  0  0  0  0  0  0  0
  190.7790  174.7640  137.2820 C   0  0  2  0  0  3  0  0  0  0  0  0
  194.4280  174.5860  137.4490 C   0  0  0  0  0  0  0  0  0  0  0  0
  193.2690  175.4200  137.0210 C   0  0  1  0  0  3  0  0  0  0  0  0
  193.8700  176.2500  135.8720 C   0  0  0  0  0  2  0  0  0  0  0  0
  194.4040  173.7760  138.4130 O   0  0  0  0  0  0  0  0  0  0  0  0
  195.5940  174.8530  136.6310 C   0  0  0  0  0  0  0  0  0  0  0  0
  195.2900  175.7940  135.7460 C   0  0  0  0  0  0  0  0  0  0  0  0
  196.8620  174.1870  136.7640 N   0  0  0  0  0  0  0  0  0  0  0  0
  197.1610  173.0700  136.0190 O   0  0  0  0  0  0  0  0  0  0  0  0
  197.6960  174.5900  137.6000 O   0  0  0  0  0  0  0  0  0  0  0  0
  196.2140  176.3680  134.7260 C   0  0  0  0  0  2  0  0  0  0  0  0
  196.8930  177.4480  135.2610 F   0  0  0  0  0  0  0  0  0  0  0  0
  2 14  1  0  0  0  0
  3  7  1  0  0  0  0
  4 16  1  0  0  0  0
  4 18  1  1  0  0  0
  5 19  1  0  0  0  0
  5  6  1  0  0  0  0
  6  1  1  0  0  0  0
  7  5  1  0  0  0  0
  9  8  1  1  0  0  0
  9 10  1  0  0  0  0
  9 14  1  0  0  0  0
 10 19  2  0  0  0  0
 11  7  2  0  0  0  0
 11 10  1  0  0  0  0
 13  3  1  0  0  0  0
 14 17  1  0  0  0  0
 15 13  1  6  0  0  0
 15  4  1  0  0  0  0
 16 18  1  1  0  0  0
 16  1  1  0  0  0  0
 17 12  2  0  0  0  0
 19 12  1  0  0  0  0
 20 13  1  0  0  0  0
 21 25  1  6  0  0  0
 21 29  1  0  0  0  0
 21 27  1  0  0  0  0
 22 26  2  0  0  0  0
 23 25  1  0  0  0  0
 23 22  1  0  0  0  0
 26 24  1  0  0  0  0
 27 26  1  6  0  0  0
 27 15  1  0  0  0  0
 28 31  2  0  0  0  0
 29 30  1  6  0  0  0
 29 28  1  0  0  0  0
 32 34  1  0  0  0  0
 32 28  1  0  0  0  0
 33 30  1  0  0  0  0
 33 32  2  0  0  0  0
 34 36  2  0  0  0  0
 35 34  2  0  0  0  0
 37 38  1  0  0  0  0
 37 33  1  0  0  0  0
M  END
>  <MODEL>
4

>  <REMARK>
 VINA RESULT:      -4.5      1.174      1.427
  Name = 
  4 active torsions:
  status: ('A' for Active; 'I' for Inactive)
    1  A    between atoms: N_1  and  C_32
    2  A    between atoms: C_2  and  C_22
    3  A    between atoms: C_12  and  C_34
    4  A    between atoms: C_29  and  C_38
                            x       y       z     vdW  Elec       q    Type
                         _______ _______ _______ _____ _____    ______ ____

>  <TORSDO>
F 4

$$$$
=
 OpenBabel10222416253D

 38 43  0  0  1  0  0  0  0  0999 V2000
  189.9700  177.4020  140.2570 C   0  0  0  0  0  2  0  0  0  0  0  0
  195.2560  176.0540  135.5020 O   0  0  0  0  0  1  0  0  0  0  0  0
  188.4920  174.9050  138.1150 C   0  0  0  0  0  2  0  0  0  0  0  0
  188.3970  177.6670  138.4410 N   0  0  2  0  0  0  0  0  0  0  0  0
  190.8110  175.7250  138.6640 N   0  0  0  0  0  0  0  0  0  0  0  0
  190.5940  176.0230  140.0780 C   0  0  0  0  0  2  0  0  0  0  0  0
  189.9170  175.2220  137.7790 C   0  0  0  0  0  0  0  0  0  0  0  0
  192.4590  176.6820  134.5950 C   0  0  0  0  0  1  0  0  0  0  0  0
  192.8600  175.6590  135.6440 C   0  0  2  0  0  3  0  0  0  0  0  0
  191.7770  175.5340  136.6720 C   0  0  0  0  0  0  0  0  0  0  0  0
  190.4770  175.0810  136.5130 C   0  0  0  0  0  3  0  0  0  0  0  0
  193.2140  176.4360  138.4780 C   0  0  0  0  0  3  0  0  0  0  0  0
  187.5770  175.6960  137.2900 N   0  0  0  0  0  0  0  0  0  0  0  0
  194.1380  176.0590  136.2640 N   0  0  0  0  0  0  0  0  0  0  0  0
  187.2080  176.9670  137.9510 C   0  0  2  0  0  3  0  0  0  0  0  0
  188.5040  177.3540  139.8740 C   0  0  2  0  0  3  0  0  0  0  0  0
  194.2520  176.4920  137.6370 C   0  0  0  0  0  3  0  0  0  0  0  0
  188.0120  178.6570  139.4620 C   0  0  0  0  0  2  0  0  0  0  0  0
  191.9430  175.9180  137.9720 C   0  0  0  0  0  0  0  0  0  0  0  0
  186.4530  174.9480  137.1990 O   0  0  0  0  0  1  0  0  0  0  0  0
  184.9040  177.9630  137.1840 C   0  0  2  0  0  3  0  0  0  0  0  0
  185.9650  177.3330  134.5940 C   0  0  0  0  0  3  0  0  0  0  0  0
  184.4930  177.2030  134.8570 C   0  0  0  0  0  2  0  0  0  0  0  0
  188.1750  177.8620  135.1680 O   0  0  0  0  0  1  0  0  0  0  0  0
  184.2080  176.9080  136.3240 C   0  0  0  0  0  2  0  0  0  0  0  0
  186.8440  177.6990  135.5320 C   0  0  0  0  0  0  0  0  0  0  0  0
  186.4400  177.9030  136.9800 C   0  0  2  0  0  3  0  0  0  0  0  0
  183.6960  179.1430  139.0190 C   0  0  0  0  0  0  0  0  0  0  0  0
  184.4720  177.9220  138.6610 C   0  0  1  0  0  3  0  0  0  0  0  0
  183.4500  176.7990  138.9130 C   0  0  0  0  0  2  0  0  0  0  0  0
  184.1650  180.3120  139.0080 O   0  0  0  0  0  0  0  0  0  0  0  0
  182.3430  178.8050  139.4130 C   0  0  0  0  0  0  0  0  0  0  0  0
  182.1990  177.4870  139.3630 C   0  0  0  0  0  0  0  0  0  0  0  0
  181.3310  179.7590  139.7820 N   0  0  0  0  0  0  0  0  0  0  0  0
  180.9080  179.8800  141.0850 O   0  0  0  0  0  0  0  0  0  0  0  0
  180.7830  180.4590  138.9060 O   0  0  0  0  0  0  0  0  0  0  0  0
  180.9620  176.7270  139.7060 C   0  0  0  0  0  2  0  0  0  0  0  0
  181.2140  175.3680  139.6530 F   0  0  0  0  0  0  0  0  0  0  0  0
  2 14  1  0  0  0  0
  4 18  1  1  0  0  0
  4 16  1  0  0  0  0
  5  6  1  0  0  0  0
  6  1  1  0  0  0  0
  7  3  1  0  0  0  0
  7  5  1  0  0  0  0
  9  8  1  6  0  0  0
  9 14  1  0  0  0  0
  9 10  1  0  0  0  0
 10 19  2  0  0  0  0
 11 10  1  0  0  0  0
 11  7  2  0  0  0  0
 13  3  1  0  0  0  0
 14 17  1  0  0  0  0
 15 13  1  6  0  0  0
 15  4  1  0  0  0  0
 16 18  1  1  0  0  0
 16  1  1  0  0  0  0
 17 12  2  0  0  0  0
 19 12  1  0  0  0  0
 19  5  1  0  0  0  0
 20 13  1  0  0  0  0
 21 25  1  6  0  0  0
 21 29  1  0  0  0  0
 22 23  1  0  0  0  0
 22 26  2  0  0  0  0
 23 25  1  0  0  0  0
 24 26  1  0  0  0  0
 27 26  1  6  0  0  0
 27 21  1  0  0  0  0
 27 15  1  0  0  0  0
 28 32  1  0  0  0  0
 29 30  1  6  0  0  0
 29 28  1  0  0  0  0
 30 33  1  0  0  0  0
 31 28  2  0  0  0  0
 32 34  1  0  0  0  0
 33 32  2  0  0  0  0
 33 37  1  0  0  0  0
 34 35  2  0  0  0  0
 36 34  2  0  0  0  0
 38 37  1  0  0  0  0
M  END
>  <MODEL>
5

>  <REMARK>
 VINA RESULT:      -4.2      3.564      9.769
  Name = 
  4 active torsions:
  status: ('A' for Active; 'I' for Inactive)
    1  A    between atoms: N_1  and  C_32
    2  A    between atoms: C_2  and  C_22
    3  A    between atoms: C_12  and  C_34
    4  A    between atoms: C_29  and  C_38
                            x       y       z     vdW  Elec       q    Type
                         _______ _______ _______ _____ _____    ______ ____

>  <TORSDO>
F 4

$$$$
=
 OpenBabel10222416253D

 38 43  0  0  1  0  0  0  0  0999 V2000
  187.5970  174.2550  136.5480 C   0  0  0  0  0  2  0  0  0  0  0  0
  189.0920  178.6470  142.1010 O   0  0  0  0  0  1  0  0  0  0  0  0
  186.1780  177.3930  135.4800 C   0  0  0  0  0  2  0  0  0  0  0  0
  185.2960  174.9930  136.5770 N   0  0  2  0  0  0  0  0  0  0  0  0
  187.8740  176.6180  137.1750 N   0  0  0  0  0  0  0  0  0  0  0  0
  188.4440  175.5140  136.4060 C   0  0  0  0  0  2  0  0  0  0  0  0
  186.8910  177.4690  136.7950 C   0  0  0  0  0  0  0  0  0  0  0  0
  186.3130  178.4430  140.9720 C   0  0  0  0  0  1  0  0  0  0  0  0
  187.5940  178.6640  140.1850 C   0  0  2  0  0  3  0  0  0  0  0  0
  187.4640  178.0510  138.8240 C   0  0  0  0  0  0  0  0  0  0  0  0
  186.5990  178.3910  137.7970 C   0  0  0  0  0  3  0  0  0  0  0  0
  189.2370  176.3780  139.2730 C   0  0  0  0  0  3  0  0  0  0  0  0
  184.7440  177.1780  135.6800 N   0  0  0  0  0  0  0  0  0  0  0  0
  188.7340  178.0870  140.9230 N   0  0  0  0  0  0  0  0  0  0  0  0
  184.4050  175.7380  135.6840 C   0  0  2  0  0  3  0  0  0  0  0  0
  186.3330  174.3920  135.7230 C   0  0  2  0  0  3  0  0  0  0  0  0
  189.4690  176.9300  140.4680 C   0  0  0  0  0  3  0  0  0  0  0  0
  185.2600  173.5590  136.2390 C   0  0  0  0  0  2  0  0  0  0  0  0
  188.2120  176.9810  138.4210 C   0  0  0  0  0  0  0  0  0  0  0  0
  184.1530  177.7280  134.5940 O   0  0  0  0  0  1  0  0  0  0  0  0
  182.5840  176.0320  137.5500 C   0  0  2  0  0  3  0  0  0  0  0  0
  182.0470  173.2950  136.8750 C   0  0  0  0  0  3  0  0  0  0  0  0
  181.8950  173.7650  138.2930 C   0  0  0  0  0  2  0  0  0  0  0  0
  182.5010  173.5770  134.5940 O   0  0  0  0  0  1  0  0  0  0  0  0
  182.8150  174.9410  138.5960 C   0  0  0  0  0  2  0  0  0  0  0  0
  182.4660  174.0880  135.8850 C   0  0  0  0  0  0  0  0  0  0  0  0
  182.9370  175.5080  136.1350 C   0  0  2  0  0  3  0  0  0  0  0  0
  182.3170  178.5050  137.7280 C   0  0  0  0  0  0  0  0  0  0  0  0
  183.2620  177.3660  137.9070 C   0  0  1  0  0  3  0  0  0  0  0  0
  183.5890  177.4440  139.4100 C   0  0  0  0  0  2  0  0  0  0  0  0
  181.8210  178.8510  136.6240 O   0  0  0  0  0  0  0  0  0  0  0  0
  182.0680  179.1790  138.9870 C   0  0  0  0  0  0  0  0  0  0  0  0
  182.7860  178.5920  139.9370 C   0  0  0  0  0  0  0  0  0  0  0  0
  181.1750  180.2930  139.1620 N   0  0  0  0  0  0  0  0  0  0  0  0
  179.8850  180.1090  139.6000 O   0  0  0  0  0  0  0  0  0  0  0  0
  181.5480  181.4460  138.8660 O   0  0  0  0  0  0  0  0  0  0  0  0
  182.8290  178.9890  141.3740 C   0  0  0  0  0  2  0  0  0  0  0  0
  181.6890  178.5450  142.0190 F   0  0  0  0  0  0  0  0  0  0  0  0
  3 13  1  0  0  0  0
  3  7  1  0  0  0  0
  4 18  1  6  0  0  0
  5 19  1  0  0  0  0
  6  1  1  0  0  0  0
  6  5  1  0  0  0  0
  7  5  1  0  0  0  0
  7 11  2  0  0  0  0
  9 14  1  0  0  0  0
  9  8  1  1  0  0  0
 10  9  1  0  0  0  0
 11 10  1  0  0  0  0
 12 17  2  0  0  0  0
 14  2  1  0  0  0  0
 15 13  1  1  0  0  0
 15 27  1  0  0  0  0
 15  4  1  0  0  0  0
 16 18  1  1  0  0  0
 16  1  1  0  0  0  0
 16  4  1  0  0  0  0
 17 14  1  0  0  0  0
 19 10  2  0  0  0  0
 19 12  1  0  0  0  0
 20 13  1  0  0  0  0
 21 29  1  0  0  0  0
 21 25  1  1  0  0  0
 22 23  1  0  0  0  0
 23 25  1  0  0  0  0
 24 26  1  0  0  0  0
 26 22  2  0  0  0  0
 27 26  1  1  0  0  0
 27 21  1  0  0  0  0
 28 29  1  0  0  0  0
 28 32  1  0  0  0  0
 29 30  1  1  0  0  0
 30 33  1  0  0  0  0
 31 28  2  0  0  0  0
 32 34  1  0  0  0  0
 32 33  2  0  0  0  0
 33 37  1  0  0  0  0
 34 35  2  0  0  0  0
 36 34  2  0  0  0  0
 37 38  1  0  0  0  0
M  END
>  <MODEL>
6

>  <REMARK>
 VINA RESULT:      -3.7      5.647      9.816
  Name = 
  4 active torsions:
  status: ('A' for Active; 'I' for Inactive)
    1  A    between atoms: N_1  and  C_32
    2  A    between atoms: C_2  and  C_22
    3  A    between atoms: C_12  and  C_34
    4  A    between atoms: C_29  and  C_38
                            x       y       z     vdW  Elec       q    Type
                         _______ _______ _______ _____ _____    ______ ____

>  <TORSDO>
F 4

$$$$
=
 OpenBabel10222416253D

 38 43  0  0  1  0  0  0  0  0999 V2000
  185.9510  177.9810  134.5940 C   0  0  0  0  0  2  0  0  0  0  0  0
  179.9800  178.5290  138.6460 O   0  0  0  0  0  1  0  0  0  0  0  0
  186.3940  175.3490  137.0190 C   0  0  0  0  0  2  0  0  0  0  0  0
  187.3090  177.9420  136.5920 N   0  0  2  0  0  0  0  0  0  0  0  0
  184.4870  176.7330  136.1280 N   0  0  0  0  0  0  0  0  0  0  0  0
  184.9430  176.8480  134.7450 C   0  0  0  0  0  2  0  0  0  0  0  0
  185.0900  176.0740  137.1460 C   0  0  0  0  0  0  0  0  0  0  0  0
  182.7140  178.4270  139.8940 C   0  0  0  0  0  1  0  0  0  0  0  0
  182.1630  177.4750  138.8450 C   0  0  2  0  0  3  0  0  0  0  0  0
  183.2790  176.9750  137.9780 C   0  0  0  0  0  0  0  0  0  0  0  0
  184.3680  176.1930  138.3300 C   0  0  0  0  0  3  0  0  0  0  0  0
  182.3810  178.0950  135.9590 C   0  0  0  0  0  3  0  0  0  0  0  0
  187.3930  175.9170  137.9250 N   0  0  0  0  0  0  0  0  0  0  0  0
  181.1350  178.1640  138.0420 N   0  0  0  0  0  0  0  0  0  0  0  0
  188.1840  176.9790  137.2670 C   0  0  2  0  0  3  0  0  0  0  0  0
  187.2870  177.5580  135.1720 C   0  0  2  0  0  3  0  0  0  0  0  0
  181.3110  178.5020  136.6490 C   0  0  0  0  0  3  0  0  0  0  0  0
  188.0780  178.7030  135.5910 C   0  0  0  0  0  2  0  0  0  0  0  0
  183.3830  177.2860  136.6520 C   0  0  0  0  0  0  0  0  0  0  0  0
  188.2390  174.8960  138.1990 O   0  0  0  0  0  1  0  0  0  0  0  0
  190.5240  177.2260  138.4290 C   0  0  2  0  0  3  0  0  0  0  0  0
  188.8750  177.4510  140.7670 C   0  0  0  0  0  3  0  0  0  0  0  0
  190.2130  176.7740  140.8500 C   0  0  0  0  0  2  0  0  0  0  0  0
  187.1600  178.6100  139.6690 O   0  0  0  0  0  1  0  0  0  0  0  0
  190.6150  176.1560  139.5170 C   0  0  0  0  0  2  0  0  0  0  0  0
  188.3740  177.9360  139.6270 C   0  0  0  0  0  0  0  0  0  0  0  0
  189.0680  177.7390  138.2930 C   0  0  2  0  0  3  0  0  0  0  0  0
  192.5740  176.3720  137.2940 C   0  0  0  0  0  0  0  0  0  0  0  0
  191.1560  176.7890  137.0960 C   0  0  1  0  0  3  0  0  0  0  0  0
  190.5070  175.4980  136.5650 C   0  0  0  0  0  2  0  0  0  0  0  0
  193.4940  177.1410  137.6790 O   0  0  0  0  0  0  0  0  0  0  0  0
  192.7590  174.9760  136.9540 C   0  0  0  0  0  0  0  0  0  0  0  0
  191.6020  174.4790  136.5360 C   0  0  0  0  0  0  0  0  0  0  0  0
  194.0010  174.2580  137.0710 N   0  0  0  0  0  0  0  0  0  0  0  0
  194.7060  173.8700  135.9560 O   0  0  0  0  0  0  0  0  0  0  0  0
  194.4320  173.9330  138.1960 O   0  0  0  0  0  0  0  0  0  0  0  0
  191.3640  173.0790  136.0770 C   0  0  0  0  0  2  0  0  0  0  0  0
  190.0350  172.7420  136.2640 F   0  0  0  0  0  0  0  0  0  0  0  0
  1  6  1  0  0  0  0
  3  7  1  0  0  0  0
  3 13  1  0  0  0  0
  4 18  1  6  0  0  0
  4 15  1  0  0  0  0
  5 19  1  0  0  0  0
  5  7  1  0  0  0  0
  6  5  1  0  0  0  0
  7 11  2  0  0  0  0
  9  8  1  1  0  0  0
 10 11  1  0  0  0  0
 10  9  1  0  0  0  0
 12 17  2  0  0  0  0
 12 19  1  0  0  0  0
 13 20  1  0  0  0  0
 14  2  1  0  0  0  0
 14  9  1  0  0  0  0
 15 13  1  1  0  0  0
 15 27  1  0  0  0  0
 16  1  1  6  0  0  0
 16 18  1  0  0  0  0
 16  4  1  0  0  0  0
 17 14  1  0  0  0  0
 19 10  2  0  0  0  0
 21 25  1  1  0  0  0
 22 23  1  0  0  0  0
 25 23  1  0  0  0  0
 26 24  1  0  0  0  0
 26 22  2  0  0  0  0
 27 21  1  0  0  0  0
 27 26  1  1  0  0  0
 28 31  2  0  0  0  0
 29 30  1  1  0  0  0
 29 28  1  0  0  0  0
 29 21  1  0  0  0  0
 32 34  1  0  0  0  0
 32 28  1  0  0  0  0
 33 30  1  0  0  0  0
 33 32  2  0  0  0  0
 34 36  2  0  0  0  0
 35 34  2  0  0  0  0
 37 38  1  0  0  0  0
 37 33  1  0  0  0  0
M  END
>  <MODEL>
7

>  <REMARK>
 VINA RESULT:      -3.6      2.559      4.603
  Name = 
  4 active torsions:
  status: ('A' for Active; 'I' for Inactive)
    1  A    between atoms: N_1  and  C_32
    2  A    between atoms: C_2  and  C_22
    3  A    between atoms: C_12  and  C_34
    4  A    between atoms: C_29  and  C_38
                            x       y       z     vdW  Elec       q    Type
                         _______ _______ _______ _____ _____    ______ ____

>  <TORSDO>
F 4

$$$$
