=
 OpenBabel10222417263D

 28 32  0  0  1  0  0  0  0  0999 V2000
  182.8650  178.7390  143.6040 C   0  0  0  0  0  0  0  0  0  0  0  0
  183.1820  179.1820  141.0570 C   0  0  2  0  0  3  0  0  0  0  0  0
  183.7270  178.5190  142.3450 C   0  0  1  0  0  3  0  0  0  0  0  0
  185.2160  178.8510  142.4830 C   0  0  2  0  0  3  0  0  0  0  0  0
  180.5110  178.5950  142.6860 C   0  0  0  0  0  3  0  0  0  0  0  0
  184.6760  179.1400  145.4080 C   0  0  0  0  0  3  0  0  0  0  0  0
  183.3180  178.9860  144.8470 C   0  0  0  0  0  3  0  0  0  0  0  0
  180.7500  179.3060  141.4030 C   0  0  0  0  0  2  0  0  0  0  0  0
  185.8160  178.7280  144.8650 C   0  0  0  0  0  3  0  0  0  0  0  0
  185.8790  178.0180  143.5630 C   0  0  2  0  0  3  0  0  0  0  0  0
  181.8420  178.6170  140.6260 C   0  0  0  0  0  2  0  0  0  0  0  0
  185.4360  180.2140  142.6320 F   0  0  0  0  0  0  0  0  0  0  0  0
  181.4290  178.3930  143.6290 C   0  0  0  0  0  3  0  0  0  0  0  0
  184.1110  179.0600  139.9530 N   0  0  0  0  0  0  0  0  0  0  0  0
  184.4400  180.0150  139.3150 O   0  0  0  0  0  0  0  0  0  0  0  0
  187.2750  177.7550  143.2140 N   0  0  0  0  0  2  0  0  0  0  0  0
  189.6720  176.6080  142.2360 C   0  0  0  0  0  2  0  0  0  0  0  0
  191.0580  176.4900  142.0810 O   0  0  0  0  0  0  0  0  0  0  0  0
  191.4200  177.8010  144.1590 C   0  0  2  0  0  3  0  0  0  0  0  0
  190.1970  177.0260  144.6790 C   0  0  1  0  0  0  0  0  0  0  0  0
  187.8870  176.7440  144.0970 C   0  0  2  0  0  3  0  0  0  0  0  0
  187.9750  177.2260  145.5520 C   0  0  0  0  0  2  0  0  0  0  0  0
  192.0140  175.3620  144.2970 O   0  0  0  0  0  1  0  0  0  0  0  0
  189.4120  177.6690  145.7980 C   0  0  0  0  0  2  0  0  0  0  0  0
  189.3010  176.3030  143.6880 C   0  0  1  0  0  3  0  0  0  0  0  0
  192.0690  176.6870  146.2710 O   0  0  0  0  0  1  0  0  0  0  0  0
  191.6200  177.6580  142.6280 C   0  0  0  0  0  2  0  0  0  0  0  0
  191.5950  176.5120  144.9710 C   0  0  0  0  0  0  0  0  0  0  0  0
  1 13  1  0  0  0  0
  1  7  2  0  0  0  0
  2 14  1  6  0  0  0
  2  3  1  0  0  0  0
  3  4  1  0  0  0  0
  3  1  1  1  0  0  0
  4 12  1  1  0  0  0
  4 10  1  0  0  0  0
  5 13  2  0  0  0  0
  7  6  1  0  0  0  0
  8  5  1  0  0  0  0
  9  6  2  0  0  0  0
 10 16  1  6  0  0  0
 10  9  1  0  0  0  0
 11  2  1  0  0  0  0
 11  8  1  0  0  0  0
 15 14  2  0  0  0  0
 18 17  1  0  0  0  0
 18 27  1  0  0  0  0
 19 27  1  6  0  0  0
 19 20  1  0  0  0  0
 19 28  1  0  0  0  0
 20 28  1  0  0  0  0
 20 24  1  1  0  0  0
 21 16  1  6  0  0  0
 21 22  1  0  0  0  0
 22 24  1  0  0  0  0
 23 28  1  0  0  0  0
 25 17  1  6  0  0  0
 25 21  1  0  0  0  0
 25 20  1  0  0  0  0
 28 26  1  0  0  0  0
M  END
>  <MODEL>
1

>  <REMARK>
 VINA RESULT:     -10.5      0.000      0.000
  Name = 
  3 active torsions:
  status: ('A' for Active; 'I' for Inactive)
    1  A    between atoms: C_4  and  N_9
    2  A    between atoms: C_11  and  N_12
    3  A    between atoms: N_12  and  C_24
                            x       y       z     vdW  Elec       q    Type
                         _______ _______ _______ _____ _____    ______ ____

>  <TORSDO>
F 3

$$$$
=
 OpenBabel10222417263D

 28 32  0  0  1  0  0  0  0  0999 V2000
  187.1210  177.9750  145.5160 C   0  0  0  0  0  0  0  0  0  0  0  0
  189.4980  176.9890  145.9210 C   0  0  2  0  0  3  0  0  0  0  0  0
  188.5800  177.8610  145.0310 C   0  0  1  0  0  3  0  0  0  0  0  0
  188.7710  177.4510  143.5670 C   0  0  2  0  0  3  0  0  0  0  0  0
  187.3900  178.1060  148.0290 C   0  0  0  0  0  3  0  0  0  0  0  0
  185.8190  177.8200  143.2860 C   0  0  0  0  0  3  0  0  0  0  0  0
  186.0200  177.9590  144.7430 C   0  0  0  0  0  3  0  0  0  0  0  0
  188.5000  177.1280  148.1650 C   0  0  0  0  0  2  0  0  0  0  0  0
  186.7220  178.0200  142.3320 C   0  0  0  0  0  3  0  0  0  0  0  0
  188.1180  178.4370  142.6180 C   0  0  2  0  0  3  0  0  0  0  0  0
  189.6710  177.5530  147.3180 C   0  0  0  0  0  2  0  0  0  0  0  0
  188.3870  176.1360  143.3380 F   0  0  0  0  0  0  0  0  0  0  0  0
  186.7930  178.4290  146.8840 C   0  0  0  0  0  3  0  0  0  0  0  0
  190.8060  176.8060  145.3300 N   0  0  0  0  0  0  0  0  0  0  0  0
  191.7960  177.1480  145.9050 O   0  0  0  0  0  0  0  0  0  0  0  0
  188.8730  178.5130  141.3680 N   0  0  0  0  0  2  0  0  0  0  0  0
  187.4110  178.3060  138.9520 C   0  0  0  0  0  2  0  0  0  0  0  0
  187.2220  178.3720  137.5670 O   0  0  0  0  0  0  0  0  0  0  0  0
  189.6720  178.1730  137.2060 C   0  0  2  0  0  3  0  0  0  0  0  0
  189.6100  177.1850  138.3840 C   0  0  1  0  0  0  0  0  0  0  0  0
  188.9660  177.2050  140.6940 C   0  0  2  0  0  3  0  0  0  0  0  0
  190.4160  176.7110  140.5890 C   0  0  0  0  0  2  0  0  0  0  0  0
  188.3060  176.1790  136.5110 O   0  0  0  0  0  1  0  0  0  0  0  0
  190.8870  176.9810  139.1650 C   0  0  0  0  0  2  0  0  0  0  0  0
  188.3800  177.1680  139.2750 C   0  0  1  0  0  3  0  0  0  0  0  0
  190.6800  176.0390  136.4600 O   0  0  0  0  0  1  0  0  0  0  0  0
  188.3680  178.9950  137.0380 C   0  0  0  0  0  2  0  0  0  0  0  0
  189.5370  176.6650  136.9600 C   0  0  0  0  0  0  0  0  0  0  0  0
  1 13  1  0  0  0  0
  2 14  1  6  0  0  0
  2 11  1  0  0  0  0
  3  1  1  1  0  0  0
  3  2  1  0  0  0  0
  4 12  1  1  0  0  0
  4  3  1  0  0  0  0
  5  8  1  0  0  0  0
  6  7  1  0  0  0  0
  7  1  2  0  0  0  0
  9 10  1  0  0  0  0
  9  6  2  0  0  0  0
 10 16  1  6  0  0  0
 10  4  1  0  0  0  0
 11  8  1  0  0  0  0
 13  5  2  0  0  0  0
 14 15  2  0  0  0  0
 18 17  1  0  0  0  0
 19 27  1  1  0  0  0
 19 20  1  0  0  0  0
 20 24  1  1  0  0  0
 20 25  1  0  0  0  0
 21 16  1  6  0  0  0
 22 21  1  0  0  0  0
 23 28  1  0  0  0  0
 24 22  1  0  0  0  0
 25 17  1  6  0  0  0
 25 21  1  0  0  0  0
 26 28  1  0  0  0  0
 27 18  1  0  0  0  0
 28 19  1  0  0  0  0
 28 20  1  0  0  0  0
M  END
>  <MODEL>
2

>  <REMARK>
 VINA RESULT:      -9.9      3.371      6.718
  Name = 
  3 active torsions:
  status: ('A' for Active; 'I' for Inactive)
    1  A    between atoms: C_4  and  N_9
    2  A    between atoms: C_11  and  N_12
    3  A    between atoms: N_12  and  C_24
                            x       y       z     vdW  Elec       q    Type
                         _______ _______ _______ _____ _____    ______ ____

>  <TORSDO>
F 3

$$$$
=
 OpenBabel10222417263D

 28 32  0  0  1  0  0  0  0  0999 V2000
  183.2400  178.3810  142.1590 C   0  0  0  0  0  0  0  0  0  0  0  0
  185.0030  178.8700  140.3050 C   0  0  2  0  0  3  0  0  0  0  0  0
  184.7250  178.3760  141.7460 C   0  0  1  0  0  3  0  0  0  0  0  0
  185.6920  179.0760  142.7060 C   0  0  2  0  0  3  0  0  0  0  0  0
  182.0800  177.6380  140.0360 C   0  0  0  0  0  3  0  0  0  0  0  0
  183.3830  179.2420  144.5950 C   0  0  0  0  0  3  0  0  0  0  0  0
  182.7480  178.7440  143.3580 C   0  0  0  0  0  3  0  0  0  0  0  0
  182.9340  178.3760  139.0700 C   0  0  0  0  0  2  0  0  0  0  0  0
  184.6610  179.1280  144.9380 C   0  0  0  0  0  3  0  0  0  0  0  0
  185.6680  178.4470  144.0850 C   0  0  2  0  0  3  0  0  0  0  0  0
  184.3770  177.9800  139.2480 C   0  0  0  0  0  2  0  0  0  0  0  0
  185.5020  180.4510  142.7290 F   0  0  0  0  0  0  0  0  0  0  0  0
  182.2120  177.6820  141.3600 C   0  0  0  0  0  3  0  0  0  0  0  0
  186.4210  178.9790  140.0360 N   0  0  0  0  0  0  0  0  0  0  0  0
  186.9270  178.3770  139.1370 O   0  0  0  0  0  0  0  0  0  0  0  0
  186.9870  178.5430  144.7090 N   0  0  0  0  0  2  0  0  0  0  0  0
  189.0170  177.7780  142.8890 C   0  0  0  0  0  2  0  0  0  0  0  0
  190.3310  177.6520  142.4240 O   0  0  0  0  0  0  0  0  0  0  0  0
  191.1930  177.9260  144.7380 C   0  0  2  0  0  3  0  0  0  0  0  0
  189.9700  177.0800  145.1300 C   0  0  1  0  0  0  0  0  0  0  0  0
  187.5810  177.2170  144.9610 C   0  0  2  0  0  3  0  0  0  0  0  0
  187.9620  177.0250  146.4350 C   0  0  0  0  0  2  0  0  0  0  0  0
  191.4530  175.6300  143.7460 O   0  0  0  0  0  1  0  0  0  0  0  0
  189.4680  177.2300  146.5470 C   0  0  0  0  0  2  0  0  0  0  0  0
  188.8370  176.9060  144.1330 C   0  0  1  0  0  3  0  0  0  0  0  0
  192.0010  175.9800  146.0340 O   0  0  0  0  0  1  0  0  0  0  0  0
  191.1300  178.4380  143.2760 C   0  0  0  0  0  2  0  0  0  0  0  0
  191.3090  176.4050  144.8990 C   0  0  0  0  0  0  0  0  0  0  0  0
  1  7  2  0  0  0  0
  2 14  1  6  0  0  0
  2  3  1  0  0  0  0
  3  1  1  1  0  0  0
  3  4  1  0  0  0  0
  4 12  1  1  0  0  0
  4 10  1  0  0  0  0
  5 13  2  0  0  0  0
  6  9  2  0  0  0  0
  7  6  1  0  0  0  0
  8 11  1  0  0  0  0
  8  5  1  0  0  0  0
 10 16  1  1  0  0  0
 10  9  1  0  0  0  0
 11  2  1  0  0  0  0
 13  1  1  0  0  0  0
 15 14  2  0  0  0  0
 18 17  1  0  0  0  0
 18 27  1  0  0  0  0
 19 27  1  6  0  0  0
 19 28  1  0  0  0  0
 19 20  1  0  0  0  0
 20 24  1  1  0  0  0
 21 16  1  1  0  0  0
 21 22  1  0  0  0  0
 22 24  1  0  0  0  0
 23 28  1  0  0  0  0
 25 17  1  6  0  0  0
 25 21  1  0  0  0  0
 25 20  1  0  0  0  0
 28 20  1  0  0  0  0
 28 26  1  0  0  0  0
M  END
>  <MODEL>
3

>  <REMARK>
 VINA RESULT:      -9.6      1.294      1.686
  Name = 
  3 active torsions:
  status: ('A' for Active; 'I' for Inactive)
    1  A    between atoms: C_4  and  N_9
    2  A    between atoms: C_11  and  N_12
    3  A    between atoms: N_12  and  C_24
                            x       y       z     vdW  Elec       q    Type
                         _______ _______ _______ _____ _____    ______ ____

>  <TORSDO>
F 3

$$$$
=
 OpenBabel10222417263D

 28 32  0  0  1  0  0  0  0  0999 V2000
  186.7190  178.2560  146.7260 C   0  0  0  0  0  0  0  0  0  0  0  0
  188.4350  177.1510  145.1080 C   0  0  2  0  0  3  0  0  0  0  0  0
  187.3270  178.2140  145.3110 C   0  0  1  0  0  3  0  0  0  0  0  0
  186.3290  178.1190  144.1530 C   0  0  2  0  0  3  0  0  0  0  0  0
  188.7350  177.8450  148.2000 C   0  0  0  0  0  3  0  0  0  0  0  0
  184.2100  178.6070  146.2020 C   0  0  0  0  0  3  0  0  0  0  0  0
  185.4190  178.4290  147.0310 C   0  0  0  0  0  3  0  0  0  0  0  0
  189.4090  176.8350  147.3440 C   0  0  0  0  0  2  0  0  0  0  0  0
  184.1620  178.9840  144.9290 C   0  0  0  0  0  3  0  0  0  0  0  0
  185.3770  179.2980  144.1340 C   0  0  2  0  0  3  0  0  0  0  0  0
  189.6560  177.4020  145.9710 C   0  0  0  0  0  2  0  0  0  0  0  0
  185.6800  176.8910  144.1210 F   0  0  0  0  0  0  0  0  0  0  0  0
  187.5640  178.4170  147.9280 C   0  0  0  0  0  3  0  0  0  0  0  0
  188.8550  177.0670  143.7250 N   0  0  0  0  0  0  0  0  0  0  0  0
  189.1070  176.0150  143.2200 O   0  0  0  0  0  0  0  0  0  0  0  0
  184.9950  179.6200  142.7600 N   0  0  0  0  0  2  0  0  0  0  0  0
  182.4810  178.6230  141.9190 C   0  0  0  0  0  2  0  0  0  0  0  0
  181.3790  178.5010  141.0660 O   0  0  0  0  0  0  0  0  0  0  0  0
  182.7290  179.3740  139.1710 C   0  0  2  0  0  3  0  0  0  0  0  0
  183.8630  178.5440  139.7970 C   0  0  1  0  0  0  0  0  0  0  0  0
  185.0560  178.4420  141.8750 C   0  0  2  0  0  3  0  0  0  0  0  0
  186.0660  178.6280  140.7340 C   0  0  0  0  0  2  0  0  0  0  0  0
  182.1130  176.9390  139.0360 O   0  0  0  0  0  1  0  0  0  0  0  0
  185.2750  178.9770  139.4790 C   0  0  0  0  0  2  0  0  0  0  0  0
  183.7200  178.0510  141.2270 C   0  0  1  0  0  3  0  0  0  0  0  0
  183.6090  177.8530  137.4280 O   0  0  0  0  0  1  0  0  0  0  0  0
  181.5030  179.5260  140.1080 C   0  0  0  0  0  2  0  0  0  0  0  0
  183.0160  177.9460  138.6890 C   0  0  0  0  0  0  0  0  0  0  0  0
  1  7  2  0  0  0  0
  1 13  1  0  0  0  0
  2 14  1  6  0  0  0
  2  3  1  0  0  0  0
  2 11  1  0  0  0  0
  3  1  1  1  0  0  0
  4 12  1  1  0  0  0
  4  3  1  0  0  0  0
  6  7  1  0  0  0  0
  8  5  1  0  0  0  0
  9  6  2  0  0  0  0
 10 16  1  6  0  0  0
 10  4  1  0  0  0  0
 10  9  1  0  0  0  0
 11  8  1  0  0  0  0
 13  5  2  0  0  0  0
 15 14  2  0  0  0  0
 18 17  1  0  0  0  0
 19 20  1  0  0  0  0
 19 27  1  1  0  0  0
 20 24  1  6  0  0  0
 20 25  1  0  0  0  0
 21 16  1  6  0  0  0
 22 21  1  0  0  0  0
 24 22  1  0  0  0  0
 25 21  1  0  0  0  0
 25 17  1  1  0  0  0
 26 28  1  0  0  0  0
 27 18  1  0  0  0  0
 28 23  1  0  0  0  0
 28 19  1  0  0  0  0
 28 20  1  0  0  0  0
M  END
>  <MODEL>
4

>  <REMARK>
 VINA RESULT:      -9.4      2.194      7.482
  Name = 
  3 active torsions:
  status: ('A' for Active; 'I' for Inactive)
    1  A    between atoms: C_4  and  N_9
    2  A    between atoms: C_11  and  N_12
    3  A    between atoms: N_12  and  C_24
                            x       y       z     vdW  Elec       q    Type
                         _______ _______ _______ _____ _____    ______ ____

>  <TORSDO>
F 3

$$$$
=
 OpenBabel10222417263D

 28 32  0  0  1  0  0  0  0  0999 V2000
  183.0010  178.7700  143.8850 C   0  0  0  0  0  0  0  0  0  0  0  0
  183.4020  179.0020  141.3220 C   0  0  2  0  0  3  0  0  0  0  0  0
  183.8060  178.3180  142.6500 C   0  0  1  0  0  3  0  0  0  0  0  0
  185.3310  178.3610  142.7890 C   0  0  2  0  0  3  0  0  0  0  0  0
  180.6650  179.0360  142.9480 C   0  0  0  0  0  3  0  0  0  0  0  0
  184.8530  178.9100  145.6870 C   0  0  0  0  0  3  0  0  0  0  0  0
  183.4920  178.9910  145.1190 C   0  0  0  0  0  3  0  0  0  0  0  0
  181.0410  179.6150  141.6320 C   0  0  0  0  0  2  0  0  0  0  0  0
  185.8920  178.2550  145.1810 C   0  0  0  0  0  3  0  0  0  0  0  0
  185.8180  177.4750  143.9190 C   0  0  2  0  0  3  0  0  0  0  0  0
  181.9790  178.6860  140.9060 C   0  0  0  0  0  2  0  0  0  0  0  0
  185.8120  179.6610  142.8680 F   0  0  0  0  0  0  0  0  0  0  0  0
  181.5250  178.7110  143.9120 C   0  0  0  0  0  3  0  0  0  0  0  0
  184.2910  178.6420  140.2380 N   0  0  0  0  0  0  0  0  0  0  0  0
  184.9090  179.4740  139.6450 O   0  0  0  0  0  0  0  0  0  0  0  0
  187.1360  176.9270  143.6020 N   0  0  0  0  0  2  0  0  0  0  0  0
  189.4490  177.6480  145.0670 C   0  0  0  0  0  2  0  0  0  0  0  0
  190.7920  177.5630  145.4530 O   0  0  0  0  0  0  0  0  0  0  0  0
  191.3460  176.4020  143.3270 C   0  0  2  0  0  3  0  0  0  0  0  0
  190.3310  177.3790  142.7080 C   0  0  1  0  0  0  0  0  0  0  0  0
  188.0060  177.9190  142.9440 C   0  0  2  0  0  3  0  0  0  0  0  0
  188.2840  177.5600  141.4770 C   0  0  0  0  0  2  0  0  0  0  0  0
  192.2410  178.7410  143.5530 O   0  0  0  0  0  1  0  0  0  0  0  0
  189.6790  176.9500  141.4150 C   0  0  0  0  0  2  0  0  0  0  0  0
  189.3710  178.1270  143.6170 C   0  0  1  0  0  3  0  0  0  0  0  0
  192.4750  177.5990  141.4790 O   0  0  0  0  0  1  0  0  0  0  0  0
  191.2970  176.3810  144.8770 C   0  0  0  0  0  2  0  0  0  0  0  0
  191.8090  177.7230  142.6990 C   0  0  0  0  0  0  0  0  0  0  0  0
  1 13  1  0  0  0  0
  1  7  2  0  0  0  0
  2 14  1  6  0  0  0
  2  3  1  0  0  0  0
  3  4  1  0  0  0  0
  3  1  1  1  0  0  0
  4 12  1  1  0  0  0
  4 10  1  0  0  0  0
  5 13  2  0  0  0  0
  7  6  1  0  0  0  0
  8  5  1  0  0  0  0
  9  6  2  0  0  0  0
 10 16  1  6  0  0  0
 10  9  1  0  0  0  0
 11  2  1  0  0  0  0
 11  8  1  0  0  0  0
 15 14  2  0  0  0  0
 17 18  1  0  0  0  0
 19 27  1  1  0  0  0
 20 24  1  6  0  0  0
 20 19  1  0  0  0  0
 20 25  1  0  0  0  0
 21 16  1  1  0  0  0
 21 25  1  0  0  0  0
 22 21  1  0  0  0  0
 24 22  1  0  0  0  0
 25 17  1  1  0  0  0
 26 28  1  0  0  0  0
 27 18  1  0  0  0  0
 28 20  1  0  0  0  0
 28 19  1  0  0  0  0
 28 23  1  0  0  0  0
M  END
>  <MODEL>
5

>  <REMARK>
 VINA RESULT:      -9.3      1.105      2.116
  Name = 
  3 active torsions:
  status: ('A' for Active; 'I' for Inactive)
    1  A    between atoms: C_4  and  N_9
    2  A    between atoms: C_11  and  N_12
    3  A    between atoms: N_12  and  C_24
                            x       y       z     vdW  Elec       q    Type
                         _______ _______ _______ _____ _____    ______ ____

>  <TORSDO>
F 3

$$$$
=
 OpenBabel10222417263D

 28 32  0  0  1  0  0  0  0  0999 V2000
  190.0930  177.4240  145.3680 C   0  0  0  0  0  0  0  0  0  0  0  0
  187.5330  177.8710  145.1930 C   0  0  2  0  0  3  0  0  0  0  0  0
  188.7840  177.1890  144.5880 C   0  0  1  0  0  3  0  0  0  0  0  0
  188.8350  177.4860  143.0860 C   0  0  2  0  0  3  0  0  0  0  0  0
  189.3170  177.3390  147.7750 C   0  0  0  0  0  3  0  0  0  0  0  0
  191.7870  177.7740  143.4440 C   0  0  0  0  0  3  0  0  0  0  0  0
  191.3080  177.6540  144.8360 C   0  0  0  0  0  3  0  0  0  0  0  0
  188.0240  178.0500  147.5960 C   0  0  0  0  0  2  0  0  0  0  0  0
  191.1760  177.3380  142.3480 C   0  0  0  0  0  3  0  0  0  0  0  0
  189.8700  176.6320  142.3790 C   0  0  2  0  0  3  0  0  0  0  0  0
  187.1810  177.3390  146.5690 C   0  0  0  0  0  2  0  0  0  0  0  0
  188.9750  178.8420  142.8250 F   0  0  0  0  0  0  0  0  0  0  0  0
  190.2030  177.1110  146.8080 C   0  0  0  0  0  3  0  0  0  0  0  0
  186.3760  177.7320  144.3340 N   0  0  0  0  0  0  0  0  0  0  0  0
  185.3350  178.2480  144.6130 O   0  0  0  0  0  0  0  0  0  0  0  0
  189.4380  176.3380  141.0140 N   0  0  0  0  0  2  0  0  0  0  0  0
  190.5760  175.8150  138.4740 C   0  0  0  0  0  2  0  0  0  0  0  0
  190.5610  175.4980  137.1110 O   0  0  0  0  0  0  0  0  0  0  0  0
  188.1930  176.2310  136.9500 C   0  0  2  0  0  3  0  0  0  0  0  0
  188.6300  177.3400  137.9220 C   0  0  1  0  0  0  0  0  0  0  0  0
  189.5530  177.5120  140.1290 C   0  0  2  0  0  3  0  0  0  0  0  0
  188.2510  178.3230  140.0740 C   0  0  0  0  0  2  0  0  0  0  0  0
  189.8670  177.7040  135.7880 O   0  0  0  0  0  1  0  0  0  0  0  0
  187.5470  177.9650  138.7700 C   0  0  0  0  0  2  0  0  0  0  0  0
  189.9400  177.1910  138.6780 C   0  0  1  0  0  3  0  0  0  0  0  0
  187.6000  178.4080  135.9340 O   0  0  0  0  0  1  0  0  0  0  0  0
  189.2440  175.1000  136.8110 C   0  0  0  0  0  2  0  0  0  0  0  0
  188.6290  177.6060  136.4280 C   0  0  0  0  0  0  0  0  0  0  0  0
  1 13  1  0  0  0  0
  2 14  1  6  0  0  0
  2 11  1  0  0  0  0
  3  2  1  0  0  0  0
  3  1  1  1  0  0  0
  4 12  1  1  0  0  0
  4  3  1  0  0  0  0
  6  7  1  0  0  0  0
  7  1  2  0  0  0  0
  8  5  1  0  0  0  0
  9 10  1  0  0  0  0
  9  6  2  0  0  0  0
 10 16  1  6  0  0  0
 10  4  1  0  0  0  0
 11  8  1  0  0  0  0
 13  5  2  0  0  0  0
 14 15  2  0  0  0  0
 18 17  1  0  0  0  0
 19 27  1  6  0  0  0
 19 20  1  0  0  0  0
 20 25  1  0  0  0  0
 20 24  1  1  0  0  0
 21 16  1  1  0  0  0
 22 21  1  0  0  0  0
 23 28  1  0  0  0  0
 24 22  1  0  0  0  0
 25 17  1  1  0  0  0
 25 21  1  0  0  0  0
 26 28  1  0  0  0  0
 27 18  1  0  0  0  0
 28 19  1  0  0  0  0
 28 20  1  0  0  0  0
M  END
>  <MODEL>
6

>  <REMARK>
 VINA RESULT:      -9.2      4.296      7.026
  Name = 
  3 active torsions:
  status: ('A' for Active; 'I' for Inactive)
    1  A    between atoms: C_4  and  N_9
    2  A    between atoms: C_11  and  N_12
    3  A    between atoms: N_12  and  C_24
                            x       y       z     vdW  Elec       q    Type
                         _______ _______ _______ _____ _____    ______ ____

>  <TORSDO>
F 3

$$$$
=
 OpenBabel10222417263D

 28 32  0  0  1  0  0  0  0  0999 V2000
  189.4710  177.9770  144.4950 C   0  0  0  0  0  0  0  0  0  0  0  0
  189.8950  176.9420  142.1430 C   0  0  2  0  0  3  0  0  0  0  0  0
  188.9200  177.6900  143.0850 C   0  0  1  0  0  3  0  0  0  0  0  0
  187.5500  177.0090  143.0240 C   0  0  2  0  0  3  0  0  0  0  0  0
  191.8920  178.5500  144.0310 C   0  0  0  0  0  3  0  0  0  0  0  0
  187.4000  177.4950  145.9690 C   0  0  0  0  0  3  0  0  0  0  0  0
  188.7880  177.8850  145.6520 C   0  0  0  0  0  3  0  0  0  0  0  0
  192.1340  177.5480  142.9600 C   0  0  0  0  0  2  0  0  0  0  0  0
  186.3680  177.4640  145.1320 C   0  0  0  0  0  3  0  0  0  0  0  0
  186.4780  177.8420  143.7010 C   0  0  2  0  0  3  0  0  0  0  0  0
  191.1470  177.7410  141.8380 C   0  0  0  0  0  2  0  0  0  0  0  0
  187.5960  175.7000  143.4840 F   0  0  0  0  0  0  0  0  0  0  0  0
  190.7480  178.6930  144.6980 C   0  0  0  0  0  3  0  0  0  0  0  0
  189.2640  176.5770  140.8930 N   0  0  0  0  0  0  0  0  0  0  0  0
  189.1630  177.3640  140.0000 O   0  0  0  0  0  0  0  0  0  0  0  0
  185.1890  177.6430  143.0400 N   0  0  0  0  0  2  0  0  0  0  0  0
  185.9130  178.6370  140.4890 C   0  0  0  0  0  2  0  0  0  0  0  0
  185.7840  178.8170  139.1070 O   0  0  0  0  0  0  0  0  0  0  0  0
  183.3730  178.2300  139.2400 C   0  0  2  0  0  3  0  0  0  0  0  0
  183.4110  179.0210  140.5590 C   0  0  1  0  0  0  0  0  0  0  0  0
  184.5540  178.9200  142.6650 C   0  0  2  0  0  3  0  0  0  0  0  0
  183.0410  178.9100  142.9230 C   0  0  0  0  0  2  0  0  0  0  0  0
  183.8770  180.6380  138.7190 O   0  0  0  0  0  1  0  0  0  0  0  0
  182.3520  178.6840  141.5820 C   0  0  0  0  0  2  0  0  0  0  0  0
  184.7520  179.3340  141.2000 C   0  0  1  0  0  3  0  0  0  0  0  0
  181.6280  179.9800  139.1250 O   0  0  0  0  0  1  0  0  0  0  0  0
  184.7860  177.9200  138.6810 C   0  0  0  0  0  2  0  0  0  0  0  0
  182.9900  179.7150  139.2760 C   0  0  0  0  0  0  0  0  0  0  0  0
  1 13  1  0  0  0  0
  1  7  2  0  0  0  0
  2 14  1  6  0  0  0
  2  3  1  0  0  0  0
  3  1  1  1  0  0  0
  4  3  1  0  0  0  0
  4 12  1  1  0  0  0
  4 10  1  0  0  0  0
  5 13  2  0  0  0  0
  7  6  1  0  0  0  0
  8  5  1  0  0  0  0
  9  6  2  0  0  0  0
 10 16  1  6  0  0  0
 10  9  1  0  0  0  0
 11  2  1  0  0  0  0
 11  8  1  0  0  0  0
 15 14  2  0  0  0  0
 18 17  1  0  0  0  0
 19 27  1  6  0  0  0
 19 28  1  0  0  0  0
 19 20  1  0  0  0  0
 20 25  1  0  0  0  0
 20 24  1  1  0  0  0
 21 22  1  0  0  0  0
 21 16  1  6  0  0  0
 23 28  1  0  0  0  0
 24 22  1  0  0  0  0
 25 17  1  6  0  0  0
 25 21  1  0  0  0  0
 26 28  1  0  0  0  0
 27 18  1  0  0  0  0
 28 20  1  0  0  0  0
M  END
>  <MODEL>
7

>  <REMARK>
 VINA RESULT:      -9.1      2.468      7.480
  Name = 
  3 active torsions:
  status: ('A' for Active; 'I' for Inactive)
    1  A    between atoms: C_4  and  N_9
    2  A    between atoms: C_11  and  N_12
    3  A    between atoms: N_12  and  C_24
                            x       y       z     vdW  Elec       q    Type
                         _______ _______ _______ _____ _____    ______ ____

>  <TORSDO>
F 3

$$$$
=
 OpenBabel10222417263D

 28 32  0  0  1  0  0  0  0  0999 V2000
  189.3710  178.0240  144.4350 C   0  0  0  0  0  0  0  0  0  0  0  0
  189.8360  177.0030  142.0850 C   0  0  2  0  0  3  0  0  0  0  0  0
  188.8460  177.7490  143.0120 C   0  0  1  0  0  3  0  0  0  0  0  0
  187.4740  177.0760  142.9200 C   0  0  2  0  0  3  0  0  0  0  0  0
  191.8030  178.5880  144.0220 C   0  0  0  0  0  3  0  0  0  0  0  0
  187.2680  177.5430  145.8640 C   0  0  0  0  0  3  0  0  0  0  0  0
  188.6650  177.9280  145.5770 C   0  0  0  0  0  3  0  0  0  0  0  0
  192.0620  177.5920  142.9500 C   0  0  0  0  0  2  0  0  0  0  0  0
  186.2530  177.5220  145.0070 C   0  0  0  0  0  3  0  0  0  0  0  0
  186.3930  177.9090  143.5800 C   0  0  2  0  0  3  0  0  0  0  0  0
  191.0980  177.7970  141.8100 C   0  0  0  0  0  2  0  0  0  0  0  0
  187.5040  175.7630  143.3720 F   0  0  0  0  0  0  0  0  0  0  0  0
  190.6470  178.7320  144.6670 C   0  0  0  0  0  3  0  0  0  0  0  0
  189.2280  176.6490  140.8200 N   0  0  0  0  0  0  0  0  0  0  0  0
  189.6940  177.0230  139.7860 O   0  0  0  0  0  0  0  0  0  0  0  0
  185.1170  177.7220  142.8920 N   0  0  0  0  0  2  0  0  0  0  0  0
  183.8900  178.0380  140.3600 C   0  0  0  0  0  2  0  0  0  0  0  0
  182.8470  177.9610  139.4300 O   0  0  0  0  0  0  0  0  0  0  0  0
  181.1870  177.8650  141.2760 C   0  0  2  0  0  3  0  0  0  0  0  0
  182.1170  178.8820  141.9590 C   0  0  1  0  0  0  0  0  0  0  0  0
  184.3940  178.9930  142.7050 C   0  0  2  0  0  3  0  0  0  0  0  0
  183.4710  179.3130  143.8880 C   0  0  0  0  0  2  0  0  0  0  0  0
  181.1890  179.9870  139.9250 O   0  0  0  0  0  1  0  0  0  0  0  0
  182.0500  178.9560  143.4670 C   0  0  0  0  0  2  0  0  0  0  0  0
  183.5310  179.0640  141.4360 C   0  0  1  0  0  3  0  0  0  0  0  0
  179.8340  179.8480  141.8750 O   0  0  0  0  0  1  0  0  0  0  0  0
  181.8310  177.1960  140.0340 C   0  0  0  0  0  2  0  0  0  0  0  0
  180.9290  179.3720  141.1530 C   0  0  0  0  0  0  0  0  0  0  0  0
  1 13  1  0  0  0  0
  1  7  2  0  0  0  0
  2 14  1  6  0  0  0
  2  3  1  0  0  0  0
  3  1  1  1  0  0  0
  4  3  1  0  0  0  0
  4 12  1  1  0  0  0
  4 10  1  0  0  0  0
  5 13  2  0  0  0  0
  7  6  1  0  0  0  0
  8  5  1  0  0  0  0
  9  6  2  0  0  0  0
 10 16  1  6  0  0  0
 10  9  1  0  0  0  0
 11  2  1  0  0  0  0
 11  8  1  0  0  0  0
 15 14  2  0  0  0  0
 18 27  1  0  0  0  0
 18 17  1  0  0  0  0
 19 27  1  6  0  0  0
 19 20  1  0  0  0  0
 20 24  1  1  0  0  0
 21 16  1  1  0  0  0
 21 22  1  0  0  0  0
 23 28  1  0  0  0  0
 24 22  1  0  0  0  0
 25 17  1  6  0  0  0
 25 20  1  0  0  0  0
 25 21  1  0  0  0  0
 28 19  1  0  0  0  0
 28 26  1  0  0  0  0
 28 20  1  0  0  0  0
M  END
>  <MODEL>
8

>  <REMARK>
 VINA RESULT:      -9.0      2.390      7.885
  Name = 
  3 active torsions:
  status: ('A' for Active; 'I' for Inactive)
    1  A    between atoms: C_4  and  N_9
    2  A    between atoms: C_11  and  N_12
    3  A    between atoms: N_12  and  C_24
                            x       y       z     vdW  Elec       q    Type
                         _______ _______ _______ _____ _____    ______ ____

>  <TORSDO>
F 3

$$$$
=
 OpenBabel10222417263D

 28 32  0  0  1  0  0  0  0  0999 V2000
  188.7070  176.3690  137.0590 C   0  0  0  0  0  0  0  0  0  0  0  0
  191.2490  176.5460  137.5980 C   0  0  2  0  0  3  0  0  0  0  0  0
  189.8000  176.4840  138.1400 C   0  0  1  0  0  3  0  0  0  0  0  0
  189.6080  177.5960  139.1750 C   0  0  2  0  0  3  0  0  0  0  0  0
  189.7740  174.8240  135.3630 C   0  0  0  0  0  3  0  0  0  0  0  0
  186.8860  177.9520  137.9940 C   0  0  0  0  0  3  0  0  0  0  0  0
  187.5160  176.9980  137.0600 C   0  0  0  0  0  3  0  0  0  0  0  0
  191.1580  175.3580  135.4470 C   0  0  0  0  0  2  0  0  0  0  0  0
  187.2170  178.1640  139.2630 C   0  0  0  0  0  3  0  0  0  0  0  0
  188.3120  177.4290  139.9450 C   0  0  2  0  0  3  0  0  0  0  0  0
  191.6570  175.2820  136.8660 C   0  0  0  0  0  2  0  0  0  0  0  0
  189.7530  178.8600  138.6180 F   0  0  0  0  0  0  0  0  0  0  0  0
  188.7310  175.2970  136.0430 C   0  0  0  0  0  3  0  0  0  0  0  0
  192.2080  176.8000  138.6520 N   0  0  0  0  0  0  0  0  0  0  0  0
  193.3820  176.7690  138.4380 O   0  0  0  0  0  0  0  0  0  0  0  0
  188.4650  177.9320  141.3100 N   0  0  0  0  0  2  0  0  0  0  0  0
  191.0560  177.6060  142.4060 C   0  0  0  0  0  2  0  0  0  0  0  0
  192.0800  177.8050  143.3390 O   0  0  0  0  0  0  0  0  0  0  0  0
  190.4110  178.4820  145.0500 C   0  0  2  0  0  3  0  0  0  0  0  0
  189.5490  177.3690  144.4280 C   0  0  1  0  0  0  0  0  0  0  0  0
  188.5930  176.8400  142.2930 C   0  0  2  0  0  3  0  0  0  0  0  0
  187.4730  176.8740  143.3420 C   0  0  0  0  0  2  0  0  0  0  0  0
  191.5420  176.2710  145.4500 O   0  0  0  0  0  1  0  0  0  0  0  0
  188.0550  177.4880  144.6100 C   0  0  0  0  0  2  0  0  0  0  0  0
  189.9220  176.8170  143.0630 C   0  0  1  0  0  3  0  0  0  0  0  0
  189.7460  176.9340  146.8620 O   0  0  0  0  0  1  0  0  0  0  0  0
  191.6480  178.8420  144.1880 C   0  0  0  0  0  2  0  0  0  0  0  0
  190.4090  177.0660  145.6420 C   0  0  0  0  0  0  0  0  0  0  0  0
  1  7  2  0  0  0  0
  2  3  1  0  0  0  0
  2 14  1  1  0  0  0
  3  1  1  6  0  0  0
  3  4  1  0  0  0  0
  4 12  1  6  0  0  0
  4 10  1  0  0  0  0
  5  8  1  0  0  0  0
  5 13  2  0  0  0  0
  6  9  2  0  0  0  0
  7  6  1  0  0  0  0
  8 11  1  0  0  0  0
  9 10  1  0  0  0  0
 10 16  1  1  0  0  0
 11  2  1  0  0  0  0
 13  1  1  0  0  0  0
 15 14  2  0  0  0  0
 17 18  1  0  0  0  0
 18 27  1  0  0  0  0
 19 27  1  6  0  0  0
 19 28  1  0  0  0  0
 20 24  1  1  0  0  0
 20 19  1  0  0  0  0
 20 28  1  0  0  0  0
 21 16  1  6  0  0  0
 21 25  1  0  0  0  0
 21 22  1  0  0  0  0
 22 24  1  0  0  0  0
 23 28  1  0  0  0  0
 25 17  1  6  0  0  0
 25 20  1  0  0  0  0
 28 26  1  0  0  0  0
M  END
>  <MODEL>
9

>  <REMARK>
 VINA RESULT:      -9.0      4.051      6.686
  Name = 
  3 active torsions:
  status: ('A' for Active; 'I' for Inactive)
    1  A    between atoms: C_4  and  N_9
    2  A    between atoms: C_11  and  N_12
    3  A    between atoms: N_12  and  C_24
                            x       y       z     vdW  Elec       q    Type
                         _______ _______ _______ _____ _____    ______ ____

>  <TORSDO>
F 3

$$$$
