=
 OpenBabel10222418173D

 59 63  0  0  1  0  0  0  0  0999 V2000
  189.9110  177.7310  139.0860 C   0  0  0  0  0  2  0  0  0  0  0  0
  187.7440  178.4320  140.0440 C   0  0  0  0  0  2  0  0  0  0  0  0
  190.0680  177.2970  142.8900 C   0  0  0  0  0  3  0  0  0  0  0  0
  187.2500  177.8400  144.9740 N   0  0  0  0  0  0  0  0  0  0  0  0
  187.8890  177.8280  143.7860 C   0  0  0  0  0  0  0  0  0  0  0  0
  188.8590  178.8260  139.0900 C   0  0  0  0  0  2  0  0  0  0  0  0
  188.2590  178.0890  141.4210 C   0  0  0  0  0  0  0  0  0  0  0  0
  189.6040  177.6260  141.5980 C   0  0  0  0  0  0  0  0  0  0  0  0
  189.1740  177.3990  143.9490 C   0  0  0  0  0  0  0  0  0  0  0  0
  187.3820  178.1760  142.5350 C   0  0  0  0  0  0  0  0  0  0  0  0
  189.2940  177.1460  145.2930 C   0  0  0  0  0  0  0  0  0  0  0  0
  188.1120  177.4180  145.8960 N   0  0  0  0  0  2  0  0  0  0  0  0
  190.5920  177.6600  140.4500 C   0  0  1  0  0  3  0  0  0  0  0  0
  191.4340  176.2410  146.5560 C   0  0  0  0  0  0  0  0  0  0  0  0
  192.6150  175.7470  147.2610 C   0  0  0  0  0  1  0  0  0  0  0  0
  190.4600  176.6520  145.9780 C   0  0  0  0  0  0  0  0  0  0  0  0
  186.0010  178.6550  142.4030 C   0  0  0  0  0  3  0  0  0  0  0  0
  184.9970  177.9890  142.9620 C   0  0  0  0  0  3  0  0  0  0  0  0
  183.5960  178.4000  142.8060 C   0  0  0  0  0  0  0  0  0  0  0  0
  183.0690  178.5240  141.5180 C   0  0  0  0  0  3  0  0  0  0  0  0
  181.4770  179.1320  143.7270 C   0  0  0  0  0  3  0  0  0  0  0  0
  181.7460  178.9510  141.3180 C   0  0  0  0  0  0  0  0  0  0  0  0
  182.7900  178.7000  143.9120 C   0  0  0  0  0  3  0  0  0  0  0  0
  180.9510  179.2730  142.4320 C   0  0  0  0  0  0  0  0  0  0  0  0
  179.5340  179.7220  142.2330 C   0  0  0  0  0  3  0  0  0  0  0  0
  179.4570  180.8450  141.2220 C   0  0  0  0  0  1  0  0  0  0  0  0
  178.9310  180.1760  143.5520 C   0  0  0  0  0  1  0  0  0  0  0  0
  181.1990  179.0520  140.0280 O   0  0  0  0  0  0  0  0  0  0  0  0
  181.7910  176.9420  138.9580 C   0  0  0  0  0  2  0  0  0  0  0  0
  180.5250  179.3980  135.7810 O   0  0  0  0  0  1  0  0  0  0  0  0
  180.8850  178.5820  136.8020 N   0  0  0  0  0  0  0  0  0  0  0  0
  178.9320  179.1810  138.0600 C   0  0  0  0  0  2  0  0  0  0  0  0
  179.6890  177.3150  139.9920 F   0  0  0  0  0  0  0  0  0  0  0  0
  182.7660  177.4730  137.9120 C   0  0  0  0  0  2  0  0  0  0  0  0
  180.6800  177.9580  139.2680 C   0  0  1  0  0  0  0  0  0  0  0  0
  182.0100  177.6730  136.6060 C   0  0  0  0  0  2  0  0  0  0  0  0
  180.0820  178.5070  137.9940 C   0  0  0  0  0  0  0  0  0  0  0  0
  191.5610  176.4840  140.4740 C   0  0  0  0  0  2  0  0  0  0  0  0
  194.2870  176.3910  139.6490 O   0  0  0  0  0  0  0  0  0  0  0  0
  193.4010  176.2110  138.7680 C   0  0  0  0  0  0  0  0  0  0  0  0
  192.0200  176.2110  139.1250 N   0  0  0  0  0  2  0  0  0  0  0  0
  193.7590  175.9930  137.4360 O   0  0  0  0  0  0  0  0  0  0  0  0
  194.0280  174.6960  136.9090 C   0  0  1  0  0  3  0  0  0  0  0  0
  193.4530  174.5860  135.4960 C   0  0  0  0  0  2  0  0  0  0  0  0
  192.7130  173.2980  135.2810 C   0  0  0  0  0  3  0  0  0  0  0  0
  191.4320  173.1390  135.5830 C   0  0  0  0  0  3  0  0  0  0  0  0
  190.6870  174.1750  136.1230 O   0  0  0  0  0  1  0  0  0  0  0  0
  195.5430  174.4470  136.9460 C   0  0  1  0  0  3  0  0  0  0  0  0
  195.3430  172.7360  138.6110 O   0  0  0  0  0  0  0  0  0  0  0  0
  196.8110  172.2600  136.8520 N   0  0  0  0  0  2  0  0  0  0  0  0
  195.8900  173.1140  137.5390 C   0  0  0  0  0  0  0  0  0  0  0  0
  197.2580  170.9620  137.3390 C   0  0  0  0  0  3  0  0  0  0  0  0
  196.4450  169.8380  136.7190 C   0  0  0  0  0  1  0  0  0  0  0  0
  198.7370  170.7570  137.0660 C   0  0  0  0  0  1  0  0  0  0  0  0
  196.1150  174.5990  135.6500 O   0  0  0  0  0  0  0  0  0  0  0  0
  197.2090  175.4360  135.4090 C   0  0  0  0  0  0  0  0  0  0  0  0
  198.4120  175.0520  135.8040 C   0  0  0  0  0  2  0  0  0  0  0  0
  197.0520  176.7710  134.7550 C   0  0  0  0  0  2  0  0  0  0  0  0
  195.5770  177.1010  134.5940 C   0  0  0  0  0  1  0  0  0  0  0  0
  1  6  1  0  0  0  0
  1 13  1  0  0  0  0
  2  7  1  0  0  0  0
  3  9  1  0  0  0  0
  4 12  1  0  0  0  0
  5  9  1  0  0  0  0
  5  4  2  0  0  0  0
  6  2  1  0  0  0  0
  7  8  1  0  0  0  0
  7 10  2  0  0  0  0
  8  3  2  0  0  0  0
  9 11  2  0  0  0  0
 10  5  1  0  0  0  0
 11 12  1  0  0  0  0
 11 16  1  0  0  0  0
 13 38  1  6  0  0  0
 13  8  1  0  0  0  0
 14 15  1  0  0  0  0
 16 14  3  0  0  0  0
 17 10  1  0  0  0  0
 17 18  2  0  0  0  0
 19 18  1  0  0  0  0
 19 23  1  0  0  0  0
 20 19  2  0  0  0  0
 21 23  2  0  0  0  0
 22 20  1  0  0  0  0
 22 24  2  0  0  0  0
 24 21  1  0  0  0  0
 25 24  1  0  0  0  0
 25 27  1  0  0  0  0
 26 25  1  0  0  0  0
 28 22  1  0  0  0  0
 29 35  1  0  0  0  0
 30 31  1  0  0  0  0
 31 37  1  0  0  0  0
 34 29  1  0  0  0  0
 35 33  1  1  0  0  0
 35 28  1  0  0  0  0
 36 31  1  0  0  0  0
 36 34  1  0  0  0  0
 37 32  2  0  0  0  0
 37 35  1  0  0  0  0
 40 41  1  0  0  0  0
 40 39  2  0  0  0  0
 41 38  1  0  0  0  0
 42 40  1  0  0  0  0
 43 44  1  6  0  0  0
 43 48  1  0  0  0  0
 43 42  1  0  0  0  0
 45 44  1  0  0  0  0
 45 46  2  0  0  0  0
 46 47  1  0  0  0  0
 48 55  1  6  0  0  0
 48 51  1  0  0  0  0
 50 52  1  0  0  0  0
 50 51  1  0  0  0  0
 51 49  2  0  0  0  0
 53 52  1  0  0  0  0
 54 52  1  0  0  0  0
 56 55  1  0  0  0  0
 56 57  2  0  0  0  0
 58 56  1  0  0  0  0
 59 58  1  0  0  0  0
M  END
>  <MODEL>
1

>  <REMARK>
 VINA RESULT:      -7.3      0.000      0.000
  Name = 
  18 active torsions:
  status: ('A' for Active; 'I' for Inactive)
    1  A    between atoms: O_1  and  C_3
    2  A    between atoms: O_1  and  C_22
    3  A    between atoms: C_2  and  N_34
    4  A    between atoms: C_3  and  C_4
    5  A    between atoms: C_5  and  C_35
    6  A    between atoms: C_5  and  C_49
    7  A    between atoms: C_7  and  C_39
    8  A    between atoms: O_15  and  C_25
    9  A    between atoms: O_15  and  C_40
   10  A    between atoms: C_19  and  O_45
   11  A    between atoms: C_22  and  C_38
   12  A    between atoms: C_22  and  C_49
   13  A    between atoms: C_23  and  C_55
   14  A    between atoms: C_30  and  C_36
   15  A    between atoms: C_41  and  C_53
   16  A    between atoms: C_41  and  N_58
   17  A    between atoms: C_44  and  C_52
   18  A    between atoms: O_45  and  C_49
                            x       y       z     vdW  Elec       q    Type
                         _______ _______ _______ _____ _____    ______ ____

>  <TORSDO>
F 18

$$$$
=
 OpenBabel10222418173D

 59 63  0  0  1  0  0  0  0  0999 V2000
  189.9920  177.6330  139.2220 C   0  0  0  0  0  2  0  0  0  0  0  0
  187.8380  178.3760  140.1770 C   0  0  0  0  0  2  0  0  0  0  0  0
  190.1550  177.2470  143.0310 C   0  0  0  0  0  3  0  0  0  0  0  0
  187.3520  177.8570  145.1150 N   0  0  0  0  0  0  0  0  0  0  0  0
  187.9870  177.8200  143.9260 C   0  0  0  0  0  0  0  0  0  0  0  0
  188.9560  178.7410  139.2150 C   0  0  0  0  0  2  0  0  0  0  0  0
  188.3520  178.0440  141.5570 C   0  0  0  0  0  0  0  0  0  0  0  0
  189.6910  177.5650  141.7360 C   0  0  0  0  0  0  0  0  0  0  0  0
  189.2660  177.3760  144.0910 C   0  0  0  0  0  0  0  0  0  0  0  0
  187.4810  178.1580  142.6720 C   0  0  0  0  0  0  0  0  0  0  0  0
  189.3860  177.1390  145.4380 C   0  0  0  0  0  0  0  0  0  0  0  0
  188.2110  177.4350  146.0400 N   0  0  0  0  0  2  0  0  0  0  0  0
  190.6770  177.5700  140.5850 C   0  0  1  0  0  3  0  0  0  0  0  0
  191.5230  176.2190  146.6960 C   0  0  0  0  0  0  0  0  0  0  0  0
  192.7060  175.7050  147.3830 C   0  0  0  0  0  1  0  0  0  0  0  0
  190.5480  176.6390  146.1260 C   0  0  0  0  0  0  0  0  0  0  0  0
  186.1060  178.6540  142.5380 C   0  0  0  0  0  3  0  0  0  0  0  0
  185.0800  177.8110  142.5290 C   0  0  0  0  0  3  0  0  0  0  0  0
  183.6950  178.2590  142.3380 C   0  0  0  0  0  0  0  0  0  0  0  0
  183.1180  178.1470  141.0710 C   0  0  0  0  0  3  0  0  0  0  0  0
  181.6550  179.2790  143.1580 C   0  0  0  0  0  3  0  0  0  0  0  0
  181.8100  178.5980  140.8310 C   0  0  0  0  0  0  0  0  0  0  0  0
  182.9530  178.8220  143.3850 C   0  0  0  0  0  3  0  0  0  0  0  0
  181.0810  179.1840  141.8800 C   0  0  0  0  0  0  0  0  0  0  0  0
  179.6790  179.6610  141.6400 C   0  0  0  0  0  3  0  0  0  0  0  0
  179.6740  180.9850  140.9090 C   0  0  0  0  0  1  0  0  0  0  0  0
  178.9320  179.7970  142.9560 C   0  0  0  0  0  1  0  0  0  0  0  0
  181.2120  178.4650  139.5660 O   0  0  0  0  0  0  0  0  0  0  0  0
  180.3890  179.6850  137.6220 C   0  0  0  0  0  2  0  0  0  0  0  0
  182.3850  176.3570  135.9900 O   0  0  0  0  0  1  0  0  0  0  0  0
  181.7850  177.4590  136.5020 N   0  0  0  0  0  0  0  0  0  0  0  0
  183.6650  177.9060  137.9240 C   0  0  0  0  0  2  0  0  0  0  0  0
  182.4010  180.2550  138.7420 F   0  0  0  0  0  0  0  0  0  0  0  0
  179.6350  178.5520  136.9330 C   0  0  0  0  0  2  0  0  0  0  0  0
  181.6160  179.1690  138.3890 C   0  0  1  0  0  0  0  0  0  0  0  0
  180.5490  177.9320  135.8860 C   0  0  0  0  0  2  0  0  0  0  0  0
  182.4310  178.2300  137.5320 C   0  0  0  0  0  0  0  0  0  0  0  0
  191.6290  176.3820  140.6220 C   0  0  0  0  0  2  0  0  0  0  0  0
  193.8770  176.1610  138.8840 O   0  0  0  0  0  0  0  0  0  0  0  0
  192.7810  175.6760  138.4900 C   0  0  0  0  0  0  0  0  0  0  0  0
  191.6290  175.7240  139.3290 N   0  0  0  0  0  2  0  0  0  0  0  0
  192.6830  175.0700  137.2350 O   0  0  0  0  0  0  0  0  0  0  0  0
  192.3130  175.7840  136.0570 C   0  0  1  0  0  3  0  0  0  0  0  0
  193.4820  176.6540  135.5950 C   0  0  0  0  0  2  0  0  0  0  0  0
  194.3530  175.9530  134.5940 C   0  0  0  0  0  3  0  0  0  0  0  0
  195.6180  175.6370  134.8280 C   0  0  0  0  0  3  0  0  0  0  0  0
  196.2220  175.9370  136.0390 O   0  0  0  0  0  1  0  0  0  0  0  0
  191.8700  174.7790  134.9840 C   0  0  1  0  0  3  0  0  0  0  0  0
  191.4200  172.7330  136.1460 O   0  0  0  0  0  0  0  0  0  0  0  0
  193.3260  172.7180  134.7880 N   0  0  0  0  0  2  0  0  0  0  0  0
  192.1820  173.3620  135.3620 C   0  0  0  0  0  0  0  0  0  0  0  0
  193.7570  171.3630  135.1010 C   0  0  0  0  0  3  0  0  0  0  0  0
  194.3680  171.2930  136.4900 C   0  0  0  0  0  1  0  0  0  0  0  0
  192.6030  170.3830  134.9810 C   0  0  0  0  0  1  0  0  0  0  0  0
  190.4880  174.9380  134.6770 O   0  0  0  0  0  0  0  0  0  0  0  0
  189.6490  175.7780  135.4160 C   0  0  0  0  0  0  0  0  0  0  0  0
  189.6750  177.0800  135.1810 C   0  0  0  0  0  2  0  0  0  0  0  0
  188.7540  175.2520  136.4910 C   0  0  0  0  0  2  0  0  0  0  0  0
  187.6440  176.2480  136.7770 C   0  0  0  0  0  1  0  0  0  0  0  0
  1 13  1  0  0  0  0
  2  7  1  0  0  0  0
  3  9  1  0  0  0  0
  4 12  1  0  0  0  0
  5  9  1  0  0  0  0
  5  4  2  0  0  0  0
  6  1  1  0  0  0  0
  6  2  1  0  0  0  0
  7  8  1  0  0  0  0
  7 10  2  0  0  0  0
  8  3  2  0  0  0  0
  9 11  2  0  0  0  0
 10  5  1  0  0  0  0
 11 12  1  0  0  0  0
 11 16  1  0  0  0  0
 13 38  1  6  0  0  0
 13  8  1  0  0  0  0
 14 15  1  0  0  0  0
 16 14  3  0  0  0  0
 17 10  1  0  0  0  0
 18 17  2  0  0  0  0
 19 18  1  0  0  0  0
 19 23  1  0  0  0  0
 20 19  2  0  0  0  0
 21 23  2  0  0  0  0
 22 20  1  0  0  0  0
 22 24  2  0  0  0  0
 24 21  1  0  0  0  0
 25 24  1  0  0  0  0
 25 27  1  0  0  0  0
 26 25  1  0  0  0  0
 28 22  1  0  0  0  0
 29 35  1  0  0  0  0
 30 31  1  0  0  0  0
 31 37  1  0  0  0  0
 34 29  1  0  0  0  0
 35 33  1  1  0  0  0
 35 28  1  0  0  0  0
 36 31  1  0  0  0  0
 36 34  1  0  0  0  0
 37 32  2  0  0  0  0
 37 35  1  0  0  0  0
 40 39  2  0  0  0  0
 40 41  1  0  0  0  0
 41 38  1  0  0  0  0
 42 40  1  0  0  0  0
 43 44  1  6  0  0  0
 43 42  1  0  0  0  0
 45 46  2  0  0  0  0
 45 44  1  0  0  0  0
 46 47  1  0  0  0  0
 48 55  1  1  0  0  0
 48 51  1  0  0  0  0
 48 43  1  0  0  0  0
 50 52  1  0  0  0  0
 50 51  1  0  0  0  0
 51 49  2  0  0  0  0
 52 53  1  0  0  0  0
 54 52  1  0  0  0  0
 55 56  1  0  0  0  0
 56 58  1  0  0  0  0
 57 56  2  0  0  0  0
 58 59  1  0  0  0  0
M  END
>  <MODEL>
2

>  <REMARK>
 VINA RESULT:      -6.8      1.662      3.270
  Name = 
  18 active torsions:
  status: ('A' for Active; 'I' for Inactive)
    1  A    between atoms: O_1  and  C_3
    2  A    between atoms: O_1  and  C_22
    3  A    between atoms: C_2  and  N_34
    4  A    between atoms: C_3  and  C_4
    5  A    between atoms: C_5  and  C_35
    6  A    between atoms: C_5  and  C_49
    7  A    between atoms: C_7  and  C_39
    8  A    between atoms: O_15  and  C_25
    9  A    between atoms: O_15  and  C_40
   10  A    between atoms: C_19  and  O_45
   11  A    between atoms: C_22  and  C_38
   12  A    between atoms: C_22  and  C_49
   13  A    between atoms: C_23  and  C_55
   14  A    between atoms: C_30  and  C_36
   15  A    between atoms: C_41  and  C_53
   16  A    between atoms: C_41  and  N_58
   17  A    between atoms: C_44  and  C_52
   18  A    between atoms: O_45  and  C_49
                            x       y       z     vdW  Elec       q    Type
                         _______ _______ _______ _____ _____    ______ ____

>  <TORSDO>
F 18

$$$$
=
 OpenBabel10222418173D

 59 63  0  0  1  0  0  0  0  0999 V2000
  187.1640  178.7030  138.3590 C   0  0  0  0  0  2  0  0  0  0  0  0
  188.5120  176.9540  137.2500 C   0  0  0  0  0  2  0  0  0  0  0  0
  184.7950  176.3710  136.4520 C   0  0  0  0  0  3  0  0  0  0  0  0
  185.9400  173.4430  134.8100 N   0  0  0  0  0  0  0  0  0  0  0  0
  186.1160  174.5780  135.5170 C   0  0  0  0  0  0  0  0  0  0  0  0
  188.3790  178.4490  137.4860 C   0  0  0  0  0  2  0  0  0  0  0  0
  187.2440  176.3440  136.7040 C   0  0  0  0  0  0  0  0  0  0  0  0
  185.9750  176.9600  136.9580 C   0  0  1  0  0  3  0  0  0  0  0  0
  184.9130  175.1760  135.7520 C   0  0  0  0  0  0  0  0  0  0  0  0
  187.3120  175.1220  135.9840 C   0  0  0  0  0  0  0  0  0  0  0  0
  183.9880  174.3530  135.1580 C   0  0  0  0  0  0  0  0  0  0  0  0
  184.6340  173.3050  134.5940 N   0  0  0  0  0  0  0  0  0  0  0  0
  185.8920  178.3300  137.6000 C   0  0  1  0  0  3  0  0  0  0  0  0
  181.3650  174.6910  135.1200 C   0  0  0  0  0  0  0  0  0  0  0  0
  179.9170  174.8860  135.1040 C   0  0  0  0  0  1  0  0  0  0  0  0
  182.5590  174.5340  135.1370 C   0  0  0  0  0  0  0  0  0  0  0  0
  188.5890  174.4610  135.6920 C   0  0  0  0  0  3  0  0  0  0  0  0
  189.2860  173.8770  136.6590 C   0  0  0  0  0  3  0  0  0  0  0  0
  190.5960  173.2560  136.4210 C   0  0  0  0  0  0  0  0  0  0  0  0
  191.6930  173.6900  137.1680 C   0  0  0  0  0  3  0  0  0  0  0  0
  192.0410  171.7300  135.2140 C   0  0  0  0  0  3  0  0  0  0  0  0
  192.9730  173.1540  136.9490 C   0  0  0  0  0  0  0  0  0  0  0  0
  190.7750  172.2660  135.4460 C   0  0  0  0  0  3  0  0  0  0  0  0
  193.1490  172.1790  135.9520 C   0  0  0  0  0  0  0  0  0  0  0  0
  194.5080  171.5910  135.7140 C   0  0  0  0  0  3  0  0  0  0  0  0
  195.2350  172.3310  134.6130 C   0  0  0  0  0  1  0  0  0  0  0  0
  194.3940  170.1190  135.3550 C   0  0  0  0  0  1  0  0  0  0  0  0
  194.0780  173.5650  137.7140 O   0  0  0  0  0  0  0  0  0  0  0  0
  193.9690  175.7770  136.6930 C   0  0  0  0  0  2  0  0  0  0  0  0
  198.0220  174.6860  136.3740 O   0  0  0  0  0  1  0  0  0  0  0  0
  196.7300  175.0690  136.5180 N   0  0  0  0  0  0  0  0  0  0  0  0
  196.7280  174.4340  138.8320 C   0  0  0  0  0  2  0  0  0  0  0  0
  194.1360  175.4470  139.0360 F   0  0  0  0  0  0  0  0  0  0  0  0
  194.6110  175.4490  135.3490 C   0  0  0  0  0  2  0  0  0  0  0  0
  194.5440  174.9120  137.8250 C   0  0  1  0  0  0  0  0  0  0  0  0
  196.0910  175.7960  135.4250 C   0  0  0  0  0  2  0  0  0  0  0  0
  196.0530  174.8970  137.7770 C   0  0  0  0  0  0  0  0  0  0  0  0
  184.6890  178.4750  138.5230 C   0  0  0  0  0  2  0  0  0  0  0  0
  183.0770  177.2750  140.5430 O   0  0  0  0  0  0  0  0  0  0  0  0
  184.2330  177.6630  140.8680 C   0  0  0  0  0  0  0  0  0  0  0  0
  185.1000  178.2390  139.8930 N   0  0  0  0  0  2  0  0  0  0  0  0
  184.6870  177.5180  142.1810 O   0  0  0  0  0  0  0  0  0  0  0  0
  185.4800  178.5050  142.8390 C   0  0  1  0  0  3  0  0  0  0  0  0
  184.5750  179.6100  143.3840 C   0  0  0  0  0  2  0  0  0  0  0  0
  183.5140  179.0770  144.3030 C   0  0  0  0  0  3  0  0  0  0  0  0
  182.2420  178.9610  143.9510 C   0  0  0  0  0  3  0  0  0  0  0  0
  181.8090  179.3300  142.6860 O   0  0  0  0  0  1  0  0  0  0  0  0
  186.3050  177.8260  143.9420 C   0  0  1  0  0  3  0  0  0  0  0  0
  187.6460  176.0670  143.0210 O   0  0  0  0  0  0  0  0  0  0  0  0
  188.7510  178.1030  143.3540 N   0  0  0  0  0  2  0  0  0  0  0  0
  187.5950  177.2610  143.4260 C   0  0  0  0  0  0  0  0  0  0  0  0
  190.0670  177.6660  142.9090 C   0  0  0  0  0  3  0  0  0  0  0  0
  190.0750  177.4000  141.4130 C   0  0  0  0  0  1  0  0  0  0  0  0
  191.1310  178.6880  143.2690 C   0  0  0  0  0  1  0  0  0  0  0  0
  186.5330  178.7190  145.0290 O   0  0  0  0  0  0  0  0  0  0  0  0
  186.7690  178.2660  146.3310 C   0  0  0  0  0  0  0  0  0  0  0  0
  185.7500  178.1560  147.1680 C   0  0  0  0  0  2  0  0  0  0  0  0
  188.1450  177.9420  146.8160 C   0  0  0  0  0  2  0  0  0  0  0  0
  188.0660  177.0670  148.0560 C   0  0  0  0  0  1  0  0  0  0  0  0
  2  6  1  0  0  0  0
  4  5  2  0  0  0  0
  5  9  1  0  0  0  0
  5 10  1  0  0  0  0
  6  1  1  0  0  0  0
  7  8  1  0  0  0  0
  7  2  1  0  0  0  0
  8  3  1  6  0  0  0
  8 13  1  0  0  0  0
  9  3  2  0  0  0  0
 10  7  2  0  0  0  0
 11  9  1  0  0  0  0
 12  4  1  0  0  0  0
 12 11  2  0  0  0  0
 13  1  1  0  0  0  0
 13 38  1  1  0  0  0
 14 16  3  0  0  0  0
 15 14  1  0  0  0  0
 16 11  1  0  0  0  0
 17 10  1  0  0  0  0
 17 18  2  0  0  0  0
 19 18  1  0  0  0  0
 19 20  1  0  0  0  0
 21 23  1  0  0  0  0
 21 24  2  0  0  0  0
 22 20  2  0  0  0  0
 22 28  1  0  0  0  0
 23 19  2  0  0  0  0
 24 22  1  0  0  0  0
 25 24  1  0  0  0  0
 26 25  1  0  0  0  0
 27 25  1  0  0  0  0
 28 35  1  0  0  0  0
 29 35  1  0  0  0  0
 30 31  1  0  0  0  0
 31 37  1  0  0  0  0
 34 36  1  0  0  0  0
 34 29  1  0  0  0  0
 35 33  1  1  0  0  0
 36 31  1  0  0  0  0
 37 35  1  0  0  0  0
 37 32  2  0  0  0  0
 38 41  1  0  0  0  0
 39 40  2  0  0  0  0
 40 42  1  0  0  0  0
 41 40  1  0  0  0  0
 42 43  1  0  0  0  0
 43 44  1  1  0  0  0
 43 48  1  0  0  0  0
 44 45  1  0  0  0  0
 46 45  2  0  0  0  0
 47 46  1  0  0  0  0
 48 51  1  6  0  0  0
 48 55  1  0  0  0  0
 49 51  2  0  0  0  0
 50 51  1  0  0  0  0
 52 54  1  0  0  0  0
 52 50  1  0  0  0  0
 53 52  1  0  0  0  0
 55 56  1  0  0  0  0
 56 58  1  0  0  0  0
 56 57  2  0  0  0  0
 58 59  1  0  0  0  0
M  END
>  <MODEL>
3

>  <REMARK>
 VINA RESULT:      -6.4      3.668     12.730
  Name = 
  18 active torsions:
  status: ('A' for Active; 'I' for Inactive)
    1  A    between atoms: O_1  and  C_3
    2  A    between atoms: O_1  and  C_22
    3  A    between atoms: C_2  and  N_34
    4  A    between atoms: C_3  and  C_4
    5  A    between atoms: C_5  and  C_35
    6  A    between atoms: C_5  and  C_49
    7  A    between atoms: C_7  and  C_39
    8  A    between atoms: O_15  and  C_25
    9  A    between atoms: O_15  and  C_40
   10  A    between atoms: C_19  and  O_45
   11  A    between atoms: C_22  and  C_38
   12  A    between atoms: C_22  and  C_49
   13  A    between atoms: C_23  and  C_55
   14  A    between atoms: C_30  and  C_36
   15  A    between atoms: C_41  and  C_53
   16  A    between atoms: C_41  and  N_58
   17  A    between atoms: C_44  and  C_52
   18  A    between atoms: O_45  and  C_49
                            x       y       z     vdW  Elec       q    Type
                         _______ _______ _______ _____ _____    ______ ____

>  <TORSDO>
F 18

$$$$
=
 OpenBabel10222418173D

 59 63  0  0  1  0  0  0  0  0999 V2000
  189.7320  177.8850  139.3920 C   0  0  0  0  0  2  0  0  0  0  0  0
  187.5900  178.5660  140.4190 C   0  0  0  0  0  2  0  0  0  0  0  0
  189.9960  177.4040  143.1850 C   0  0  0  0  0  3  0  0  0  0  0  0
  187.2360  177.9110  145.3520 N   0  0  0  0  0  0  0  0  0  0  0  0
  187.8410  177.9150  144.1480 C   0  0  0  0  0  0  0  0  0  0  0  0
  188.6770  178.9750  139.4390 C   0  0  0  0  0  2  0  0  0  0  0  0
  188.1440  178.2070  141.7760 C   0  0  0  0  0  0  0  0  0  0  0  0
  189.4950  177.7470  141.9100 C   0  0  0  0  0  0  0  0  0  0  0  0
  189.1310  177.4900  144.2690 C   0  0  0  0  0  0  0  0  0  0  0  0
  187.2980  178.2770  142.9150 C   0  0  0  0  0  0  0  0  0  0  0  0
  189.2890  177.2200  145.6060 C   0  0  0  0  0  0  0  0  0  0  0  0
  188.1240  177.4800  146.2450 N   0  0  0  0  0  2  0  0  0  0  0  0
  190.4510  177.7990  140.7360 C   0  0  1  0  0  3  0  0  0  0  0  0
  191.4730  176.3100  146.7890 C   0  0  0  0  0  0  0  0  0  0  0  0
  192.6840  175.8100  147.4340 C   0  0  0  0  0  1  0  0  0  0  0  0
  190.4760  176.7220  146.2520 C   0  0  0  0  0  0  0  0  0  0  0  0
  185.9130  178.7530  142.8280 C   0  0  0  0  0  3  0  0  0  0  0  0
  184.9030  177.8920  142.7890 C   0  0  0  0  0  3  0  0  0  0  0  0
  183.5060  178.3220  142.6420 C   0  0  0  0  0  0  0  0  0  0  0  0
  182.9550  178.4000  141.3610 C   0  0  0  0  0  3  0  0  0  0  0  0
  181.4200  179.1320  143.5720 C   0  0  0  0  0  3  0  0  0  0  0  0
  181.6370  178.8430  141.1690 C   0  0  0  0  0  0  0  0  0  0  0  0
  182.7280  178.6850  143.7500 C   0  0  0  0  0  3  0  0  0  0  0  0
  180.8710  179.2280  142.2830 C   0  0  0  0  0  0  0  0  0  0  0  0
  179.4580  179.6950  142.0910 C   0  0  0  0  0  3  0  0  0  0  0  0
  179.3630  180.6880  140.9540 C   0  0  0  0  0  1  0  0  0  0  0  0
  178.9310  180.3260  143.3690 C   0  0  0  0  0  1  0  0  0  0  0  0
  181.0650  178.8990  139.8860 O   0  0  0  0  0  0  0  0  0  0  0  0
  182.5440  180.3770  138.6300 C   0  0  0  0  0  2  0  0  0  0  0  0
  179.1100  180.0500  136.2170 O   0  0  0  0  0  1  0  0  0  0  0  0
  180.2410  180.1210  136.9610 N   0  0  0  0  0  0  0  0  0  0  0  0
  180.2980  177.7370  137.2240 C   0  0  0  0  0  2  0  0  0  0  0  0
  182.7290  178.0130  138.5660 F   0  0  0  0  0  0  0  0  0  0  0  0
  181.5890  181.5490  138.4250 C   0  0  0  0  0  2  0  0  0  0  0  0
  181.7980  179.0340  138.6660 C   0  0  1  0  0  0  0  0  0  0  0  0
  180.9330  181.4020  137.0600 C   0  0  0  0  0  2  0  0  0  0  0  0
  180.8260  178.9280  137.5150 C   0  0  0  0  0  0  0  0  0  0  0  0
  191.4240  176.6260  140.7180 C   0  0  0  0  0  2  0  0  0  0  0  0
  192.6550  176.0000  138.2250 O   0  0  0  0  0  0  0  0  0  0  0  0
  191.5980  175.3820  138.5290 C   0  0  0  0  0  0  0  0  0  0  0  0
  190.9550  175.6260  139.7790 N   0  0  0  0  0  2  0  0  0  0  0  0
  191.0520  174.4380  137.6560 O   0  0  0  0  0  0  0  0  0  0  0  0
  191.3150  174.4370  136.2550 C   0  0  1  0  0  3  0  0  0  0  0  0
  192.1040  173.1810  135.8820 C   0  0  0  0  0  2  0  0  0  0  0  0
  193.5430  173.4820  135.5800 C   0  0  0  0  0  3  0  0  0  0  0  0
  194.4200  172.5510  135.2310 C   0  0  0  0  0  3  0  0  0  0  0  0
  194.0500  171.2200  135.1200 O   0  0  0  0  0  1  0  0  0  0  0  0
  189.9830  174.5370  135.4970 C   0  0  1  0  0  3  0  0  0  0  0  0
  190.2620  172.3260  134.6170 O   0  0  0  0  0  0  0  0  0  0  0  0
  188.0730  172.9010  135.2130 N   0  0  0  0  0  2  0  0  0  0  0  0
  189.4670  173.1960  135.0650 C   0  0  0  0  0  0  0  0  0  0  0  0
  187.4430  171.6550  134.7990 C   0  0  0  0  0  3  0  0  0  0  0  0
  187.9120  170.4950  135.6620 C   0  0  0  0  0  1  0  0  0  0  0  0
  185.9300  171.7680  134.8430 C   0  0  0  0  0  1  0  0  0  0  0  0
  189.0110  175.2390  136.2670 O   0  0  0  0  0  0  0  0  0  0  0  0
  188.5360  176.5020  135.8990 C   0  0  0  0  0  0  0  0  0  0  0  0
  189.4050  177.4710  135.6610 C   0  0  0  0  0  2  0  0  0  0  0  0
  187.0740  176.7990  135.8080 C   0  0  0  0  0  2  0  0  0  0  0  0
  186.8570  178.1420  135.1310 C   0  0  0  0  0  1  0  0  0  0  0  0
  1  6  1  0  0  0  0
  1 13  1  0  0  0  0
  2  7  1  0  0  0  0
  3  9  1  0  0  0  0
  4 12  1  0  0  0  0
  5  9  1  0  0  0  0
  5  4  2  0  0  0  0
  6  2  1  0  0  0  0
  7  8  1  0  0  0  0
  7 10  2  0  0  0  0
  8  3  2  0  0  0  0
  9 11  2  0  0  0  0
 10  5  1  0  0  0  0
 11 12  1  0  0  0  0
 11 16  1  0  0  0  0
 13 38  1  6  0  0  0
 13  8  1  0  0  0  0
 14 15  1  0  0  0  0
 16 14  3  0  0  0  0
 17 10  1  0  0  0  0
 18 17  2  0  0  0  0
 19 18  1  0  0  0  0
 19 23  1  0  0  0  0
 20 19  2  0  0  0  0
 21 23  2  0  0  0  0
 22 20  1  0  0  0  0
 22 24  2  0  0  0  0
 24 21  1  0  0  0  0
 25 24  1  0  0  0  0
 25 27  1  0  0  0  0
 26 25  1  0  0  0  0
 28 22  1  0  0  0  0
 29 35  1  0  0  0  0
 30 31  1  0  0  0  0
 31 36  1  0  0  0  0
 31 37  1  0  0  0  0
 32 37  2  0  0  0  0
 34 29  1  0  0  0  0
 35 33  1  6  0  0  0
 35 28  1  0  0  0  0
 36 34  1  0  0  0  0
 37 35  1  0  0  0  0
 39 40  2  0  0  0  0
 40 41  1  0  0  0  0
 41 38  1  0  0  0  0
 42 40  1  0  0  0  0
 43 44  1  6  0  0  0
 43 42  1  0  0  0  0
 45 44  1  0  0  0  0
 46 45  2  0  0  0  0
 47 46  1  0  0  0  0
 48 51  1  1  0  0  0
 48 43  1  0  0  0  0
 48 55  1  0  0  0  0
 49 51  2  0  0  0  0
 51 50  1  0  0  0  0
 52 54  1  0  0  0  0
 52 50  1  0  0  0  0
 52 53  1  0  0  0  0
 56 55  1  0  0  0  0
 57 56  2  0  0  0  0
 58 56  1  0  0  0  0
 59 58  1  0  0  0  0
M  END
>  <MODEL>
4

>  <REMARK>
 VINA RESULT:      -6.2      2.240      4.279
  Name = 
  18 active torsions:
  status: ('A' for Active; 'I' for Inactive)
    1  A    between atoms: O_1  and  C_3
    2  A    between atoms: O_1  and  C_22
    3  A    between atoms: C_2  and  N_34
    4  A    between atoms: C_3  and  C_4
    5  A    between atoms: C_5  and  C_35
    6  A    between atoms: C_5  and  C_49
    7  A    between atoms: C_7  and  C_39
    8  A    between atoms: O_15  and  C_25
    9  A    between atoms: O_15  and  C_40
   10  A    between atoms: C_19  and  O_45
   11  A    between atoms: C_22  and  C_38
   12  A    between atoms: C_22  and  C_49
   13  A    between atoms: C_23  and  C_55
   14  A    between atoms: C_30  and  C_36
   15  A    between atoms: C_41  and  C_53
   16  A    between atoms: C_41  and  N_58
   17  A    between atoms: C_44  and  C_52
   18  A    between atoms: O_45  and  C_49
                            x       y       z     vdW  Elec       q    Type
                         _______ _______ _______ _____ _____    ______ ____

>  <TORSDO>
F 18

$$$$
=
 OpenBabel10222418173D

 59 63  0  0  1  0  0  0  0  0999 V2000
  187.8060  178.3590  139.8770 C   0  0  0  0  0  2  0  0  0  0  0  0
  188.7300  176.8240  138.1760 C   0  0  0  0  0  2  0  0  0  0  0  0
  185.0240  177.4870  137.3910 C   0  0  0  0  0  3  0  0  0  0  0  0
  185.4840  175.1180  134.7930 N   0  0  0  0  0  0  0  0  0  0  0  0
  185.9030  175.8600  135.8390 C   0  0  0  0  0  0  0  0  0  0  0  0
  188.9600  178.1300  138.9180 C   0  0  0  0  0  2  0  0  0  0  0  0
  187.3760  176.7720  137.5100 C   0  0  0  0  0  0  0  0  0  0  0  0
  186.2890  177.5560  138.0160 C   0  0  1  0  0  3  0  0  0  0  0  0
  184.8750  176.6170  136.3180 C   0  0  0  0  0  0  0  0  0  0  0  0
  187.1730  175.8960  136.4110 C   0  0  0  0  0  0  0  0  0  0  0  0
  183.8030  176.3040  135.5180 C   0  0  0  0  0  0  0  0  0  0  0  0
  184.1960  175.3900  134.6000 N   0  0  0  0  0  0  0  0  0  0  0  0
  186.5180  178.5960  139.0940 C   0  0  1  0  0  3  0  0  0  0  0  0
  181.3450  177.2600  135.7160 C   0  0  0  0  0  0  0  0  0  0  0  0
  179.9840  177.7800  135.8270 C   0  0  0  0  0  1  0  0  0  0  0  0
  182.4660  176.8270  135.6240 C   0  0  0  0  0  0  0  0  0  0  0  0
  188.2600  175.0830  135.8520 C   0  0  0  0  0  3  0  0  0  0  0  0
  189.0550  174.3770  136.6480 C   0  0  0  0  0  3  0  0  0  0  0  0
  190.1900  173.5980  136.1370 C   0  0  0  0  0  0  0  0  0  0  0  0
  191.4710  173.8760  136.6190 C   0  0  0  0  0  3  0  0  0  0  0  0
  191.1270  171.9190  134.6620 C   0  0  0  0  0  3  0  0  0  0  0  0
  192.5910  173.1830  136.1320 C   0  0  0  0  0  0  0  0  0  0  0  0
  190.0220  172.6090  135.1590 C   0  0  0  0  0  3  0  0  0  0  0  0
  192.4180  172.2100  135.1330 C   0  0  0  0  0  0  0  0  0  0  0  0
  193.6050  171.4570  134.6110 C   0  0  0  0  0  3  0  0  0  0  0  0
  193.3410  169.9680  134.5960 C   0  0  0  0  0  1  0  0  0  0  0  0
  194.8340  171.7520  135.4540 C   0  0  0  0  0  1  0  0  0  0  0  0
  193.8800  173.4370  136.6310 O   0  0  0  0  0  0  0  0  0  0  0  0
  194.3720  175.6780  135.8030 C   0  0  0  0  0  2  0  0  0  0  0  0
  198.1120  174.1780  137.0220 O   0  0  0  0  0  1  0  0  0  0  0  0
  196.9060  174.6910  136.6750 N   0  0  0  0  0  0  0  0  0  0  0  0
  195.9330  173.9910  138.7540 C   0  0  0  0  0  2  0  0  0  0  0  0
  193.5690  175.2630  137.9960 F   0  0  0  0  0  0  0  0  0  0  0  0
  195.4640  175.3240  134.7990 C   0  0  0  0  0  2  0  0  0  0  0  0
  194.3760  174.7240  137.0080 C   0  0  1  0  0  0  0  0  0  0  0  0
  196.8160  175.5120  135.4720 C   0  0  0  0  0  2  0  0  0  0  0  0
  195.7740  174.5520  137.5530 C   0  0  0  0  0  0  0  0  0  0  0  0
  185.3470  178.7070  140.0620 C   0  0  0  0  0  2  0  0  0  0  0  0
  183.6450  178.1780  142.2860 O   0  0  0  0  0  0  0  0  0  0  0  0
  184.8910  178.1510  142.4820 C   0  0  0  0  0  0  0  0  0  0  0  0
  185.7950  178.3730  141.4000 N   0  0  0  0  0  2  0  0  0  0  0  0
  185.4040  177.8880  143.7530 O   0  0  0  0  0  0  0  0  0  0  0  0
  186.5240  178.5840  144.2960 C   0  0  1  0  0  3  0  0  0  0  0  0
  186.0440  179.5930  145.3400 C   0  0  0  0  0  2  0  0  0  0  0  0
  185.5730  178.9280  146.6010 C   0  0  0  0  0  3  0  0  0  0  0  0
  184.3200  178.5400  146.7910 C   0  0  0  0  0  3  0  0  0  0  0  0
  183.3530  178.7270  145.8150 O   0  0  0  0  0  1  0  0  0  0  0  0
  187.5120  177.5630  144.8790 C   0  0  1  0  0  3  0  0  0  0  0  0
  187.8930  175.7660  143.3410 O   0  0  0  0  0  0  0  0  0  0  0  0
  189.5000  177.4680  143.3160 N   0  0  0  0  0  2  0  0  0  0  0  0
  188.3030  176.8610  143.8160 C   0  0  0  0  0  0  0  0  0  0  0  0
  190.3740  176.8730  142.3150 C   0  0  0  0  0  3  0  0  0  0  0  0
  191.3750  177.8900  141.7920 C   0  0  0  0  0  1  0  0  0  0  0  0
  191.0960  175.6600  142.8740 C   0  0  0  0  0  1  0  0  0  0  0  0
  188.3690  178.1750  145.8390 O   0  0  0  0  0  0  0  0  0  0  0  0
  189.0220  177.4400  146.8340 C   0  0  0  0  0  0  0  0  0  0  0  0
  190.2940  177.1200  146.6650 C   0  0  0  0  0  2  0  0  0  0  0  0
  188.3120  176.9730  148.0640 C   0  0  0  0  0  2  0  0  0  0  0  0
  188.1720  178.1190  149.0510 C   0  0  0  0  0  1  0  0  0  0  0  0
  2  6  1  0  0  0  0
  4  5  2  0  0  0  0
  5  9  1  0  0  0  0
  5 10  1  0  0  0  0
  6  1  1  0  0  0  0
  7  8  1  0  0  0  0
  7  2  1  0  0  0  0
  8  3  1  6  0  0  0
  8 13  1  0  0  0  0
  9  3  2  0  0  0  0
 10  7  2  0  0  0  0
 11 16  1  0  0  0  0
 11  9  1  0  0  0  0
 12  4  1  0  0  0  0
 12 11  2  0  0  0  0
 13  1  1  0  0  0  0
 13 38  1  1  0  0  0
 14 15  1  0  0  0  0
 16 14  3  0  0  0  0
 17 10  1  0  0  0  0
 17 18  2  0  0  0  0
 19 20  1  0  0  0  0
 19 18  1  0  0  0  0
 21 24  2  0  0  0  0
 21 23  1  0  0  0  0
 22 20  2  0  0  0  0
 22 28  1  0  0  0  0
 23 19  2  0  0  0  0
 24 22  1  0  0  0  0
 25 24  1  0  0  0  0
 25 27  1  0  0  0  0
 26 25  1  0  0  0  0
 28 35  1  0  0  0  0
 29 35  1  0  0  0  0
 31 30  1  0  0  0  0
 31 37  1  0  0  0  0
 34 36  1  0  0  0  0
 34 29  1  0  0  0  0
 35 37  1  0  0  0  0
 35 33  1  1  0  0  0
 36 31  1  0  0  0  0
 37 32  2  0  0  0  0
 38 41  1  0  0  0  0
 39 40  2  0  0  0  0
 40 42  1  0  0  0  0
 41 40  1  0  0  0  0
 42 43  1  0  0  0  0
 43 48  1  0  0  0  0
 43 44  1  1  0  0  0
 44 45  1  0  0  0  0
 45 46  2  0  0  0  0
 47 46  1  0  0  0  0
 48 51  1  6  0  0  0
 48 55  1  0  0  0  0
 49 51  2  0  0  0  0
 50 51  1  0  0  0  0
 52 54  1  0  0  0  0
 52 50  1  0  0  0  0
 53 52  1  0  0  0  0
 55 56  1  0  0  0  0
 56 58  1  0  0  0  0
 57 56  2  0  0  0  0
 58 59  1  0  0  0  0
M  END
>  <MODEL>
5

>  <REMARK>
 VINA RESULT:      -6.0      3.564     12.475
  Name = 
  18 active torsions:
  status: ('A' for Active; 'I' for Inactive)
    1  A    between atoms: O_1  and  C_3
    2  A    between atoms: O_1  and  C_22
    3  A    between atoms: C_2  and  N_34
    4  A    between atoms: C_3  and  C_4
    5  A    between atoms: C_5  and  C_35
    6  A    between atoms: C_5  and  C_49
    7  A    between atoms: C_7  and  C_39
    8  A    between atoms: O_15  and  C_25
    9  A    between atoms: O_15  and  C_40
   10  A    between atoms: C_19  and  O_45
   11  A    between atoms: C_22  and  C_38
   12  A    between atoms: C_22  and  C_49
   13  A    between atoms: C_23  and  C_55
   14  A    between atoms: C_30  and  C_36
   15  A    between atoms: C_41  and  C_53
   16  A    between atoms: C_41  and  N_58
   17  A    between atoms: C_44  and  C_52
   18  A    between atoms: O_45  and  C_49
                            x       y       z     vdW  Elec       q    Type
                         _______ _______ _______ _____ _____    ______ ____

>  <TORSDO>
F 18

$$$$
=
 OpenBabel10222418173D

 59 63  0  0  1  0  0  0  0  0999 V2000
  189.8330  177.7240  138.2950 C   0  0  0  0  0  2  0  0  0  0  0  0
  187.5000  178.4410  138.6770 C   0  0  0  0  0  2  0  0  0  0  0  0
  189.1440  177.6600  142.0640 C   0  0  0  0  0  3  0  0  0  0  0  0
  185.9280  178.3050  143.4100 N   0  0  0  0  0  0  0  0  0  0  0  0
  186.8150  178.2010  142.4000 C   0  0  0  0  0  0  0  0  0  0  0  0
  188.7950  178.7780  137.9580 C   0  0  0  0  0  2  0  0  0  0  0  0
  187.6990  178.2480  140.1600 C   0  0  0  0  0  0  0  0  0  0  0  0
  188.9760  177.8480  140.6750 C   0  0  0  0  0  0  0  0  0  0  0  0
  188.0360  177.8320  142.8840 C   0  0  0  0  0  0  0  0  0  0  0  0
  186.5950  178.4110  141.0390 C   0  0  0  0  0  0  0  0  0  0  0  0
  187.8560  177.7120  144.2400 C   0  0  0  0  0  0  0  0  0  0  0  0
  186.5670  178.0020  144.5370 N   0  0  0  0  0  2  0  0  0  0  0  0
  190.1950  177.8050  139.7760 C   0  0  1  0  0  3  0  0  0  0  0  0
  189.6780  176.9980  146.0190 C   0  0  0  0  0  0  0  0  0  0  0  0
  190.6850  176.5940  146.9970 C   0  0  0  0  0  1  0  0  0  0  0  0
  188.8460  177.3250  145.2110 C   0  0  0  0  0  0  0  0  0  0  0  0
  185.2730  178.8300  140.5590 C   0  0  0  0  0  3  0  0  0  0  0  0
  184.7720  178.3300  139.4350 C   0  0  0  0  0  3  0  0  0  0  0  0
  183.4810  178.7640  138.8880 C   0  0  0  0  0  0  0  0  0  0  0  0
  182.5820  177.7970  138.4310 C   0  0  0  0  0  3  0  0  0  0  0  0
  181.9280  180.5000  138.2160 C   0  0  0  0  0  3  0  0  0  0  0  0
  181.3510  178.1660  137.8640 C   0  0  0  0  0  0  0  0  0  0  0  0
  183.1440  180.1200  138.7840 C   0  0  0  0  0  3  0  0  0  0  0  0
  181.0320  179.5290  137.7410 C   0  0  0  0  0  0  0  0  0  0  0  0
  179.7170  179.9360  137.1450 C   0  0  0  0  0  3  0  0  0  0  0  0
  179.9170  180.6790  135.8420 C   0  0  0  0  0  1  0  0  0  0  0  0
  178.9400  180.8070  138.1180 C   0  0  0  0  0  1  0  0  0  0  0  0
  180.4300  177.1990  137.4270 O   0  0  0  0  0  0  0  0  0  0  0  0
  179.8700  175.1570  136.2170 C   0  0  0  0  0  2  0  0  0  0  0  0
  184.0400  175.5180  135.7680 O   0  0  0  0  0  1  0  0  0  0  0  0
  182.6910  175.4190  135.8630 N   0  0  0  0  0  0  0  0  0  0  0  0
  182.4110  177.7160  135.2280 C   0  0  0  0  0  2  0  0  0  0  0  0
  179.6500  177.3180  135.2650 F   0  0  0  0  0  0  0  0  0  0  0  0
  180.8400  174.2010  136.9050 C   0  0  0  0  0  2  0  0  0  0  0  0
  180.4370  176.5820  136.1370 C   0  0  1  0  0  0  0  0  0  0  0  0
  182.0990  174.1000  136.0570 C   0  0  0  0  0  2  0  0  0  0  0  0
  181.8570  176.5690  135.6250 C   0  0  0  0  0  0  0  0  0  0  0  0
  191.1460  176.6700  140.1300 C   0  0  0  0  0  2  0  0  0  0  0  0
  193.7210  176.4690  138.9250 O   0  0  0  0  0  0  0  0  0  0  0  0
  192.7610  175.8760  138.3600 C   0  0  0  0  0  0  0  0  0  0  0  0
  191.4560  175.9100  138.9340 N   0  0  0  0  0  2  0  0  0  0  0  0
  192.9650  175.1640  137.1760 O   0  0  0  0  0  0  0  0  0  0  0  0
  192.4850  175.6120  135.9110 C   0  0  1  0  0  3  0  0  0  0  0  0
  193.3850  176.7320  135.3870 C   0  0  0  0  0  2  0  0  0  0  0  0
  194.7210  176.2220  134.9320 C   0  0  0  0  0  3  0  0  0  0  0  0
  195.7970  176.9910  134.8350 C   0  0  0  0  0  3  0  0  0  0  0  0
  195.7480  178.3380  135.1600 O   0  0  0  0  0  1  0  0  0  0  0  0
  192.4180  174.4160  134.9510 C   0  0  1  0  0  3  0  0  0  0  0  0
  192.4660  172.3620  136.1830 O   0  0  0  0  0  0  0  0  0  0  0  0
  194.4930  172.9880  135.1940 N   0  0  0  0  0  2  0  0  0  0  0  0
  193.1100  173.2030  135.4980 C   0  0  0  0  0  0  0  0  0  0  0  0
  195.2860  171.8730  135.6920 C   0  0  0  0  0  3  0  0  0  0  0  0
  196.6480  171.8310  135.0210 C   0  0  0  0  0  1  0  0  0  0  0  0
  195.4420  171.9460  137.2010 C   0  0  0  0  0  1  0  0  0  0  0  0
  191.0700  174.1230  134.5940 O   0  0  0  0  0  0  0  0  0  0  0  0
  189.9800  174.7050  135.2500 C   0  0  0  0  0  0  0  0  0  0  0  0
  189.4250  174.0660  136.2660 C   0  0  0  0  0  2  0  0  0  0  0  0
  189.4000  176.0110  134.8090 C   0  0  0  0  0  2  0  0  0  0  0  0
  187.8830  175.9250  134.7870 C   0  0  0  0  0  1  0  0  0  0  0  0
  1 13  1  0  0  0  0
  2  7  1  0  0  0  0
  3  9  1  0  0  0  0
  4 12  1  0  0  0  0
  5  9  1  0  0  0  0
  5  4  2  0  0  0  0
  6  1  1  0  0  0  0
  6  2  1  0  0  0  0
  7  8  1  0  0  0  0
  7 10  2  0  0  0  0
  8  3  2  0  0  0  0
  9 11  2  0  0  0  0
 10  5  1  0  0  0  0
 11 12  1  0  0  0  0
 11 16  1  0  0  0  0
 13 38  1  1  0  0  0
 13  8  1  0  0  0  0
 14 15  1  0  0  0  0
 16 14  3  0  0  0  0
 17 10  1  0  0  0  0
 18 17  2  0  0  0  0
 19 18  1  0  0  0  0
 20 19  2  0  0  0  0
 21 23  2  0  0  0  0
 22 20  1  0  0  0  0
 23 19  1  0  0  0  0
 24 22  2  0  0  0  0
 24 21  1  0  0  0  0
 25 24  1  0  0  0  0
 25 27  1  0  0  0  0
 26 25  1  0  0  0  0
 28 22  1  0  0  0  0
 29 34  1  0  0  0  0
 30 31  1  0  0  0  0
 31 36  1  0  0  0  0
 32 37  2  0  0  0  0
 35 33  1  6  0  0  0
 35 29  1  0  0  0  0
 35 28  1  0  0  0  0
 36 34  1  0  0  0  0
 37 31  1  0  0  0  0
 37 35  1  0  0  0  0
 40 39  2  0  0  0  0
 40 41  1  0  0  0  0
 41 38  1  0  0  0  0
 42 40  1  0  0  0  0
 43 44  1  6  0  0  0
 43 42  1  0  0  0  0
 45 44  1  0  0  0  0
 46 45  2  0  0  0  0
 46 47  1  0  0  0  0
 48 55  1  1  0  0  0
 48 51  1  0  0  0  0
 48 43  1  0  0  0  0
 50 51  1  0  0  0  0
 50 52  1  0  0  0  0
 51 49  2  0  0  0  0
 52 54  1  0  0  0  0
 53 52  1  0  0  0  0
 55 56  1  0  0  0  0
 56 57  2  0  0  0  0
 58 56  1  0  0  0  0
 59 58  1  0  0  0  0
M  END
>  <MODEL>
6

>  <REMARK>
 VINA RESULT:      -5.9      2.353      3.884
  Name = 
  18 active torsions:
  status: ('A' for Active; 'I' for Inactive)
    1  A    between atoms: O_1  and  C_3
    2  A    between atoms: O_1  and  C_22
    3  A    between atoms: C_2  and  N_34
    4  A    between atoms: C_3  and  C_4
    5  A    between atoms: C_5  and  C_35
    6  A    between atoms: C_5  and  C_49
    7  A    between atoms: C_7  and  C_39
    8  A    between atoms: O_15  and  C_25
    9  A    between atoms: O_15  and  C_40
   10  A    between atoms: C_19  and  O_45
   11  A    between atoms: C_22  and  C_38
   12  A    between atoms: C_22  and  C_49
   13  A    between atoms: C_23  and  C_55
   14  A    between atoms: C_30  and  C_36
   15  A    between atoms: C_41  and  C_53
   16  A    between atoms: C_41  and  N_58
   17  A    between atoms: C_44  and  C_52
   18  A    between atoms: O_45  and  C_49
                            x       y       z     vdW  Elec       q    Type
                         _______ _______ _______ _____ _____    ______ ____

>  <TORSDO>
F 18

$$$$
=
 OpenBabel10222418173D

 59 63  0  0  1  0  0  0  0  0999 V2000
  190.3160  177.9640  139.6970 C   0  0  0  0  0  2  0  0  0  0  0  0
  188.0960  178.5850  140.5840 C   0  0  0  0  0  2  0  0  0  0  0  0
  190.3010  177.3370  143.4770 C   0  0  0  0  0  3  0  0  0  0  0  0
  187.3810  177.7350  145.4480 N   0  0  0  0  0  0  0  0  0  0  0  0
  188.0750  177.7920  144.2940 C   0  0  0  0  0  0  0  0  0  0  0  0
  189.2480  179.0420  139.7060 C   0  0  0  0  0  2  0  0  0  0  0  0
  188.5510  178.1790  141.9650 C   0  0  0  0  0  0  0  0  0  0  0  0
  189.8930  177.7260  142.1820 C   0  0  0  0  0  0  0  0  0  0  0  0
  189.3570  177.3730  144.4960 C   0  0  0  0  0  0  0  0  0  0  0  0
  187.6220  178.1970  143.0390 C   0  0  0  0  0  0  0  0  0  0  0  0
  189.4170  177.0530  145.8300 C   0  0  0  0  0  0  0  0  0  0  0  0
  188.2050  177.2780  146.3880 N   0  0  0  0  0  2  0  0  0  0  0  0
  190.9340  177.8310  141.0860 C   0  0  1  0  0  3  0  0  0  0  0  0
  191.5120  176.1160  147.1450 C   0  0  0  0  0  0  0  0  0  0  0  0
  192.6690  175.6070  147.8760 C   0  0  0  0  0  1  0  0  0  0  0  0
  190.5580  176.5410  146.5430 C   0  0  0  0  0  0  0  0  0  0  0  0
  186.2410  178.6640  142.8660 C   0  0  0  0  0  3  0  0  0  0  0  0
  185.2210  177.8230  142.9910 C   0  0  0  0  0  3  0  0  0  0  0  0
  183.8290  178.2340  142.7680 C   0  0  0  0  0  0  0  0  0  0  0  0
  183.3570  178.3330  141.4580 C   0  0  0  0  0  3  0  0  0  0  0  0
  181.6760  178.9880  143.5850 C   0  0  0  0  0  3  0  0  0  0  0  0
  182.0450  178.7600  141.1940 C   0  0  0  0  0  0  0  0  0  0  0  0
  182.9790  178.5570  143.8330 C   0  0  0  0  0  3  0  0  0  0  0  0
  181.2050  179.1060  142.2670 C   0  0  0  0  0  0  0  0  0  0  0  0
  179.7990  179.5550  142.0000 C   0  0  0  0  0  3  0  0  0  0  0  0
  179.7750  180.7270  141.0450 C   0  0  0  0  0  1  0  0  0  0  0  0
  179.1080  179.9350  143.2980 C   0  0  0  0  0  1  0  0  0  0  0  0
  181.5520  178.8370  139.8800 O   0  0  0  0  0  0  0  0  0  0  0  0
  182.0180  176.5690  139.1140 C   0  0  0  0  0  2  0  0  0  0  0  0
  181.6370  178.8040  135.5680 O   0  0  0  0  0  1  0  0  0  0  0  0
  181.7100  178.0640  136.7010 N   0  0  0  0  0  0  0  0  0  0  0  0
  179.6780  179.0240  137.5400 C   0  0  0  0  0  2  0  0  0  0  0  0
  179.8460  177.2990  139.7270 F   0  0  0  0  0  0  0  0  0  0  0  0
  183.2150  176.8640  138.2160 C   0  0  0  0  0  2  0  0  0  0  0  0
  181.0210  177.7370  139.1360 C   0  0  1  0  0  0  0  0  0  0  0  0
  182.7180  177.0120  136.7850 C   0  0  0  0  0  2  0  0  0  0  0  0
  180.7200  178.2140  137.7350 C   0  0  0  0  0  0  0  0  0  0  0  0
  191.9190  176.6690  141.0970 C   0  0  0  0  0  2  0  0  0  0  0  0
  192.6430  176.5990  138.3420 O   0  0  0  0  0  0  0  0  0  0  0  0
  191.8610  175.7050  138.7650 C   0  0  0  0  0  0  0  0  0  0  0  0
  191.4890  175.6650  140.1420 N   0  0  0  0  0  2  0  0  0  0  0  0
  191.3610  174.7300  137.8980 O   0  0  0  0  0  0  0  0  0  0  0  0
  191.1710  174.9590  136.5040 C   0  0  1  0  0  3  0  0  0  0  0  0
  192.4230  174.5290  135.7380 C   0  0  0  0  0  2  0  0  0  0  0  0
  193.5420  174.1290  136.6540 C   0  0  0  0  0  3  0  0  0  0  0  0
  194.7770  174.5970  136.5380 C   0  0  0  0  0  3  0  0  0  0  0  0
  195.1110  175.5040  135.5450 O   0  0  0  0  0  1  0  0  0  0  0  0
  189.9150  174.2060  136.0410 C   0  0  1  0  0  3  0  0  0  0  0  0
  187.6610  174.7020  135.3960 O   0  0  0  0  0  0  0  0  0  0  0  0
  188.7280  176.3520  136.6670 N   0  0  0  0  0  2  0  0  0  0  0  0
  188.7030  175.0890  135.9920 C   0  0  0  0  0  0  0  0  0  0  0  0
  187.6350  177.3140  136.6640 C   0  0  0  0  0  3  0  0  0  0  0  0
  186.7180  177.1000  137.8570 C   0  0  0  0  0  1  0  0  0  0  0  0
  188.1620  178.7380  136.6520 C   0  0  0  0  0  1  0  0  0  0  0  0
  190.1370  173.5660  134.7880 O   0  0  0  0  0  0  0  0  0  0  0  0
  190.3840  172.1940  134.6820 C   0  0  0  0  0  0  0  0  0  0  0  0
  189.3600  171.3580  134.6310 C   0  0  0  0  0  2  0  0  0  0  0  0
  191.7730  171.6420  134.6670 C   0  0  0  0  0  2  0  0  0  0  0  0
  191.8310  170.3560  135.4750 C   0  0  0  0  0  1  0  0  0  0  0  0
  1  6  1  0  0  0  0
  1 13  1  0  0  0  0
  2  7  1  0  0  0  0
  3  9  1  0  0  0  0
  4 12  1  0  0  0  0
  5  9  1  0  0  0  0
  5  4  2  0  0  0  0
  6  2  1  0  0  0  0
  7  8  1  0  0  0  0
  7 10  2  0  0  0  0
  8  3  2  0  0  0  0
  9 11  2  0  0  0  0
 10  5  1  0  0  0  0
 11 12  1  0  0  0  0
 11 16  1  0  0  0  0
 13 38  1  6  0  0  0
 13  8  1  0  0  0  0
 14 15  1  0  0  0  0
 16 14  3  0  0  0  0
 17 18  2  0  0  0  0
 17 10  1  0  0  0  0
 19 18  1  0  0  0  0
 19 23  1  0  0  0  0
 20 19  2  0  0  0  0
 21 23  2  0  0  0  0
 22 20  1  0  0  0  0
 22 24  2  0  0  0  0
 24 21  1  0  0  0  0
 25 24  1  0  0  0  0
 25 27  1  0  0  0  0
 26 25  1  0  0  0  0
 28 22  1  0  0  0  0
 29 35  1  0  0  0  0
 30 31  1  0  0  0  0
 31 36  1  0  0  0  0
 31 37  1  0  0  0  0
 32 37  2  0  0  0  0
 34 29  1  0  0  0  0
 35 33  1  1  0  0  0
 35 28  1  0  0  0  0
 36 34  1  0  0  0  0
 37 35  1  0  0  0  0
 39 40  2  0  0  0  0
 40 41  1  0  0  0  0
 41 38  1  0  0  0  0
 42 40  1  0  0  0  0
 43 44  1  6  0  0  0
 43 42  1  0  0  0  0
 44 45  1  0  0  0  0
 46 45  2  0  0  0  0
 47 46  1  0  0  0  0
 48 55  1  6  0  0  0
 48 43  1  0  0  0  0
 49 51  2  0  0  0  0
 51 48  1  0  0  0  0
 51 50  1  0  0  0  0
 52 50  1  0  0  0  0
 52 53  1  0  0  0  0
 54 52  1  0  0  0  0
 56 55  1  0  0  0  0
 57 56  2  0  0  0  0
 58 56  1  0  0  0  0
 58 59  1  0  0  0  0
M  END
>  <MODEL>
7

>  <REMARK>
 VINA RESULT:      -5.2      1.970      4.298
  Name = 
  18 active torsions:
  status: ('A' for Active; 'I' for Inactive)
    1  A    between atoms: O_1  and  C_3
    2  A    between atoms: O_1  and  C_22
    3  A    between atoms: C_2  and  N_34
    4  A    between atoms: C_3  and  C_4
    5  A    between atoms: C_5  and  C_35
    6  A    between atoms: C_5  and  C_49
    7  A    between atoms: C_7  and  C_39
    8  A    between atoms: O_15  and  C_25
    9  A    between atoms: O_15  and  C_40
   10  A    between atoms: C_19  and  O_45
   11  A    between atoms: C_22  and  C_38
   12  A    between atoms: C_22  and  C_49
   13  A    between atoms: C_23  and  C_55
   14  A    between atoms: C_30  and  C_36
   15  A    between atoms: C_41  and  C_53
   16  A    between atoms: C_41  and  N_58
   17  A    between atoms: C_44  and  C_52
   18  A    between atoms: O_45  and  C_49
                            x       y       z     vdW  Elec       q    Type
                         _______ _______ _______ _____ _____    ______ ____

>  <TORSDO>
F 18

$$$$
=
 OpenBabel10222418173D

 59 63  0  0  1  0  0  0  0  0999 V2000
  187.4000  177.4450  137.2170 C   0  0  0  0  0  2  0  0  0  0  0  0
  188.3050  177.8020  139.4880 C   0  0  0  0  0  2  0  0  0  0  0  0
  191.1670  176.7450  137.1480 C   0  0  0  0  0  3  0  0  0  0  0  0
  193.1520  176.7820  140.0860 N   0  0  0  0  0  0  0  0  0  0  0  0
  191.9970  176.9380  139.4070 C   0  0  1  0  0  3  0  0  0  0  0  0
  187.4330  178.4000  138.3960 C   0  0  0  0  0  2  0  0  0  0  0  0
  189.6760  177.4210  138.9860 C   0  0  0  0  0  0  0  0  0  0  0  0
  189.8810  177.1130  137.6010 C   0  0  0  0  0  0  0  0  0  0  0  0
  192.1880  176.6570  138.0860 C   0  0  0  0  0  0  0  0  0  0  0  0
  190.7520  177.3160  139.9070 C   0  0  0  0  0  0  0  0  0  0  0  0
  193.5150  176.3190  137.9860 C   0  0  0  0  0  0  0  0  0  0  0  0
  194.0800  176.3990  139.2130 N   0  0  0  0  0  0  0  0  0  0  0  0
  188.7860  177.3530  136.5830 C   0  0  1  0  0  3  0  0  0  0  0  0
  194.8080  175.5850  135.7980 C   0  0  0  0  0  0  0  0  0  0  0  0
  195.5300  175.1830  134.5940 C   0  0  0  0  0  1  0  0  0  0  0  0
  194.2160  175.9200  136.7930 C   0  0  0  0  0  0  0  0  0  0  0  0
  190.5910  177.6320  141.3310 C   0  0  0  0  0  3  0  0  0  0  0  0
  190.4980  176.6630  142.2340 C   0  0  0  0  0  3  0  0  0  0  0  0
  190.2770  176.9330  143.6600 C   0  0  0  0  0  0  0  0  0  0  0  0
  189.0210  177.3800  144.0760 C   0  0  0  0  0  3  0  0  0  0  0  0
  191.0720  177.0930  145.9440 C   0  0  0  0  0  3  0  0  0  0  0  0
  188.7740  177.6890  145.4230 C   0  0  0  0  0  0  0  0  0  0  0  0
  191.3020  176.7840  144.6040 C   0  0  0  0  0  3  0  0  0  0  0  0
  189.8140  177.5600  146.3600 C   0  0  0  0  0  0  0  0  0  0  0  0
  189.5620  177.8780  147.8040 C   0  0  0  0  0  3  0  0  0  0  0  0
  190.8440  177.8310  148.6040 C   0  0  0  0  0  1  0  0  0  0  0  0
  188.5540  176.9050  148.3930 C   0  0  0  0  0  1  0  0  0  0  0  0
  187.5060  178.1130  145.8550 O   0  0  0  0  0  0  0  0  0  0  0  0
  186.3830  176.8850  144.0720 C   0  0  0  0  0  2  0  0  0  0  0  0
  184.2550  180.5080  144.3370 O   0  0  0  0  0  1  0  0  0  0  0  0
  184.9000  179.3180  144.2770 N   0  0  0  0  0  0  0  0  0  0  0  0
  184.7670  179.0510  146.6590 C   0  0  0  0  0  2  0  0  0  0  0  0
  185.9210  176.5270  146.3710 F   0  0  0  0  0  0  0  0  0  0  0  0
  186.4540  177.9430  142.9750 C   0  0  0  0  0  2  0  0  0  0  0  0
  186.2650  177.5190  145.4670 C   0  0  1  0  0  0  0  0  0  0  0  0
  185.1450  178.7190  142.9690 C   0  0  0  0  0  2  0  0  0  0  0  0
  185.2010  178.5900  145.4830 C   0  0  0  0  0  0  0  0  0  0  0  0
  188.7710  176.3050  135.4770 C   0  0  0  0  0  2  0  0  0  0  0  0
  186.4990  177.7820  134.5940 O   0  0  0  0  0  0  0  0  0  0  0  0
  186.3240  176.5760  134.9190 C   0  0  0  0  0  0  0  0  0  0  0  0
  187.4290  175.7740  135.3350 N   0  0  0  0  0  2  0  0  0  0  0  0
  185.0520  176.0020  134.8590 O   0  0  0  0  0  0  0  0  0  0  0  0
  184.5800  175.0640  135.8250 C   0  0  1  0  0  3  0  0  0  0  0  0
  185.7690  174.4060  136.5260 C   0  0  0  0  0  2  0  0  0  0  0  0
  186.1430  173.0940  135.9020 C   0  0  0  0  0  3  0  0  0  0  0  0
  185.5730  171.9440  136.2350 C   0  0  0  0  0  3  0  0  0  0  0  0
  184.5750  171.8880  137.1950 O   0  0  0  0  0  1  0  0  0  0  0  0
  183.6480  175.7870  136.8070 C   0  0  1  0  0  3  0  0  0  0  0  0
  182.4250  173.7280  136.8680 O   0  0  0  0  0  0  0  0  0  0  0  0
  181.4820  175.4920  138.0830 N   0  0  0  0  0  2  0  0  0  0  0  0
  182.4880  174.9350  137.2290 C   0  0  0  0  0  0  0  0  0  0  0  0
  180.2920  174.7830  138.5320 C   0  0  0  0  0  3  0  0  0  0  0  0
  179.9910  175.0940  139.9890 C   0  0  0  0  0  1  0  0  0  0  0  0
  179.0950  175.1210  137.6610 C   0  0  0  0  0  1  0  0  0  0  0  0
  184.3720  176.2680  137.9370 O   0  0  0  0  0  0  0  0  0  0  0  0
  183.9320  177.3530  138.7000 C   0  0  0  0  0  0  0  0  0  0  0  0
  183.5030  177.1400  139.9330 C   0  0  0  0  0  2  0  0  0  0  0  0
  183.8960  178.7420  138.1490 C   0  0  0  0  0  2  0  0  0  0  0  0
  184.0690  179.7520  139.2710 C   0  0  0  0  0  1  0  0  0  0  0  0
  1  6  1  0  0  0  0
  3  8  2  0  0  0  0
  3  9  1  0  0  0  0
  5  9  1  1  0  0  0
  5 10  1  0  0  0  0
  5  4  1  0  0  0  0
  6  2  1  0  0  0  0
  7  2  1  0  0  0  0
  7 10  2  0  0  0  0
  8  7  1  0  0  0  0
 10 17  1  0  0  0  0
 11  9  2  0  0  0  0
 11 12  1  0  0  0  0
 12  4  2  0  0  0  0
 13 38  1  6  0  0  0
 13  1  1  0  0  0  0
 13  8  1  0  0  0  0
 14 16  3  0  0  0  0
 15 14  1  0  0  0  0
 16 11  1  0  0  0  0
 17 18  2  0  0  0  0
 18 19  1  0  0  0  0
 19 20  2  0  0  0  0
 19 23  1  0  0  0  0
 20 22  1  0  0  0  0
 21 24  1  0  0  0  0
 22 28  1  0  0  0  0
 22 24  2  0  0  0  0
 23 21  2  0  0  0  0
 24 25  1  0  0  0  0
 25 27  1  0  0  0  0
 25 26  1  0  0  0  0
 29 35  1  0  0  0  0
 31 30  1  0  0  0  0
 31 37  1  0  0  0  0
 34 29  1  0  0  0  0
 35 37  1  0  0  0  0
 35 28  1  0  0  0  0
 35 33  1  1  0  0  0
 36 34  1  0  0  0  0
 36 31  1  0  0  0  0
 37 32  2  0  0  0  0
 39 40  2  0  0  0  0
 40 41  1  0  0  0  0
 41 38  1  0  0  0  0
 42 40  1  0  0  0  0
 42 43  1  0  0  0  0
 43 44  1  1  0  0  0
 43 48  1  0  0  0  0
 45 46  2  0  0  0  0
 45 44  1  0  0  0  0
 46 47  1  0  0  0  0
 48 51  1  1  0  0  0
 48 55  1  0  0  0  0
 49 51  2  0  0  0  0
 50 52  1  0  0  0  0
 51 50  1  0  0  0  0
 52 53  1  0  0  0  0
 54 52  1  0  0  0  0
 55 56  1  0  0  0  0
 56 57  2  0  0  0  0
 58 56  1  0  0  0  0
 58 59  1  0  0  0  0
M  END
>  <MODEL>
8

>  <REMARK>
 VINA RESULT:      -4.9      4.098      9.854
  Name = 
  18 active torsions:
  status: ('A' for Active; 'I' for Inactive)
    1  A    between atoms: O_1  and  C_3
    2  A    between atoms: O_1  and  C_22
    3  A    between atoms: C_2  and  N_34
    4  A    between atoms: C_3  and  C_4
    5  A    between atoms: C_5  and  C_35
    6  A    between atoms: C_5  and  C_49
    7  A    between atoms: C_7  and  C_39
    8  A    between atoms: O_15  and  C_25
    9  A    between atoms: O_15  and  C_40
   10  A    between atoms: C_19  and  O_45
   11  A    between atoms: C_22  and  C_38
   12  A    between atoms: C_22  and  C_49
   13  A    between atoms: C_23  and  C_55
   14  A    between atoms: C_30  and  C_36
   15  A    between atoms: C_41  and  C_53
   16  A    between atoms: C_41  and  N_58
   17  A    between atoms: C_44  and  C_52
   18  A    between atoms: O_45  and  C_49
                            x       y       z     vdW  Elec       q    Type
                         _______ _______ _______ _____ _____    ______ ____

>  <TORSDO>
F 18

$$$$
=
 OpenBabel10222418173D

 59 63  0  0  1  0  0  0  0  0999 V2000
  189.6350  177.9040  138.3260 C   0  0  0  0  0  2  0  0  0  0  0  0
  187.2270  178.4040  138.0910 C   0  0  0  0  0  2  0  0  0  0  0  0
  188.0760  178.0370  141.8240 C   0  0  0  0  0  3  0  0  0  0  0  0
  184.5890  178.4440  142.3250 N   0  0  0  0  0  0  0  0  0  0  0  0
  185.6970  178.3600  141.5610 C   0  0  0  0  0  0  0  0  0  0  0  0
  188.6240  178.8200  137.6610 C   0  0  0  0  0  2  0  0  0  0  0  0
  187.0820  178.3380  139.5920 C   0  0  0  0  0  0  0  0  0  0  0  0
  188.2280  178.1090  140.4210 C   0  0  0  0  0  0  0  0  0  0  0  0
  186.7940  178.1530  142.3460 C   0  0  0  0  0  0  0  0  0  0  0  0
  185.7920  178.4500  140.1730 C   0  0  0  0  0  0  0  0  0  0  0  0
  186.3060  178.1120  143.6290 C   0  0  0  0  0  0  0  0  0  0  0  0
  184.9650  178.2880  143.5930 N   0  0  0  0  0  2  0  0  0  0  0  0
  189.6260  178.1270  139.8360 C   0  0  1  0  0  3  0  0  0  0  0  0
  187.6990  177.7240  145.8440 C   0  0  0  0  0  0  0  0  0  0  0  0
  188.4680  177.5190  147.0690 C   0  0  0  0  0  1  0  0  0  0  0  0
  187.0660  177.8980  144.8340 C   0  0  0  0  0  0  0  0  0  0  0  0
  184.5920  178.6950  139.3640 C   0  0  0  0  0  3  0  0  0  0  0  0
  184.0380  179.9010  139.3240 C   0  0  0  0  0  3  0  0  0  0  0  0
  182.8050  180.1770  138.5760 C   0  0  0  0  0  0  0  0  0  0  0  0
  182.0840  179.1050  138.0440 C   0  0  0  0  0  3  0  0  0  0  0  0
  181.2060  181.7150  137.6010 C   0  0  0  0  0  3  0  0  0  0  0  0
  180.9200  179.3220  137.2880 C   0  0  0  0  0  0  0  0  0  0  0  0
  182.3560  181.4860  138.3550 C   0  0  0  0  0  3  0  0  0  0  0  0
  180.4900  180.6390  137.0520 C   0  0  0  0  0  0  0  0  0  0  0  0
  179.2440  180.8840  136.2530 C   0  0  0  0  0  3  0  0  0  0  0  0
  179.3770  180.3270  134.8530 C   0  0  0  0  0  1  0  0  0  0  0  0
  178.9400  182.3720  136.1870 C   0  0  0  0  0  1  0  0  0  0  0  0
  180.1740  178.2490  136.7730 O   0  0  0  0  0  0  0  0  0  0  0  0
  179.4960  176.4640  135.2560 C   0  0  0  0  0  2  0  0  0  0  0  0
  181.9850  174.5520  138.0610 O   0  0  0  0  0  1  0  0  0  0  0  0
  181.2240  175.1660  137.1230 N   0  0  0  0  0  0  0  0  0  0  0  0
  182.8580  176.9010  136.8360 C   0  0  0  0  0  2  0  0  0  0  0  0
  181.2860  177.9460  134.7810 F   0  0  0  0  0  0  0  0  0  0  0  0
  178.9450  175.4780  136.2820 C   0  0  0  0  0  2  0  0  0  0  0  0
  180.6570  177.2910  135.8280 C   0  0  1  0  0  0  0  0  0  0  0  0
  180.0390  174.4770  136.6230 C   0  0  0  0  0  2  0  0  0  0  0  0
  181.6590  176.4020  136.5250 C   0  0  0  0  0  0  0  0  0  0  0  0
  190.5560  177.1230  140.5040 C   0  0  0  0  0  2  0  0  0  0  0  0
  192.6250  176.4540  138.6620 O   0  0  0  0  0  0  0  0  0  0  0  0
  191.6590  175.6500  138.7760 C   0  0  0  0  0  0  0  0  0  0  0  0
  190.6100  175.9120  139.7070 N   0  0  0  0  0  2  0  0  0  0  0  0
  191.6100  174.4860  138.0070 O   0  0  0  0  0  0  0  0  0  0  0  0
  192.2330  174.3740  136.7290 C   0  0  1  0  0  3  0  0  0  0  0  0
  193.5700  173.6460  136.8720 C   0  0  0  0  0  2  0  0  0  0  0  0
  194.5500  174.4120  137.7100 C   0  0  0  0  0  3  0  0  0  0  0  0
  195.3910  173.8330  138.5550 C   0  0  0  0  0  3  0  0  0  0  0  0
  195.4160  172.4560  138.7140 O   0  0  0  0  0  1  0  0  0  0  0  0
  191.2750  173.6570  135.7670 C   0  0  1  0  0  3  0  0  0  0  0  0
  191.0850  171.5720  134.6030 O   0  0  0  0  0  0  0  0  0  0  0  0
  193.0850  171.8890  135.7760 N   0  0  0  0  0  2  0  0  0  0  0  0
  191.7830  172.3080  135.3520 C   0  0  0  0  0  0  0  0  0  0  0  0
  193.6770  170.5930  135.4730 C   0  0  0  0  0  3  0  0  0  0  0  0
  195.0060  170.7560  134.7550 C   0  0  0  0  0  1  0  0  0  0  0  0
  193.8550  169.7670  136.7340 C   0  0  0  0  0  1  0  0  0  0  0  0
  189.9670  173.5650  136.3260 O   0  0  0  0  0  0  0  0  0  0  0  0
  188.9730  174.5120  136.0610 C   0  0  0  0  0  0  0  0  0  0  0  0
  188.2300  174.9600  137.0600 C   0  0  0  0  0  2  0  0  0  0  0  0
  188.6990  175.0030  134.6760 C   0  0  0  0  0  2  0  0  0  0  0  0
  187.4350  175.8460  134.6630 C   0  0  0  0  0  1  0  0  0  0  0  0
  1 13  1  0  0  0  0
  2  7  1  0  0  0  0
  3  9  1  0  0  0  0
  4 12  1  0  0  0  0
  5  4  2  0  0  0  0
  5  9  1  0  0  0  0
  6  2  1  0  0  0  0
  6  1  1  0  0  0  0
  7 10  2  0  0  0  0
  7  8  1  0  0  0  0
  8  3  2  0  0  0  0
  9 11  2  0  0  0  0
 10  5  1  0  0  0  0
 11 16  1  0  0  0  0
 12 11  1  0  0  0  0
 13  8  1  0  0  0  0
 13 38  1  1  0  0  0
 14 15  1  0  0  0  0
 16 14  3  0  0  0  0
 17 10  1  0  0  0  0
 18 17  2  0  0  0  0
 19 18  1  0  0  0  0
 20 19  2  0  0  0  0
 21 23  2  0  0  0  0
 22 20  1  0  0  0  0
 23 19  1  0  0  0  0
 24 22  2  0  0  0  0
 24 21  1  0  0  0  0
 25 24  1  0  0  0  0
 26 25  1  0  0  0  0
 27 25  1  0  0  0  0
 28 22  1  0  0  0  0
 29 35  1  0  0  0  0
 29 34  1  0  0  0  0
 31 30  1  0  0  0  0
 34 36  1  0  0  0  0
 35 33  1  6  0  0  0
 35 37  1  0  0  0  0
 35 28  1  0  0  0  0
 36 31  1  0  0  0  0
 37 32  2  0  0  0  0
 37 31  1  0  0  0  0
 39 40  2  0  0  0  0
 40 41  1  0  0  0  0
 41 38  1  0  0  0  0
 42 40  1  0  0  0  0
 43 44  1  1  0  0  0
 43 42  1  0  0  0  0
 44 45  1  0  0  0  0
 45 46  2  0  0  0  0
 46 47  1  0  0  0  0
 48 51  1  1  0  0  0
 48 55  1  0  0  0  0
 48 43  1  0  0  0  0
 49 51  2  0  0  0  0
 51 50  1  0  0  0  0
 52 50  1  0  0  0  0
 52 54  1  0  0  0  0
 53 52  1  0  0  0  0
 56 55  1  0  0  0  0
 56 57  2  0  0  0  0
 58 56  1  0  0  0  0
 59 58  1  0  0  0  0
M  END
>  <MODEL>
9

>  <REMARK>
 VINA RESULT:      -4.8      2.860      4.597
  Name = 
  18 active torsions:
  status: ('A' for Active; 'I' for Inactive)
    1  A    between atoms: O_1  and  C_3
    2  A    between atoms: O_1  and  C_22
    3  A    between atoms: C_2  and  N_34
    4  A    between atoms: C_3  and  C_4
    5  A    between atoms: C_5  and  C_35
    6  A    between atoms: C_5  and  C_49
    7  A    between atoms: C_7  and  C_39
    8  A    between atoms: O_15  and  C_25
    9  A    between atoms: O_15  and  C_40
   10  A    between atoms: C_19  and  O_45
   11  A    between atoms: C_22  and  C_38
   12  A    between atoms: C_22  and  C_49
   13  A    between atoms: C_23  and  C_55
   14  A    between atoms: C_30  and  C_36
   15  A    between atoms: C_41  and  C_53
   16  A    between atoms: C_41  and  N_58
   17  A    between atoms: C_44  and  C_52
   18  A    between atoms: O_45  and  C_49
                            x       y       z     vdW  Elec       q    Type
                         _______ _______ _______ _____ _____    ______ ____

>  <TORSDO>
F 18

$$$$
