=
 OpenBabel10222417013D

 30 32  0  0  1  0  0  0  0  0999 V2000
  187.3690  178.2540  138.8610 C   0  0  0  0  0  0  0  0  0  0  0  0
  190.5260  176.9860  137.6510 O   0  0  0  0  0  0  0  0  0  0  0  0
  187.6630  178.3430  140.3030 C   0  0  0  0  0  0  0  0  0  0  0  0
  188.8640  177.9290  140.7740 C   0  0  0  0  0  0  0  0  0  0  0  0
  189.8180  177.1250  139.9250 C   0  0  0  0  0  2  0  0  0  0  0  0
  186.2460  178.6100  138.4170 O   0  0  0  0  0  0  0  0  0  0  0  0
  188.3670  177.7890  137.9550 N   0  0  0  0  0  2  0  0  0  0  0  0
  189.6130  177.3100  138.4540 C   0  0  0  0  0  0  0  0  0  0  0  0
  189.0920  177.2270  143.1840 C   0  0  0  0  0  0  0  0  0  0  0  0
  188.5540  176.1110  142.9530 O   0  0  0  0  0  0  0  0  0  0  0  0
  189.2650  178.1810  142.1260 N   0  0  0  0  0  2  0  0  0  0  0  0
  187.3560  178.1450  145.3280 O   0  0  0  0  0  1  0  0  0  0  0  0
  191.2660  177.0290  146.3440 C   0  0  2  0  0  3  0  0  0  0  0  0
  189.5540  177.5400  144.5740 C   0  0  1  0  0  3  0  0  0  0  0  0
  188.4320  177.2970  145.5930 C   0  0  1  0  0  3  0  0  0  0  0  0
  190.1470  176.7090  147.3280 C   0  0  0  0  0  2  0  0  0  0  0  0
  188.9240  177.5620  147.0140 C   0  0  0  0  0  2  0  0  0  0  0  0
  190.8030  176.7270  144.9220 C   0  0  0  0  0  2  0  0  0  0  0  0
  192.3890  176.2560  146.6430 O   0  0  0  0  0  0  0  0  0  0  0  0
  193.2100  176.3420  148.7660 O   0  0  0  0  0  1  0  0  0  0  0  0
  192.1920  175.8350  147.9590 C   0  0  0  0  0  2  0  0  0  0  0  0
  186.6510  178.8880  141.1610 N   0  0  0  0  0  2  0  0  0  0  0  0
  185.9260  178.1020  142.0680 N   0  0  0  0  0  2  0  0  0  0  0  0
  182.8830  178.9910  144.0190 C   0  0  0  0  0  3  0  0  0  0  0  0
  182.2470  178.6520  141.7070 C   0  0  0  0  0  3  0  0  0  0  0  0
  184.2120  178.7000  143.6970 C   0  0  0  0  0  3  0  0  0  0  0  0
  180.2370  179.3320  143.4290 Cl  0  0  0  0  0  0  0  0  0  0  0  0
  183.5760  178.3620  141.3840 C   0  0  0  0  0  3  0  0  0  0  0  0
  184.5630  178.3850  142.3790 C   0  0  0  0  0  0  0  0  0  0  0  0
  181.9010  178.9680  143.0240 C   0  0  0  0  0  0  0  0  0  0  0  0
  1  3  1  0  0  0  0
  2  8  2  0  0  0  0
  3  4  2  0  0  0  0
  3 22  1  0  0  0  0
  4 11  1  0  0  0  0
  5  4  1  0  0  0  0
  6  1  2  0  0  0  0
  7  8  1  0  0  0  0
  7  1  1  0  0  0  0
  8  5  1  0  0  0  0
 10  9  2  0  0  0  0
 11  9  1  0  0  0  0
 13 19  1  1  0  0  0
 13 16  1  0  0  0  0
 14  9  1  6  0  0  0
 14 18  1  0  0  0  0
 14 15  1  0  0  0  0
 15 12  1  6  0  0  0
 15 17  1  0  0  0  0
 17 16  1  0  0  0  0
 18 13  1  0  0  0  0
 19 21  1  0  0  0  0
 21 20  1  0  0  0  0
 22 23  1  0  0  0  0
 23 29  1  0  0  0  0
 25 30  1  0  0  0  0
 26 24  1  0  0  0  0
 28 25  2  0  0  0  0
 28 29  1  0  0  0  0
 29 26  2  0  0  0  0
 30 27  1  0  0  0  0
 30 24  2  0  0  0  0
M  END
>  <MODEL>
1

>  <REMARK>
 VINA RESULT:      -9.1      0.000      0.000
  Name = 
  7 active torsions:
  status: ('A' for Active; 'I' for Inactive)
    1  A    between atoms: N_4  and  N_10
    2  A    between atoms: N_4  and  C_18
    3  A    between atoms: C_5  and  C_15
    4  A    between atoms: C_9  and  O_11
    5  A    between atoms: N_10  and  C_12
    6  A    between atoms: O_11  and  C_24
    7  A    between atoms: C_19  and  N_22
                            x       y       z     vdW  Elec       q    Type
                         _______ _______ _______ _____ _____    ______ ____

>  <TORSDO>
F 7

$$$$
=
 OpenBabel10222417013D

 30 32  0  0  1  0  0  0  0  0999 V2000
  189.8060  177.5350  147.2620 C   0  0  0  0  0  0  0  0  0  0  0  0
  192.7510  175.4530  147.0920 O   0  0  0  0  0  0  0  0  0  0  0  0
  189.4000  177.5230  145.8450 C   0  0  0  0  0  0  0  0  0  0  0  0
  190.1580  176.8710  144.9310 C   0  0  0  0  0  0  0  0  0  0  0  0
  191.5490  176.3830  145.2520 C   0  0  0  0  0  2  0  0  0  0  0  0
  189.1240  178.1620  148.1150 O   0  0  0  0  0  0  0  0  0  0  0  0
  190.9620  176.8120  147.6810 N   0  0  0  0  0  2  0  0  0  0  0  0
  191.7850  176.1650  146.7150 C   0  0  0  0  0  0  0  0  0  0  0  0
  190.2110  177.3970  142.4670 C   0  0  0  0  0  0  0  0  0  0  0  0
  191.0950  178.2810  142.6320 O   0  0  0  0  0  0  0  0  0  0  0  0
  189.7000  176.6650  143.5900 N   0  0  0  0  0  2  0  0  0  0  0  0
  187.8170  178.5810  141.3160 O   0  0  0  0  0  1  0  0  0  0  0  0
  190.3600  176.4600  138.7460 C   0  0  2  0  0  3  0  0  0  0  0  0
  189.7080  177.1200  141.0830 C   0  0  1  0  0  3  0  0  0  0  0  0
  188.9390  178.3250  140.5260 C   0  0  1  0  0  3  0  0  0  0  0  0
  189.6640  177.7040  138.2050 C   0  0  0  0  0  2  0  0  0  0  0  0
  188.4790  178.0590  139.0950 C   0  0  0  0  0  2  0  0  0  0  0  0
  190.8640  176.7260  140.1600 C   0  0  0  0  0  2  0  0  0  0  0  0
  191.4360  176.1290  137.9210 O   0  0  0  0  0  0  0  0  0  0  0  0
  193.6170  176.7310  137.6620 O   0  0  0  0  0  1  0  0  0  0  0  0
  192.5550  176.6610  138.5630 C   0  0  0  0  0  2  0  0  0  0  0  0
  188.1880  178.2030  145.4890 N   0  0  0  0  0  2  0  0  0  0  0  0
  186.9230  177.7580  145.9000 N   0  0  0  0  0  2  0  0  0  0  0  0
  184.5480  178.3240  143.0900 C   0  0  0  0  0  3  0  0  0  0  0  0
  183.4520  178.9330  145.1630 C   0  0  0  0  0  3  0  0  0  0  0  0
  185.7030  177.9860  143.8000 C   0  0  0  0  0  3  0  0  0  0  0  0
  181.9750  179.2210  142.8830 Cl  0  0  0  0  0  0  0  0  0  0  0  0
  184.6080  178.5940  145.8730 C   0  0  0  0  0  3  0  0  0  0  0  0
  185.7380  178.1190  145.1930 C   0  0  0  0  0  0  0  0  0  0  0  0
  183.4220  178.7970  143.7720 C   0  0  0  0  0  0  0  0  0  0  0  0
  1  7  1  0  0  0  0
  1  6  2  0  0  0  0
  3  1  1  0  0  0  0
  4  5  1  0  0  0  0
  4  3  2  0  0  0  0
  5  8  1  0  0  0  0
  8  2  2  0  0  0  0
  8  7  1  0  0  0  0
  9 10  2  0  0  0  0
  9 11  1  0  0  0  0
 11  4  1  0  0  0  0
 13 19  1  6  0  0  0
 13 18  1  0  0  0  0
 14  9  1  1  0  0  0
 15 14  1  0  0  0  0
 15 12  1  1  0  0  0
 16 13  1  0  0  0  0
 16 17  1  0  0  0  0
 17 15  1  0  0  0  0
 18 14  1  0  0  0  0
 19 21  1  0  0  0  0
 20 21  1  0  0  0  0
 22  3  1  0  0  0  0
 22 23  1  0  0  0  0
 24 30  2  0  0  0  0
 24 26  1  0  0  0  0
 25 28  2  0  0  0  0
 26 29  2  0  0  0  0
 27 30  1  0  0  0  0
 29 28  1  0  0  0  0
 29 23  1  0  0  0  0
 30 25  1  0  0  0  0
M  END
>  <MODEL>
2

>  <REMARK>
 VINA RESULT:      -8.9      2.248      6.393
  Name = 
  7 active torsions:
  status: ('A' for Active; 'I' for Inactive)
    1  A    between atoms: N_4  and  N_10
    2  A    between atoms: N_4  and  C_18
    3  A    between atoms: C_5  and  C_15
    4  A    between atoms: C_9  and  O_11
    5  A    between atoms: N_10  and  C_12
    6  A    between atoms: O_11  and  C_24
    7  A    between atoms: C_19  and  N_22
                            x       y       z     vdW  Elec       q    Type
                         _______ _______ _______ _____ _____    ______ ____

>  <TORSDO>
F 7

$$$$
=
 OpenBabel10222417013D

 30 32  0  0  1  0  0  0  0  0999 V2000
  189.0980  176.9700  147.0980 C   0  0  0  0  0  0  0  0  0  0  0  0
  192.4970  175.7530  147.0830 O   0  0  0  0  0  0  0  0  0  0  0  0
  189.0550  177.6310  145.7810 C   0  0  0  0  0  0  0  0  0  0  0  0
  190.1680  177.6710  145.0090 C   0  0  0  0  0  0  0  0  0  0  0  0
  191.5270  177.3050  145.5520 C   0  0  0  0  0  2  0  0  0  0  0  0
  188.0770  176.9520  147.8360 O   0  0  0  0  0  0  0  0  0  0  0  0
  190.2900  176.3200  147.5340 N   0  0  0  0  0  2  0  0  0  0  0  0
  191.4740  176.4000  146.7440 C   0  0  0  0  0  0  0  0  0  0  0  0
  189.9590  177.2330  142.5360 C   0  0  0  0  0  0  0  0  0  0  0  0
  189.8670  175.9890  142.7220 O   0  0  0  0  0  0  0  0  0  0  0  0
  190.1200  178.1220  143.6510 N   0  0  0  0  0  2  0  0  0  0  0  0
  192.1320  177.0850  140.6100 O   0  0  0  0  0  1  0  0  0  0  0  0
  188.3750  178.3010  139.2050 C   0  0  2  0  0  3  0  0  0  0  0  0
  189.8920  177.7680  141.1390 C   0  0  1  0  0  3  0  0  0  0  0  0
  190.8040  176.9670  140.1990 C   0  0  1  0  0  3  0  0  0  0  0  0
  189.2400  177.4370  138.2940 C   0  0  0  0  0  2  0  0  0  0  0  0
  190.6880  177.4790  138.7650 C   0  0  0  0  0  2  0  0  0  0  0  0
  188.4470  177.7740  140.6340 C   0  0  0  0  0  2  0  0  0  0  0  0
  187.0520  178.2720  138.7620 O   0  0  0  0  0  0  0  0  0  0  0  0
  187.1570  179.4250  136.8000 O   0  0  0  0  0  1  0  0  0  0  0  0
  187.1430  178.1540  137.3740 C   0  0  0  0  0  2  0  0  0  0  0  0
  187.8090  178.2030  145.3590 N   0  0  0  0  0  0  0  0  0  0  0  0
  186.9790  177.5890  144.4110 N   0  0  0  0  0  0  0  0  0  0  0  0
  183.8820  178.5140  142.5630 C   0  0  0  0  0  3  0  0  0  0  0  0
  183.5520  178.9950  144.9140 C   0  0  0  0  0  3  0  0  0  0  0  0
  185.1750  178.0590  142.8380 C   0  0  0  0  0  3  0  0  0  0  0  0
  181.4520  179.5510  143.2580 Cl  0  0  0  0  0  0  0  0  0  0  0  0
  184.8440  178.5380  145.1890 C   0  0  0  0  0  3  0  0  0  0  0  0
  185.6600  178.0680  144.1500 C   0  0  0  0  0  0  0  0  0  0  0  0
  183.0700  178.9810  143.6020 C   0  0  0  0  0  0  0  0  0  0  0  0
  1  7  1  0  0  0  0
  1  6  2  0  0  0  0
  3  1  1  0  0  0  0
  4  5  1  0  0  0  0
  4  3  2  0  0  0  0
  5  8  1  0  0  0  0
  8  2  2  0  0  0  0
  8  7  1  0  0  0  0
  9 10  2  0  0  0  0
  9 11  1  0  0  0  0
 11  4  1  0  0  0  0
 13 19  1  6  0  0  0
 13 18  1  0  0  0  0
 14  9  1  1  0  0  0
 15 12  1  1  0  0  0
 15 14  1  0  0  0  0
 16 17  1  0  0  0  0
 16 13  1  0  0  0  0
 17 15  1  0  0  0  0
 18 14  1  0  0  0  0
 20 21  1  0  0  0  0
 21 19  1  0  0  0  0
 22  3  1  0  0  0  0
 23 22  2  0  0  0  0
 24 26  2  0  0  0  0
 24 30  1  0  0  0  0
 25 28  1  0  0  0  0
 26 29  1  0  0  0  0
 27 30  1  0  0  0  0
 29 23  1  0  0  0  0
 29 28  2  0  0  0  0
 30 25  2  0  0  0  0
M  END
>  <MODEL>
3

>  <REMARK>
 VINA RESULT:      -8.9      1.883      6.715
  Name = 
  7 active torsions:
  status: ('A' for Active; 'I' for Inactive)
    1  A    between atoms: N_4  and  N_10
    2  A    between atoms: N_4  and  C_18
    3  A    between atoms: C_5  and  C_15
    4  A    between atoms: C_9  and  O_11
    5  A    between atoms: N_10  and  C_12
    6  A    between atoms: O_11  and  C_24
    7  A    between atoms: C_19  and  N_22
                            x       y       z     vdW  Elec       q    Type
                         _______ _______ _______ _____ _____    ______ ____

>  <TORSDO>
F 7

$$$$
=
 OpenBabel10222417013D

 30 32  0  0  1  0  0  0  0  0999 V2000
  188.3100  178.1520  138.8740 C   0  0  0  0  0  0  0  0  0  0  0  0
  191.4760  176.4200  138.7640 O   0  0  0  0  0  0  0  0  0  0  0  0
  188.1800  178.3580  140.3280 C   0  0  0  0  0  0  0  0  0  0  0  0
  189.1210  177.8630  141.1670 C   0  0  0  0  0  0  0  0  0  0  0  0
  190.1610  176.8740  140.7020 C   0  0  0  0  0  2  0  0  0  0  0  0
  187.4260  178.5830  138.0880 O   0  0  0  0  0  0  0  0  0  0  0  0
  189.4560  177.4870  138.3450 N   0  0  0  0  0  2  0  0  0  0  0  0
  190.4230  176.9260  139.2290 C   0  0  0  0  0  0  0  0  0  0  0  0
  188.5290  177.4000  143.5720 C   0  0  0  0  0  0  0  0  0  0  0  0
  187.9270  176.3370  143.2630 O   0  0  0  0  0  0  0  0  0  0  0  0
  189.1400  178.2080  142.5570 N   0  0  0  0  0  2  0  0  0  0  0  0
  186.2510  178.2660  145.1590 O   0  0  0  0  0  1  0  0  0  0  0  0
  189.8420  177.4950  147.1800 C   0  0  2  0  0  3  0  0  0  0  0  0
  188.6030  177.8020  145.0130 C   0  0  1  0  0  3  0  0  0  0  0  0
  187.2780  177.5150  145.7330 C   0  0  1  0  0  3  0  0  0  0  0  0
  188.5330  177.1290  147.8710 C   0  0  0  0  0  2  0  0  0  0  0  0
  187.3770  177.8730  147.2140 C   0  0  0  0  0  2  0  0  0  0  0  0
  189.7730  177.1020  145.7080 C   0  0  0  0  0  2  0  0  0  0  0  0
  190.8990  176.8230  147.7940 O   0  0  0  0  0  0  0  0  0  0  0  0
  192.3890  175.2590  147.0710 O   0  0  0  0  0  1  0  0  0  0  0  0
  191.7430  176.4510  146.7460 C   0  0  0  0  0  2  0  0  0  0  0  0
  187.0460  179.0990  140.8010 N   0  0  0  0  0  2  0  0  0  0  0  0
  185.9210  178.4810  141.3640 N   0  0  0  0  0  2  0  0  0  0  0  0
  182.2060  178.6250  141.1790 C   0  0  0  0  0  3  0  0  0  0  0  0
  183.1170  179.5060  139.1150 C   0  0  0  0  0  3  0  0  0  0  0  0
  183.5000  178.3920  141.6520 C   0  0  0  0  0  3  0  0  0  0  0  0
  180.3930  179.4740  139.3190 Cl  0  0  0  0  0  0  0  0  0  0  0  0
  184.4120  179.2740  139.5890 C   0  0  0  0  0  3  0  0  0  0  0  0
  184.6070  178.7160  140.8590 C   0  0  0  0  0  0  0  0  0  0  0  0
  182.0140  179.1820  139.9110 C   0  0  0  0  0  0  0  0  0  0  0  0
  1  3  1  0  0  0  0
  2  8  2  0  0  0  0
  3 22  1  0  0  0  0
  3  4  2  0  0  0  0
  4 11  1  0  0  0  0
  5  4  1  0  0  0  0
  6  1  2  0  0  0  0
  7  1  1  0  0  0  0
  7  8  1  0  0  0  0
  8  5  1  0  0  0  0
 10  9  2  0  0  0  0
 11  9  1  0  0  0  0
 13 19  1  1  0  0  0
 13 16  1  0  0  0  0
 14  9  1  6  0  0  0
 14 18  1  0  0  0  0
 14 15  1  0  0  0  0
 15 12  1  6  0  0  0
 15 17  1  0  0  0  0
 17 16  1  0  0  0  0
 18 13  1  0  0  0  0
 21 20  1  0  0  0  0
 21 19  1  0  0  0  0
 22 23  1  0  0  0  0
 24 26  1  0  0  0  0
 25 28  2  0  0  0  0
 25 30  1  0  0  0  0
 27 30  1  0  0  0  0
 28 29  1  0  0  0  0
 29 23  1  0  0  0  0
 29 26  2  0  0  0  0
 30 24  2  0  0  0  0
M  END
>  <MODEL>
4

>  <REMARK>
 VINA RESULT:      -8.7      1.414      1.747
  Name = 
  7 active torsions:
  status: ('A' for Active; 'I' for Inactive)
    1  A    between atoms: N_4  and  N_10
    2  A    between atoms: N_4  and  C_18
    3  A    between atoms: C_5  and  C_15
    4  A    between atoms: C_9  and  O_11
    5  A    between atoms: N_10  and  C_12
    6  A    between atoms: O_11  and  C_24
    7  A    between atoms: C_19  and  N_22
                            x       y       z     vdW  Elec       q    Type
                         _______ _______ _______ _____ _____    ______ ____

>  <TORSDO>
F 7

$$$$
=
 OpenBabel10222417013D

 30 32  0  0  1  0  0  0  0  0999 V2000
  188.8510  178.2790  139.2270 C   0  0  0  0  0  0  0  0  0  0  0  0
  192.1470  176.8330  139.5130 O   0  0  0  0  0  0  0  0  0  0  0  0
  188.4280  178.2370  140.6390 C   0  0  0  0  0  0  0  0  0  0  0  0
  189.2420  177.6870  141.5720 C   0  0  0  0  0  0  0  0  0  0  0  0
  190.4500  176.8680  141.1910 C   0  0  0  0  0  2  0  0  0  0  0  0
  188.0890  178.7620  138.3480 O   0  0  0  0  0  0  0  0  0  0  0  0
  190.1390  177.7960  138.8520 N   0  0  0  0  0  2  0  0  0  0  0  0
  190.9770  177.1760  139.8240 C   0  0  0  0  0  0  0  0  0  0  0  0
  188.4400  176.7250  143.7580 C   0  0  0  0  0  0  0  0  0  0  0  0
  188.1900  175.6100  143.2250 O   0  0  0  0  0  0  0  0  0  0  0  0
  188.9620  177.8050  142.9710 N   0  0  0  0  0  2  0  0  0  0  0  0
  190.5280  176.9190  145.7740 O   0  0  0  0  0  1  0  0  0  0  0  0
  186.6060  177.8150  146.9520 C   0  0  2  0  0  3  0  0  0  0  0  0
  188.1900  176.9020  145.2250 C   0  0  1  0  0  3  0  0  0  0  0  0
  189.3490  177.6560  145.8930 C   0  0  1  0  0  3  0  0  0  0  0  0
  187.7440  178.6260  147.5610 C   0  0  0  0  0  2  0  0  0  0  0  0
  189.0620  177.8850  147.3750 C   0  0  0  0  0  2  0  0  0  0  0  0
  186.8570  177.6160  145.4600 C   0  0  0  0  0  2  0  0  0  0  0  0
  185.3990  178.4900  147.1360 O   0  0  0  0  0  0  0  0  0  0  0  0
  183.5960  179.0080  145.8440 O   0  0  0  0  0  1  0  0  0  0  0  0
  184.9790  178.8300  145.8490 C   0  0  0  0  0  2  0  0  0  0  0  0
  187.1530  178.8040  140.9740 N   0  0  0  0  0  2  0  0  0  0  0  0
  186.0420  178.7210  140.1230 N   0  0  0  0  0  2  0  0  0  0  0  0
  183.2060  178.5890  142.5310 C   0  0  0  0  0  3  0  0  0  0  0  0
  182.3090  178.8190  140.2930 C   0  0  0  0  0  3  0  0  0  0  0  0
  184.5040  178.5920  142.0110 C   0  0  0  0  0  3  0  0  0  0  0  0
  180.4840  178.7000  142.3220 Cl  0  0  0  0  0  0  0  0  0  0  0  0
  183.6070  178.8230  139.7730 C   0  0  0  0  0  3  0  0  0  0  0  0
  184.7090  178.7090  140.6320 C   0  0  0  0  0  0  0  0  0  0  0  0
  182.1090  178.7040  141.6710 C   0  0  0  0  0  0  0  0  0  0  0  0
  1  3  1  0  0  0  0
  2  8  2  0  0  0  0
  3 22  1  0  0  0  0
  3  4  2  0  0  0  0
  4 11  1  0  0  0  0
  5  4  1  0  0  0  0
  6  1  2  0  0  0  0
  7  1  1  0  0  0  0
  7  8  1  0  0  0  0
  8  5  1  0  0  0  0
 10  9  2  0  0  0  0
 11  9  1  0  0  0  0
 13 19  1  6  0  0  0
 13 16  1  0  0  0  0
 14  9  1  6  0  0  0
 14 18  1  0  0  0  0
 14 15  1  0  0  0  0
 15 12  1  1  0  0  0
 15 17  1  0  0  0  0
 17 16  1  0  0  0  0
 18 13  1  0  0  0  0
 20 21  1  0  0  0  0
 21 19  1  0  0  0  0
 23 29  1  0  0  0  0
 23 22  1  0  0  0  0
 25 30  1  0  0  0  0
 26 24  1  0  0  0  0
 28 25  2  0  0  0  0
 28 29  1  0  0  0  0
 29 26  2  0  0  0  0
 30 27  1  0  0  0  0
 30 24  2  0  0  0  0
M  END
>  <MODEL>
5

>  <REMARK>
 VINA RESULT:      -8.6      1.752      3.363
  Name = 
  7 active torsions:
  status: ('A' for Active; 'I' for Inactive)
    1  A    between atoms: N_4  and  N_10
    2  A    between atoms: N_4  and  C_18
    3  A    between atoms: C_5  and  C_15
    4  A    between atoms: C_9  and  O_11
    5  A    between atoms: N_10  and  C_12
    6  A    between atoms: O_11  and  C_24
    7  A    between atoms: C_19  and  N_22
                            x       y       z     vdW  Elec       q    Type
                         _______ _______ _______ _____ _____    ______ ____

>  <TORSDO>
F 7

$$$$
=
 OpenBabel10222417013D

 30 32  0  0  1  0  0  0  0  0999 V2000
  188.5140  177.3010  146.9180 C   0  0  0  0  0  0  0  0  0  0  0  0
  192.0570  176.6510  147.1580 O   0  0  0  0  0  0  0  0  0  0  0  0
  188.3220  177.1530  145.4630 C   0  0  0  0  0  0  0  0  0  0  0  0
  189.3870  176.9000  144.6650 C   0  0  0  0  0  0  0  0  0  0  0  0
  190.8050  177.0330  145.1630 C   0  0  0  0  0  2  0  0  0  0  0  0
  187.5350  177.5640  147.6650 O   0  0  0  0  0  0  0  0  0  0  0  0
  189.8060  177.1200  147.4910 N   0  0  0  0  0  2  0  0  0  0  0  0
  190.9340  176.9000  146.6480 C   0  0  0  0  0  0  0  0  0  0  0  0
  189.3600  177.5010  142.2180 C   0  0  0  0  0  0  0  0  0  0  0  0
  189.6240  178.7080  142.4670 O   0  0  0  0  0  0  0  0  0  0  0  0
  189.2220  176.5530  143.2850 N   0  0  0  0  0  2  0  0  0  0  0  0
  187.4220  178.6300  140.3660 O   0  0  0  0  0  1  0  0  0  0  0  0
  190.3590  176.0900  138.7880 C   0  0  2  0  0  3  0  0  0  0  0  0
  189.1980  177.0710  140.7910 C   0  0  1  0  0  3  0  0  0  0  0  0
  188.6830  178.2270  139.9230 C   0  0  1  0  0  3  0  0  0  0  0  0
  189.9140  177.2840  137.9510 C   0  0  0  0  0  2  0  0  0  0  0  0
  188.5750  177.8010  138.4620 C   0  0  0  0  0  2  0  0  0  0  0  0
  190.5150  176.5130  140.2450 C   0  0  0  0  0  2  0  0  0  0  0  0
  191.5790  175.6110  138.3090 O   0  0  0  0  0  0  0  0  0  0  0  0
  193.5600  176.7130  138.5360 O   0  0  0  0  0  1  0  0  0  0  0  0
  192.2960  176.7530  137.9480 C   0  0  0  0  0  2  0  0  0  0  0  0
  186.9890  177.2700  144.9470 N   0  0  0  0  0  0  0  0  0  0  0  0
  186.2610  178.4670  145.0020 N   0  0  0  0  0  0  0  0  0  0  0  0
  182.6560  179.1280  144.3480 C   0  0  0  0  0  3  0  0  0  0  0  0
  183.7430  178.6250  142.2430 C   0  0  0  0  0  3  0  0  0  0  0  0
  183.8720  178.9590  145.0170 C   0  0  0  0  0  3  0  0  0  0  0  0
  181.0700  179.1730  142.1240 Cl  0  0  0  0  0  0  0  0  0  0  0  0
  184.9600  178.4570  142.9120 C   0  0  0  0  0  3  0  0  0  0  0  0
  185.0270  178.6240  144.3020 C   0  0  0  0  0  0  0  0  0  0  0  0
  182.5920  178.9620  142.9610 C   0  0  0  0  0  0  0  0  0  0  0  0
  1  7  1  0  0  0  0
  1  6  2  0  0  0  0
  3  1  1  0  0  0  0
  4  5  1  0  0  0  0
  4  3  2  0  0  0  0
  5  8  1  0  0  0  0
  8  2  2  0  0  0  0
  8  7  1  0  0  0  0
  9 10  2  0  0  0  0
  9 11  1  0  0  0  0
 11  4  1  0  0  0  0
 13 19  1  6  0  0  0
 13 18  1  0  0  0  0
 14  9  1  1  0  0  0
 15 12  1  1  0  0  0
 15 14  1  0  0  0  0
 16 17  1  0  0  0  0
 16 13  1  0  0  0  0
 17 15  1  0  0  0  0
 18 14  1  0  0  0  0
 21 19  1  0  0  0  0
 21 20  1  0  0  0  0
 22 23  2  0  0  0  0
 22  3  1  0  0  0  0
 24 26  1  0  0  0  0
 25 28  2  0  0  0  0
 25 30  1  0  0  0  0
 27 30  1  0  0  0  0
 28 29  1  0  0  0  0
 29 23  1  0  0  0  0
 29 26  2  0  0  0  0
 30 24  2  0  0  0  0
M  END
>  <MODEL>
6

>  <REMARK>
 VINA RESULT:      -8.6      1.915      6.139
  Name = 
  7 active torsions:
  status: ('A' for Active; 'I' for Inactive)
    1  A    between atoms: N_4  and  N_10
    2  A    between atoms: N_4  and  C_18
    3  A    between atoms: C_5  and  C_15
    4  A    between atoms: C_9  and  O_11
    5  A    between atoms: N_10  and  C_12
    6  A    between atoms: O_11  and  C_24
    7  A    between atoms: C_19  and  N_22
                            x       y       z     vdW  Elec       q    Type
                         _______ _______ _______ _____ _____    ______ ____

>  <TORSDO>
F 7

$$$$
=
 OpenBabel10222417013D

 30 32  0  0  1  0  0  0  0  0999 V2000
  191.2990  177.7710  144.2740 C   0  0  0  0  0  0  0  0  0  0  0  0
  190.7570  177.1230  147.7850 O   0  0  0  0  0  0  0  0  0  0  0  0
  189.9300  177.5770  143.7630 C   0  0  0  0  0  0  0  0  0  0  0  0
  188.9410  177.1970  144.6070 C   0  0  0  0  0  0  0  0  0  0  0  0
  189.2320  176.6970  146.0000 C   0  0  0  0  0  2  0  0  0  0  0  0
  192.2310  178.0960  143.4930 O   0  0  0  0  0  0  0  0  0  0  0  0
  191.5710  177.6170  145.6660 N   0  0  0  0  0  2  0  0  0  0  0  0
  190.5420  177.1720  146.5460 C   0  0  0  0  0  0  0  0  0  0  0  0
  186.5590  177.9900  144.8330 C   0  0  0  0  0  0  0  0  0  0  0  0
  186.8540  178.7310  145.8090 O   0  0  0  0  0  0  0  0  0  0  0  0
  187.5680  177.1920  144.1980 N   0  0  0  0  0  2  0  0  0  0  0  0
  184.2360  178.6070  146.4700 O   0  0  0  0  0  1  0  0  0  0  0  0
  183.6490  178.2200  142.3380 C   0  0  2  0  0  3  0  0  0  0  0  0
  185.1440  177.9600  144.3430 C   0  0  1  0  0  3  0  0  0  0  0  0
  184.2720  178.9560  145.1190 C   0  0  1  0  0  3  0  0  0  0  0  0
  182.8360  179.2710  143.0850 C   0  0  0  0  0  2  0  0  0  0  0  0
  182.8450  178.9630  144.5780 C   0  0  0  0  0  2  0  0  0  0  0  0
  185.0900  178.2330  142.8380 C   0  0  0  0  0  2  0  0  0  0  0  0
  183.6270  178.4970  140.9700 O   0  0  0  0  0  0  0  0  0  0  0  0
  184.7910  179.8340  139.5390 O   0  0  0  0  0  1  0  0  0  0  0  0
  184.8720  179.0660  140.7000 C   0  0  0  0  0  2  0  0  0  0  0  0
  189.6950  177.8180  142.3680 N   0  0  0  0  0  0  0  0  0  0  0  0
  189.9240  176.8450  141.3850 N   0  0  0  0  0  0  0  0  0  0  0  0
  190.3120  176.6920  137.6860 C   0  0  0  0  0  3  0  0  0  0  0  0
  188.5880  178.3090  138.2150 C   0  0  0  0  0  3  0  0  0  0  0  0
  190.4970  176.4420  139.0480 C   0  0  0  0  0  3  0  0  0  0  0  0
  189.1260  177.9380  135.5620 Cl  0  0  0  0  0  0  0  0  0  0  0  0
  188.7720  178.0570  139.5780 C   0  0  0  0  0  3  0  0  0  0  0  0
  189.7280  177.1230  139.9990 C   0  0  0  0  0  0  0  0  0  0  0  0
  189.3570  177.6250  137.2690 C   0  0  0  0  0  0  0  0  0  0  0  0
  1  7  1  0  0  0  0
  3  1  1  0  0  0  0
  3  4  2  0  0  0  0
  4  5  1  0  0  0  0
  5  8  1  0  0  0  0
  6  1  2  0  0  0  0
  7  8  1  0  0  0  0
  8  2  2  0  0  0  0
  9 10  2  0  0  0  0
 11  4  1  0  0  0  0
 11  9  1  0  0  0  0
 13 19  1  6  0  0  0
 13 18  1  0  0  0  0
 13 16  1  0  0  0  0
 14  9  1  1  0  0  0
 14 15  1  0  0  0  0
 15 12  1  1  0  0  0
 16 17  1  0  0  0  0
 17 15  1  0  0  0  0
 18 14  1  0  0  0  0
 20 21  1  0  0  0  0
 21 19  1  0  0  0  0
 22  3  1  0  0  0  0
 23 22  2  0  0  0  0
 24 26  1  0  0  0  0
 25 28  2  0  0  0  0
 26 29  2  0  0  0  0
 27 30  1  0  0  0  0
 28 29  1  0  0  0  0
 29 23  1  0  0  0  0
 30 24  2  0  0  0  0
 30 25  1  0  0  0  0
M  END
>  <MODEL>
7

>  <REMARK>
 VINA RESULT:      -8.0      3.057      7.498
  Name = 
  7 active torsions:
  status: ('A' for Active; 'I' for Inactive)
    1  A    between atoms: N_4  and  N_10
    2  A    between atoms: N_4  and  C_18
    3  A    between atoms: C_5  and  C_15
    4  A    between atoms: C_9  and  O_11
    5  A    between atoms: N_10  and  C_12
    6  A    between atoms: O_11  and  C_24
    7  A    between atoms: C_19  and  N_22
                            x       y       z     vdW  Elec       q    Type
                         _______ _______ _______ _____ _____    ______ ____

>  <TORSDO>
F 7

$$$$
=
 OpenBabel10222417013D

 30 32  0  0  1  0  0  0  0  0999 V2000
  187.2970  177.7120  137.9770 C   0  0  0  0  0  0  0  0  0  0  0  0
  183.7170  177.7380  137.5100 O   0  0  0  0  0  0  0  0  0  0  0  0
  187.3820  178.2500  139.3470 C   0  0  0  0  0  0  0  0  0  0  0  0
  186.2540  178.6300  139.9940 C   0  0  0  0  0  0  0  0  0  0  0  0
  184.9360  178.7820  139.2750 C   0  0  0  0  0  2  0  0  0  0  0  0
  188.3420  177.3820  137.3560 O   0  0  0  0  0  0  0  0  0  0  0  0
  186.0260  177.5340  137.3560 N   0  0  0  0  0  2  0  0  0  0  0  0
  184.8430  177.9760  138.0170 C   0  0  0  0  0  0  0  0  0  0  0  0
  185.3600  178.3970  142.3380 C   0  0  0  0  0  0  0  0  0  0  0  0
  184.4870  177.5670  141.9680 O   0  0  0  0  0  0  0  0  0  0  0  0
  186.2680  178.9680  141.3860 N   0  0  0  0  0  2  0  0  0  0  0  0
  183.1560  179.5070  143.8770 O   0  0  0  0  0  1  0  0  0  0  0  0
  186.5730  178.2990  145.9810 C   0  0  2  0  0  3  0  0  0  0  0  0
  185.4400  178.7730  143.7870 C   0  0  1  0  0  3  0  0  0  0  0  0
  184.0710  178.6340  144.4670 C   0  0  1  0  0  3  0  0  0  0  0  0
  185.2120  178.0810  146.6320 C   0  0  0  0  0  2  0  0  0  0  0  0
  184.1700  178.9630  145.9540 C   0  0  0  0  0  2  0  0  0  0  0  0
  186.5010  177.9320  144.5020 C   0  0  0  0  0  2  0  0  0  0  0  0
  187.5280  177.5010  146.6130 O   0  0  0  0  0  0  0  0  0  0  0  0
  187.9300  177.3920  148.8530 O   0  0  0  0  0  1  0  0  0  0  0  0
  187.9150  178.2310  147.7390 C   0  0  0  0  0  2  0  0  0  0  0  0
  188.6790  178.3380  139.9530 N   0  0  0  0  0  2  0  0  0  0  0  0
  189.3360  177.2240  140.4950 N   0  0  0  0  0  2  0  0  0  0  0  0
  190.0400  178.3340  143.9780 C   0  0  0  0  0  3  0  0  0  0  0  0
  190.5960  175.9840  143.7890 C   0  0  0  0  0  3  0  0  0  0  0  0
  189.6580  178.3520  142.6340 C   0  0  0  0  0  3  0  0  0  0  0  0
  190.9880  177.1280  146.2390 Cl  0  0  0  0  0  0  0  0  0  0  0  0
  190.2120  176.0020  142.4440 C   0  0  0  0  0  3  0  0  0  0  0  0
  189.7420  177.1880  141.8620 C   0  0  0  0  0  0  0  0  0  0  0  0
  190.5080  177.1500  144.5550 C   0  0  0  0  0  0  0  0  0  0  0  0
  1  3  1  0  0  0  0
  2  8  2  0  0  0  0
  3 22  1  0  0  0  0
  3  4  2  0  0  0  0
  4 11  1  0  0  0  0
  5  4  1  0  0  0  0
  6  1  2  0  0  0  0
  7  1  1  0  0  0  0
  7  8  1  0  0  0  0
  8  5  1  0  0  0  0
 10  9  2  0  0  0  0
 11  9  1  0  0  0  0
 13 19  1  1  0  0  0
 13 16  1  0  0  0  0
 14  9  1  6  0  0  0
 14 15  1  0  0  0  0
 14 18  1  0  0  0  0
 15 12  1  6  0  0  0
 15 17  1  0  0  0  0
 17 16  1  0  0  0  0
 18 13  1  0  0  0  0
 19 21  1  0  0  0  0
 21 20  1  0  0  0  0
 22 23  1  0  0  0  0
 23 29  1  0  0  0  0
 24 30  1  0  0  0  0
 25 30  2  0  0  0  0
 26 24  2  0  0  0  0
 28 25  1  0  0  0  0
 29 28  2  0  0  0  0
 29 26  1  0  0  0  0
 30 27  1  0  0  0  0
M  END
>  <MODEL>
8

>  <REMARK>
 VINA RESULT:      -8.0      3.148      5.401
  Name = 
  7 active torsions:
  status: ('A' for Active; 'I' for Inactive)
    1  A    between atoms: N_4  and  N_10
    2  A    between atoms: N_4  and  C_18
    3  A    between atoms: C_5  and  C_15
    4  A    between atoms: C_9  and  O_11
    5  A    between atoms: N_10  and  C_12
    6  A    between atoms: O_11  and  C_24
    7  A    between atoms: C_19  and  N_22
                            x       y       z     vdW  Elec       q    Type
                         _______ _______ _______ _____ _____    ______ ____

>  <TORSDO>
F 7

$$$$
=
 OpenBabel10222417013D

 30 32  0  0  1  0  0  0  0  0999 V2000
  189.5220  177.1070  145.7390 C   0  0  0  0  0  0  0  0  0  0  0  0
  187.9430  178.0520  148.8450 O   0  0  0  0  0  0  0  0  0  0  0  0
  188.3750  177.2240  144.8200 C   0  0  0  0  0  0  0  0  0  0  0  0
  187.1540  177.5560  145.3040 C   0  0  0  0  0  0  0  0  0  0  0  0
  186.8540  177.5470  146.7830 C   0  0  0  0  0  2  0  0  0  0  0  0
  190.6550  176.7710  145.3030 O   0  0  0  0  0  0  0  0  0  0  0  0
  189.3620  177.4010  147.1250 N   0  0  0  0  0  2  0  0  0  0  0  0
  188.0690  177.7050  147.6420 C   0  0  0  0  0  0  0  0  0  0  0  0
  185.1850  178.9870  144.6500 C   0  0  0  0  0  0  0  0  0  0  0  0
  185.3380  179.7310  145.6560 O   0  0  0  0  0  0  0  0  0  0  0  0
  186.0650  177.8750  144.4310 N   0  0  0  0  0  2  0  0  0  0  0  0
  185.5470  179.3690  141.7900 O   0  0  0  0  0  1  0  0  0  0  0  0
  181.6220  179.0030  143.2160 C   0  0  2  0  0  3  0  0  0  0  0  0
  184.0770  179.2840  143.6870 C   0  0  1  0  0  3  0  0  0  0  0  0
  184.4040  178.7420  142.2880 C   0  0  1  0  0  3  0  0  0  0  0  0
  181.9570  178.3890  141.8610 C   0  0  0  0  0  2  0  0  0  0  0  0
  183.2470  178.9960  141.3250 C   0  0  0  0  0  2  0  0  0  0  0  0
  182.7510  178.7190  144.2020 C   0  0  0  0  0  2  0  0  0  0  0  0
  180.4320  178.4560  143.6980 O   0  0  0  0  0  0  0  0  0  0  0  0
  180.0630  180.5870  142.9820 O   0  0  0  0  0  1  0  0  0  0  0  0
  179.4530  179.4000  143.3850 C   0  0  0  0  0  2  0  0  0  0  0  0
  188.6070  176.9910  143.4240 N   0  0  0  0  0  0  0  0  0  0  0  0
  188.9940  178.0100  142.5420 N   0  0  0  0  0  0  0  0  0  0  0  0
  188.7100  178.0140  138.8300 C   0  0  0  0  0  3  0  0  0  0  0  0
  190.6720  176.7380  139.4530 C   0  0  0  0  0  3  0  0  0  0  0  0
  188.4390  178.2560  140.1800 C   0  0  0  0  0  3  0  0  0  0  0  0
  190.1660  176.9520  136.7770 Cl  0  0  0  0  0  0  0  0  0  0  0  0
  190.4010  176.9810  140.8030 C   0  0  0  0  0  3  0  0  0  0  0  0
  189.2820  177.7420  141.1710 C   0  0  0  0  0  0  0  0  0  0  0  0
  189.8270  177.2560  138.4670 C   0  0  0  0  0  0  0  0  0  0  0  0
  1  7  1  0  0  0  0
  3  4  2  0  0  0  0
  3  1  1  0  0  0  0
  4  5  1  0  0  0  0
  5  8  1  0  0  0  0
  6  1  2  0  0  0  0
  7  8  1  0  0  0  0
  8  2  2  0  0  0  0
  9 10  2  0  0  0  0
 11  9  1  0  0  0  0
 11  4  1  0  0  0  0
 13 19  1  1  0  0  0
 13 18  1  0  0  0  0
 14 18  1  0  0  0  0
 14  9  1  1  0  0  0
 15 12  1  6  0  0  0
 15 14  1  0  0  0  0
 16 13  1  0  0  0  0
 17 16  1  0  0  0  0
 17 15  1  0  0  0  0
 20 21  1  0  0  0  0
 21 19  1  0  0  0  0
 22  3  1  0  0  0  0
 23 22  2  0  0  0  0
 24 26  1  0  0  0  0
 25 28  2  0  0  0  0
 26 29  2  0  0  0  0
 27 30  1  0  0  0  0
 28 29  1  0  0  0  0
 29 23  1  0  0  0  0
 30 24  2  0  0  0  0
 30 25  1  0  0  0  0
M  END
>  <MODEL>
9

>  <REMARK>
 VINA RESULT:      -8.0      3.451      8.365
  Name = 
  7 active torsions:
  status: ('A' for Active; 'I' for Inactive)
    1  A    between atoms: N_4  and  N_10
    2  A    between atoms: N_4  and  C_18
    3  A    between atoms: C_5  and  C_15
    4  A    between atoms: C_9  and  O_11
    5  A    between atoms: N_10  and  C_12
    6  A    between atoms: O_11  and  C_24
    7  A    between atoms: C_19  and  N_22
                            x       y       z     vdW  Elec       q    Type
                         _______ _______ _______ _____ _____    ______ ____

>  <TORSDO>
F 7

$$$$
