=
 OpenBabel10222417383D

 49 54  0  0  1  0  0  0  0  0999 V2000
  192.3300  175.8360  137.4070 C   0  0  1  0  0  3  0  0  0  0  0  0
  186.9980  177.3350  137.5400 C   0  0  0  0  0  0  0  0  0  0  0  0
  184.7980  178.1150  139.1400 C   0  0  0  0  0  0  0  0  0  0  0  0
  191.9880  176.4820  138.7500 C   0  0  0  0  0  2  0  0  0  0  0  0
  187.2120  177.9080  138.8260 C   0  0  0  0  0  0  0  0  0  0  0  0
  190.8100  177.4350  138.5070 C   0  0  2  0  0  3  0  0  0  0  0  0
  188.1140  176.7620  136.6960 C   0  0  2  0  0  3  0  0  0  0  0  0
  184.5920  177.5570  137.8740 C   0  0  0  0  0  3  0  0  0  0  0  0
  191.1530  175.9390  135.1760 O   0  0  0  0  0  1  0  0  0  0  0  0
  189.6120  177.1410  139.4360 C   0  0  2  0  0  3  0  0  0  0  0  0
  189.2360  177.7460  136.4290 C   0  0  0  0  0  2  0  0  0  0  0  0
  185.6770  177.1670  137.0920 C   0  0  0  0  0  3  0  0  0  0  0  0
  190.4660  177.2080  137.0780 C   0  0  0  0  0  0  0  0  0  0  0  0
  186.1080  178.2920  139.5980 C   0  0  0  0  0  3  0  0  0  0  0  0
  191.2820  176.3500  136.4980 C   0  0  0  0  0  0  0  0  0  0  0  0
  189.0310  179.4740  138.8930 O   0  0  0  0  0  1  0  0  0  0  0  0
  187.6500  176.2510  135.4820 O   0  0  0  0  0  1  0  0  0  0  0  0
  188.5550  178.2620  139.4030 C   0  0  1  0  0  3  0  0  0  0  0  0
  195.6340  171.4670  136.5840 C   0  0  0  0  0  2  0  0  0  0  0  0
  194.2960  171.3220  136.1740 O   0  0  0  0  0  0  0  0  0  0  0  0
  193.1000  173.3560  135.9930 C   0  0  0  0  0  2  0  0  0  0  0  0
  195.6020  173.5930  135.1430 C   0  0  2  0  0  3  0  0  0  0  0  0
  194.5520  175.5320  136.1660 C   0  0  0  0  0  0  0  0  0  0  0  0
  195.7280  176.0030  135.9160 N   0  0  0  0  0  0  0  0  0  0  0  0
  196.2020  172.8700  136.3500 C   0  0  0  0  0  2  0  0  0  0  0  0
  196.6920  175.0130  134.8100 S   0  0  0  0  0  0  0  0  0  0  0  0
  194.2460  174.2420  135.4660 C   0  0  2  0  0  3  0  0  0  0  0  0
  193.5400  172.2320  136.9170 C   0  0  0  0  0  2  0  0  0  0  0  0
  193.6370  176.2940  136.9640 N   0  0  0  0  0  2  0  0  0  0  0  0
  183.6830  178.4860  139.9650 N   0  0  0  0  0  0  0  0  0  0  0  0
  183.7410  178.4130  141.3640 N   0  0  0  0  0  2  0  0  0  0  0  0
  181.5360  179.0740  140.6410 C   0  0  0  0  0  2  0  0  0  0  0  0
  182.3530  178.5140  141.7970 C   0  0  2  0  0  3  0  0  0  0  0  0
  182.3790  178.8180  139.4280 C   0  0  0  0  0  2  0  0  0  0  0  0
  182.2530  179.3980  143.0280 C   0  0  0  0  0  2  0  0  0  0  0  0
  182.7720  178.6600  144.2490 C   0  0  0  0  0  2  0  0  0  0  0  0
  183.7420  179.4490  144.9170 O   0  0  0  0  0  0  0  0  0  0  0  0
  185.0080  178.9270  145.1650 C   0  0  0  0  0  3  0  0  0  0  0  0
  185.5210  178.1080  144.3600 O   0  0  0  0  0  0  0  0  0  0  0  0
  190.0780  176.9780  140.8760 C   0  0  0  0  0  2  0  0  0  0  0  0
  188.9110  177.0920  141.8390 C   0  0  0  0  0  2  0  0  0  0  0  0
  189.1290  176.1650  143.0180 C   0  0  0  0  0  2  0  0  0  0  0  0
  188.6800  176.8360  144.3110 C   0  0  0  0  0  2  0  0  0  0  0  0
  189.8400  177.4580  145.0900 C   0  0  2  0  0  3  0  0  0  0  0  0
  191.1970  177.0540  144.5280 C   0  0  0  0  0  1  0  0  0  0  0  0
  190.8820  176.6110  147.3320 C   0  0  0  0  0  1  0  0  0  0  0  0
  187.7140  178.0550  147.8390 O   0  0  0  0  0  0  0  0  0  0  0  0
  188.7100  177.6520  147.2230 C   0  0  0  0  0  0  0  0  0  0  0  0
  189.7580  177.2300  146.5730 C   0  0  0  0  0  0  0  0  0  0  0  0
  1 29  1  6  0  0  0
  1  4  1  0  0  0  0
  2  5  1  0  0  0  0
  3 14  1  0  0  0  0
  3 30  1  0  0  0  0
  5 18  1  0  0  0  0
  5 14  2  0  0  0  0
  6  4  1  1  0  0  0
  6 10  1  0  0  0  0
  7 17  1  6  0  0  0
  7  2  1  0  0  0  0
  8  3  2  0  0  0  0
  9 15  1  0  0  0  0
 10 40  1  1  0  0  0
 11  7  1  0  0  0  0
 11 13  1  0  0  0  0
 12  2  2  0  0  0  0
 12  8  1  0  0  0  0
 13  6  1  0  0  0  0
 15 13  2  0  0  0  0
 15  1  1  0  0  0  0
 18 16  1  6  0  0  0
 18 10  1  0  0  0  0
 20 19  1  0  0  0  0
 20 28  1  0  0  0  0
 21 28  1  0  0  0  0
 22 27  1  0  0  0  0
 22 25  1  1  0  0  0
 23 29  1  0  0  0  0
 24 23  2  0  0  0  0
 25 19  1  0  0  0  0
 26 22  1  0  0  0  0
 26 24  1  0  0  0  0
 27 21  1  1  0  0  0
 27 23  1  0  0  0  0
 30 31  1  0  0  0  0
 31 33  1  0  0  0  0
 32 33  1  0  0  0  0
 33 35  1  1  0  0  0
 34 30  1  0  0  0  0
 34 32  1  0  0  0  0
 35 36  1  0  0  0  0
 36 37  1  0  0  0  0
 37 38  1  0  0  0  0
 39 38  2  0  0  0  0
 40 41  1  0  0  0  0
 41 42  1  0  0  0  0
 42 43  1  0  0  0  0
 43 44  1  0  0  0  0
 44 45  1  6  0  0  0
 44 49  1  0  0  0  0
 48 47  2  0  0  0  0
 49 48  2  0  0  0  0
 49 46  1  0  0  0  0
M  END
>  <MODEL>
1

>  <REMARK>
 VINA RESULT:      -8.2      0.000      0.000
  Name = 
  12 active torsions:
  status: ('A' for Active; 'I' for Inactive)
    1  A    between atoms: C_1  and  C_24
    2  A    between atoms: C_1  and  C_27
    3  A    between atoms: N_2  and  C_14
    4  A    between atoms: O_4  and  C_13
    5  A    between atoms: O_4  and  C_29
    6  A    between atoms: C_7  and  C_9
    7  A    between atoms: C_9  and  C_29
    8  A    between atoms: C_11  and  N_48
    9  A    between atoms: C_27  and  C_40
   10  A    between atoms: C_32  and  C_38
   11  A    between atoms: C_32  and  C_41
   12  A    between atoms: C_40  and  C_41
                            x       y       z     vdW  Elec       q    Type
                         _______ _______ _______ _____ _____    ______ ____

>  <TORSDO>
F 12

$$$$
=
 OpenBabel10222417383D

 49 54  0  0  1  0  0  0  0  0999 V2000
  192.5280  175.8270  137.2490 C   0  0  1  0  0  3  0  0  0  0  0  0
  187.1230  176.9800  136.8530 C   0  0  0  0  0  0  0  0  0  0  0  0
  184.7850  177.8490  138.1870 C   0  0  0  0  0  0  0  0  0  0  0  0
  192.0640  176.6460  138.4550 C   0  0  0  0  0  2  0  0  0  0  0  0
  187.2220  177.7540  138.0430 C   0  0  0  0  0  0  0  0  0  0  0  0
  190.8540  177.4730  138.0020 C   0  0  2  0  0  3  0  0  0  0  0  0
  188.3220  176.3590  136.1710 C   0  0  2  0  0  3  0  0  0  0  0  0
  184.6930  177.0940  137.0140 C   0  0  0  0  0  3  0  0  0  0  0  0
  191.4940  175.5130  134.9680 O   0  0  0  0  0  1  0  0  0  0  0  0
  189.6160  177.2460  138.8970 C   0  0  2  0  0  3  0  0  0  0  0  0
  189.4020  177.3620  135.8170 C   0  0  0  0  0  2  0  0  0  0  0  0
  185.8460  176.6610  136.3630 C   0  0  0  0  0  3  0  0  0  0  0  0
  190.6160  177.0090  136.6090 C   0  0  0  0  0  0  0  0  0  0  0  0
  186.0510  178.1790  138.6840 C   0  0  0  0  0  3  0  0  0  0  0  0
  191.5150  176.1280  136.2150 C   0  0  0  0  0  0  0  0  0  0  0  0
  188.9430  179.4270  137.9660 O   0  0  0  0  0  1  0  0  0  0  0  0
  187.9670  175.6410  135.0270 O   0  0  0  0  0  1  0  0  0  0  0  0
  188.5030  178.2790  138.6320 C   0  0  1  0  0  3  0  0  0  0  0  0
  196.1930  171.6900  137.6190 C   0  0  0  0  0  2  0  0  0  0  0  0
  194.9100  171.3460  137.1550 O   0  0  0  0  0  0  0  0  0  0  0  0
  193.5930  173.1850  136.4580 C   0  0  0  0  0  2  0  0  0  0  0  0
  196.1380  173.4590  135.7590 C   0  0  2  0  0  3  0  0  0  0  0  0
  194.8680  175.4690  136.2650 C   0  0  0  0  0  0  0  0  0  0  0  0
  196.0240  175.9790  136.0050 N   0  0  0  0  0  0  0  0  0  0  0  0
  196.6790  173.0580  137.1320 C   0  0  0  0  0  2  0  0  0  0  0  0
  197.1500  174.8690  135.2090 S   0  0  0  0  0  0  0  0  0  0  0  0
  194.7160  174.0390  135.8370 C   0  0  2  0  0  3  0  0  0  0  0  0
  194.0290  172.3200  137.6300 C   0  0  0  0  0  2  0  0  0  0  0  0
  193.8330  176.2960  136.8140 N   0  0  0  0  0  2  0  0  0  0  0  0
  183.6000  178.2690  138.8810 N   0  0  0  0  0  0  0  0  0  0  0  0
  182.7800  177.3570  139.5620 N   0  0  0  0  0  2  0  0  0  0  0  0
  181.8210  179.5710  139.6260 C   0  0  0  0  0  2  0  0  0  0  0  0
  181.5410  178.0850  139.8050 C   0  0  2  0  0  3  0  0  0  0  0  0
  183.0790  179.6180  138.8110 C   0  0  0  0  0  2  0  0  0  0  0  0
  181.0220  177.7810  141.2010 C   0  0  0  0  0  2  0  0  0  0  0  0
  180.7580  179.0720  141.9550 C   0  0  0  0  0  2  0  0  0  0  0  0
  181.2960  178.9880  143.2640 O   0  0  0  0  0  0  0  0  0  0  0  0
  182.6750  178.9530  143.4460 C   0  0  0  0  0  3  0  0  0  0  0  0
  183.1600  179.0170  144.6040 O   0  0  0  0  0  0  0  0  0  0  0  0
  189.9960  177.3340  140.3690 C   0  0  0  0  0  2  0  0  0  0  0  0
  188.7840  177.1190  141.2550 C   0  0  0  0  0  2  0  0  0  0  0  0
  188.8550  178.0470  142.4520 C   0  0  0  0  0  2  0  0  0  0  0  0
  188.8370  177.2440  143.7470 C   0  0  0  0  0  2  0  0  0  0  0  0
  187.4500  177.1860  144.3900 C   0  0  2  0  0  3  0  0  0  0  0  0
  186.3960  177.9060  143.5580 C   0  0  0  0  0  1  0  0  0  0  0  0
  186.2370  178.2910  146.4230 C   0  0  0  0  0  1  0  0  0  0  0  0
  189.4360  177.1200  147.3020 O   0  0  0  0  0  0  0  0  0  0  0  0
  188.4600  177.3710  146.5820 C   0  0  0  0  0  0  0  0  0  0  0  0
  187.4330  177.6330  145.8240 C   0  0  0  0  0  0  0  0  0  0  0  0
  1 29  1  6  0  0  0
  1  4  1  0  0  0  0
  2  5  1  0  0  0  0
  3 14  1  0  0  0  0
  3 30  1  0  0  0  0
  5 18  1  0  0  0  0
  5 14  2  0  0  0  0
  6  4  1  1  0  0  0
  6 10  1  0  0  0  0
  7 17  1  6  0  0  0
  7  2  1  0  0  0  0
  8  3  2  0  0  0  0
  9 15  1  0  0  0  0
 10 40  1  1  0  0  0
 11  7  1  0  0  0  0
 11 13  1  0  0  0  0
 12  2  2  0  0  0  0
 12  8  1  0  0  0  0
 13  6  1  0  0  0  0
 15 13  2  0  0  0  0
 15  1  1  0  0  0  0
 18 16  1  6  0  0  0
 18 10  1  0  0  0  0
 20 19  1  0  0  0  0
 20 28  1  0  0  0  0
 21 28  1  0  0  0  0
 22 27  1  0  0  0  0
 22 25  1  1  0  0  0
 23 29  1  0  0  0  0
 24 23  2  0  0  0  0
 25 19  1  0  0  0  0
 26 22  1  0  0  0  0
 26 24  1  0  0  0  0
 27 23  1  0  0  0  0
 27 21  1  1  0  0  0
 30 31  1  0  0  0  0
 31 33  1  0  0  0  0
 32 33  1  0  0  0  0
 33 35  1  1  0  0  0
 34 30  1  0  0  0  0
 34 32  1  0  0  0  0
 35 36  1  0  0  0  0
 36 37  1  0  0  0  0
 37 38  1  0  0  0  0
 38 39  2  0  0  0  0
 40 41  1  0  0  0  0
 41 42  1  0  0  0  0
 42 43  1  0  0  0  0
 43 44  1  0  0  0  0
 44 45  1  6  0  0  0
 44 49  1  0  0  0  0
 48 47  2  0  0  0  0
 49 46  1  0  0  0  0
 49 48  2  0  0  0  0
M  END
>  <MODEL>
2

>  <REMARK>
 VINA RESULT:      -8.0      1.143      1.711
  Name = 
  12 active torsions:
  status: ('A' for Active; 'I' for Inactive)
    1  A    between atoms: C_1  and  C_24
    2  A    between atoms: C_1  and  C_27
    3  A    between atoms: N_2  and  C_14
    4  A    between atoms: O_4  and  C_13
    5  A    between atoms: O_4  and  C_29
    6  A    between atoms: C_7  and  C_9
    7  A    between atoms: C_9  and  C_29
    8  A    between atoms: C_11  and  N_48
    9  A    between atoms: C_27  and  C_40
   10  A    between atoms: C_32  and  C_38
   11  A    between atoms: C_32  and  C_41
   12  A    between atoms: C_40  and  C_41
                            x       y       z     vdW  Elec       q    Type
                         _______ _______ _______ _____ _____    ______ ____

>  <TORSDO>
F 12

$$$$
=
 OpenBabel10222417383D

 49 54  0  0  1  0  0  0  0  0999 V2000
  192.4140  175.8060  137.1830 C   0  0  1  0  0  3  0  0  0  0  0  0
  187.0750  177.2860  137.1920 C   0  0  0  0  0  0  0  0  0  0  0  0
  184.8150  177.9830  138.7450 C   0  0  0  0  0  0  0  0  0  0  0  0
  192.0200  176.3850  138.5430 C   0  0  0  0  0  2  0  0  0  0  0  0
  187.2400  177.7960  138.5110 C   0  0  0  0  0  0  0  0  0  0  0  0
  190.8490  177.3470  138.3030 C   0  0  2  0  0  3  0  0  0  0  0  0
  188.2240  176.7570  136.3630 C   0  0  2  0  0  3  0  0  0  0  0  0
  184.6580  177.4870  137.4470 C   0  0  0  0  0  3  0  0  0  0  0  0
  191.3190  176.0140  134.9180 O   0  0  0  0  0  1  0  0  0  0  0  0
  189.6180  177.0050  139.1710 C   0  0  2  0  0  3  0  0  0  0  0  0
  189.3510  177.7550  136.1850 C   0  0  0  0  0  2  0  0  0  0  0  0
  185.7720  177.1380  136.6870 C   0  0  0  0  0  3  0  0  0  0  0  0
  190.5580  177.1880  136.8530 C   0  0  0  0  0  0  0  0  0  0  0  0
  186.1070  178.1410  139.2590 C   0  0  0  0  0  3  0  0  0  0  0  0
  191.3990  176.3610  136.2620 C   0  0  0  0  0  0  0  0  0  0  0  0
  189.0490  179.3610  138.7210 O   0  0  0  0  0  1  0  0  0  0  0  0
  187.8060  176.3050  135.1100 O   0  0  0  0  0  1  0  0  0  0  0  0
  188.5590  178.1250  139.1530 C   0  0  1  0  0  3  0  0  0  0  0  0
  195.8680  171.5060  136.6710 C   0  0  0  0  0  2  0  0  0  0  0  0
  194.5620  171.3170  136.1820 O   0  0  0  0  0  0  0  0  0  0  0  0
  193.3300  173.3160  135.8790 C   0  0  0  0  0  2  0  0  0  0  0  0
  195.8750  173.5970  135.1810 C   0  0  2  0  0  3  0  0  0  0  0  0
  194.7160  175.5310  136.0900 C   0  0  0  0  0  0  0  0  0  0  0  0
  195.8930  176.0270  135.9020 N   0  0  0  0  0  0  0  0  0  0  0  0
  196.4150  172.9160  136.4400 C   0  0  0  0  0  2  0  0  0  0  0  0
  196.9480  175.0370  134.8830 S   0  0  0  0  0  0  0  0  0  0  0  0
  194.4850  174.2180  135.4040 C   0  0  2  0  0  3  0  0  0  0  0  0
  193.7390  172.2230  136.8550 C   0  0  0  0  0  2  0  0  0  0  0  0
  193.7350  176.2870  136.8120 N   0  0  0  0  0  2  0  0  0  0  0  0
  183.6690  178.3120  139.5450 N   0  0  0  0  0  0  0  0  0  0  0  0
  182.5140  178.8760  138.9840 N   0  0  0  0  0  2  0  0  0  0  0  0
  182.3020  178.7200  141.3840 C   0  0  0  0  0  2  0  0  0  0  0  0
  181.7590  179.3820  140.1240 C   0  0  2  0  0  3  0  0  0  0  0  0
  183.6640  178.2310  140.9910 C   0  0  0  0  0  2  0  0  0  0  0  0
  180.2780  179.0960  139.9400 C   0  0  0  0  0  2  0  0  0  0  0  0
  179.9460  177.7040  140.4480 C   0  0  0  0  0  2  0  0  0  0  0  0
  179.7140  176.8320  139.3550 O   0  0  0  0  0  0  0  0  0  0  0  0
  180.5280  175.7190  139.1710 C   0  0  0  0  0  3  0  0  0  0  0  0
  181.6090  175.6180  139.8050 O   0  0  0  0  0  0  0  0  0  0  0  0
  190.0320  176.7740  140.6180 C   0  0  0  0  0  2  0  0  0  0  0  0
  188.9340  177.2100  141.5710 C   0  0  0  0  0  2  0  0  0  0  0  0
  189.0130  176.3950  142.8470 C   0  0  0  0  0  2  0  0  0  0  0  0
  187.8900  176.7900  143.7990 C   0  0  0  0  0  2  0  0  0  0  0  0
  188.3370  177.8000  144.8570 C   0  0  2  0  0  3  0  0  0  0  0  0
  189.8010  177.6270  145.2400 C   0  0  0  0  0  1  0  0  0  0  0  0
  187.9500  177.4960  147.4230 C   0  0  0  0  0  1  0  0  0  0  0  0
  185.0500  178.6580  145.8050 O   0  0  0  0  0  0  0  0  0  0  0  0
  186.2160  178.2590  145.9320 C   0  0  0  0  0  0  0  0  0  0  0  0
  187.4430  177.8400  146.0640 C   0  0  0  0  0  0  0  0  0  0  0  0
  1 29  1  6  0  0  0
  1  4  1  0  0  0  0
  2  5  1  0  0  0  0
  3 14  1  0  0  0  0
  3 30  1  0  0  0  0
  5 18  1  0  0  0  0
  5 14  2  0  0  0  0
  6  4  1  1  0  0  0
  6 10  1  0  0  0  0
  7 17  1  6  0  0  0
  7  2  1  0  0  0  0
  8  3  2  0  0  0  0
  9 15  1  0  0  0  0
 10 40  1  1  0  0  0
 11  7  1  0  0  0  0
 11 13  1  0  0  0  0
 12  2  2  0  0  0  0
 12  8  1  0  0  0  0
 13  6  1  0  0  0  0
 15 13  2  0  0  0  0
 15  1  1  0  0  0  0
 18 16  1  6  0  0  0
 18 10  1  0  0  0  0
 20 19  1  0  0  0  0
 20 28  1  0  0  0  0
 21 28  1  0  0  0  0
 22 27  1  0  0  0  0
 22 25  1  1  0  0  0
 23 29  1  0  0  0  0
 24 23  2  0  0  0  0
 25 19  1  0  0  0  0
 26 22  1  0  0  0  0
 26 24  1  0  0  0  0
 27 21  1  1  0  0  0
 27 23  1  0  0  0  0
 30 34  1  0  0  0  0
 31 30  1  0  0  0  0
 31 33  1  0  0  0  0
 33 35  1  6  0  0  0
 33 32  1  0  0  0  0
 34 32  1  0  0  0  0
 35 36  1  0  0  0  0
 37 36  1  0  0  0  0
 38 37  1  0  0  0  0
 38 39  2  0  0  0  0
 40 41  1  0  0  0  0
 41 42  1  0  0  0  0
 42 43  1  0  0  0  0
 43 44  1  0  0  0  0
 44 45  1  1  0  0  0
 44 49  1  0  0  0  0
 47 48  2  0  0  0  0
 48 49  2  0  0  0  0
 49 46  1  0  0  0  0
M  END
>  <MODEL>
3

>  <REMARK>
 VINA RESULT:      -7.9      1.663      2.307
  Name = 
  12 active torsions:
  status: ('A' for Active; 'I' for Inactive)
    1  A    between atoms: C_1  and  C_24
    2  A    between atoms: C_1  and  C_27
    3  A    between atoms: N_2  and  C_14
    4  A    between atoms: O_4  and  C_13
    5  A    between atoms: O_4  and  C_29
    6  A    between atoms: C_7  and  C_9
    7  A    between atoms: C_9  and  C_29
    8  A    between atoms: C_11  and  N_48
    9  A    between atoms: C_27  and  C_40
   10  A    between atoms: C_32  and  C_38
   11  A    between atoms: C_32  and  C_41
   12  A    between atoms: C_40  and  C_41
                            x       y       z     vdW  Elec       q    Type
                         _______ _______ _______ _____ _____    ______ ____

>  <TORSDO>
F 12

$$$$
=
 OpenBabel10222417383D

 49 54  0  0  1  0  0  0  0  0999 V2000
  192.4460  175.7900  137.2580 C   0  0  1  0  0  3  0  0  0  0  0  0
  187.0700  177.0840  136.9080 C   0  0  0  0  0  0  0  0  0  0  0  0
  184.7180  177.8210  138.2970 C   0  0  0  0  0  0  0  0  0  0  0  0
  191.9700  176.4580  138.5490 C   0  0  0  0  0  2  0  0  0  0  0  0
  187.1560  177.6990  138.1890 C   0  0  0  0  0  0  0  0  0  0  0  0
  190.7830  177.3580  138.1810 C   0  0  2  0  0  3  0  0  0  0  0  0
  188.2730  176.5330  136.1760 C   0  0  2  0  0  3  0  0  0  0  0  0
  184.6390  177.2220  137.0360 C   0  0  0  0  0  3  0  0  0  0  0  0
  191.4560  175.7870  134.9360 O   0  0  0  0  0  1  0  0  0  0  0  0
  189.5220  177.0430  139.0170 C   0  0  2  0  0  3  0  0  0  0  0  0
  189.3760  177.5520  135.9720 C   0  0  0  0  0  2  0  0  0  0  0  0
  185.7990  176.8530  136.3570 C   0  0  0  0  0  3  0  0  0  0  0  0
  190.5670  177.0790  136.7360 C   0  0  0  0  0  0  0  0  0  0  0  0
  185.9780  178.0610  138.8550 C   0  0  0  0  0  3  0  0  0  0  0  0
  191.4600  176.2380  136.2510 C   0  0  0  0  0  0  0  0  0  0  0  0
  188.9040  179.3360  138.3580 O   0  0  0  0  0  1  0  0  0  0  0  0
  187.9310  175.9720  134.9440 O   0  0  0  0  0  1  0  0  0  0  0  0
  188.4320  178.1210  138.8630 C   0  0  1  0  0  3  0  0  0  0  0  0
  195.9850  171.5410  136.9320 C   0  0  0  0  0  2  0  0  0  0  0  0
  194.6950  171.3190  136.4140 O   0  0  0  0  0  0  0  0  0  0  0  0
  193.4390  173.2890  136.0340 C   0  0  0  0  0  2  0  0  0  0  0  0
  195.9960  173.5990  135.3970 C   0  0  2  0  0  3  0  0  0  0  0  0
  194.7810  175.5330  136.2330 C   0  0  0  0  0  0  0  0  0  0  0  0
  195.9540  176.0440  136.0650 N   0  0  0  0  0  0  0  0  0  0  0  0
  196.5140  172.9560  136.6840 C   0  0  0  0  0  2  0  0  0  0  0  0
  197.0520  175.0510  135.0950 S   0  0  0  0  0  0  0  0  0  0  0  0
  194.5910  174.2010  135.5690 C   0  0  2  0  0  3  0  0  0  0  0  0
  193.8400  172.2250  137.0440 C   0  0  0  0  0  2  0  0  0  0  0  0
  193.7680  176.2870  136.9110 N   0  0  0  0  0  2  0  0  0  0  0  0
  183.5250  178.1710  139.0150 N   0  0  0  0  0  0  0  0  0  0  0  0
  182.6690  179.1910  138.5750 N   0  0  0  0  0  2  0  0  0  0  0  0
  181.9140  178.3050  140.6890 C   0  0  0  0  0  2  0  0  0  0  0  0
  181.8140  179.4760  139.7200 C   0  0  2  0  0  3  0  0  0  0  0  0
  183.1900  177.6140  140.3090 C   0  0  0  0  0  2  0  0  0  0  0  0
  180.3830  179.6970  139.2610 C   0  0  0  0  0  2  0  0  0  0  0  0
  180.1520  181.1640  138.9470 C   0  0  0  0  0  2  0  0  0  0  0  0
  179.9980  181.3420  137.5500 O   0  0  0  0  0  0  0  0  0  0  0  0
  180.7120  182.3410  136.8950 C   0  0  0  0  0  3  0  0  0  0  0  0
  181.1550  183.3250  137.5410 O   0  0  0  0  0  0  0  0  0  0  0  0
  189.8730  176.9370  140.4950 C   0  0  0  0  0  2  0  0  0  0  0  0
  188.7280  177.4320  141.3590 C   0  0  0  0  0  2  0  0  0  0  0  0
  188.7540  176.7200  142.6970 C   0  0  0  0  0  2  0  0  0  0  0  0
  187.7950  177.3920  143.6740 C   0  0  0  0  0  2  0  0  0  0  0  0
  188.4730  177.8030  144.9820 C   0  0  2  0  0  3  0  0  0  0  0  0
  189.7340  176.9950  145.2590 C   0  0  0  0  0  1  0  0  0  0  0  0
  186.0620  177.7950  145.9900 C   0  0  0  0  0  1  0  0  0  0  0  0
  188.5190  177.6990  148.5070 O   0  0  0  0  0  0  0  0  0  0  0  0
  188.0430  177.7550  147.3650 C   0  0  0  0  0  0  0  0  0  0  0  0
  187.5430  177.8120  146.1620 C   0  0  0  0  0  0  0  0  0  0  0  0
  1 29  1  6  0  0  0
  1  4  1  0  0  0  0
  2  5  1  0  0  0  0
  3 14  1  0  0  0  0
  3 30  1  0  0  0  0
  5 14  2  0  0  0  0
  5 18  1  0  0  0  0
  6  4  1  1  0  0  0
  6 10  1  0  0  0  0
  7 17  1  6  0  0  0
  7  2  1  0  0  0  0
  8  3  2  0  0  0  0
  9 15  1  0  0  0  0
 10 40  1  1  0  0  0
 11  7  1  0  0  0  0
 11 13  1  0  0  0  0
 12  2  2  0  0  0  0
 12  8  1  0  0  0  0
 13  6  1  0  0  0  0
 15 13  2  0  0  0  0
 15  1  1  0  0  0  0
 18 16  1  6  0  0  0
 18 10  1  0  0  0  0
 20 19  1  0  0  0  0
 20 28  1  0  0  0  0
 21 28  1  0  0  0  0
 22 27  1  0  0  0  0
 22 25  1  1  0  0  0
 23 29  1  0  0  0  0
 24 23  2  0  0  0  0
 25 19  1  0  0  0  0
 26 22  1  0  0  0  0
 26 24  1  0  0  0  0
 27 21  1  1  0  0  0
 27 23  1  0  0  0  0
 30 34  1  0  0  0  0
 31 30  1  0  0  0  0
 31 33  1  0  0  0  0
 33 35  1  6  0  0  0
 33 32  1  0  0  0  0
 34 32  1  0  0  0  0
 36 35  1  0  0  0  0
 37 36  1  0  0  0  0
 38 39  2  0  0  0  0
 38 37  1  0  0  0  0
 40 41  1  0  0  0  0
 41 42  1  0  0  0  0
 42 43  1  0  0  0  0
 43 44  1  0  0  0  0
 44 45  1  1  0  0  0
 44 49  1  0  0  0  0
 46 49  1  0  0  0  0
 48 47  2  0  0  0  0
 49 48  2  0  0  0  0
M  END
>  <MODEL>
4

>  <REMARK>
 VINA RESULT:      -7.8      2.072      2.824
  Name = 
  12 active torsions:
  status: ('A' for Active; 'I' for Inactive)
    1  A    between atoms: C_1  and  C_24
    2  A    between atoms: C_1  and  C_27
    3  A    between atoms: N_2  and  C_14
    4  A    between atoms: O_4  and  C_13
    5  A    between atoms: O_4  and  C_29
    6  A    between atoms: C_7  and  C_9
    7  A    between atoms: C_9  and  C_29
    8  A    between atoms: C_11  and  N_48
    9  A    between atoms: C_27  and  C_40
   10  A    between atoms: C_32  and  C_38
   11  A    between atoms: C_32  and  C_41
   12  A    between atoms: C_40  and  C_41
                            x       y       z     vdW  Elec       q    Type
                         _______ _______ _______ _____ _____    ______ ____

>  <TORSDO>
F 12

$$$$
=
 OpenBabel10222417383D

 49 54  0  0  1  0  0  0  0  0999 V2000
  183.8780  177.5410  138.1380 C   0  0  1  0  0  3  0  0  0  0  0  0
  189.3850  177.1320  138.5920 C   0  0  0  0  0  0  0  0  0  0  0  0
  191.7100  175.6570  137.9400 C   0  0  0  0  0  0  0  0  0  0  0  0
  184.4300  176.5600  137.1030 C   0  0  0  0  0  2  0  0  0  0  0  0
  189.3930  176.2680  137.4600 C   0  0  0  0  0  0  0  0  0  0  0  0
  185.8790  176.9750  136.8130 C   0  0  2  0  0  3  0  0  0  0  0  0
  188.1390  177.8340  139.0830 C   0  0  2  0  0  3  0  0  0  0  0  0
  191.6990  176.5120  139.0460 C   0  0  0  0  0  3  0  0  0  0  0  0
  185.0190  179.3650  139.4590 O   0  0  0  0  0  1  0  0  0  0  0  0
  186.8780  175.8160  137.0270 C   0  0  2  0  0  3  0  0  0  0  0  0
  187.4650  178.6820  138.0230 C   0  0  0  0  0  2  0  0  0  0  0  0
  190.5500  177.2310  139.3690 C   0  0  0  0  0  3  0  0  0  0  0  0
  186.1200  178.0900  137.7670 C   0  0  0  0  0  0  0  0  0  0  0  0
  190.5580  175.5520  137.1530 C   0  0  0  0  0  3  0  0  0  0  0  0
  185.0450  178.3850  138.4730 C   0  0  0  0  0  0  0  0  0  0  0  0
  188.2870  177.1850  135.5370 O   0  0  0  0  0  1  0  0  0  0  0  0
  188.3850  178.6180  140.2130 O   0  0  0  0  0  1  0  0  0  0  0  0
  188.2760  176.1370  136.4620 C   0  0  1  0  0  3  0  0  0  0  0  0
  178.9490  175.1610  138.9870 C   0  0  0  0  0  2  0  0  0  0  0  0
  179.8560  175.1140  140.0610 O   0  0  0  0  0  0  0  0  0  0  0  0
  181.6710  176.6220  139.8780 C   0  0  0  0  0  2  0  0  0  0  0  0
  179.3990  177.6880  139.0190 C   0  0  2  0  0  3  0  0  0  0  0  0
  181.4680  178.3950  137.9570 C   0  0  0  0  0  0  0  0  0  0  0  0
  180.6090  179.0810  137.2800 N   0  0  0  0  0  0  0  0  0  0  0  0
  179.0040  176.4660  138.1880 C   0  0  0  0  0  2  0  0  0  0  0  0
  178.9940  179.1430  138.0020 S   0  0  0  0  0  0  0  0  0  0  0  0
  180.9200  177.7940  139.2170 C   0  0  2  0  0  3  0  0  0  0  0  0
  181.1370  175.2440  139.5200 C   0  0  0  0  0  2  0  0  0  0  0  0
  182.8370  178.3550  137.5320 N   0  0  0  0  0  2  0  0  0  0  0  0
  192.8800  174.8870  137.6230 N   0  0  0  0  0  0  0  0  0  0  0  0
  194.1590  175.2790  138.0440 N   0  0  0  0  0  2  0  0  0  0  0  0
  194.2900  173.3100  136.6560 C   0  0  0  0  0  2  0  0  0  0  0  0
  195.0740  174.4760  137.2430 C   0  0  2  0  0  3  0  0  0  0  0  0
  192.8570  173.7460  136.7320 C   0  0  0  0  0  2  0  0  0  0  0  0
  196.2320  173.9920  138.1000 C   0  0  0  0  0  2  0  0  0  0  0  0
  197.5410  174.5590  137.5830 C   0  0  0  0  0  2  0  0  0  0  0  0
  198.0490  175.5160  138.4970 O   0  0  0  0  0  0  0  0  0  0  0  0
  198.0290  175.2500  139.8620 C   0  0  0  0  0  3  0  0  0  0  0  0
  197.2750  175.9100  140.6220 O   0  0  0  0  0  0  0  0  0  0  0  0
  186.3780  174.5470  136.3500 C   0  0  0  0  0  2  0  0  0  0  0  0
  186.5640  173.3430  137.2550 C   0  0  0  0  0  2  0  0  0  0  0  0
  185.2280  172.9400  137.8480 C   0  0  0  0  0  2  0  0  0  0  0  0
  184.1460  172.9500  136.7740 C   0  0  0  0  0  2  0  0  0  0  0  0
  183.0310  171.9380  137.0460 C   0  0  2  0  0  3  0  0  0  0  0  0
  183.1810  170.6740  136.2090 C   0  0  0  0  0  1  0  0  0  0  0  0
  180.4730  171.8660  137.5730 C   0  0  0  0  0  1  0  0  0  0  0  0
  181.3440  174.7600  135.7700 O   0  0  0  0  0  0  0  0  0  0  0  0
  181.4930  173.6690  136.3380 C   0  0  0  0  0  0  0  0  0  0  0  0
  181.6510  172.5220  136.9370 C   0  0  0  0  0  0  0  0  0  0  0  0
  1 29  1  6  0  0  0
  1 15  1  0  0  0  0
  2  7  1  0  0  0  0
  2 12  1  0  0  0  0
  3  8  1  0  0  0  0
  4  1  1  0  0  0  0
  5  2  2  0  0  0  0
  6 10  1  0  0  0  0
  6  4  1  1  0  0  0
  6 13  1  0  0  0  0
  7 17  1  1  0  0  0
  8 12  2  0  0  0  0
 10 40  1  6  0  0  0
 11  7  1  0  0  0  0
 13 11  1  0  0  0  0
 13 15  2  0  0  0  0
 14  5  1  0  0  0  0
 14  3  2  0  0  0  0
 15  9  1  0  0  0  0
 18 16  1  1  0  0  0
 18 10  1  0  0  0  0
 18  5  1  0  0  0  0
 19 20  1  0  0  0  0
 22 25  1  6  0  0  0
 22 27  1  0  0  0  0
 23 27  1  0  0  0  0
 24 23  2  0  0  0  0
 24 26  1  0  0  0  0
 25 19  1  0  0  0  0
 26 22  1  0  0  0  0
 27 21  1  6  0  0  0
 28 21  1  0  0  0  0
 28 20  1  0  0  0  0
 29 23  1  0  0  0  0
 30  3  1  0  0  0  0
 30 31  1  0  0  0  0
 32 34  1  0  0  0  0
 32 33  1  0  0  0  0
 33 31  1  0  0  0  0
 33 35  1  1  0  0  0
 34 30  1  0  0  0  0
 36 35  1  0  0  0  0
 36 37  1  0  0  0  0
 37 38  1  0  0  0  0
 38 39  2  0  0  0  0
 40 41  1  0  0  0  0
 41 42  1  0  0  0  0
 43 44  1  0  0  0  0
 43 42  1  0  0  0  0
 44 45  1  6  0  0  0
 47 48  2  0  0  0  0
 48 49  2  0  0  0  0
 49 44  1  0  0  0  0
 49 46  1  0  0  0  0
M  END
>  <MODEL>
5

>  <REMARK>
 VINA RESULT:      -7.6      4.464     11.431
  Name = 
  12 active torsions:
  status: ('A' for Active; 'I' for Inactive)
    1  A    between atoms: C_1  and  C_24
    2  A    between atoms: C_1  and  C_27
    3  A    between atoms: N_2  and  C_14
    4  A    between atoms: O_4  and  C_13
    5  A    between atoms: O_4  and  C_29
    6  A    between atoms: C_7  and  C_9
    7  A    between atoms: C_9  and  C_29
    8  A    between atoms: C_11  and  N_48
    9  A    between atoms: C_27  and  C_40
   10  A    between atoms: C_32  and  C_38
   11  A    between atoms: C_32  and  C_41
   12  A    between atoms: C_40  and  C_41
                            x       y       z     vdW  Elec       q    Type
                         _______ _______ _______ _____ _____    ______ ____

>  <TORSDO>
F 12

$$$$
=
 OpenBabel10222417383D

 49 54  0  0  1  0  0  0  0  0999 V2000
  181.8470  178.3160  139.6820 C   0  0  1  0  0  3  0  0  0  0  0  0
  184.2370  178.4980  144.6770 C   0  0  0  0  0  0  0  0  0  0  0  0
  186.6060  178.1380  146.1810 C   0  0  0  0  0  0  0  0  0  0  0  0
  183.3700  178.3210  139.5470 C   0  0  0  0  0  2  0  0  0  0  0  0
  185.5090  178.5770  144.0420 C   0  0  0  0  0  0  0  0  0  0  0  0
  183.9310  179.0260  140.7890 C   0  0  2  0  0  3  0  0  0  0  0  0
  182.9320  178.5340  143.9130 C   0  0  2  0  0  3  0  0  0  0  0  0
  185.3540  178.0680  146.8010 C   0  0  0  0  0  3  0  0  0  0  0  0
  180.3540  179.0010  141.5990 O   0  0  0  0  0  1  0  0  0  0  0  0
  184.9640  178.1590  141.5430 C   0  0  2  0  0  3  0  0  0  0  0  0
  182.7800  179.7580  143.0320 C   0  0  0  0  0  2  0  0  0  0  0  0
  184.1890  178.2390  146.0560 C   0  0  0  0  0  3  0  0  0  0  0  0
  182.7240  179.2860  141.6180 C   0  0  0  0  0  0  0  0  0  0  0  0
  186.6690  178.4010  144.8080 C   0  0  0  0  0  3  0  0  0  0  0  0
  181.6140  178.9020  141.0200 C   0  0  0  0  0  0  0  0  0  0  0  0
  185.6760  180.3470  142.4280 O   0  0  0  0  0  1  0  0  0  0  0  0
  181.8230  178.4330  144.7570 O   0  0  0  0  0  1  0  0  0  0  0  0
  185.7390  178.9610  142.6060 C   0  0  1  0  0  3  0  0  0  0  0  0
  181.7250  175.5980  134.8560 C   0  0  0  0  0  2  0  0  0  0  0  0
  181.4130  174.8450  136.0030 O   0  0  0  0  0  0  0  0  0  0  0  0
  180.9010  176.1400  137.9170 C   0  0  0  0  0  2  0  0  0  0  0  0
  179.9060  177.2030  135.6990 C   0  0  2  0  0  3  0  0  0  0  0  0
  180.5850  178.7070  137.4850 C   0  0  0  0  0  0  0  0  0  0  0  0
  180.1950  179.5570  136.5950 N   0  0  0  0  0  0  0  0  0  0  0  0
  181.2000  177.0360  134.9010 C   0  0  0  0  0  2  0  0  0  0  0  0
  179.2570  178.8490  135.2710 S   0  0  0  0  0  0  0  0  0  0  0  0
  180.1610  177.2940  137.2130 C   0  0  2  0  0  3  0  0  0  0  0  0
  182.0020  175.4940  137.0910 C   0  0  0  0  0  2  0  0  0  0  0  0
  181.2640  179.1700  138.6590 N   0  0  0  0  0  2  0  0  0  0  0  0
  187.8080  177.9290  146.9370 N   0  0  0  0  0  0  0  0  0  0  0  0
  188.8600  177.1380  146.4510 N   0  0  0  0  0  2  0  0  0  0  0  0
  189.3350  177.8950  148.6930 C   0  0  0  0  0  2  0  0  0  0  0  0
  189.6990  176.8820  147.6150 C   0  0  2  0  0  3  0  0  0  0  0  0
  187.9720  178.3830  148.3030 C   0  0  0  0  0  2  0  0  0  0  0  0
  191.1660  176.9790  147.2330 C   0  0  0  0  0  2  0  0  0  0  0  0
  191.8990  175.7130  147.6400 C   0  0  0  0  0  2  0  0  0  0  0  0
  193.1390  176.0430  148.2430 O   0  0  0  0  0  0  0  0  0  0  0  0
  193.1600  176.7580  149.4360 C   0  0  0  0  0  3  0  0  0  0  0  0
  194.2580  177.0570  149.9720 O   0  0  0  0  0  0  0  0  0  0  0  0
  185.9770  177.5670  140.5720 C   0  0  0  0  0  2  0  0  0  0  0  0
  186.9440  178.6300  140.0850 C   0  0  0  0  0  2  0  0  0  0  0  0
  188.3630  178.1020  140.1580 C   0  0  0  0  0  2  0  0  0  0  0  0
  188.8550  178.1040  141.6010 C   0  0  0  0  0  2  0  0  0  0  0  0
  189.3610  176.7340  142.0570 C   0  0  2  0  0  3  0  0  0  0  0  0
  188.5070  176.1440  143.1720 C   0  0  0  0  0  1  0  0  0  0  0  0
  191.3130  176.1630  143.6970 C   0  0  0  0  0  1  0  0  0  0  0  0
  192.5100  177.5210  140.6790 O   0  0  0  0  0  0  0  0  0  0  0  0
  191.6880  177.1300  141.5200 C   0  0  0  0  0  0  0  0  0  0  0  0
  190.8230  176.7190  142.4030 C   0  0  0  0  0  0  0  0  0  0  0  0
  1 29  1  6  0  0  0
  1 15  1  0  0  0  0
  2 12  1  0  0  0  0
  3  8  1  0  0  0  0
  3 30  1  0  0  0  0
  4  1  1  0  0  0  0
  5  2  2  0  0  0  0
  5 14  1  0  0  0  0
  6  4  1  6  0  0  0
  6 10  1  0  0  0  0
  6 13  1  0  0  0  0
  7  2  1  0  0  0  0
  7 17  1  1  0  0  0
 10 40  1  6  0  0  0
 10 18  1  0  0  0  0
 11  7  1  0  0  0  0
 12  8  2  0  0  0  0
 13 11  1  0  0  0  0
 14  3  2  0  0  0  0
 15  9  1  0  0  0  0
 15 13  2  0  0  0  0
 18 16  1  1  0  0  0
 18  5  1  0  0  0  0
 19 25  1  0  0  0  0
 19 20  1  0  0  0  0
 20 28  1  0  0  0  0
 22 25  1  6  0  0  0
 22 27  1  0  0  0  0
 23 29  1  0  0  0  0
 24 23  2  0  0  0  0
 26 22  1  0  0  0  0
 26 24  1  0  0  0  0
 27 23  1  0  0  0  0
 27 21  1  6  0  0  0
 28 21  1  0  0  0  0
 30 34  1  0  0  0  0
 31 30  1  0  0  0  0
 31 33  1  0  0  0  0
 33 35  1  6  0  0  0
 33 32  1  0  0  0  0
 34 32  1  0  0  0  0
 35 36  1  0  0  0  0
 36 37  1  0  0  0  0
 37 38  1  0  0  0  0
 38 39  2  0  0  0  0
 41 42  1  0  0  0  0
 41 40  1  0  0  0  0
 42 43  1  0  0  0  0
 43 44  1  0  0  0  0
 44 49  1  0  0  0  0
 44 45  1  1  0  0  0
 47 48  2  0  0  0  0
 48 49  2  0  0  0  0
 49 46  1  0  0  0  0
M  END
>  <MODEL>
6

>  <REMARK>
 VINA RESULT:      -6.5      5.282      9.963
  Name = 
  12 active torsions:
  status: ('A' for Active; 'I' for Inactive)
    1  A    between atoms: C_1  and  C_24
    2  A    between atoms: C_1  and  C_27
    3  A    between atoms: N_2  and  C_14
    4  A    between atoms: O_4  and  C_13
    5  A    between atoms: O_4  and  C_29
    6  A    between atoms: C_7  and  C_9
    7  A    between atoms: C_9  and  C_29
    8  A    between atoms: C_11  and  N_48
    9  A    between atoms: C_27  and  C_40
   10  A    between atoms: C_32  and  C_38
   11  A    between atoms: C_32  and  C_41
   12  A    between atoms: C_40  and  C_41
                            x       y       z     vdW  Elec       q    Type
                         _______ _______ _______ _____ _____    ______ ____

>  <TORSDO>
F 12

$$$$
=
 OpenBabel10222417383D

 49 54  0  0  1  0  0  0  0  0999 V2000
  183.8980  178.0350  140.1170 C   0  0  1  0  0  3  0  0  0  0  0  0
  189.3460  177.2700  139.4610 C   0  0  0  0  0  0  0  0  0  0  0  0
  191.4400  176.5610  137.6960 C   0  0  0  0  0  0  0  0  0  0  0  0
  184.2590  177.9980  138.6320 C   0  0  0  0  0  2  0  0  0  0  0  0
  189.1740  177.4000  138.0540 C   0  0  0  0  0  0  0  0  0  0  0  0
  185.7180  178.4580  138.5090 C   0  0  2  0  0  3  0  0  0  0  0  0
  188.2250  177.4900  140.4520 C   0  0  2  0  0  3  0  0  0  0  0  0
  191.6070  176.4410  139.0790 C   0  0  0  0  0  3  0  0  0  0  0  0
  185.3280  178.4510  142.1560 O   0  0  0  0  0  1  0  0  0  0  0  0
  186.5990  177.4330  137.7610 C   0  0  2  0  0  3  0  0  0  0  0  0
  187.5680  178.8510  140.3300 C   0  0  0  0  0  2  0  0  0  0  0  0
  190.5710  176.7850  139.9460 C   0  0  0  0  0  3  0  0  0  0  0  0
  186.1510  178.6260  139.9220 C   0  0  0  0  0  0  0  0  0  0  0  0
  190.2270  177.0490  137.1990 C   0  0  0  0  0  3  0  0  0  0  0  0
  185.1720  178.3970  140.7750 C   0  0  0  0  0  0  0  0  0  0  0  0
  188.0300  179.4080  137.4020 O   0  0  0  0  0  1  0  0  0  0  0  0
  188.6410  177.2960  141.7710 O   0  0  0  0  0  1  0  0  0  0  0  0
  187.9760  178.0110  137.3800 C   0  0  1  0  0  3  0  0  0  0  0  0
  179.0170  176.4330  138.0450 C   0  0  0  0  0  2  0  0  0  0  0  0
  179.7780  175.4390  138.6880 O   0  0  0  0  0  0  0  0  0  0  0  0
  181.5280  176.2690  140.0480 C   0  0  0  0  0  2  0  0  0  0  0  0
  179.3400  177.7590  140.2200 C   0  0  2  0  0  3  0  0  0  0  0  0
  181.4950  178.8580  140.4640 C   0  0  0  0  0  0  0  0  0  0  0  0
  180.7000  179.8680  140.5740 N   0  0  0  0  0  0  0  0  0  0  0  0
  179.1150  177.8100  138.7080 C   0  0  0  0  0  2  0  0  0  0  0  0
  179.0040  179.4390  140.8380 S   0  0  0  0  0  0  0  0  0  0  0  0
  180.8160  177.5260  140.5840 C   0  0  2  0  0  3  0  0  0  0  0  0
  181.1110  175.8530  138.6460 C   0  0  0  0  0  2  0  0  0  0  0  0
  182.9080  179.0740  140.3520 N   0  0  0  0  0  2  0  0  0  0  0  0
  192.4920  176.1760  136.7970 N   0  0  0  0  0  0  0  0  0  0  0  0
  193.8370  176.4730  137.0630 N   0  0  0  0  0  2  0  0  0  0  0  0
  193.6120  175.4170  134.9040 C   0  0  0  0  0  2  0  0  0  0  0  0
  194.5210  176.2550  135.7940 C   0  0  2  0  0  3  0  0  0  0  0  0
  192.2450  175.5920  135.4950 C   0  0  0  0  0  2  0  0  0  0  0  0
  195.8550  175.5680  136.0300 C   0  0  0  0  0  2  0  0  0  0  0  0
  195.6370  174.1120  136.4040 C   0  0  0  0  0  2  0  0  0  0  0  0
  196.7280  173.3280  135.9550 O   0  0  0  0  0  0  0  0  0  0  0  0
  197.6020  172.7620  136.8780 C   0  0  0  0  0  3  0  0  0  0  0  0
  198.5110  173.4600  137.3950 O   0  0  0  0  0  0  0  0  0  0  0  0
  185.9140  176.9710  136.4820 C   0  0  0  0  0  2  0  0  0  0  0  0
  186.9150  176.3460  135.5280 C   0  0  0  0  0  2  0  0  0  0  0  0
  186.9590  174.8470  135.7450 C   0  0  0  0  0  2  0  0  0  0  0  0
  185.6270  174.3500  136.2940 C   0  0  0  0  0  2  0  0  0  0  0  0
  185.7440  172.9990  137.0030 C   0  0  2  0  0  3  0  0  0  0  0  0
  187.1930  172.5810  137.2140 C   0  0  0  0  0  1  0  0  0  0  0  0
  185.5050  171.0450  135.2860 C   0  0  0  0  0  1  0  0  0  0  0  0
  182.5900  171.4360  137.2180 O   0  0  0  0  0  0  0  0  0  0  0  0
  183.7320  171.6670  136.7980 C   0  0  0  0  0  0  0  0  0  0  0  0
  184.9340  171.9110  136.3570 C   0  0  0  0  0  0  0  0  0  0  0  0
  1 29  1  6  0  0  0
  1 15  1  0  0  0  0
  2 12  1  0  0  0  0
  2  7  1  0  0  0  0
  3  8  1  0  0  0  0
  4  1  1  0  0  0  0
  5  2  2  0  0  0  0
  6  4  1  1  0  0  0
  6 13  1  0  0  0  0
  7 17  1  1  0  0  0
  8 12  2  0  0  0  0
 10 40  1  6  0  0  0
 10  6  1  0  0  0  0
 11  7  1  0  0  0  0
 13 11  1  0  0  0  0
 13 15  2  0  0  0  0
 14  3  2  0  0  0  0
 14  5  1  0  0  0  0
 15  9  1  0  0  0  0
 18 16  1  1  0  0  0
 18 10  1  0  0  0  0
 18  5  1  0  0  0  0
 19 20  1  0  0  0  0
 19 25  1  0  0  0  0
 22 25  1  6  0  0  0
 22 27  1  0  0  0  0
 22 26  1  0  0  0  0
 23 24  2  0  0  0  0
 23 27  1  0  0  0  0
 24 26  1  0  0  0  0
 27 21  1  6  0  0  0
 28 20  1  0  0  0  0
 28 21  1  0  0  0  0
 29 23  1  0  0  0  0
 30 31  1  0  0  0  0
 30  3  1  0  0  0  0
 32 34  1  0  0  0  0
 32 33  1  0  0  0  0
 33 35  1  1  0  0  0
 33 31  1  0  0  0  0
 34 30  1  0  0  0  0
 35 36  1  0  0  0  0
 37 36  1  0  0  0  0
 37 38  1  0  0  0  0
 38 39  2  0  0  0  0
 41 42  1  0  0  0  0
 41 40  1  0  0  0  0
 42 43  1  0  0  0  0
 43 44  1  0  0  0  0
 44 45  1  6  0  0  0
 46 49  1  0  0  0  0
 48 47  2  0  0  0  0
 49 48  2  0  0  0  0
 49 44  1  0  0  0  0
M  END
>  <MODEL>
7

>  <REMARK>
 VINA RESULT:      -6.4      4.051     11.454
  Name = 
  12 active torsions:
  status: ('A' for Active; 'I' for Inactive)
    1  A    between atoms: C_1  and  C_24
    2  A    between atoms: C_1  and  C_27
    3  A    between atoms: N_2  and  C_14
    4  A    between atoms: O_4  and  C_13
    5  A    between atoms: O_4  and  C_29
    6  A    between atoms: C_7  and  C_9
    7  A    between atoms: C_9  and  C_29
    8  A    between atoms: C_11  and  N_48
    9  A    between atoms: C_27  and  C_40
   10  A    between atoms: C_32  and  C_38
   11  A    between atoms: C_32  and  C_41
   12  A    between atoms: C_40  and  C_41
                            x       y       z     vdW  Elec       q    Type
                         _______ _______ _______ _____ _____    ______ ____

>  <TORSDO>
F 12

$$$$
=
 OpenBabel10222417383D

 49 54  0  0  1  0  0  0  0  0999 V2000
  192.7930  174.5080  135.9990 C   0  0  1  0  0  3  0  0  0  0  0  0
  187.2880  175.1150  136.1330 C   0  0  0  0  0  0  0  0  0  0  0  0
  185.0920  176.5700  137.1650 C   0  0  0  0  0  0  0  0  0  0  0  0
  192.4180  175.8750  136.5720 C   0  0  0  0  0  2  0  0  0  0  0  0
  187.4670  176.4460  136.6040 C   0  0  0  0  0  0  0  0  0  0  0  0
  191.0510  176.2520  135.9850 C   0  0  2  0  0  3  0  0  0  0  0  0
  188.4380  174.2300  135.7070 C   0  0  2  0  0  3  0  0  0  0  0  0
  184.9190  175.2650  136.6960 C   0  0  0  0  0  3  0  0  0  0  0  0
  191.4660  172.8840  134.5940 O   0  0  0  0  0  1  0  0  0  0  0  0
  190.0110  176.5820  137.0780 C   0  0  2  0  0  3  0  0  0  0  0  0
  189.3030  174.8430  134.6240 C   0  0  0  0  0  2  0  0  0  0  0  0
  186.0040  174.5470  136.1950 C   0  0  0  0  0  3  0  0  0  0  0  0
  190.6630  175.0480  135.2030 C   0  0  0  0  0  0  0  0  0  0  0  0
  186.3640  177.1500  137.1050 C   0  0  0  0  0  3  0  0  0  0  0  0
  191.5990  174.1200  135.2170 C   0  0  0  0  0  0  0  0  0  0  0  0
  188.9130  177.7740  135.2200 O   0  0  0  0  0  1  0  0  0  0  0  0
  188.0070  172.9670  135.2940 O   0  0  0  0  0  1  0  0  0  0  0  0
  188.7420  177.2380  136.5010 C   0  0  1  0  0  3  0  0  0  0  0  0
  197.4360  174.7030  139.0130 C   0  0  0  0  0  2  0  0  0  0  0  0
  196.4520  173.7930  139.4430 O   0  0  0  0  0  0  0  0  0  0  0  0
  194.7850  173.3190  137.8310 C   0  0  0  0  0  2  0  0  0  0  0  0
  197.1940  173.5330  136.7400 C   0  0  2  0  0  3  0  0  0  0  0  0
  195.2720  174.2130  135.4150 C   0  0  0  0  0  0  0  0  0  0  0  0
  196.2310  174.4780  134.5940 N   0  0  0  0  0  0  0  0  0  0  0  0
  197.5460  174.8190  137.4900 C   0  0  0  0  0  2  0  0  0  0  0  0
  197.7890  173.7630  135.0350 S   0  0  0  0  0  0  0  0  0  0  0  0
  195.6750  173.3510  136.5740 C   0  0  2  0  0  3  0  0  0  0  0  0
  195.2290  174.2510  138.9480 C   0  0  0  0  0  2  0  0  0  0  0  0
  193.9390  174.6470  135.1140 N   0  0  0  0  0  2  0  0  0  0  0  0
  183.9840  177.3010  137.7140 N   0  0  0  0  0  0  0  0  0  0  0  0
  183.8110  177.4510  139.0980 N   0  0  0  0  0  2  0  0  0  0  0  0
  181.9610  178.4340  137.9000 C   0  0  0  0  0  2  0  0  0  0  0  0
  182.4370  177.9140  139.2500 C   0  0  2  0  0  3  0  0  0  0  0  0
  182.8940  177.8080  136.9070 C   0  0  0  0  0  2  0  0  0  0  0  0
  182.3630  178.9910  140.3180 C   0  0  0  0  0  2  0  0  0  0  0  0
  183.0360  178.5140  141.5930 C   0  0  0  0  0  2  0  0  0  0  0  0
  184.2130  179.2660  141.8310 O   0  0  0  0  0  0  0  0  0  0  0  0
  184.8330  179.2100  143.0750 C   0  0  0  0  0  3  0  0  0  0  0  0
  184.2270  179.6180  144.0990 O   0  0  0  0  0  0  0  0  0  0  0  0
  190.6020  177.5340  138.1100 C   0  0  0  0  0  2  0  0  0  0  0  0
  191.4440  176.7790  139.1210 C   0  0  0  0  0  2  0  0  0  0  0  0
  190.6520  176.5820  140.3990 C   0  0  0  0  0  2  0  0  0  0  0  0
  191.2260  177.4440  141.5170 C   0  0  0  0  0  2  0  0  0  0  0  0
  190.8770  176.9180  142.9110 C   0  0  2  0  0  3  0  0  0  0  0  0
  190.0540  175.6380  142.8560 C   0  0  0  0  0  1  0  0  0  0  0  0
  190.9470  179.2240  144.1370 C   0  0  0  0  0  1  0  0  0  0  0  0
  187.8720  177.5870  144.6320 O   0  0  0  0  0  0  0  0  0  0  0  0
  189.0300  177.7650  144.2280 C   0  0  0  0  0  0  0  0  0  0  0  0
  190.2470  177.9510  143.8020 C   0  0  0  0  0  0  0  0  0  0  0  0
  1 29  1  6  0  0  0
  1  4  1  0  0  0  0
  2 12  2  0  0  0  0
  2  5  1  0  0  0  0
  3 30  1  0  0  0  0
  5 14  2  0  0  0  0
  6  4  1  1  0  0  0
  6 10  1  0  0  0  0
  7 17  1  6  0  0  0
  7  2  1  0  0  0  0
  8  3  2  0  0  0  0
  9 15  1  0  0  0  0
 10 40  1  1  0  0  0
 11 13  1  0  0  0  0
 11  7  1  0  0  0  0
 12  8  1  0  0  0  0
 13 15  2  0  0  0  0
 13  6  1  0  0  0  0
 14  3  1  0  0  0  0
 15  1  1  0  0  0  0
 18 16  1  6  0  0  0
 18  5  1  0  0  0  0
 18 10  1  0  0  0  0
 19 20  1  0  0  0  0
 21 28  1  0  0  0  0
 22 25  1  1  0  0  0
 23 27  1  0  0  0  0
 24 26  1  0  0  0  0
 24 23  2  0  0  0  0
 25 19  1  0  0  0  0
 26 22  1  0  0  0  0
 27 22  1  0  0  0  0
 27 21  1  1  0  0  0
 28 20  1  0  0  0  0
 29 23  1  0  0  0  0
 30 31  1  0  0  0  0
 31 33  1  0  0  0  0
 32 33  1  0  0  0  0
 33 35  1  1  0  0  0
 34 30  1  0  0  0  0
 34 32  1  0  0  0  0
 35 36  1  0  0  0  0
 36 37  1  0  0  0  0
 37 38  1  0  0  0  0
 38 39  2  0  0  0  0
 40 41  1  0  0  0  0
 41 42  1  0  0  0  0
 42 43  1  0  0  0  0
 43 44  1  0  0  0  0
 44 45  1  6  0  0  0
 44 49  1  0  0  0  0
 48 47  2  0  0  0  0
 49 46  1  0  0  0  0
 49 48  2  0  0  0  0
M  END
>  <MODEL>
8

>  <REMARK>
 VINA RESULT:      -6.2      1.979      2.888
  Name = 
  12 active torsions:
  status: ('A' for Active; 'I' for Inactive)
    1  A    between atoms: C_1  and  C_24
    2  A    between atoms: C_1  and  C_27
    3  A    between atoms: N_2  and  C_14
    4  A    between atoms: O_4  and  C_13
    5  A    between atoms: O_4  and  C_29
    6  A    between atoms: C_7  and  C_9
    7  A    between atoms: C_9  and  C_29
    8  A    between atoms: C_11  and  N_48
    9  A    between atoms: C_27  and  C_40
   10  A    between atoms: C_32  and  C_38
   11  A    between atoms: C_32  and  C_41
   12  A    between atoms: C_40  and  C_41
                            x       y       z     vdW  Elec       q    Type
                         _______ _______ _______ _____ _____    ______ ____

>  <TORSDO>
F 12

$$$$
=
 OpenBabel10222417383D

 49 54  0  0  1  0  0  0  0  0999 V2000
  182.1140  178.2490  139.2770 C   0  0  1  0  0  3  0  0  0  0  0  0
  184.1760  178.5190  144.4120 C   0  0  0  0  0  0  0  0  0  0  0  0
  186.4600  178.2560  146.0620 C   0  0  0  0  0  0  0  0  0  0  0  0
  183.6410  178.3190  139.2380 C   0  0  0  0  0  2  0  0  0  0  0  0
  185.4810  178.6530  143.8590 C   0  0  0  0  0  0  0  0  0  0  0  0
  184.0930  179.0430  140.5130 C   0  0  2  0  0  3  0  0  0  0  0  0
  182.9210  178.5020  143.5680 C   0  0  2  0  0  3  0  0  0  0  0  0
  185.1760  178.1320  146.6030 C   0  0  0  0  0  3  0  0  0  0  0  0
  180.4770  178.8650  141.0960 O   0  0  0  0  0  1  0  0  0  0  0  0
  185.1130  178.2190  141.3300 C   0  0  2  0  0  3  0  0  0  0  0  0
  182.7730  179.7200  142.6800 C   0  0  0  0  0  2  0  0  0  0  0  0
  184.0530  178.2540  145.7860 C   0  0  0  0  0  3  0  0  0  0  0  0
  182.8270  179.2500  141.2650 C   0  0  0  0  0  0  0  0  0  0  0  0
  186.5970  178.5250  144.6960 C   0  0  0  0  0  3  0  0  0  0  0  0
  181.7740  178.8210  140.5980 C   0  0  0  0  0  0  0  0  0  0  0  0
  185.6740  180.4330  142.2580 O   0  0  0  0  0  1  0  0  0  0  0  0
  181.7680  178.3510  144.3410 O   0  0  0  0  0  1  0  0  0  0  0  0
  185.7840  179.0510  142.4400 C   0  0  1  0  0  3  0  0  0  0  0  0
  180.4790  175.0390  135.0690 C   0  0  0  0  0  2  0  0  0  0  0  0
  180.2230  174.5480  136.3630 O   0  0  0  0  0  0  0  0  0  0  0  0
  180.3860  176.1710  138.0780 C   0  0  0  0  0  2  0  0  0  0  0  0
  179.2630  177.1500  135.8820 C   0  0  2  0  0  3  0  0  0  0  0  0
  180.5880  178.6540  137.2580 C   0  0  0  0  0  0  0  0  0  0  0  0
  180.2420  179.4500  136.3020 N   0  0  0  0  0  0  0  0  0  0  0  0
  180.3130  176.5550  134.9410 C   0  0  0  0  0  2  0  0  0  0  0  0
  178.9370  178.8360  135.2760 S   0  0  0  0  0  0  0  0  0  0  0  0
  179.8100  177.3720  137.3020 C   0  0  2  0  0  3  0  0  0  0  0  0
  181.1370  175.1640  137.2210 C   0  0  0  0  0  2  0  0  0  0  0  0
  181.5610  179.0810  138.2200 N   0  0  0  0  0  2  0  0  0  0  0  0
  187.6200  178.0960  146.8930 N   0  0  0  0  0  0  0  0  0  0  0  0
  188.7040  177.2970  146.5010 N   0  0  0  0  0  2  0  0  0  0  0  0
  189.0470  178.1600  148.7290 C   0  0  0  0  0  2  0  0  0  0  0  0
  189.4800  177.1040  147.7210 C   0  0  2  0  0  3  0  0  0  0  0  0
  187.7030  178.6140  148.2420 C   0  0  0  0  0  2  0  0  0  0  0  0
  190.9650  177.2010  147.4170 C   0  0  0  0  0  2  0  0  0  0  0  0
  191.2650  176.5900  146.0590 C   0  0  0  0  0  2  0  0  0  0  0  0
  191.9560  177.5250  145.2490 O   0  0  0  0  0  0  0  0  0  0  0  0
  191.3450  178.0390  144.1090 C   0  0  0  0  0  3  0  0  0  0  0  0
  190.9420  179.2310  144.0940 O   0  0  0  0  0  0  0  0  0  0  0  0
  186.2080  177.6730  140.4250 C   0  0  0  0  0  2  0  0  0  0  0  0
  187.4980  178.4510  140.6070 C   0  0  0  0  0  2  0  0  0  0  0  0
  188.6730  177.6030  140.1620 C   0  0  0  0  0  2  0  0  0  0  0  0
  189.1210  178.0090  138.7630 C   0  0  0  0  0  2  0  0  0  0  0  0
  188.9480  176.8890  137.7360 C   0  0  2  0  0  3  0  0  0  0  0  0
  189.9310  177.0080  136.5790 C   0  0  0  0  0  1  0  0  0  0  0  0
  186.7500  177.8880  136.7360 C   0  0  0  0  0  1  0  0  0  0  0  0
  186.5060  174.4060  137.1820 O   0  0  0  0  0  0  0  0  0  0  0  0
  187.0060  175.5390  137.2180 C   0  0  0  0  0  0  0  0  0  0  0  0
  187.5330  176.7300  137.2550 C   0  0  0  0  0  0  0  0  0  0  0  0
  1 29  1  6  0  0  0
  1 15  1  0  0  0  0
  2 12  1  0  0  0  0
  3  8  1  0  0  0  0
  3 30  1  0  0  0  0
  4  1  1  0  0  0  0
  5  2  2  0  0  0  0
  5 14  1  0  0  0  0
  6  4  1  6  0  0  0
  6 13  1  0  0  0  0
  6 10  1  0  0  0  0
  7 17  1  1  0  0  0
  7  2  1  0  0  0  0
 10 40  1  6  0  0  0
 10 18  1  0  0  0  0
 11  7  1  0  0  0  0
 12  8  2  0  0  0  0
 13 11  1  0  0  0  0
 14  3  2  0  0  0  0
 15  9  1  0  0  0  0
 15 13  2  0  0  0  0
 18 16  1  1  0  0  0
 18  5  1  0  0  0  0
 19 20  1  0  0  0  0
 20 28  1  0  0  0  0
 22 25  1  6  0  0  0
 22 27  1  0  0  0  0
 23 27  1  0  0  0  0
 23 29  1  0  0  0  0
 24 23  2  0  0  0  0
 25 19  1  0  0  0  0
 26 22  1  0  0  0  0
 26 24  1  0  0  0  0
 27 21  1  6  0  0  0
 28 21  1  0  0  0  0
 30 34  1  0  0  0  0
 31 30  1  0  0  0  0
 31 33  1  0  0  0  0
 33 35  1  6  0  0  0
 33 32  1  0  0  0  0
 34 32  1  0  0  0  0
 36 35  1  0  0  0  0
 37 36  1  0  0  0  0
 38 37  1  0  0  0  0
 39 38  2  0  0  0  0
 40 41  1  0  0  0  0
 42 41  1  0  0  0  0
 43 42  1  0  0  0  0
 44 45  1  6  0  0  0
 44 43  1  0  0  0  0
 46 49  1  0  0  0  0
 47 48  2  0  0  0  0
 48 49  2  0  0  0  0
 49 44  1  0  0  0  0
M  END
>  <MODEL>
9

>  <REMARK>
 VINA RESULT:      -6.1      4.851     10.257
  Name = 
  12 active torsions:
  status: ('A' for Active; 'I' for Inactive)
    1  A    between atoms: C_1  and  C_24
    2  A    between atoms: C_1  and  C_27
    3  A    between atoms: N_2  and  C_14
    4  A    between atoms: O_4  and  C_13
    5  A    between atoms: O_4  and  C_29
    6  A    between atoms: C_7  and  C_9
    7  A    between atoms: C_9  and  C_29
    8  A    between atoms: C_11  and  N_48
    9  A    between atoms: C_27  and  C_40
   10  A    between atoms: C_32  and  C_38
   11  A    between atoms: C_32  and  C_41
   12  A    between atoms: C_40  and  C_41
                            x       y       z     vdW  Elec       q    Type
                         _______ _______ _______ _____ _____    ______ ____

>  <TORSDO>
F 12

$$$$
