=
 OpenBabel10222418253D

 26 30  0  0  0  0  0  0  0  0999 V2000
  190.0630  176.9890  145.1910 C   0  0  0  0  0  0  0  0  0  0  0  0
  183.4950  178.9680  144.3190 C   0  0  0  0  0  3  0  0  0  0  0  0
  192.0350  176.4700  146.4620 N   0  0  0  0  0  0  0  0  0  0  0  0
  185.1400  178.5800  146.0100 C   0  0  0  0  0  3  0  0  0  0  0  0
  184.3960  178.6130  143.3030 C   0  0  0  0  0  3  0  0  0  0  0  0
  187.3880  177.8220  145.2060 C   0  0  0  0  0  0  0  0  0  0  0  0
  186.0600  178.2220  145.0250 C   0  0  0  0  0  0  0  0  0  0  0  0
  189.3660  177.1150  143.9520 C   0  0  0  0  0  0  0  0  0  0  0  0
  188.0590  177.7030  146.4200 C   0  0  0  0  0  3  0  0  0  0  0  0
  190.0720  177.1650  147.6290 C   0  0  0  0  0  3  0  0  0  0  0  0
  183.8810  178.9440  145.6310 N   0  0  0  0  0  0  0  0  0  0  0  0
  185.6780  178.2430  143.6920 C   0  0  0  0  0  0  0  0  0  0  0  0
  186.9660  177.7700  142.7120 S   0  0  0  0  0  0  0  0  0  0  0  0
  189.3950  177.2870  146.4150 C   0  0  0  0  0  0  0  0  0  0  0  0
  191.4020  176.5780  145.2640 C   0  0  0  0  0  3  0  0  0  0  0  0
  191.4030  176.7510  147.6320 C   0  0  0  0  0  3  0  0  0  0  0  0
  188.0330  177.5330  144.0060 C   0  0  0  0  0  0  0  0  0  0  0  0
  190.7560  177.6110  142.0110 C   0  0  0  0  0  3  0  0  0  0  0  0
  189.9380  176.8420  142.6580 N   0  0  0  0  0  0  0  0  0  0  0  0
  190.9830  176.3490  138.4610 C   0  0  0  0  0  3  0  0  0  0  0  0
  192.3450  176.5450  138.2260 C   0  0  0  0  0  0  0  0  0  0  0  0
  191.2790  177.2350  140.6950 C   0  0  0  0  0  0  0  0  0  0  0  0
  190.4500  176.6960  139.7030 C   0  0  0  0  0  3  0  0  0  0  0  0
  192.6360  177.4150  140.4170 C   0  0  0  0  0  3  0  0  0  0  0  0
  193.1370  177.0700  139.2010 N   0  0  0  0  0  0  0  0  0  0  0  0
  193.0360  176.1170  136.6770 Cl  0  0  0  0  0  0  0  0  0  0  0  0
  1 15  1  0  0  0  0
  1 14  1  0  0  0  0
  2 11  1  0  0  0  0
  3 16  1  0  0  0  0
  5 12  1  0  0  0  0
  5  2  2  0  0  0  0
  6  9  1  0  0  0  0
  7  6  1  0  0  0  0
  7  4  1  0  0  0  0
  8 17  1  0  0  0  0
  8  1  2  0  0  0  0
 10 16  2  0  0  0  0
 11  4  2  0  0  0  0
 12  7  2  0  0  0  0
 13 12  1  0  0  0  0
 13 17  1  0  0  0  0
 14  9  2  0  0  0  0
 14 10  1  0  0  0  0
 15  3  2  0  0  0  0
 17  6  2  0  0  0  0
 18 19  2  0  0  0  0
 19  8  1  0  0  0  0
 20 23  1  0  0  0  0
 21 20  2  0  0  0  0
 21 25  1  0  0  0  0
 22 18  1  0  0  0  0
 23 22  2  0  0  0  0
 24 22  1  0  0  0  0
 25 24  2  0  0  0  0
 26 21  1  0  0  0  0
M  END
>  <MODEL>
1

>  <REMARK>
 VINA RESULT:     -11.0      0.000      0.000
  Name = 
  2 active torsions:
  status: ('A' for Active; 'I' for Inactive)
    1  A    between atoms: C_3  and  C_9
    2  A    between atoms: N_6  and  C_14
                            x       y       z     vdW  Elec       q    Type
                         _______ _______ _______ _____ _____    ______ ____

>  <TORSDO>
F 2

$$$$
=
 OpenBabel10222418253D

 26 30  0  0  0  0  0  0  0  0999 V2000
  185.9810  178.1450  143.5850 C   0  0  0  0  0  0  0  0  0  0  0  0
  191.8150  176.5030  146.9150 C   0  0  0  0  0  3  0  0  0  0  0  0
  183.6880  178.8430  143.4160 N   0  0  0  0  0  0  0  0  0  0  0  0
  189.5630  177.2140  147.2920 C   0  0  0  0  0  3  0  0  0  0  0  0
  191.6240  176.4980  145.5250 C   0  0  0  0  0  3  0  0  0  0  0  0
  188.1590  177.5520  145.2450 C   0  0  0  0  0  0  0  0  0  0  0  0
  189.3400  177.2190  145.9150 C   0  0  0  0  0  0  0  0  0  0  0  0
  187.2160  177.7390  142.9960 C   0  0  0  0  0  0  0  0  0  0  0  0
  186.9590  177.9470  145.8310 C   0  0  0  0  0  3  0  0  0  0  0  0
  184.6660  178.6420  145.5840 C   0  0  0  0  0  3  0  0  0  0  0  0
  190.7950  176.8560  147.7560 N   0  0  0  0  0  0  0  0  0  0  0  0
  190.3680  176.8630  145.0540 C   0  0  0  0  0  0  0  0  0  0  0  0
  189.8420  176.9520  143.4550 S   0  0  0  0  0  0  0  0  0  0  0  0
  185.8700  178.2450  145.0040 C   0  0  0  0  0  0  0  0  0  0  0  0
  184.8490  178.4600  142.8210 C   0  0  0  0  0  3  0  0  0  0  0  0
  183.5760  178.9400  144.7660 C   0  0  0  0  0  3  0  0  0  0  0  0
  188.2760  177.4530  143.8610 C   0  0  0  0  0  0  0  0  0  0  0  0
  187.9090  178.5230  140.7930 C   0  0  0  0  0  3  0  0  0  0  0  0
  187.4440  177.6040  141.5800 N   0  0  0  0  0  0  0  0  0  0  0  0
  187.2410  177.8340  137.1430 C   0  0  0  0  0  3  0  0  0  0  0  0
  188.5510  177.8160  136.6610 C   0  0  0  0  0  0  0  0  0  0  0  0
  188.1030  178.2760  139.3620 C   0  0  0  0  0  0  0  0  0  0  0  0
  187.0180  178.0660  138.5010 C   0  0  0  0  0  3  0  0  0  0  0  0
  189.3970  178.2500  138.8370 C   0  0  0  0  0  3  0  0  0  0  0  0
  189.5930  178.0230  137.5110 N   0  0  0  0  0  0  0  0  0  0  0  0
  188.8530  177.5280  134.9620 Cl  0  0  0  0  0  0  0  0  0  0  0  0
  1 14  1  0  0  0  0
  2 11  1  0  0  0  0
  3 16  1  0  0  0  0
  4 11  2  0  0  0  0
  5  2  2  0  0  0  0
  6  9  1  0  0  0  0
  6  7  1  0  0  0  0
  7  4  1  0  0  0  0
  8  1  2  0  0  0  0
  8 17  1  0  0  0  0
 12  5  1  0  0  0  0
 12  7  2  0  0  0  0
 13 17  1  0  0  0  0
 13 12  1  0  0  0  0
 14 10  1  0  0  0  0
 14  9  2  0  0  0  0
 15  3  2  0  0  0  0
 15  1  1  0  0  0  0
 16 10  2  0  0  0  0
 17  6  2  0  0  0  0
 18 19  2  0  0  0  0
 19  8  1  0  0  0  0
 20 23  1  0  0  0  0
 21 20  2  0  0  0  0
 21 25  1  0  0  0  0
 22 18  1  0  0  0  0
 23 22  2  0  0  0  0
 24 22  1  0  0  0  0
 25 24  2  0  0  0  0
 26 21  1  0  0  0  0
M  END
>  <MODEL>
2

>  <REMARK>
 VINA RESULT:     -10.1      2.301      5.180
  Name = 
  2 active torsions:
  status: ('A' for Active; 'I' for Inactive)
    1  A    between atoms: C_3  and  C_9
    2  A    between atoms: N_6  and  C_14
                            x       y       z     vdW  Elec       q    Type
                         _______ _______ _______ _____ _____    ______ ____

>  <TORSDO>
F 2

$$$$
=
 OpenBabel10222418253D

 26 30  0  0  0  0  0  0  0  0999 V2000
  185.3280  178.2120  142.9560 C   0  0  0  0  0  0  0  0  0  0  0  0
  189.3920  177.7510  148.5310 C   0  0  0  0  0  3  0  0  0  0  0  0
  183.2740  178.6310  141.7820 N   0  0  0  0  0  0  0  0  0  0  0  0
  187.1580  178.2770  147.8630 C   0  0  0  0  0  3  0  0  0  0  0  0
  189.7730  177.4980  147.2050 C   0  0  0  0  0  3  0  0  0  0  0  0
  186.6780  178.1280  145.4100 C   0  0  0  0  0  0  0  0  0  0  0  0
  187.5030  178.0330  146.5350 C   0  0  0  0  0  0  0  0  0  0  0  0
  186.7060  177.8440  142.9800 C   0  0  0  0  0  0  0  0  0  0  0  0
  185.3330  178.4880  145.3970 C   0  0  0  0  0  3  0  0  0  0  0  0
  183.3090  178.8920  144.1540 C   0  0  0  0  0  3  0  0  0  0  0  0
  188.1120  178.1300  148.8270 N   0  0  0  0  0  0  0  0  0  0  0  0
  188.7990  177.6490  146.2240 C   0  0  0  0  0  0  0  0  0  0  0  0
  188.9530  177.4180  144.5610 S   0  0  0  0  0  0  0  0  0  0  0  0
  184.6560  178.5310  144.1730 C   0  0  0  0  0  0  0  0  0  0  0  0
  184.5860  178.2770  141.7680 C   0  0  0  0  0  3  0  0  0  0  0  0
  182.6290  178.9370  142.9380 C   0  0  0  0  0  3  0  0  0  0  0  0
  187.3400  177.8150  144.2260 C   0  0  0  0  0  0  0  0  0  0  0  0
  188.2890  178.2940  141.1800 C   0  0  0  0  0  3  0  0  0  0  0  0
  187.4840  177.5020  141.8170 N   0  0  0  0  0  0  0  0  0  0  0  0
  189.4700  177.8590  137.6220 C   0  0  0  0  0  3  0  0  0  0  0  0
  190.4940  176.9310  137.8230 C   0  0  0  0  0  0  0  0  0  0  0  0
  189.0350  177.8400  140.0040 C   0  0  0  0  0  0  0  0  0  0  0  0
  188.7390  178.3140  138.7190 C   0  0  0  0  0  3  0  0  0  0  0  0
  190.0670  176.9120  140.1600 C   0  0  0  0  0  3  0  0  0  0  0  0
  190.7690  176.4810  139.0780 N   0  0  0  0  0  0  0  0  0  0  0  0
  191.4250  176.3480  136.4620 Cl  0  0  0  0  0  0  0  0  0  0  0  0
  1  8  2  0  0  0  0
  1 14  1  0  0  0  0
  2 11  1  0  0  0  0
  3 16  1  0  0  0  0
  4 11  2  0  0  0  0
  5  2  2  0  0  0  0
  6  7  1  0  0  0  0
  7  4  1  0  0  0  0
  8 17  1  0  0  0  0
  9  6  1  0  0  0  0
 10 14  1  0  0  0  0
 12  7  2  0  0  0  0
 12  5  1  0  0  0  0
 13 12  1  0  0  0  0
 14  9  2  0  0  0  0
 15  3  2  0  0  0  0
 15  1  1  0  0  0  0
 16 10  2  0  0  0  0
 17 13  1  0  0  0  0
 17  6  2  0  0  0  0
 18 19  2  0  0  0  0
 19  8  1  0  0  0  0
 20 21  2  0  0  0  0
 20 23  1  0  0  0  0
 21 25  1  0  0  0  0
 22 24  1  0  0  0  0
 22 18  1  0  0  0  0
 23 22  2  0  0  0  0
 25 24  2  0  0  0  0
 26 21  1  0  0  0  0
M  END
>  <MODEL>
3

>  <REMARK>
 VINA RESULT:      -9.8      2.002      4.891
  Name = 
  2 active torsions:
  status: ('A' for Active; 'I' for Inactive)
    1  A    between atoms: C_3  and  C_9
    2  A    between atoms: N_6  and  C_14
                            x       y       z     vdW  Elec       q    Type
                         _______ _______ _______ _____ _____    ______ ____

>  <TORSDO>
F 2

$$$$
=
 OpenBabel10222418253D

 26 30  0  0  0  0  0  0  0  0999 V2000
  187.6290  177.8290  145.8320 C   0  0  0  0  0  0  0  0  0  0  0  0
  191.5390  177.4220  140.1430 C   0  0  0  0  0  3  0  0  0  0  0  0
  187.2240  177.9360  148.1980 N   0  0  0  0  0  0  0  0  0  0  0  0
  191.6810  177.5030  142.5280 C   0  0  0  0  0  3  0  0  0  0  0  0
  190.1380  177.4950  140.1830 C   0  0  0  0  0  3  0  0  0  0  0  0
  189.5030  177.6580  143.7560 C   0  0  0  0  0  0  0  0  0  0  0  0
  190.2900  177.5760  142.6030 C   0  0  0  0  0  0  0  0  0  0  0  0
  187.1710  177.8040  144.4810 C   0  0  0  0  0  0  0  0  0  0  0  0
  189.9600  177.6830  145.0710 C   0  0  0  0  0  3  0  0  0  0  0  0
  189.4780  177.7940  147.4290 C   0  0  0  0  0  3  0  0  0  0  0  0
  192.2690  177.4280  141.3000 N   0  0  0  0  0  0  0  0  0  0  0  0
  189.5410  177.5720  141.4360 C   0  0  0  0  0  0  0  0  0  0  0  0
  187.8980  177.6690  141.8010 S   0  0  0  0  0  0  0  0  0  0  0  0
  189.0260  177.7680  146.1100 C   0  0  0  0  0  0  0  0  0  0  0  0
  186.7520  177.9140  146.9230 C   0  0  0  0  0  3  0  0  0  0  0  0
  188.5540  177.8780  148.4690 C   0  0  0  0  0  3  0  0  0  0  0  0
  188.1400  177.7180  143.4770 C   0  0  0  0  0  0  0  0  0  0  0  0
  185.1260  178.9310  143.7770 C   0  0  0  0  0  3  0  0  0  0  0  0
  185.7880  177.8590  144.0820 N   0  0  0  0  0  0  0  0  0  0  0  0
  181.3540  178.9420  143.9110 C   0  0  0  0  0  3  0  0  0  0  0  0
  181.0680  178.7510  142.5580 C   0  0  0  0  0  0  0  0  0  0  0  0
  183.7170  178.8730  143.3830 C   0  0  0  0  0  0  0  0  0  0  0  0
  182.6860  179.0030  144.3230 C   0  0  0  0  0  3  0  0  0  0  0  0
  183.3850  178.6840  142.0390 C   0  0  0  0  0  3  0  0  0  0  0  0
  182.0820  178.6280  141.6570 N   0  0  0  0  0  0  0  0  0  0  0  0
  179.4060  178.6720  142.0180 Cl  0  0  0  0  0  0  0  0  0  0  0  0
  1 14  1  0  0  0  0
  1 15  1  0  0  0  0
  2  5  2  0  0  0  0
  2 11  1  0  0  0  0
  3 16  1  0  0  0  0
  4  7  1  0  0  0  0
  5 12  1  0  0  0  0
  6  9  1  0  0  0  0
  7  6  1  0  0  0  0
  8  1  2  0  0  0  0
  9 14  2  0  0  0  0
 10 16  2  0  0  0  0
 11  4  2  0  0  0  0
 12 13  1  0  0  0  0
 12  7  2  0  0  0  0
 13 17  1  0  0  0  0
 14 10  1  0  0  0  0
 15  3  2  0  0  0  0
 17  6  2  0  0  0  0
 17  8  1  0  0  0  0
 18 19  2  0  0  0  0
 19  8  1  0  0  0  0
 20 23  1  0  0  0  0
 21 20  2  0  0  0  0
 22 18  1  0  0  0  0
 22 23  2  0  0  0  0
 24 22  1  0  0  0  0
 25 24  2  0  0  0  0
 25 21  1  0  0  0  0
 26 21  1  0  0  0  0
M  END
>  <MODEL>
4

>  <REMARK>
 VINA RESULT:      -9.7      3.426      7.193
  Name = 
  2 active torsions:
  status: ('A' for Active; 'I' for Inactive)
    1  A    between atoms: C_3  and  C_9
    2  A    between atoms: N_6  and  C_14
                            x       y       z     vdW  Elec       q    Type
                         _______ _______ _______ _____ _____    ______ ____

>  <TORSDO>
F 2

$$$$
=
 OpenBabel10222418253D

 26 30  0  0  0  0  0  0  0  0999 V2000
  186.3470  178.0940  144.7530 C   0  0  0  0  0  0  0  0  0  0  0  0
  180.3370  179.3330  141.5640 C   0  0  0  0  0  3  0  0  0  0  0  0
  187.8190  177.9280  146.6440 N   0  0  0  0  0  0  0  0  0  0  0  0
  181.3600  179.3230  143.7250 C   0  0  0  0  0  3  0  0  0  0  0  0
  181.5340  178.9310  140.9500 C   0  0  0  0  0  3  0  0  0  0  0  0
  183.7770  178.6740  143.7960 C   0  0  0  0  0  0  0  0  0  0  0  0
  182.5640  178.9240  143.1470 C   0  0  0  0  0  0  0  0  0  0  0  0
  186.0850  177.9900  143.3540 C   0  0  0  0  0  0  0  0  0  0  0  0
  184.0220  178.7780  145.1630 C   0  0  0  0  0  3  0  0  0  0  0  0
  185.5560  178.5900  147.0110 C   0  0  0  0  0  3  0  0  0  0  0  0
  180.2770  179.5180  142.9180 N   0  0  0  0  0  0  0  0  0  0  0  0
  182.6350  178.7340  141.7760 C   0  0  0  0  0  0  0  0  0  0  0  0
  184.1910  178.2550  141.3360 S   0  0  0  0  0  0  0  0  0  0  0  0
  185.3040  178.4880  145.6430 C   0  0  0  0  0  0  0  0  0  0  0  0
  187.6050  177.8190  145.3060 C   0  0  0  0  0  3  0  0  0  0  0  0
  186.8310  178.3040  147.4970 C   0  0  0  0  0  3  0  0  0  0  0  0
  184.7890  178.2890  142.9200 C   0  0  0  0  0  0  0  0  0  0  0  0
  187.8360  178.4040  141.7090 C   0  0  0  0  0  3  0  0  0  0  0  0
  187.0560  177.6030  142.3640 N   0  0  0  0  0  0  0  0  0  0  0  0
  189.7120  177.8510  138.4810 C   0  0  0  0  0  3  0  0  0  0  0  0
  190.6380  176.8960  138.9050 C   0  0  0  0  0  0  0  0  0  0  0  0
  188.7930  177.9000  140.7200 C   0  0  0  0  0  0  0  0  0  0  0  0
  188.7860  178.3540  139.3950 C   0  0  0  0  0  3  0  0  0  0  0  0
  189.7370  176.9440  141.1020 C   0  0  0  0  0  3  0  0  0  0  0  0
  190.6320  176.4660  140.1960 N   0  0  0  0  0  0  0  0  0  0  0  0
  191.8090  176.2520  137.7760 Cl  0  0  0  0  0  0  0  0  0  0  0  0
  1 15  1  0  0  0  0
  1 14  1  0  0  0  0
  2 11  1  0  0  0  0
  3 16  1  0  0  0  0
  5  2  2  0  0  0  0
  5 12  1  0  0  0  0
  6  9  1  0  0  0  0
  7  4  1  0  0  0  0
  7  6  1  0  0  0  0
  8  1  2  0  0  0  0
  9 14  2  0  0  0  0
 10 16  2  0  0  0  0
 11  4  2  0  0  0  0
 12  7  2  0  0  0  0
 13 12  1  0  0  0  0
 13 17  1  0  0  0  0
 14 10  1  0  0  0  0
 15  3  2  0  0  0  0
 17  8  1  0  0  0  0
 17  6  2  0  0  0  0
 18 19  2  0  0  0  0
 19  8  1  0  0  0  0
 20 21  2  0  0  0  0
 20 23  1  0  0  0  0
 21 25  1  0  0  0  0
 22 24  1  0  0  0  0
 22 18  1  0  0  0  0
 23 22  2  0  0  0  0
 25 24  2  0  0  0  0
 26 21  1  0  0  0  0
M  END
>  <MODEL>
5

>  <REMARK>
 VINA RESULT:      -9.6      2.413      3.636
  Name = 
  2 active torsions:
  status: ('A' for Active; 'I' for Inactive)
    1  A    between atoms: C_3  and  C_9
    2  A    between atoms: N_6  and  C_14
                            x       y       z     vdW  Elec       q    Type
                         _______ _______ _______ _____ _____    ______ ____

>  <TORSDO>
F 2

$$$$
=
 OpenBabel10222418253D

 26 30  0  0  0  0  0  0  0  0999 V2000
  188.0710  178.0280  141.2800 C   0  0  0  0  0  0  0  0  0  0  0  0
  191.1480  176.4910  147.2790 C   0  0  0  0  0  3  0  0  0  0  0  0
  186.2410  178.7020  139.8760 N   0  0  0  0  0  0  0  0  0  0  0  0
  189.0550  177.1870  146.3560 C   0  0  0  0  0  3  0  0  0  0  0  0
  191.7450  176.4620  146.0100 C   0  0  0  0  0  3  0  0  0  0  0  0
  188.9920  177.4810  143.8690 C   0  0  0  0  0  0  0  0  0  0  0  0
  189.6180  177.1690  145.0800 C   0  0  0  0  0  0  0  0  0  0  0  0
  189.4270  177.6240  141.4650 C   0  0  0  0  0  0  0  0  0  0  0  0
  187.6670  177.8750  143.6990 C   0  0  0  0  0  3  0  0  0  0  0  0
  185.8790  178.5450  142.2300 C   0  0  0  0  0  3  0  0  0  0  0  0
  189.8350  176.8480  147.4220 N   0  0  0  0  0  0  0  0  0  0  0  0
  190.9480  176.8090  144.9240 C   0  0  0  0  0  0  0  0  0  0  0  0
  191.3780  176.8670  143.2950 S   0  0  0  0  0  0  0  0  0  0  0  0
  187.2050  178.1490  142.4070 C   0  0  0  0  0  0  0  0  0  0  0  0
  187.5380  178.3200  140.0160 C   0  0  0  0  0  3  0  0  0  0  0  0
  185.4110  178.8190  140.9460 C   0  0  0  0  0  3  0  0  0  0  0  0
  189.8440  177.3610  142.7740 C   0  0  0  0  0  0  0  0  0  0  0  0
  190.4890  176.4470  139.6120 C   0  0  0  0  0  3  0  0  0  0  0  0
  190.3890  177.4680  140.4050 N   0  0  0  0  0  0  0  0  0  0  0  0
  192.2020  175.9210  136.2910 C   0  0  0  0  0  3  0  0  0  0  0  0
  193.4980  176.3180  136.6270 C   0  0  0  0  0  0  0  0  0  0  0  0
  191.5090  176.3930  138.5620 C   0  0  0  0  0  0  0  0  0  0  0  0
  191.2050  175.9600  137.2650 C   0  0  0  0  0  3  0  0  0  0  0  0
  192.8180  176.7820  138.8550 C   0  0  0  0  0  3  0  0  0  0  0  0
  193.7770  176.7370  137.8910 N   0  0  0  0  0  0  0  0  0  0  0  0
  194.7650  176.2780  135.4200 Cl  0  0  0  0  0  0  0  0  0  0  0  0
  1  8  2  0  0  0  0
  1 14  1  0  0  0  0
  2 11  1  0  0  0  0
  3 15  2  0  0  0  0
  3 16  1  0  0  0  0
  4 11  2  0  0  0  0
  5  2  2  0  0  0  0
  6  7  1  0  0  0  0
  7  4  1  0  0  0  0
  8 17  1  0  0  0  0
  9  6  1  0  0  0  0
 10 14  1  0  0  0  0
 12  7  2  0  0  0  0
 12  5  1  0  0  0  0
 13 12  1  0  0  0  0
 14  9  2  0  0  0  0
 15  1  1  0  0  0  0
 16 10  2  0  0  0  0
 17 13  1  0  0  0  0
 17  6  2  0  0  0  0
 18 19  2  0  0  0  0
 19  8  1  0  0  0  0
 20 21  2  0  0  0  0
 20 23  1  0  0  0  0
 21 25  1  0  0  0  0
 22 24  1  0  0  0  0
 22 18  1  0  0  0  0
 23 22  2  0  0  0  0
 25 24  2  0  0  0  0
 26 21  1  0  0  0  0
M  END
>  <MODEL>
6

>  <REMARK>
 VINA RESULT:      -9.4      2.193      4.950
  Name = 
  2 active torsions:
  status: ('A' for Active; 'I' for Inactive)
    1  A    between atoms: C_3  and  C_9
    2  A    between atoms: N_6  and  C_14
                            x       y       z     vdW  Elec       q    Type
                         _______ _______ _______ _____ _____    ______ ____

>  <TORSDO>
F 2

$$$$
=
 OpenBabel10222418253D

 26 30  0  0  0  0  0  0  0  0999 V2000
  188.5590  177.9070  141.1800 C   0  0  0  0  0  0  0  0  0  0  0  0
  191.0610  176.6450  147.5020 C   0  0  0  0  0  3  0  0  0  0  0  0
  188.6550  178.0430  138.7830 N   0  0  0  0  0  0  0  0  0  0  0  0
  191.6690  176.6070  145.1900 C   0  0  0  0  0  3  0  0  0  0  0  0
  189.7660  177.0910  147.1960 C   0  0  0  0  0  3  0  0  0  0  0  0
  189.8880  177.3030  143.5720 C   0  0  0  0  0  0  0  0  0  0  0  0
  190.3900  177.0500  144.8520 C   0  0  0  0  0  0  0  0  0  0  0  0
  187.8630  178.0470  142.4180 C   0  0  0  0  0  0  0  0  0  0  0  0
  190.5760  177.1620  142.3690 C   0  0  0  0  0  3  0  0  0  0  0  0
  190.5980  177.3230  139.9660 C   0  0  0  0  0  3  0  0  0  0  0  0
  191.9710  176.4160  146.5060 N   0  0  0  0  0  0  0  0  0  0  0  0
  189.4610  177.2840  145.8540 C   0  0  0  0  0  0  0  0  0  0  0  0
  188.0050  177.8080  145.1830 S   0  0  0  0  0  0  0  0  0  0  0  0
  189.9140  177.4630  141.1730 C   0  0  0  0  0  0  0  0  0  0  0  0
  187.9610  178.1880  139.9430 C   0  0  0  0  0  3  0  0  0  0  0  0
  189.9460  177.6200  138.7700 C   0  0  0  0  0  3  0  0  0  0  0  0
  188.5640  177.7360  143.5860 C   0  0  0  0  0  0  0  0  0  0  0  0
  185.4530  177.7200  142.5960 C   0  0  0  0  0  3  0  0  0  0  0  0
  186.4970  178.4860  142.5450 N   0  0  0  0  0  0  0  0  0  0  0  0
  182.3060  179.2070  144.0550 C   0  0  0  0  0  3  0  0  0  0  0  0
  181.5360  179.3160  142.8960 C   0  0  0  0  0  0  0  0  0  0  0  0
  184.1040  178.2740  142.7280 C   0  0  0  0  0  0  0  0  0  0  0  0
  183.5970  178.6840  143.9680 C   0  0  0  0  0  3  0  0  0  0  0  0
  183.2990  178.4010  141.5930 C   0  0  0  0  0  3  0  0  0  0  0  0
  182.0440  178.9140  141.6990 N   0  0  0  0  0  0  0  0  0  0  0  0
  179.9150  179.9700  142.9810 Cl  0  0  0  0  0  0  0  0  0  0  0  0
  1  8  1  0  0  0  0
  3 15  1  0  0  0  0
  4 11  1  0  0  0  0
  5  2  1  0  0  0  0
  6 17  1  0  0  0  0
  6  7  1  0  0  0  0
  7  4  2  0  0  0  0
  7 12  1  0  0  0  0
  8 19  1  0  0  0  0
  8 17  2  0  0  0  0
  9  6  2  0  0  0  0
 10 14  2  0  0  0  0
 11  2  2  0  0  0  0
 12  5  2  0  0  0  0
 13 12  1  0  0  0  0
 14  1  1  0  0  0  0
 14  9  1  0  0  0  0
 15  1  2  0  0  0  0
 16  3  2  0  0  0  0
 16 10  1  0  0  0  0
 17 13  1  0  0  0  0
 18 22  1  0  0  0  0
 19 18  2  0  0  0  0
 21 26  1  0  0  0  0
 21 20  2  0  0  0  0
 22 23  2  0  0  0  0
 23 20  1  0  0  0  0
 24 25  2  0  0  0  0
 24 22  1  0  0  0  0
 25 21  1  0  0  0  0
M  END
>  <MODEL>
7

>  <REMARK>
 VINA RESULT:      -9.3      3.540      7.611
  Name = 
  2 active torsions:
  status: ('A' for Active; 'I' for Inactive)
    1  A    between atoms: C_3  and  C_9
    2  A    between atoms: N_6  and  C_14
                            x       y       z     vdW  Elec       q    Type
                         _______ _______ _______ _____ _____    ______ ____

>  <TORSDO>
F 2

$$$$
=
 OpenBabel10222418253D

 26 30  0  0  0  0  0  0  0  0999 V2000
  185.9050  178.2030  142.9130 C   0  0  0  0  0  0  0  0  0  0  0  0
  189.1360  178.0370  136.8020 C   0  0  0  0  0  3  0  0  0  0  0  0
  184.0510  178.5920  144.3910 N   0  0  0  0  0  0  0  0  0  0  0  0
  187.0370  178.5730  137.8120 C   0  0  0  0  0  3  0  0  0  0  0  0
  189.6880  177.6780  138.0410 C   0  0  0  0  0  3  0  0  0  0  0  0
  186.8970  178.2590  140.2930 C   0  0  0  0  0  0  0  0  0  0  0  0
  187.5540  178.2250  139.0590 C   0  0  0  0  0  0  0  0  0  0  0  0
  187.2520  177.7990  142.6700 C   0  0  0  0  0  0  0  0  0  0  0  0
  185.5810  178.6550  140.5200 C   0  0  0  0  0  3  0  0  0  0  0  0
  183.7660  179.0220  142.0610 C   0  0  0  0  0  3  0  0  0  0  0  0
  187.8410  178.4700  136.7150 N   0  0  0  0  0  0  0  0  0  0  0  0
  188.8650  177.7830  139.1570 C   0  0  0  0  0  0  0  0  0  0  0  0
  189.2400  177.4290  140.7620 S   0  0  0  0  0  0  0  0  0  0  0  0
  185.0840  178.6270  141.8270 C   0  0  0  0  0  0  0  0  0  0  0  0
  185.3380  178.2010  144.1960 C   0  0  0  0  0  3  0  0  0  0  0  0
  183.2640  178.9970  143.3610 C   0  0  0  0  0  3  0  0  0  0  0  0
  187.7060  177.8430  141.3480 C   0  0  0  0  0  0  0  0  0  0  0  0
  189.0420  178.0900  144.3000 C   0  0  0  0  0  3  0  0  0  0  0  0
  188.1710  177.3530  143.6850 N   0  0  0  0  0  0  0  0  0  0  0  0
  190.4210  176.9170  147.6120 C   0  0  0  0  0  3  0  0  0  0  0  0
  191.6730  176.4570  147.1980 C   0  0  0  0  0  0  0  0  0  0  0  0
  189.9310  177.5310  145.3210 C   0  0  0  0  0  0  0  0  0  0  0  0
  189.5480  177.4560  146.6670 C   0  0  0  0  0  3  0  0  0  0  0  0
  191.1920  177.0580  144.9510 C   0  0  0  0  0  3  0  0  0  0  0  0
  192.0290  176.5360  145.8870 N   0  0  0  0  0  0  0  0  0  0  0  0
  192.7840  175.7770  148.3660 Cl  0  0  0  0  0  0  0  0  0  0  0  0
  1 15  2  0  0  0  0
  2  5  1  0  0  0  0
  4  7  2  0  0  0  0
  5 12  2  0  0  0  0
  6  9  2  0  0  0  0
  6 17  1  0  0  0  0
  7 12  1  0  0  0  0
  7  6  1  0  0  0  0
  8  1  1  0  0  0  0
  8 19  1  0  0  0  0
  9 14  1  0  0  0  0
 10 16  1  0  0  0  0
 11  2  2  0  0  0  0
 11  4  1  0  0  0  0
 12 13  1  0  0  0  0
 13 17  1  0  0  0  0
 14 10  2  0  0  0  0
 14  1  1  0  0  0  0
 15  3  1  0  0  0  0
 16  3  2  0  0  0  0
 17  8  2  0  0  0  0
 18 22  1  0  0  0  0
 19 18  2  0  0  0  0
 21 20  1  0  0  0  0
 21 26  1  0  0  0  0
 22 23  1  0  0  0  0
 23 20  2  0  0  0  0
 24 22  2  0  0  0  0
 24 25  1  0  0  0  0
 25 21  2  0  0  0  0
M  END
>  <MODEL>
8

>  <REMARK>
 VINA RESULT:      -8.8      3.260      6.987
  Name = 
  2 active torsions:
  status: ('A' for Active; 'I' for Inactive)
    1  A    between atoms: C_3  and  C_9
    2  A    between atoms: N_6  and  C_14
                            x       y       z     vdW  Elec       q    Type
                         _______ _______ _______ _____ _____    ______ ____

>  <TORSDO>
F 2

$$$$
=
 OpenBabel10222418253D

 26 30  0  0  0  0  0  0  0  0999 V2000
  189.4430  177.1260  145.0060 C   0  0  0  0  0  0  0  0  0  0  0  0
  191.5460  177.2040  138.4190 C   0  0  0  0  0  3  0  0  0  0  0  0
  189.7300  176.9600  147.3860 N   0  0  0  0  0  0  0  0  0  0  0  0
  192.3580  176.9780  140.6570 C   0  0  0  0  0  3  0  0  0  0  0  0
  190.2250  177.3540  138.8700 C   0  0  0  0  0  3  0  0  0  0  0  0
  190.6360  177.1060  142.4710 C   0  0  0  0  0  0  0  0  0  0  0  0
  191.0570  177.1220  141.1380 C   0  0  0  0  0  0  0  0  0  0  0  0
  188.6240  177.2970  143.8500 C   0  0  0  0  0  0  0  0  0  0  0  0
  191.4440  176.9390  143.5930 C   0  0  0  0  0  3  0  0  0  0  0  0
  191.6550  176.7830  145.9870 C   0  0  0  0  0  3  0  0  0  0  0  0
  192.5680  177.0220  139.3100 N   0  0  0  0  0  0  0  0  0  0  0  0
  190.0140  177.3080  140.2430 C   0  0  0  0  0  0  0  0  0  0  0  0
  188.5550  177.4550  141.0760 S   0  0  0  0  0  0  0  0  0  0  0  0
  190.8510  176.9490  144.8600 C   0  0  0  0  0  0  0  0  0  0  0  0
  188.9190  177.1260  146.3070 C   0  0  0  0  0  3  0  0  0  0  0  0
  191.0710  176.7910  147.2530 C   0  0  0  0  0  3  0  0  0  0  0  0
  189.2610  177.2800  142.6050 C   0  0  0  0  0  0  0  0  0  0  0  0
  186.5710  178.6040  143.6960 C   0  0  0  0  0  3  0  0  0  0  0  0
  187.1960  177.4830  143.8770 N   0  0  0  0  0  0  0  0  0  0  0  0
  183.0280  178.8920  144.9630 C   0  0  0  0  0  3  0  0  0  0  0  0
  182.3360  178.8170  143.7520 C   0  0  0  0  0  0  0  0  0  0  0  0
  185.1090  178.6800  143.7440 C   0  0  0  0  0  0  0  0  0  0  0  0
  184.4210  178.8230  144.9560 C   0  0  0  0  0  3  0  0  0  0  0  0
  184.3770  178.6100  142.5560 C   0  0  0  0  0  3  0  0  0  0  0  0
  183.0200  178.6790  142.5840 N   0  0  0  0  0  0  0  0  0  0  0  0
  180.5890  178.9020  143.7370 Cl  0  0  0  0  0  0  0  0  0  0  0  0
  1 15  1  0  0  0  0
  2  5  2  0  0  0  0
  2 11  1  0  0  0  0
  4  7  1  0  0  0  0
  5 12  1  0  0  0  0
  6 17  2  0  0  0  0
  6  9  1  0  0  0  0
  7  6  1  0  0  0  0
  8 19  1  0  0  0  0
  8  1  2  0  0  0  0
  9 14  2  0  0  0  0
 10 16  2  0  0  0  0
 11  4  2  0  0  0  0
 12 13  1  0  0  0  0
 12  7  2  0  0  0  0
 13 17  1  0  0  0  0
 14  1  1  0  0  0  0
 14 10  1  0  0  0  0
 15  3  2  0  0  0  0
 16  3  1  0  0  0  0
 17  8  1  0  0  0  0
 18 22  1  0  0  0  0
 18 19  2  0  0  0  0
 21 20  2  0  0  0  0
 22 23  2  0  0  0  0
 23 20  1  0  0  0  0
 24 25  2  0  0  0  0
 24 22  1  0  0  0  0
 25 21  1  0  0  0  0
 26 21  1  0  0  0  0
M  END
>  <MODEL>
9

>  <REMARK>
 VINA RESULT:      -8.7      3.176      7.086
  Name = 
  2 active torsions:
  status: ('A' for Active; 'I' for Inactive)
    1  A    between atoms: C_3  and  C_9
    2  A    between atoms: N_6  and  C_14
                            x       y       z     vdW  Elec       q    Type
                         _______ _______ _______ _____ _____    ______ ____

>  <TORSDO>
F 2

$$$$
