=
 OpenBabel10222418583D

 43 46  0  0  1  0  0  0  0  0999 V2000
  186.1650  178.0650  139.6320 N   0  0  0  0  0  0  0  0  0  0  0  0
  187.4350  174.9960  136.7540 C   0  0  0  0  0  2  0  0  0  0  0  0
  179.6350  178.6370  138.5960 N   0  0  0  0  0  0  0  0  0  0  0  0
  180.1460  177.5410  138.0350 N   0  0  0  0  0  0  0  0  0  0  0  0
  189.2440  179.0530  137.4050 F   0  0  0  0  0  0  0  0  0  0  0  0
  188.3100  177.4250  138.6330 C   0  0  0  0  0  2  0  0  0  0  0  0
  183.0680  179.3380  138.8610 C   0  0  0  0  0  3  0  0  0  0  0  0
  184.1090  178.4990  138.4150 C   0  0  0  0  0  0  0  0  0  0  0  0
  187.6300  176.2120  135.8660 C   0  0  0  0  0  2  0  0  0  0  0  0
  182.4760  176.8390  137.6260 C   0  0  0  0  0  3  0  0  0  0  0  0
  184.7040  174.7990  136.7660 S   0  0  0  0  0  0  0  0  0  0  0  0
  180.6010  179.4630  138.9830 N   0  0  0  0  0  0  0  0  0  0  0  0
  181.4820  177.6990  138.0780 C   0  0  0  0  0  0  0  0  0  0  0  0
  188.7930  177.0660  136.3490 C   0  0  1  0  0  3  0  0  0  0  0  0
  180.3870  180.7450  139.6330 C   0  0  0  0  0  1  0  0  0  0  0  0
  183.7610  174.8000  135.5960 O   0  0  0  0  0  0  0  0  0  0  0  0
  184.1510  173.9300  137.8600 O   0  0  0  0  0  0  0  0  0  0  0  0
  187.6020  178.3170  139.6450 C   0  0  0  0  0  2  0  0  0  0  0  0
  186.2830  174.1540  136.2230 C   0  0  2  0  0  3  0  0  0  0  0  0
  184.8960  176.4150  137.3610 N   0  0  0  0  0  2  0  0  0  0  0  0
  183.8180  177.2490  137.7960 C   0  0  0  0  0  0  0  0  0  0  0  0
  181.7670  178.8900  138.6650 C   0  0  0  0  0  0  0  0  0  0  0  0
  185.5220  178.9320  138.6450 C   0  0  0  0  0  2  0  0  0  0  0  0
  189.3960  177.7400  135.1240 C   0  0  0  0  0  1  0  0  0  0  0  0
  188.3250  178.0600  137.3220 N   0  0  0  0  0  0  0  0  0  0  0  0
  185.6450  178.3110  140.8990 O   0  0  0  0  0  0  0  0  0  0  0  0
  186.3980  178.6990  142.0230 C   0  0  0  0  0  3  0  0  0  0  0  0
  186.5390  177.9410  143.1060 C   0  0  0  0  0  3  0  0  0  0  0  0
  188.1390  177.0720  146.1470 C   0  0  0  0  0  2  0  0  0  0  0  0
  188.8190  178.0440  144.0560 C   0  0  0  0  0  2  0  0  0  0  0  0
  187.3550  178.4010  144.2650 C   0  0  2  0  0  3  0  0  0  0  0  0
  189.1220  176.9120  145.0130 C   0  0  1  0  0  3  0  0  0  0  0  0
  190.5410  177.0260  145.5270 C   0  0  0  0  0  1  0  0  0  0  0  0
  186.8980  177.6710  145.5210 C   0  0  2  0  0  3  0  0  0  0  0  0
  186.2420  178.6280  146.5050 C   0  0  0  0  0  2  0  0  0  0  0  0
  184.0010  179.0760  145.7960 O   0  0  0  0  0  1  0  0  0  0  0  0
  184.7640  178.3120  146.6790 C   0  0  0  0  0  2  0  0  0  0  0  0
  186.4240  172.8050  136.6530 O   0  0  0  0  0  0  0  0  0  0  0  0
  186.1160  171.7190  135.8300 C   0  0  0  0  0  0  0  0  0  0  0  0
  186.9940  171.2160  135.0760 O   0  0  0  0  0  0  0  0  0  0  0  0
  184.7920  171.1870  135.8470 N   0  0  0  0  0  2  0  0  0  0  0  0
  182.9880  169.6480  135.3530 C   0  0  0  0  0  1  0  0  0  0  0  0
  184.4050  170.0590  135.0170 C   0  0  0  0  0  2  0  0  0  0  0  0
  1 18  1  0  0  0  0
  1 26  1  0  0  0  0
  3 12  1  0  0  0  0
  4 13  1  0  0  0  0
  4  3  2  0  0  0  0
  6 18  1  0  0  0  0
  8 23  1  0  0  0  0
  8  7  2  0  0  0  0
  9 14  1  0  0  0  0
  9  2  1  0  0  0  0
 10 21  2  0  0  0  0
 10 13  1  0  0  0  0
 11 20  1  0  0  0  0
 11 17  2  0  0  0  0
 12 15  1  0  0  0  0
 13 22  2  0  0  0  0
 14 24  1  6  0  0  0
 14 25  1  0  0  0  0
 16 11  2  0  0  0  0
 19 38  1  1  0  0  0
 19  2  1  0  0  0  0
 19 11  1  0  0  0  0
 20 21  1  0  0  0  0
 21  8  1  0  0  0  0
 22  7  1  0  0  0  0
 22 12  1  0  0  0  0
 23  1  1  0  0  0  0
 25  5  1  0  0  0  0
 25  6  1  0  0  0  0
 26 27  1  0  0  0  0
 27 28  2  0  0  0  0
 30 31  1  0  0  0  0
 30 32  1  0  0  0  0
 31 28  1  6  0  0  0
 31 34  1  0  0  0  0
 32 33  1  1  0  0  0
 32 29  1  0  0  0  0
 34 29  1  0  0  0  0
 34 35  1  1  0  0  0
 35 37  1  0  0  0  0
 36 37  1  0  0  0  0
 39 41  1  0  0  0  0
 39 38  1  0  0  0  0
 40 39  2  0  0  0  0
 43 42  1  0  0  0  0
 43 41  1  0  0  0  0
M  END
>  <MODEL>
1

>  <REMARK>
 VINA RESULT:      -7.3      0.000      0.000
  Name = 
  8 active torsions:
  status: ('A' for Active; 'I' for Inactive)
    1  A    between atoms: N_1  and  O_5
    2  A    between atoms: O_5  and  C_38
    3  A    between atoms: C_18  and  O_30
    4  A    between atoms: C_19  and  C_40
    5  A    between atoms: C_29  and  C_33
    6  A    between atoms: C_29  and  C_43
    7  A    between atoms: O_30  and  C_31
    8  A    between atoms: C_32  and  N_42
                            x       y       z     vdW  Elec       q    Type
                         _______ _______ _______ _____ _____    ______ ____

>  <TORSDO>
F 8

$$$$
=
 OpenBabel10222418583D

 43 46  0  0  1  0  0  0  0  0999 V2000
  185.5300  178.2960  139.8940 N   0  0  0  0  0  0  0  0  0  0  0  0
  186.0040  175.4800  136.5540 C   0  0  0  0  0  2  0  0  0  0  0  0
  178.9850  178.4100  140.9850 N   0  0  0  0  0  0  0  0  0  0  0  0
  179.3560  177.3860  140.2160 N   0  0  0  0  0  0  0  0  0  0  0  0
  187.6870  179.6280  136.8960 F   0  0  0  0  0  0  0  0  0  0  0  0
  187.2830  177.8740  138.2350 C   0  0  0  0  0  2  0  0  0  0  0  0
  182.2800  179.3620  140.2180 C   0  0  0  0  0  3  0  0  0  0  0  0
  183.1740  178.6290  139.4120 C   0  0  0  0  0  0  0  0  0  0  0  0
  185.8370  176.7490  135.7380 C   0  0  0  0  0  2  0  0  0  0  0  0
  181.4750  176.8880  139.0540 C   0  0  0  0  0  3  0  0  0  0  0  0
  183.4330  175.0710  137.4000 S   0  0  0  0  0  0  0  0  0  0  0  0
  179.9740  179.2890  141.1110 N   0  0  0  0  0  0  0  0  0  0  0  0
  180.6260  177.6440  139.8520 C   0  0  0  0  0  0  0  0  0  0  0  0
  187.0420  177.6670  135.8950 C   0  0  1  0  0  3  0  0  0  0  0  0
  179.9020  180.5160  141.8830 C   0  0  0  0  0  1  0  0  0  0  0  0
  182.1700  175.0570  136.5860 O   0  0  0  0  0  0  0  0  0  0  0  0
  183.3040  174.1090  138.5480 O   0  0  0  0  0  0  0  0  0  0  0  0
  186.8810  178.6570  139.4770 C   0  0  0  0  0  2  0  0  0  0  0  0
  184.7940  174.5780  136.3490 C   0  0  2  0  0  3  0  0  0  0  0  0
  183.7070  176.6660  138.0200 N   0  0  0  0  0  2  0  0  0  0  0  0
  182.7750  177.3920  138.8260 C   0  0  0  0  0  0  0  0  0  0  0  0
  181.0110  178.8240  140.4050 C   0  0  0  0  0  0  0  0  0  0  0  0
  184.5590  179.1580  139.2200 C   0  0  0  0  0  2  0  0  0  0  0  0
  187.1880  178.4440  134.5940 C   0  0  0  0  0  1  0  0  0  0  0  0
  186.8470  178.5720  137.0320 N   0  0  0  0  0  0  0  0  0  0  0  0
  185.4220  178.4390  141.2750 O   0  0  0  0  0  0  0  0  0  0  0  0
  186.2100  177.7590  142.2230 C   0  0  0  0  0  3  0  0  0  0  0  0
  186.0310  177.8700  143.5360 C   0  0  0  0  0  3  0  0  0  0  0  0
  188.7580  177.9820  145.7980 C   0  0  0  0  0  2  0  0  0  0  0  0
  186.4360  177.3730  145.9240 C   0  0  0  0  0  2  0  0  0  0  0  0
  186.8920  177.1210  144.4950 C   0  0  2  0  0  3  0  0  0  0  0  0
  187.4820  178.2660  146.5530 C   0  0  1  0  0  3  0  0  0  0  0  0
  187.6530  177.9220  148.0170 C   0  0  0  0  0  1  0  0  0  0  0  0
  188.3220  177.6340  144.3900 C   0  0  2  0  0  3  0  0  0  0  0  0
  189.2470  176.5700  143.8180 C   0  0  0  0  0  2  0  0  0  0  0  0
  190.4530  175.9340  141.8530 O   0  0  0  0  0  1  0  0  0  0  0  0
  189.8390  177.0120  142.4880 C   0  0  0  0  0  2  0  0  0  0  0  0
  185.1420  173.2240  136.6170 O   0  0  0  0  0  0  0  0  0  0  0  0
  186.4460  172.7440  136.4800 C   0  0  0  0  0  0  0  0  0  0  0  0
  187.1930  172.6190  137.4900 O   0  0  0  0  0  0  0  0  0  0  0  0
  186.9290  172.4020  135.1820 N   0  0  0  0  0  2  0  0  0  0  0  0
  188.2390  170.3850  134.8930 C   0  0  0  0  0  1  0  0  0  0  0  0
  188.2740  171.8960  134.9690 C   0  0  0  0  0  2  0  0  0  0  0  0
  1 26  1  0  0  0  0
  3 12  1  0  0  0  0
  4  3  2  0  0  0  0
  5 25  1  0  0  0  0
  6 18  1  0  0  0  0
  7 22  1  0  0  0  0
  8  7  2  0  0  0  0
  9 14  1  0  0  0  0
  9  2  1  0  0  0  0
 10 13  1  0  0  0  0
 11 20  1  0  0  0  0
 11 17  2  0  0  0  0
 12 15  1  0  0  0  0
 13  4  1  0  0  0  0
 13 22  2  0  0  0  0
 14 24  1  6  0  0  0
 14 25  1  0  0  0  0
 16 11  2  0  0  0  0
 18  1  1  0  0  0  0
 19  2  1  0  0  0  0
 19 38  1  1  0  0  0
 19 11  1  0  0  0  0
 20 21  1  0  0  0  0
 21 10  2  0  0  0  0
 21  8  1  0  0  0  0
 22 12  1  0  0  0  0
 23  8  1  0  0  0  0
 23  1  1  0  0  0  0
 25  6  1  0  0  0  0
 26 27  1  0  0  0  0
 27 28  2  0  0  0  0
 29 32  1  0  0  0  0
 30 32  1  0  0  0  0
 31 28  1  6  0  0  0
 31 30  1  0  0  0  0
 32 33  1  1  0  0  0
 34 35  1  1  0  0  0
 34 31  1  0  0  0  0
 34 29  1  0  0  0  0
 36 37  1  0  0  0  0
 37 35  1  0  0  0  0
 39 38  1  0  0  0  0
 39 40  2  0  0  0  0
 41 39  1  0  0  0  0
 42 43  1  0  0  0  0
 43 41  1  0  0  0  0
M  END
>  <MODEL>
2

>  <REMARK>
 VINA RESULT:      -6.7      1.914      2.692
  Name = 
  8 active torsions:
  status: ('A' for Active; 'I' for Inactive)
    1  A    between atoms: N_1  and  O_5
    2  A    between atoms: O_5  and  C_38
    3  A    between atoms: C_18  and  O_30
    4  A    between atoms: C_19  and  C_40
    5  A    between atoms: C_29  and  C_33
    6  A    between atoms: C_29  and  C_43
    7  A    between atoms: O_30  and  C_31
    8  A    between atoms: C_32  and  N_42
                            x       y       z     vdW  Elec       q    Type
                         _______ _______ _______ _____ _____    ______ ____

>  <TORSDO>
F 8

$$$$
=
 OpenBabel10222418583D

 43 46  0  0  1  0  0  0  0  0999 V2000
  188.5010  177.1100  139.5410 N   0  0  0  0  0  0  0  0  0  0  0  0
  189.4340  173.7610  136.8530 C   0  0  0  0  0  2  0  0  0  0  0  0
  182.2640  178.7440  137.9680 N   0  0  0  0  0  0  0  0  0  0  0  0
  182.6190  177.5560  137.4770 N   0  0  0  0  0  0  0  0  0  0  0  0
  191.8620  177.4730  137.5460 F   0  0  0  0  0  0  0  0  0  0  0  0
  190.5710  176.0760  138.7350 C   0  0  0  0  0  2  0  0  0  0  0  0
  185.7370  178.8600  138.4920 C   0  0  0  0  0  3  0  0  0  0  0  0
  186.6480  177.8400  138.1520 C   0  0  0  0  0  0  0  0  0  0  0  0
  189.9020  174.8900  135.9530 C   0  0  0  0  0  2  0  0  0  0  0  0
  184.8170  176.4530  137.2760 C   0  0  0  0  0  3  0  0  0  0  0  0
  186.7180  174.0320  136.6490 S   0  0  0  0  0  0  0  0  0  0  0  0
  183.3260  179.4080  138.4110 N   0  0  0  0  0  0  0  0  0  0  0  0
  183.9550  177.4850  137.6240 C   0  0  0  0  0  0  0  0  0  0  0  0
  191.1560  175.5530  136.5070 C   0  0  1  0  0  3  0  0  0  0  0  0
  183.2880  180.7310  139.0090 C   0  0  0  0  0  1  0  0  0  0  0  0
  185.8790  174.1480  135.4080 O   0  0  0  0  0  0  0  0  0  0  0  0
  185.9420  173.3120  137.7170 O   0  0  0  0  0  0  0  0  0  0  0  0
  189.9540  177.1130  139.6640 C   0  0  0  0  0  2  0  0  0  0  0  0
  188.1970  173.1070  136.2520 C   0  0  2  0  0  3  0  0  0  0  0  0
  187.1400  175.6130  137.2170 N   0  0  0  0  0  2  0  0  0  0  0  0
  186.1930  176.6350  137.5430 C   0  0  0  0  0  0  0  0  0  0  0  0
  184.3960  178.6330  138.2030 C   0  0  0  0  0  0  0  0  0  0  0  0
  188.0930  178.0350  138.4840 C   0  0  0  0  0  2  0  0  0  0  0  0
  191.9560  176.0660  135.3180 C   0  0  0  0  0  1  0  0  0  0  0  0
  190.7940  176.6480  137.4130 N   0  0  0  0  0  0  0  0  0  0  0  0
  187.9370  177.4890  140.7560 O   0  0  0  0  0  0  0  0  0  0  0  0
  188.2430  176.9180  142.0050 C   0  0  0  0  0  3  0  0  0  0  0  0
  188.6550  177.6260  143.0520 C   0  0  0  0  0  3  0  0  0  0  0  0
  189.5410  178.0400  146.4590 C   0  0  0  0  0  2  0  0  0  0  0  0
  187.7370  176.9990  145.2600 C   0  0  0  0  0  2  0  0  0  0  0  0
  188.9580  176.9670  144.3540 C   0  0  2  0  0  3  0  0  0  0  0  0
  188.0360  178.0100  146.3440 C   0  0  1  0  0  3  0  0  0  0  0  0
  187.4180  177.5730  147.6540 C   0  0  0  0  0  1  0  0  0  0  0  0
  190.0560  177.7460  145.0660 C   0  0  2  0  0  3  0  0  0  0  0  0
  191.3370  176.9310  145.1580 C   0  0  0  0  0  2  0  0  0  0  0  0
  192.4020  176.6090  147.2760 O   0  0  0  0  0  1  0  0  0  0  0  0
  191.3870  176.1280  146.4490 C   0  0  0  0  0  2  0  0  0  0  0  0
  188.0710  171.7710  136.7250 O   0  0  0  0  0  0  0  0  0  0  0  0
  187.6440  170.7230  135.9070 C   0  0  0  0  0  0  0  0  0  0  0  0
  188.4450  169.8090  135.5650 O   0  0  0  0  0  0  0  0  0  0  0  0
  186.2910  170.6990  135.4560 N   0  0  0  0  0  2  0  0  0  0  0  0
  184.2690  169.6810  134.5940 C   0  0  0  0  0  1  0  0  0  0  0  0
  185.7820  169.6380  134.6040 C   0  0  0  0  0  2  0  0  0  0  0  0
  1 18  1  0  0  0  0
  1 26  1  0  0  0  0
  3 12  1  0  0  0  0
  4 13  1  0  0  0  0
  4  3  2  0  0  0  0
  6 18  1  0  0  0  0
  8 23  1  0  0  0  0
  8  7  2  0  0  0  0
  9 14  1  0  0  0  0
  9  2  1  0  0  0  0
 10 21  2  0  0  0  0
 10 13  1  0  0  0  0
 11 20  1  0  0  0  0
 11 17  2  0  0  0  0
 12 15  1  0  0  0  0
 13 22  2  0  0  0  0
 14 24  1  6  0  0  0
 14 25  1  0  0  0  0
 16 11  2  0  0  0  0
 19 11  1  0  0  0  0
 19 38  1  1  0  0  0
 19  2  1  0  0  0  0
 20 21  1  0  0  0  0
 21  8  1  0  0  0  0
 22 12  1  0  0  0  0
 22  7  1  0  0  0  0
 23  1  1  0  0  0  0
 25  5  1  0  0  0  0
 25  6  1  0  0  0  0
 26 27  1  0  0  0  0
 27 28  2  0  0  0  0
 30 32  1  0  0  0  0
 31 28  1  6  0  0  0
 31 34  1  0  0  0  0
 31 30  1  0  0  0  0
 32 29  1  0  0  0  0
 32 33  1  1  0  0  0
 34 35  1  1  0  0  0
 34 29  1  0  0  0  0
 35 37  1  0  0  0  0
 37 36  1  0  0  0  0
 39 38  1  0  0  0  0
 40 39  2  0  0  0  0
 41 39  1  0  0  0  0
 42 43  1  0  0  0  0
 43 41  1  0  0  0  0
M  END
>  <MODEL>
3

>  <REMARK>
 VINA RESULT:      -6.5      2.333      3.061
  Name = 
  8 active torsions:
  status: ('A' for Active; 'I' for Inactive)
    1  A    between atoms: N_1  and  O_5
    2  A    between atoms: O_5  and  C_38
    3  A    between atoms: C_18  and  O_30
    4  A    between atoms: C_19  and  C_40
    5  A    between atoms: C_29  and  C_33
    6  A    between atoms: C_29  and  C_43
    7  A    between atoms: O_30  and  C_31
    8  A    between atoms: C_32  and  N_42
                            x       y       z     vdW  Elec       q    Type
                         _______ _______ _______ _____ _____    ______ ____

>  <TORSDO>
F 8

$$$$
=
 OpenBabel10222418583D

 43 46  0  0  1  0  0  0  0  0999 V2000
  184.8850  179.1670  138.9140 N   0  0  0  0  0  0  0  0  0  0  0  0
  188.8010  177.2190  138.4880 C   0  0  0  0  0  2  0  0  0  0  0  0
  183.7090  179.0030  145.4440 N   0  0  0  0  0  0  0  0  0  0  0  0
  184.9820  178.7370  145.1480 N   0  0  0  0  0  0  0  0  0  0  0  0
  185.0300  176.3060  136.2290 F   0  0  0  0  0  0  0  0  0  0  0  0
  186.0850  178.1020  137.0610 C   0  0  0  0  0  2  0  0  0  0  0  0
  183.4590  178.5180  141.9720 C   0  0  0  0  0  3  0  0  0  0  0  0
  184.5310  178.2010  141.1140 C   0  0  0  0  0  0  0  0  0  0  0  0
  187.9340  175.9800  138.3540 C   0  0  0  0  0  2  0  0  0  0  0  0
  186.0970  178.2180  143.0090 C   0  0  0  0  0  3  0  0  0  0  0  0
  188.5950  177.7030  141.1750 S   0  0  0  0  0  0  0  0  0  0  0  0
  182.9530  178.9670  144.3520 N   0  0  0  0  0  0  0  0  0  0  0  0
  185.0110  178.5270  143.8190 C   0  0  0  0  0  0  0  0  0  0  0  0
  187.1510  175.9950  137.0480 C   0  0  1  0  0  3  0  0  0  0  0  0
  181.5220  179.2140  144.3230 C   0  0  0  0  0  1  0  0  0  0  0  0
  188.7960  176.7470  142.3170 O   0  0  0  0  0  0  0  0  0  0  0  0
  189.0230  179.0820  141.5900 O   0  0  0  0  0  0  0  0  0  0  0  0
  184.8480  178.8850  137.4830 C   0  0  0  0  0  2  0  0  0  0  0  0
  189.5870  177.1540  139.7910 C   0  0  2  0  0  3  0  0  0  0  0  0
  186.9200  177.7350  140.7300 N   0  0  0  0  0  2  0  0  0  0  0  0
  185.8510  178.0480  141.6270 C   0  0  0  0  0  0  0  0  0  0  0  0
  183.7540  178.6690  143.3220 C   0  0  0  0  0  0  0  0  0  0  0  0
  184.2560  178.0690  139.6490 C   0  0  0  0  0  2  0  0  0  0  0  0
  186.9530  174.5460  136.6260 C   0  0  0  0  0  1  0  0  0  0  0  0
  185.8630  176.6730  137.2340 N   0  0  0  0  0  0  0  0  0  0  0  0
  184.2120  180.3600  139.1640 O   0  0  0  0  0  0  0  0  0  0  0  0
  183.0270  180.7710  138.5260 C   0  0  0  0  0  3  0  0  0  0  0  0
  181.8130  180.5030  138.9970 C   0  0  0  0  0  3  0  0  0  0  0  0
  180.4000  181.6290  135.9470 C   0  0  0  0  0  2  0  0  0  0  0  0
  179.9770  179.8300  137.4840 C   0  0  0  0  0  2  0  0  0  0  0  0
  180.5910  180.9700  138.2820 C   0  0  2  0  0  3  0  0  0  0  0  0
  180.2590  180.1280  136.0290 C   0  0  1  0  0  3  0  0  0  0  0  0
  179.1070  179.6620  135.1650 C   0  0  0  0  0  1  0  0  0  0  0  0
  180.9780  182.0500  137.2820 C   0  0  2  0  0  3  0  0  0  0  0  0
  180.4040  183.4010  137.6820 C   0  0  0  0  0  2  0  0  0  0  0  0
  182.4560  184.6280  137.5940 O   0  0  0  0  0  1  0  0  0  0  0  0
  181.1800  184.5410  137.0390 C   0  0  0  0  0  2  0  0  0  0  0  0
  190.7610  177.9530  139.6950 O   0  0  0  0  0  0  0  0  0  0  0  0
  192.0190  177.4080  139.4290 C   0  0  0  0  0  0  0  0  0  0  0  0
  192.9510  177.5030  140.2750 O   0  0  0  0  0  0  0  0  0  0  0  0
  192.2420  176.7450  138.1850 N   0  0  0  0  0  2  0  0  0  0  0  0
  193.3490  174.6730  137.5940 C   0  0  0  0  0  1  0  0  0  0  0  0
  193.5250  176.1550  137.8460 C   0  0  0  0  0  2  0  0  0  0  0  0
  1 26  1  0  0  0  0
  1 23  1  0  0  0  0
  2 19  1  0  0  0  0
  4  3  2  0  0  0  0
  5 25  1  0  0  0  0
  6 25  1  0  0  0  0
  6 18  1  0  0  0  0
  7 22  1  0  0  0  0
  8 21  1  0  0  0  0
  8  7  2  0  0  0  0
  9  2  1  0  0  0  0
 10 13  1  0  0  0  0
 11 17  2  0  0  0  0
 11 16  2  0  0  0  0
 12  3  1  0  0  0  0
 13  4  1  0  0  0  0
 14 24  1  1  0  0  0
 14 25  1  0  0  0  0
 14  9  1  0  0  0  0
 15 12  1  0  0  0  0
 18  1  1  0  0  0  0
 19 38  1  6  0  0  0
 19 11  1  0  0  0  0
 20 11  1  0  0  0  0
 20 21  1  0  0  0  0
 21 10  2  0  0  0  0
 22 13  2  0  0  0  0
 22 12  1  0  0  0  0
 23  8  1  0  0  0  0
 27 28  2  0  0  0  0
 27 26  1  0  0  0  0
 29 32  1  0  0  0  0
 29 34  1  0  0  0  0
 30 31  1  0  0  0  0
 31 28  1  6  0  0  0
 32 33  1  6  0  0  0
 32 30  1  0  0  0  0
 34 35  1  1  0  0  0
 34 31  1  0  0  0  0
 37 36  1  0  0  0  0
 37 35  1  0  0  0  0
 39 38  1  0  0  0  0
 39 40  2  0  0  0  0
 41 39  1  0  0  0  0
 42 43  1  0  0  0  0
 43 41  1  0  0  0  0
M  END
>  <MODEL>
4

>  <REMARK>
 VINA RESULT:      -6.4      3.990      7.889
  Name = 
  8 active torsions:
  status: ('A' for Active; 'I' for Inactive)
    1  A    between atoms: N_1  and  O_5
    2  A    between atoms: O_5  and  C_38
    3  A    between atoms: C_18  and  O_30
    4  A    between atoms: C_19  and  C_40
    5  A    between atoms: C_29  and  C_33
    6  A    between atoms: C_29  and  C_43
    7  A    between atoms: O_30  and  C_31
    8  A    between atoms: C_32  and  N_42
                            x       y       z     vdW  Elec       q    Type
                         _______ _______ _______ _____ _____    ______ ____

>  <TORSDO>
F 8

$$$$
=
 OpenBabel10222418583D

 43 46  0  0  1  0  0  0  0  0999 V2000
  189.8410  176.5680  139.9230 N   0  0  0  0  0  0  0  0  0  0  0  0
  191.7900  174.2290  136.7540 C   0  0  0  0  0  2  0  0  0  0  0  0
  183.8130  177.8790  137.4760 N   0  0  0  0  0  0  0  0  0  0  0  0
  184.4430  176.9220  136.7940 N   0  0  0  0  0  0  0  0  0  0  0  0
  193.4030  177.8420  138.8750 F   0  0  0  0  0  0  0  0  0  0  0  0
  192.1660  176.0360  139.3600 C   0  0  0  0  0  2  0  0  0  0  0  0
  187.0640  178.2260  138.7650 C   0  0  0  0  0  3  0  0  0  0  0  0
  188.1780  177.4490  138.3890 C   0  0  0  0  0  0  0  0  0  0  0  0
  192.2210  175.6090  136.2920 C   0  0  0  0  0  2  0  0  0  0  0  0
  186.7930  176.1690  136.8110 C   0  0  0  0  0  3  0  0  0  0  0  0
  189.1500  174.2450  136.0310 S   0  0  0  0  0  0  0  0  0  0  0  0
  184.6510  178.5060  138.2950 N   0  0  0  0  0  0  0  0  0  0  0  0
  185.7230  176.9620  137.2090 C   0  0  0  0  0  0  0  0  0  0  0  0
  193.2260  176.2240  137.2570 C   0  0  1  0  0  3  0  0  0  0  0  0
  184.2870  179.5960  139.1820 C   0  0  0  0  0  1  0  0  0  0  0  0
  188.5440  174.6110  134.7060 O   0  0  0  0  0  0  0  0  0  0  0  0
  188.3220  173.1750  136.6860 O   0  0  0  0  0  0  0  0  0  0  0  0
  191.2270  176.6970  140.3600 C   0  0  0  0  0  2  0  0  0  0  0  0
  190.8090  173.6370  135.7510 C   0  0  2  0  0  3  0  0  0  0  0  0
  189.1940  175.6410  137.0570 N   0  0  0  0  0  2  0  0  0  0  0  0
  188.0470  176.4200  137.4120 C   0  0  0  0  0  0  0  0  0  0  0  0
  185.8550  177.9430  138.1400 C   0  0  0  0  0  0  0  0  0  0  0  0
  189.4860  177.7010  139.0690 C   0  0  0  0  0  2  0  0  0  0  0  0
  194.1330  177.1350  136.4420 C   0  0  0  0  0  1  0  0  0  0  0  0
  192.5280  176.9760  138.3070 N   0  0  0  0  0  0  0  0  0  0  0  0
  189.0100  176.5280  141.0390 O   0  0  0  0  0  0  0  0  0  0  0  0
  189.2200  177.2440  142.2320 C   0  0  0  0  0  3  0  0  0  0  0  0
  188.4540  177.1100  143.3100 C   0  0  0  0  0  3  0  0  0  0  0  0
  188.5650  177.1230  146.8530 C   0  0  0  0  0  2  0  0  0  0  0  0
  190.1200  177.5750  145.0770 C   0  0  0  0  0  2  0  0  0  0  0  0
  188.7280  177.8910  144.5500 C   0  0  2  0  0  3  0  0  0  0  0  0
  189.9240  176.7380  146.3210 C   0  0  1  0  0  3  0  0  0  0  0  0
  190.9960  177.0570  147.3410 C   0  0  0  0  0  1  0  0  0  0  0  0
  187.7420  177.4760  145.6320 C   0  0  2  0  0  3  0  0  0  0  0  0
  186.7870  178.6120  145.9720 C   0  0  0  0  0  2  0  0  0  0  0  0
  184.4100  178.7090  146.2170 O   0  0  0  0  0  1  0  0  0  0  0  0
  185.4300  178.4040  145.3170 C   0  0  0  0  0  2  0  0  0  0  0  0
  190.8210  172.2170  135.8340 O   0  0  0  0  0  0  0  0  0  0  0  0
  191.9060  171.4500  135.4020 C   0  0  0  0  0  0  0  0  0  0  0  0
  191.7350  170.4940  134.5950 O   0  0  0  0  0  0  0  0  0  0  0  0
  193.2120  171.7550  135.8900 N   0  0  0  0  0  2  0  0  0  0  0  0
  194.9910  170.3190  136.6900 C   0  0  0  0  0  1  0  0  0  0  0  0
  194.3820  170.9980  135.4820 C   0  0  0  0  0  2  0  0  0  0  0  0
  1 18  1  0  0  0  0
  1 26  1  0  0  0  0
  3 12  1  0  0  0  0
  4 13  1  0  0  0  0
  4  3  2  0  0  0  0
  6 18  1  0  0  0  0
  8  7  1  0  0  0  0
  8 23  1  0  0  0  0
  9  2  1  0  0  0  0
  9 14  1  0  0  0  0
 10 13  2  0  0  0  0
 10 21  1  0  0  0  0
 11 17  2  0  0  0  0
 11 20  1  0  0  0  0
 12 15  1  0  0  0  0
 13 22  1  0  0  0  0
 14 24  1  6  0  0  0
 14 25  1  0  0  0  0
 16 11  2  0  0  0  0
 19 38  1  1  0  0  0
 19 11  1  0  0  0  0
 19  2  1  0  0  0  0
 20 21  1  0  0  0  0
 21  8  2  0  0  0  0
 22 12  1  0  0  0  0
 22  7  2  0  0  0  0
 23  1  1  0  0  0  0
 25  5  1  0  0  0  0
 25  6  1  0  0  0  0
 26 27  1  0  0  0  0
 27 28  2  0  0  0  0
 30 32  1  0  0  0  0
 31 28  1  6  0  0  0
 31 30  1  0  0  0  0
 31 34  1  0  0  0  0
 32 29  1  0  0  0  0
 32 33  1  1  0  0  0
 34 35  1  1  0  0  0
 34 29  1  0  0  0  0
 37 35  1  0  0  0  0
 37 36  1  0  0  0  0
 39 38  1  0  0  0  0
 39 41  1  0  0  0  0
 40 39  2  0  0  0  0
 43 41  1  0  0  0  0
 43 42  1  0  0  0  0
M  END
>  <MODEL>
5

>  <REMARK>
 VINA RESULT:      -6.3      3.579      4.634
  Name = 
  8 active torsions:
  status: ('A' for Active; 'I' for Inactive)
    1  A    between atoms: N_1  and  O_5
    2  A    between atoms: O_5  and  C_38
    3  A    between atoms: C_18  and  O_30
    4  A    between atoms: C_19  and  C_40
    5  A    between atoms: C_29  and  C_33
    6  A    between atoms: C_29  and  C_43
    7  A    between atoms: O_30  and  C_31
    8  A    between atoms: C_32  and  N_42
                            x       y       z     vdW  Elec       q    Type
                         _______ _______ _______ _____ _____    ______ ____

>  <TORSDO>
F 8

$$$$
=
 OpenBabel10222418583D

 43 46  0  0  1  0  0  0  0  0999 V2000
  186.2420  177.8730  141.3610 N   0  0  0  0  0  0  0  0  0  0  0  0
  187.1460  176.1630  137.4140 C   0  0  0  0  0  2  0  0  0  0  0  0
  179.6500  178.6320  141.3120 N   0  0  0  0  0  0  0  0  0  0  0  0
  180.0790  177.8450  140.3250 N   0  0  0  0  0  0  0  0  0  0  0  0
  189.0830  179.7110  139.3690 F   0  0  0  0  0  0  0  0  0  0  0  0
  188.2570  177.7150  139.9740 C   0  0  0  0  0  2  0  0  0  0  0  0
  183.1030  179.2650  141.4630 C   0  0  0  0  0  3  0  0  0  0  0  0
  184.0760  178.6850  140.6240 C   0  0  0  0  0  0  0  0  0  0  0  0
  187.2660  177.6300  137.0410 C   0  0  0  0  0  2  0  0  0  0  0  0
  182.3410  177.4100  139.4380 C   0  0  0  0  0  3  0  0  0  0  0  0
  184.4290  175.9080  137.6360 S   0  0  0  0  0  0  0  0  0  0  0  0
  180.6650  179.2720  141.8820 N   0  0  0  0  0  0  0  0  0  0  0  0
  181.4150  178.0080  140.2840 C   0  0  0  0  0  0  0  0  0  0  0  0
  188.4880  178.2650  137.6890 C   0  0  1  0  0  3  0  0  0  0  0  0
  180.5430  180.2040  142.9890 C   0  0  0  0  0  1  0  0  0  0  0  0
  183.3670  176.3310  136.6610 O   0  0  0  0  0  0  0  0  0  0  0  0
  183.9810  174.6740  138.3680 O   0  0  0  0  0  0  0  0  0  0  0  0
  187.6770  178.1360  141.3180 C   0  0  0  0  0  2  0  0  0  0  0  0
  185.9300  175.5580  136.7260 C   0  0  2  0  0  3  0  0  0  0  0  0
  184.7100  177.1800  138.7790 N   0  0  0  0  0  2  0  0  0  0  0  0
  183.7000  177.7590  139.6090 C   0  0  0  0  0  0  0  0  0  0  0  0
  181.7810  178.8930  141.2490 C   0  0  0  0  0  0  0  0  0  0  0  0
  185.5130  179.0340  140.8520 C   0  0  0  0  0  2  0  0  0  0  0  0
  188.9690  179.3690  136.7570 C   0  0  0  0  0  1  0  0  0  0  0  0
  188.1430  178.8020  139.0100 N   0  0  0  0  0  0  0  0  0  0  0  0
  185.8640  177.6040  142.6730 O   0  0  0  0  0  0  0  0  0  0  0  0
  186.5860  177.9880  143.8190 C   0  0  0  0  0  3  0  0  0  0  0  0
  187.7810  177.4940  144.1290 C   0  0  0  0  0  3  0  0  0  0  0  0
  189.1270  176.5990  147.2840 C   0  0  0  0  0  2  0  0  0  0  0  0
  189.9780  177.5790  145.2610 C   0  0  0  0  0  2  0  0  0  0  0  0
  188.5030  177.9430  145.3540 C   0  0  2  0  0  3  0  0  0  0  0  0
  190.1970  176.4400  146.2310 C   0  0  1  0  0  3  0  0  0  0  0  0
  191.5700  176.5430  146.8590 C   0  0  0  0  0  1  0  0  0  0  0  0
  187.9430  177.2080  146.5630 C   0  0  2  0  0  3  0  0  0  0  0  0
  187.2140  178.1630  147.4970 C   0  0  0  0  0  2  0  0  0  0  0  0
  185.2770  179.3980  146.8290 O   0  0  0  0  0  1  0  0  0  0  0  0
  185.7140  178.1410  147.2460 C   0  0  0  0  0  2  0  0  0  0  0  0
  186.0930  174.1510  136.5920 O   0  0  0  0  0  0  0  0  0  0  0  0
  187.1420  173.5840  135.8650 C   0  0  0  0  0  0  0  0  0  0  0  0
  187.0180  173.3580  134.6290 O   0  0  0  0  0  0  0  0  0  0  0  0
  188.3580  173.2570  136.5370 N   0  0  0  0  0  2  0  0  0  0  0  0
  190.4740  173.7510  135.4670 C   0  0  0  0  0  1  0  0  0  0  0  0
  189.4880  172.6660  135.8410 C   0  0  0  0  0  2  0  0  0  0  0  0
  1 26  1  0  0  0  0
  3 12  1  0  0  0  0
  4  3  2  0  0  0  0
  6 18  1  0  0  0  0
  8 23  1  0  0  0  0
  8  7  2  0  0  0  0
  9  2  1  0  0  0  0
  9 14  1  0  0  0  0
 10 21  2  0  0  0  0
 10 13  1  0  0  0  0
 11 17  2  0  0  0  0
 11 20  1  0  0  0  0
 12 15  1  0  0  0  0
 13  4  1  0  0  0  0
 13 22  2  0  0  0  0
 14 24  1  6  0  0  0
 14 25  1  0  0  0  0
 16 11  2  0  0  0  0
 18  1  1  0  0  0  0
 19 38  1  1  0  0  0
 19  2  1  0  0  0  0
 19 11  1  0  0  0  0
 20 21  1  0  0  0  0
 21  8  1  0  0  0  0
 22  7  1  0  0  0  0
 22 12  1  0  0  0  0
 23  1  1  0  0  0  0
 25  5  1  0  0  0  0
 25  6  1  0  0  0  0
 26 27  1  0  0  0  0
 27 28  2  0  0  0  0
 30 31  1  0  0  0  0
 30 32  1  0  0  0  0
 31 28  1  6  0  0  0
 31 34  1  0  0  0  0
 32 33  1  1  0  0  0
 32 29  1  0  0  0  0
 34 29  1  0  0  0  0
 34 35  1  1  0  0  0
 36 37  1  0  0  0  0
 37 35  1  0  0  0  0
 39 41  1  0  0  0  0
 39 38  1  0  0  0  0
 40 39  2  0  0  0  0
 42 43  1  0  0  0  0
 43 41  1  0  0  0  0
M  END
>  <MODEL>
6

>  <REMARK>
 VINA RESULT:      -6.2      2.063      2.539
  Name = 
  8 active torsions:
  status: ('A' for Active; 'I' for Inactive)
    1  A    between atoms: N_1  and  O_5
    2  A    between atoms: O_5  and  C_38
    3  A    between atoms: C_18  and  O_30
    4  A    between atoms: C_19  and  C_40
    5  A    between atoms: C_29  and  C_33
    6  A    between atoms: C_29  and  C_43
    7  A    between atoms: O_30  and  C_31
    8  A    between atoms: C_32  and  N_42
                            x       y       z     vdW  Elec       q    Type
                         _______ _______ _______ _____ _____    ______ ____

>  <TORSDO>
F 8

$$$$
=
 OpenBabel10222418583D

 43 46  0  0  1  0  0  0  0  0999 V2000
  185.0220  179.1920  138.9590 N   0  0  0  0  0  0  0  0  0  0  0  0
  188.9070  177.1810  138.5470 C   0  0  0  0  0  2  0  0  0  0  0  0
  183.7970  179.0030  145.4790 N   0  0  0  0  0  0  0  0  0  0  0  0
  185.0680  178.7180  145.1900 N   0  0  0  0  0  0  0  0  0  0  0  0
  185.1380  176.3480  136.2550 F   0  0  0  0  0  0  0  0  0  0  0  0
  186.2170  178.1200  137.1070 C   0  0  0  0  0  2  0  0  0  0  0  0
  183.5630  178.5460  142.0030 C   0  0  0  0  0  3  0  0  0  0  0  0
  184.6360  178.2170  141.1490 C   0  0  0  0  0  0  0  0  0  0  0  0
  188.0200  175.9580  138.3980 C   0  0  0  0  0  2  0  0  0  0  0  0
  186.1880  178.1950  143.0550 C   0  0  0  0  0  3  0  0  0  0  0  0
  188.6900  177.6500  141.2360 S   0  0  0  0  0  0  0  0  0  0  0  0
  183.0490  178.9870  144.3820 N   0  0  0  0  0  0  0  0  0  0  0  0
  185.1020  178.5160  143.8600 C   0  0  0  0  0  0  0  0  0  0  0  0
  187.2480  175.9950  137.0870 C   0  0  1  0  0  3  0  0  0  0  0  0
  181.6220  179.2580  144.3450 C   0  0  0  0  0  1  0  0  0  0  0  0
  188.8670  176.6820  142.3720 O   0  0  0  0  0  0  0  0  0  0  0  0
  189.1390  179.0190  141.6630 O   0  0  0  0  0  0  0  0  0  0  0  0
  184.9910  178.9200  137.5260 C   0  0  0  0  0  2  0  0  0  0  0  0
  189.6830  177.0940  139.8550 C   0  0  2  0  0  3  0  0  0  0  0  0
  187.0200  177.7130  140.7790 N   0  0  0  0  0  2  0  0  0  0  0  0
  185.9500  178.0380  141.6710 C   0  0  0  0  0  0  0  0  0  0  0  0
  183.8510  178.6820  143.3560 C   0  0  0  0  0  0  0  0  0  0  0  0
  184.3700  178.1000  139.6820 C   0  0  0  0  0  2  0  0  0  0  0  0
  187.0270  174.5530  136.6530 C   0  0  0  0  0  1  0  0  0  0  0  0
  185.9700  176.6930  137.2690 N   0  0  0  0  0  0  0  0  0  0  0  0
  184.3680  180.3940  139.2130 O   0  0  0  0  0  0  0  0  0  0  0  0
  183.1140  180.7610  138.6890 C   0  0  0  0  0  3  0  0  0  0  0  0
  182.0120  180.0350  138.8540 C   0  0  0  0  0  3  0  0  0  0  0  0
  180.1290  182.6850  137.4410 C   0  0  0  0  0  2  0  0  0  0  0  0
  180.7680  180.4700  136.7620 C   0  0  0  0  0  2  0  0  0  0  0  0
  180.7080  180.4760  138.2820 C   0  0  2  0  0  3  0  0  0  0  0  0
  180.8070  181.9190  136.3320 C   0  0  1  0  0  3  0  0  0  0  0  0
  180.0530  182.1000  135.0320 C   0  0  0  0  0  1  0  0  0  0  0  0
  180.4350  181.9120  138.7070 C   0  0  2  0  0  3  0  0  0  0  0  0
  179.2450  181.9900  139.6510 C   0  0  0  0  0  2  0  0  0  0  0  0
  179.6810  181.1860  141.8620 O   0  0  0  0  0  1  0  0  0  0  0  0
  179.2190  180.8030  140.6030 C   0  0  0  0  0  2  0  0  0  0  0  0
  190.8710  177.8730  139.7720 O   0  0  0  0  0  0  0  0  0  0  0  0
  192.1160  177.3140  139.4760 C   0  0  0  0  0  0  0  0  0  0  0  0
  193.1070  177.5160  140.2310 O   0  0  0  0  0  0  0  0  0  0  0  0
  192.2570  176.5130  138.3030 N   0  0  0  0  0  2  0  0  0  0  0  0
  193.7660  176.0940  136.4550 C   0  0  0  0  0  1  0  0  0  0  0  0
  193.5220  175.9010  137.9370 C   0  0  0  0  0  2  0  0  0  0  0  0
  1 26  1  0  0  0  0
  1 23  1  0  0  0  0
  2 19  1  0  0  0  0
  4  3  2  0  0  0  0
  5 25  1  0  0  0  0
  6 25  1  0  0  0  0
  6 18  1  0  0  0  0
  7 22  1  0  0  0  0
  8 21  1  0  0  0  0
  8  7  2  0  0  0  0
  9  2  1  0  0  0  0
 10 13  1  0  0  0  0
 11 17  2  0  0  0  0
 11 16  2  0  0  0  0
 12  3  1  0  0  0  0
 13  4  1  0  0  0  0
 14 24  1  1  0  0  0
 14 25  1  0  0  0  0
 14  9  1  0  0  0  0
 15 12  1  0  0  0  0
 18  1  1  0  0  0  0
 19 38  1  6  0  0  0
 19 11  1  0  0  0  0
 20 11  1  0  0  0  0
 20 21  1  0  0  0  0
 21 10  2  0  0  0  0
 22 13  2  0  0  0  0
 22 12  1  0  0  0  0
 23  8  1  0  0  0  0
 27 28  2  0  0  0  0
 27 26  1  0  0  0  0
 29 34  1  0  0  0  0
 30 31  1  0  0  0  0
 31 34  1  0  0  0  0
 31 28  1  1  0  0  0
 32 33  1  6  0  0  0
 32 30  1  0  0  0  0
 32 29  1  0  0  0  0
 34 35  1  1  0  0  0
 35 37  1  0  0  0  0
 37 36  1  0  0  0  0
 39 38  1  0  0  0  0
 39 40  2  0  0  0  0
 41 39  1  0  0  0  0
 42 43  1  0  0  0  0
 43 41  1  0  0  0  0
M  END
>  <MODEL>
7

>  <REMARK>
 VINA RESULT:      -6.1      3.989      7.635
  Name = 
  8 active torsions:
  status: ('A' for Active; 'I' for Inactive)
    1  A    between atoms: N_1  and  O_5
    2  A    between atoms: O_5  and  C_38
    3  A    between atoms: C_18  and  O_30
    4  A    between atoms: C_19  and  C_40
    5  A    between atoms: C_29  and  C_33
    6  A    between atoms: C_29  and  C_43
    7  A    between atoms: O_30  and  C_31
    8  A    between atoms: C_32  and  N_42
                            x       y       z     vdW  Elec       q    Type
                         _______ _______ _______ _____ _____    ______ ____

>  <TORSDO>
F 8

$$$$
=
 OpenBabel10222418583D

 43 46  0  0  1  0  0  0  0  0999 V2000
  182.9090  176.3470  139.0790 N   0  0  0  0  0  0  0  0  0  0  0  0
  182.3630  178.4210  142.9140 C   0  0  0  0  0  2  0  0  0  0  0  0
  188.8670  178.3840  136.9830 N   0  0  0  0  0  0  0  0  0  0  0  0
  188.6570  178.6630  138.2700 N   0  0  0  0  0  0  0  0  0  0  0  0
  179.4990  178.2530  139.4610 F   0  0  0  0  0  0  0  0  0  0  0  0
  180.9730  176.9000  140.4750 C   0  0  0  0  0  2  0  0  0  0  0  0
  185.4160  177.7630  137.2030 C   0  0  0  0  0  3  0  0  0  0  0  0
  184.6350  177.9010  138.3690 C   0  0  0  0  0  0  0  0  0  0  0  0
  181.7440  179.4750  142.0140 C   0  0  0  0  0  2  0  0  0  0  0  0
  186.6120  178.6040  139.6490 C   0  0  0  0  0  3  0  0  0  0  0  0
  185.0210  178.7620  142.3530 S   0  0  0  0  0  0  0  0  0  0  0  0
  187.7370  178.0170  136.3880 N   0  0  0  0  0  0  0  0  0  0  0  0
  187.3420  178.4590  138.4760 C   0  0  0  0  0  0  0  0  0  0  0  0
  180.4250  178.9910  141.4270 C   0  0  1  0  0  3  0  0  0  0  0  0
  187.6170  177.6440  134.9900 C   0  0  0  0  0  1  0  0  0  0  0  0
  185.8200  180.0350  142.3430 O   0  0  0  0  0  0  0  0  0  0  0  0
  185.8970  177.6200  142.7870 O   0  0  0  0  0  0  0  0  0  0  0  0
  181.4690  176.1740  139.2320 C   0  0  0  0  0  2  0  0  0  0  0  0
  183.6630  178.9520  143.5030 C   0  0  2  0  0  3  0  0  0  0  0  0
  184.4120  178.4440  140.7630 N   0  0  0  0  0  2  0  0  0  0  0  0
  185.2280  178.3220  139.5940 C   0  0  0  0  0  0  0  0  0  0  0  0
  186.7700  178.0590  137.3110 C   0  0  0  0  0  0  0  0  0  0  0  0
  183.1820  177.5530  138.2990 C   0  0  0  0  0  2  0  0  0  0  0  0
  179.5490  180.2190  141.2180 C   0  0  0  0  0  1  0  0  0  0  0  0
  180.6600  178.2890  140.1610 N   0  0  0  0  0  0  0  0  0  0  0  0
  183.4390  175.2300  138.4380 O   0  0  0  0  0  0  0  0  0  0  0  0
  182.7840  174.4790  137.4440 C   0  0  0  0  0  3  0  0  0  0  0  0
  183.2980  174.2570  136.2380 C   0  0  0  0  0  3  0  0  0  0  0  0
  181.0140  171.6140  135.6350 C   0  0  0  0  0  2  0  0  0  0  0  0
  181.1320  173.9510  135.0850 C   0  0  0  0  0  2  0  0  0  0  0  0
  182.5610  173.4470  135.2260 C   0  0  2  0  0  3  0  0  0  0  0  0
  180.2480  172.9110  135.7360 C   0  0  1  0  0  3  0  0  0  0  0  0
  178.9330  172.8020  134.9940 C   0  0  0  0  0  1  0  0  0  0  0  0
  182.4750  172.0050  135.7050 C   0  0  2  0  0  3  0  0  0  0  0  0
  183.2930  171.0800  134.8150 C   0  0  0  0  0  2  0  0  0  0  0  0
  185.3230  169.9290  135.3430 O   0  0  0  0  0  1  0  0  0  0  0  0
  183.9590  169.9810  135.6290 C   0  0  0  0  0  2  0  0  0  0  0  0
  183.9640  178.2720  144.7170 O   0  0  0  0  0  0  0  0  0  0  0  0
  185.0380  178.6340  145.5330 C   0  0  0  0  0  0  0  0  0  0  0  0
  185.3170  179.8500  145.7250 O   0  0  0  0  0  0  0  0  0  0  0  0
  185.8240  177.6100  146.1430 N   0  0  0  0  0  2  0  0  0  0  0  0
  188.2310  177.8700  146.1930 C   0  0  0  0  0  1  0  0  0  0  0  0
  186.9540  177.9160  147.0030 C   0  0  0  0  0  2  0  0  0  0  0  0
  1 18  1  0  0  0  0
  2 19  1  0  0  0  0
  3  4  2  0  0  0  0
  4 13  1  0  0  0  0
  5 25  1  0  0  0  0
  7 22  2  0  0  0  0
  7  8  1  0  0  0  0
  8 21  2  0  0  0  0
  9  2  1  0  0  0  0
 11 17  2  0  0  0  0
 11 19  1  0  0  0  0
 12  3  1  0  0  0  0
 12 22  1  0  0  0  0
 13 10  2  0  0  0  0
 14 24  1  6  0  0  0
 14  9  1  0  0  0  0
 15 12  1  0  0  0  0
 16 11  2  0  0  0  0
 18  6  1  0  0  0  0
 19 38  1  1  0  0  0
 20 11  1  0  0  0  0
 21 10  1  0  0  0  0
 21 20  1  0  0  0  0
 22 13  1  0  0  0  0
 23  8  1  0  0  0  0
 23  1  1  0  0  0  0
 25  6  1  0  0  0  0
 25 14  1  0  0  0  0
 26  1  1  0  0  0  0
 27 26  1  0  0  0  0
 28 27  2  0  0  0  0
 29 34  1  0  0  0  0
 29 32  1  0  0  0  0
 30 31  1  0  0  0  0
 30 32  1  0  0  0  0
 31 34  1  0  0  0  0
 31 28  1  1  0  0  0
 32 33  1  6  0  0  0
 34 35  1  6  0  0  0
 35 37  1  0  0  0  0
 36 37  1  0  0  0  0
 38 39  1  0  0  0  0
 39 40  2  0  0  0  0
 39 41  1  0  0  0  0
 41 43  1  0  0  0  0
 42 43  1  0  0  0  0
M  END
>  <MODEL>
8

>  <REMARK>
 VINA RESULT:      -6.0      3.085      9.846
  Name = 
  8 active torsions:
  status: ('A' for Active; 'I' for Inactive)
    1  A    between atoms: N_1  and  O_5
    2  A    between atoms: O_5  and  C_38
    3  A    between atoms: C_18  and  O_30
    4  A    between atoms: C_19  and  C_40
    5  A    between atoms: C_29  and  C_33
    6  A    between atoms: C_29  and  C_43
    7  A    between atoms: O_30  and  C_31
    8  A    between atoms: C_32  and  N_42
                            x       y       z     vdW  Elec       q    Type
                         _______ _______ _______ _____ _____    ______ ____

>  <TORSDO>
F 8

$$$$
=
 OpenBabel10222418583D

 43 46  0  0  1  0  0  0  0  0999 V2000
  181.9970  176.7090  139.3130 N   0  0  0  0  0  0  0  0  0  0  0  0
  182.3050  178.4870  143.3200 C   0  0  0  0  0  2  0  0  0  0  0  0
  187.7430  178.3040  136.4000 N   0  0  0  0  0  0  0  0  0  0  0  0
  187.7720  178.4890  137.7210 N   0  0  0  0  0  0  0  0  0  0  0  0
  178.9310  178.9120  140.3890 F   0  0  0  0  0  0  0  0  0  0  0  0
  180.3820  177.3330  141.0470 C   0  0  0  0  0  2  0  0  0  0  0  0
  184.3210  178.0210  137.1490 C   0  0  0  0  0  3  0  0  0  0  0  0
  183.7550  178.1350  138.4350 C   0  0  0  0  0  0  0  0  0  0  0  0
  181.6760  179.6720  142.6110 C   0  0  0  0  0  2  0  0  0  0  0  0
  185.9770  178.5200  139.4140 C   0  0  0  0  0  3  0  0  0  0  0  0
  184.8620  178.6030  142.3490 S   0  0  0  0  0  0  0  0  0  0  0  0
  186.4980  178.1070  135.9780 N   0  0  0  0  0  0  0  0  0  0  0  0
  186.4920  178.4030  138.1290 C   0  0  0  0  0  0  0  0  0  0  0  0
  180.2340  179.3790  142.2190 C   0  0  1  0  0  3  0  0  0  0  0  0
  186.1170  177.8700  134.5970 C   0  0  0  0  0  1  0  0  0  0  0  0
  185.7890  179.7840  142.2940 O   0  0  0  0  0  0  0  0  0  0  0  0
  185.6580  177.3440  142.5510 O   0  0  0  0  0  0  0  0  0  0  0  0
  180.5880  176.6720  139.6910 C   0  0  0  0  0  2  0  0  0  0  0  0
  183.7340  178.8290  143.7200 C   0  0  2  0  0  3  0  0  0  0  0  0
  183.9770  178.4880  140.8640 N   0  0  0  0  0  2  0  0  0  0  0  0
  184.5790  178.3860  139.5700 C   0  0  0  0  0  0  0  0  0  0  0  0
  185.7000  178.1670  137.0500 C   0  0  0  0  0  0  0  0  0  0  0  0
  182.2790  177.9450  138.5840 C   0  0  0  0  0  2  0  0  0  0  0  0
  179.4830  180.7020  142.2450 C   0  0  0  0  0  1  0  0  0  0  0  0
  180.1840  178.7680  140.8860 N   0  0  0  0  0  0  0  0  0  0  0  0
  182.2880  175.6040  138.5170 O   0  0  0  0  0  0  0  0  0  0  0  0
  183.5430  174.9730  138.4340 C   0  0  0  0  0  3  0  0  0  0  0  0
  183.9160  174.2200  137.4040 C   0  0  0  0  0  3  0  0  0  0  0  0
  186.7530  173.3710  135.4540 C   0  0  0  0  0  2  0  0  0  0  0  0
  186.3520  174.6390  137.4570 C   0  0  0  0  0  2  0  0  0  0  0  0
  185.2620  173.5810  137.3670 C   0  0  2  0  0  3  0  0  0  0  0  0
  186.9760  174.7260  136.0820 C   0  0  1  0  0  3  0  0  0  0  0  0
  188.4580  175.0130  136.1960 C   0  0  0  0  0  1  0  0  0  0  0  0
  185.4440  172.8730  136.0320 C   0  0  2  0  0  3  0  0  0  0  0  0
  185.5100  171.3640  136.2140 C   0  0  0  0  0  2  0  0  0  0  0  0
  183.3230  170.5180  136.6870 O   0  0  0  0  0  1  0  0  0  0  0  0
  184.2610  170.6890  135.6690 C   0  0  0  0  0  2  0  0  0  0  0  0
  184.1420  178.0190  144.8170 O   0  0  0  0  0  0  0  0  0  0  0  0
  185.2010  178.3730  145.6560 C   0  0  0  0  0  0  0  0  0  0  0  0
  185.1050  179.3690  146.4260 O   0  0  0  0  0  0  0  0  0  0  0  0
  186.3980  177.5970  145.6300 N   0  0  0  0  0  2  0  0  0  0  0  0
  188.7850  177.2810  145.8970 C   0  0  0  0  0  1  0  0  0  0  0  0
  187.5360  177.9090  146.4770 C   0  0  0  0  0  2  0  0  0  0  0  0
  1 18  1  0  0  0  0
  2 19  1  0  0  0  0
  3  4  2  0  0  0  0
  4 13  1  0  0  0  0
  5 25  1  0  0  0  0
  7  8  1  0  0  0  0
  8 23  1  0  0  0  0
  8 21  2  0  0  0  0
  9  2  1  0  0  0  0
 10 21  1  0  0  0  0
 11 17  2  0  0  0  0
 11 19  1  0  0  0  0
 12  3  1  0  0  0  0
 12 22  1  0  0  0  0
 13 10  2  0  0  0  0
 14 24  1  6  0  0  0
 14  9  1  0  0  0  0
 15 12  1  0  0  0  0
 16 11  2  0  0  0  0
 18  6  1  0  0  0  0
 19 38  1  1  0  0  0
 20 11  1  0  0  0  0
 21 20  1  0  0  0  0
 22  7  2  0  0  0  0
 22 13  1  0  0  0  0
 23  1  1  0  0  0  0
 25  6  1  0  0  0  0
 25 14  1  0  0  0  0
 26  1  1  0  0  0  0
 27 26  1  0  0  0  0
 28 27  2  0  0  0  0
 29 34  1  0  0  0  0
 29 32  1  0  0  0  0
 31 28  1  6  0  0  0
 31 30  1  0  0  0  0
 32 33  1  1  0  0  0
 32 30  1  0  0  0  0
 34 35  1  1  0  0  0
 34 31  1  0  0  0  0
 37 35  1  0  0  0  0
 37 36  1  0  0  0  0
 38 39  1  0  0  0  0
 39 40  2  0  0  0  0
 41 39  1  0  0  0  0
 41 43  1  0  0  0  0
 42 43  1  0  0  0  0
M  END
>  <MODEL>
9

>  <REMARK>
 VINA RESULT:      -5.9      2.956      9.052
  Name = 
  8 active torsions:
  status: ('A' for Active; 'I' for Inactive)
    1  A    between atoms: N_1  and  O_5
    2  A    between atoms: O_5  and  C_38
    3  A    between atoms: C_18  and  O_30
    4  A    between atoms: C_19  and  C_40
    5  A    between atoms: C_29  and  C_33
    6  A    between atoms: C_29  and  C_43
    7  A    between atoms: O_30  and  C_31
    8  A    between atoms: C_32  and  N_42
                            x       y       z     vdW  Elec       q    Type
                         _______ _______ _______ _____ _____    ______ ____

>  <TORSDO>
F 8

$$$$
