=
 OpenBabel10222417483D

 52 56  0  0  1  0  0  0  0  0999 V2000
  181.7610  178.5460  140.4330 C   0  0  2  0  0  3  0  0  0  0  0  0
  181.1540  178.6080  141.6890 O   0  0  0  0  0  1  0  0  0  0  0  0
  180.9130  177.8300  139.5430 O   0  0  0  0  0  0  0  0  0  0  0  0
  180.8830  179.3020  137.5950 C   0  0  0  0  0  3  0  0  0  0  0  0
  180.9100  179.4790  136.2130 C   0  0  0  0  0  3  0  0  0  0  0  0
  180.9200  178.0150  138.1530 C   0  0  0  0  0  0  0  0  0  0  0  0
  180.9710  176.8920  137.3050 C   0  0  0  0  0  0  0  0  0  0  0  0
  181.0990  175.9920  135.0440 O   0  0  0  0  0  1  0  0  0  0  0  0
  180.9790  178.3690  135.3710 C   0  0  0  0  0  3  0  0  0  0  0  0
  181.0150  177.0790  135.9060 C   0  0  0  0  0  0  0  0  0  0  0  0
  181.0300  175.5200  137.9240 C   0  0  1  0  0  3  0  0  0  0  0  0
  179.7200  174.7710  137.7650 C   0  0  0  0  0  1  0  0  0  0  0  0
  182.1960  174.6960  137.3900 C   0  0  0  0  0  2  0  0  0  0  0  0
  184.9750  171.6010  135.9470 C   0  0  0  0  0  2  0  0  0  0  0  0
  186.3790  172.1540  136.1050 C   0  0  0  0  0  2  0  0  0  0  0  0
  186.3340  173.0890  137.3060 C   0  0  2  0  0  3  0  0  0  0  0  0
  182.2140  171.1230  136.5470 O   0  0  0  0  0  0  0  0  0  0  0  0
  181.8220  173.2930  137.2680 N   0  0  0  0  0  2  0  0  0  0  0  0
  184.1260  172.4360  136.7710 N   0  0  0  0  0  0  0  0  0  0  0  0
  184.8680  173.3710  137.5920 C   0  0  0  0  0  2  0  0  0  0  0  0
  182.7060  172.2420  136.8580 C   0  0  0  0  0  0  0  0  0  0  0  0
  187.1080  174.3730  137.0450 C   0  0  0  0  0  2  0  0  0  0  0  0
  186.6370  175.0180  135.8840 O   0  0  0  0  0  0  0  0  0  0  0  0
  184.9080  176.7580  135.7870 C   0  0  0  0  0  1  0  0  0  0  0  0
  186.3210  176.3600  136.1960 C   0  0  0  0  0  3  0  0  0  0  0  0
  187.3660  177.3540  135.7020 C   0  0  0  0  0  1  0  0  0  0  0  0
  183.0410  177.8580  140.5450 N   0  0  0  0  0  2  0  0  0  0  0  0
  183.9980  179.7740  139.1680 C   0  0  0  0  0  2  0  0  0  0  0  0
  184.8580  178.5240  139.0480 C   0  0  0  0  0  2  0  0  0  0  0  0
  184.1220  178.8140  140.3340 C   0  0  0  0  0  0  0  0  0  0  0  0
  185.0770  179.1100  141.4770 C   0  0  0  0  0  2  0  0  0  0  0  0
  184.6480  178.3930  142.7400 C   0  0  0  0  0  2  0  0  0  0  0  0
  184.2730  179.4220  143.7840 C   0  0  0  0  0  2  0  0  0  0  0  0
  185.0510  179.1640  145.0580 C   0  0  0  0  0  2  0  0  0  0  0  0
  185.8530  177.8860  144.9190 C   0  0  0  0  0  2  0  0  0  0  0  0
  188.1700  177.5420  145.8620 C   0  0  0  0  0  0  0  0  0  0  0  0
  191.1880  177.5870  142.7570 O   0  0  0  0  0  1  0  0  0  0  0  0
  190.3410  176.5120  143.0660 C   0  0  1  0  0  3  0  0  0  0  0  0
  188.4230  177.2120  148.2310 O   0  0  0  0  0  1  0  0  0  0  0  0
  192.1230  176.0920  145.4460 O   0  0  0  0  0  1  0  0  0  0  0  0
  190.3960  176.8390  146.9230 C   0  0  1  0  0  3  0  0  0  0  0  0
  189.0830  177.6350  147.0750 C   0  0  1  0  0  3  0  0  0  0  0  0
  186.8550  177.7830  146.0250 C   0  0  0  0  0  3  0  0  0  0  0  0
  191.0290  176.9540  145.5300 C   0  0  2  0  0  3  0  0  0  0  0  0
  188.8560  177.5360  144.5140 C   0  0  2  0  0  3  0  0  0  0  0  0
  191.3090  177.2550  147.8940 O   0  0  0  0  0  1  0  0  0  0  0  0
  188.0550  177.2360  143.4000 O   0  0  0  0  0  0  0  0  0  0  0  0
  189.9720  176.5410  144.5180 C   0  0  1  0  0  3  0  0  0  0  0  0
  188.9510  176.7000  142.4410 C   0  0  1  0  0  3  0  0  0  0  0  0
  189.3330  176.9790  140.0880 O   0  0  0  0  0  0  0  0  0  0  0  0
  188.9480  177.4970  141.1700 C   0  0  0  0  0  0  0  0  0  0  0  0
  188.4710  178.8000  141.1780 O   0  0  0  0  0  1  0  0  0  0  0  0
  1 27  1  0  0  0  0
  1  2  1  1  0  0  0
  3  1  1  0  0  0  0
  4  6  1  0  0  0  0
  5  4  2  0  0  0  0
  6  3  1  0  0  0  0
  7 11  1  0  0  0  0
  7  6  2  0  0  0  0
  8 10  1  0  0  0  0
  9 10  2  0  0  0  0
  9  5  1  0  0  0  0
 10  7  1  0  0  0  0
 11 12  1  6  0  0  0
 13 11  1  0  0  0  0
 14 15  1  0  0  0  0
 14 19  1  0  0  0  0
 15 16  1  0  0  0  0
 16 22  1  6  0  0  0
 16 20  1  0  0  0  0
 17 21  2  0  0  0  0
 18 13  1  0  0  0  0
 19 21  1  0  0  0  0
 19 20  1  0  0  0  0
 21 18  1  0  0  0  0
 23 25  1  0  0  0  0
 23 22  1  0  0  0  0
 24 25  1  0  0  0  0
 26 25  1  0  0  0  0
 28 30  1  0  0  0  0
 29 28  1  0  0  0  0
 29 30  1  0  0  0  0
 30 27  1  0  0  0  0
 30 31  1  0  0  0  0
 31 32  1  0  0  0  0
 32 33  1  0  0  0  0
 33 34  1  0  0  0  0
 35 34  1  0  0  0  0
 35 43  1  0  0  0  0
 36 43  2  0  0  0  0
 36 42  1  0  0  0  0
 38 37  1  1  0  0  0
 38 48  1  0  0  0  0
 41 42  1  0  0  0  0
 41 46  1  1  0  0  0
 42 39  1  1  0  0  0
 44 40  1  1  0  0  0
 44 41  1  0  0  0  0
 45 47  1  6  0  0  0
 45 48  1  0  0  0  0
 45 36  1  0  0  0  0
 48 44  1  0  0  0  0
 49 38  1  0  0  0  0
 49 47  1  0  0  0  0
 50 51  2  0  0  0  0
 51 52  1  0  0  0  0
 51 49  1  0  0  0  0
M  END
>  <MODEL>
1

>  <REMARK>
 VINA RESULT:      -8.0      0.000      0.000
  Name = 
  17 active torsions:
  status: ('A' for Active; 'I' for Inactive)
    1  A    between atoms: O_1  and  C_8
    2  A    between atoms: O_1  and  C_26
    3  A    between atoms: O_7  and  C_9
    4  A    between atoms: O_7  and  C_23
    5  A    between atoms: C_8  and  N_40
    6  A    between atoms: C_9  and  C_12
    7  A    between atoms: C_10  and  C_31
    8  A    between atoms: C_10  and  C_39
    9  A    between atoms: C_16  and  C_18
   10  A    between atoms: C_16  and  N_35
   11  A    between atoms: C_18  and  C_28
   12  A    between atoms: C_20  and  C_39
   13  A    between atoms: C_20  and  C_43
   14  A    between atoms: C_29  and  C_31
   15  A    between atoms: C_34  and  C_48
   16  A    between atoms: N_40  and  C_44
   17  A    between atoms: C_43  and  C_44
                            x       y       z     vdW  Elec       q    Type
                         _______ _______ _______ _____ _____    ______ ____

>  <TORSDO>
F 17

$$$$
=
 OpenBabel10222417483D

 52 56  0  0  1  0  0  0  0  0999 V2000
  187.1910  177.8350  145.9170 C   0  0  2  0  0  3  0  0  0  0  0  0
  186.3430  178.2380  146.9490 O   0  0  0  0  0  1  0  0  0  0  0  0
  186.4070  177.3410  144.8370 O   0  0  0  0  0  0  0  0  0  0  0  0
  187.7450  177.5270  142.8030 C   0  0  0  0  0  3  0  0  0  0  0  0
  187.8810  177.9430  141.4800 C   0  0  0  0  0  3  0  0  0  0  0  0
  186.5590  177.7730  143.5120 C   0  0  0  0  0  0  0  0  0  0  0  0
  185.5030  178.4600  142.8830 C   0  0  0  0  0  0  0  0  0  0  0  0
  184.6060  179.5130  140.8760 O   0  0  0  0  0  1  0  0  0  0  0  0
  186.8300  178.6070  140.8470 C   0  0  0  0  0  3  0  0  0  0  0  0
  185.6420  178.8630  141.5360 C   0  0  0  0  0  0  0  0  0  0  0  0
  184.2320  178.6960  143.6550 C   0  0  1  0  0  3  0  0  0  0  0  0
  184.2290  180.0510  144.3380 C   0  0  0  0  0  1  0  0  0  0  0  0
  182.9900  178.5230  142.7880 C   0  0  0  0  0  2  0  0  0  0  0  0
  179.4560  179.4620  140.3350 C   0  0  0  0  0  2  0  0  0  0  0  0
  179.3630  178.3950  139.2610 C   0  0  0  0  0  2  0  0  0  0  0  0
  179.9480  177.1280  139.8700 C   0  0  2  0  0  3  0  0  0  0  0  0
  179.9810  180.6240  142.9010 O   0  0  0  0  0  0  0  0  0  0  0  0
  181.9120  179.3860  143.2530 N   0  0  0  0  0  2  0  0  0  0  0  0
  180.3520  178.9320  141.3420 N   0  0  0  0  0  0  0  0  0  0  0  0
  180.7130  177.5480  141.1140 C   0  0  0  0  0  2  0  0  0  0  0  0
  180.7170  179.6750  142.5150 C   0  0  0  0  0  0  0  0  0  0  0  0
  180.8470  176.3970  138.8830 C   0  0  0  0  0  2  0  0  0  0  0  0
  182.0550  176.0060  139.4960 O   0  0  0  0  0  0  0  0  0  0  0  0
  182.9320  177.4470  137.7130 C   0  0  0  0  0  1  0  0  0  0  0  0
  183.1220  176.2180  138.5940 C   0  0  0  0  0  3  0  0  0  0  0  0
  183.4790  174.9780  137.7830 C   0  0  0  0  0  1  0  0  0  0  0  0
  188.0760  176.7820  146.3980 N   0  0  0  0  0  2  0  0  0  0  0  0
  190.4390  176.5600  147.3200 C   0  0  0  0  0  2  0  0  0  0  0  0
  189.7830  177.8500  147.7870 C   0  0  0  0  0  2  0  0  0  0  0  0
  189.4470  177.2800  146.4300 C   0  0  0  0  0  0  0  0  0  0  0  0
  189.9310  178.1770  145.3040 C   0  0  0  0  0  2  0  0  0  0  0  0
  191.1280  177.5690  144.6050 C   0  0  0  0  0  2  0  0  0  0  0  0
  191.2730  178.2020  143.2390 C   0  0  0  0  0  2  0  0  0  0  0  0
  191.5390  177.1290  142.2030 C   0  0  0  0  0  2  0  0  0  0  0  0
  191.4700  177.7310  140.8140 C   0  0  0  0  0  2  0  0  0  0  0  0
  192.2770  176.6300  138.6900 C   0  0  0  0  0  0  0  0  0  0  0  0
  189.3110  176.8480  135.5430 O   0  0  0  0  0  1  0  0  0  0  0  0
  189.3040  175.9490  136.6190 C   0  0  1  0  0  3  0  0  0  0  0  0
  194.4560  175.6130  138.6640 O   0  0  0  0  0  1  0  0  0  0  0  0
  191.4680  174.5010  135.1240 O   0  0  0  0  0  1  0  0  0  0  0  0
  193.0960  175.1810  136.7400 C   0  0  1  0  0  3  0  0  0  0  0  0
  193.4670  176.1780  137.8570 C   0  0  1  0  0  3  0  0  0  0  0  0
  192.5020  177.1060  139.9300 C   0  0  0  0  0  3  0  0  0  0  0  0
  191.7920  175.5290  136.0100 C   0  0  2  0  0  3  0  0  0  0  0  0
  190.9820  176.8410  137.9370 C   0  0  2  0  0  3  0  0  0  0  0  0
  194.1450  175.0970  135.8220 O   0  0  0  0  0  1  0  0  0  0  0  0
  189.8290  177.0470  138.7120 O   0  0  0  0  0  0  0  0  0  0  0  0
  190.7040  175.6590  137.0640 C   0  0  1  0  0  3  0  0  0  0  0  0
  188.7570  176.6090  137.8930 C   0  0  1  0  0  3  0  0  0  0  0  0
  188.1370  178.9060  137.5780 O   0  0  0  0  0  1  0  0  0  0  0  0
  187.7630  177.7040  137.6440 C   0  0  0  0  0  0  0  0  0  0  0  0
  186.4290  177.3870  137.4360 O   0  0  0  0  0  0  0  0  0  0  0  0
  1 27  1  0  0  0  0
  1  2  1  1  0  0  0
  3  1  1  0  0  0  0
  4  6  1  0  0  0  0
  5  4  2  0  0  0  0
  6  3  1  0  0  0  0
  7  6  2  0  0  0  0
  7 11  1  0  0  0  0
  8 10  1  0  0  0  0
  9  5  1  0  0  0  0
  9 10  2  0  0  0  0
 10  7  1  0  0  0  0
 11 12  1  6  0  0  0
 13 18  1  0  0  0  0
 13 11  1  0  0  0  0
 14 19  1  0  0  0  0
 15 16  1  0  0  0  0
 15 14  1  0  0  0  0
 16 22  1  6  0  0  0
 16 20  1  0  0  0  0
 19 21  1  0  0  0  0
 20 19  1  0  0  0  0
 21 17  2  0  0  0  0
 21 18  1  0  0  0  0
 22 23  1  0  0  0  0
 24 25  1  0  0  0  0
 25 23  1  0  0  0  0
 26 25  1  0  0  0  0
 27 30  1  0  0  0  0
 28 29  1  0  0  0  0
 30 28  1  0  0  0  0
 30 29  1  0  0  0  0
 31 30  1  0  0  0  0
 32 31  1  0  0  0  0
 33 32  1  0  0  0  0
 34 33  1  0  0  0  0
 35 34  1  0  0  0  0
 36 43  2  0  0  0  0
 38 37  1  6  0  0  0
 38 48  1  0  0  0  0
 38 49  1  0  0  0  0
 41 46  1  6  0  0  0
 41 42  1  0  0  0  0
 42 39  1  1  0  0  0
 42 36  1  0  0  0  0
 43 35  1  0  0  0  0
 44 40  1  6  0  0  0
 44 41  1  0  0  0  0
 44 48  1  0  0  0  0
 45 36  1  1  0  0  0
 45 47  1  0  0  0  0
 48 45  1  0  0  0  0
 49 47  1  0  0  0  0
 50 51  1  0  0  0  0
 51 49  1  0  0  0  0
 52 51  2  0  0  0  0
M  END
>  <MODEL>
2

>  <REMARK>
 VINA RESULT:      -7.8      3.076      8.054
  Name = 
  17 active torsions:
  status: ('A' for Active; 'I' for Inactive)
    1  A    between atoms: O_1  and  C_8
    2  A    between atoms: O_1  and  C_26
    3  A    between atoms: O_7  and  C_9
    4  A    between atoms: O_7  and  C_23
    5  A    between atoms: C_8  and  N_40
    6  A    between atoms: C_9  and  C_12
    7  A    between atoms: C_10  and  C_31
    8  A    between atoms: C_10  and  C_39
    9  A    between atoms: C_16  and  C_18
   10  A    between atoms: C_16  and  N_35
   11  A    between atoms: C_18  and  C_28
   12  A    between atoms: C_20  and  C_39
   13  A    between atoms: C_20  and  C_43
   14  A    between atoms: C_29  and  C_31
   15  A    between atoms: C_34  and  C_48
   16  A    between atoms: N_40  and  C_44
   17  A    between atoms: C_43  and  C_44
                            x       y       z     vdW  Elec       q    Type
                         _______ _______ _______ _____ _____    ______ ____

>  <TORSDO>
F 17

$$$$
=
 OpenBabel10222417483D

 52 56  0  0  1  0  0  0  0  0999 V2000
  185.6710  178.6010  139.1750 C   0  0  2  0  0  3  0  0  0  0  0  0
  186.6640  178.7050  140.1510 O   0  0  0  0  0  1  0  0  0  0  0  0
  186.2360  178.9010  137.9040 O   0  0  0  0  0  0  0  0  0  0  0  0
  188.5990  178.3870  137.5690 C   0  0  0  0  0  3  0  0  0  0  0  0
  189.5950  177.6050  136.9860 C   0  0  0  0  0  3  0  0  0  0  0  0
  187.2440  178.1320  137.3070 C   0  0  0  0  0  0  0  0  0  0  0  0
  186.8910  177.0850  136.4350 C   0  0  0  0  0  0  0  0  0  0  0  0
  187.5870  175.2240  135.0230 O   0  0  0  0  0  1  0  0  0  0  0  0
  189.2480  176.5550  136.1360 C   0  0  0  0  0  3  0  0  0  0  0  0
  187.9050  176.2860  135.8610 C   0  0  0  0  0  0  0  0  0  0  0  0
  185.4310  176.8150  136.1820 C   0  0  1  0  0  3  0  0  0  0  0  0
  185.1300  176.6700  134.7020 C   0  0  0  0  0  1  0  0  0  0  0  0
  184.9240  175.6060  136.9600 C   0  0  0  0  0  2  0  0  0  0  0  0
  182.1530  172.1850  136.9380 C   0  0  0  0  0  2  0  0  0  0  0  0
  180.7920  172.7110  137.3540 C   0  0  0  0  0  2  0  0  0  0  0  0
  180.7300  174.1540  136.8700 C   0  0  2  0  0  3  0  0  0  0  0  0
  184.7400  172.1600  135.7070 O   0  0  0  0  0  0  0  0  0  0  0  0
  185.1960  174.3740  136.2300 N   0  0  0  0  0  2  0  0  0  0  0  0
  182.9320  173.3490  136.5700 N   0  0  0  0  0  0  0  0  0  0  0  0
  182.1530  174.5700  136.5350 C   0  0  0  0  0  2  0  0  0  0  0  0
  184.3000  173.2570  136.1470 C   0  0  0  0  0  0  0  0  0  0  0  0
  180.1130  175.0690  137.9180 C   0  0  0  0  0  2  0  0  0  0  0  0
  181.0510  175.3920  138.9200 O   0  0  0  0  0  0  0  0  0  0  0  0
  179.6180  174.8570  140.8400 C   0  0  0  0  0  1  0  0  0  0  0  0
  180.3690  175.9160  140.0410 C   0  0  0  0  0  3  0  0  0  0  0  0
  179.4890  177.1140  139.7030 C   0  0  0  0  0  1  0  0  0  0  0  0
  184.6020  179.5480  139.4680 N   0  0  0  0  0  2  0  0  0  0  0  0
  182.5590  178.5350  138.3340 C   0  0  0  0  0  2  0  0  0  0  0  0
  182.1720  179.7060  139.2260 C   0  0  0  0  0  2  0  0  0  0  0  0
  183.3410  178.8250  139.6000 C   0  0  0  0  0  0  0  0  0  0  0  0
  183.0730  178.0370  140.8690 C   0  0  0  0  0  2  0  0  0  0  0  0
  182.3840  178.9000  141.9060 C   0  0  0  0  0  2  0  0  0  0  0  0
  183.1370  178.7920  143.2130 C   0  0  0  0  0  2  0  0  0  0  0  0
  184.5970  179.1270  142.9920 C   0  0  0  0  0  2  0  0  0  0  0  0
  185.4590  177.9450  143.3920 C   0  0  0  0  0  2  0  0  0  0  0  0
  187.2000  177.8960  145.2190 C   0  0  0  0  0  0  0  0  0  0  0  0
  191.1970  177.4420  143.6150 O   0  0  0  0  0  1  0  0  0  0  0  0
  190.2530  176.4170  143.7750 C   0  0  1  0  0  3  0  0  0  0  0  0
  186.4850  178.0600  147.5090 O   0  0  0  0  0  1  0  0  0  0  0  0
  190.9330  176.5590  146.6960 O   0  0  0  0  0  1  0  0  0  0  0  0
  188.7960  177.5150  147.1890 C   0  0  1  0  0  3  0  0  0  0  0  0
  187.5640  178.2690  146.6480 C   0  0  1  0  0  3  0  0  0  0  0  0
  185.9380  178.1090  144.7990 C   0  0  0  0  0  3  0  0  0  0  0  0
  189.9310  177.3740  146.1670 C   0  0  2  0  0  3  0  0  0  0  0  0
  188.3610  177.6480  144.2820 C   0  0  2  0  0  3  0  0  0  0  0  0
  189.2690  178.1550  148.3370 O   0  0  0  0  0  1  0  0  0  0  0  0
  188.0530  177.0960  143.0280 O   0  0  0  0  0  0  0  0  0  0  0  0
  189.3430  176.7210  144.9260 C   0  0  1  0  0  3  0  0  0  0  0  0
  189.2310  176.4170  142.6280 C   0  0  1  0  0  3  0  0  0  0  0  0
  189.3710  178.0510  140.8760 O   0  0  0  0  0  1  0  0  0  0  0  0
  189.7620  176.9410  141.3280 C   0  0  0  0  0  0  0  0  0  0  0  0
  190.7300  176.2220  140.6400 O   0  0  0  0  0  0  0  0  0  0  0  0
  1 27  1  0  0  0  0
  1  2  1  1  0  0  0
  3  1  1  0  0  0  0
  5  4  2  0  0  0  0
  6  4  1  0  0  0  0
  6  3  1  0  0  0  0
  7  6  2  0  0  0  0
  8 10  1  0  0  0  0
  9  5  1  0  0  0  0
 10  9  2  0  0  0  0
 10  7  1  0  0  0  0
 11 12  1  6  0  0  0
 11  7  1  0  0  0  0
 11 13  1  0  0  0  0
 14 15  1  0  0  0  0
 16 15  1  0  0  0  0
 16 22  1  1  0  0  0
 17 21  2  0  0  0  0
 18 13  1  0  0  0  0
 19 14  1  0  0  0  0
 20 19  1  0  0  0  0
 20 16  1  0  0  0  0
 21 18  1  0  0  0  0
 21 19  1  0  0  0  0
 22 23  1  0  0  0  0
 23 25  1  0  0  0  0
 25 24  1  0  0  0  0
 26 25  1  0  0  0  0
 27 30  1  0  0  0  0
 28 29  1  0  0  0  0
 28 30  1  0  0  0  0
 29 30  1  0  0  0  0
 30 31  1  0  0  0  0
 31 32  1  0  0  0  0
 32 33  1  0  0  0  0
 34 33  1  0  0  0  0
 34 35  1  0  0  0  0
 35 43  1  0  0  0  0
 36 42  1  0  0  0  0
 38 37  1  6  0  0  0
 38 48  1  0  0  0  0
 41 46  1  1  0  0  0
 42 41  1  0  0  0  0
 42 39  1  1  0  0  0
 43 36  2  0  0  0  0
 44 40  1  1  0  0  0
 44 41  1  0  0  0  0
 45 47  1  6  0  0  0
 45 48  1  0  0  0  0
 45 36  1  0  0  0  0
 48 44  1  0  0  0  0
 49 47  1  0  0  0  0
 49 38  1  0  0  0  0
 50 51  1  0  0  0  0
 51 49  1  0  0  0  0
 52 51  2  0  0  0  0
M  END
>  <MODEL>
3

>  <REMARK>
 VINA RESULT:      -7.6      1.733      4.405
  Name = 
  17 active torsions:
  status: ('A' for Active; 'I' for Inactive)
    1  A    between atoms: O_1  and  C_8
    2  A    between atoms: O_1  and  C_26
    3  A    between atoms: O_7  and  C_9
    4  A    between atoms: O_7  and  C_23
    5  A    between atoms: C_8  and  N_40
    6  A    between atoms: C_9  and  C_12
    7  A    between atoms: C_10  and  C_31
    8  A    between atoms: C_10  and  C_39
    9  A    between atoms: C_16  and  C_18
   10  A    between atoms: C_16  and  N_35
   11  A    between atoms: C_18  and  C_28
   12  A    between atoms: C_20  and  C_39
   13  A    between atoms: C_20  and  C_43
   14  A    between atoms: C_29  and  C_31
   15  A    between atoms: C_34  and  C_48
   16  A    between atoms: N_40  and  C_44
   17  A    between atoms: C_43  and  C_44
                            x       y       z     vdW  Elec       q    Type
                         _______ _______ _______ _____ _____    ______ ____

>  <TORSDO>
F 17

$$$$
=
 OpenBabel10222417483D

 52 56  0  0  1  0  0  0  0  0999 V2000
  181.6270  179.1300  141.5060 C   0  0  2  0  0  3  0  0  0  0  0  0
  180.5870  179.5340  142.3450 O   0  0  0  0  0  1  0  0  0  0  0  0
  181.0790  178.4600  140.3770 O   0  0  0  0  0  0  0  0  0  0  0  0
  180.6560  180.3730  138.9200 C   0  0  0  0  0  3  0  0  0  0  0  0
  180.6160  180.9360  137.6450 C   0  0  0  0  0  3  0  0  0  0  0  0
  181.0170  179.0280  139.0970 C   0  0  0  0  0  0  0  0  0  0  0  0
  181.3280  178.2390  137.9730 C   0  0  0  0  0  0  0  0  0  0  0  0
  181.6350  178.0770  135.5610 O   0  0  0  0  0  1  0  0  0  0  0  0
  180.9410  180.1620  136.5320 C   0  0  0  0  0  3  0  0  0  0  0  0
  181.3010  178.8210  136.6870 C   0  0  0  0  0  0  0  0  0  0  0  0
  181.7320  176.8040  138.1860 C   0  0  1  0  0  3  0  0  0  0  0  0
  180.7120  175.8370  137.6140 C   0  0  0  0  0  1  0  0  0  0  0  0
  183.1240  176.5100  137.6400 C   0  0  0  0  0  2  0  0  0  0  0  0
  187.4720  176.2900  136.9790 C   0  0  0  0  0  2  0  0  0  0  0  0
  187.7240  175.1090  136.0600 C   0  0  0  0  0  2  0  0  0  0  0  0
  186.4900  174.9890  135.1760 C   0  0  2  0  0  3  0  0  0  0  0  0
  186.1330  178.5670  138.0890 O   0  0  0  0  0  0  0  0  0  0  0  0
  184.0170  177.6380  137.8720 N   0  0  0  0  0  2  0  0  0  0  0  0
  186.0590  176.5860  136.8650 N   0  0  0  0  0  0  0  0  0  0  0  0
  185.3980  175.8240  135.8250 C   0  0  0  0  0  2  0  0  0  0  0  0
  185.4280  177.6330  137.6180 C   0  0  0  0  0  0  0  0  0  0  0  0
  186.0590  173.5390  135.0110 C   0  0  0  0  0  2  0  0  0  0  0  0
  184.6570  173.4190  135.0780 O   0  0  0  0  0  0  0  0  0  0  0  0
  184.7440  172.6400  137.4050 C   0  0  0  0  0  1  0  0  0  0  0  0
  184.3240  172.3700  135.9650 C   0  0  0  0  0  3  0  0  0  0  0  0
  184.7870  171.0020  135.4770 C   0  0  0  0  0  1  0  0  0  0  0  0
  182.5100  178.2230  142.2290 N   0  0  0  0  0  2  0  0  0  0  0  0
  184.6620  179.1850  141.2670 C   0  0  0  0  0  2  0  0  0  0  0  0
  184.9410  177.9660  142.1350 C   0  0  0  0  0  2  0  0  0  0  0  0
  183.7880  178.8830  142.4680 C   0  0  0  0  0  0  0  0  0  0  0  0
  184.0070  179.6110  143.7830 C   0  0  0  0  0  2  0  0  0  0  0  0
  183.4660  178.8050  144.9440 C   0  0  0  0  0  2  0  0  0  0  0  0
  184.3780  178.9880  146.1370 C   0  0  0  0  0  2  0  0  0  0  0  0
  185.4110  177.8800  146.1660 C   0  0  0  0  0  2  0  0  0  0  0  0
  186.6790  178.3440  145.4770 C   0  0  0  0  0  2  0  0  0  0  0  0
  189.0150  177.4190  145.7240 C   0  0  0  0  0  0  0  0  0  0  0  0
  191.0640  177.2020  141.9150 O   0  0  0  0  0  1  0  0  0  0  0  0
  190.1000  176.2970  142.3830 C   0  0  1  0  0  3  0  0  0  0  0  0
  189.7820  176.7680  147.9080 O   0  0  0  0  0  1  0  0  0  0  0  0
  192.2830  175.2400  144.1520 O   0  0  0  0  0  1  0  0  0  0  0  0
  191.2130  176.1500  146.0880 C   0  0  1  0  0  3  0  0  0  0  0  0
  190.2040  177.1780  146.6410 C   0  0  1  0  0  3  0  0  0  0  0  0
  187.8780  177.9070  146.2560 C   0  0  0  0  0  3  0  0  0  0  0  0
  191.4780  176.2940  144.5840 C   0  0  2  0  0  3  0  0  0  0  0  0
  189.3130  177.4300  144.2410 C   0  0  2  0  0  3  0  0  0  0  0  0
  192.4140  176.2510  146.7930 O   0  0  0  0  0  1  0  0  0  0  0  0
  188.2070  177.4350  143.3750 O   0  0  0  0  0  0  0  0  0  0  0  0
  190.1310  176.2310  143.8790 C   0  0  1  0  0  3  0  0  0  0  0  0
  188.6790  176.8420  142.1770 C   0  0  1  0  0  3  0  0  0  0  0  0
  188.6510  177.3310  139.8270 O   0  0  0  0  0  0  0  0  0  0  0  0
  188.5350  177.7660  141.0040 C   0  0  0  0  0  0  0  0  0  0  0  0
  188.2250  179.1010  141.2160 O   0  0  0  0  0  1  0  0  0  0  0  0
  1 27  1  0  0  0  0
  1  2  1  1  0  0  0
  3  1  1  0  0  0  0
  4  6  1  0  0  0  0
  5  4  2  0  0  0  0
  6  3  1  0  0  0  0
  7 11  1  0  0  0  0
  7  6  2  0  0  0  0
  8 10  1  0  0  0  0
  9 10  2  0  0  0  0
  9  5  1  0  0  0  0
 10  7  1  0  0  0  0
 11 12  1  6  0  0  0
 13 18  1  0  0  0  0
 13 11  1  0  0  0  0
 15 14  1  0  0  0  0
 16 22  1  1  0  0  0
 16 20  1  0  0  0  0
 16 15  1  0  0  0  0
 19 14  1  0  0  0  0
 19 21  1  0  0  0  0
 20 19  1  0  0  0  0
 21 18  1  0  0  0  0
 21 17  2  0  0  0  0
 22 23  1  0  0  0  0
 23 25  1  0  0  0  0
 25 24  1  0  0  0  0
 26 25  1  0  0  0  0
 27 30  1  0  0  0  0
 28 29  1  0  0  0  0
 28 30  1  0  0  0  0
 29 30  1  0  0  0  0
 30 31  1  0  0  0  0
 31 32  1  0  0  0  0
 32 33  1  0  0  0  0
 33 34  1  0  0  0  0
 35 34  1  0  0  0  0
 35 43  1  0  0  0  0
 36 43  2  0  0  0  0
 36 42  1  0  0  0  0
 38 37  1  1  0  0  0
 38 48  1  0  0  0  0
 41 42  1  0  0  0  0
 41 46  1  1  0  0  0
 42 39  1  1  0  0  0
 44 40  1  6  0  0  0
 44 41  1  0  0  0  0
 45 47  1  6  0  0  0
 45 36  1  0  0  0  0
 48 45  1  0  0  0  0
 48 44  1  0  0  0  0
 49 38  1  0  0  0  0
 49 47  1  0  0  0  0
 50 51  2  0  0  0  0
 51 52  1  0  0  0  0
 51 49  1  0  0  0  0
M  END
>  <MODEL>
4

>  <REMARK>
 VINA RESULT:      -7.3      1.631      2.823
  Name = 
  17 active torsions:
  status: ('A' for Active; 'I' for Inactive)
    1  A    between atoms: O_1  and  C_8
    2  A    between atoms: O_1  and  C_26
    3  A    between atoms: O_7  and  C_9
    4  A    between atoms: O_7  and  C_23
    5  A    between atoms: C_8  and  N_40
    6  A    between atoms: C_9  and  C_12
    7  A    between atoms: C_10  and  C_31
    8  A    between atoms: C_10  and  C_39
    9  A    between atoms: C_16  and  C_18
   10  A    between atoms: C_16  and  N_35
   11  A    between atoms: C_18  and  C_28
   12  A    between atoms: C_20  and  C_39
   13  A    between atoms: C_20  and  C_43
   14  A    between atoms: C_29  and  C_31
   15  A    between atoms: C_34  and  C_48
   16  A    between atoms: N_40  and  C_44
   17  A    between atoms: C_43  and  C_44
                            x       y       z     vdW  Elec       q    Type
                         _______ _______ _______ _____ _____    ______ ____

>  <TORSDO>
F 17

$$$$
=
 OpenBabel10222417483D

 52 56  0  0  1  0  0  0  0  0999 V2000
  188.3750  177.0450  143.2610 C   0  0  2  0  0  3  0  0  0  0  0  0
  188.5450  175.7280  142.8290 O   0  0  0  0  0  1  0  0  0  0  0  0
  187.0350  177.4480  143.0030 O   0  0  0  0  0  0  0  0  0  0  0  0
  186.3820  177.5620  145.3530 C   0  0  0  0  0  3  0  0  0  0  0  0
  185.5090  178.0060  146.3450 C   0  0  0  0  0  3  0  0  0  0  0  0
  186.1510  177.8750  144.0040 C   0  0  0  0  0  0  0  0  0  0  0  0
  185.0190  178.6330  143.6510 C   0  0  0  0  0  0  0  0  0  0  0  0
  183.0400  179.8720  144.3500 O   0  0  0  0  0  1  0  0  0  0  0  0
  184.3960  178.7730  146.0000 C   0  0  0  0  0  3  0  0  0  0  0  0
  184.1480  179.0940  144.6640 C   0  0  0  0  0  0  0  0  0  0  0  0
  184.8000  178.9750  142.2010 C   0  0  1  0  0  3  0  0  0  0  0  0
  186.1110  179.1380  141.4540 C   0  0  0  0  0  1  0  0  0  0  0  0
  183.8980  177.9650  141.5000 C   0  0  0  0  0  2  0  0  0  0  0  0
  181.5390  177.6690  137.7940 C   0  0  0  0  0  2  0  0  0  0  0  0
  182.1670  176.5740  136.9520 C   0  0  0  0  0  2  0  0  0  0  0  0
  182.7650  175.5760  137.9340 C   0  0  2  0  0  3  0  0  0  0  0  0
  180.6650  179.0560  140.1440 O   0  0  0  0  0  0  0  0  0  0  0  0
  182.5400  178.4820  141.3840 N   0  0  0  0  0  2  0  0  0  0  0  0
  182.0580  177.4850  139.1340 N   0  0  0  0  0  0  0  0  0  0  0  0
  182.8260  176.2670  139.2860 C   0  0  0  0  0  2  0  0  0  0  0  0
  181.7130  178.3590  140.2190 C   0  0  0  0  0  0  0  0  0  0  0  0
  184.1410  175.1060  137.4850 C   0  0  0  0  0  2  0  0  0  0  0  0
  184.3040  173.7260  137.7180 O   0  0  0  0  0  0  0  0  0  0  0  0
  183.7180  171.4920  136.8850 C   0  0  0  0  0  1  0  0  0  0  0  0
  183.6280  173.0030  136.7080 C   0  0  0  0  0  3  0  0  0  0  0  0
  184.0090  173.4410  135.2990 C   0  0  0  0  0  1  0  0  0  0  0  0
  189.2930  177.9150  142.5370 N   0  0  0  0  0  2  0  0  0  0  0  0
  190.6530  177.9230  144.6900 C   0  0  0  0  0  2  0  0  0  0  0  0
  190.9140  179.1760  143.8680 C   0  0  0  0  0  2  0  0  0  0  0  0
  190.6040  177.8700  143.1760 C   0  0  0  0  0  0  0  0  0  0  0  0
  191.7920  177.3550  142.3840 C   0  0  0  0  0  2  0  0  0  0  0  0
  191.4050  177.0800  140.9460 C   0  0  0  0  0  2  0  0  0  0  0  0
  192.5070  177.5780  140.0370 C   0  0  0  0  0  2  0  0  0  0  0  0
  193.0580  176.4280  139.2210 C   0  0  0  0  0  2  0  0  0  0  0  0
  192.7830  176.6660  137.7490 C   0  0  0  0  0  2  0  0  0  0  0  0
  191.3080  174.9190  136.6780 C   0  0  0  0  0  0  0  0  0  0  0  0
  187.2820  176.3860  136.0520 O   0  0  0  0  0  1  0  0  0  0  0  0
  187.8130  175.9350  137.2700 C   0  0  1  0  0  3  0  0  0  0  0  0
  192.2370  172.7560  136.1880 O   0  0  0  0  0  1  0  0  0  0  0  0
  187.4920  173.1780  136.1250 O   0  0  0  0  0  1  0  0  0  0  0  0
  189.8630  172.9420  135.9190 C   0  0  1  0  0  3  0  0  0  0  0  0
  191.2290  173.6550  135.8360 C   0  0  1  0  0  3  0  0  0  0  0  0
  192.5210  175.3660  137.0570 C   0  0  0  0  0  3  0  0  0  0  0  0
  188.6650  173.8990  135.9010 C   0  0  2  0  0  3  0  0  0  0  0  0
  190.0550  175.7650  136.7240 C   0  0  2  0  0  3  0  0  0  0  0  0
  189.7520  172.0240  134.8720 O   0  0  0  0  0  1  0  0  0  0  0  0
  190.0350  176.8130  137.6600 O   0  0  0  0  0  0  0  0  0  0  0  0
  188.8710  174.9030  137.0250 C   0  0  1  0  0  3  0  0  0  0  0  0
  188.6620  177.0230  137.9430 C   0  0  1  0  0  3  0  0  0  0  0  0
  187.1030  178.8470  137.9790 O   0  0  0  0  0  1  0  0  0  0  0  0
  188.2360  178.4250  137.6250 C   0  0  0  0  0  0  0  0  0  0  0  0
  189.1170  179.2810  136.9770 O   0  0  0  0  0  0  0  0  0  0  0  0
  1  2  1  6  0  0  0
  3  1  1  0  0  0  0
  3  6  1  0  0  0  0
  4  5  1  0  0  0  0
  6  4  2  0  0  0  0
  7  6  1  0  0  0  0
  7 10  2  0  0  0  0
  8 10  1  0  0  0  0
  9  5  2  0  0  0  0
 10  9  1  0  0  0  0
 11 12  1  6  0  0  0
 11  7  1  0  0  0  0
 13 11  1  0  0  0  0
 14 19  1  0  0  0  0
 15 14  1  0  0  0  0
 15 16  1  0  0  0  0
 16 22  1  6  0  0  0
 16 20  1  0  0  0  0
 17 21  2  0  0  0  0
 18 13  1  0  0  0  0
 19 20  1  0  0  0  0
 19 21  1  0  0  0  0
 21 18  1  0  0  0  0
 22 23  1  0  0  0  0
 25 24  1  0  0  0  0
 25 23  1  0  0  0  0
 26 25  1  0  0  0  0
 27 30  1  0  0  0  0
 27  1  1  0  0  0  0
 29 28  1  0  0  0  0
 30 29  1  0  0  0  0
 30 28  1  0  0  0  0
 31 30  1  0  0  0  0
 32 31  1  0  0  0  0
 33 32  1  0  0  0  0
 34 33  1  0  0  0  0
 35 34  1  0  0  0  0
 36 43  2  0  0  0  0
 38 37  1  6  0  0  0
 38 49  1  0  0  0  0
 41 46  1  6  0  0  0
 42 41  1  0  0  0  0
 42 39  1  1  0  0  0
 42 36  1  0  0  0  0
 43 35  1  0  0  0  0
 44 41  1  0  0  0  0
 44 40  1  1  0  0  0
 44 48  1  0  0  0  0
 45 36  1  1  0  0  0
 45 48  1  0  0  0  0
 45 47  1  0  0  0  0
 47 49  1  0  0  0  0
 48 38  1  0  0  0  0
 51 49  1  0  0  0  0
 51 50  1  0  0  0  0
 52 51  2  0  0  0  0
M  END
>  <MODEL>
5

>  <REMARK>
 VINA RESULT:      -7.2      2.773      8.164
  Name = 
  17 active torsions:
  status: ('A' for Active; 'I' for Inactive)
    1  A    between atoms: O_1  and  C_8
    2  A    between atoms: O_1  and  C_26
    3  A    between atoms: O_7  and  C_9
    4  A    between atoms: O_7  and  C_23
    5  A    between atoms: C_8  and  N_40
    6  A    between atoms: C_9  and  C_12
    7  A    between atoms: C_10  and  C_31
    8  A    between atoms: C_10  and  C_39
    9  A    between atoms: C_16  and  C_18
   10  A    between atoms: C_16  and  N_35
   11  A    between atoms: C_18  and  C_28
   12  A    between atoms: C_20  and  C_39
   13  A    between atoms: C_20  and  C_43
   14  A    between atoms: C_29  and  C_31
   15  A    between atoms: C_34  and  C_48
   16  A    between atoms: N_40  and  C_44
   17  A    between atoms: C_43  and  C_44
                            x       y       z     vdW  Elec       q    Type
                         _______ _______ _______ _____ _____    ______ ____

>  <TORSDO>
F 17

$$$$
=
 OpenBabel10222417483D

 52 56  0  0  1  0  0  0  0  0999 V2000
  187.3010  177.8590  138.3470 C   0  0  2  0  0  3  0  0  0  0  0  0
  188.0390  178.6490  139.2300 O   0  0  0  0  0  1  0  0  0  0  0  0
  188.1310  177.4880  137.2520 O   0  0  0  0  0  0  0  0  0  0  0  0
  190.3790  176.8820  137.9880 C   0  0  0  0  0  3  0  0  0  0  0  0
  191.4010  175.9410  138.1010 C   0  0  0  0  0  3  0  0  0  0  0  0
  189.1700  176.5530  137.3540 C   0  0  0  0  0  0  0  0  0  0  0  0
  188.9970  175.2640  136.8150 C   0  0  0  0  0  0  0  0  0  0  0  0
  189.8770  173.0190  136.4580 O   0  0  0  0  0  1  0  0  0  0  0  0
  191.2250  174.6570  137.5860 C   0  0  0  0  0  3  0  0  0  0  0  0
  190.0310  174.3100  136.9500 C   0  0  0  0  0  0  0  0  0  0  0  0
  187.6860  174.9250  136.1560 C   0  0  1  0  0  3  0  0  0  0  0  0
  187.8530  174.6440  134.6750 C   0  0  0  0  0  1  0  0  0  0  0  0
  186.9730  173.7710  136.8510 C   0  0  0  0  0  2  0  0  0  0  0  0
  183.4950  171.0930  136.5030 C   0  0  0  0  0  2  0  0  0  0  0  0
  182.2810  171.8760  136.9670 C   0  0  0  0  0  2  0  0  0  0  0  0
  182.5600  173.3330  136.6240 C   0  0  2  0  0  3  0  0  0  0  0  0
  186.0340  170.5910  135.2750 O   0  0  0  0  0  0  0  0  0  0  0  0
  186.9710  172.5830  136.0070 N   0  0  0  0  0  2  0  0  0  0  0  0
  184.5270  172.0770  136.2480 N   0  0  0  0  0  0  0  0  0  0  0  0
  184.0470  173.4410  136.3300 C   0  0  0  0  0  2  0  0  0  0  0  0
  185.8470  171.7140  135.8170 C   0  0  0  0  0  0  0  0  0  0  0  0
  182.1460  174.2630  137.7550 C   0  0  0  0  0  2  0  0  0  0  0  0
  181.7140  175.5070  137.2520 O   0  0  0  0  0  0  0  0  0  0  0  0
  180.6390  177.5750  138.0230 C   0  0  0  0  0  1  0  0  0  0  0  0
  180.7630  176.0600  138.1390 C   0  0  0  0  0  3  0  0  0  0  0  0
  180.9530  175.6070  139.5820 C   0  0  0  0  0  1  0  0  0  0  0  0
  186.1570  178.6170  137.8570 N   0  0  0  0  0  2  0  0  0  0  0  0
  184.7880  176.8980  136.5700 C   0  0  0  0  0  2  0  0  0  0  0  0
  184.0200  178.1990  136.7410 C   0  0  0  0  0  2  0  0  0  0  0  0
  184.9870  177.7470  137.8090 C   0  0  0  0  0  0  0  0  0  0  0  0
  184.2760  177.3980  139.1050 C   0  0  0  0  0  2  0  0  0  0  0  0
  184.0440  178.6360  139.9450 C   0  0  0  0  0  2  0  0  0  0  0  0
  183.3870  178.2300  141.2460 C   0  0  0  0  0  2  0  0  0  0  0  0
  184.0190  178.9860  142.3960 C   0  0  0  0  0  2  0  0  0  0  0  0
  185.1780  178.1870  142.9600 C   0  0  0  0  0  2  0  0  0  0  0  0
  186.4000  178.2200  145.1680 C   0  0  0  0  0  0  0  0  0  0  0  0
  190.6720  177.7440  144.6430 O   0  0  0  0  0  1  0  0  0  0  0  0
  189.7180  176.7170  144.5980 C   0  0  1  0  0  3  0  0  0  0  0  0
  185.1300  178.4610  147.1960 O   0  0  0  0  0  1  0  0  0  0  0  0
  189.6390  176.9720  147.5890 O   0  0  0  0  0  1  0  0  0  0  0  0
  187.4470  177.9260  147.4900 C   0  0  1  0  0  3  0  0  0  0  0  0
  186.3920  178.6480  146.6280 C   0  0  1  0  0  3  0  0  0  0  0  0
  185.2860  178.4070  144.4350 C   0  0  0  0  0  3  0  0  0  0  0  0
  188.8030  177.7580  146.7940 C   0  0  2  0  0  3  0  0  0  0  0  0
  187.7610  177.9490  144.5650 C   0  0  2  0  0  3  0  0  0  0  0  0
  187.6140  178.6120  148.6950 O   0  0  0  0  0  1  0  0  0  0  0  0
  187.7790  177.3490  143.2950 O   0  0  0  0  0  0  0  0  0  0  0  0
  188.5480  177.0550  145.4690 C   0  0  1  0  0  3  0  0  0  0  0  0
  189.0190  176.6660  143.2320 C   0  0  1  0  0  3  0  0  0  0  0  0
  189.6390  178.2660  141.5540 O   0  0  0  0  0  0  0  0  0  0  0  0
  189.8620  177.1470  142.0880 C   0  0  0  0  0  0  0  0  0  0  0  0
  190.9280  176.3760  141.6470 O   0  0  0  0  0  1  0  0  0  0  0  0
  1  2  1  1  0  0  0
  3  6  1  0  0  0  0
  3  1  1  0  0  0  0
  4  5  1  0  0  0  0
  6  4  2  0  0  0  0
  7 10  2  0  0  0  0
  7  6  1  0  0  0  0
  8 10  1  0  0  0  0
  9  5  2  0  0  0  0
 10  9  1  0  0  0  0
 11 12  1  6  0  0  0
 11  7  1  0  0  0  0
 11 13  1  0  0  0  0
 14 15  1  0  0  0  0
 16 15  1  0  0  0  0
 16 22  1  1  0  0  0
 17 21  2  0  0  0  0
 18 13  1  0  0  0  0
 19 20  1  0  0  0  0
 19 14  1  0  0  0  0
 20 16  1  0  0  0  0
 21 18  1  0  0  0  0
 21 19  1  0  0  0  0
 23 22  1  0  0  0  0
 23 25  1  0  0  0  0
 24 25  1  0  0  0  0
 25 26  1  0  0  0  0
 27  1  1  0  0  0  0
 28 29  1  0  0  0  0
 28 30  1  0  0  0  0
 29 30  1  0  0  0  0
 30 27  1  0  0  0  0
 30 31  1  0  0  0  0
 31 32  1  0  0  0  0
 32 33  1  0  0  0  0
 33 34  1  0  0  0  0
 34 35  1  0  0  0  0
 35 43  1  0  0  0  0
 36 42  1  0  0  0  0
 38 37  1  6  0  0  0
 38 48  1  0  0  0  0
 41 46  1  1  0  0  0
 42 39  1  1  0  0  0
 42 41  1  0  0  0  0
 43 36  2  0  0  0  0
 44 41  1  0  0  0  0
 44 40  1  1  0  0  0
 45 47  1  6  0  0  0
 45 36  1  0  0  0  0
 45 48  1  0  0  0  0
 48 44  1  0  0  0  0
 49 47  1  0  0  0  0
 49 38  1  0  0  0  0
 50 51  2  0  0  0  0
 51 49  1  0  0  0  0
 52 51  1  0  0  0  0
M  END
>  <MODEL>
6

>  <REMARK>
 VINA RESULT:      -6.8      2.043      5.211
  Name = 
  17 active torsions:
  status: ('A' for Active; 'I' for Inactive)
    1  A    between atoms: O_1  and  C_8
    2  A    between atoms: O_1  and  C_26
    3  A    between atoms: O_7  and  C_9
    4  A    between atoms: O_7  and  C_23
    5  A    between atoms: C_8  and  N_40
    6  A    between atoms: C_9  and  C_12
    7  A    between atoms: C_10  and  C_31
    8  A    between atoms: C_10  and  C_39
    9  A    between atoms: C_16  and  C_18
   10  A    between atoms: C_16  and  N_35
   11  A    between atoms: C_18  and  C_28
   12  A    between atoms: C_20  and  C_39
   13  A    between atoms: C_20  and  C_43
   14  A    between atoms: C_29  and  C_31
   15  A    between atoms: C_34  and  C_48
   16  A    between atoms: N_40  and  C_44
   17  A    between atoms: C_43  and  C_44
                            x       y       z     vdW  Elec       q    Type
                         _______ _______ _______ _____ _____    ______ ____

>  <TORSDO>
F 17

$$$$
=
 OpenBabel10222417483D

 52 56  0  0  1  0  0  0  0  0999 V2000
  188.5180  177.0410  143.5130 C   0  0  2  0  0  3  0  0  0  0  0  0
  188.9220  175.7880  143.0480 O   0  0  0  0  0  1  0  0  0  0  0  0
  187.1430  177.2310  143.2000 O   0  0  0  0  0  0  0  0  0  0  0  0
  186.5140  177.9270  145.4540 C   0  0  0  0  0  3  0  0  0  0  0  0
  185.6010  178.5190  146.3260 C   0  0  0  0  0  3  0  0  0  0  0  0
  186.2230  177.8080  144.0860 C   0  0  0  0  0  0  0  0  0  0  0  0
  184.9900  178.2780  143.5950 C   0  0  0  0  0  0  0  0  0  0  0  0
  182.8660  179.3960  144.0220 O   0  0  0  0  0  1  0  0  0  0  0  0
  184.3870  179.0030  145.8390 C   0  0  0  0  0  3  0  0  0  0  0  0
  184.0780  178.8920  144.4820 C   0  0  0  0  0  0  0  0  0  0  0  0
  184.7050  178.1570  142.1210 C   0  0  1  0  0  3  0  0  0  0  0  0
  183.2390  177.8780  141.8490 C   0  0  0  0  0  1  0  0  0  0  0  0
  185.1800  179.3780  141.3410 C   0  0  0  0  0  2  0  0  0  0  0  0
  183.1750  178.1750  137.6100 C   0  0  0  0  0  2  0  0  0  0  0  0
  181.7620  178.7250  137.6650 C   0  0  0  0  0  2  0  0  0  0  0  0
  181.8390  180.0060  138.4850 C   0  0  2  0  0  3  0  0  0  0  0  0
  186.0090  178.0560  138.0170 O   0  0  0  0  0  0  0  0  0  0  0  0
  185.9100  178.9730  140.1460 N   0  0  0  0  0  2  0  0  0  0  0  0
  183.9210  178.8960  138.6210 N   0  0  0  0  0  0  0  0  0  0  0  0
  183.1750  179.9890  139.2090 C   0  0  0  0  0  2  0  0  0  0  0  0
  185.3040  178.6290  138.8930 C   0  0  0  0  0  0  0  0  0  0  0  0
  180.6770  180.1150  139.4620 C   0  0  0  0  0  2  0  0  0  0  0  0
  179.8600  178.9690  139.4030 O   0  0  0  0  0  0  0  0  0  0  0  0
  179.2580  176.9430  140.6520 C   0  0  0  0  0  1  0  0  0  0  0  0
  179.8300  178.3550  140.6760 C   0  0  0  0  0  3  0  0  0  0  0  0
  179.1770  179.2230  141.7450 C   0  0  0  0  0  1  0  0  0  0  0  0
  189.3130  178.0780  142.8680 N   0  0  0  0  0  2  0  0  0  0  0  0
  191.2430  176.6130  143.6500 C   0  0  0  0  0  2  0  0  0  0  0  0
  191.6180  178.0870  143.6870 C   0  0  0  0  0  2  0  0  0  0  0  0
  190.6620  177.5770  142.6350 C   0  0  0  0  0  0  0  0  0  0  0  0
  191.2530  177.6740  141.2390 C   0  0  0  0  0  2  0  0  0  0  0  0
  190.5650  176.7140  140.2920 C   0  0  0  0  0  2  0  0  0  0  0  0
  189.2040  177.2700  139.9340 C   0  0  0  0  0  2  0  0  0  0  0  0
  189.3620  178.4310  138.9740 C   0  0  0  0  0  2  0  0  0  0  0  0
  189.8050  177.9180  137.6180 C   0  0  0  0  0  2  0  0  0  0  0  0
  189.4000  175.5790  136.7590 C   0  0  0  0  0  0  0  0  0  0  0  0
  193.0430  173.2370  136.7100 O   0  0  0  0  0  1  0  0  0  0  0  0
  192.6740  174.2040  135.7640 C   0  0  1  0  0  3  0  0  0  0  0  0
  187.1810  174.9600  136.0720 O   0  0  0  0  0  1  0  0  0  0  0  0
  190.7680  172.1290  134.7270 O   0  0  0  0  0  1  0  0  0  0  0  0
  188.8990  173.3740  135.5500 C   0  0  1  0  0  3  0  0  0  0  0  0
  188.4000  174.4560  136.5300 C   0  0  1  0  0  3  0  0  0  0  0  0
  188.9460  176.7680  137.1970 C   0  0  0  0  0  3  0  0  0  0  0  0
  190.3740  173.0000  135.7430 C   0  0  2  0  0  3  0  0  0  0  0  0
  190.8550  175.1680  136.8200 C   0  0  2  0  0  3  0  0  0  0  0  0
  188.1010  172.2340  135.6680 O   0  0  0  0  0  1  0  0  0  0  0  0
  191.8030  176.2040  136.8140 O   0  0  0  0  0  0  0  0  0  0  0  0
  191.1820  174.2850  135.6580 C   0  0  1  0  0  3  0  0  0  0  0  0
  192.9760  175.6230  136.2700 C   0  0  1  0  0  3  0  0  0  0  0  0
  195.2960  175.4020  136.8440 O   0  0  0  0  0  0  0  0  0  0  0  0
  194.1330  175.7060  137.2210 C   0  0  0  0  0  0  0  0  0  0  0  0
  193.9280  176.1690  138.5130 O   0  0  0  0  0  1  0  0  0  0  0  0
  1  2  1  6  0  0  0
  3  1  1  0  0  0  0
  3  6  1  0  0  0  0
  4  5  1  0  0  0  0
  6  4  2  0  0  0  0
  7  6  1  0  0  0  0
  7 10  2  0  0  0  0
  8 10  1  0  0  0  0
  9  5  2  0  0  0  0
 10  9  1  0  0  0  0
 11 12  1  1  0  0  0
 11  7  1  0  0  0  0
 13 11  1  0  0  0  0
 14 15  1  0  0  0  0
 14 19  1  0  0  0  0
 15 16  1  0  0  0  0
 16 20  1  0  0  0  0
 16 22  1  1  0  0  0
 17 21  2  0  0  0  0
 18 13  1  0  0  0  0
 19 21  1  0  0  0  0
 19 20  1  0  0  0  0
 21 18  1  0  0  0  0
 23 22  1  0  0  0  0
 23 25  1  0  0  0  0
 24 25  1  0  0  0  0
 25 26  1  0  0  0  0
 27  1  1  0  0  0  0
 28 29  1  0  0  0  0
 30 27  1  0  0  0  0
 30 28  1  0  0  0  0
 30 29  1  0  0  0  0
 31 30  1  0  0  0  0
 32 31  1  0  0  0  0
 33 32  1  0  0  0  0
 34 33  1  0  0  0  0
 35 34  1  0  0  0  0
 36 43  2  0  0  0  0
 38 49  1  0  0  0  0
 38 37  1  1  0  0  0
 41 46  1  1  0  0  0
 41 44  1  0  0  0  0
 41 42  1  0  0  0  0
 42 39  1  6  0  0  0
 42 36  1  0  0  0  0
 43 35  1  0  0  0  0
 44 40  1  6  0  0  0
 45 36  1  6  0  0  0
 47 45  1  0  0  0  0
 48 44  1  0  0  0  0
 48 38  1  0  0  0  0
 48 45  1  0  0  0  0
 49 47  1  0  0  0  0
 49 51  1  0  0  0  0
 50 51  2  0  0  0  0
 51 52  1  0  0  0  0
M  END
>  <MODEL>
7

>  <REMARK>
 VINA RESULT:      -6.8      3.153      8.584
  Name = 
  17 active torsions:
  status: ('A' for Active; 'I' for Inactive)
    1  A    between atoms: O_1  and  C_8
    2  A    between atoms: O_1  and  C_26
    3  A    between atoms: O_7  and  C_9
    4  A    between atoms: O_7  and  C_23
    5  A    between atoms: C_8  and  N_40
    6  A    between atoms: C_9  and  C_12
    7  A    between atoms: C_10  and  C_31
    8  A    between atoms: C_10  and  C_39
    9  A    between atoms: C_16  and  C_18
   10  A    between atoms: C_16  and  N_35
   11  A    between atoms: C_18  and  C_28
   12  A    between atoms: C_20  and  C_39
   13  A    between atoms: C_20  and  C_43
   14  A    between atoms: C_29  and  C_31
   15  A    between atoms: C_34  and  C_48
   16  A    between atoms: N_40  and  C_44
   17  A    between atoms: C_43  and  C_44
                            x       y       z     vdW  Elec       q    Type
                         _______ _______ _______ _____ _____    ______ ____

>  <TORSDO>
F 17

$$$$
=
 OpenBabel10222417483D

 52 56  0  0  1  0  0  0  0  0999 V2000
  186.0270  177.8840  137.4520 C   0  0  2  0  0  3  0  0  0  0  0  0
  185.1870  178.2850  138.4920 O   0  0  0  0  0  1  0  0  0  0  0  0
  185.3120  177.0100  136.5860 O   0  0  0  0  0  0  0  0  0  0  0  0
  186.2440  174.8010  137.0500 C   0  0  0  0  0  3  0  0  0  0  0  0
  186.0630  173.4460  137.3230 C   0  0  0  0  0  3  0  0  0  0  0  0
  185.1390  175.6430  136.8420 C   0  0  0  0  0  0  0  0  0  0  0  0
  183.8380  175.1070  136.8940 C   0  0  0  0  0  0  0  0  0  0  0  0
  182.3900  173.1840  137.2790 O   0  0  0  0  0  1  0  0  0  0  0  0
  184.7740  172.9160  137.3940 C   0  0  0  0  0  3  0  0  0  0  0  0
  183.6630  173.7360  137.1870 C   0  0  0  0  0  0  0  0  0  0  0  0
  182.6670  176.0300  136.6870 C   0  0  1  0  0  3  0  0  0  0  0  0
  181.5500  175.3610  135.9080 C   0  0  0  0  0  1  0  0  0  0  0  0
  182.1460  176.6040  138.0000 C   0  0  0  0  0  2  0  0  0  0  0  0
  179.7600  177.5830  141.5680 C   0  0  0  0  0  2  0  0  0  0  0  0
  179.5460  179.0850  141.5630 C   0  0  0  0  0  2  0  0  0  0  0  0
  179.5210  179.5040  140.0990 C   0  0  2  0  0  3  0  0  0  0  0  0
  180.0780  174.9310  140.5310 O   0  0  0  0  0  0  0  0  0  0  0  0
  181.3500  175.6140  138.7150 N   0  0  0  0  0  2  0  0  0  0  0  0
  180.1820  177.2390  140.2260 N   0  0  0  0  0  0  0  0  0  0  0  0
  180.0930  178.3470  139.2980 C   0  0  0  0  0  2  0  0  0  0  0  0
  180.5140  175.8960  139.8450 C   0  0  0  0  0  0  0  0  0  0  0  0
  180.3100  180.7850  139.8710 C   0  0  0  0  0  2  0  0  0  0  0  0
  179.7360  181.5540  138.8400 O   0  0  0  0  0  0  0  0  0  0  0  0
  180.6780  183.3530  137.4600 C   0  0  0  0  0  1  0  0  0  0  0  0
  180.7370  181.8950  137.9030 C   0  0  0  0  0  3  0  0  0  0  0  0
  180.8050  180.9360  136.7200 C   0  0  0  0  0  1  0  0  0  0  0  0
  187.1820  177.1860  138.0030 N   0  0  0  0  0  2  0  0  0  0  0  0
  188.6180  178.5830  136.4310 C   0  0  0  0  0  2  0  0  0  0  0  0
  189.3480  177.3230  136.8730 C   0  0  0  0  0  2  0  0  0  0  0  0
  188.3760  178.0010  137.8100 C   0  0  0  0  0  0  0  0  0  0  0  0
  189.0750  178.5830  139.0250 C   0  0  0  0  0  2  0  0  0  0  0  0
  188.7500  177.7850  140.2700 C   0  0  0  0  0  2  0  0  0  0  0  0
  189.8530  176.7780  140.5100 C   0  0  0  0  0  2  0  0  0  0  0  0
  190.0190  176.5440  141.9970 C   0  0  0  0  0  2  0  0  0  0  0  0
  188.6860  176.7250  142.6960 C   0  0  0  0  0  2  0  0  0  0  0  0
  188.0170  177.3380  145.0520 C   0  0  0  0  0  0  0  0  0  0  0  0
  183.8730  178.5760  145.2700 O   0  0  0  0  0  1  0  0  0  0  0  0
  184.9430  179.3610  144.8170 C   0  0  1  0  0  3  0  0  0  0  0  0
  189.6640  177.2090  146.7990 O   0  0  0  0  0  1  0  0  0  0  0  0
  185.6680  179.6350  147.7180 O   0  0  0  0  0  1  0  0  0  0  0  0
  187.5940  178.2510  147.4100 C   0  0  1  0  0  3  0  0  0  0  0  0
  188.2920  177.1850  146.5400 C   0  0  1  0  0  3  0  0  0  0  0  0
  188.8870  176.7990  144.1760 C   0  0  0  0  0  3  0  0  0  0  0  0
  186.1590  178.5650  146.9690 C   0  0  2  0  0  3  0  0  0  0  0  0
  186.6160  177.7700  144.6770 C   0  0  2  0  0  3  0  0  0  0  0  0
  187.6010  177.8400  148.7450 O   0  0  0  0  0  1  0  0  0  0  0  0
  186.4030  178.1240  143.3350 O   0  0  0  0  0  0  0  0  0  0  0  0
  186.2130  178.9520  145.4990 C   0  0  1  0  0  3  0  0  0  0  0  0
  185.3070  179.0230  143.3640 C   0  0  1  0  0  3  0  0  0  0  0  0
  184.2810  177.5020  141.8170 O   0  0  0  0  0  0  0  0  0  0  0  0
  184.1570  178.5280  142.5380 C   0  0  0  0  0  0  0  0  0  0  0  0
  182.9320  179.1760  142.6080 O   0  0  0  0  0  1  0  0  0  0  0  0
  1 27  1  0  0  0  0
  1  2  1  1  0  0  0
  3  6  1  0  0  0  0
  3  1  1  0  0  0  0
  4  5  1  0  0  0  0
  5  9  2  0  0  0  0
  6  7  1  0  0  0  0
  6  4  2  0  0  0  0
  7 10  2  0  0  0  0
 10  8  1  0  0  0  0
 10  9  1  0  0  0  0
 11 12  1  1  0  0  0
 11  7  1  0  0  0  0
 11 13  1  0  0  0  0
 13 18  1  0  0  0  0
 15 14  1  0  0  0  0
 16 22  1  1  0  0  0
 16 15  1  0  0  0  0
 18 21  1  0  0  0  0
 19 14  1  0  0  0  0
 20 16  1  0  0  0  0
 20 19  1  0  0  0  0
 21 19  1  0  0  0  0
 21 17  2  0  0  0  0
 23 22  1  0  0  0  0
 24 25  1  0  0  0  0
 25 23  1  0  0  0  0
 26 25  1  0  0  0  0
 28 29  1  0  0  0  0
 28 30  1  0  0  0  0
 29 30  1  0  0  0  0
 30 27  1  0  0  0  0
 30 31  1  0  0  0  0
 31 32  1  0  0  0  0
 32 33  1  0  0  0  0
 33 34  1  0  0  0  0
 34 35  1  0  0  0  0
 35 43  1  0  0  0  0
 36 42  1  0  0  0  0
 38 37  1  1  0  0  0
 38 48  1  0  0  0  0
 41 46  1  1  0  0  0
 42 39  1  6  0  0  0
 42 41  1  0  0  0  0
 43 36  2  0  0  0  0
 44 41  1  0  0  0  0
 44 40  1  1  0  0  0
 45 47  1  6  0  0  0
 45 36  1  0  0  0  0
 45 48  1  0  0  0  0
 47 49  1  0  0  0  0
 48 44  1  0  0  0  0
 49 38  1  0  0  0  0
 50 51  2  0  0  0  0
 51 52  1  0  0  0  0
 51 49  1  0  0  0  0
M  END
>  <MODEL>
8

>  <REMARK>
 VINA RESULT:      -6.7      2.264      5.910
  Name = 
  17 active torsions:
  status: ('A' for Active; 'I' for Inactive)
    1  A    between atoms: O_1  and  C_8
    2  A    between atoms: O_1  and  C_26
    3  A    between atoms: O_7  and  C_9
    4  A    between atoms: O_7  and  C_23
    5  A    between atoms: C_8  and  N_40
    6  A    between atoms: C_9  and  C_12
    7  A    between atoms: C_10  and  C_31
    8  A    between atoms: C_10  and  C_39
    9  A    between atoms: C_16  and  C_18
   10  A    between atoms: C_16  and  N_35
   11  A    between atoms: C_18  and  C_28
   12  A    between atoms: C_20  and  C_39
   13  A    between atoms: C_20  and  C_43
   14  A    between atoms: C_29  and  C_31
   15  A    between atoms: C_34  and  C_48
   16  A    between atoms: N_40  and  C_44
   17  A    between atoms: C_43  and  C_44
                            x       y       z     vdW  Elec       q    Type
                         _______ _______ _______ _____ _____    ______ ____

>  <TORSDO>
F 17

$$$$
=
 OpenBabel10222417483D

 52 56  0  0  1  0  0  0  0  0999 V2000
  185.2460  178.5650  142.8600 C   0  0  2  0  0  3  0  0  0  0  0  0
  185.1920  179.9590  142.8420 O   0  0  0  0  0  1  0  0  0  0  0  0
  184.1290  178.0470  142.1460 O   0  0  0  0  0  0  0  0  0  0  0  0
  182.2730  178.8740  143.5000 C   0  0  0  0  0  3  0  0  0  0  0  0
  180.9930  179.4190  143.5930 C   0  0  0  0  0  3  0  0  0  0  0  0
  182.8360  178.5770  142.2490 C   0  0  0  0  0  0  0  0  0  0  0  0
  182.0920  178.8200  141.0780 C   0  0  0  0  0  0  0  0  0  0  0  0
  180.0570  179.6700  140.0400 O   0  0  0  0  0  1  0  0  0  0  0  0
  180.2610  179.6780  142.4330 C   0  0  0  0  0  3  0  0  0  0  0  0
  180.8030  179.3880  141.1790 C   0  0  0  0  0  0  0  0  0  0  0  0
  182.7220  178.5130  139.7450 C   0  0  1  0  0  3  0  0  0  0  0  0
  183.9420  179.3760  139.4830 C   0  0  0  0  0  1  0  0  0  0  0  0
  183.0590  177.0340  139.5930 C   0  0  0  0  0  2  0  0  0  0  0  0
  181.8840  174.1750  136.4570 C   0  0  0  0  0  2  0  0  0  0  0  0
  183.1270  173.8720  135.6420 C   0  0  0  0  0  2  0  0  0  0  0  0
  184.3040  174.0000  136.6010 C   0  0  2  0  0  3  0  0  0  0  0  0
  180.2850  174.7790  138.7560 O   0  0  0  0  0  0  0  0  0  0  0  0
  181.8530  176.2190  139.6780 N   0  0  0  0  0  2  0  0  0  0  0  0
  182.3550  174.7790  137.6870 N   0  0  0  0  0  0  0  0  0  0  0  0
  183.7950  174.7360  137.8290 C   0  0  0  0  0  2  0  0  0  0  0  0
  181.4590  175.2360  138.7120 C   0  0  0  0  0  0  0  0  0  0  0  0
  185.4720  174.7310  135.9560 C   0  0  0  0  0  2  0  0  0  0  0  0
  186.2880  173.8390  135.2330 O   0  0  0  0  0  0  0  0  0  0  0  0
  187.8720  172.9100  136.8620 C   0  0  0  0  0  1  0  0  0  0  0  0
  186.5960  172.7270  136.0490 C   0  0  0  0  0  3  0  0  0  0  0  0
  186.5820  171.4040  135.2920 C   0  0  0  0  0  1  0  0  0  0  0  0
  185.2030  178.0950  144.2390 N   0  0  0  0  0  2  0  0  0  0  0  0
  186.7110  177.1230  146.0460 C   0  0  0  0  0  2  0  0  0  0  0  0
  187.1860  178.5030  145.6140 C   0  0  0  0  0  2  0  0  0  0  0  0
  186.5170  177.5860  144.6160 C   0  0  0  0  0  0  0  0  0  0  0  0
  187.4760  177.1420  143.5260 C   0  0  0  0  0  2  0  0  0  0  0  0
  188.8320  176.7980  144.1060 C   0  0  0  0  0  2  0  0  0  0  0  0
  189.6490  176.0840  143.0520 C   0  0  0  0  0  2  0  0  0  0  0  0
  190.8840  176.8970  142.7230 C   0  0  0  0  0  2  0  0  0  0  0  0
  190.9660  177.1220  141.2260 C   0  0  0  0  0  2  0  0  0  0  0  0
  189.2300  177.3360  139.4060 C   0  0  0  0  0  0  0  0  0  0  0  0
  190.4140  175.2420  135.8050 O   0  0  0  0  0  1  0  0  0  0  0  0
  190.8840  176.4970  136.2190 C   0  0  1  0  0  3  0  0  0  0  0  0
  187.2490  178.6290  139.8360 O   0  0  0  0  0  1  0  0  0  0  0  0
  188.2220  177.5390  135.3010 O   0  0  0  0  0  1  0  0  0  0  0  0
  187.5500  177.9330  137.5630 C   0  0  1  0  0  3  0  0  0  0  0  0
  187.7740  177.6000  139.0530 C   0  0  1  0  0  3  0  0  0  0  0  0
  189.6200  177.4880  140.6860 C   0  0  0  0  0  3  0  0  0  0  0  0
  188.3810  177.0700  136.6060 C   0  0  2  0  0  3  0  0  0  0  0  0
  190.0380  176.5850  138.3710 C   0  0  2  0  0  3  0  0  0  0  0  0
  186.1930  177.8100  137.2560 O   0  0  0  0  0  1  0  0  0  0  0  0
  191.4250  176.5200  138.5790 O   0  0  0  0  0  0  0  0  0  0  0  0
  189.8370  177.2040  137.0240 C   0  0  1  0  0  3  0  0  0  0  0  0
  191.9810  176.3570  137.2850 C   0  0  1  0  0  3  0  0  0  0  0  0
  192.5750  174.1340  137.9640 O   0  0  0  0  0  1  0  0  0  0  0  0
  192.7870  175.0970  137.1800 C   0  0  0  0  0  0  0  0  0  0  0  0
  193.7410  174.9730  136.1800 O   0  0  0  0  0  0  0  0  0  0  0  0
  1  2  1  1  0  0  0
  1 27  1  0  0  0  0
  3  6  1  0  0  0  0
  3  1  1  0  0  0  0
  4  5  1  0  0  0  0
  6  4  2  0  0  0  0
  7 10  2  0  0  0  0
  7  6  1  0  0  0  0
  8 10  1  0  0  0  0
  9  5  2  0  0  0  0
 10  9  1  0  0  0  0
 11 12  1  1  0  0  0
 11  7  1  0  0  0  0
 13 18  1  0  0  0  0
 13 11  1  0  0  0  0
 14 19  1  0  0  0  0
 15 14  1  0  0  0  0
 15 16  1  0  0  0  0
 16 22  1  6  0  0  0
 16 20  1  0  0  0  0
 19 20  1  0  0  0  0
 19 21  1  0  0  0  0
 21 17  2  0  0  0  0
 21 18  1  0  0  0  0
 23 22  1  0  0  0  0
 23 25  1  0  0  0  0
 25 24  1  0  0  0  0
 26 25  1  0  0  0  0
 27 30  1  0  0  0  0
 29 28  1  0  0  0  0
 30 29  1  0  0  0  0
 30 28  1  0  0  0  0
 31 32  1  0  0  0  0
 31 30  1  0  0  0  0
 33 32  1  0  0  0  0
 34 33  1  0  0  0  0
 35 34  1  0  0  0  0
 36 43  2  0  0  0  0
 38 37  1  1  0  0  0
 38 48  1  0  0  0  0
 38 49  1  0  0  0  0
 41 46  1  6  0  0  0
 41 42  1  0  0  0  0
 42 36  1  0  0  0  0
 42 39  1  1  0  0  0
 43 35  1  0  0  0  0
 44 40  1  6  0  0  0
 44 48  1  0  0  0  0
 44 41  1  0  0  0  0
 45 47  1  1  0  0  0
 45 36  1  0  0  0  0
 48 45  1  0  0  0  0
 49 47  1  0  0  0  0
 51 49  1  0  0  0  0
 51 50  1  0  0  0  0
 52 51  2  0  0  0  0
M  END
>  <MODEL>
9

>  <REMARK>
 VINA RESULT:      -6.7      2.829      6.095
  Name = 
  17 active torsions:
  status: ('A' for Active; 'I' for Inactive)
    1  A    between atoms: O_1  and  C_8
    2  A    between atoms: O_1  and  C_26
    3  A    between atoms: O_7  and  C_9
    4  A    between atoms: O_7  and  C_23
    5  A    between atoms: C_8  and  N_40
    6  A    between atoms: C_9  and  C_12
    7  A    between atoms: C_10  and  C_31
    8  A    between atoms: C_10  and  C_39
    9  A    between atoms: C_16  and  C_18
   10  A    between atoms: C_16  and  N_35
   11  A    between atoms: C_18  and  C_28
   12  A    between atoms: C_20  and  C_39
   13  A    between atoms: C_20  and  C_43
   14  A    between atoms: C_29  and  C_31
   15  A    between atoms: C_34  and  C_48
   16  A    between atoms: N_40  and  C_44
   17  A    between atoms: C_43  and  C_44
                            x       y       z     vdW  Elec       q    Type
                         _______ _______ _______ _____ _____    ______ ____

>  <TORSDO>
F 17

$$$$
