=
 OpenBabel10222420203D

 27 30  0  0  1  0  0  0  0  0999 V2000
  187.7570  177.0750  144.7810 C   0  0  2  0  0  3  0  0  0  0  0  0
  186.4790  177.4050  142.7030 C   0  0  0  0  0  2  0  0  0  0  0  0
  185.3880  178.1150  143.4510 C   0  0  0  0  0  0  0  0  0  0  0  0
  187.8040  177.6710  143.3750 C   0  0  0  0  0  2  0  0  0  0  0  0
  186.5880  177.5660  145.6630 C   0  0  2  0  0  3  0  0  0  0  0  0
  185.3700  178.0500  144.9680 C   0  0  1  0  0  3  0  0  0  0  0  0
  186.3540  179.0100  145.5040 N   0  0  0  0  0  2  0  0  0  0  0  0
  184.4250  178.8050  142.7860 C   0  0  0  0  0  0  0  0  0  0  0  0
  183.3270  179.4960  143.5760 C   0  0  1  0  0  3  0  0  0  0  0  0
  182.0800  179.0780  143.1240 C   0  0  0  0  0  0  0  0  0  0  0  0
  180.8900  179.0450  142.0090 S   0  0  0  0  0  0  0  0  0  0  0  0
  182.6750  178.6340  144.4640 N   0  0  0  0  0  2  0  0  0  0  0  0
  184.9690  179.7490  140.6620 O   0  0  0  0  0  0  0  0  0  0  0  0
  183.7160  177.7980  140.5760 N   0  0  0  0  0  1  0  0  0  0  0  0
  184.3930  178.8240  141.2980 C   0  0  0  0  0  0  0  0  0  0  0  0
  189.0980  177.1560  145.5280 C   0  0  2  0  0  3  0  0  0  0  0  0
  190.0190  177.3980  147.7860 N   0  0  0  0  0  2  0  0  0  0  0  0
  189.0260  177.9330  146.8430 C   0  0  2  0  0  3  0  0  0  0  0  0
  188.5970  177.0530  147.9270 C   0  0  2  0  0  3  0  0  0  0  0  0
  188.0350  177.8210  148.9460 O   0  0  0  0  0  1  0  0  0  0  0  0
  190.4520  178.8630  144.6360 O   0  0  0  0  0  0  0  0  0  0  0  0
  190.2140  177.6630  144.6580 C   0  0  0  0  0  0  0  0  0  0  0  0
  191.7900  177.5750  142.5160 C   0  0  0  0  0  2  0  0  0  0  0  0
  191.1660  176.5710  143.6140 S   0  0  0  0  0  0  0  0  0  0  0  0
  191.5230  177.3540  141.0660 C   0  0  0  0  0  2  0  0  0  0  0  0
  190.2540  176.6660  140.9070 N   0  0  0  0  0  2  0  0  0  0  0  0
  189.4420  177.4880  140.0270 C   0  0  0  0  0  1  0  0  0  0  0  0
  1 16  1  1  0  0  0
  1  5  1  0  0  0  0
  2  4  1  0  0  0  0
  2  3  1  0  0  0  0
  4  1  1  0  0  0  0
  5  7  1  6  0  0  0
  6  3  1  6  0  0  0
  6  7  1  0  0  0  0
  6  5  1  0  0  0  0
  8  3  2  0  0  0  0
  9  8  1  6  0  0  0
  9 12  1  0  0  0  0
 10  9  1  0  0  0  0
 10 12  1  0  0  0  0
 11 10  2  0  0  0  0
 13 15  2  0  0  0  0
 14 15  1  0  0  0  0
 15  8  1  0  0  0  0
 16 22  1  6  0  0  0
 17 19  1  0  0  0  0
 18 16  1  6  0  0  0
 18 17  1  0  0  0  0
 18 19  1  0  0  0  0
 19 20  1  1  0  0  0
 21 22  2  0  0  0  0
 23 24  1  0  0  0  0
 24 22  1  0  0  0  0
 25 23  1  0  0  0  0
 26 25  1  0  0  0  0
 27 26  1  0  0  0  0
M  END
>  <MODEL>
1

>  <REMARK>
 VINA RESULT:      -7.4      0.000      0.000
  Name = 
  8 active torsions:
  status: ('A' for Active; 'I' for Inactive)
    1  A    between atoms: C_1  and  C_24
    2  A    between atoms: C_2  and  C_17
    3  A    between atoms: C_3  and  C_10
    4  A    between atoms: C_10  and  CA_16
    5  A    between atoms: C_10  and  C_25
    6  A    between atoms: S_13  and  C_25
    7  A    between atoms: N_14  and  C_17
    8  A    between atoms: C_24  and  C_27
                            x       y       z     vdW  Elec       q    Type
                         _______ _______ _______ _____ _____    ______ ____

>  <TORSDO>
F 8

$$$$
=
 OpenBabel10222420203D

 27 30  0  0  1  0  0  0  0  0999 V2000
  189.4050  178.1320  143.2090 C   0  0  2  0  0  3  0  0  0  0  0  0
  188.7190  178.6910  140.9110 C   0  0  0  0  0  2  0  0  0  0  0  0
  189.6580  177.6640  140.3490 C   0  0  0  0  0  0  0  0  0  0  0  0
  188.2140  178.2280  142.2560 C   0  0  0  0  0  2  0  0  0  0  0  0
  190.5640  177.2370  142.7210 C   0  0  2  0  0  3  0  0  0  0  0  0
  190.7070  177.0470  141.2570 C   0  0  1  0  0  3  0  0  0  0  0  0
  190.0730  176.0040  142.0860 N   0  0  0  0  0  2  0  0  0  0  0  0
  189.5790  177.2910  139.0450 C   0  0  0  0  0  0  0  0  0  0  0  0
  190.5570  176.2620  138.5060 C   0  0  1  0  0  3  0  0  0  0  0  0
  189.9850  175.5690  137.4460 C   0  0  0  0  0  0  0  0  0  0  0  0
  188.9260  174.4860  136.8380 S   0  0  0  0  0  0  0  0  0  0  0  0
  191.0850  176.6180  137.2610 N   0  0  0  0  0  2  0  0  0  0  0  0
  187.4480  177.4390  137.9780 O   0  0  0  0  0  0  0  0  0  0  0  0
  188.9480  179.1170  137.4110 N   0  0  0  0  0  1  0  0  0  0  0  0
  188.5990  177.9340  138.1280 C   0  0  0  0  0  0  0  0  0  0  0  0
  189.0080  177.8000  144.6570 C   0  0  2  0  0  3  0  0  0  0  0  0
  189.7340  176.8370  146.7900 N   0  0  0  0  0  2  0  0  0  0  0  0
  189.9330  176.7900  145.3340 C   0  0  2  0  0  3  0  0  0  0  0  0
  190.9050  177.4810  146.1770 C   0  0  2  0  0  3  0  0  0  0  0  0
  192.0220  176.6650  146.3520 O   0  0  0  0  0  1  0  0  0  0  0  0
  187.1960  176.3590  144.2310 O   0  0  0  0  0  0  0  0  0  0  0  0
  187.5680  177.3870  144.7800 C   0  0  0  0  0  0  0  0  0  0  0  0
  185.0340  178.1970  144.7820 C   0  0  0  0  0  2  0  0  0  0  0  0
  186.3740  178.3810  145.6620 S   0  0  0  0  0  0  0  0  0  0  0  0
  184.3490  179.3910  144.2100 C   0  0  0  0  0  2  0  0  0  0  0  0
  183.5820  178.9960  143.0410 N   0  0  0  0  0  2  0  0  0  0  0  0
  184.4790  178.2280  142.1950 C   0  0  0  0  0  1  0  0  0  0  0  0
  1 16  1  1  0  0  0
  2  4  1  0  0  0  0
  3  2  1  0  0  0  0
  4  1  1  0  0  0  0
  5  7  1  1  0  0  0
  5  1  1  0  0  0  0
  6  3  1  6  0  0  0
  6  7  1  0  0  0  0
  6  5  1  0  0  0  0
  8  3  2  0  0  0  0
  9  8  1  6  0  0  0
 10  9  1  0  0  0  0
 11 10  2  0  0  0  0
 12 10  1  0  0  0  0
 12  9  1  0  0  0  0
 13 15  2  0  0  0  0
 14 15  1  0  0  0  0
 15  8  1  0  0  0  0
 16 22  1  6  0  0  0
 18 16  1  6  0  0  0
 18 19  1  0  0  0  0
 18 17  1  0  0  0  0
 19 20  1  1  0  0  0
 19 17  1  0  0  0  0
 21 22  2  0  0  0  0
 22 24  1  0  0  0  0
 23 24  1  0  0  0  0
 25 23  1  0  0  0  0
 26 25  1  0  0  0  0
 27 26  1  0  0  0  0
M  END
>  <MODEL>
2

>  <REMARK>
 VINA RESULT:      -7.3      2.791      6.107
  Name = 
  8 active torsions:
  status: ('A' for Active; 'I' for Inactive)
    1  A    between atoms: C_1  and  C_24
    2  A    between atoms: C_2  and  C_17
    3  A    between atoms: C_3  and  C_10
    4  A    between atoms: C_10  and  CA_16
    5  A    between atoms: C_10  and  C_25
    6  A    between atoms: S_13  and  C_25
    7  A    between atoms: N_14  and  C_17
    8  A    between atoms: C_24  and  C_27
                            x       y       z     vdW  Elec       q    Type
                         _______ _______ _______ _____ _____    ______ ____

>  <TORSDO>
F 8

$$$$
=
 OpenBabel10222420203D

 27 30  0  0  1  0  0  0  0  0999 V2000
  186.0780  177.5680  143.3560 C   0  0  2  0  0  3  0  0  0  0  0  0
  186.8930  177.1330  145.6380 C   0  0  0  0  0  2  0  0  0  0  0  0
  188.3190  177.2170  145.1770 C   0  0  0  0  0  0  0  0  0  0  0  0
  186.0400  178.0570  144.8030 C   0  0  0  0  0  2  0  0  0  0  0  0
  187.4900  177.4280  142.7480 C   0  0  2  0  0  3  0  0  0  0  0  0
  188.6160  177.2030  143.6880 C   0  0  1  0  0  3  0  0  0  0  0  0
  188.3650  178.5470  143.1340 N   0  0  0  0  0  2  0  0  0  0  0  0
  189.3350  177.2990  146.0750 C   0  0  0  0  0  0  0  0  0  0  0  0
  190.7670  177.3640  145.5720 C   0  0  1  0  0  3  0  0  0  0  0  0
  191.5430  176.4100  146.2210 C   0  0  0  0  0  0  0  0  0  0  0  0
  192.3140  175.8350  147.5380 S   0  0  0  0  0  0  0  0  0  0  0  0
  191.1050  176.2770  144.7590 N   0  0  0  0  0  2  0  0  0  0  0  0
  188.6500  176.1830  148.0710 O   0  0  0  0  0  0  0  0  0  0  0  0
  189.2720  178.4010  148.3520 N   0  0  0  0  0  1  0  0  0  0  0  0
  189.0640  177.2490  147.5370 C   0  0  0  0  0  0  0  0  0  0  0  0
  185.1370  178.3440  142.4200 C   0  0  2  0  0  3  0  0  0  0  0  0
  184.8710  179.5660  140.3120 N   0  0  0  0  0  2  0  0  0  0  0  0
  185.8570  179.0700  141.2840 C   0  0  2  0  0  3  0  0  0  0  0  0
  185.6590  178.3590  140.0240 C   0  0  2  0  0  3  0  0  0  0  0  0
  186.6930  178.6830  139.1470 O   0  0  0  0  0  1  0  0  0  0  0  0
  184.6760  180.3090  143.6310 O   0  0  0  0  0  0  0  0  0  0  0  0
  184.2210  179.2750  143.1650 C   0  0  0  0  0  0  0  0  0  0  0  0
  181.9530  178.6160  141.9390 C   0  0  0  0  0  2  0  0  0  0  0  0
  182.4980  178.8860  143.4330 S   0  0  0  0  0  0  0  0  0  0  0  0
  180.8170  179.4190  141.4030 C   0  0  0  0  0  2  0  0  0  0  0  0
  180.2960  180.2790  142.4500 N   0  0  0  0  0  2  0  0  0  0  0  0
  179.1400  180.9590  141.8930 C   0  0  0  0  0  1  0  0  0  0  0  0
  1 16  1  6  0  0  0
  1  4  1  0  0  0  0
  3  2  1  0  0  0  0
  3  8  2  0  0  0  0
  4  2  1  0  0  0  0
  5  7  1  1  0  0  0
  5  1  1  0  0  0  0
  5  6  1  0  0  0  0
  6  7  1  1  0  0  0
  6  3  1  0  0  0  0
  8 15  1  0  0  0  0
  9  8  1  1  0  0  0
  9 10  1  0  0  0  0
 10 11  2  0  0  0  0
 12  9  1  0  0  0  0
 12 10  1  0  0  0  0
 15 13  2  0  0  0  0
 15 14  1  0  0  0  0
 16 22  1  1  0  0  0
 17 18  1  0  0  0  0
 18 16  1  1  0  0  0
 19 20  1  6  0  0  0
 19 17  1  0  0  0  0
 19 18  1  0  0  0  0
 22 24  1  0  0  0  0
 22 21  2  0  0  0  0
 23 24  1  0  0  0  0
 25 23  1  0  0  0  0
 25 26  1  0  0  0  0
 27 26  1  0  0  0  0
M  END
>  <MODEL>
3

>  <REMARK>
 VINA RESULT:      -7.2      2.304      7.920
  Name = 
  8 active torsions:
  status: ('A' for Active; 'I' for Inactive)
    1  A    between atoms: C_1  and  C_24
    2  A    between atoms: C_2  and  C_17
    3  A    between atoms: C_3  and  C_10
    4  A    between atoms: C_10  and  CA_16
    5  A    between atoms: C_10  and  C_25
    6  A    between atoms: S_13  and  C_25
    7  A    between atoms: N_14  and  C_17
    8  A    between atoms: C_24  and  C_27
                            x       y       z     vdW  Elec       q    Type
                         _______ _______ _______ _____ _____    ______ ____

>  <TORSDO>
F 8

$$$$
=
 OpenBabel10222420203D

 27 30  0  0  1  0  0  0  0  0999 V2000
  185.8050  178.4510  144.1820 C   0  0  2  0  0  3  0  0  0  0  0  0
  183.4660  179.1950  144.3760 C   0  0  0  0  0  2  0  0  0  0  0  0
  183.2660  179.0530  142.8950 C   0  0  0  0  0  0  0  0  0  0  0  0
  184.4610  178.1650  144.8500 C   0  0  0  0  0  2  0  0  0  0  0  0
  185.7710  178.5110  142.6400 C   0  0  2  0  0  3  0  0  0  0  0  0
  184.4800  178.8650  142.0010 C   0  0  1  0  0  3  0  0  0  0  0  0
  184.9160  177.4570  142.0710 N   0  0  0  0  0  2  0  0  0  0  0  0
  182.0210  179.0950  142.3550 C   0  0  0  0  0  0  0  0  0  0  0  0
  181.8590  178.9660  140.8500 C   0  0  1  0  0  3  0  0  0  0  0  0
  180.7370  178.1980  140.5560 C   0  0  0  0  0  0  0  0  0  0  0  0
  179.9430  176.7750  140.4940 S   0  0  0  0  0  0  0  0  0  0  0  0
  180.7870  179.7160  140.3550 N   0  0  0  0  0  2  0  0  0  0  0  0
  180.3250  180.4980  143.2790 O   0  0  0  0  0  0  0  0  0  0  0  0
  180.2410  178.2810  143.9580 N   0  0  0  0  0  1  0  0  0  0  0  0
  180.8290  179.3440  143.2100 C   0  0  0  0  0  0  0  0  0  0  0  0
  186.9460  177.5540  144.6860 C   0  0  2  0  0  3  0  0  0  0  0  0
  188.4410  177.0790  146.5700 N   0  0  0  0  0  2  0  0  0  0  0  0
  187.7310  178.1500  145.8550 C   0  0  2  0  0  3  0  0  0  0  0  0
  187.2050  177.6520  147.1230 C   0  0  2  0  0  3  0  0  0  0  0  0
  187.5280  178.5500  148.1380 O   0  0  0  0  0  1  0  0  0  0  0  0
  187.8140  175.9580  143.1890 O   0  0  0  0  0  0  0  0  0  0  0  0
  187.8670  177.1150  143.5810 C   0  0  0  0  0  0  0  0  0  0  0  0
  190.4760  177.5230  143.2520 C   0  0  0  0  0  2  0  0  0  0  0  0
  189.0730  178.2200  142.8640 S   0  0  0  0  0  0  0  0  0  0  0  0
  191.4920  178.2800  144.0360 C   0  0  0  0  0  2  0  0  0  0  0  0
  191.6860  177.6390  145.3250 N   0  0  0  0  0  2  0  0  0  0  0  0
  191.6600  176.2070  145.0860 C   0  0  0  0  0  1  0  0  0  0  0  0
  1 16  1  6  0  0  0
  1  4  1  0  0  0  0
  2  4  1  0  0  0  0
  3  2  1  0  0  0  0
  5  7  1  6  0  0  0
  5  1  1  0  0  0  0
  6  7  1  6  0  0  0
  6  5  1  0  0  0  0
  6  3  1  0  0  0  0
  8  3  2  0  0  0  0
  8 15  1  0  0  0  0
  9  8  1  1  0  0  0
 10  9  1  0  0  0  0
 11 10  2  0  0  0  0
 12 10  1  0  0  0  0
 12  9  1  0  0  0  0
 15 13  2  0  0  0  0
 15 14  1  0  0  0  0
 16 22  1  6  0  0  0
 17 19  1  0  0  0  0
 18 16  1  6  0  0  0
 18 17  1  0  0  0  0
 18 19  1  0  0  0  0
 19 20  1  1  0  0  0
 21 22  2  0  0  0  0
 23 25  1  0  0  0  0
 24 23  1  0  0  0  0
 24 22  1  0  0  0  0
 25 26  1  0  0  0  0
 27 26  1  0  0  0  0
M  END
>  <MODEL>
4

>  <REMARK>
 VINA RESULT:      -7.1      2.342      3.429
  Name = 
  8 active torsions:
  status: ('A' for Active; 'I' for Inactive)
    1  A    between atoms: C_1  and  C_24
    2  A    between atoms: C_2  and  C_17
    3  A    between atoms: C_3  and  C_10
    4  A    between atoms: C_10  and  CA_16
    5  A    between atoms: C_10  and  C_25
    6  A    between atoms: S_13  and  C_25
    7  A    between atoms: N_14  and  C_17
    8  A    between atoms: C_24  and  C_27
                            x       y       z     vdW  Elec       q    Type
                         _______ _______ _______ _____ _____    ______ ____

>  <TORSDO>
F 8

$$$$
=
 OpenBabel10222420203D

 27 30  0  0  1  0  0  0  0  0999 V2000
  186.4900  178.7060  143.5790 C   0  0  2  0  0  3  0  0  0  0  0  0
  187.1280  179.0190  141.2220 C   0  0  0  0  0  2  0  0  0  0  0  0
  188.2790  178.0680  141.3760 C   0  0  0  0  0  0  0  0  0  0  0  0
  186.0030  178.5980  142.1350 C   0  0  0  0  0  2  0  0  0  0  0  0
  187.7780  177.9170  143.8970 C   0  0  2  0  0  3  0  0  0  0  0  0
  188.7020  177.6400  142.7700 C   0  0  1  0  0  3  0  0  0  0  0  0
  187.7800  176.5940  143.2530 N   0  0  0  0  0  2  0  0  0  0  0  0
  188.9400  177.5960  140.2870 C   0  0  0  0  0  0  0  0  0  0  0  0
  190.1120  176.6490  140.4830 C   0  0  1  0  0  3  0  0  0  0  0  0
  190.9120  176.6400  139.3450 C   0  0  0  0  0  0  0  0  0  0  0  0
  191.1960  176.2420  137.7890 S   0  0  0  0  0  0  0  0  0  0  0  0
  191.3270  177.3200  140.6530 N   0  0  0  0  0  2  0  0  0  0  0  0
  189.0380  179.1430  138.4720 O   0  0  0  0  0  0  0  0  0  0  0  0
  187.7140  177.2740  138.0970 N   0  0  0  0  0  1  0  0  0  0  0  0
  188.5790  178.0560  138.9190 C   0  0  0  0  0  0  0  0  0  0  0  0
  185.3910  178.4360  144.6200 C   0  0  2  0  0  3  0  0  0  0  0  0
  182.9890  178.6060  145.0750 N   0  0  0  0  0  2  0  0  0  0  0  0
  184.1230  179.2620  144.4080 C   0  0  2  0  0  3  0  0  0  0  0  0
  183.1550  178.5080  143.6170 C   0  0  2  0  0  3  0  0  0  0  0  0
  182.2800  179.3960  142.9940 O   0  0  0  0  0  1  0  0  0  0  0  0
  185.6270  179.5710  146.6680 O   0  0  0  0  0  0  0  0  0  0  0  0
  185.8910  178.5610  146.0320 C   0  0  0  0  0  0  0  0  0  0  0  0
  187.6210  178.0910  147.9980 C   0  0  0  0  0  2  0  0  0  0  0  0
  186.9050  177.2990  146.7880 S   0  0  0  0  0  0  0  0  0  0  0  0
  189.1090  178.1440  148.0770 C   0  0  0  0  0  2  0  0  0  0  0  0
  189.6790  177.4790  146.9180 N   0  0  0  0  0  2  0  0  0  0  0  0
  190.8390  176.7450  147.3900 C   0  0  0  0  0  1  0  0  0  0  0  0
  1  5  1  0  0  0  0
  1 16  1  1  0  0  0
  2  3  1  0  0  0  0
  2  4  1  0  0  0  0
  4  1  1  0  0  0  0
  5  7  1  6  0  0  0
  6  3  1  6  0  0  0
  6  7  1  0  0  0  0
  6  5  1  0  0  0  0
  8  3  2  0  0  0  0
  9  8  1  6  0  0  0
  9 12  1  0  0  0  0
 10  9  1  0  0  0  0
 10 12  1  0  0  0  0
 11 10  2  0  0  0  0
 13 15  2  0  0  0  0
 14 15  1  0  0  0  0
 15  8  1  0  0  0  0
 16 22  1  1  0  0  0
 18 16  1  1  0  0  0
 18 17  1  0  0  0  0
 19 20  1  6  0  0  0
 19 18  1  0  0  0  0
 19 17  1  0  0  0  0
 22 21  2  0  0  0  0
 22 24  1  0  0  0  0
 23 25  1  0  0  0  0
 24 23  1  0  0  0  0
 26 27  1  0  0  0  0
 26 25  1  0  0  0  0
M  END
>  <MODEL>
5

>  <REMARK>
 VINA RESULT:      -7.1      2.868      6.226
  Name = 
  8 active torsions:
  status: ('A' for Active; 'I' for Inactive)
    1  A    between atoms: C_1  and  C_24
    2  A    between atoms: C_2  and  C_17
    3  A    between atoms: C_3  and  C_10
    4  A    between atoms: C_10  and  CA_16
    5  A    between atoms: C_10  and  C_25
    6  A    between atoms: S_13  and  C_25
    7  A    between atoms: N_14  and  C_17
    8  A    between atoms: C_24  and  C_27
                            x       y       z     vdW  Elec       q    Type
                         _______ _______ _______ _____ _____    ______ ____

>  <TORSDO>
F 8

$$$$
=
 OpenBabel10222420203D

 27 30  0  0  1  0  0  0  0  0999 V2000
  185.1430  178.0450  143.6500 C   0  0  2  0  0  3  0  0  0  0  0  0
  186.2190  177.6450  145.8280 C   0  0  0  0  0  2  0  0  0  0  0  0
  187.5090  177.2720  145.1570 C   0  0  0  0  0  0  0  0  0  0  0  0
  185.4980  178.6770  144.9950 C   0  0  0  0  0  2  0  0  0  0  0  0
  186.3340  177.4460  142.8710 C   0  0  2  0  0  3  0  0  0  0  0  0
  187.5140  177.0150  143.6600 C   0  0  1  0  0  3  0  0  0  0  0  0
  187.5250  178.3080  142.9490 N   0  0  0  0  0  2  0  0  0  0  0  0
  188.6570  177.1610  145.8730 C   0  0  0  0  0  0  0  0  0  0  0  0
  189.9400  176.7640  145.1630 C   0  0  1  0  0  3  0  0  0  0  0  0
  190.6780  177.8980  144.8430 C   0  0  0  0  0  0  0  0  0  0  0  0
  190.9300  179.2520  143.9690 S   0  0  0  0  0  0  0  0  0  0  0  0
  191.0750  176.9310  145.9620 N   0  0  0  0  0  2  0  0  0  0  0  0
  188.3880  176.3770  148.1120 O   0  0  0  0  0  0  0  0  0  0  0  0
  188.9550  178.6190  147.9190 N   0  0  0  0  0  1  0  0  0  0  0  0
  188.6540  177.3470  147.3490 C   0  0  0  0  0  0  0  0  0  0  0  0
  184.2820  178.9490  142.7540 C   0  0  2  0  0  3  0  0  0  0  0  0
  182.0210  179.8740  142.9530 N   0  0  0  0  0  2  0  0  0  0  0  0
  182.7880  178.6280  142.8060 C   0  0  2  0  0  3  0  0  0  0  0  0
  182.2390  178.9930  144.1100 C   0  0  2  0  0  3  0  0  0  0  0  0
  181.0840  178.2480  144.3450 O   0  0  0  0  0  1  0  0  0  0  0  0
  185.6990  179.7510  141.0540 O   0  0  0  0  0  0  0  0  0  0  0  0
  184.7770  178.9970  141.3350 C   0  0  0  0  0  0  0  0  0  0  0  0
  183.6880  179.1300  138.9110 C   0  0  0  0  0  2  0  0  0  0  0  0
  184.0230  178.0260  140.0400 S   0  0  0  0  0  0  0  0  0  0  0  0
  182.2870  179.3070  138.4350 C   0  0  0  0  0  2  0  0  0  0  0  0
  181.4950  179.9280  139.4820 N   0  0  0  0  0  2  0  0  0  0  0  0
  180.4050  179.0160  139.7760 C   0  0  0  0  0  1  0  0  0  0  0  0
  1 16  1  6  0  0  0
  1  4  1  0  0  0  0
  3  2  1  0  0  0  0
  3  8  2  0  0  0  0
  4  2  1  0  0  0  0
  5  7  1  6  0  0  0
  5  1  1  0  0  0  0
  5  6  1  0  0  0  0
  6  7  1  6  0  0  0
  6  3  1  0  0  0  0
  8 15  1  0  0  0  0
  9  8  1  1  0  0  0
  9 12  1  0  0  0  0
 10  9  1  0  0  0  0
 10 12  1  0  0  0  0
 11 10  2  0  0  0  0
 15 14  1  0  0  0  0
 15 13  2  0  0  0  0
 16 22  1  6  0  0  0
 17 19  1  0  0  0  0
 18 16  1  1  0  0  0
 18 17  1  0  0  0  0
 18 19  1  0  0  0  0
 19 20  1  6  0  0  0
 21 22  2  0  0  0  0
 23 24  1  0  0  0  0
 24 22  1  0  0  0  0
 25 23  1  0  0  0  0
 25 26  1  0  0  0  0
 26 27  1  0  0  0  0
M  END
>  <MODEL>
6

>  <REMARK>
 VINA RESULT:      -7.0      2.225      7.269
  Name = 
  8 active torsions:
  status: ('A' for Active; 'I' for Inactive)
    1  A    between atoms: C_1  and  C_24
    2  A    between atoms: C_2  and  C_17
    3  A    between atoms: C_3  and  C_10
    4  A    between atoms: C_10  and  CA_16
    5  A    between atoms: C_10  and  C_25
    6  A    between atoms: S_13  and  C_25
    7  A    between atoms: N_14  and  C_17
    8  A    between atoms: C_24  and  C_27
                            x       y       z     vdW  Elec       q    Type
                         _______ _______ _______ _____ _____    ______ ____

>  <TORSDO>
F 8

$$$$
=
 OpenBabel10222420203D

 27 30  0  0  1  0  0  0  0  0999 V2000
  189.4500  177.9890  142.0240 C   0  0  2  0  0  3  0  0  0  0  0  0
  188.2050  178.6190  139.9960 C   0  0  0  0  0  2  0  0  0  0  0  0
  189.2260  177.9490  139.1240 C   0  0  0  0  0  0  0  0  0  0  0  0
  188.1040  177.8830  141.3090 C   0  0  0  0  0  2  0  0  0  0  0  0
  190.6650  177.4940  141.2110 C   0  0  2  0  0  3  0  0  0  0  0  0
  190.5510  177.5240  139.7320 C   0  0  1  0  0  3  0  0  0  0  0  0
  190.3600  176.2600  140.4690 N   0  0  0  0  0  2  0  0  0  0  0  0
  188.9760  177.7260  137.8080 C   0  0  0  0  0  0  0  0  0  0  0  0
  190.0400  177.0610  136.9520 C   0  0  1  0  0  3  0  0  0  0  0  0
  189.6120  175.8000  136.5520 C   0  0  0  0  0  0  0  0  0  0  0  0
  189.2600  174.2370  136.8550 S   0  0  0  0  0  0  0  0  0  0  0  0
  189.6860  176.9980  135.6000 N   0  0  0  0  0  2  0  0  0  0  0  0
  187.6160  179.3720  136.7410 O   0  0  0  0  0  0  0  0  0  0  0  0
  186.5890  177.3180  137.0750 N   0  0  0  0  0  1  0  0  0  0  0  0
  187.7090  178.1950  137.1840 C   0  0  0  0  0  0  0  0  0  0  0  0
  189.4410  177.3950  143.4420 C   0  0  2  0  0  3  0  0  0  0  0  0
  188.1620  177.1130  145.5130 N   0  0  0  0  0  2  0  0  0  0  0  0
  188.3740  177.9950  144.3560 C   0  0  2  0  0  3  0  0  0  0  0  0
  187.2000  177.1270  144.4010 C   0  0  2  0  0  3  0  0  0  0  0  0
  186.0860  177.8810  144.7660 O   0  0  0  0  0  1  0  0  0  0  0  0
  191.3160  178.5160  144.3190 O   0  0  0  0  0  0  0  0  0  0  0  0
  190.7970  177.4320  144.0920 C   0  0  0  0  0  0  0  0  0  0  0  0
  191.3300  175.7090  146.0480 C   0  0  0  0  0  2  0  0  0  0  0  0
  191.6910  175.9390  144.4920 S   0  0  0  0  0  0  0  0  0  0  0  0
  192.4180  175.6290  147.0620 C   0  0  0  0  0  2  0  0  0  0  0  0
  192.2060  176.6410  148.0820 N   0  0  0  0  0  2  0  0  0  0  0  0
  190.8890  177.2030  147.8420 C   0  0  0  0  0  1  0  0  0  0  0  0
  1 16  1  1  0  0  0
  2  4  1  0  0  0  0
  3  2  1  0  0  0  0
  4  1  1  0  0  0  0
  5  7  1  1  0  0  0
  5  1  1  0  0  0  0
  6  3  1  1  0  0  0
  6  7  1  0  0  0  0
  6  5  1  0  0  0  0
  8  3  2  0  0  0  0
  9  8  1  1  0  0  0
 10 11  2  0  0  0  0
 10  9  1  0  0  0  0
 12 10  1  0  0  0  0
 12  9  1  0  0  0  0
 13 15  2  0  0  0  0
 14 15  1  0  0  0  0
 15  8  1  0  0  0  0
 16 22  1  1  0  0  0
 18 16  1  6  0  0  0
 18 19  1  0  0  0  0
 18 17  1  0  0  0  0
 19 20  1  1  0  0  0
 19 17  1  0  0  0  0
 22 21  2  0  0  0  0
 22 24  1  0  0  0  0
 23 25  1  0  0  0  0
 24 23  1  0  0  0  0
 25 26  1  0  0  0  0
 27 26  1  0  0  0  0
M  END
>  <MODEL>
7

>  <REMARK>
 VINA RESULT:      -6.9      3.592      6.110
  Name = 
  8 active torsions:
  status: ('A' for Active; 'I' for Inactive)
    1  A    between atoms: C_1  and  C_24
    2  A    between atoms: C_2  and  C_17
    3  A    between atoms: C_3  and  C_10
    4  A    between atoms: C_10  and  CA_16
    5  A    between atoms: C_10  and  C_25
    6  A    between atoms: S_13  and  C_25
    7  A    between atoms: N_14  and  C_17
    8  A    between atoms: C_24  and  C_27
                            x       y       z     vdW  Elec       q    Type
                         _______ _______ _______ _____ _____    ______ ____

>  <TORSDO>
F 8

$$$$
=
 OpenBabel10222420203D

 27 30  0  0  1  0  0  0  0  0999 V2000
  189.2370  178.2620  142.0490 C   0  0  2  0  0  3  0  0  0  0  0  0
  188.6770  178.5930  139.6740 C   0  0  0  0  0  2  0  0  0  0  0  0
  189.7640  177.6460  139.2540 C   0  0  0  0  0  0  0  0  0  0  0  0
  188.1220  178.1610  141.0090 C   0  0  0  0  0  2  0  0  0  0  0  0
  190.5220  177.4760  141.7100 C   0  0  2  0  0  3  0  0  0  0  0  0
  190.7990  177.2110  140.2770 C   0  0  1  0  0  3  0  0  0  0  0  0
  190.2190  176.1570  141.1310 N   0  0  0  0  0  2  0  0  0  0  0  0
  189.8280  177.1850  137.9790 C   0  0  0  0  0  0  0  0  0  0  0  0
  190.9520  176.2420  137.5850 C   0  0  1  0  0  3  0  0  0  0  0  0
  190.4390  175.1530  136.8900 C   0  0  0  0  0  0  0  0  0  0  0  0
  189.6030  173.7540  136.8190 S   0  0  0  0  0  0  0  0  0  0  0  0
  191.2320  176.2770  136.2150 N   0  0  0  0  0  2  0  0  0  0  0  0
  187.8680  176.9380  136.6380 O   0  0  0  0  0  0  0  0  0  0  0  0
  189.0370  178.9150  136.3100 N   0  0  0  0  0  1  0  0  0  0  0  0
  188.8590  177.6530  136.9510 C   0  0  0  0  0  0  0  0  0  0  0  0
  188.7660  177.9790  143.4850 C   0  0  2  0  0  3  0  0  0  0  0  0
  189.7880  178.0800  145.7100 N   0  0  0  0  0  2  0  0  0  0  0  0
  189.8620  177.4260  144.3950 C   0  0  2  0  0  3  0  0  0  0  0  0
  190.8150  178.4780  144.7370 C   0  0  2  0  0  3  0  0  0  0  0  0
  192.0330  177.8980  145.0890 O   0  0  0  0  0  1  0  0  0  0  0  0
  187.6630  175.9020  143.5690 O   0  0  0  0  0  0  0  0  0  0  0  0
  187.5350  177.1180  143.5300 C   0  0  0  0  0  0  0  0  0  0  0  0
  185.8970  178.8450  144.7180 C   0  0  0  0  0  2  0  0  0  0  0  0
  185.8930  177.8170  143.4740 S   0  0  0  0  0  0  0  0  0  0  0  0
  184.8870  178.7040  145.8050 C   0  0  0  0  0  2  0  0  0  0  0  0
  185.4880  179.0700  147.0750 N   0  0  0  0  0  2  0  0  0  0  0  0
  186.6570  178.2250  147.2410 C   0  0  0  0  0  1  0  0  0  0  0  0
  1 16  1  1  0  0  0
  2  4  1  0  0  0  0
  3  2  1  0  0  0  0
  4  1  1  0  0  0  0
  5  7  1  1  0  0  0
  5  1  1  0  0  0  0
  6  3  1  6  0  0  0
  6  7  1  0  0  0  0
  6  5  1  0  0  0  0
  8  3  2  0  0  0  0
  9  8  1  6  0  0  0
 10  9  1  0  0  0  0
 11 10  2  0  0  0  0
 12 10  1  0  0  0  0
 12  9  1  0  0  0  0
 13 15  2  0  0  0  0
 14 15  1  0  0  0  0
 15  8  1  0  0  0  0
 16 22  1  6  0  0  0
 18 16  1  6  0  0  0
 18 19  1  0  0  0  0
 18 17  1  0  0  0  0
 19 20  1  1  0  0  0
 19 17  1  0  0  0  0
 22 21  2  0  0  0  0
 23 25  1  0  0  0  0
 24 22  1  0  0  0  0
 24 23  1  0  0  0  0
 25 26  1  0  0  0  0
 26 27  1  0  0  0  0
M  END
>  <MODEL>
8

>  <REMARK>
 VINA RESULT:      -6.8      3.119      6.759
  Name = 
  8 active torsions:
  status: ('A' for Active; 'I' for Inactive)
    1  A    between atoms: C_1  and  C_24
    2  A    between atoms: C_2  and  C_17
    3  A    between atoms: C_3  and  C_10
    4  A    between atoms: C_10  and  CA_16
    5  A    between atoms: C_10  and  C_25
    6  A    between atoms: S_13  and  C_25
    7  A    between atoms: N_14  and  C_17
    8  A    between atoms: C_24  and  C_27
                            x       y       z     vdW  Elec       q    Type
                         _______ _______ _______ _____ _____    ______ ____

>  <TORSDO>
F 8

$$$$
=
 OpenBabel10222420203D

 27 30  0  0  1  0  0  0  0  0999 V2000
  190.4790  177.8710  139.6940 C   0  0  2  0  0  3  0  0  0  0  0  0
  191.5200  177.7240  141.9200 C   0  0  0  0  0  2  0  0  0  0  0  0
  190.1860  177.4750  142.5620 C   0  0  0  0  0  0  0  0  0  0  0  0
  191.5270  177.1380  140.5300 C   0  0  0  0  0  2  0  0  0  0  0  0
  189.0520  177.8680  140.2830 C   0  0  2  0  0  3  0  0  0  0  0  0
  188.9230  177.7110  141.7530 C   0  0  1  0  0  3  0  0  0  0  0  0
  188.7010  176.5590  140.8580 N   0  0  0  0  0  2  0  0  0  0  0  0
  190.1030  177.0480  143.8480 C   0  0  0  0  0  0  0  0  0  0  0  0
  188.7350  176.8230  144.4690 C   0  0  1  0  0  3  0  0  0  0  0  0
  188.7540  177.1940  145.8100 C   0  0  0  0  0  0  0  0  0  0  0  0
  189.2000  176.9620  147.3610 S   0  0  0  0  0  0  0  0  0  0  0  0
  188.0540  178.0180  144.7250 N   0  0  0  0  0  2  0  0  0  0  0  0
  191.8820  177.8740  145.2080 O   0  0  0  0  0  0  0  0  0  0  0  0
  191.8910  175.5780  144.8710 N   0  0  0  0  0  1  0  0  0  0  0  0
  191.3290  176.8740  144.6730 C   0  0  0  0  0  0  0  0  0  0  0  0
  190.4780  177.4620  138.2130 C   0  0  2  0  0  3  0  0  0  0  0  0
  189.2310  177.8720  136.1430 N   0  0  0  0  0  2  0  0  0  0  0  0
  189.0960  177.5070  137.5610 C   0  0  2  0  0  3  0  0  0  0  0  0
  188.7850  178.8670  137.1290 C   0  0  2  0  0  3  0  0  0  0  0  0
  187.4020  179.0150  137.0400 O   0  0  0  0  0  1  0  0  0  0  0  0
  190.5780  175.1140  138.3390 O   0  0  0  0  0  0  0  0  0  0  0  0
  191.1460  176.1350  137.9790 C   0  0  0  0  0  0  0  0  0  0  0  0
  193.0530  174.4250  137.2600 C   0  0  0  0  0  2  0  0  0  0  0  0
  192.7670  176.0130  137.2410 S   0  0  0  0  0  0  0  0  0  0  0  0
  194.2560  173.8920  137.9590 C   0  0  0  0  0  2  0  0  0  0  0  0
  195.1170  174.9950  138.3510 N   0  0  0  0  0  2  0  0  0  0  0  0
  195.9340  174.5140  139.4500 C   0  0  0  0  0  1  0  0  0  0  0  0
  1 16  1  6  0  0  0
  1  5  1  0  0  0  0
  1  4  1  0  0  0  0
  2  3  1  0  0  0  0
  3  8  2  0  0  0  0
  4  2  1  0  0  0  0
  5  7  1  6  0  0  0
  5  6  1  0  0  0  0
  6  7  1  6  0  0  0
  6  3  1  0  0  0  0
  8 15  1  0  0  0  0
  9  8  1  6  0  0  0
  9 12  1  0  0  0  0
  9 10  1  0  0  0  0
 10 11  2  0  0  0  0
 12 10  1  0  0  0  0
 15 14  1  0  0  0  0
 15 13  2  0  0  0  0
 16 22  1  1  0  0  0
 17 19  1  0  0  0  0
 17 18  1  0  0  0  0
 18 16  1  1  0  0  0
 19 20  1  6  0  0  0
 19 18  1  0  0  0  0
 22 21  2  0  0  0  0
 23 25  1  0  0  0  0
 24 23  1  0  0  0  0
 24 22  1  0  0  0  0
 25 26  1  0  0  0  0
 26 27  1  0  0  0  0
M  END
>  <MODEL>
9

>  <REMARK>
 VINA RESULT:      -6.7      3.998      7.510
  Name = 
  8 active torsions:
  status: ('A' for Active; 'I' for Inactive)
    1  A    between atoms: C_1  and  C_24
    2  A    between atoms: C_2  and  C_17
    3  A    between atoms: C_3  and  C_10
    4  A    between atoms: C_10  and  CA_16
    5  A    between atoms: C_10  and  C_25
    6  A    between atoms: S_13  and  C_25
    7  A    between atoms: N_14  and  C_17
    8  A    between atoms: C_24  and  C_27
                            x       y       z     vdW  Elec       q    Type
                         _______ _______ _______ _____ _____    ______ ____

>  <TORSDO>
F 8

$$$$
