=
 OpenBabel10222420303D

 37 40  0  0  1  0  0  0  0  0999 V2000
  182.0930  178.8110  142.5270 C   0  0  0  0  0  0  0  0  0  0  0  0
  183.0980  178.6450  141.5400 C   0  0  0  0  0  0  0  0  0  0  0  0
  183.7710  178.5790  144.2660 C   0  0  0  0  0  3  0  0  0  0  0  0
  182.4440  178.7780  143.8790 C   0  0  0  0  0  3  0  0  0  0  0  0
  184.4220  178.4430  141.9440 C   0  0  0  0  0  3  0  0  0  0  0  0
  184.7660  178.3960  143.3010 C   0  0  0  0  0  0  0  0  0  0  0  0
  185.2930  177.9720  146.2900 Cl  0  0  0  0  0  0  0  0  0  0  0  0
  186.5040  178.0260  145.0130 C   0  0  0  0  0  0  0  0  0  0  0  0
  188.3610  177.7100  142.5660 C   0  0  0  0  0  3  0  0  0  0  0  0
  188.6880  176.8810  144.8720 C   0  0  0  0  0  3  0  0  0  0  0  0
  187.9260  178.0160  145.4700 C   0  0  0  0  0  2  0  0  0  0  0  0
  188.8970  176.7630  143.5610 C   0  0  0  0  0  0  0  0  0  0  0  0
  187.1860  178.3480  142.6390 C   0  0  0  0  0  3  0  0  0  0  0  0
  186.1720  178.2280  143.7170 C   0  0  0  0  0  0  0  0  0  0  0  0
  189.9320  175.4690  142.9990 Cl  0  0  0  0  0  0  0  0  0  0  0  0
  179.9390  180.7320  141.8260 O   0  0  0  0  0  0  0  0  0  0  0  0
  179.4980  180.3660  143.0470 C   0  0  0  0  0  1  0  0  0  0  0  0
  180.3580  179.0720  142.1390 P   0  0  1  0  0  0  0  0  0  0  0  0
  179.0540  175.8530  140.1140 C   0  0  0  0  0  1  0  0  0  0  0  0
  179.3480  177.8910  141.2550 C   0  0  0  0  0  3  0  0  0  0  0  0
  179.8670  176.8040  140.8190 N   0  0  0  0  0  0  0  0  0  0  0  0
  182.8490  178.6960  140.0600 C   0  0  2  0  0  3  0  0  0  0  0  0
  184.6930  177.6550  138.2770 C   0  0  0  0  0  0  0  0  0  0  0  0
  184.6370  176.5360  137.0900 S   0  0  0  0  0  0  0  0  0  0  0  0
  185.4100  178.6200  139.0220 N   0  0  0  0  0  2  0  0  0  0  0  0
  184.0540  178.3760  139.3120 N   0  0  0  0  0  0  0  0  0  0  0  0
  182.2570  180.0310  139.6160 C   0  0  2  0  0  3  0  0  0  0  0  0
  181.3190  179.9260  138.4670 C   0  0  1  0  0  0  0  0  0  0  0  0
  182.6570  180.3180  138.2920 O   0  0  0  0  0  0  0  0  0  0  0  0
  181.3910  178.4000  136.6640 O   0  0  0  0  0  0  0  0  0  0  0  0
  181.0380  178.6040  137.8130 C   0  0  0  0  0  3  0  0  0  0  0  0
  180.3510  181.0900  138.2820 C   0  0  0  0  0  2  0  0  0  0  0  0
  181.0720  182.3730  137.8840 C   0  0  0  0  0  2  0  0  0  0  0  0
  180.1180  183.3670  137.2360 C   0  0  1  0  0  3  0  0  0  0  0  0
  179.2710  183.9870  138.2430 N   0  0  0  0  0  1  0  0  0  0  0  0
  181.9500  184.9240  137.2350 O   0  0  0  0  0  1  0  0  0  0  0  0
  180.8880  184.4340  136.4720 C   0  0  0  0  0  2  0  0  0  0  0  0
  1  4  1  0  0  0  0
  2  5  1  0  0  0  0
  2  1  2  0  0  0  0
  4  3  2  0  0  0  0
  5  6  2  0  0  0  0
  6 14  1  0  0  0  0
  6  3  1  0  0  0  0
  8 11  1  0  0  0  0
  8  7  1  0  0  0  0
  9 13  2  0  0  0  0
  9 12  1  0  0  0  0
 10 11  1  0  0  0  0
 12 10  2  0  0  0  0
 13 14  1  0  0  0  0
 14  8  2  0  0  0  0
 15 12  1  0  0  0  0
 16 18  1  0  0  0  0
 16 17  1  0  0  0  0
 18 20  1  6  0  0  0
 18  1  1  0  0  0  0
 19 21  1  0  0  0  0
 21 20  2  0  0  0  0
 22  2  1  1  0  0  0
 23 25  1  0  0  0  0
 23 26  1  0  0  0  0
 24 23  2  0  0  0  0
 25 26  1  0  0  0  0
 26 22  1  0  0  0  0
 27 22  1  6  0  0  0
 28 31  1  6  0  0  0
 28 27  1  0  0  0  0
 29 28  1  0  0  0  0
 29 27  1  0  0  0  0
 30 31  2  0  0  0  0
 32 28  1  0  0  0  0
 33 32  1  0  0  0  0
 34 33  1  0  0  0  0
 34 35  1  1  0  0  0
 37 36  1  0  0  0  0
 37 34  1  0  0  0  0
M  END
>  <MODEL>
1

>  <REMARK>
 VINA RESULT:      -7.6      0.000      0.000
  Name = 
  11 active torsions:
  status: ('A' for Active; 'I' for Inactive)
    1  A    between atoms: C_2  and  P_36
    2  A    between atoms: C_3  and  C_20
    3  A    between atoms: C_6  and  C_20
    4  A    between atoms: C_14  and  P_36
    5  A    between atoms: C_16  and  CA_24
    6  A    between atoms: C_16  and  C_25
    7  A    between atoms: C_20  and  N_28
    8  A    between atoms: CA_24  and  C_31
    9  A    between atoms: C_25  and  C_34
   10  A    between atoms: C_26  and  C_33
   11  A    between atoms: C_30  and  C_34
                            x       y       z     vdW  Elec       q    Type
                         _______ _______ _______ _____ _____    ______ ____

>  <TORSDO>
F 11

$$$$
=
 OpenBabel10222420303D

 37 40  0  0  1  0  0  0  0  0999 V2000
  182.1280  178.7850  142.8020 C   0  0  0  0  0  0  0  0  0  0  0  0
  182.6950  178.4260  141.5520 C   0  0  0  0  0  0  0  0  0  0  0  0
  184.3460  178.8320  143.7870 C   0  0  0  0  0  3  0  0  0  0  0  0
  182.9630  178.9860  143.9040 C   0  0  0  0  0  3  0  0  0  0  0  0
  184.0820  178.2730  141.4520 C   0  0  0  0  0  3  0  0  0  0  0  0
  184.9130  178.4610  142.5650 C   0  0  0  0  0  0  0  0  0  0  0  0
  186.4040  177.1120  144.8780 Cl  0  0  0  0  0  0  0  0  0  0  0  0
  187.1230  177.7530  143.4030 C   0  0  0  0  0  0  0  0  0  0  0  0
  188.0660  178.5310  140.5680 C   0  0  0  0  0  3  0  0  0  0  0  0
  189.1450  177.0120  142.1930 C   0  0  0  0  0  3  0  0  0  0  0  0
  188.6160  177.7680  143.3660 C   0  0  0  0  0  2  0  0  0  0  0  0
  188.9090  177.3780  140.9340 C   0  0  0  0  0  0  0  0  0  0  0  0
  186.9770  178.9510  141.2240 C   0  0  0  0  0  3  0  0  0  0  0  0
  186.3790  178.3420  142.4390 C   0  0  0  0  0  0  0  0  0  0  0  0
  189.7080  176.4960  139.6510 Cl  0  0  0  0  0  0  0  0  0  0  0  0
  179.8860  179.0390  144.7330 O   0  0  0  0  0  0  0  0  0  0  0  0
  179.5440  177.8590  144.1770 C   0  0  0  0  0  1  0  0  0  0  0  0
  180.3640  179.0080  143.0610 P   0  0  1  0  0  0  0  0  0  0  0  0
  178.9470  181.8170  140.5570 C   0  0  0  0  0  1  0  0  0  0  0  0
  179.3180  179.9870  141.9900 C   0  0  0  0  0  3  0  0  0  0  0  0
  179.7860  181.0350  141.4220 N   0  0  0  0  0  0  0  0  0  0  0  0
  181.9050  178.2180  140.2910 C   0  0  2  0  0  3  0  0  0  0  0  0
  181.2520  175.6360  139.5360 C   0  0  0  0  0  0  0  0  0  0  0  0
  179.8580  174.8010  139.3890 S   0  0  0  0  0  0  0  0  0  0  0  0
  182.6600  175.7060  139.4160 N   0  0  0  0  0  2  0  0  0  0  0  0
  181.9380  176.8260  139.8730 N   0  0  0  0  0  0  0  0  0  0  0  0
  182.3520  179.1480  139.1660 C   0  0  2  0  0  3  0  0  0  0  0  0
  181.2600  179.5420  138.2360 C   0  0  1  0  0  0  0  0  0  0  0  0
  182.1650  178.5150  137.9170 O   0  0  0  0  0  0  0  0  0  0  0  0
  179.3670  178.2990  137.5620 O   0  0  0  0  0  0  0  0  0  0  0  0
  179.8650  179.0180  138.4120 C   0  0  0  0  0  3  0  0  0  0  0  0
  181.5050  180.8000  137.4100 C   0  0  0  0  0  2  0  0  0  0  0  0
  181.5530  182.0520  138.2780 C   0  0  0  0  0  2  0  0  0  0  0  0
  180.9370  183.2470  137.5630 C   0  0  1  0  0  3  0  0  0  0  0  0
  181.9310  184.2910  137.3710 N   0  0  0  0  0  1  0  0  0  0  0  0
  179.0040  183.1890  136.1340 O   0  0  0  0  0  1  0  0  0  0  0  0
  180.3510  182.8290  136.2220 C   0  0  0  0  0  2  0  0  0  0  0  0
  1 18  1  0  0  0  0
  1  4  1  0  0  0  0
  2  1  2  0  0  0  0
  3  4  2  0  0  0  0
  5  2  1  0  0  0  0
  5  6  2  0  0  0  0
  6  3  1  0  0  0  0
  8  7  1  0  0  0  0
  9 12  1  0  0  0  0
  9 13  2  0  0  0  0
 10 11  1  0  0  0  0
 11  8  1  0  0  0  0
 12 10  2  0  0  0  0
 13 14  1  0  0  0  0
 14  6  1  0  0  0  0
 14  8  2  0  0  0  0
 15 12  1  0  0  0  0
 17 16  1  0  0  0  0
 18 20  1  1  0  0  0
 18 16  1  0  0  0  0
 19 21  1  0  0  0  0
 21 20  2  0  0  0  0
 22  2  1  1  0  0  0
 23 26  1  0  0  0  0
 24 23  2  0  0  0  0
 25 23  1  0  0  0  0
 25 26  1  0  0  0  0
 26 22  1  0  0  0  0
 27 22  1  1  0  0  0
 28 32  1  6  0  0  0
 28 31  1  0  0  0  0
 28 27  1  0  0  0  0
 29 28  1  0  0  0  0
 29 27  1  0  0  0  0
 30 31  2  0  0  0  0
 32 33  1  0  0  0  0
 34 35  1  6  0  0  0
 34 33  1  0  0  0  0
 36 37  1  0  0  0  0
 37 34  1  0  0  0  0
M  END
>  <MODEL>
2

>  <REMARK>
 VINA RESULT:      -7.4      2.122      2.551
  Name = 
  11 active torsions:
  status: ('A' for Active; 'I' for Inactive)
    1  A    between atoms: C_2  and  P_36
    2  A    between atoms: C_3  and  C_20
    3  A    between atoms: C_6  and  C_20
    4  A    between atoms: C_14  and  P_36
    5  A    between atoms: C_16  and  CA_24
    6  A    between atoms: C_16  and  C_25
    7  A    between atoms: C_20  and  N_28
    8  A    between atoms: CA_24  and  C_31
    9  A    between atoms: C_25  and  C_34
   10  A    between atoms: C_26  and  C_33
   11  A    between atoms: C_30  and  C_34
                            x       y       z     vdW  Elec       q    Type
                         _______ _______ _______ _____ _____    ______ ____

>  <TORSDO>
F 11

$$$$
=
 OpenBabel10222420303D

 37 40  0  0  1  0  0  0  0  0999 V2000
  181.9730  179.0590  142.4760 C   0  0  0  0  0  0  0  0  0  0  0  0
  182.7680  178.2610  141.6140 C   0  0  0  0  0  0  0  0  0  0  0  0
  183.7360  179.0030  144.1430 C   0  0  0  0  0  3  0  0  0  0  0  0
  182.4710  179.4220  143.7310 C   0  0  0  0  0  3  0  0  0  0  0  0
  184.0340  177.8470  142.0430 C   0  0  0  0  0  3  0  0  0  0  0  0
  184.5200  178.2010  143.3090 C   0  0  0  0  0  0  0  0  0  0  0  0
  186.8180  178.7660  141.3620 Cl  0  0  0  0  0  0  0  0  0  0  0  0
  186.9540  178.0140  142.9480 C   0  0  0  0  0  0  0  0  0  0  0  0
  186.9800  177.1470  145.9120 C   0  0  0  0  0  3  0  0  0  0  0  0
  188.8300  178.0660  144.5540 C   0  0  0  0  0  3  0  0  0  0  0  0
  188.3010  177.4700  143.2920 C   0  0  0  0  0  2  0  0  0  0  0  0
  188.2380  177.8960  145.7350 C   0  0  0  0  0  0  0  0  0  0  0  0
  185.9620  177.1000  145.0430 C   0  0  0  0  0  3  0  0  0  0  0  0
  185.8750  177.7970  143.7350 C   0  0  0  0  0  0  0  0  0  0  0  0
  189.0370  178.5200  147.1610 Cl  0  0  0  0  0  0  0  0  0  0  0  0
  179.4820  180.4190  143.3540 O   0  0  0  0  0  0  0  0  0  0  0  0
  178.9770  179.1880  143.1330 C   0  0  0  0  0  1  0  0  0  0  0  0
  180.3330  179.6510  142.0440 P   0  0  1  0  0  0  0  0  0  0  0  0
  180.2210  181.7510  138.6170 C   0  0  0  0  0  1  0  0  0  0  0  0
  179.8980  180.2840  140.4290 C   0  0  0  0  0  3  0  0  0  0  0  0
  180.5680  181.2480  139.9170 N   0  0  0  0  0  0  0  0  0  0  0  0
  182.3580  177.8390  140.2320 C   0  0  2  0  0  3  0  0  0  0  0  0
  180.4720  175.8800  139.7100 C   0  0  0  0  0  0  0  0  0  0  0  0
  180.2510  174.7900  138.5160 S   0  0  0  0  0  0  0  0  0  0  0  0
  180.0750  176.4500  140.9420 N   0  0  0  0  0  2  0  0  0  0  0  0
  181.2100  176.9480  140.2730 N   0  0  0  0  0  0  0  0  0  0  0  0
  183.5120  177.2230  139.4450 C   0  0  2  0  0  3  0  0  0  0  0  0
  184.2200  178.1820  138.5560 C   0  0  1  0  0  0  0  0  0  0  0  0
  183.2450  177.3000  138.0600 O   0  0  0  0  0  0  0  0  0  0  0  0
  184.4060  180.4930  139.0160 O   0  0  0  0  0  0  0  0  0  0  0  0
  183.7780  179.6130  138.4510 C   0  0  0  0  0  3  0  0  0  0  0  0
  185.6270  177.7840  138.1260 C   0  0  0  0  0  2  0  0  0  0  0  0
  185.7450  177.6560  136.6110 C   0  0  0  0  0  2  0  0  0  0  0  0
  187.0570  178.2410  136.1050 C   0  0  1  0  0  3  0  0  0  0  0  0
  187.4740  179.3520  136.9470 N   0  0  0  0  0  1  0  0  0  0  0  0
  189.1840  177.4950  136.9410 O   0  0  0  0  0  1  0  0  0  0  0  0
  188.1430  177.1760  136.0670 C   0  0  0  0  0  2  0  0  0  0  0  0
  1  4  1  0  0  0  0
  2  5  1  0  0  0  0
  2  1  2  0  0  0  0
  4  3  2  0  0  0  0
  5  6  2  0  0  0  0
  6 14  1  0  0  0  0
  6  3  1  0  0  0  0
  7  8  1  0  0  0  0
  8 11  1  0  0  0  0
  8 14  2  0  0  0  0
 10 12  2  0  0  0  0
 11 10  1  0  0  0  0
 12  9  1  0  0  0  0
 12 15  1  0  0  0  0
 13  9  2  0  0  0  0
 14 13  1  0  0  0  0
 17 16  1  0  0  0  0
 18 20  1  6  0  0  0
 18  1  1  0  0  0  0
 18 16  1  0  0  0  0
 19 21  1  0  0  0  0
 21 20  2  0  0  0  0
 22 26  1  0  0  0  0
 22  2  1  1  0  0  0
 23 26  1  0  0  0  0
 23 25  1  0  0  0  0
 24 23  2  0  0  0  0
 26 25  1  0  0  0  0
 27 22  1  1  0  0  0
 28 32  1  6  0  0  0
 28 27  1  0  0  0  0
 29 28  1  0  0  0  0
 29 27  1  0  0  0  0
 31 28  1  0  0  0  0
 31 30  2  0  0  0  0
 33 32  1  0  0  0  0
 34 33  1  0  0  0  0
 34 35  1  1  0  0  0
 37 34  1  0  0  0  0
 37 36  1  0  0  0  0
M  END
>  <MODEL>
3

>  <REMARK>
 VINA RESULT:      -7.4      2.381      4.608
  Name = 
  11 active torsions:
  status: ('A' for Active; 'I' for Inactive)
    1  A    between atoms: C_2  and  P_36
    2  A    between atoms: C_3  and  C_20
    3  A    between atoms: C_6  and  C_20
    4  A    between atoms: C_14  and  P_36
    5  A    between atoms: C_16  and  CA_24
    6  A    between atoms: C_16  and  C_25
    7  A    between atoms: C_20  and  N_28
    8  A    between atoms: CA_24  and  C_31
    9  A    between atoms: C_25  and  C_34
   10  A    between atoms: C_26  and  C_33
   11  A    between atoms: C_30  and  C_34
                            x       y       z     vdW  Elec       q    Type
                         _______ _______ _______ _____ _____    ______ ____

>  <TORSDO>
F 11

$$$$
=
 OpenBabel10222420303D

 37 40  0  0  1  0  0  0  0  0999 V2000
  189.3580  176.5930  138.7500 C   0  0  0  0  0  0  0  0  0  0  0  0
  188.3170  177.3370  139.3640 C   0  0  0  0  0  0  0  0  0  0  0  0
  190.5890  176.6030  140.8420 C   0  0  0  0  0  3  0  0  0  0  0  0
  190.4810  176.2340  139.5000 C   0  0  0  0  0  3  0  0  0  0  0  0
  188.4420  177.7010  140.7090 C   0  0  0  0  0  3  0  0  0  0  0  0
  189.5780  177.3510  141.4510 C   0  0  0  0  0  0  0  0  0  0  0  0
  187.0100  177.1740  143.1150 Cl  0  0  0  0  0  0  0  0  0  0  0  0
  188.6040  177.6440  143.6990 C   0  0  0  0  0  0  0  0  0  0  0  0
  191.5510  177.9870  144.5560 C   0  0  0  0  0  3  0  0  0  0  0  0
  189.6020  177.3520  145.9390 C   0  0  0  0  0  3  0  0  0  0  0  0
  188.6540  178.1460  145.1050 C   0  0  0  0  0  2  0  0  0  0  0  0
  190.9110  177.3040  145.6960 C   0  0  0  0  0  0  0  0  0  0  0  0
  191.0140  178.1640  143.3420 C   0  0  0  0  0  3  0  0  0  0  0  0
  189.6800  177.7010  142.8810 C   0  0  0  0  0  0  0  0  0  0  0  0
  191.9360  176.4590  146.8350 Cl  0  0  0  0  0  0  0  0  0  0  0  0
  190.8880  175.8870  136.3050 O   0  0  0  0  0  0  0  0  0  0  0  0
  190.3000  177.0160  135.8590 C   0  0  0  0  0  1  0  0  0  0  0  0
  189.3180  176.0680  137.0330 P   0  0  1  0  0  0  0  0  0  0  0  0
  186.0280  173.8210  136.4910 C   0  0  0  0  0  1  0  0  0  0  0  0
  188.0760  174.9750  136.3560 C   0  0  0  0  0  3  0  0  0  0  0  0
  187.0290  174.6950  137.0380 N   0  0  0  0  0  0  0  0  0  0  0  0
  187.0480  177.7490  138.6730 C   0  0  2  0  0  3  0  0  0  0  0  0
  187.1850  178.6590  136.0620 C   0  0  0  0  0  0  0  0  0  0  0  0
  186.6360  178.1120  134.6260 S   0  0  0  0  0  0  0  0  0  0  0  0
  187.8600  179.6400  136.8260 N   0  0  0  0  0  2  0  0  0  0  0  0
  187.3300  178.4990  137.4600 N   0  0  0  0  0  0  0  0  0  0  0  0
  186.1070  178.5180  139.5960 C   0  0  2  0  0  3  0  0  0  0  0  0
  184.6660  178.2340  139.3650 C   0  0  1  0  0  0  0  0  0  0  0  0
  185.2850  179.3800  138.8360 O   0  0  0  0  0  0  0  0  0  0  0  0
  183.8230  177.7260  137.2170 O   0  0  0  0  0  0  0  0  0  0  0  0
  184.2250  177.2920  138.2830 C   0  0  0  0  0  3  0  0  0  0  0  0
  183.7230  178.5720  140.5160 C   0  0  0  0  0  2  0  0  0  0  0  0
  182.4790  177.6910  140.5100 C   0  0  0  0  0  2  0  0  0  0  0  0
  181.2480  178.4670  140.9600 C   0  0  1  0  0  3  0  0  0  0  0  0
  181.0480  179.6330  140.1140 N   0  0  0  0  0  1  0  0  0  0  0  0
  179.4340  177.4900  142.1990 O   0  0  0  0  0  1  0  0  0  0  0  0
  180.0120  177.5800  140.9300 C   0  0  0  0  0  2  0  0  0  0  0  0
  1  2  2  0  0  0  0
  1  4  1  0  0  0  0
  2  5  1  0  0  0  0
  3  6  1  0  0  0  0
  4  3  2  0  0  0  0
  5  6  2  0  0  0  0
  6 14  1  0  0  0  0
  7  8  1  0  0  0  0
  8 11  1  0  0  0  0
  9 12  1  0  0  0  0
 11 10  1  0  0  0  0
 12 10  2  0  0  0  0
 12 15  1  0  0  0  0
 13  9  2  0  0  0  0
 14 13  1  0  0  0  0
 14  8  2  0  0  0  0
 16 18  1  0  0  0  0
 17 16  1  0  0  0  0
 18 20  1  1  0  0  0
 18  1  1  0  0  0  0
 19 21  1  0  0  0  0
 20 21  2  0  0  0  0
 22  2  1  1  0  0  0
 23 25  1  0  0  0  0
 23 26  1  0  0  0  0
 24 23  2  0  0  0  0
 25 26  1  0  0  0  0
 26 22  1  0  0  0  0
 27 22  1  6  0  0  0
 28 31  1  6  0  0  0
 28 27  1  0  0  0  0
 28 32  1  0  0  0  0
 29 28  1  0  0  0  0
 29 27  1  0  0  0  0
 30 31  2  0  0  0  0
 33 32  1  0  0  0  0
 33 34  1  0  0  0  0
 34 35  1  6  0  0  0
 37 34  1  0  0  0  0
 37 36  1  0  0  0  0
M  END
>  <MODEL>
4

>  <REMARK>
 VINA RESULT:      -7.2      3.757      6.396
  Name = 
  11 active torsions:
  status: ('A' for Active; 'I' for Inactive)
    1  A    between atoms: C_2  and  P_36
    2  A    between atoms: C_3  and  C_20
    3  A    between atoms: C_6  and  C_20
    4  A    between atoms: C_14  and  P_36
    5  A    between atoms: C_16  and  CA_24
    6  A    between atoms: C_16  and  C_25
    7  A    between atoms: C_20  and  N_28
    8  A    between atoms: CA_24  and  C_31
    9  A    between atoms: C_25  and  C_34
   10  A    between atoms: C_26  and  C_33
   11  A    between atoms: C_30  and  C_34
                            x       y       z     vdW  Elec       q    Type
                         _______ _______ _______ _____ _____    ______ ____

>  <TORSDO>
F 11

$$$$
=
 OpenBabel10222420303D

 37 40  0  0  1  0  0  0  0  0999 V2000
  181.8500  178.6790  141.6160 C   0  0  0  0  0  0  0  0  0  0  0  0
  182.8570  178.0240  140.8600 C   0  0  0  0  0  0  0  0  0  0  0  0
  183.4310  179.0060  143.4280 C   0  0  0  0  0  3  0  0  0  0  0  0
  182.1530  179.1640  142.8910 C   0  0  0  0  0  3  0  0  0  0  0  0
  184.1330  177.8720  141.4150 C   0  0  0  0  0  3  0  0  0  0  0  0
  184.4260  178.3460  142.7000 C   0  0  0  0  0  0  0  0  0  0  0  0
  184.6600  178.0240  145.7390 Cl  0  0  0  0  0  0  0  0  0  0  0  0
  185.9910  178.0640  144.5860 C   0  0  0  0  0  0  0  0  0  0  0  0
  188.0870  177.7110  142.3460 C   0  0  0  0  0  3  0  0  0  0  0  0
  188.1970  176.9590  144.6990 C   0  0  0  0  0  3  0  0  0  0  0  0
  187.3600  178.0960  145.1810 C   0  0  0  0  0  2  0  0  0  0  0  0
  188.5380  176.8060  143.4200 C   0  0  0  0  0  0  0  0  0  0  0  0
  186.9000  178.3270  142.2820 C   0  0  0  0  0  3  0  0  0  0  0  0
  185.7860  178.2200  143.2580 C   0  0  0  0  0  0  0  0  0  0  0  0
  189.6450  175.5170  143.0050 Cl  0  0  0  0  0  0  0  0  0  0  0  0
  178.9570  178.8650  142.2590 O   0  0  0  0  0  0  0  0  0  0  0  0
  178.9310  177.7370  141.5200 C   0  0  0  0  0  1  0  0  0  0  0  0
  180.1760  178.9350  141.0190 P   0  0  1  0  0  0  0  0  0  0  0  0
  179.7300  182.1260  138.6130 C   0  0  0  0  0  1  0  0  0  0  0  0
  179.7600  180.0160  139.6560 C   0  0  0  0  0  3  0  0  0  0  0  0
  180.0590  181.2600  139.7110 N   0  0  0  0  0  0  0  0  0  0  0  0
  182.6630  177.4940  139.4690 C   0  0  2  0  0  3  0  0  0  0  0  0
  180.5250  175.8760  138.7800 C   0  0  0  0  0  0  0  0  0  0  0  0
  179.4510  175.8550  137.5510 S   0  0  0  0  0  0  0  0  0  0  0  0
  181.0430  175.3100  139.9680 N   0  0  0  0  0  2  0  0  0  0  0  0
  181.6270  176.4750  139.4330 N   0  0  0  0  0  0  0  0  0  0  0  0
  183.9650  176.9860  138.8530 C   0  0  2  0  0  3  0  0  0  0  0  0
  184.1010  177.2720  137.4010 C   0  0  1  0  0  0  0  0  0  0  0  0
  183.6830  176.0140  137.8680 O   0  0  0  0  0  0  0  0  0  0  0  0
  182.4250  177.4000  135.7390 O   0  0  0  0  0  0  0  0  0  0  0  0
  183.0100  177.9720  136.6430 C   0  0  0  0  0  3  0  0  0  0  0  0
  185.5180  177.2340  136.8400 C   0  0  0  0  0  2  0  0  0  0  0  0
  186.4600  178.1550  137.6070 C   0  0  0  0  0  2  0  0  0  0  0  0
  187.8640  178.1280  137.0180 C   0  0  1  0  0  3  0  0  0  0  0  0
  188.5250  179.4070  137.2260 N   0  0  0  0  0  1  0  0  0  0  0  0
  188.7510  177.1440  139.0250 O   0  0  0  0  0  1  0  0  0  0  0  0
  188.6860  177.0060  137.6360 C   0  0  0  0  0  2  0  0  0  0  0  0
  1  4  1  0  0  0  0
  2  5  1  0  0  0  0
  2  1  2  0  0  0  0
  4  3  2  0  0  0  0
  5  6  2  0  0  0  0
  6 14  1  0  0  0  0
  6  3  1  0  0  0  0
  8 11  1  0  0  0  0
  8  7  1  0  0  0  0
  9 12  1  0  0  0  0
 10 11  1  0  0  0  0
 12 10  2  0  0  0  0
 13  9  2  0  0  0  0
 13 14  1  0  0  0  0
 14  8  2  0  0  0  0
 15 12  1  0  0  0  0
 17 16  1  0  0  0  0
 18 20  1  1  0  0  0
 18  1  1  0  0  0  0
 18 16  1  0  0  0  0
 19 21  1  0  0  0  0
 20 21  2  0  0  0  0
 22  2  1  1  0  0  0
 23 26  1  0  0  0  0
 23 25  1  0  0  0  0
 24 23  2  0  0  0  0
 26 22  1  0  0  0  0
 26 25  1  0  0  0  0
 27 22  1  6  0  0  0
 28 31  1  6  0  0  0
 28 29  1  0  0  0  0
 28 27  1  0  0  0  0
 29 27  1  0  0  0  0
 30 31  2  0  0  0  0
 32 28  1  0  0  0  0
 32 33  1  0  0  0  0
 34 35  1  1  0  0  0
 34 33  1  0  0  0  0
 34 37  1  0  0  0  0
 37 36  1  0  0  0  0
M  END
>  <MODEL>
5

>  <REMARK>
 VINA RESULT:      -7.0      2.352      4.516
  Name = 
  11 active torsions:
  status: ('A' for Active; 'I' for Inactive)
    1  A    between atoms: C_2  and  P_36
    2  A    between atoms: C_3  and  C_20
    3  A    between atoms: C_6  and  C_20
    4  A    between atoms: C_14  and  P_36
    5  A    between atoms: C_16  and  CA_24
    6  A    between atoms: C_16  and  C_25
    7  A    between atoms: C_20  and  N_28
    8  A    between atoms: CA_24  and  C_31
    9  A    between atoms: C_25  and  C_34
   10  A    between atoms: C_26  and  C_33
   11  A    between atoms: C_30  and  C_34
                            x       y       z     vdW  Elec       q    Type
                         _______ _______ _______ _____ _____    ______ ____

>  <TORSDO>
F 11

$$$$
=
 OpenBabel10222420303D

 37 40  0  0  1  0  0  0  0  0999 V2000
  181.9560  178.9270  142.3730 C   0  0  0  0  0  0  0  0  0  0  0  0
  182.9110  178.4650  141.4320 C   0  0  0  0  0  0  0  0  0  0  0  0
  183.6680  178.9470  144.0930 C   0  0  0  0  0  3  0  0  0  0  0  0
  182.3490  179.1650  143.6930 C   0  0  0  0  0  3  0  0  0  0  0  0
  184.2290  178.2490  141.8500 C   0  0  0  0  0  3  0  0  0  0  0  0
  184.6140  178.4740  143.1780 C   0  0  0  0  0  0  0  0  0  0  0  0
  185.1190  177.9810  146.1600 Cl  0  0  0  0  0  0  0  0  0  0  0  0
  186.3390  178.0540  144.8910 C   0  0  0  0  0  0  0  0  0  0  0  0
  188.2080  177.7760  142.4490 C   0  0  0  0  0  3  0  0  0  0  0  0
  188.5140  176.8940  144.7390 C   0  0  0  0  0  3  0  0  0  0  0  0
  187.7570  178.0220  145.3560 C   0  0  0  0  0  2  0  0  0  0  0  0
  188.7300  176.8040  143.4270 C   0  0  0  0  0  0  0  0  0  0  0  0
  187.0370  178.4210  142.5290 C   0  0  0  0  0  3  0  0  0  0  0  0
  186.0160  178.2870  143.5980 C   0  0  0  0  0  0  0  0  0  0  0  0
  189.7590  175.5140  142.8430 Cl  0  0  0  0  0  0  0  0  0  0  0  0
  179.0990  178.2910  142.8790 O   0  0  0  0  0  0  0  0  0  0  0  0
  179.1970  177.8090  141.6230 C   0  0  0  0  0  1  0  0  0  0  0  0
  180.2350  179.2400  141.9640 P   0  0  1  0  0  0  0  0  0  0  0  0
  178.9310  182.3810  139.8190 C   0  0  0  0  0  1  0  0  0  0  0  0
  179.6060  180.8370  141.4630 C   0  0  0  0  0  3  0  0  0  0  0  0
  179.4420  181.1000  140.2200 N   0  0  0  0  0  0  0  0  0  0  0  0
  182.6170  178.2090  139.9810 C   0  0  2  0  0  3  0  0  0  0  0  0
  181.9030  180.2110  138.2080 C   0  0  0  0  0  0  0  0  0  0  0  0
  180.8730  180.3120  136.9460 S   0  0  0  0  0  0  0  0  0  0  0  0
  182.8420  180.8120  139.0780 N   0  0  0  0  0  2  0  0  0  0  0  0
  182.5050  179.4550  139.2400 N   0  0  0  0  0  0  0  0  0  0  0  0
  181.3840  177.3310  139.7840 C   0  0  2  0  0  3  0  0  0  0  0  0
  181.6740  176.0090  139.1680 C   0  0  1  0  0  0  0  0  0  0  0  0
  181.1850  177.0850  138.4070 O   0  0  0  0  0  0  0  0  0  0  0  0
  183.5270  176.0210  137.7020 O   0  0  0  0  0  0  0  0  0  0  0  0
  183.0690  175.6320  138.7630 C   0  0  0  0  0  3  0  0  0  0  0  0
  180.6190  174.9280  139.3760 C   0  0  0  0  0  2  0  0  0  0  0  0
  179.9890  174.4860  138.0600 C   0  0  0  0  0  2  0  0  0  0  0  0
  180.7020  173.2700  137.4840 C   0  0  1  0  0  3  0  0  0  0  0  0
  179.8000  172.1300  137.4340 N   0  0  0  0  0  1  0  0  0  0  0  0
  180.7880  174.8110  135.6410 O   0  0  0  0  0  1  0  0  0  0  0  0
  181.2440  173.5710  136.0940 C   0  0  0  0  0  2  0  0  0  0  0  0
  1  4  1  0  0  0  0
  2  5  1  0  0  0  0
  2  1  2  0  0  0  0
  4  3  2  0  0  0  0
  5  6  2  0  0  0  0
  6 14  1  0  0  0  0
  6  3  1  0  0  0  0
  8 11  1  0  0  0  0
  8  7  1  0  0  0  0
  9 13  2  0  0  0  0
  9 12  1  0  0  0  0
 10 11  1  0  0  0  0
 12 10  2  0  0  0  0
 13 14  1  0  0  0  0
 14  8  2  0  0  0  0
 15 12  1  0  0  0  0
 17 16  1  0  0  0  0
 18 20  1  1  0  0  0
 18  1  1  0  0  0  0
 18 16  1  0  0  0  0
 19 21  1  0  0  0  0
 21 20  2  0  0  0  0
 22  2  1  1  0  0  0
 23 25  1  0  0  0  0
 23 26  1  0  0  0  0
 24 23  2  0  0  0  0
 25 26  1  0  0  0  0
 26 22  1  0  0  0  0
 27 22  1  6  0  0  0
 28 31  1  6  0  0  0
 28 32  1  0  0  0  0
 28 27  1  0  0  0  0
 29 28  1  0  0  0  0
 29 27  1  0  0  0  0
 30 31  2  0  0  0  0
 33 32  1  0  0  0  0
 34 35  1  6  0  0  0
 34 33  1  0  0  0  0
 36 37  1  0  0  0  0
 37 34  1  0  0  0  0
M  END
>  <MODEL>
6

>  <REMARK>
 VINA RESULT:      -6.9      2.420      4.588
  Name = 
  11 active torsions:
  status: ('A' for Active; 'I' for Inactive)
    1  A    between atoms: C_2  and  P_36
    2  A    between atoms: C_3  and  C_20
    3  A    between atoms: C_6  and  C_20
    4  A    between atoms: C_14  and  P_36
    5  A    between atoms: C_16  and  CA_24
    6  A    between atoms: C_16  and  C_25
    7  A    between atoms: C_20  and  N_28
    8  A    between atoms: CA_24  and  C_31
    9  A    between atoms: C_25  and  C_34
   10  A    between atoms: C_26  and  C_33
   11  A    between atoms: C_30  and  C_34
                            x       y       z     vdW  Elec       q    Type
                         _______ _______ _______ _____ _____    ______ ____

>  <TORSDO>
F 11

$$$$
=
 OpenBabel10222420303D

 37 40  0  0  1  0  0  0  0  0999 V2000
  189.8270  176.5920  139.8090 C   0  0  0  0  0  0  0  0  0  0  0  0
  188.5930  177.2880  139.8790 C   0  0  0  0  0  0  0  0  0  0  0  0
  190.0660  176.7890  142.2170 C   0  0  0  0  0  3  0  0  0  0  0  0
  190.5460  176.3490  140.9820 C   0  0  0  0  0  3  0  0  0  0  0  0
  188.1260  177.7240  141.1240 C   0  0  0  0  0  3  0  0  0  0  0  0
  188.8600  177.4920  142.2940 C   0  0  0  0  0  0  0  0  0  0  0  0
  185.8190  177.7460  142.5670 Cl  0  0  0  0  0  0  0  0  0  0  0  0
  187.0100  178.0470  143.8280 C   0  0  0  0  0  0  0  0  0  0  0  0
  189.2410  178.0690  145.9630 C   0  0  0  0  0  3  0  0  0  0  0  0
  186.8070  177.7750  146.2750 C   0  0  0  0  0  3  0  0  0  0  0  0
  186.4750  178.6280  145.0960 C   0  0  0  0  0  2  0  0  0  0  0  0
  188.0580  177.5470  146.6700 C   0  0  0  0  0  0  0  0  0  0  0  0
  189.3580  178.2350  144.6390 C   0  0  0  0  0  3  0  0  0  0  0  0
  188.3380  177.9160  143.6080 C   0  0  0  0  0  0  0  0  0  0  0  0
  188.3090  176.6530  148.1540 Cl  0  0  0  0  0  0  0  0  0  0  0  0
  192.2390  175.6460  138.3580 O   0  0  0  0  0  0  0  0  0  0  0  0
  192.0280  176.7920  137.6790 C   0  0  0  0  0  1  0  0  0  0  0  0
  190.5340  175.9830  138.2740 P   0  0  1  0  0  0  0  0  0  0  0  0
  188.9700  172.8530  136.2940 C   0  0  0  0  0  1  0  0  0  0  0  0
  189.6490  174.9540  137.1110 C   0  0  0  0  0  3  0  0  0  0  0  0
  189.6870  173.6790  137.2250 N   0  0  0  0  0  0  0  0  0  0  0  0
  187.7140  177.5760  138.6950 C   0  0  2  0  0  3  0  0  0  0  0  0
  188.8950  178.4890  136.3640 C   0  0  0  0  0  0  0  0  0  0  0  0
  189.0980  177.8780  134.8640 S   0  0  0  0  0  0  0  0  0  0  0  0
  189.0570  179.5440  137.2920 N   0  0  0  0  0  2  0  0  0  0  0  0
  188.4230  178.3510  137.6900 N   0  0  0  0  0  0  0  0  0  0  0  0
  186.4030  178.2500  139.0940 C   0  0  2  0  0  3  0  0  0  0  0  0
  185.2240  177.7890  138.3150 C   0  0  1  0  0  0  0  0  0  0  0  0
  185.8900  178.9870  138.0040 O   0  0  0  0  0  0  0  0  0  0  0  0
  185.4730  177.1330  136.0590 O   0  0  0  0  0  0  0  0  0  0  0  0
  185.3660  176.7730  137.2190 C   0  0  0  0  0  3  0  0  0  0  0  0
  183.8610  178.0400  138.9520 C   0  0  0  0  0  2  0  0  0  0  0  0
  182.7270  177.9120  137.9410 C   0  0  0  0  0  2  0  0  0  0  0  0
  181.9290  179.2040  137.8350 C   0  0  1  0  0  3  0  0  0  0  0  0
  180.5030  178.9240  137.8810 N   0  0  0  0  0  1  0  0  0  0  0  0
  182.2090  181.4910  138.5240 O   0  0  0  0  0  1  0  0  0  0  0  0
  182.3100  180.1650  138.9520 C   0  0  0  0  0  2  0  0  0  0  0  0
  1  2  2  0  0  0  0
  1  4  1  0  0  0  0
  2  5  1  0  0  0  0
  3  6  1  0  0  0  0
  4  3  2  0  0  0  0
  5  6  2  0  0  0  0
  6 14  1  0  0  0  0
  7  8  1  0  0  0  0
  8 11  1  0  0  0  0
  9 12  1  0  0  0  0
 10 12  2  0  0  0  0
 11 10  1  0  0  0  0
 12 15  1  0  0  0  0
 13  9  2  0  0  0  0
 14  8  2  0  0  0  0
 14 13  1  0  0  0  0
 17 16  1  0  0  0  0
 18 20  1  1  0  0  0
 18 16  1  0  0  0  0
 18  1  1  0  0  0  0
 19 21  1  0  0  0  0
 20 21  2  0  0  0  0
 22  2  1  1  0  0  0
 23 25  1  0  0  0  0
 23 26  1  0  0  0  0
 24 23  2  0  0  0  0
 25 26  1  0  0  0  0
 26 22  1  0  0  0  0
 27 22  1  6  0  0  0
 28 31  1  6  0  0  0
 28 32  1  0  0  0  0
 28 27  1  0  0  0  0
 29 28  1  0  0  0  0
 29 27  1  0  0  0  0
 30 31  2  0  0  0  0
 33 32  1  0  0  0  0
 34 35  1  1  0  0  0
 34 33  1  0  0  0  0
 34 37  1  0  0  0  0
 36 37  1  0  0  0  0
M  END
>  <MODEL>
7

>  <REMARK>
 VINA RESULT:      -6.9      4.097      6.554
  Name = 
  11 active torsions:
  status: ('A' for Active; 'I' for Inactive)
    1  A    between atoms: C_2  and  P_36
    2  A    between atoms: C_3  and  C_20
    3  A    between atoms: C_6  and  C_20
    4  A    between atoms: C_14  and  P_36
    5  A    between atoms: C_16  and  CA_24
    6  A    between atoms: C_16  and  C_25
    7  A    between atoms: C_20  and  N_28
    8  A    between atoms: CA_24  and  C_31
    9  A    between atoms: C_25  and  C_34
   10  A    between atoms: C_26  and  C_33
   11  A    between atoms: C_30  and  C_34
                            x       y       z     vdW  Elec       q    Type
                         _______ _______ _______ _____ _____    ______ ____

>  <TORSDO>
F 11

$$$$
=
 OpenBabel10222420303D

 37 40  0  0  1  0  0  0  0  0999 V2000
  188.2180  177.3740  137.8500 C   0  0  0  0  0  0  0  0  0  0  0  0
  189.2660  176.5370  138.3100 C   0  0  0  0  0  0  0  0  0  0  0  0
  188.0070  178.3230  140.0740 C   0  0  0  0  0  3  0  0  0  0  0  0
  187.6040  178.2600  138.7400 C   0  0  0  0  0  3  0  0  0  0  0  0
  189.6570  176.6110  139.6520 C   0  0  0  0  0  3  0  0  0  0  0  0
  189.0260  177.4890  140.5430 C   0  0  0  0  0  0  0  0  0  0  0  0
  186.8510  177.5930  142.6990 Cl  0  0  0  0  0  0  0  0  0  0  0  0
  188.5910  177.6340  142.9670 C   0  0  0  0  0  0  0  0  0  0  0  0
  191.6450  177.2330  143.1920 C   0  0  0  0  0  3  0  0  0  0  0  0
  189.9010  176.8110  144.8930 C   0  0  0  0  0  3  0  0  0  0  0  0
  189.0220  177.8980  144.3720 C   0  0  0  0  0  2  0  0  0  0  0  0
  191.0920  176.5330  144.3660 C   0  0  0  0  0  0  0  0  0  0  0  0
  190.9430  177.6970  142.1490 C   0  0  0  0  0  3  0  0  0  0  0  0
  189.4760  177.5920  141.9450 C   0  0  0  0  0  0  0  0  0  0  0  0
  192.0900  175.3340  145.1590 Cl  0  0  0  0  0  0  0  0  0  0  0  0
  188.6940  176.6000  135.0220 O   0  0  0  0  0  0  0  0  0  0  0  0
  188.7620  177.9390  134.8820 C   0  0  0  0  0  1  0  0  0  0  0  0
  187.6230  177.3730  136.1550 P   0  0  1  0  0  0  0  0  0  0  0  0
  183.6170  177.0430  136.2610 C   0  0  0  0  0  1  0  0  0  0  0  0
  185.8950  177.2630  135.7080 C   0  0  0  0  0  3  0  0  0  0  0  0
  185.0050  177.1250  136.6200 N   0  0  0  0  0  0  0  0  0  0  0  0
  190.0250  175.5730  137.4430 C   0  0  2  0  0  3  0  0  0  0  0  0
  188.0200  173.6940  137.1160 C   0  0  0  0  0  0  0  0  0  0  0  0
  186.3910  173.7260  137.2060 S   0  0  0  0  0  0  0  0  0  0  0  0
  189.2220  172.9910  136.8680 N   0  0  0  0  0  2  0  0  0  0  0  0
  189.2660  174.3530  137.2230 N   0  0  0  0  0  0  0  0  0  0  0  0
  191.4180  175.2710  137.9900 C   0  0  2  0  0  3  0  0  0  0  0  0
  192.5190  175.5390  137.0280 C   0  0  1  0  0  0  0  0  0  0  0  0
  192.0190  174.2410  137.2330 O   0  0  0  0  0  0  0  0  0  0  0  0
  193.1470  176.2370  134.8600 O   0  0  0  0  0  0  0  0  0  0  0  0
  192.2320  176.0310  135.6390 C   0  0  0  0  0  3  0  0  0  0  0  0
  193.9070  175.7200  137.6310 C   0  0  0  0  0  2  0  0  0  0  0  0
  194.8520  174.5900  137.2390 C   0  0  0  0  0  2  0  0  0  0  0  0
  196.0000  174.4570  138.2310 C   0  0  1  0  0  3  0  0  0  0  0  0
  195.8030  173.2930  139.0800 N   0  0  0  0  0  1  0  0  0  0  0  0
  197.7030  175.5920  136.9680 O   0  0  0  0  0  1  0  0  0  0  0  0
  197.3320  174.3550  137.5020 C   0  0  0  0  0  2  0  0  0  0  0  0
  1  2  2  0  0  0  0
  1  4  1  0  0  0  0
  2  5  1  0  0  0  0
  3  6  1  0  0  0  0
  4  3  2  0  0  0  0
  5  6  2  0  0  0  0
  6 14  1  0  0  0  0
  7  8  1  0  0  0  0
  8 11  1  0  0  0  0
  9 12  1  0  0  0  0
 11 10  1  0  0  0  0
 12 10  2  0  0  0  0
 12 15  1  0  0  0  0
 13  9  2  0  0  0  0
 14 13  1  0  0  0  0
 14  8  2  0  0  0  0
 16 18  1  0  0  0  0
 17 16  1  0  0  0  0
 18 20  1  1  0  0  0
 18  1  1  0  0  0  0
 19 21  1  0  0  0  0
 20 21  2  0  0  0  0
 22  2  1  1  0  0  0
 23 24  2  0  0  0  0
 23 26  1  0  0  0  0
 25 23  1  0  0  0  0
 25 26  1  0  0  0  0
 26 22  1  0  0  0  0
 27 22  1  6  0  0  0
 28 31  1  6  0  0  0
 28 29  1  0  0  0  0
 28 32  1  0  0  0  0
 28 27  1  0  0  0  0
 29 27  1  0  0  0  0
 30 31  2  0  0  0  0
 33 32  1  0  0  0  0
 33 34  1  0  0  0  0
 34 35  1  6  0  0  0
 36 37  1  0  0  0  0
 37 34  1  0  0  0  0
M  END
>  <MODEL>
8

>  <REMARK>
 VINA RESULT:      -6.9      6.610      9.943
  Name = 
  11 active torsions:
  status: ('A' for Active; 'I' for Inactive)
    1  A    between atoms: C_2  and  P_36
    2  A    between atoms: C_3  and  C_20
    3  A    between atoms: C_6  and  C_20
    4  A    between atoms: C_14  and  P_36
    5  A    between atoms: C_16  and  CA_24
    6  A    between atoms: C_16  and  C_25
    7  A    between atoms: C_20  and  N_28
    8  A    between atoms: CA_24  and  C_31
    9  A    between atoms: C_25  and  C_34
   10  A    between atoms: C_26  and  C_33
   11  A    between atoms: C_30  and  C_34
                            x       y       z     vdW  Elec       q    Type
                         _______ _______ _______ _____ _____    ______ ____

>  <TORSDO>
F 11

$$$$
=
 OpenBabel10222420303D

 37 40  0  0  1  0  0  0  0  0999 V2000
  191.8050  176.2170  138.2500 C   0  0  0  0  0  0  0  0  0  0  0  0
  190.4140  176.1950  137.9710 C   0  0  0  0  0  0  0  0  0  0  0  0
  191.3600  177.3410  140.3550 C   0  0  0  0  0  3  0  0  0  0  0  0
  192.2590  176.7880  139.4420 C   0  0  0  0  0  3  0  0  0  0  0  0
  189.5260  176.7560  138.8960 C   0  0  0  0  0  3  0  0  0  0  0  0
  189.9890  177.3420  140.0810 C   0  0  0  0  0  0  0  0  0  0  0  0
  187.2390  178.2090  139.0430 Cl  0  0  0  0  0  0  0  0  0  0  0  0
  187.8000  178.2910  140.7110 C   0  0  0  0  0  0  0  0  0  0  0  0
  188.8460  177.9070  143.5900 C   0  0  0  0  0  3  0  0  0  0  0  0
  186.5100  178.1160  142.8100 C   0  0  0  0  0  3  0  0  0  0  0  0
  186.8910  178.9930  141.6640 C   0  0  0  0  0  2  0  0  0  0  0  0
  187.3980  177.6480  143.6860 C   0  0  0  0  0  0  0  0  0  0  0  0
  189.5540  178.0180  142.4580 C   0  0  0  0  0  3  0  0  0  0  0  0
  189.0410  177.8900  141.0710 C   0  0  0  0  0  0  0  0  0  0  0  0
  186.8070  176.7530  145.0690 Cl  0  0  0  0  0  0  0  0  0  0  0  0
  194.1820  176.7030  136.5360 O   0  0  0  0  0  0  0  0  0  0  0  0
  193.2980  176.3720  135.5720 C   0  0  0  0  0  1  0  0  0  0  0  0
  193.0460  175.5340  137.1450 P   0  0  1  0  0  0  0  0  0  0  0  0
  195.4150  172.3880  137.9560 C   0  0  0  0  0  1  0  0  0  0  0  0
  193.7190  173.8850  137.3040 C   0  0  0  0  0  3  0  0  0  0  0  0
  194.8780  173.7140  137.8230 N   0  0  0  0  0  0  0  0  0  0  0  0
  189.8040  175.5790  136.7450 C   0  0  2  0  0  3  0  0  0  0  0  0
  188.4730  177.4670  135.2190 C   0  0  0  0  0  0  0  0  0  0  0  0
  186.9400  178.0260  135.1660 S   0  0  0  0  0  0  0  0  0  0  0  0
  189.8090  177.4980  134.7550 N   0  0  0  0  0  2  0  0  0  0  0  0
  189.4410  176.5950  135.7710 N   0  0  0  0  0  0  0  0  0  0  0  0
  188.6190  174.6760  137.0760 C   0  0  2  0  0  3  0  0  0  0  0  0
  188.6040  173.3940  136.3220 C   0  0  1  0  0  0  0  0  0  0  0  0
  187.8200  174.4910  135.9250 O   0  0  0  0  0  0  0  0  0  0  0  0
  190.1580  171.9630  135.2640 O   0  0  0  0  0  0  0  0  0  0  0  0
  189.6670  173.0780  135.3100 C   0  0  0  0  0  3  0  0  0  0  0  0
  187.7620  172.2740  136.9220 C   0  0  0  0  0  2  0  0  0  0  0  0
  186.5660  171.9260  136.0440 C   0  0  0  0  0  2  0  0  0  0  0  0
  185.2520  172.2500  136.7420 C   0  0  1  0  0  3  0  0  0  0  0  0
  185.5000  172.9910  137.9690 N   0  0  0  0  0  1  0  0  0  0  0  0
  183.0750  172.4510  135.7420 O   0  0  0  0  0  1  0  0  0  0  0  0
  184.3360  173.0460  135.8250 C   0  0  0  0  0  2  0  0  0  0  0  0
  1  4  1  0  0  0  0
  2  1  2  0  0  0  0
  2  5  1  0  0  0  0
  4  3  2  0  0  0  0
  5  6  2  0  0  0  0
  6  3  1  0  0  0  0
  6 14  1  0  0  0  0
  7  8  1  0  0  0  0
  8 14  2  0  0  0  0
  8 11  1  0  0  0  0
  9 12  1  0  0  0  0
 10 12  2  0  0  0  0
 11 10  1  0  0  0  0
 12 15  1  0  0  0  0
 13  9  2  0  0  0  0
 14 13  1  0  0  0  0
 16 18  1  0  0  0  0
 17 16  1  0  0  0  0
 18 20  1  1  0  0  0
 18  1  1  0  0  0  0
 20 21  2  0  0  0  0
 21 19  1  0  0  0  0
 22  2  1  1  0  0  0
 23 26  1  0  0  0  0
 24 23  2  0  0  0  0
 25 23  1  0  0  0  0
 25 26  1  0  0  0  0
 26 22  1  0  0  0  0
 27 22  1  6  0  0  0
 28 31  1  6  0  0  0
 28 32  1  0  0  0  0
 28 27  1  0  0  0  0
 29 28  1  0  0  0  0
 29 27  1  0  0  0  0
 30 31  2  0  0  0  0
 33 34  1  0  0  0  0
 33 32  1  0  0  0  0
 34 35  1  1  0  0  0
 36 37  1  0  0  0  0
 37 34  1  0  0  0  0
M  END
>  <MODEL>
9

>  <REMARK>
 VINA RESULT:      -6.6      6.503      9.907
  Name = 
  11 active torsions:
  status: ('A' for Active; 'I' for Inactive)
    1  A    between atoms: C_2  and  P_36
    2  A    between atoms: C_3  and  C_20
    3  A    between atoms: C_6  and  C_20
    4  A    between atoms: C_14  and  P_36
    5  A    between atoms: C_16  and  CA_24
    6  A    between atoms: C_16  and  C_25
    7  A    between atoms: C_20  and  N_28
    8  A    between atoms: CA_24  and  C_31
    9  A    between atoms: C_25  and  C_34
   10  A    between atoms: C_26  and  C_33
   11  A    between atoms: C_30  and  C_34
                            x       y       z     vdW  Elec       q    Type
                         _______ _______ _______ _____ _____    ______ ____

>  <TORSDO>
F 11

$$$$
