=
 OpenBabel10222415473D

 44 48  0  0  1  0  0  0  0  0999 V2000
  191.0780  177.4390  143.0020 C   0  0  0  0  0  3  0  0  0  0  0  0
  189.5080  177.4220  139.0600 C   0  0  0  0  0  2  0  0  0  0  0  0
  184.5720  179.1910  140.7510 O   0  0  0  0  0  0  0  0  0  0  0  0
  188.7170  177.4550  143.8780 C   0  0  0  0  0  0  0  0  0  0  0  0
  184.5620  178.5160  143.0130 C   0  0  0  0  0  3  0  0  0  0  0  0
  189.2980  175.9890  138.6000 C   0  0  0  0  0  2  0  0  0  0  0  0
  186.7150  177.5550  145.9010 C   0  0  0  0  0  3  0  0  0  0  0  0
  191.9370  177.4430  141.9510 N   0  0  0  0  0  0  0  0  0  0  0  0
  189.7000  177.4340  142.7720 C   0  0  0  0  0  0  0  0  0  0  0  0
  189.2570  177.4380  141.4880 N   0  0  0  0  0  0  0  0  0  0  0  0
  190.1050  177.4370  140.4260 C   0  0  0  0  0  0  0  0  0  0  0  0
  185.4050  178.8860  141.8300 C   0  0  2  0  0  3  0  0  0  0  0  0
  189.9810  176.9480  147.2200 C   0  0  0  0  0  3  0  0  0  0  0  0
  186.2410  180.1140  142.1480 C   0  0  0  0  0  1  0  0  0  0  0  0
  185.0120  178.0350  144.1800 C   0  0  0  0  0  3  0  0  0  0  0  0
  186.8680  176.6470  135.8120 C   0  0  0  0  0  3  0  0  0  0  0  0
  189.0570  177.2750  145.2250 C   0  0  0  0  0  0  0  0  0  0  0  0
  185.0050  176.4250  137.4240 N   0  0  0  0  0  2  0  0  0  0  0  0
  187.3990  177.6800  143.5890 N   0  0  0  0  0  0  0  0  0  0  0  0
  184.6970  177.8550  137.3910 C   0  0  0  0  0  2  0  0  0  0  0  0
  184.6740  178.1070  139.8740 C   0  0  0  0  0  2  0  0  0  0  0  0
  191.5000  177.4360  140.6640 C   0  0  0  0  0  0  0  0  0  0  0  0
  188.0380  177.3170  146.2280 C   0  0  0  0  0  0  0  0  0  0  0  0
  185.3300  178.5610  138.5810 C   0  0  0  0  0  2  0  0  0  0  0  0
  187.9640  175.8430  137.8920 C   0  0  0  0  0  2  0  0  0  0  0  0
  185.5640  175.9710  136.1450 C   0  0  1  0  0  3  0  0  0  0  0  0
  187.9520  176.5840  136.5910 C   0  0  0  0  0  3  0  0  0  0  0  0
  188.6160  177.1170  147.4590 C   0  0  0  0  0  2  0  0  0  0  0  0
  190.2600  177.0420  145.8540 C   0  0  0  0  0  3  0  0  0  0  0  0
  186.4110  177.7480  144.5420 C   0  0  0  0  0  0  0  0  0  0  0  0
  193.7560  177.1000  139.8060 N   0  0  0  0  0  2  0  0  0  0  0  0
  192.5260  177.4390  139.6030 C   0  0  0  0  0  3  0  0  0  0  0  0
  184.5690  176.1330  135.0050 C   0  0  0  0  0  2  0  0  0  0  0  0
  182.2000  176.1300  135.2510 O   0  0  0  0  0  0  0  0  0  0  0  0
  183.2770  175.4830  135.3470 C   0  0  0  0  0  0  0  0  0  0  0  0
  183.2770  174.1300  135.8030 N   0  0  0  0  0  2  0  0  0  0  0  0
  180.8430  173.3460  135.1770 O   0  0  0  0  0  0  0  0  0  0  0  0
  181.8380  173.3080  136.3030 S   0  0  0  0  0  0  0  0  0  0  0  0
  181.2520  174.0000  137.5030 O   0  0  0  0  0  0  0  0  0  0  0  0
  181.6620  170.6920  135.6440 C   0  0  0  0  0  2  0  0  0  0  0  0
  183.7910  170.2090  136.0300 C   0  0  0  0  0  2  0  0  0  0  0  0
  182.7290  169.9420  135.1530 O   0  0  0  0  0  0  0  0  0  0  0  0
  182.2210  171.6100  136.6940 C   0  0  1  0  0  3  0  0  0  0  0  0
  183.6020  171.4310  136.6870 O   0  0  0  0  0  0  0  0  0  0  0  0
  2 11  1  0  0  0  0
  3 12  1  0  0  0  0
  4 17  1  0  0  0  0
  5 15  2  0  0  0  0
  6  2  1  0  0  0  0
  7 23  1  0  0  0  0
  8  1  2  0  0  0  0
  9  1  1  0  0  0  0
  9  4  1  0  0  0  0
 10  9  2  0  0  0  0
 11 22  2  0  0  0  0
 11 10  1  0  0  0  0
 12 14  1  1  0  0  0
 12  5  1  0  0  0  0
 13 28  1  0  0  0  0
 15 30  1  0  0  0  0
 16 26  1  0  0  0  0
 16 27  2  0  0  0  0
 17 29  1  0  0  0  0
 17 23  2  0  0  0  0
 19  4  2  0  0  0  0
 19 30  1  0  0  0  0
 20 18  1  0  0  0  0
 20 24  1  0  0  0  0
 21  3  1  0  0  0  0
 22  8  1  0  0  0  0
 23 28  1  0  0  0  0
 24 21  1  0  0  0  0
 25  6  1  0  0  0  0
 26 33  1  6  0  0  0
 26 18  1  0  0  0  0
 27 25  1  0  0  0  0
 29 13  2  0  0  0  0
 30  7  2  0  0  0  0
 32 31  2  0  0  0  0
 32 22  1  0  0  0  0
 33 35  1  0  0  0  0
 34 35  2  0  0  0  0
 35 36  1  0  0  0  0
 36 38  1  0  0  0  0
 37 38  2  0  0  0  0
 38 39  2  0  0  0  0
 40 43  1  0  0  0  0
 41 44  1  0  0  0  0
 42 40  1  0  0  0  0
 42 41  1  0  0  0  0
 43 38  1  6  0  0  0
 44 43  1  0  0  0  0
M  END
>  <MODEL>
1

>  <REMARK>
 VINA RESULT:      -8.8      0.000      0.000
  Name = 
  5 active torsions:
  status: ('A' for Active; 'I' for Inactive)
    1  A    between atoms: S_11  and  N_26
    2  A    between atoms: S_11  and  C_38
    3  A    between atoms: C_25  and  C_40
    4  A    between atoms: C_32  and  C_41
    5  A    between atoms: C_36  and  C_40
                            x       y       z     vdW  Elec       q    Type
                         _______ _______ _______ _____ _____    ______ ____

>  <TORSDO>
F 5

$$$$
=
 OpenBabel10222415473D

 44 48  0  0  1  0  0  0  0  0999 V2000
  191.0530  177.4760  142.9890 C   0  0  0  0  0  3  0  0  0  0  0  0
  189.4630  177.4930  139.0550 C   0  0  0  0  0  2  0  0  0  0  0  0
  184.5300  179.2300  140.7880 O   0  0  0  0  0  0  0  0  0  0  0  0
  188.6950  177.4760  143.8770 C   0  0  0  0  0  0  0  0  0  0  0  0
  184.5330  178.5320  143.0430 C   0  0  0  0  0  3  0  0  0  0  0  0
  189.2560  176.0640  138.5820 C   0  0  0  0  0  2  0  0  0  0  0  0
  186.7030  177.5480  145.9110 C   0  0  0  0  0  3  0  0  0  0  0  0
  191.9060  177.4930  141.9350 N   0  0  0  0  0  0  0  0  0  0  0  0
  189.6740  177.4690  142.7670 C   0  0  0  0  0  0  0  0  0  0  0  0
  189.2240  177.4840  141.4840 N   0  0  0  0  0  0  0  0  0  0  0  0
  190.0670  177.4960  140.4190 C   0  0  0  0  0  0  0  0  0  0  0  0
  185.3690  178.9170  141.8600 C   0  0  2  0  0  3  0  0  0  0  0  0
  189.9770  176.9390  147.2070 C   0  0  0  0  0  3  0  0  0  0  0  0
  186.2020  180.1440  142.1860 C   0  0  0  0  0  1  0  0  0  0  0  0
  184.9910  178.0400  144.2030 C   0  0  0  0  0  3  0  0  0  0  0  0
  186.8100  176.7430  135.8130 C   0  0  0  0  0  3  0  0  0  0  0  0
  189.0420  177.2830  145.2210 C   0  0  0  0  0  0  0  0  0  0  0  0
  184.9560  176.4990  137.4320 N   0  0  0  0  0  2  0  0  0  0  0  0
  187.3750  177.6990  143.5970 N   0  0  0  0  0  0  0  0  0  0  0  0
  184.6430  177.9280  137.4140 C   0  0  0  0  0  2  0  0  0  0  0  0
  184.6310  178.1550  139.8990 C   0  0  0  0  0  2  0  0  0  0  0  0
  191.4630  177.4980  140.6500 C   0  0  0  0  0  0  0  0  0  0  0  0
  188.0290  177.3120  146.2290 C   0  0  0  0  0  0  0  0  0  0  0  0
  185.2790  178.6240  138.6080 C   0  0  0  0  0  2  0  0  0  0  0  0
  187.9180  175.9210  137.8790 C   0  0  0  0  0  2  0  0  0  0  0  0
  185.5090  176.0600  136.1450 C   0  0  1  0  0  3  0  0  0  0  0  0
  187.8970  176.6750  136.5860 C   0  0  0  0  0  3  0  0  0  0  0  0
  188.6130  177.1010  147.4550 C   0  0  0  0  0  2  0  0  0  0  0  0
  190.2490  177.0480  145.8420 C   0  0  0  0  0  3  0  0  0  0  0  0
  186.3920  177.7540  144.5550 C   0  0  0  0  0  0  0  0  0  0  0  0
  193.7010  177.1230  139.7630 N   0  0  0  0  0  2  0  0  0  0  0  0
  192.4840  177.5140  139.5830 C   0  0  0  0  0  3  0  0  0  0  0  0
  184.5080  176.2300  135.0120 C   0  0  0  0  0  2  0  0  0  0  0  0
  182.2920  175.4650  134.5940 O   0  0  0  0  0  0  0  0  0  0  0  0
  183.4050  175.2420  135.1400 C   0  0  0  0  0  0  0  0  0  0  0  0
  183.6170  174.0560  135.9050 N   0  0  0  0  0  2  0  0  0  0  0  0
  182.8700  171.8860  137.1940 O   0  0  0  0  0  0  0  0  0  0  0  0
  182.3750  172.8830  136.1840 S   0  0  0  0  0  0  0  0  0  0  0  0
  182.0570  172.1690  134.8990 O   0  0  0  0  0  0  0  0  0  0  0  0
  180.0530  172.7080  137.5560 C   0  0  0  0  0  2  0  0  0  0  0  0
  180.3700  174.5220  138.7890 C   0  0  0  0  0  2  0  0  0  0  0  0
  179.8700  173.2130  138.8420 O   0  0  0  0  0  0  0  0  0  0  0  0
  180.9170  173.6910  136.8200 C   0  0  1  0  0  3  0  0  0  0  0  0
  181.2900  174.6650  137.7420 O   0  0  0  0  0  0  0  0  0  0  0  0
  2 11  1  0  0  0  0
  3 12  1  0  0  0  0
  4 17  1  0  0  0  0
  5 15  2  0  0  0  0
  6  2  1  0  0  0  0
  7 23  1  0  0  0  0
  8  1  2  0  0  0  0
  9  1  1  0  0  0  0
  9  4  1  0  0  0  0
 10  9  2  0  0  0  0
 11 22  2  0  0  0  0
 11 10  1  0  0  0  0
 12 14  1  1  0  0  0
 12  5  1  0  0  0  0
 13 28  1  0  0  0  0
 15 30  1  0  0  0  0
 16 26  1  0  0  0  0
 16 27  2  0  0  0  0
 17 29  1  0  0  0  0
 17 23  2  0  0  0  0
 19  4  2  0  0  0  0
 19 30  1  0  0  0  0
 20 18  1  0  0  0  0
 20 24  1  0  0  0  0
 21  3  1  0  0  0  0
 22  8  1  0  0  0  0
 23 28  1  0  0  0  0
 24 21  1  0  0  0  0
 25  6  1  0  0  0  0
 26 33  1  6  0  0  0
 26 18  1  0  0  0  0
 27 25  1  0  0  0  0
 29 13  2  0  0  0  0
 30  7  2  0  0  0  0
 32 31  2  0  0  0  0
 32 22  1  0  0  0  0
 33 35  1  0  0  0  0
 34 35  2  0  0  0  0
 35 36  1  0  0  0  0
 36 38  1  0  0  0  0
 38 37  2  0  0  0  0
 39 38  2  0  0  0  0
 40 42  1  0  0  0  0
 41 42  1  0  0  0  0
 43 38  1  1  0  0  0
 43 40  1  0  0  0  0
 43 44  1  0  0  0  0
 44 41  1  0  0  0  0
M  END
>  <MODEL>
2

>  <REMARK>
 VINA RESULT:      -8.8      1.056      1.696
  Name = 
  5 active torsions:
  status: ('A' for Active; 'I' for Inactive)
    1  A    between atoms: S_11  and  N_26
    2  A    between atoms: S_11  and  C_38
    3  A    between atoms: C_25  and  C_40
    4  A    between atoms: C_32  and  C_41
    5  A    between atoms: C_36  and  C_40
                            x       y       z     vdW  Elec       q    Type
                         _______ _______ _______ _____ _____    ______ ____

>  <TORSDO>
F 5

$$$$
=
 OpenBabel10222415473D

 44 48  0  0  1  0  0  0  0  0999 V2000
  191.5770  177.1530  142.0790 C   0  0  0  0  0  3  0  0  0  0  0  0
  189.4110  177.2370  138.4310 C   0  0  0  0  0  2  0  0  0  0  0  0
  184.8490  179.1030  140.8950 O   0  0  0  0  0  0  0  0  0  0  0  0
  189.3820  177.2140  143.3140 C   0  0  0  0  0  0  0  0  0  0  0  0
  185.1740  178.3930  143.1220 C   0  0  0  0  0  3  0  0  0  0  0  0
  189.0920  175.8180  137.9930 C   0  0  0  0  0  2  0  0  0  0  0  0
  187.7240  177.3320  145.6260 C   0  0  0  0  0  3  0  0  0  0  0  0
  192.2600  177.1510  140.9070 N   0  0  0  0  0  0  0  0  0  0  0  0
  190.1800  177.1860  142.0680 C   0  0  0  0  0  0  0  0  0  0  0  0
  189.5420  177.2220  140.8690 N   0  0  0  0  0  0  0  0  0  0  0  0
  190.2130  177.2150  139.6880 C   0  0  0  0  0  0  0  0  0  0  0  0
  185.8320  178.7610  141.8270 C   0  0  2  0  0  3  0  0  0  0  0  0
  191.1380  176.6230  146.4110 C   0  0  0  0  0  3  0  0  0  0  0  0
  186.7400  179.9620  142.0240 C   0  0  0  0  0  1  0  0  0  0  0  0
  185.7870  177.8820  144.1990 C   0  0  0  0  0  3  0  0  0  0  0  0
  186.2760  176.5810  135.6280 C   0  0  0  0  0  3  0  0  0  0  0  0
  189.9230  177.0040  144.5900 C   0  0  0  0  0  0  0  0  0  0  0  0
  184.6820  176.3810  137.5090 N   0  0  0  0  0  2  0  0  0  0  0  0
  188.0420  177.4770  143.2380 N   0  0  0  0  0  0  0  0  0  0  0  0
  184.4120  177.8190  137.5410 C   0  0  0  0  0  2  0  0  0  0  0  0
  184.7840  178.0310  139.9990 C   0  0  0  0  0  2  0  0  0  0  0  0
  191.6280  177.1760  139.7040 C   0  0  0  0  0  0  0  0  0  0  0  0
  189.0750  177.0560  145.7390 C   0  0  0  0  0  0  0  0  0  0  0  0
  185.2410  178.4890  138.6250 C   0  0  0  0  0  2  0  0  0  0  0  0
  187.6600  175.7170  137.5010 C   0  0  0  0  0  2  0  0  0  0  0  0
  185.0220  175.9340  136.1530 C   0  0  1  0  0  3  0  0  0  0  0  0
  187.4660  176.4780  136.2270 C   0  0  0  0  0  3  0  0  0  0  0  0
  189.8320  176.8220  146.8630 C   0  0  0  0  0  2  0  0  0  0  0  0
  191.2030  176.7310  145.0200 C   0  0  0  0  0  3  0  0  0  0  0  0
  187.2170  177.5540  144.3340 C   0  0  0  0  0  0  0  0  0  0  0  0
  193.6720  176.6850  138.4730 N   0  0  0  0  0  2  0  0  0  0  0  0
  192.4760  177.1700  138.4960 C   0  0  0  0  0  3  0  0  0  0  0  0
  183.8660  176.1380  135.1840 C   0  0  0  0  0  2  0  0  0  0  0  0
  182.0450  174.6580  134.7770 O   0  0  0  0  0  0  0  0  0  0  0  0
  182.6810  175.3520  135.6160 C   0  0  0  0  0  0  0  0  0  0  0  0
  182.2650  175.4100  136.9790 N   0  0  0  0  0  2  0  0  0  0  0  0
  180.9850  174.4110  139.0520 O   0  0  0  0  0  0  0  0  0  0  0  0
  180.8530  174.5970  137.5660 S   0  0  0  0  0  0  0  0  0  0  0  0
  180.7350  173.2500  136.9080 O   0  0  0  0  0  0  0  0  0  0  0  0
  179.5320  176.9380  137.8560 C   0  0  0  0  0  2  0  0  0  0  0  0
  178.9400  177.1390  135.7300 C   0  0  0  0  0  2  0  0  0  0  0  0
  179.3830  177.8770  136.8380 O   0  0  0  0  0  0  0  0  0  0  0  0
  179.4060  175.5820  137.2220 C   0  0  1  0  0  3  0  0  0  0  0  0
  179.3010  175.7910  135.8500 O   0  0  0  0  0  0  0  0  0  0  0  0
  2 11  1  0  0  0  0
  3 12  1  0  0  0  0
  4 17  1  0  0  0  0
  5 15  2  0  0  0  0
  6  2  1  0  0  0  0
  7 23  1  0  0  0  0
  8  1  2  0  0  0  0
  9  1  1  0  0  0  0
  9  4  1  0  0  0  0
 10  9  2  0  0  0  0
 11 22  2  0  0  0  0
 11 10  1  0  0  0  0
 12 14  1  1  0  0  0
 12  5  1  0  0  0  0
 13 28  1  0  0  0  0
 15 30  1  0  0  0  0
 16 26  1  0  0  0  0
 16 27  2  0  0  0  0
 17 29  1  0  0  0  0
 17 23  2  0  0  0  0
 18 20  1  0  0  0  0
 19  4  2  0  0  0  0
 19 30  1  0  0  0  0
 20 24  1  0  0  0  0
 21  3  1  0  0  0  0
 22  8  1  0  0  0  0
 23 28  1  0  0  0  0
 24 21  1  0  0  0  0
 25  6  1  0  0  0  0
 26 33  1  6  0  0  0
 26 18  1  0  0  0  0
 27 25  1  0  0  0  0
 29 13  2  0  0  0  0
 30  7  2  0  0  0  0
 31 32  2  0  0  0  0
 32 22  1  0  0  0  0
 33 35  1  0  0  0  0
 34 35  2  0  0  0  0
 35 36  1  0  0  0  0
 36 38  1  0  0  0  0
 38 37  2  0  0  0  0
 39 38  2  0  0  0  0
 41 44  1  0  0  0  0
 41 42  1  0  0  0  0
 42 40  1  0  0  0  0
 43 38  1  6  0  0  0
 43 40  1  0  0  0  0
 44 43  1  0  0  0  0
M  END
>  <MODEL>
3

>  <REMARK>
 VINA RESULT:      -7.0      1.722      2.665
  Name = 
  5 active torsions:
  status: ('A' for Active; 'I' for Inactive)
    1  A    between atoms: S_11  and  N_26
    2  A    between atoms: S_11  and  C_38
    3  A    between atoms: C_25  and  C_40
    4  A    between atoms: C_32  and  C_41
    5  A    between atoms: C_36  and  C_40
                            x       y       z     vdW  Elec       q    Type
                         _______ _______ _______ _____ _____    ______ ____

>  <TORSDO>
F 5

$$$$
=
 OpenBabel10222415473D

 44 48  0  0  1  0  0  0  0  0999 V2000
  182.4090  178.8020  136.4690 C   0  0  0  0  0  3  0  0  0  0  0  0
  184.1160  177.6070  140.1650 C   0  0  0  0  0  2  0  0  0  0  0  0
  179.9450  179.7390  143.0660 O   0  0  0  0  0  0  0  0  0  0  0  0
  180.9650  180.4340  137.7330 C   0  0  0  0  0  0  0  0  0  0  0  0
  179.0970  181.3640  141.5770 C   0  0  0  0  0  3  0  0  0  0  0  0
  185.3220  178.4770  140.4760 C   0  0  0  0  0  2  0  0  0  0  0  0
  178.9310  182.4090  138.0030 C   0  0  0  0  0  3  0  0  0  0  0  0
  183.3550  177.8300  136.4730 N   0  0  0  0  0  0  0  0  0  0  0  0
  182.0100  179.3880  137.6730 C   0  0  0  0  0  0  0  0  0  0  0  0
  182.5860  178.9570  138.8260 N   0  0  0  0  0  0  0  0  0  0  0  0
  183.5380  177.9890  138.8440 C   0  0  0  0  0  0  0  0  0  0  0  0
  179.8540  180.0770  141.7130 C   0  0  2  0  0  3  0  0  0  0  0  0
  179.8630  181.8450  134.5990 C   0  0  0  0  0  3  0  0  0  0  0  0
  179.1210  178.9600  140.9920 C   0  0  0  0  0  1  0  0  0  0  0  0
  178.9320  182.0630  140.4460 C   0  0  0  0  0  3  0  0  0  0  0  0
  185.5380  177.8340  144.1700 C   0  0  0  0  0  3  0  0  0  0  0  0
  180.4370  181.0720  136.6020 C   0  0  0  0  0  0  0  0  0  0  0  0
  184.0270  179.7530  144.5620 N   0  0  0  0  0  2  0  0  0  0  0  0
  180.4600  180.7990  138.9500 N   0  0  0  0  0  2  0  0  0  0  0  0
  182.9090  178.8970  144.9610 C   0  0  0  0  0  2  0  0  0  0  0  0
  181.2690  179.9950  143.4340 C   0  0  0  0  0  2  0  0  0  0  0  0
  183.9430  177.4020  137.6220 C   0  0  0  0  0  0  0  0  0  0  0  0
  179.4240  182.0690  136.7560 C   0  0  0  0  0  0  0  0  0  0  0  0
  181.9570  178.6900  143.7930 C   0  0  0  0  0  2  0  0  0  0  0  0
  185.3200  178.8950  141.9350 C   0  0  0  0  0  2  0  0  0  0  0  0
  185.3160  179.1350  144.8960 C   0  0  1  0  0  3  0  0  0  0  0  0
  185.5490  177.7250  142.8390 C   0  0  0  0  0  3  0  0  0  0  0  0
  179.0700  182.5410  135.5140 C   0  0  0  0  0  3  0  0  0  0  0  0
  180.7030  180.9440  135.2560 C   0  0  0  0  0  3  0  0  0  0  0  0
  179.4700  181.7370  139.1140 C   0  0  0  0  0  0  0  0  0  0  0  0
  185.7220  176.2010  136.4690 N   0  0  0  0  0  2  0  0  0  0  0  0
  184.9620  176.3400  137.5040 C   0  0  0  0  0  3  0  0  0  0  0  0
  185.4800  178.9480  146.3970 C   0  0  0  0  0  2  0  0  0  0  0  0
  187.1300  178.1170  147.8990 O   0  0  0  0  0  0  0  0  0  0  0  0
  186.8070  178.3540  146.7050 C   0  0  0  0  0  0  0  0  0  0  0  0
  187.7110  178.0780  145.6360 N   0  0  0  0  0  2  0  0  0  0  0  0
  189.2520  176.3930  146.9460 O   0  0  0  0  0  0  0  0  0  0  0  0
  189.3100  177.4640  145.8920 S   0  0  0  0  0  0  0  0  0  0  0  0
  190.2080  178.5740  146.3650 O   0  0  0  0  0  0  0  0  0  0  0  0
  188.8010  176.3270  143.4930 C   0  0  0  0  0  2  0  0  0  0  0  0
  190.2370  177.5600  142.3400 C   0  0  0  0  0  2  0  0  0  0  0  0
  188.9610  176.9820  142.2740 O   0  0  0  0  0  0  0  0  0  0  0  0
  189.9360  176.7640  144.3750 C   0  0  1  0  0  3  0  0  0  0  0  0
  190.6380  177.7370  143.6700 O   0  0  0  0  0  0  0  0  0  0  0  0
  1  8  2  0  0  0  0
  1  9  1  0  0  0  0
  2  6  1  0  0  0  0
  3 21  1  0  0  0  0
  4 19  1  0  0  0  0
  5 12  1  0  0  0  0
  6 25  1  0  0  0  0
  7 30  2  0  0  0  0
  8 22  1  0  0  0  0
  9  4  1  0  0  0  0
  9 10  2  0  0  0  0
 10 11  1  0  0  0  0
 11  2  1  0  0  0  0
 12 14  1  6  0  0  0
 12  3  1  0  0  0  0
 13 29  2  0  0  0  0
 13 28  1  0  0  0  0
 15  5  2  0  0  0  0
 16 26  1  0  0  0  0
 17 23  1  0  0  0  0
 17  4  2  0  0  0  0
 18 26  1  0  0  0  0
 18 20  1  0  0  0  0
 19 30  1  0  0  0  0
 21 24  1  0  0  0  0
 22 11  2  0  0  0  0
 23  7  1  0  0  0  0
 24 20  1  0  0  0  0
 25 27  1  0  0  0  0
 26 33  1  1  0  0  0
 27 16  2  0  0  0  0
 28 23  2  0  0  0  0
 29 17  1  0  0  0  0
 30 15  1  0  0  0  0
 31 32  2  0  0  0  0
 32 22  1  0  0  0  0
 33 35  1  0  0  0  0
 35 34  2  0  0  0  0
 36 38  1  0  0  0  0
 36 35  1  0  0  0  0
 38 39  2  0  0  0  0
 38 37  2  0  0  0  0
 40 43  1  0  0  0  0
 41 44  1  0  0  0  0
 42 41  1  0  0  0  0
 42 40  1  0  0  0  0
 43 38  1  1  0  0  0
 44 43  1  0  0  0  0
M  END
>  <MODEL>
4

>  <REMARK>
 VINA RESULT:      -6.8      4.948     10.379
  Name = 
  5 active torsions:
  status: ('A' for Active; 'I' for Inactive)
    1  A    between atoms: S_11  and  N_26
    2  A    between atoms: S_11  and  C_38
    3  A    between atoms: C_25  and  C_40
    4  A    between atoms: C_32  and  C_41
    5  A    between atoms: C_36  and  C_40
                            x       y       z     vdW  Elec       q    Type
                         _______ _______ _______ _____ _____    ______ ____

>  <TORSDO>
F 5

$$$$
=
 OpenBabel10222415473D

 44 48  0  0  1  0  0  0  0  0999 V2000
  191.0550  176.8880  140.3670 C   0  0  0  0  0  3  0  0  0  0  0  0
  187.0010  177.5600  141.4280 C   0  0  0  0  0  2  0  0  0  0  0  0
  185.1380  175.0250  136.9050 O   0  0  0  0  0  0  0  0  0  0  0  0
  190.3030  176.4720  137.9990 C   0  0  0  0  0  0  0  0  0  0  0  0
  186.9810  175.2220  135.4430 C   0  0  0  0  0  3  0  0  0  0  0  0
  186.6620  179.0300  141.2470 C   0  0  0  0  0  2  0  0  0  0  0  0
  190.6630  175.7740  135.2620 C   0  0  0  0  0  3  0  0  0  0  0  0
  190.7510  177.1800  141.6570 N   0  0  0  0  0  0  0  0  0  0  0  0
  190.0350  176.8100  139.4150 C   0  0  0  0  0  0  0  0  0  0  0  0
  188.7550  177.0260  139.8160 N   0  0  0  0  0  0  0  0  0  0  0  0
  188.4370  177.3240  141.1030 C   0  0  0  0  0  0  0  0  0  0  0  0
  186.5260  175.1810  136.8700 C   0  0  2  0  0  3  0  0  0  0  0  0
  193.7530  176.4040  136.9440 C   0  0  0  0  0  3  0  0  0  0  0  0
  187.1550  173.9990  137.5870 C   0  0  0  0  0  1  0  0  0  0  0  0
  188.2230  175.4950  135.0210 C   0  0  0  0  0  3  0  0  0  0  0  0
  182.9220  178.7270  141.0910 C   0  0  0  0  0  3  0  0  0  0  0  0
  191.5880  176.4050  137.4450 C   0  0  0  0  0  0  0  0  0  0  0  0
  183.0780  178.4390  138.6390 N   0  0  0  0  0  2  0  0  0  0  0  0
  189.2500  176.1860  137.1750 N   0  0  0  0  0  0  0  0  0  0  0  0
  182.7130  177.0230  138.7000 C   0  0  0  0  0  2  0  0  0  0  0  0
  184.6240  176.2700  137.2820 C   0  0  0  0  0  2  0  0  0  0  0  0
  189.4740  177.4080  142.0630 C   0  0  0  0  0  0  0  0  0  0  0  0
  191.7510  176.0640  136.0660 C   0  0  0  0  0  0  0  0  0  0  0  0
  183.9590  176.1520  138.6430 C   0  0  0  0  0  2  0  0  0  0  0  0
  185.3080  179.1900  140.5810 C   0  0  0  0  0  2  0  0  0  0  0  0
  182.4600  179.1940  139.7350 C   0  0  1  0  0  3  0  0  0  0  0  0
  184.2010  178.7320  141.4770 C   0  0  0  0  0  3  0  0  0  0  0  0
  193.0920  176.0620  135.7630 C   0  0  0  0  0  3  0  0  0  0  0  0
  192.8400  176.6170  137.9790 C   0  0  0  0  0  2  0  0  0  0  0  0
  189.3900  175.8330  135.8550 C   0  0  0  0  0  0  0  0  0  0  0  0
  190.0920  178.4210  144.1910 N   0  0  0  0  0  2  0  0  0  0  0  0
  189.2640  177.7180  143.4910 C   0  0  0  0  0  3  0  0  0  0  0  0
  180.9410  179.1750  139.6490 C   0  0  0  0  0  2  0  0  0  0  0  0
  179.5570  181.0970  139.4080 O   0  0  0  0  0  0  0  0  0  0  0  0
  180.4480  180.3620  138.9040 C   0  0  0  0  0  0  0  0  0  0  0  0
  180.9780  180.6430  137.6100 N   0  0  0  0  0  2  0  0  0  0  0  0
  178.9310  181.8060  136.4340 O   0  0  0  0  0  0  0  0  0  0  0  0
  180.4140  181.9510  136.6260 S   0  0  0  0  0  0  0  0  0  0  0  0
  181.0930  181.9030  135.2840 O   0  0  0  0  0  0  0  0  0  0  0  0
  181.2090  184.5280  136.4370 C   0  0  0  0  0  2  0  0  0  0  0  0
  179.6030  185.3630  137.7150 C   0  0  0  0  0  2  0  0  0  0  0  0
  180.3470  185.6160  136.5540 O   0  0  0  0  0  0  0  0  0  0  0  0
  180.7550  183.5030  137.4370 C   0  0  1  0  0  3  0  0  0  0  0  0
  179.5850  183.9950  138.0100 O   0  0  0  0  0  0  0  0  0  0  0  0
  1  8  1  0  0  0  0
  3 21  1  0  0  0  0
  4  9  1  0  0  0  0
  5 12  1  0  0  0  0
  6  2  1  0  0  0  0
  7 30  2  0  0  0  0
  7 23  1  0  0  0  0
  8 22  2  0  0  0  0
  9 10  1  0  0  0  0
  9  1  2  0  0  0  0
 10 11  2  0  0  0  0
 11  2  1  0  0  0  0
 11 22  1  0  0  0  0
 12  3  1  0  0  0  0
 12 14  1  1  0  0  0
 13 29  1  0  0  0  0
 15  5  2  0  0  0  0
 15 30  1  0  0  0  0
 16 27  2  0  0  0  0
 17 29  1  0  0  0  0
 17  4  1  0  0  0  0
 18 20  1  0  0  0  0
 18 26  1  0  0  0  0
 19  4  2  0  0  0  0
 21 24  1  0  0  0  0
 22 32  1  0  0  0  0
 23 17  2  0  0  0  0
 24 20  1  0  0  0  0
 25  6  1  0  0  0  0
 25 27  1  0  0  0  0
 26 33  1  1  0  0  0
 26 16  1  0  0  0  0
 28 23  1  0  0  0  0
 28 13  2  0  0  0  0
 30 19  1  0  0  0  0
 32 31  2  0  0  0  0
 35 34  2  0  0  0  0
 35 33  1  0  0  0  0
 36 35  1  0  0  0  0
 37 38  2  0  0  0  0
 38 36  1  0  0  0  0
 39 38  2  0  0  0  0
 40 42  1  0  0  0  0
 40 43  1  0  0  0  0
 41 44  1  0  0  0  0
 42 41  1  0  0  0  0
 43 38  1  6  0  0  0
 43 44  1  0  0  0  0
M  END
>  <MODEL>
5

>  <REMARK>
 VINA RESULT:      -6.7      4.112      8.089
  Name = 
  5 active torsions:
  status: ('A' for Active; 'I' for Inactive)
    1  A    between atoms: S_11  and  N_26
    2  A    between atoms: S_11  and  C_38
    3  A    between atoms: C_25  and  C_40
    4  A    between atoms: C_32  and  C_41
    5  A    between atoms: C_36  and  C_40
                            x       y       z     vdW  Elec       q    Type
                         _______ _______ _______ _____ _____    ______ ____

>  <TORSDO>
F 5

$$$$
=
 OpenBabel10222415473D

 44 48  0  0  1  0  0  0  0  0999 V2000
  180.2950  176.4950  139.1680 C   0  0  0  0  0  3  0  0  0  0  0  0
  183.7530  178.5560  140.5100 C   0  0  0  0  0  2  0  0  0  0  0  0
  186.9150  176.3100  136.5970 O   0  0  0  0  0  0  0  0  0  0  0  0
  181.8010  174.8920  137.9410 C   0  0  0  0  0  0  0  0  0  0  0  0
  185.7190  174.3420  136.0760 C   0  0  0  0  0  3  0  0  0  0  0  0
  184.2290  177.9550  141.8220 C   0  0  0  0  0  2  0  0  0  0  0  0
  182.3790  172.6930  136.2250 C   0  0  0  0  0  3  0  0  0  0  0  0
  180.1450  177.5910  139.9530 N   0  0  0  0  0  0  0  0  0  0  0  0
  181.5760  176.0650  138.8130 C   0  0  0  0  0  0  0  0  0  0  0  0
  182.6450  176.7720  139.2660 N   0  0  0  0  0  0  0  0  0  0  0  0
  182.5100  177.8690  140.0560 C   0  0  0  0  0  0  0  0  0  0  0  0
  185.6410  175.7370  136.6180 C   0  0  2  0  0  3  0  0  0  0  0  0
  178.9440  172.8130  137.2050 C   0  0  0  0  0  3  0  0  0  0  0  0
  184.7240  176.5840  135.7530 C   0  0  0  0  0  1  0  0  0  0  0  0
  184.7250  173.4440  136.0690 C   0  0  0  0  0  3  0  0  0  0  0  0
  187.7580  179.2410  141.7780 C   0  0  0  0  0  3  0  0  0  0  0  0
  180.7910  173.9950  137.5670 C   0  0  0  0  0  0  0  0  0  0  0  0
  188.4540  177.2000  140.5650 N   0  0  0  0  0  2  0  0  0  0  0  0
  183.0550  174.6630  137.4460 N   0  0  0  0  0  0  0  0  0  0  0  0
  188.6800  177.9230  139.3130 C   0  0  0  0  0  2  0  0  0  0  0  0
  187.3430  176.3340  137.9280 C   0  0  0  0  0  2  0  0  0  0  0  0
  181.2100  178.2960  140.4170 C   0  0  0  0  0  0  0  0  0  0  0  0
  181.1000  172.8910  136.7140 C   0  0  0  0  0  0  0  0  0  0  0  0
  187.4790  177.7750  138.3910 C   0  0  0  0  0  2  0  0  0  0  0  0
  185.7380  177.7960  141.8220 C   0  0  0  0  0  2  0  0  0  0  0  0
  188.6950  178.0630  141.7270 C   0  0  1  0  0  3  0  0  0  0  0  0
  186.4280  179.1230  141.8290 C   0  0  0  0  0  3  0  0  0  0  0  0
  179.9540  172.1640  136.4910 C   0  0  0  0  0  3  0  0  0  0  0  0
  179.4480  173.9350  137.8670 C   0  0  0  0  0  2  0  0  0  0  0  0
  183.3650  173.6210  136.6070 C   0  0  0  0  0  0  0  0  0  0  0  0
  180.7150  179.3920  142.5360 N   0  0  0  0  0  2  0  0  0  0  0  0
  180.9250  179.4710  141.2650 C   0  0  0  0  0  3  0  0  0  0  0  0
  190.1430  178.5260  141.7960 C   0  0  0  0  0  2  0  0  0  0  0  0
  192.0440  177.8010  143.0350 O   0  0  0  0  0  0  0  0  0  0  0  0
  190.7990  178.0000  143.0220 C   0  0  0  0  0  0  0  0  0  0  0  0
  190.0020  177.7060  144.1680 N   0  0  0  0  0  2  0  0  0  0  0  0
  191.6970  177.9460  146.1680 O   0  0  0  0  0  0  0  0  0  0  0  0
  190.6540  177.0140  145.6140 S   0  0  0  0  0  0  0  0  0  0  0  0
  191.2940  175.6900  145.2970 O   0  0  0  0  0  0  0  0  0  0  0  0
  189.6130  177.6600  148.0230 C   0  0  0  0  0  2  0  0  0  0  0  0
  187.5320  177.9410  147.3120 C   0  0  0  0  0  2  0  0  0  0  0  0
  188.4890  178.4670  148.1920 O   0  0  0  0  0  0  0  0  0  0  0  0
  189.3550  176.8010  146.8180 C   0  0  1  0  0  3  0  0  0  0  0  0
  188.1450  177.2250  146.2760 O   0  0  0  0  0  0  0  0  0  0  0  0
  1  8  1  0  0  0  0
  2  6  1  0  0  0  0
  3 12  1  0  0  0  0
  3 21  1  0  0  0  0
  4  9  1  0  0  0  0
  5 12  1  0  0  0  0
  6 25  1  0  0  0  0
  7 30  2  0  0  0  0
  7 23  1  0  0  0  0
  8 22  2  0  0  0  0
  9  1  2  0  0  0  0
  9 10  1  0  0  0  0
 10 11  2  0  0  0  0
 11 22  1  0  0  0  0
 11  2  1  0  0  0  0
 12 14  1  6  0  0  0
 13 29  1  0  0  0  0
 15  5  2  0  0  0  0
 15 30  1  0  0  0  0
 16 27  2  0  0  0  0
 17 29  1  0  0  0  0
 17  4  1  0  0  0  0
 18 26  1  0  0  0  0
 19  4  2  0  0  0  0
 20 18  1  0  0  0  0
 21 24  1  0  0  0  0
 22 32  1  0  0  0  0
 23 17  2  0  0  0  0
 24 20  1  0  0  0  0
 25 27  1  0  0  0  0
 26 16  1  0  0  0  0
 26 33  1  6  0  0  0
 28 23  1  0  0  0  0
 28 13  2  0  0  0  0
 30 19  1  0  0  0  0
 32 31  2  0  0  0  0
 33 35  1  0  0  0  0
 35 34  2  0  0  0  0
 35 36  1  0  0  0  0
 36 38  1  0  0  0  0
 38 37  2  0  0  0  0
 39 38  2  0  0  0  0
 40 42  1  0  0  0  0
 41 42  1  0  0  0  0
 43 38  1  6  0  0  0
 43 40  1  0  0  0  0
 44 43  1  0  0  0  0
 44 41  1  0  0  0  0
M  END
>  <MODEL>
6

>  <REMARK>
 VINA RESULT:      -6.6      4.289     10.607
  Name = 
  5 active torsions:
  status: ('A' for Active; 'I' for Inactive)
    1  A    between atoms: S_11  and  N_26
    2  A    between atoms: S_11  and  C_38
    3  A    between atoms: C_25  and  C_40
    4  A    between atoms: C_32  and  C_41
    5  A    between atoms: C_36  and  C_40
                            x       y       z     vdW  Elec       q    Type
                         _______ _______ _______ _____ _____    ______ ____

>  <TORSDO>
F 5

$$$$
=
 OpenBabel10222415473D

 44 48  0  0  1  0  0  0  0  0999 V2000
  191.2760  177.1200  141.7020 C   0  0  0  0  0  3  0  0  0  0  0  0
  188.7270  177.2760  138.3130 C   0  0  0  0  0  2  0  0  0  0  0  0
  184.5400  179.3310  141.2460 O   0  0  0  0  0  0  0  0  0  0  0  0
  189.2340  177.2730  143.1690 C   0  0  0  0  0  0  0  0  0  0  0  0
  185.0800  178.6170  143.4300 C   0  0  0  0  0  3  0  0  0  0  0  0
  188.3080  175.8680  137.9240 C   0  0  0  0  0  2  0  0  0  0  0  0
  187.8460  177.4650  145.6480 C   0  0  0  0  0  3  0  0  0  0  0  0
  191.8260  177.0870  140.4620 N   0  0  0  0  0  0  0  0  0  0  0  0
  189.8890  177.2080  141.8440 C   0  0  0  0  0  0  0  0  0  0  0  0
  189.1250  177.2640  140.7210 N   0  0  0  0  0  0  0  0  0  0  0  0
  189.6620  177.2270  139.4740 C   0  0  0  0  0  0  0  0  0  0  0  0
  185.6050  178.9530  142.0670 C   0  0  2  0  0  3  0  0  0  0  0  0
  191.2950  176.6240  146.0600 C   0  0  0  0  0  3  0  0  0  0  0  0
  186.5750  180.1180  142.1540 C   0  0  0  0  0  1  0  0  0  0  0  0
  185.7870  178.0860  144.4370 C   0  0  0  0  0  3  0  0  0  0  0  0
  185.2810  176.7330  135.8750 C   0  0  0  0  0  3  0  0  0  0  0  0
  189.9030  177.0460  144.3790 C   0  0  0  0  0  0  0  0  0  0  0  0
  183.8960  176.6030  137.9210 N   0  0  0  0  0  2  0  0  0  0  0  0
  187.9050  177.5880  143.2380 N   0  0  0  0  0  0  0  0  0  0  0  0
  183.6870  178.0510  137.9700 C   0  0  0  0  0  2  0  0  0  0  0  0
  184.3350  178.2590  140.3720 C   0  0  0  0  0  2  0  0  0  0  0  0
  191.0670  177.1320  139.3360 C   0  0  0  0  0  0  0  0  0  0  0  0
  189.1890  177.1360  145.6150 C   0  0  0  0  0  0  0  0  0  0  0  0
  184.6560  178.6930  138.9520 C   0  0  0  0  0  2  0  0  0  0  0  0
  186.8270  175.8220  137.5920 C   0  0  0  0  0  2  0  0  0  0  0  0
  184.0670  176.1380  136.5400 C   0  0  1  0  0  3  0  0  0  0  0  0
  186.5240  176.5860  136.3410 C   0  0  0  0  0  3  0  0  0  0  0  0
  190.0550  176.8770  146.6500 C   0  0  0  0  0  2  0  0  0  0  0  0
  191.2110  176.7250  144.6690 C   0  0  0  0  0  3  0  0  0  0  0  0
  187.2090  177.7020  144.4170 C   0  0  0  0  0  0  0  0  0  0  0  0
  192.8750  176.4350  137.8590 N   0  0  0  0  0  2  0  0  0  0  0  0
  191.7760  177.0870  138.0410 C   0  0  0  0  0  3  0  0  0  0  0  0
  182.8210  176.3850  135.7020 C   0  0  0  0  0  2  0  0  0  0  0  0
  181.4650  178.2230  136.3760 O   0  0  0  0  0  0  0  0  0  0  0  0
  181.7540  177.0060  136.5300 C   0  0  0  0  0  0  0  0  0  0  0  0
  181.0810  176.2150  137.5080 N   0  0  0  0  0  2  0  0  0  0  0  0
  178.9310  177.7100  137.7800 O   0  0  0  0  0  0  0  0  0  0  0  0
  179.8820  176.8620  138.5770 S   0  0  0  0  0  0  0  0  0  0  0  0
  180.5460  177.7160  139.6230 O   0  0  0  0  0  0  0  0  0  0  0  0
  179.2150  174.2440  138.6080 C   0  0  0  0  0  2  0  0  0  0  0  0
  179.5300  173.9450  140.7810 C   0  0  0  0  0  2  0  0  0  0  0  0
  179.7070  173.3270  139.5340 O   0  0  0  0  0  0  0  0  0  0  0  0
  178.9810  175.5300  139.3470 C   0  0  1  0  0  3  0  0  0  0  0  0
  179.4520  175.3370  140.6430 O   0  0  0  0  0  0  0  0  0  0  0  0
  1  9  1  0  0  0  0
  2 11  1  0  0  0  0
  3 12  1  0  0  0  0
  4 19  2  0  0  0  0
  4 17  1  0  0  0  0
  5 15  2  0  0  0  0
  6  2  1  0  0  0  0
  8  1  2  0  0  0  0
  9  4  1  0  0  0  0
 10  9  2  0  0  0  0
 11 10  1  0  0  0  0
 12 14  1  1  0  0  0
 12  5  1  0  0  0  0
 13 28  1  0  0  0  0
 16 27  2  0  0  0  0
 16 26  1  0  0  0  0
 17 29  1  0  0  0  0
 17 23  2  0  0  0  0
 18 20  1  0  0  0  0
 19 30  1  0  0  0  0
 20 24  1  0  0  0  0
 21  3  1  0  0  0  0
 22 11  2  0  0  0  0
 22  8  1  0  0  0  0
 23  7  1  0  0  0  0
 23 28  1  0  0  0  0
 24 21  1  0  0  0  0
 25  6  1  0  0  0  0
 26 33  1  6  0  0  0
 26 18  1  0  0  0  0
 27 25  1  0  0  0  0
 29 13  2  0  0  0  0
 30 15  1  0  0  0  0
 30  7  2  0  0  0  0
 31 32  2  0  0  0  0
 32 22  1  0  0  0  0
 33 35  1  0  0  0  0
 34 35  2  0  0  0  0
 35 36  1  0  0  0  0
 36 38  1  0  0  0  0
 37 38  2  0  0  0  0
 38 39  2  0  0  0  0
 40 43  1  0  0  0  0
 40 42  1  0  0  0  0
 42 41  1  0  0  0  0
 43 38  1  6  0  0  0
 43 44  1  0  0  0  0
 44 41  1  0  0  0  0
M  END
>  <MODEL>
7

>  <REMARK>
 VINA RESULT:      -6.5      2.384      2.817
  Name = 
  5 active torsions:
  status: ('A' for Active; 'I' for Inactive)
    1  A    between atoms: S_11  and  N_26
    2  A    between atoms: S_11  and  C_38
    3  A    between atoms: C_25  and  C_40
    4  A    between atoms: C_32  and  C_41
    5  A    between atoms: C_36  and  C_40
                            x       y       z     vdW  Elec       q    Type
                         _______ _______ _______ _____ _____    ______ ____

>  <TORSDO>
F 5

$$$$
=
 OpenBabel10222415473D

 44 48  0  0  1  0  0  0  0  0999 V2000
  182.2140  174.4550  136.2320 C   0  0  0  0  0  3  0  0  0  0  0  0
  186.3340  174.1220  137.1920 C   0  0  0  0  0  2  0  0  0  0  0  0
  186.2180  178.6360  140.3500 O   0  0  0  0  0  0  0  0  0  0  0  0
  182.3020  176.8650  136.9600 C   0  0  0  0  0  0  0  0  0  0  0  0
  184.3590  179.7950  139.4720 C   0  0  0  0  0  3  0  0  0  0  0  0
  187.1730  174.4870  135.9790 C   0  0  0  0  0  2  0  0  0  0  0  0
  181.2060  179.4340  137.5150 C   0  0  0  0  0  3  0  0  0  0  0  0
  182.8370  173.2620  136.0570 N   0  0  0  0  0  0  0  0  0  0  0  0
  182.9330  175.5470  136.7250 C   0  0  0  0  0  0  0  0  0  0  0  0
  184.2470  175.3770  137.0240 N   0  0  0  0  0  0  0  0  0  0  0  0
  184.8840  174.1900  136.8490 C   0  0  0  0  0  0  0  0  0  0  0  0
  185.0160  178.4620  139.6600 C   0  0  2  0  0  3  0  0  0  0  0  0
  178.9610  177.3440  135.6820 C   0  0  0  0  0  3  0  0  0  0  0  0
  184.1230  177.5500  140.4820 C   0  0  0  0  0  1  0  0  0  0  0  0
  183.2630  180.0360  138.7390 C   0  0  0  0  0  3  0  0  0  0  0  0
  190.4120  175.2110  137.7370 C   0  0  0  0  0  3  0  0  0  0  0  0
  181.0120  177.1980  136.5250 C   0  0  0  0  0  0  0  0  0  0  0  0
  189.7120  177.5710  137.9910 N   0  0  0  0  0  2  0  0  0  0  0  0
  182.9940  177.8180  137.6550 N   0  0  0  0  0  2  0  0  0  0  0  0
  189.5090  177.4400  139.4340 C   0  0  0  0  0  2  0  0  0  0  0  0
  187.2310  178.4590  139.4010 C   0  0  0  0  0  2  0  0  0  0  0  0
  184.1540  173.0880  136.3430 C   0  0  0  0  0  0  0  0  0  0  0  0
  180.4810  178.4960  136.8030 C   0  0  0  0  0  0  0  0  0  0  0  0
  188.0360  177.2180  139.7430 C   0  0  0  0  0  2  0  0  0  0  0  0
  188.3380  175.3730  136.3800 C   0  0  0  0  0  2  0  0  0  0  0  0
  190.7620  176.6600  137.5180 C   0  0  1  0  0  3  0  0  0  0  0  0
  189.3280  174.6280  137.2200 C   0  0  0  0  0  3  0  0  0  0  0  0
  179.2110  178.5800  136.2820 C   0  0  0  0  0  3  0  0  0  0  0  0
  180.0580  176.4920  135.8250 C   0  0  0  0  0  3  0  0  0  0  0  0
  182.4900  179.0610  137.9510 C   0  0  0  0  0  0  0  0  0  0  0  0
  184.0280  170.6610  136.1760 N   0  0  0  0  0  2  0  0  0  0  0  0
  184.7240  171.7460  136.1110 C   0  0  0  0  0  3  0  0  0  0  0  0
  192.1130  176.9860  138.1380 C   0  0  0  0  0  2  0  0  0  0  0  0
  193.2640  176.2730  136.1790 O   0  0  0  0  0  0  0  0  0  0  0  0
  193.1970  176.2500  137.4370 C   0  0  0  0  0  0  0  0  0  0  0  0
  194.1410  175.5030  138.2030 N   0  0  0  0  0  2  0  0  0  0  0  0
  196.0330  175.3410  136.3790 O   0  0  0  0  0  0  0  0  0  0  0  0
  195.3910  174.5460  137.4820 S   0  0  0  0  0  0  0  0  0  0  0  0
  194.7950  173.2910  136.9040 O   0  0  0  0  0  0  0  0  0  0  0  0
  197.9710  174.6410  138.2820 C   0  0  0  0  0  2  0  0  0  0  0  0
  197.5480  175.2590  140.3680 C   0  0  0  0  0  2  0  0  0  0  0  0
  198.4370  175.4660  139.3030 O   0  0  0  0  0  0  0  0  0  0  0  0
  196.6210  174.1400  138.7080 C   0  0  1  0  0  3  0  0  0  0  0  0
  196.3150  174.7820  139.9050 O   0  0  0  0  0  0  0  0  0  0  0  0
  1  9  1  0  0  0  0
  4 19  1  0  0  0  0
  5 12  1  0  0  0  0
  6 25  1  0  0  0  0
  6  2  1  0  0  0  0
  7 30  2  0  0  0  0
  8  1  2  0  0  0  0
  8 22  1  0  0  0  0
  9  4  1  0  0  0  0
  9 10  2  0  0  0  0
 11 10  1  0  0  0  0
 11  2  1  0  0  0  0
 12  3  1  0  0  0  0
 12 14  1  1  0  0  0
 13 29  2  0  0  0  0
 13 28  1  0  0  0  0
 15  5  2  0  0  0  0
 17 23  1  0  0  0  0
 17  4  2  0  0  0  0
 18 20  1  0  0  0  0
 19 30  1  0  0  0  0
 20 24  1  0  0  0  0
 21 24  1  0  0  0  0
 21  3  1  0  0  0  0
 22 11  2  0  0  0  0
 23  7  1  0  0  0  0
 25 27  1  0  0  0  0
 26 16  1  0  0  0  0
 26 18  1  0  0  0  0
 26 33  1  1  0  0  0
 27 16  2  0  0  0  0
 28 23  2  0  0  0  0
 29 17  1  0  0  0  0
 30 15  1  0  0  0  0
 32 31  2  0  0  0  0
 32 22  1  0  0  0  0
 34 35  2  0  0  0  0
 35 33  1  0  0  0  0
 35 36  1  0  0  0  0
 37 38  2  0  0  0  0
 38 36  1  0  0  0  0
 39 38  2  0  0  0  0
 40 43  1  0  0  0  0
 40 42  1  0  0  0  0
 42 41  1  0  0  0  0
 43 38  1  6  0  0  0
 43 44  1  0  0  0  0
 44 41  1  0  0  0  0
M  END
>  <MODEL>
8

>  <REMARK>
 VINA RESULT:      -6.4      5.384     10.172
  Name = 
  5 active torsions:
  status: ('A' for Active; 'I' for Inactive)
    1  A    between atoms: S_11  and  N_26
    2  A    between atoms: S_11  and  C_38
    3  A    between atoms: C_25  and  C_40
    4  A    between atoms: C_32  and  C_41
    5  A    between atoms: C_36  and  C_40
                            x       y       z     vdW  Elec       q    Type
                         _______ _______ _______ _____ _____    ______ ____

>  <TORSDO>
F 5

$$$$
=
 OpenBabel10222415473D

 44 48  0  0  1  0  0  0  0  0999 V2000
  182.7480  178.6530  143.7640 C   0  0  0  0  0  3  0  0  0  0  0  0
  186.9440  178.6660  143.1290 C   0  0  0  0  0  2  0  0  0  0  0  0
  186.3660  178.9570  137.6570 O   0  0  0  0  0  0  0  0  0  0  0  0
  182.4470  177.9850  141.3530 C   0  0  0  0  0  0  0  0  0  0  0  0
  184.2030  178.0630  137.3480 C   0  0  0  0  0  3  0  0  0  0  0  0
  187.5080  177.2830  143.4120 C   0  0  0  0  0  2  0  0  0  0  0  0
  180.9430  177.3660  139.0160 C   0  0  0  0  0  3  0  0  0  0  0  0
  183.5690  178.9820  144.7930 N   0  0  0  0  0  0  0  0  0  0  0  0
  183.2930  178.3280  142.5180 C   0  0  0  0  0  0  0  0  0  0  0  0
  184.6430  178.3590  142.3730 N   0  0  0  0  0  0  0  0  0  0  0  0
  185.4770  178.6830  143.3960 C   0  0  0  0  0  0  0  0  0  0  0  0
  185.1380  178.7560  138.2930 C   0  0  2  0  0  3  0  0  0  0  0  0
  178.9310  177.4550  141.9680 C   0  0  0  0  0  3  0  0  0  0  0  0
  184.5770  180.1120  138.6830 C   0  0  0  0  0  1  0  0  0  0  0  0
  182.9880  177.5880  137.6520 C   0  0  0  0  0  3  0  0  0  0  0  0
  190.7500  177.6090  141.5430 C   0  0  0  0  0  3  0  0  0  0  0  0
  181.0670  177.7520  141.4350 C   0  0  0  0  0  0  0  0  0  0  0  0
  189.6280  176.7590  139.5090 N   0  0  0  0  0  2  0  0  0  0  0  0
  183.0230  177.9040  140.1160 N   0  0  0  0  0  0  0  0  0  0  0  0
  189.6650  178.0620  138.8450 C   0  0  0  0  0  2  0  0  0  0  0  0
  187.2460  178.0330  138.2290 C   0  0  0  0  0  2  0  0  0  0  0  0
  184.9210  179.0040  144.6570 C   0  0  0  0  0  0  0  0  0  0  0  0
  180.3290  177.4320  140.2540 C   0  0  0  0  0  0  0  0  0  0  0  0
  188.3280  178.7720  138.9980 C   0  0  0  0  0  2  0  0  0  0  0  0
  188.5140  176.8860  142.3470 C   0  0  0  0  0  2  0  0  0  0  0  0
  190.7620  176.5980  140.4270 C   0  0  1  0  0  3  0  0  0  0  0  0
  189.7440  177.7350  142.4130 C   0  0  0  0  0  3  0  0  0  0  0  0
  179.0070  177.2520  140.5890 C   0  0  0  0  0  3  0  0  0  0  0  0
  180.1870  177.7610  142.4950 C   0  0  0  0  0  2  0  0  0  0  0  0
  182.3250  177.6210  138.9670 C   0  0  0  0  0  0  0  0  0  0  0  0
  185.4960  178.8880  147.0220 N   0  0  0  0  0  2  0  0  0  0  0  0
  185.7130  179.3760  145.8460 C   0  0  0  0  0  3  0  0  0  0  0  0
  192.0940  176.6280  139.6900 C   0  0  0  0  0  2  0  0  0  0  0  0
  191.2700  174.8450  138.3430 O   0  0  0  0  0  0  0  0  0  0  0  0
  191.9990  175.8710  138.4150 C   0  0  0  0  0  0  0  0  0  0  0  0
  192.7560  176.3070  137.2870 N   0  0  0  0  0  2  0  0  0  0  0  0
  192.9900  173.9890  136.0620 O   0  0  0  0  0  0  0  0  0  0  0  0
  192.7800  175.4510  135.7820 S   0  0  0  0  0  0  0  0  0  0  0  0
  193.9100  175.9590  134.9300 O   0  0  0  0  0  0  0  0  0  0  0  0
  190.3470  174.4670  135.1370 C   0  0  0  0  0  2  0  0  0  0  0  0
  189.2160  176.3180  135.5900 C   0  0  0  0  0  2  0  0  0  0  0  0
  189.1530  174.9210  135.6930 O   0  0  0  0  0  0  0  0  0  0  0  0
  191.2220  175.6710  134.9410 C   0  0  1  0  0  3  0  0  0  0  0  0
  190.5440  176.7530  135.4940 O   0  0  0  0  0  0  0  0  0  0  0  0
  1  8  1  0  0  0  0
  2 11  1  0  0  0  0
  2  6  1  0  0  0  0
  3 21  1  0  0  0  0
  3 12  1  0  0  0  0
  4 17  1  0  0  0  0
  4  9  1  0  0  0  0
  5 15  2  0  0  0  0
  5 12  1  0  0  0  0
  7 23  1  0  0  0  0
  9  1  2  0  0  0  0
 10  9  1  0  0  0  0
 10 11  2  0  0  0  0
 11 22  1  0  0  0  0
 12 14  1  6  0  0  0
 13 29  1  0  0  0  0
 15 30  1  0  0  0  0
 16 27  2  0  0  0  0
 17 29  1  0  0  0  0
 18 26  1  0  0  0  0
 19  4  2  0  0  0  0
 20 24  1  0  0  0  0
 20 18  1  0  0  0  0
 21 24  1  0  0  0  0
 22  8  2  0  0  0  0
 22 32  1  0  0  0  0
 23 28  1  0  0  0  0
 23 17  2  0  0  0  0
 25 27  1  0  0  0  0
 25  6  1  0  0  0  0
 26 33  1  6  0  0  0
 26 16  1  0  0  0  0
 28 13  2  0  0  0  0
 30  7  2  0  0  0  0
 30 19  1  0  0  0  0
 32 31  2  0  0  0  0
 34 35  2  0  0  0  0
 35 33  1  0  0  0  0
 36 35  1  0  0  0  0
 38 37  2  0  0  0  0
 38 36  1  0  0  0  0
 39 38  2  0  0  0  0
 40 42  1  0  0  0  0
 41 42  1  0  0  0  0
 43 40  1  0  0  0  0
 43 44  1  0  0  0  0
 43 38  1  1  0  0  0
 44 41  1  0  0  0  0
M  END
>  <MODEL>
9

>  <REMARK>
 VINA RESULT:      -6.3      4.360      8.123
  Name = 
  5 active torsions:
  status: ('A' for Active; 'I' for Inactive)
    1  A    between atoms: S_11  and  N_26
    2  A    between atoms: S_11  and  C_38
    3  A    between atoms: C_25  and  C_40
    4  A    between atoms: C_32  and  C_41
    5  A    between atoms: C_36  and  C_40
                            x       y       z     vdW  Elec       q    Type
                         _______ _______ _______ _____ _____    ______ ____

>  <TORSDO>
F 5

$$$$
