=
 OpenBabel10222416593D

 40 43  0  0  1  0  0  0  0  0999 V2000
  186.0100  177.5170  137.9800 C   0  0  0  0  0  0  0  0  0  0  0  0
  187.8170  178.0260  140.7760 N   0  0  0  0  0  2  0  0  0  0  0  0
  186.9910  177.9170  138.5520 C   0  0  0  0  0  0  0  0  0  0  0  0
  182.1010  177.5760  139.7990 C   0  0  0  0  0  0  0  0  0  0  0  0
  185.2740  178.8670  143.5430 C   0  0  1  0  0  3  0  0  0  0  0  0
  186.1110  177.9600  142.6340 C   0  0  0  0  0  2  0  0  0  0  0  0
  183.4630  177.8870  139.3900 C   0  0  0  0  0  0  0  0  0  0  0  0
  179.5150  176.6210  140.1140 C   0  0  0  0  0  3  0  0  0  0  0  0
  180.2480  176.2600  138.9720 C   0  0  0  0  0  2  0  0  0  0  0  0
  181.3950  177.9570  140.9510 C   0  0  0  0  0  0  0  0  0  0  0  0
  183.2140  178.3020  142.5650 N   0  0  0  0  0  2  0  0  0  0  0  0
  186.8000  178.6960  141.5240 C   0  0  0  0  0  0  0  0  0  0  0  0
  184.0780  179.3720  142.8630 N   0  0  0  0  0  2  0  0  0  0  0  0
  188.1110  178.3680  139.3890 C   0  0  2  0  0  3  0  0  0  0  0  0
  184.7750  177.0040  137.4500 C   0  0  0  0  0  2  0  0  0  0  0  0
  186.4400  179.8600  141.1950 O   0  0  0  0  0  0  0  0  0  0  0  0
  181.5440  176.7540  138.8390 C   0  0  0  0  0  0  0  0  0  0  0  0
  183.6280  177.1620  138.1180 C   0  0  0  0  0  0  0  0  0  0  0  0
  182.0150  178.8860  141.9730 C   0  0  2  0  0  3  0  0  0  0  0  0
  184.0130  179.0320  139.6220 N   0  0  0  0  0  1  0  0  0  0  0  0
  182.4290  176.4750  137.7580 N   0  0  0  0  0  0  0  0  0  0  0  0
  180.0820  177.4590  141.0920 C   0  0  0  0  0  3  0  0  0  0  0  0
  191.5870  176.8720  139.5180 C   0  0  0  0  0  3  0  0  0  0  0  0
  189.3890  177.7250  138.9520 C   0  0  0  0  0  0  0  0  0  0  0  0
  190.3800  177.4640  139.9030 C   0  0  0  0  0  3  0  0  0  0  0  0
  191.8150  176.5360  138.1800 C   0  0  0  0  0  0  0  0  0  0  0  0
  189.6150  177.3930  137.6070 C   0  0  0  0  0  3  0  0  0  0  0  0
  190.8220  176.8010  137.2230 C   0  0  0  0  0  3  0  0  0  0  0  0
  193.6080  176.0840  136.5370 C   0  0  0  0  0  1  0  0  0  0  0  0
  193.0320  175.9450  137.8280 O   0  0  0  0  0  0  0  0  0  0  0  0
  181.0640  179.3450  143.0400 C   0  0  0  0  0  0  0  0  0  0  0  0
  180.8670  178.6310  144.0620 O   0  0  0  0  0  0  0  0  0  0  0  0
  180.3830  180.5490  142.8690 O   0  0  0  0  0  0  0  0  0  0  0  0
  179.2110  181.2010  140.8850 C   0  0  0  0  0  1  0  0  0  0  0  0
  179.0970  180.6040  142.2710 C   0  0  0  0  0  2  0  0  0  0  0  0
  184.9120  178.1670  144.8500 C   0  0  0  0  0  2  0  0  0  0  0  0
  185.7930  178.6480  145.9920 C   0  0  1  0  0  3  0  0  0  0  0  0
  185.0050  178.9250  147.1110 O   0  0  0  0  0  1  0  0  0  0  0  0
  186.8010  177.5670  146.3330 C   0  0  0  0  0  2  0  0  0  0  0  0
  188.0720  177.8570  145.6920 N   0  0  0  0  0  1  0  0  0  0  0  0
  1  3  3  0  0  0  0
  2 12  1  0  0  0  0
  3 14  1  0  0  0  0
  4 10  2  0  0  0  0
  5 36  1  1  0  0  0
  6  5  1  0  0  0  0
  7 20  1  0  0  0  0
  7  4  1  0  0  0  0
  8 22  2  0  0  0  0
  9  8  1  0  0  0  0
 10 22  1  0  0  0  0
 10 19  1  0  0  0  0
 11 13  1  0  0  0  0
 12  6  1  0  0  0  0
 13  5  1  0  0  0  0
 14 24  1  6  0  0  0
 14  2  1  0  0  0  0
 15  1  1  0  0  0  0
 15 18  1  0  0  0  0
 16 12  2  0  0  0  0
 17  9  1  0  0  0  0
 17  4  1  0  0  0  0
 18  7  2  0  0  0  0
 19 11  1  0  0  0  0
 19 31  1  1  0  0  0
 21 18  1  0  0  0  0
 21 17  2  0  0  0  0
 23 25  1  0  0  0  0
 24 25  2  0  0  0  0
 26 23  2  0  0  0  0
 27 24  1  0  0  0  0
 28 27  2  0  0  0  0
 28 26  1  0  0  0  0
 29 30  1  0  0  0  0
 30 26  1  0  0  0  0
 31 32  2  0  0  0  0
 33 31  1  0  0  0  0
 34 35  1  0  0  0  0
 35 33  1  0  0  0  0
 36 37  1  0  0  0  0
 37 39  1  0  0  0  0
 37 38  1  1  0  0  0
 40 39  1  0  0  0  0
M  END
>  <MODEL>
1

>  <REMARK>
 VINA RESULT:      -8.0      0.000      0.000
  Name = 
  8 active torsions:
  status: ('A' for Active; 'I' for Inactive)
    1  A    between atoms: C_1  and  O_28
    2  A    between atoms: C_1  and  C_33
    3  A    between atoms: C_4  and  C_7
    4  A    between atoms: C_4  and  C_10
    5  A    between atoms: C_7  and  C_19
    6  A    between atoms: C_16  and  C_25
    7  A    between atoms: C_23  and  O_34
    8  A    between atoms: C_27  and  O_28
                            x       y       z     vdW  Elec       q    Type
                         _______ _______ _______ _____ _____    ______ ____

>  <TORSDO>
F 8

$$$$
=
 OpenBabel10222416593D

 40 43  0  0  1  0  0  0  0  0999 V2000
  188.6620  177.4160  139.7170 C   0  0  0  0  0  0  0  0  0  0  0  0
  186.9400  178.1630  142.5130 N   0  0  0  0  0  2  0  0  0  0  0  0
  188.5680  177.9380  140.7970 C   0  0  0  0  0  0  0  0  0  0  0  0
  185.2940  177.0070  137.0550 C   0  0  0  0  0  0  0  0  0  0  0  0
  183.2950  178.7050  141.4000 C   0  0  1  0  0  3  0  0  0  0  0  0
  184.5230  177.9010  141.8380 C   0  0  0  0  0  2  0  0  0  0  0  0
  186.2500  177.4800  138.0450 C   0  0  0  0  0  0  0  0  0  0  0  0
  183.9090  175.7440  135.0100 C   0  0  0  0  0  3  0  0  0  0  0  0
  185.2730  175.4680  135.1900 C   0  0  0  0  0  3  0  0  0  0  0  0
  183.9310  177.3070  136.9010 C   0  0  0  0  0  0  0  0  0  0  0  0
  183.2800  177.8840  139.1980 N   0  0  0  0  0  2  0  0  0  0  0  0
  185.7870  178.7090  141.8690 C   0  0  0  0  0  0  0  0  0  0  0  0
  183.3460  179.0540  139.9770 N   0  0  0  0  0  2  0  0  0  0  0  0
  188.2960  178.5280  142.1140 C   0  0  2  0  0  3  0  0  0  0  0  0
  188.6120  176.7510  138.4410 C   0  0  0  0  0  3  0  0  0  0  0  0
  185.8640  179.8170  141.2710 O   0  0  0  0  0  0  0  0  0  0  0  0
  185.9450  176.1170  136.2240 C   0  0  0  0  0  0  0  0  0  0  0  0
  187.4970  176.7720  137.7050 C   0  0  0  0  0  0  0  0  0  0  0  0
  183.2480  178.3120  137.8030 C   0  0  2  0  0  3  0  0  0  0  0  0
  186.2320  178.6860  138.5070 N   0  0  0  0  0  1  0  0  0  0  0  0
  187.3190  175.9410  136.5570 N   0  0  0  0  0  0  0  0  0  0  0  0
  183.2450  176.6520  135.8550 C   0  0  0  0  0  3  0  0  0  0  0  0
  189.7360  177.1690  145.3410 C   0  0  0  0  0  3  0  0  0  0  0  0
  189.2860  178.0450  143.1250 C   0  0  0  0  0  0  0  0  0  0  0  0
  188.8290  177.6180  144.3760 C   0  0  0  0  0  3  0  0  0  0  0  0
  191.1070  177.1440  145.0660 C   0  0  0  0  0  0  0  0  0  0  0  0
  190.6610  178.0240  142.8460 C   0  0  0  0  0  3  0  0  0  0  0  0
  191.5670  177.5750  143.8110 C   0  0  0  0  0  3  0  0  0  0  0  0
  191.5660  176.3760  147.3730 C   0  0  0  0  0  1  0  0  0  0  0  0
  191.9870  176.6890  146.0520 O   0  0  0  0  0  0  0  0  0  0  0  0
  181.8490  178.6580  137.3850 C   0  0  0  0  0  0  0  0  0  0  0  0
  181.6520  179.4360  136.4110 O   0  0  0  0  0  0  0  0  0  0  0  0
  180.7760  178.1340  138.1070 O   0  0  0  0  0  0  0  0  0  0  0  0
  180.4440  175.7920  138.4760 C   0  0  0  0  0  1  0  0  0  0  0  0
  180.0520  177.0010  137.6540 C   0  0  0  0  0  2  0  0  0  0  0  0
  181.9980  177.9750  141.7420 C   0  0  0  0  0  2  0  0  0  0  0  0
  180.8620  178.9570  141.9770 C   0  0  1  0  0  3  0  0  0  0  0  0
  179.7190  178.5250  141.3010 O   0  0  0  0  0  1  0  0  0  0  0  0
  180.5750  179.0410  143.4640 C   0  0  0  0  0  2  0  0  0  0  0  0
  179.6440  177.9940  143.8470 N   0  0  0  0  0  1  0  0  0  0  0  0
  1  3  3  0  0  0  0
  3 14  1  0  0  0  0
  4  7  2  0  0  0  0
  5 36  1  6  0  0  0
  5  6  1  0  0  0  0
  6 12  1  0  0  0  0
  7 20  1  0  0  0  0
  8  9  2  0  0  0  0
  8 22  1  0  0  0  0
  9 17  1  0  0  0  0
 10  4  1  0  0  0  0
 10 19  1  0  0  0  0
 11 13  1  0  0  0  0
 12  2  1  0  0  0  0
 13  5  1  0  0  0  0
 14  2  1  0  0  0  0
 14 24  1  1  0  0  0
 15  1  1  0  0  0  0
 16 12  2  0  0  0  0
 17 21  2  0  0  0  0
 17  4  1  0  0  0  0
 18  7  1  0  0  0  0
 18 15  2  0  0  0  0
 19 31  1  6  0  0  0
 19 11  1  0  0  0  0
 21 18  1  0  0  0  0
 22 10  2  0  0  0  0
 24 25  1  0  0  0  0
 25 23  2  0  0  0  0
 26 23  1  0  0  0  0
 26 30  1  0  0  0  0
 27 24  2  0  0  0  0
 27 28  1  0  0  0  0
 28 26  2  0  0  0  0
 30 29  1  0  0  0  0
 31 33  1  0  0  0  0
 32 31  2  0  0  0  0
 35 33  1  0  0  0  0
 35 34  1  0  0  0  0
 36 37  1  0  0  0  0
 37 38  1  6  0  0  0
 37 39  1  0  0  0  0
 39 40  1  0  0  0  0
M  END
>  <MODEL>
2

>  <REMARK>
 VINA RESULT:      -7.8      2.911      5.419
  Name = 
  8 active torsions:
  status: ('A' for Active; 'I' for Inactive)
    1  A    between atoms: C_1  and  O_28
    2  A    between atoms: C_1  and  C_33
    3  A    between atoms: C_4  and  C_7
    4  A    between atoms: C_4  and  C_10
    5  A    between atoms: C_7  and  C_19
    6  A    between atoms: C_16  and  C_25
    7  A    between atoms: C_23  and  O_34
    8  A    between atoms: C_27  and  O_28
                            x       y       z     vdW  Elec       q    Type
                         _______ _______ _______ _____ _____    ______ ____

>  <TORSDO>
F 8

$$$$
=
 OpenBabel10222416593D

 40 43  0  0  1  0  0  0  0  0999 V2000
  183.9880  178.3240  140.3900 C   0  0  0  0  0  0  0  0  0  0  0  0
  185.8610  177.3480  137.7670 N   0  0  0  0  0  2  0  0  0  0  0  0
  184.2450  178.3160  139.2130 C   0  0  0  0  0  0  0  0  0  0  0  0
  187.0480  178.0570  143.4170 C   0  0  2  0  0  3  0  0  0  0  0  0
  189.4890  177.2020  139.0500 C   0  0  1  0  0  3  0  0  0  0  0  0
  188.0680  176.6870  138.7960 C   0  0  0  0  0  2  0  0  0  0  0  0
  186.2930  178.3480  142.2070 C   0  0  0  0  0  0  0  0  0  0  0  0
  187.9560  177.3770  145.9490 C   0  0  0  0  0  3  0  0  0  0  0  0
  186.5750  177.4640  145.7130 C   0  0  0  0  0  3  0  0  0  0  0  0
  188.4350  177.9810  143.6190 C   0  0  0  0  0  0  0  0  0  0  0  0
  189.2380  177.3700  141.3810 N   0  0  0  0  0  2  0  0  0  0  0  0
  187.1280  177.7440  138.2970 C   0  0  0  0  0  0  0  0  0  0  0  0
  189.5500  178.0920  140.2130 N   0  0  0  0  0  2  0  0  0  0  0  0
  184.6930  178.2210  137.8180 C   0  0  2  0  0  3  0  0  0  0  0  0
  183.8230  178.2450  141.8170 C   0  0  0  0  0  2  0  0  0  0  0  0
  187.4080  178.9690  138.4140 O   0  0  0  0  0  0  0  0  0  0  0  0
  186.1460  177.8070  144.4330 C   0  0  0  0  0  0  0  0  0  0  0  0
  184.8860  178.2340  142.6270 C   0  0  0  0  0  0  0  0  0  0  0  0
  189.4040  178.2930  142.4990 C   0  0  2  0  0  3  0  0  0  0  0  0
  186.6960  179.2040  141.3270 N   0  0  0  0  0  1  0  0  0  0  0  0
  184.7880  177.9210  144.0170 N   0  0  0  0  0  0  0  0  0  0  0  0
  188.8750  177.6330  144.9150 C   0  0  0  0  0  3  0  0  0  0  0  0
  181.2440  177.2190  136.6180 C   0  0  0  0  0  3  0  0  0  0  0  0
  183.6010  177.6830  136.9480 C   0  0  0  0  0  0  0  0  0  0  0  0
  182.2820  177.7230  137.4100 C   0  0  0  0  0  3  0  0  0  0  0  0
  181.5160  176.6700  135.3610 C   0  0  0  0  0  0  0  0  0  0  0  0
  183.8790  177.1310  135.6890 C   0  0  0  0  0  3  0  0  0  0  0  0
  182.8410  176.6270  134.8990 C   0  0  0  0  0  3  0  0  0  0  0  0
  179.1070  176.5690  134.8050 C   0  0  0  0  0  1  0  0  0  0  0  0
  180.4570  176.1750  134.5950 O   0  0  0  0  0  0  0  0  0  0  0  0
  190.8400  178.3530  142.9300 C   0  0  0  0  0  0  0  0  0  0  0  0
  191.2850  179.3830  143.5090 O   0  0  0  0  0  0  0  0  0  0  0  0
  191.6770  177.2710  142.6560 O   0  0  0  0  0  0  0  0  0  0  0  0
  191.8560  176.0000  144.6770 C   0  0  0  0  0  1  0  0  0  0  0  0
  191.4510  175.9880  143.2180 C   0  0  0  0  0  2  0  0  0  0  0  0
  190.4850  176.0530  139.1810 C   0  0  0  0  0  2  0  0  0  0  0  0
  191.7280  176.3080  138.3440 C   0  0  1  0  0  3  0  0  0  0  0  0
  192.7990  176.6350  139.1790 O   0  0  0  0  0  1  0  0  0  0  0  0
  192.0610  175.0570  137.5530 C   0  0  0  0  0  2  0  0  0  0  0  0
  190.9380  174.1380  137.5870 N   0  0  0  0  0  1  0  0  0  0  0  0
  1 15  1  0  0  0  0
  2 14  1  0  0  0  0
  2 12  1  0  0  0  0
  3  1  3  0  0  0  0
  4  7  1  6  0  0  0
  4 10  1  0  0  0  0
  4 17  1  0  0  0  0
  5 36  1  1  0  0  0
  5 13  1  0  0  0  0
  6  5  1  0  0  0  0
  7 18  2  0  0  0  0
  9  8  2  0  0  0  0
 10 22  2  0  0  0  0
 11 19  1  0  0  0  0
 12 16  2  0  0  0  0
 12  6  1  0  0  0  0
 13 11  1  0  0  0  0
 14 24  1  6  0  0  0
 14  3  1  0  0  0  0
 15 18  1  0  0  0  0
 17  9  1  0  0  0  0
 18 21  1  0  0  0  0
 19 31  1  1  0  0  0
 19 10  1  0  0  0  0
 20  7  1  0  0  0  0
 21 17  2  0  0  0  0
 22  8  1  0  0  0  0
 23 25  1  0  0  0  0
 24 25  2  0  0  0  0
 26 23  2  0  0  0  0
 27 24  1  0  0  0  0
 28 26  1  0  0  0  0
 28 27  2  0  0  0  0
 30 29  1  0  0  0  0
 30 26  1  0  0  0  0
 31 32  2  0  0  0  0
 33 31  1  0  0  0  0
 33 35  1  0  0  0  0
 35 34  1  0  0  0  0
 37 38  1  1  0  0  0
 37 36  1  0  0  0  0
 39 40  1  0  0  0  0
 39 37  1  0  0  0  0
M  END
>  <MODEL>
3

>  <REMARK>
 VINA RESULT:      -7.2      3.209      8.445
  Name = 
  8 active torsions:
  status: ('A' for Active; 'I' for Inactive)
    1  A    between atoms: C_1  and  O_28
    2  A    between atoms: C_1  and  C_33
    3  A    between atoms: C_4  and  C_7
    4  A    between atoms: C_4  and  C_10
    5  A    between atoms: C_7  and  C_19
    6  A    between atoms: C_16  and  C_25
    7  A    between atoms: C_23  and  O_34
    8  A    between atoms: C_27  and  O_28
                            x       y       z     vdW  Elec       q    Type
                         _______ _______ _______ _____ _____    ______ ____

>  <TORSDO>
F 8

$$$$
=
 OpenBabel10222416593D

 40 43  0  0  1  0  0  0  0  0999 V2000
  186.8940  177.4580  137.1710 C   0  0  0  0  0  0  0  0  0  0  0  0
  189.3580  177.1560  139.4470 N   0  0  0  0  0  2  0  0  0  0  0  0
  188.0440  177.5650  137.5110 C   0  0  0  0  0  0  0  0  0  0  0  0
  183.6200  177.9800  139.9290 C   0  0  0  0  0  0  0  0  0  0  0  0
  187.7720  178.0200  142.8470 C   0  0  1  0  0  3  0  0  0  0  0  0
  188.1510  177.1260  141.6630 C   0  0  0  0  0  2  0  0  0  0  0  0
  184.8870  178.0830  139.2200 C   0  0  0  0  0  0  0  0  0  0  0  0
  181.0270  177.5050  140.7940 C   0  0  0  0  0  3  0  0  0  0  0  0
  181.3790  177.1960  139.4710 C   0  0  0  0  0  2  0  0  0  0  0  0
  183.3010  178.3020  141.2580 C   0  0  0  0  0  0  0  0  0  0  0  0
  185.4700  178.0280  142.3770 N   0  0  0  0  0  2  0  0  0  0  0  0
  188.7170  177.8820  140.4980 C   0  0  0  0  0  0  0  0  0  0  0  0
  186.5980  178.8490  142.5560 N   0  0  0  0  0  2  0  0  0  0  0  0
  189.3970  177.6520  138.0750 C   0  0  2  0  0  3  0  0  0  0  0  0
  185.4870  177.2840  136.9250 C   0  0  0  0  0  2  0  0  0  0  0  0
  188.5640  179.1310  140.3990 O   0  0  0  0  0  0  0  0  0  0  0  0
  182.6870  177.4460  139.0620 C   0  0  0  0  0  0  0  0  0  0  0  0
  184.5890  177.5530  137.8780 C   0  0  0  0  0  0  0  0  0  0  0  0
  184.3320  178.9190  142.1790 C   0  0  2  0  0  3  0  0  0  0  0  0
  185.7200  179.0490  139.4240 N   0  0  0  0  0  1  0  0  0  0  0  0
  183.2150  177.1770  137.7670 N   0  0  0  0  0  0  0  0  0  0  0  0
  181.9770  178.0510  141.6780 C   0  0  0  0  0  3  0  0  0  0  0  0
  190.9710  175.8790  135.1230 C   0  0  0  0  0  3  0  0  0  0  0  0
  190.3620  176.8530  137.2590 C   0  0  0  0  0  0  0  0  0  0  0  0
  190.0880  176.6300  135.9050 C   0  0  0  0  0  3  0  0  0  0  0  0
  192.1330  175.3420  135.6850 C   0  0  0  0  0  0  0  0  0  0  0  0
  191.5260  176.3130  137.8280 C   0  0  0  0  0  3  0  0  0  0  0  0
  192.4070  175.5630  137.0450 C   0  0  0  0  0  3  0  0  0  0  0  0
  193.8010  173.5400  135.3800 C   0  0  0  0  0  1  0  0  0  0  0  0
  192.9950  174.5960  134.8760 O   0  0  0  0  0  0  0  0  0  0  0  0
  183.7790  179.3760  143.4970 C   0  0  0  0  0  0  0  0  0  0  0  0
  182.6170  179.8670  143.5610 O   0  0  0  0  0  0  0  0  0  0  0  0
  184.5750  179.2800  144.6380 O   0  0  0  0  0  0  0  0  0  0  0  0
  185.2600  178.5550  146.8150 C   0  0  0  0  0  1  0  0  0  0  0  0
  184.1360  178.5970  145.8020 C   0  0  0  0  0  2  0  0  0  0  0  0
  187.5690  177.2040  144.1210 C   0  0  0  0  0  2  0  0  0  0  0  0
  188.8440  177.1490  144.9460 C   0  0  1  0  0  3  0  0  0  0  0  0
  189.7540  178.0960  144.4710 O   0  0  0  0  0  1  0  0  0  0  0  0
  188.5130  177.4420  146.3970 C   0  0  0  0  0  2  0  0  0  0  0  0
  189.3750  176.6620  147.2670 N   0  0  0  0  0  1  0  0  0  0  0  0
  1  3  3  0  0  0  0
  2 12  1  0  0  0  0
  3 14  1  0  0  0  0
  4 10  2  0  0  0  0
  5 36  1  1  0  0  0
  6  5  1  0  0  0  0
  7 20  1  0  0  0  0
  7  4  1  0  0  0  0
  8 22  2  0  0  0  0
  9  8  1  0  0  0  0
 10 22  1  0  0  0  0
 10 19  1  0  0  0  0
 11 13  1  0  0  0  0
 12  6  1  0  0  0  0
 13  5  1  0  0  0  0
 14 24  1  6  0  0  0
 14  2  1  0  0  0  0
 15  1  1  0  0  0  0
 15 18  1  0  0  0  0
 16 12  2  0  0  0  0
 17  9  1  0  0  0  0
 17  4  1  0  0  0  0
 18  7  2  0  0  0  0
 19 11  1  0  0  0  0
 19 31  1  1  0  0  0
 21 18  1  0  0  0  0
 21 17  2  0  0  0  0
 23 26  2  0  0  0  0
 23 25  1  0  0  0  0
 24 27  1  0  0  0  0
 25 24  2  0  0  0  0
 26 28  1  0  0  0  0
 28 27  2  0  0  0  0
 30 29  1  0  0  0  0
 30 26  1  0  0  0  0
 31 32  2  0  0  0  0
 31 33  1  0  0  0  0
 33 35  1  0  0  0  0
 35 34  1  0  0  0  0
 36 37  1  0  0  0  0
 37 38  1  6  0  0  0
 37 39  1  0  0  0  0
 39 40  1  0  0  0  0
M  END
>  <MODEL>
4

>  <REMARK>
 VINA RESULT:      -6.7      1.881      3.054
  Name = 
  8 active torsions:
  status: ('A' for Active; 'I' for Inactive)
    1  A    between atoms: C_1  and  O_28
    2  A    between atoms: C_1  and  C_33
    3  A    between atoms: C_4  and  C_7
    4  A    between atoms: C_4  and  C_10
    5  A    between atoms: C_7  and  C_19
    6  A    between atoms: C_16  and  C_25
    7  A    between atoms: C_23  and  O_34
    8  A    between atoms: C_27  and  O_28
                            x       y       z     vdW  Elec       q    Type
                         _______ _______ _______ _____ _____    ______ ____

>  <TORSDO>
F 8

$$$$
=
 OpenBabel10222416593D

 40 43  0  0  1  0  0  0  0  0999 V2000
  189.4140  175.2800  135.9620 C   0  0  0  0  0  0  0  0  0  0  0  0
  191.0840  176.1120  138.7650 N   0  0  0  0  0  2  0  0  0  0  0  0
  190.4210  175.5890  136.5450 C   0  0  0  0  0  0  0  0  0  0  0  0
  185.5270  176.7130  137.1570 C   0  0  0  0  0  0  0  0  0  0  0  0
  188.6450  178.2280  140.8630 C   0  0  1  0  0  3  0  0  0  0  0  0
  189.2880  176.9430  140.3300 C   0  0  0  0  0  2  0  0  0  0  0  0
  186.9480  176.5850  136.8740 C   0  0  0  0  0  0  0  0  0  0  0  0
  182.7670  176.4890  137.3420 C   0  0  0  0  0  3  0  0  0  0  0  0
  183.4650  175.6750  136.4360 C   0  0  0  0  0  2  0  0  0  0  0  0
  184.8590  177.5430  138.0710 C   0  0  0  0  0  0  0  0  0  0  0  0
  186.5850  177.8970  139.7830 N   0  0  0  0  0  2  0  0  0  0  0  0
  190.2190  177.1730  139.1770 C   0  0  0  0  0  0  0  0  0  0  0  0
  187.6680  178.7840  139.9230 N   0  0  0  0  0  2  0  0  0  0  0  0
  191.5540  175.9870  137.3890 C   0  0  2  0  0  3  0  0  0  0  0  0
  188.1300  174.9340  135.4110 C   0  0  0  0  0  2  0  0  0  0  0  0
  190.1900  178.2530  138.5250 O   0  0  0  0  0  0  0  0  0  0  0  0
  184.8500  175.8080  136.3630 C   0  0  0  0  0  0  0  0  0  0  0  0
  187.0160  175.5230  135.8560 C   0  0  0  0  0  0  0  0  0  0  0  0
  185.6190  178.5520  138.9070 C   0  0  2  0  0  3  0  0  0  0  0  0
  187.7530  177.5960  136.8890 N   0  0  0  0  0  1  0  0  0  0  0  0
  185.7110  175.0520  135.5160 N   0  0  0  0  0  0  0  0  0  0  0  0
  183.4560  177.4120  138.1510 C   0  0  0  0  0  3  0  0  0  0  0  0
  193.4680  172.8520  136.4690 C   0  0  0  0  0  3  0  0  0  0  0  0
  192.6560  174.9790  137.3040 C   0  0  0  0  0  0  0  0  0  0  0  0
  192.4560  173.8130  136.5570 C   0  0  0  0  0  3  0  0  0  0  0  0
  194.6870  173.0450  137.1270 C   0  0  0  0  0  0  0  0  0  0  0  0
  193.8760  175.1750  137.9680 C   0  0  0  0  0  3  0  0  0  0  0  0
  194.8860  174.2130  137.8800 C   0  0  0  0  0  3  0  0  0  0  0  0
  196.9650  172.3300  136.4800 C   0  0  0  0  0  1  0  0  0  0  0  0
  195.6770  172.0650  137.0190 O   0  0  0  0  0  0  0  0  0  0  0  0
  184.7420  179.4860  139.6870 C   0  0  0  0  0  0  0  0  0  0  0  0
  184.1010  180.3980  139.0930 O   0  0  0  0  0  0  0  0  0  0  0  0
  184.6690  179.3510  141.0730 O   0  0  0  0  0  0  0  0  0  0  0  0
  183.8390  178.6280  143.2000 C   0  0  0  0  0  1  0  0  0  0  0  0
  183.6410  178.6010  141.6990 C   0  0  0  0  0  2  0  0  0  0  0  0
  188.0240  178.0120  142.2410 C   0  0  0  0  0  2  0  0  0  0  0  0
  189.0070  177.3420  143.1870 C   0  0  1  0  0  3  0  0  0  0  0  0
  189.9800  178.2610  143.5850 O   0  0  0  0  0  1  0  0  0  0  0  0
  188.2590  176.8300  144.4030 C   0  0  0  0  0  2  0  0  0  0  0  0
  187.3340  177.8440  144.8760 N   0  0  0  0  0  1  0  0  0  0  0  0
  1  3  3  0  0  0  0
  2 12  1  0  0  0  0
  3 14  1  0  0  0  0
  4 10  2  0  0  0  0
  5 36  1  1  0  0  0
  6  5  1  0  0  0  0
  7 20  1  0  0  0  0
  7  4  1  0  0  0  0
  8 22  2  0  0  0  0
  9  8  1  0  0  0  0
 10 22  1  0  0  0  0
 10 19  1  0  0  0  0
 11 13  1  0  0  0  0
 12  6  1  0  0  0  0
 13  5  1  0  0  0  0
 14 24  1  1  0  0  0
 14  2  1  0  0  0  0
 15 18  1  0  0  0  0
 15  1  1  0  0  0  0
 16 12  2  0  0  0  0
 17  9  1  0  0  0  0
 17  4  1  0  0  0  0
 18  7  2  0  0  0  0
 19 31  1  1  0  0  0
 19 11  1  0  0  0  0
 21 18  1  0  0  0  0
 21 17  2  0  0  0  0
 23 25  2  0  0  0  0
 23 26  1  0  0  0  0
 24 27  2  0  0  0  0
 25 24  1  0  0  0  0
 26 28  2  0  0  0  0
 28 27  1  0  0  0  0
 29 30  1  0  0  0  0
 30 26  1  0  0  0  0
 31 33  1  0  0  0  0
 32 31  2  0  0  0  0
 33 35  1  0  0  0  0
 35 34  1  0  0  0  0
 36 37  1  0  0  0  0
 37 38  1  1  0  0  0
 37 39  1  0  0  0  0
 39 40  1  0  0  0  0
M  END
>  <MODEL>
5

>  <REMARK>
 VINA RESULT:      -6.5      2.897      4.635
  Name = 
  8 active torsions:
  status: ('A' for Active; 'I' for Inactive)
    1  A    between atoms: C_1  and  O_28
    2  A    between atoms: C_1  and  C_33
    3  A    between atoms: C_4  and  C_7
    4  A    between atoms: C_4  and  C_10
    5  A    between atoms: C_7  and  C_19
    6  A    between atoms: C_16  and  C_25
    7  A    between atoms: C_23  and  O_34
    8  A    between atoms: C_27  and  O_28
                            x       y       z     vdW  Elec       q    Type
                         _______ _______ _______ _____ _____    ______ ____

>  <TORSDO>
F 8

$$$$
=
 OpenBabel10222416593D

 40 43  0  0  1  0  0  0  0  0999 V2000
  185.5720  178.7710  140.9960 C   0  0  0  0  0  0  0  0  0  0  0  0
  183.2400  177.3640  139.0140 N   0  0  0  0  0  2  0  0  0  0  0  0
  184.4720  178.7410  140.5070 C   0  0  0  0  0  0  0  0  0  0  0  0
  189.0560  177.3110  138.9170 C   0  0  0  0  0  0  0  0  0  0  0  0
  185.1460  175.9230  135.9950 C   0  0  1  0  0  3  0  0  0  0  0  0
  184.5710  175.9360  137.4140 C   0  0  0  0  0  2  0  0  0  0  0  0
  187.7730  177.9090  139.2570 C   0  0  0  0  0  0  0  0  0  0  0  0
  191.6080  176.2240  138.8460 C   0  0  0  0  0  3  0  0  0  0  0  0
  191.1320  176.7870  140.0400 C   0  0  0  0  0  3  0  0  0  0  0  0
  189.5010  176.7580  137.7060 C   0  0  0  0  0  0  0  0  0  0  0  0
  187.3920  176.0360  136.6760 N   0  0  0  0  0  2  0  0  0  0  0  0
  184.0420  177.2760  137.8340 C   0  0  0  0  0  0  0  0  0  0  0  0
  186.4020  176.6730  135.9040 N   0  0  0  0  0  2  0  0  0  0  0  0
  183.1830  178.5780  139.8220 C   0  0  2  0  0  3  0  0  0  0  0  0
  186.9220  178.6730  141.4830 C   0  0  0  0  0  3  0  0  0  0  0  0
  184.3610  178.3240  137.2090 O   0  0  0  0  0  0  0  0  0  0  0  0
  189.8480  177.3270  140.0480 C   0  0  0  0  0  0  0  0  0  0  0  0
  187.9070  178.2560  140.6820 C   0  0  0  0  0  0  0  0  0  0  0  0
  188.6280  176.7830  136.4700 C   0  0  2  0  0  3  0  0  0  0  0  0
  187.0980  178.6250  138.4200 N   0  0  0  0  0  1  0  0  0  0  0  0
  189.2050  177.9190  141.1740 N   0  0  0  0  0  0  0  0  0  0  0  0
  190.8020  176.2090  137.6920 C   0  0  0  0  0  3  0  0  0  0  0  0
  181.2420  178.8960  143.0580 C   0  0  0  0  0  3  0  0  0  0  0  0
  182.0660  178.4930  140.8130 C   0  0  0  0  0  0  0  0  0  0  0  0
  182.2680  178.9720  142.1110 C   0  0  0  0  0  3  0  0  0  0  0  0
  180.0050  178.3390  142.7170 C   0  0  0  0  0  0  0  0  0  0  0  0
  180.8270  177.9310  140.4680 C   0  0  0  0  0  3  0  0  0  0  0  0
  179.8020  177.8550  141.4140 C   0  0  0  0  0  3  0  0  0  0  0  0
  178.9310  179.1840  144.7800 C   0  0  0  0  0  1  0  0  0  0  0  0
  179.0000  178.2790  143.6860 O   0  0  0  0  0  0  0  0  0  0  0  0
  189.3230  176.3280  135.2200 C   0  0  0  0  0  0  0  0  0  0  0  0
  190.0830  177.1170  134.5940 O   0  0  0  0  0  0  0  0  0  0  0  0
  189.0910  175.0360  134.7480 O   0  0  0  0  0  0  0  0  0  0  0  0
  189.0270  172.7780  135.5430 C   0  0  0  0  0  1  0  0  0  0  0  0
  189.9060  173.9410  135.1350 C   0  0  0  0  0  2  0  0  0  0  0  0
  185.3150  174.4990  135.4730 C   0  0  0  0  0  2  0  0  0  0  0  0
  184.4300  173.5270  136.2360 C   0  0  1  0  0  3  0  0  0  0  0  0
  183.2690  173.2700  135.5020 O   0  0  0  0  0  1  0  0  0  0  0  0
  185.1880  172.2320  136.4610 C   0  0  0  0  0  2  0  0  0  0  0  0
  184.3360  171.1000  136.1430 N   0  0  0  0  0  1  0  0  0  0  0  0
  1 15  1  0  0  0  0
  2 14  1  0  0  0  0
  3  1  3  0  0  0  0
  4  7  2  0  0  0  0
  4 17  1  0  0  0  0
  5 36  1  1  0  0  0
  5  6  1  0  0  0  0
  6 12  1  0  0  0  0
  7 18  1  0  0  0  0
  8  9  2  0  0  0  0
  9 17  1  0  0  0  0
 10  4  1  0  0  0  0
 12  2  1  0  0  0  0
 13  5  1  0  0  0  0
 13 11  1  0  0  0  0
 14  3  1  0  0  0  0
 14 24  1  1  0  0  0
 16 12  2  0  0  0  0
 17 21  2  0  0  0  0
 18 21  1  0  0  0  0
 18 15  2  0  0  0  0
 19 31  1  6  0  0  0
 19 11  1  0  0  0  0
 19 10  1  0  0  0  0
 20  7  1  0  0  0  0
 22 10  2  0  0  0  0
 22  8  1  0  0  0  0
 24 25  1  0  0  0  0
 25 23  2  0  0  0  0
 26 23  1  0  0  0  0
 26 30  1  0  0  0  0
 27 24  2  0  0  0  0
 27 28  1  0  0  0  0
 28 26  2  0  0  0  0
 30 29  1  0  0  0  0
 32 31  2  0  0  0  0
 33 35  1  0  0  0  0
 33 31  1  0  0  0  0
 35 34  1  0  0  0  0
 36 37  1  0  0  0  0
 37 38  1  6  0  0  0
 37 39  1  0  0  0  0
 40 39  1  0  0  0  0
M  END
>  <MODEL>
6

>  <REMARK>
 VINA RESULT:      -6.4      3.022      9.859
  Name = 
  8 active torsions:
  status: ('A' for Active; 'I' for Inactive)
    1  A    between atoms: C_1  and  O_28
    2  A    between atoms: C_1  and  C_33
    3  A    between atoms: C_4  and  C_7
    4  A    between atoms: C_4  and  C_10
    5  A    between atoms: C_7  and  C_19
    6  A    between atoms: C_16  and  C_25
    7  A    between atoms: C_23  and  O_34
    8  A    between atoms: C_27  and  O_28
                            x       y       z     vdW  Elec       q    Type
                         _______ _______ _______ _____ _____    ______ ____

>  <TORSDO>
F 8

$$$$
=
 OpenBabel10222416593D

 40 43  0  0  1  0  0  0  0  0999 V2000
  184.1350  178.5840  140.7810 C   0  0  0  0  0  0  0  0  0  0  0  0
  185.3020  177.5800  137.7850 N   0  0  0  0  0  2  0  0  0  0  0  0
  184.1380  178.6160  139.5770 C   0  0  0  0  0  0  0  0  0  0  0  0
  187.7150  177.8530  143.0710 C   0  0  2  0  0  3  0  0  0  0  0  0
  189.0820  177.0140  138.2560 C   0  0  1  0  0  3  0  0  0  0  0  0
  187.5930  176.6530  138.2950 C   0  0  0  0  0  2  0  0  0  0  0  0
  186.7590  178.2830  142.0620 C   0  0  0  0  0  0  0  0  0  0  0  0
  189.0570  176.9480  145.3250 C   0  0  0  0  0  3  0  0  0  0  0  0
  187.6740  177.1800  145.3930 C   0  0  0  0  0  3  0  0  0  0  0  0
  189.0980  177.6330  142.9690 C   0  0  0  0  0  0  0  0  0  0  0  0
  189.3450  177.0740  140.5900 N   0  0  0  0  0  2  0  0  0  0  0  0
  186.6870  177.8220  138.0450 C   0  0  0  0  0  0  0  0  0  0  0  0
  189.4800  177.8270  139.4090 N   0  0  0  0  0  2  0  0  0  0  0  0
  184.2700  178.5570  138.1160 C   0  0  2  0  0  3  0  0  0  0  0  0
  184.2650  178.4400  142.2070 C   0  0  0  0  0  2  0  0  0  0  0  0
  187.1130  179.0060  138.1420 O   0  0  0  0  0  0  0  0  0  0  0  0
  187.0250  177.6350  144.2470 C   0  0  0  0  0  0  0  0  0  0  0  0
  185.4670  178.2820  142.7690 C   0  0  0  0  0  0  0  0  0  0  0  0
  189.8380  177.9120  141.6780 C   0  0  2  0  0  3  0  0  0  0  0  0
  187.0570  179.1450  141.1460 N   0  0  0  0  0  1  0  0  0  0  0  0
  185.6300  177.9020  144.1370 N   0  0  0  0  0  0  0  0  0  0  0  0
  189.7610  177.1720  144.1270 C   0  0  0  0  0  3  0  0  0  0  0  0
  181.7560  176.8260  135.8760 C   0  0  0  0  0  3  0  0  0  0  0  0
  182.9700  178.1770  137.4830 C   0  0  0  0  0  0  0  0  0  0  0  0
  182.9580  177.1930  136.4890 C   0  0  0  0  0  3  0  0  0  0  0  0
  180.5550  177.4400  136.2480 C   0  0  0  0  0  0  0  0  0  0  0  0
  181.7680  178.7970  137.8580 C   0  0  0  0  0  3  0  0  0  0  0  0
  180.5670  178.4300  137.2440 C   0  0  0  0  0  3  0  0  0  0  0  0
  178.9470  175.6960  135.5470 C   0  0  0  0  0  1  0  0  0  0  0  0
  179.3710  177.0500  135.6160 O   0  0  0  0  0  0  0  0  0  0  0  0
  191.3310  177.8090  141.7940 C   0  0  0  0  0  0  0  0  0  0  0  0
  191.9500  178.5080  142.6430 O   0  0  0  0  0  0  0  0  0  0  0  0
  192.0210  176.9570  140.9320 O   0  0  0  0  0  0  0  0  0  0  0  0
  193.1860  176.7700  138.8480 C   0  0  0  0  0  1  0  0  0  0  0  0
  193.1810  177.3800  140.2330 C   0  0  0  0  0  2  0  0  0  0  0  0
  189.9560  175.7690  138.1310 C   0  0  0  0  0  2  0  0  0  0  0  0
  189.8190  175.1390  136.7540 C   0  0  1  0  0  3  0  0  0  0  0  0
  191.0420  175.2070  136.0820 O   0  0  0  0  0  1  0  0  0  0  0  0
  189.4000  173.6900  136.9080 C   0  0  0  0  0  2  0  0  0  0  0  0
  188.0410  173.5150  136.4290 N   0  0  0  0  0  1  0  0  0  0  0  0
  1 15  1  0  0  0  0
  2 12  1  0  0  0  0
  2 14  1  0  0  0  0
  3  1  3  0  0  0  0
  4  7  1  6  0  0  0
  4 17  1  0  0  0  0
  5 36  1  1  0  0  0
  5  6  1  0  0  0  0
  5 13  1  0  0  0  0
  7 18  2  0  0  0  0
  8  9  2  0  0  0  0
 10  4  1  0  0  0  0
 10 22  2  0  0  0  0
 11 19  1  0  0  0  0
 12 16  2  0  0  0  0
 12  6  1  0  0  0  0
 13 11  1  0  0  0  0
 14 24  1  6  0  0  0
 14  3  1  0  0  0  0
 15 18  1  0  0  0  0
 17  9  1  0  0  0  0
 18 21  1  0  0  0  0
 19 31  1  1  0  0  0
 19 10  1  0  0  0  0
 20  7  1  0  0  0  0
 21 17  2  0  0  0  0
 22  8  1  0  0  0  0
 23 26  2  0  0  0  0
 23 25  1  0  0  0  0
 24 27  1  0  0  0  0
 25 24  2  0  0  0  0
 26 28  1  0  0  0  0
 28 27  2  0  0  0  0
 29 30  1  0  0  0  0
 30 26  1  0  0  0  0
 31 32  2  0  0  0  0
 33 31  1  0  0  0  0
 34 35  1  0  0  0  0
 35 33  1  0  0  0  0
 37 38  1  1  0  0  0
 37 39  1  0  0  0  0
 37 36  1  0  0  0  0
 40 39  1  0  0  0  0
M  END
>  <MODEL>
7

>  <REMARK>
 VINA RESULT:      -6.4      3.298      9.001
  Name = 
  8 active torsions:
  status: ('A' for Active; 'I' for Inactive)
    1  A    between atoms: C_1  and  O_28
    2  A    between atoms: C_1  and  C_33
    3  A    between atoms: C_4  and  C_7
    4  A    between atoms: C_4  and  C_10
    5  A    between atoms: C_7  and  C_19
    6  A    between atoms: C_16  and  C_25
    7  A    between atoms: C_23  and  O_34
    8  A    between atoms: C_27  and  O_28
                            x       y       z     vdW  Elec       q    Type
                         _______ _______ _______ _____ _____    ______ ____

>  <TORSDO>
F 8

$$$$
=
 OpenBabel10222416593D

 40 43  0  0  1  0  0  0  0  0999 V2000
  185.6730  178.5760  140.2020 C   0  0  0  0  0  0  0  0  0  0  0  0
  185.7680  176.9440  137.2580 N   0  0  0  0  0  2  0  0  0  0  0  0
  185.3210  178.4240  139.0610 C   0  0  0  0  0  0  0  0  0  0  0  0
  189.6600  177.6060  141.5300 C   0  0  0  0  0  0  0  0  0  0  0  0
  189.4210  175.8220  136.7850 C   0  0  1  0  0  3  0  0  0  0  0  0
  187.9800  175.7300  137.2960 C   0  0  0  0  0  2  0  0  0  0  0  0
  188.5040  178.0340  140.7550 C   0  0  0  0  0  0  0  0  0  0  0  0
  191.4940  176.8420  143.4660 C   0  0  0  0  0  3  0  0  0  0  0  0
  190.2330  177.3130  143.8610 C   0  0  0  0  0  3  0  0  0  0  0  0
  190.9130  177.1420  141.1010 C   0  0  0  0  0  0  0  0  0  0  0  0
  190.3720  176.1930  138.9020 N   0  0  0  0  0  2  0  0  0  0  0  0
  187.1850  176.9840  137.0800 C   0  0  0  0  0  0  0  0  0  0  0  0
  190.2380  176.7220  137.6050 N   0  0  0  0  0  2  0  0  0  0  0  0
  185.0050  178.1210  137.6600 C   0  0  2  0  0  3  0  0  0  0  0  0
  186.2040  178.6320  141.5390 C   0  0  0  0  0  3  0  0  0  0  0  0
  187.7580  178.0780  136.8240 O   0  0  0  0  0  0  0  0  0  0  0  0
  189.3310  177.6910  142.8690 C   0  0  0  0  0  0  0  0  0  0  0  0
  187.4910  178.3590  141.7730 C   0  0  0  0  0  0  0  0  0  0  0  0
  191.2630  177.0910  139.6290 C   0  0  2  0  0  3  0  0  0  0  0  0
  188.6160  178.6820  139.6430 N   0  0  0  0  0  1  0  0  0  0  0  0
  188.0080  178.1710  143.0920 N   0  0  0  0  0  0  0  0  0  0  0  0
  191.8310  176.7570  142.1020 C   0  0  0  0  0  3  0  0  0  0  0  0
  181.7500  176.5240  136.5650 C   0  0  0  0  0  3  0  0  0  0  0  0
  183.5390  177.8750  137.4910 C   0  0  0  0  0  0  0  0  0  0  0  0
  183.1150  176.7700  136.7440 C   0  0  0  0  0  3  0  0  0  0  0  0
  180.7970  177.3790  137.1270 C   0  0  0  0  0  0  0  0  0  0  0  0
  182.5860  178.7370  138.0540 C   0  0  0  0  0  3  0  0  0  0  0  0
  181.2220  178.4900  137.8740 C   0  0  0  0  0  3  0  0  0  0  0  0
  178.9850  176.0220  136.1290 C   0  0  0  0  0  1  0  0  0  0  0  0
  179.4410  177.1050  136.9290 O   0  0  0  0  0  0  0  0  0  0  0  0
  192.6990  176.7540  139.3530 C   0  0  0  0  0  0  0  0  0  0  0  0
  193.6120  177.5640  139.6730 O   0  0  0  0  0  0  0  0  0  0  0  0
  193.0040  175.5540  138.7110 O   0  0  0  0  0  0  0  0  0  0  0  0
  193.8460  174.0980  137.0060 C   0  0  0  0  0  1  0  0  0  0  0  0
  193.8000  175.5150  137.5370 C   0  0  0  0  0  2  0  0  0  0  0  0
  190.0640  174.4420  136.6730 C   0  0  0  0  0  2  0  0  0  0  0  0
  189.9530  173.9000  135.2570 C   0  0  1  0  0  3  0  0  0  0  0  0
  191.1920  173.9920  134.6190 O   0  0  0  0  0  1  0  0  0  0  0  0
  189.5140  172.4490  135.3120 C   0  0  0  0  0  2  0  0  0  0  0  0
  188.3470  172.3190  136.1670 N   0  0  0  0  0  1  0  0  0  0  0  0
  1 15  1  0  0  0  0
  2 14  1  0  0  0  0
  3  1  3  0  0  0  0
  4 17  1  0  0  0  0
  5 36  1  1  0  0  0
  5  6  1  0  0  0  0
  5 13  1  0  0  0  0
  7  4  2  0  0  0  0
  7 18  1  0  0  0  0
  8  9  2  0  0  0  0
 10  4  1  0  0  0  0
 10 22  2  0  0  0  0
 11 19  1  0  0  0  0
 12  2  1  0  0  0  0
 12  6  1  0  0  0  0
 13 11  1  0  0  0  0
 14 24  1  1  0  0  0
 14  3  1  0  0  0  0
 15 18  2  0  0  0  0
 16 12  2  0  0  0  0
 17 21  2  0  0  0  0
 17  9  1  0  0  0  0
 18 21  1  0  0  0  0
 19 31  1  1  0  0  0
 19 10  1  0  0  0  0
 20  7  1  0  0  0  0
 22  8  1  0  0  0  0
 23 25  2  0  0  0  0
 23 26  1  0  0  0  0
 24 27  2  0  0  0  0
 25 24  1  0  0  0  0
 26 28  2  0  0  0  0
 28 27  1  0  0  0  0
 29 30  1  0  0  0  0
 30 26  1  0  0  0  0
 31 32  2  0  0  0  0
 33 31  1  0  0  0  0
 34 35  1  0  0  0  0
 35 33  1  0  0  0  0
 37 38  1  1  0  0  0
 37 39  1  0  0  0  0
 37 36  1  0  0  0  0
 39 40  1  0  0  0  0
M  END
>  <MODEL>
8

>  <REMARK>
 VINA RESULT:      -6.2      3.676      9.950
  Name = 
  8 active torsions:
  status: ('A' for Active; 'I' for Inactive)
    1  A    between atoms: C_1  and  O_28
    2  A    between atoms: C_1  and  C_33
    3  A    between atoms: C_4  and  C_7
    4  A    between atoms: C_4  and  C_10
    5  A    between atoms: C_7  and  C_19
    6  A    between atoms: C_16  and  C_25
    7  A    between atoms: C_23  and  O_34
    8  A    between atoms: C_27  and  O_28
                            x       y       z     vdW  Elec       q    Type
                         _______ _______ _______ _____ _____    ______ ____

>  <TORSDO>
F 8

$$$$
=
 OpenBabel10222416593D

 40 43  0  0  1  0  0  0  0  0999 V2000
  188.8480  175.8130  136.1270 C   0  0  0  0  0  0  0  0  0  0  0  0
  190.2670  176.7970  139.0180 N   0  0  0  0  0  2  0  0  0  0  0  0
  189.7810  176.2320  136.7630 C   0  0  0  0  0  0  0  0  0  0  0  0
  184.7630  176.7560  137.1360 C   0  0  0  0  0  0  0  0  0  0  0  0
  187.4920  178.5770  141.0080 C   0  0  1  0  0  3  0  0  0  0  0  0
  188.3090  177.3860  140.4980 C   0  0  0  0  0  2  0  0  0  0  0  0
  186.2020  176.8020  136.9240 C   0  0  0  0  0  0  0  0  0  0  0  0
  182.0450  176.2020  137.1790 C   0  0  0  0  0  3  0  0  0  0  0  0
  182.8790  175.4910  136.3030 C   0  0  0  0  0  2  0  0  0  0  0  0
  183.9570  177.4880  138.0230 C   0  0  0  0  0  0  0  0  0  0  0  0
  185.5420  178.0190  139.8220 N   0  0  0  0  0  2  0  0  0  0  0  0
  189.2620  177.7410  139.3950 C   0  0  0  0  0  0  0  0  0  0  0  0
  186.5030  179.0270  140.0250 N   0  0  0  0  0  2  0  0  0  0  0  0
  190.8160  176.7490  137.6670 C   0  0  2  0  0  3  0  0  0  0  0  0
  187.6440  175.3250  135.5090 C   0  0  0  0  0  2  0  0  0  0  0  0
  189.1370  178.8190  138.7510 O   0  0  0  0  0  0  0  0  0  0  0  0
  184.2400  175.7890  136.3010 C   0  0  0  0  0  0  0  0  0  0  0  0
  186.4470  175.7710  135.9020 C   0  0  0  0  0  0  0  0  0  0  0  0
  184.5490  178.5670  138.9040 C   0  0  2  0  0  3  0  0  0  0  0  0
  186.8780  177.9010  136.9890 N   0  0  0  0  0  1  0  0  0  0  0  0
  185.2250  175.1530  135.4920 N   0  0  0  0  0  0  0  0  0  0  0  0
  182.5780  177.1890  138.0300 C   0  0  0  0  0  3  0  0  0  0  0  0
  193.0980  173.8250  136.9080 C   0  0  0  0  0  3  0  0  0  0  0  0
  192.0330  175.8800  137.6290 C   0  0  0  0  0  0  0  0  0  0  0  0
  191.9760  174.6580  136.9510 C   0  0  0  0  0  3  0  0  0  0  0  0
  194.2860  174.2030  137.5430 C   0  0  0  0  0  0  0  0  0  0  0  0
  193.2220  176.2630  138.2690 C   0  0  0  0  0  3  0  0  0  0  0  0
  194.3420  175.4290  138.2260 C   0  0  0  0  0  3  0  0  0  0  0  0
  196.6330  173.6520  138.0980 C   0  0  0  0  0  1  0  0  0  0  0  0
  195.3890  173.3470  137.4810 O   0  0  0  0  0  0  0  0  0  0  0  0
  183.5290  179.3790  139.6470 C   0  0  0  0  0  0  0  0  0  0  0  0
  183.0620  178.9610  140.7430 O   0  0  0  0  0  0  0  0  0  0  0  0
  183.0840  180.5790  139.0940 O   0  0  0  0  0  0  0  0  0  0  0  0
  180.7890  181.2660  139.0930 C   0  0  0  0  0  1  0  0  0  0  0  0
  181.9140  180.6460  138.2930 C   0  0  0  0  0  2  0  0  0  0  0  0
  186.8340  178.2680  142.3510 C   0  0  0  0  0  2  0  0  0  0  0  0
  187.7650  177.4670  143.2460 C   0  0  1  0  0  3  0  0  0  0  0  0
  188.9090  178.2170  143.5280 O   0  0  0  0  0  1  0  0  0  0  0  0
  187.0450  177.1290  144.5380 C   0  0  0  0  0  2  0  0  0  0  0  0
  185.9180  178.0250  144.7240 N   0  0  0  0  0  1  0  0  0  0  0  0
  1  3  3  0  0  0  0
  2 12  1  0  0  0  0
  3 14  1  0  0  0  0
  4 10  2  0  0  0  0
  5 36  1  1  0  0  0
  6  5  1  0  0  0  0
  7 20  1  0  0  0  0
  7  4  1  0  0  0  0
  8 22  2  0  0  0  0
  9  8  1  0  0  0  0
 10 22  1  0  0  0  0
 10 19  1  0  0  0  0
 11 13  1  0  0  0  0
 12  6  1  0  0  0  0
 13  5  1  0  0  0  0
 14 24  1  1  0  0  0
 14  2  1  0  0  0  0
 15 18  1  0  0  0  0
 15  1  1  0  0  0  0
 16 12  2  0  0  0  0
 17  9  1  0  0  0  0
 17  4  1  0  0  0  0
 18  7  2  0  0  0  0
 19 31  1  1  0  0  0
 19 11  1  0  0  0  0
 21 18  1  0  0  0  0
 21 17  2  0  0  0  0
 23 25  2  0  0  0  0
 23 26  1  0  0  0  0
 24 27  2  0  0  0  0
 25 24  1  0  0  0  0
 26 28  2  0  0  0  0
 28 27  1  0  0  0  0
 30 26  1  0  0  0  0
 30 29  1  0  0  0  0
 31 32  2  0  0  0  0
 33 31  1  0  0  0  0
 35 34  1  0  0  0  0
 35 33  1  0  0  0  0
 36 37  1  0  0  0  0
 37 38  1  1  0  0  0
 37 39  1  0  0  0  0
 39 40  1  0  0  0  0
M  END
>  <MODEL>
9

>  <REMARK>
 VINA RESULT:      -6.0      2.592      3.789
  Name = 
  8 active torsions:
  status: ('A' for Active; 'I' for Inactive)
    1  A    between atoms: C_1  and  O_28
    2  A    between atoms: C_1  and  C_33
    3  A    between atoms: C_4  and  C_7
    4  A    between atoms: C_4  and  C_10
    5  A    between atoms: C_7  and  C_19
    6  A    between atoms: C_16  and  C_25
    7  A    between atoms: C_23  and  O_34
    8  A    between atoms: C_27  and  O_28
                            x       y       z     vdW  Elec       q    Type
                         _______ _______ _______ _____ _____    ______ ____

>  <TORSDO>
F 8

$$$$
