=
 OpenBabel10222419473D

 33 35  0  0  1  0  0  0  0  0999 V2000
  186.3190  178.6820  137.9650 N   0  0  0  0  0  0  0  0  0  0  0  0
  186.0950  176.8900  135.8590 C   0  0  0  0  0  3  0  0  0  0  0  0
  187.2520  178.6570  136.9670 C   0  0  0  0  0  3  0  0  0  0  0  0
  187.1360  177.7690  135.9300 N   0  0  0  0  0  0  0  0  0  0  0  0
  185.2850  177.8070  137.9010 C   0  0  0  0  0  0  0  0  0  0  0  0
  183.4160  176.5130  138.1180 C   0  0  0  0  0  0  0  0  0  0  0  0
  182.2040  175.9310  138.6000 N   0  0  0  0  0  2  0  0  0  0  0  0
  185.1520  176.9200  136.8760 C   0  0  0  0  0  0  0  0  0  0  0  0
  184.1570  177.6050  138.7970 C   0  0  0  0  0  0  0  0  0  0  0  0
  183.8750  178.2380  139.9500 C   0  0  0  0  0  0  0  0  0  0  0  0
  183.9860  176.1170  137.0160 N   0  0  0  0  0  0  0  0  0  0  0  0
  181.5930  174.9340  137.9190 O   0  0  0  0  0  1  0  0  0  0  0  0
  182.6450  177.8680  140.7300 C   0  0  0  0  0  2  0  0  0  0  0  0
  182.0910  178.9790  141.3890 O   0  0  0  0  0  0  0  0  0  0  0  0
  179.2750  180.0260  142.4110 C   0  0  0  0  0  2  0  0  0  0  0  0
  180.9730  178.6170  143.9760 Cl  0  0  0  0  0  0  0  0  0  0  0  0
  180.2750  178.0590  140.2140 O   0  0  0  0  0  1  0  0  0  0  0  0
  180.0350  180.3000  141.1240 C   0  0  0  0  0  2  0  0  0  0  0  0
  180.6880  178.9330  141.2270 C   0  0  2  0  0  0  0  0  0  0  0  0
  179.9310  178.6600  142.5230 C   0  0  2  0  0  3  0  0  0  0  0  0
  184.8080  179.2940  140.4770 C   0  0  0  0  0  2  0  0  0  0  0  0
  185.6600  178.7660  141.5850 C   0  0  0  0  0  0  0  0  0  0  0  0
  186.8720  178.2910  141.2890 C   0  0  0  0  0  3  0  0  0  0  0  0
  185.1540  178.7840  142.9380 C   0  0  0  0  0  0  0  0  0  0  0  0
  184.2190  178.8290  145.4360 C   0  0  0  0  0  1  0  0  0  0  0  0
  184.7320  178.8030  144.0670 C   0  0  0  0  0  0  0  0  0  0  0  0
  188.5440  177.3460  143.1110 C   0  0  0  0  0  0  0  0  0  0  0  0
  187.7830  177.7730  142.2790 C   0  0  0  0  0  0  0  0  0  0  0  0
  189.3670  177.7910  146.5360 C   0  0  0  0  0  3  0  0  0  0  0  0
  189.4490  176.8470  144.1050 C   0  0  0  0  0  3  0  0  0  0  0  0
  189.4080  177.3180  145.3200 C   0  0  0  0  0  0  0  0  0  0  0  0
  188.7030  177.0310  147.6360 C   0  0  0  0  0  2  0  0  0  0  0  0
  187.9400  177.9690  148.5560 C   0  0  0  0  0  1  0  0  0  0  0  0
  2  4  2  0  0  0  0
  2  8  1  0  0  0  0
  3  1  2  0  0  0  0
  4  3  1  0  0  0  0
  5  1  1  0  0  0  0
  5  9  1  0  0  0  0
  6  7  1  0  0  0  0
  6  9  1  0  0  0  0
  8 11  1  0  0  0  0
  8  5  2  0  0  0  0
  9 10  2  0  0  0  0
 10 21  1  0  0  0  0
 10 13  1  0  0  0  0
 11  6  2  0  0  0  0
 12  7  1  0  0  0  0
 13 14  1  0  0  0  0
 15 20  1  0  0  0  0
 18 19  1  0  0  0  0
 18 15  1  0  0  0  0
 19 17  1  6  0  0  0
 19 14  1  0  0  0  0
 19 20  1  0  0  0  0
 20 16  1  1  0  0  0
 21 22  1  0  0  0  0
 22 24  1  0  0  0  0
 23 22  2  0  0  0  0
 23 28  1  0  0  0  0
 24 26  3  0  0  0  0
 26 25  1  0  0  0  0
 27 30  1  0  0  0  0
 28 27  3  0  0  0  0
 29 32  1  0  0  0  0
 30 31  2  0  0  0  0
 31 29  2  0  0  0  0
 32 33  1  0  0  0  0
M  END
>  <MODEL>
1

>  <REMARK>
 VINA RESULT:      -7.7      0.000      0.000
  Name = 
  9 active torsions:
  status: ('A' for Active; 'I' for Inactive)
    1  A    between atoms: C_1  and  C_18
    2  A    between atoms: C_2  and  C_7
    3  A    between atoms: C_3  and  C_8
    4  A    between atoms: C_3  and  C_17
    5  A    between atoms: O_6  and  C_15
    6  A    between atoms: O_6  and  C_31
    7  A    between atoms: C_9  and  C_10
    8  A    between atoms: C_15  and  C_27
    9  A    between atoms: C_17  and  C_27
                            x       y       z     vdW  Elec       q    Type
                         _______ _______ _______ _____ _____    ______ ____

>  <TORSDO>
F 9

$$$$
=
 OpenBabel10222419473D

 33 35  0  0  1  0  0  0  0  0999 V2000
  182.1350  178.9110  141.3890 N   0  0  0  0  0  0  0  0  0  0  0  0
  179.9210  177.3430  140.8050 C   0  0  0  0  0  3  0  0  0  0  0  0
  180.9860  179.0250  142.1200 C   0  0  0  0  0  3  0  0  0  0  0  0
  179.8960  178.2490  141.8260 N   0  0  0  0  0  0  0  0  0  0  0  0
  182.1630  178.0160  140.3710 C   0  0  0  0  0  0  0  0  0  0  0  0
  182.5870  176.6190  138.6150 C   0  0  0  0  0  0  0  0  0  0  0  0
  183.2200  175.9370  137.5320 N   0  0  0  0  0  2  0  0  0  0  0  0
  181.0910  177.2340  140.0660 C   0  0  0  0  0  0  0  0  0  0  0  0
  183.2270  177.6750  139.4380 C   0  0  0  0  0  0  0  0  0  0  0  0
  184.4620  178.1980  139.3430 C   0  0  0  0  0  0  0  0  0  0  0  0
  181.3600  176.3650  138.9720 N   0  0  0  0  0  0  0  0  0  0  0  0
  182.5610  174.9860  136.8290 O   0  0  0  0  0  1  0  0  0  0  0  0
  185.4130  177.6960  138.2930 C   0  0  0  0  0  2  0  0  0  0  0  0
  186.3960  178.6510  137.9800 O   0  0  0  0  0  0  0  0  0  0  0  0
  188.8410  176.7440  137.3050 C   0  0  0  0  0  2  0  0  0  0  0  0
  189.0760  178.9290  138.8830 Cl  0  0  0  0  0  0  0  0  0  0  0  0
  186.9220  178.5890  135.6900 O   0  0  0  0  0  1  0  0  0  0  0  0
  187.3550  176.6010  137.0210 C   0  0  0  0  0  2  0  0  0  0  0  0
  187.2270  178.1140  136.9720 C   0  0  2  0  0  0  0  0  0  0  0  0
  188.7170  178.2580  137.2640 C   0  0  2  0  0  3  0  0  0  0  0  0
  184.8820  179.3090  140.2670 C   0  0  0  0  0  2  0  0  0  0  0  0
  185.6710  178.7850  141.4240 C   0  0  0  0  0  0  0  0  0  0  0  0
  186.9030  178.3220  141.2000 C   0  0  0  0  0  3  0  0  0  0  0  0
  185.0850  178.7950  142.7440 C   0  0  0  0  0  0  0  0  0  0  0  0
  184.0080  178.8250  145.1850 C   0  0  0  0  0  1  0  0  0  0  0  0
  184.5980  178.8070  143.8470 C   0  0  0  0  0  0  0  0  0  0  0  0
  188.4790  177.3810  143.1070 C   0  0  0  0  0  0  0  0  0  0  0  0
  187.7580  177.8090  142.2410 C   0  0  0  0  0  0  0  0  0  0  0  0
  189.2120  177.8390  146.5510 C   0  0  0  0  0  3  0  0  0  0  0  0
  189.3440  176.8710  144.1320 C   0  0  0  0  0  3  0  0  0  0  0  0
  189.2780  177.3540  145.3410 C   0  0  0  0  0  0  0  0  0  0  0  0
  188.5000  177.1050  147.6380 C   0  0  0  0  0  2  0  0  0  0  0  0
  188.1890  178.0300  148.8020 C   0  0  0  0  0  1  0  0  0  0  0  0
  1  3  1  0  0  0  0
  2  4  1  0  0  0  0
  4  3  2  0  0  0  0
  5  1  2  0  0  0  0
  6 11  2  0  0  0  0
  6  9  1  0  0  0  0
  7  6  1  0  0  0  0
  8  5  1  0  0  0  0
  8  2  2  0  0  0  0
  9  5  1  0  0  0  0
 10  9  2  0  0  0  0
 10 21  1  0  0  0  0
 11  8  1  0  0  0  0
 12  7  1  0  0  0  0
 13 10  1  0  0  0  0
 14 13  1  0  0  0  0
 18 15  1  0  0  0  0
 19 17  1  6  0  0  0
 19 18  1  0  0  0  0
 19 20  1  0  0  0  0
 19 14  1  0  0  0  0
 20 15  1  0  0  0  0
 20 16  1  1  0  0  0
 21 22  1  0  0  0  0
 22 24  1  0  0  0  0
 23 22  2  0  0  0  0
 23 28  1  0  0  0  0
 24 26  3  0  0  0  0
 26 25  1  0  0  0  0
 27 30  1  0  0  0  0
 28 27  3  0  0  0  0
 29 32  1  0  0  0  0
 30 31  2  0  0  0  0
 31 29  2  0  0  0  0
 32 33  1  0  0  0  0
M  END
>  <MODEL>
2

>  <REMARK>
 VINA RESULT:      -7.4      2.661      5.182
  Name = 
  9 active torsions:
  status: ('A' for Active; 'I' for Inactive)
    1  A    between atoms: C_1  and  C_18
    2  A    between atoms: C_2  and  C_7
    3  A    between atoms: C_3  and  C_8
    4  A    between atoms: C_3  and  C_17
    5  A    between atoms: O_6  and  C_15
    6  A    between atoms: O_6  and  C_31
    7  A    between atoms: C_9  and  C_10
    8  A    between atoms: C_15  and  C_27
    9  A    between atoms: C_17  and  C_27
                            x       y       z     vdW  Elec       q    Type
                         _______ _______ _______ _____ _____    ______ ____

>  <TORSDO>
F 9

$$$$
=
 OpenBabel10222419473D

 33 35  0  0  1  0  0  0  0  0999 V2000
  188.4250  178.7870  139.3350 N   0  0  0  0  0  0  0  0  0  0  0  0
  190.6240  177.2840  138.5600 C   0  0  0  0  0  3  0  0  0  0  0  0
  188.9980  178.9700  138.1080 C   0  0  0  0  0  3  0  0  0  0  0  0
  190.0840  178.2250  137.7320 N   0  0  0  0  0  0  0  0  0  0  0  0
  188.9600  177.8560  140.1630 C   0  0  0  0  0  0  0  0  0  0  0  0
  189.5660  176.3820  141.7990 C   0  0  0  0  0  0  0  0  0  0  0  0
  189.6240  175.6390  143.0170 N   0  0  0  0  0  2  0  0  0  0  0  0
  190.0380  177.1040  139.8040 C   0  0  0  0  0  0  0  0  0  0  0  0
  188.5700  177.4420  141.5030 C   0  0  0  0  0  0  0  0  0  0  0  0
  187.5740  177.9150  142.2730 C   0  0  0  0  0  0  0  0  0  0  0  0
  190.4100  176.1880  140.8270 N   0  0  0  0  0  0  0  0  0  0  0  0
  190.5700  174.6900  143.2070 O   0  0  0  0  0  1  0  0  0  0  0  0
  187.3450  177.3410  143.6420 C   0  0  0  0  0  2  0  0  0  0  0  0
  187.6960  178.2510  144.6550 O   0  0  0  0  0  0  0  0  0  0  0  0
  188.1380  178.2140  147.7970 C   0  0  0  0  0  2  0  0  0  0  0  0
  190.0590  177.4910  146.0360 Cl  0  0  0  0  0  0  0  0  0  0  0  0
  186.2730  176.7530  145.7760 O   0  0  0  0  0  1  0  0  0  0  0  0
  186.9930  178.7520  146.9560 C   0  0  0  0  0  2  0  0  0  0  0  0
  187.2910  177.7080  145.8950 C   0  0  2  0  0  0  0  0  0  0  0  0
  188.4450  177.1710  146.7350 C   0  0  2  0  0  3  0  0  0  0  0  0
  186.7090  179.0410  141.7760 C   0  0  0  0  0  2  0  0  0  0  0  0
  185.2590  178.6800  141.8320 C   0  0  0  0  0  0  0  0  0  0  0  0
  184.6490  178.3080  140.7050 C   0  0  0  0  0  3  0  0  0  0  0  0
  184.5620  178.7410  143.0960 C   0  0  0  0  0  0  0  0  0  0  0  0
  183.2750  178.8680  145.4290 C   0  0  0  0  0  1  0  0  0  0  0  0
  183.9800  178.7970  144.1500 C   0  0  0  0  0  0  0  0  0  0  0  0
  182.0990  177.6040  140.5890 C   0  0  0  0  0  0  0  0  0  0  0  0
  183.2610  177.9230  140.6460 C   0  0  0  0  0  0  0  0  0  0  0  0
  180.0240  175.0560  139.2460 C   0  0  0  0  0  3  0  0  0  0  0  0
  180.7170  177.2290  140.5120 C   0  0  0  0  0  3  0  0  0  0  0  0
  180.3700  176.1430  139.8810 C   0  0  0  0  0  0  0  0  0  0  0  0
  179.6920  173.8030  139.9880 C   0  0  0  0  0  2  0  0  0  0  0  0
  179.2540  174.1170  141.4080 C   0  0  0  0  0  1  0  0  0  0  0  0
  1  5  1  0  0  0  0
  2  8  1  0  0  0  0
  3  1  2  0  0  0  0
  4  3  1  0  0  0  0
  4  2  2  0  0  0  0
  5  9  1  0  0  0  0
  6  7  1  0  0  0  0
  7 12  1  0  0  0  0
  8  5  2  0  0  0  0
  8 11  1  0  0  0  0
  9  6  1  0  0  0  0
  9 10  2  0  0  0  0
 10 13  1  0  0  0  0
 11  6  2  0  0  0  0
 13 14  1  0  0  0  0
 14 19  1  0  0  0  0
 18 15  1  0  0  0  0
 19 17  1  6  0  0  0
 19 20  1  0  0  0  0
 19 18  1  0  0  0  0
 20 16  1  6  0  0  0
 20 15  1  0  0  0  0
 21 22  1  0  0  0  0
 21 10  1  0  0  0  0
 22 24  1  0  0  0  0
 23 22  2  0  0  0  0
 24 26  3  0  0  0  0
 26 25  1  0  0  0  0
 27 28  3  0  0  0  0
 28 23  1  0  0  0  0
 29 31  2  0  0  0  0
 29 32  1  0  0  0  0
 30 27  1  0  0  0  0
 31 30  2  0  0  0  0
 32 33  1  0  0  0  0
M  END
>  <MODEL>
3

>  <REMARK>
 VINA RESULT:      -7.3      3.875      7.280
  Name = 
  9 active torsions:
  status: ('A' for Active; 'I' for Inactive)
    1  A    between atoms: C_1  and  C_18
    2  A    between atoms: C_2  and  C_7
    3  A    between atoms: C_3  and  C_8
    4  A    between atoms: C_3  and  C_17
    5  A    between atoms: O_6  and  C_15
    6  A    between atoms: O_6  and  C_31
    7  A    between atoms: C_9  and  C_10
    8  A    between atoms: C_15  and  C_27
    9  A    between atoms: C_17  and  C_27
                            x       y       z     vdW  Elec       q    Type
                         _______ _______ _______ _____ _____    ______ ____

>  <TORSDO>
F 9

$$$$
=
 OpenBabel10222419473D

 33 35  0  0  1  0  0  0  0  0999 V2000
  186.1890  178.6360  137.7460 N   0  0  0  0  0  0  0  0  0  0  0  0
  186.2930  176.6450  135.8160 C   0  0  0  0  0  3  0  0  0  0  0  0
  187.2010  178.6040  136.8280 C   0  0  0  0  0  3  0  0  0  0  0  0
  187.2480  177.6190  135.8780 N   0  0  0  0  0  0  0  0  0  0  0  0
  185.2410  177.6680  137.6900 C   0  0  0  0  0  0  0  0  0  0  0  0
  183.4740  176.2350  137.8920 C   0  0  0  0  0  0  0  0  0  0  0  0
  182.2800  175.5910  138.3360 N   0  0  0  0  0  2  0  0  0  0  0  0
  185.2680  176.6820  136.7510 C   0  0  0  0  0  0  0  0  0  0  0  0
  184.0620  177.4470  138.5150 C   0  0  0  0  0  0  0  0  0  0  0  0
  183.6330  178.1550  139.5750 C   0  0  0  0  0  0  0  0  0  0  0  0
  184.1660  175.7930  136.8810 N   0  0  0  0  0  0  0  0  0  0  0  0
  181.8130  174.4840  137.7120 O   0  0  0  0  0  1  0  0  0  0  0  0
  182.3770  177.7470  140.2920 C   0  0  0  0  0  2  0  0  0  0  0  0
  181.6880  178.8580  140.8090 O   0  0  0  0  0  0  0  0  0  0  0  0
  178.9310  179.4730  142.2560 C   0  0  0  0  0  2  0  0  0  0  0  0
  181.1540  178.7080  143.5960 Cl  0  0  0  0  0  0  0  0  0  0  0  0
  179.9530  177.4130  140.1570 O   0  0  0  0  0  1  0  0  0  0  0  0
  179.3710  179.6790  140.8170 C   0  0  0  0  0  2  0  0  0  0  0  0
  180.3260  178.5060  140.9480 C   0  0  2  0  0  0  0  0  0  0  0  0
  179.8910  178.3030  142.3960 C   0  0  2  0  0  3  0  0  0  0  0  0
  184.4270  179.3360  140.0630 C   0  0  0  0  0  2  0  0  0  0  0  0
  185.2020  178.9990  141.2960 C   0  0  0  0  0  0  0  0  0  0  0  0
  184.5820  179.0610  142.4770 C   0  0  0  0  0  3  0  0  0  0  0  0
  186.5910  178.6190  141.1790 C   0  0  0  0  0  0  0  0  0  0  0  0
  189.1560  177.9220  140.9530 C   0  0  0  0  0  1  0  0  0  0  0  0
  187.7500  178.3030  141.0780 C   0  0  0  0  0  0  0  0  0  0  0  0
  185.7720  178.4820  144.7700 C   0  0  0  0  0  0  0  0  0  0  0  0
  185.2270  178.7430  143.7270 C   0  0  0  0  0  0  0  0  0  0  0  0
  188.7130  176.9210  146.0010 C   0  0  0  0  0  3  0  0  0  0  0  0
  186.4270  178.1770  146.0100 C   0  0  0  0  0  3  0  0  0  0  0  0
  187.5690  177.5500  146.0060 C   0  0  0  0  0  0  0  0  0  0  0  0
  189.9970  177.6550  146.2070 C   0  0  0  0  0  2  0  0  0  0  0  0
  190.4600  178.3060  144.9160 C   0  0  0  0  0  1  0  0  0  0  0  0
  2  4  2  0  0  0  0
  2  8  1  0  0  0  0
  3  1  2  0  0  0  0
  4  3  1  0  0  0  0
  5  1  1  0  0  0  0
  5  9  1  0  0  0  0
  6  7  1  0  0  0  0
  6  9  1  0  0  0  0
  8 11  1  0  0  0  0
  8  5  2  0  0  0  0
  9 10  2  0  0  0  0
 10 21  1  0  0  0  0
 10 13  1  0  0  0  0
 11  6  2  0  0  0  0
 12  7  1  0  0  0  0
 13 14  1  0  0  0  0
 14 19  1  0  0  0  0
 15 20  1  0  0  0  0
 18 19  1  0  0  0  0
 18 15  1  0  0  0  0
 19 17  1  6  0  0  0
 19 20  1  0  0  0  0
 20 16  1  1  0  0  0
 21 22  1  0  0  0  0
 22 23  2  0  0  0  0
 23 28  1  0  0  0  0
 24 22  1  0  0  0  0
 25 26  1  0  0  0  0
 26 24  3  0  0  0  0
 27 30  1  0  0  0  0
 28 27  3  0  0  0  0
 29 31  2  0  0  0  0
 29 32  1  0  0  0  0
 31 30  2  0  0  0  0
 33 32  1  0  0  0  0
M  END
>  <MODEL>
4

>  <REMARK>
 VINA RESULT:      -7.3      0.980      2.108
  Name = 
  9 active torsions:
  status: ('A' for Active; 'I' for Inactive)
    1  A    between atoms: C_1  and  C_18
    2  A    between atoms: C_2  and  C_7
    3  A    between atoms: C_3  and  C_8
    4  A    between atoms: C_3  and  C_17
    5  A    between atoms: O_6  and  C_15
    6  A    between atoms: O_6  and  C_31
    7  A    between atoms: C_9  and  C_10
    8  A    between atoms: C_15  and  C_27
    9  A    between atoms: C_17  and  C_27
                            x       y       z     vdW  Elec       q    Type
                         _______ _______ _______ _____ _____    ______ ____

>  <TORSDO>
F 9

$$$$
=
 OpenBabel10222419473D

 33 35  0  0  1  0  0  0  0  0999 V2000
  186.4300  178.6400  137.7200 N   0  0  0  0  0  0  0  0  0  0  0  0
  186.9420  176.6250  135.8820 C   0  0  0  0  0  3  0  0  0  0  0  0
  187.5410  178.6850  136.9250 C   0  0  0  0  0  3  0  0  0  0  0  0
  187.7880  177.6880  136.0200 N   0  0  0  0  0  0  0  0  0  0  0  0
  185.5890  177.5850  137.5890 C   0  0  0  0  0  0  0  0  0  0  0  0
  183.9510  175.9940  137.6370 C   0  0  0  0  0  0  0  0  0  0  0  0
  182.7780  175.2490  137.9640 N   0  0  0  0  0  2  0  0  0  0  0  0
  185.8170  176.5850  136.6930 C   0  0  0  0  0  0  0  0  0  0  0  0
  184.3480  177.2710  138.2810 C   0  0  0  0  0  0  0  0  0  0  0  0
  183.7340  177.9580  139.2610 C   0  0  0  0  0  0  0  0  0  0  0  0
  184.7940  175.5970  136.7260 N   0  0  0  0  0  0  0  0  0  0  0  0
  182.4920  174.0880  137.3280 O   0  0  0  0  0  1  0  0  0  0  0  0
  182.4470  177.4480  139.8450 C   0  0  0  0  0  2  0  0  0  0  0  0
  181.3270  178.0190  139.2150 O   0  0  0  0  0  0  0  0  0  0  0  0
  179.0100  180.0960  139.8400 C   0  0  0  0  0  2  0  0  0  0  0  0
  181.3590  180.8140  138.7060 Cl  0  0  0  0  0  0  0  0  0  0  0  0
  180.8330  178.2000  141.5060 O   0  0  0  0  0  1  0  0  0  0  0  0
  179.0370  178.5790  139.9130 C   0  0  0  0  0  2  0  0  0  0  0  0
  180.5260  178.6270  140.2080 C   0  0  2  0  0  0  0  0  0  0  0  0
  180.5010  180.1500  140.1280 C   0  0  2  0  0  3  0  0  0  0  0  0
  184.3530  179.2200  139.7970 C   0  0  0  0  0  2  0  0  0  0  0  0
  184.9260  179.0100  141.1610 C   0  0  0  0  0  0  0  0  0  0  0  0
  184.1200  179.1250  142.2180 C   0  0  0  0  0  3  0  0  0  0  0  0
  186.3290  178.6910  141.2990 C   0  0  0  0  0  0  0  0  0  0  0  0
  188.9210  178.1120  141.5510 C   0  0  0  0  0  1  0  0  0  0  0  0
  187.5000  178.4280  141.4130 C   0  0  0  0  0  0  0  0  0  0  0  0
  184.9270  178.7700  144.7140 C   0  0  0  0  0  0  0  0  0  0  0  0
  184.5610  178.9280  143.5760 C   0  0  0  0  0  0  0  0  0  0  0  0
  187.5090  177.2050  146.5830 C   0  0  0  0  0  3  0  0  0  0  0  0
  185.3580  178.5900  146.0710 C   0  0  0  0  0  3  0  0  0  0  0  0
  186.4320  177.8980  146.3270 C   0  0  0  0  0  0  0  0  0  0  0  0
  188.8010  177.8780  146.9050 C   0  0  0  0  0  2  0  0  0  0  0  0
  189.9170  177.3570  146.0160 C   0  0  0  0  0  1  0  0  0  0  0  0
  2  4  2  0  0  0  0
  2  8  1  0  0  0  0
  3  1  2  0  0  0  0
  4  3  1  0  0  0  0
  5  1  1  0  0  0  0
  5  9  1  0  0  0  0
  6  7  1  0  0  0  0
  6  9  1  0  0  0  0
  8 11  1  0  0  0  0
  8  5  2  0  0  0  0
  9 10  2  0  0  0  0
 10 21  1  0  0  0  0
 10 13  1  0  0  0  0
 11  6  2  0  0  0  0
 12  7  1  0  0  0  0
 14 13  1  0  0  0  0
 14 19  1  0  0  0  0
 15 18  1  0  0  0  0
 15 20  1  0  0  0  0
 18 19  1  0  0  0  0
 19 17  1  1  0  0  0
 20 16  1  6  0  0  0
 20 19  1  0  0  0  0
 21 22  1  0  0  0  0
 22 24  1  0  0  0  0
 22 23  2  0  0  0  0
 23 28  1  0  0  0  0
 24 26  3  0  0  0  0
 26 25  1  0  0  0  0
 27 30  1  0  0  0  0
 28 27  3  0  0  0  0
 29 32  1  0  0  0  0
 30 31  2  0  0  0  0
 31 29  2  0  0  0  0
 33 32  1  0  0  0  0
M  END
>  <MODEL>
5

>  <REMARK>
 VINA RESULT:      -7.2      1.546      2.579
  Name = 
  9 active torsions:
  status: ('A' for Active; 'I' for Inactive)
    1  A    between atoms: C_1  and  C_18
    2  A    between atoms: C_2  and  C_7
    3  A    between atoms: C_3  and  C_8
    4  A    between atoms: C_3  and  C_17
    5  A    between atoms: O_6  and  C_15
    6  A    between atoms: O_6  and  C_31
    7  A    between atoms: C_9  and  C_10
    8  A    between atoms: C_15  and  C_27
    9  A    between atoms: C_17  and  C_27
                            x       y       z     vdW  Elec       q    Type
                         _______ _______ _______ _____ _____    ______ ____

>  <TORSDO>
F 9

$$$$
=
 OpenBabel10222419473D

 33 35  0  0  1  0  0  0  0  0999 V2000
  181.7160  179.0030  141.3990 N   0  0  0  0  0  0  0  0  0  0  0  0
  179.3760  177.5140  141.3530 C   0  0  0  0  0  3  0  0  0  0  0  0
  180.6640  179.3310  142.2070 C   0  0  0  0  0  3  0  0  0  0  0  0
  179.5110  178.5920  142.1790 N   0  0  0  0  0  0  0  0  0  0  0  0
  181.5850  177.9360  140.5740 C   0  0  0  0  0  0  0  0  0  0  0  0
  181.7380  176.2110  139.0850 C   0  0  0  0  0  0  0  0  0  0  0  0
  182.2100  175.2970  138.0940 N   0  0  0  0  0  2  0  0  0  0  0  0
  180.4480  177.1870  140.5350 C   0  0  0  0  0  0  0  0  0  0  0  0
  182.5180  177.3540  139.6210 C   0  0  0  0  0  0  0  0  0  0  0  0
  183.7590  177.7620  139.3020 C   0  0  0  0  0  0  0  0  0  0  0  0
  180.5480  176.1150  139.6060 N   0  0  0  0  0  0  0  0  0  0  0  0
  181.4300  174.2820  137.6570 O   0  0  0  0  0  1  0  0  0  0  0  0
  184.5590  177.0090  138.2770 C   0  0  0  0  0  2  0  0  0  0  0  0
  185.2360  177.8770  137.4020 O   0  0  0  0  0  0  0  0  0  0  0  0
  188.0640  176.6450  136.6590 C   0  0  0  0  0  2  0  0  0  0  0  0
  187.6220  179.3090  136.8290 Cl  0  0  0  0  0  0  0  0  0  0  0  0
  185.2140  176.6400  135.4040 O   0  0  0  0  0  1  0  0  0  0  0  0
  186.7830  175.9860  137.1410 C   0  0  0  0  0  2  0  0  0  0  0  0
  185.9760  177.0930  136.4890 C   0  0  2  0  0  0  0  0  0  0  0  0
  187.2610  177.7600  136.0100 C   0  0  2  0  0  3  0  0  0  0  0  0
  184.3360  178.9920  139.9500 C   0  0  0  0  0  2  0  0  0  0  0  0
  185.3570  178.6370  140.9820 C   0  0  0  0  0  0  0  0  0  0  0  0
  184.9680  178.5220  142.2530 C   0  0  0  0  0  3  0  0  0  0  0  0
  186.7290  178.4280  140.5790 C   0  0  0  0  0  0  0  0  0  0  0  0
  189.2640  178.0360  139.8470 C   0  0  0  0  0  1  0  0  0  0  0  0
  187.8750  178.2520  140.2470 C   0  0  0  0  0  0  0  0  0  0  0  0
  186.6170  177.8780  144.2210 C   0  0  0  0  0  0  0  0  0  0  0  0
  185.8630  178.1690  143.3260 C   0  0  0  0  0  0  0  0  0  0  0  0
  189.9730  176.8400  144.7340 C   0  0  0  0  0  3  0  0  0  0  0  0
  187.5210  177.5390  145.2830 C   0  0  0  0  0  3  0  0  0  0  0  0
  188.7460  177.1900  145.0090 C   0  0  0  0  0  0  0  0  0  0  0  0
  191.1040  177.7990  144.9010 C   0  0  0  0  0  2  0  0  0  0  0  0
  190.9400  178.9940  143.9770 C   0  0  0  0  0  1  0  0  0  0  0  0
  1  3  1  0  0  0  0
  2  4  1  0  0  0  0
  4  3  2  0  0  0  0
  5  1  2  0  0  0  0
  6 11  2  0  0  0  0
  6  9  1  0  0  0  0
  7  6  1  0  0  0  0
  8  5  1  0  0  0  0
  8  2  2  0  0  0  0
  9  5  1  0  0  0  0
 10  9  2  0  0  0  0
 10 21  1  0  0  0  0
 11  8  1  0  0  0  0
 12  7  1  0  0  0  0
 13 10  1  0  0  0  0
 14 13  1  0  0  0  0
 15 18  1  0  0  0  0
 19 17  1  6  0  0  0
 19 18  1  0  0  0  0
 19 14  1  0  0  0  0
 20 19  1  0  0  0  0
 20 15  1  0  0  0  0
 20 16  1  1  0  0  0
 21 22  1  0  0  0  0
 22 23  2  0  0  0  0
 23 28  1  0  0  0  0
 24 22  1  0  0  0  0
 25 26  1  0  0  0  0
 26 24  3  0  0  0  0
 27 30  1  0  0  0  0
 28 27  3  0  0  0  0
 29 32  1  0  0  0  0
 29 31  2  0  0  0  0
 31 30  2  0  0  0  0
 33 32  1  0  0  0  0
M  END
>  <MODEL>
6

>  <REMARK>
 VINA RESULT:      -7.1      2.872      5.665
  Name = 
  9 active torsions:
  status: ('A' for Active; 'I' for Inactive)
    1  A    between atoms: C_1  and  C_18
    2  A    between atoms: C_2  and  C_7
    3  A    between atoms: C_3  and  C_8
    4  A    between atoms: C_3  and  C_17
    5  A    between atoms: O_6  and  C_15
    6  A    between atoms: O_6  and  C_31
    7  A    between atoms: C_9  and  C_10
    8  A    between atoms: C_15  and  C_27
    9  A    between atoms: C_17  and  C_27
                            x       y       z     vdW  Elec       q    Type
                         _______ _______ _______ _____ _____    ______ ____

>  <TORSDO>
F 9

$$$$
=
 OpenBabel10222419473D

 33 35  0  0  1  0  0  0  0  0999 V2000
  181.7020  178.6590  140.6010 N   0  0  0  0  0  0  0  0  0  0  0  0
  179.8170  176.7440  139.9070 C   0  0  0  0  0  3  0  0  0  0  0  0
  180.4290  178.7220  141.0930 C   0  0  0  0  0  3  0  0  0  0  0  0
  179.5030  177.7740  140.7460 N   0  0  0  0  0  0  0  0  0  0  0  0
  182.0180  177.6400  139.7640 C   0  0  0  0  0  0  0  0  0  0  0  0
  182.9140  176.0760  138.3610 C   0  0  0  0  0  0  0  0  0  0  0  0
  183.8100  175.3370  137.5310 N   0  0  0  0  0  2  0  0  0  0  0  0
  181.1120  176.6870  139.4110 C   0  0  0  0  0  0  0  0  0  0  0  0
  183.2710  177.3140  139.0980 C   0  0  0  0  0  0  0  0  0  0  0  0
  184.4400  177.9780  139.1340 C   0  0  0  0  0  0  0  0  0  0  0  0
  181.6740  175.7150  138.5380 N   0  0  0  0  0  0  0  0  0  0  0  0
  183.4010  174.2170  136.8900 O   0  0  0  0  0  1  0  0  0  0  0  0
  185.6210  177.4620  138.3610 C   0  0  0  0  0  2  0  0  0  0  0  0
  186.3540  178.5060  137.7700 O   0  0  0  0  0  0  0  0  0  0  0  0
  188.9390  176.8330  137.0060 C   0  0  0  0  0  2  0  0  0  0  0  0
  189.0550  179.1910  138.3250 Cl  0  0  0  0  0  0  0  0  0  0  0  0
  186.6440  178.2520  135.4520 O   0  0  0  0  0  1  0  0  0  0  0  0
  187.4630  176.4880  136.9100 C   0  0  0  0  0  2  0  0  0  0  0  0
  187.1380  177.9600  136.7300 C   0  0  2  0  0  0  0  0  0  0  0  0
  188.6200  178.3080  136.8320 C   0  0  2  0  0  3  0  0  0  0  0  0
  184.5570  179.2540  139.9220 C   0  0  0  0  0  2  0  0  0  0  0  0
  185.1340  179.0050  141.2780 C   0  0  0  0  0  0  0  0  0  0  0  0
  184.3450  179.1530  142.3450 C   0  0  0  0  0  3  0  0  0  0  0  0
  186.5190  178.6130  141.3990 C   0  0  0  0  0  0  0  0  0  0  0  0
  189.0790  177.8970  141.6310 C   0  0  0  0  0  1  0  0  0  0  0  0
  187.6760  178.2890  141.5030 C   0  0  0  0  0  0  0  0  0  0  0  0
  185.1580  178.7270  144.8280 C   0  0  0  0  0  0  0  0  0  0  0  0
  184.7910  178.9240  143.6970 C   0  0  0  0  0  0  0  0  0  0  0  0
  187.7950  177.1690  146.6240 C   0  0  0  0  0  3  0  0  0  0  0  0
  185.5880  178.4860  146.1760 C   0  0  0  0  0  3  0  0  0  0  0  0
  186.6900  177.8290  146.4000 C   0  0  0  0  0  0  0  0  0  0  0  0
  189.0540  177.8780  146.9960 C   0  0  0  0  0  2  0  0  0  0  0  0
  189.0480  178.2520  148.4680 C   0  0  0  0  0  1  0  0  0  0  0  0
  1  3  1  0  0  0  0
  2  4  1  0  0  0  0
  4  3  2  0  0  0  0
  5  1  2  0  0  0  0
  6 11  2  0  0  0  0
  6  9  1  0  0  0  0
  7  6  1  0  0  0  0
  8  5  1  0  0  0  0
  8  2  2  0  0  0  0
  9 10  2  0  0  0  0
  9  5  1  0  0  0  0
 10 21  1  0  0  0  0
 11  8  1  0  0  0  0
 12  7  1  0  0  0  0
 13 10  1  0  0  0  0
 14 13  1  0  0  0  0
 18 15  1  0  0  0  0
 19 17  1  6  0  0  0
 19 20  1  0  0  0  0
 19 18  1  0  0  0  0
 19 14  1  0  0  0  0
 20 15  1  0  0  0  0
 20 16  1  1  0  0  0
 21 22  1  0  0  0  0
 22 24  1  0  0  0  0
 22 23  2  0  0  0  0
 23 28  1  0  0  0  0
 24 26  3  0  0  0  0
 26 25  1  0  0  0  0
 27 30  1  0  0  0  0
 28 27  3  0  0  0  0
 29 32  1  0  0  0  0
 30 31  2  0  0  0  0
 31 29  2  0  0  0  0
 32 33  1  0  0  0  0
M  END
>  <MODEL>
7

>  <REMARK>
 VINA RESULT:      -7.1      2.760      5.548
  Name = 
  9 active torsions:
  status: ('A' for Active; 'I' for Inactive)
    1  A    between atoms: C_1  and  C_18
    2  A    between atoms: C_2  and  C_7
    3  A    between atoms: C_3  and  C_8
    4  A    between atoms: C_3  and  C_17
    5  A    between atoms: O_6  and  C_15
    6  A    between atoms: O_6  and  C_31
    7  A    between atoms: C_9  and  C_10
    8  A    between atoms: C_15  and  C_27
    9  A    between atoms: C_17  and  C_27
                            x       y       z     vdW  Elec       q    Type
                         _______ _______ _______ _____ _____    ______ ____

>  <TORSDO>
F 9

$$$$
=
 OpenBabel10222419473D

 33 35  0  0  1  0  0  0  0  0999 V2000
  185.3980  178.9990  138.7990 N   0  0  0  0  0  0  0  0  0  0  0  0
  183.1860  177.8270  137.6030 C   0  0  0  0  0  3  0  0  0  0  0  0
  184.1560  179.5510  138.9360 C   0  0  0  0  0  3  0  0  0  0  0  0
  183.0680  178.9690  138.3430 N   0  0  0  0  0  0  0  0  0  0  0  0
  185.5210  177.8670  138.0620 C   0  0  0  0  0  0  0  0  0  0  0  0
  186.1070  175.9750  136.9260 C   0  0  0  0  0  0  0  0  0  0  0  0
  186.8500  174.8980  136.3540 N   0  0  0  0  0  2  0  0  0  0  0  0
  184.4500  177.2720  137.4670 C   0  0  0  0  0  0  0  0  0  0  0  0
  186.6920  177.0620  137.7490 C   0  0  0  0  0  0  0  0  0  0  0  0
  187.9730  177.2680  138.1030 C   0  0  0  0  0  0  0  0  0  0  0  0
  184.8200  176.0940  136.7620 N   0  0  0  0  0  0  0  0  0  0  0  0
  186.2370  173.9470  135.6120 O   0  0  0  0  0  1  0  0  0  0  0  0
  189.0390  176.3030  137.6650 C   0  0  0  0  0  2  0  0  0  0  0  0
  190.2660  176.9500  137.4350 O   0  0  0  0  0  0  0  0  0  0  0  0
  192.2770  174.5010  137.5910 C   0  0  0  0  0  2  0  0  0  0  0  0
  192.7530  176.8710  138.8070 Cl  0  0  0  0  0  0  0  0  0  0  0  0
  191.1290  176.3220  135.3410 O   0  0  0  0  0  1  0  0  0  0  0  0
  190.8670  174.6000  137.0370 C   0  0  0  0  0  2  0  0  0  0  0  0
  191.1030  176.0660  136.7180 C   0  0  2  0  0  0  0  0  0  0  0  0
  192.5170  175.9690  137.2800 C   0  0  2  0  0  3  0  0  0  0  0  0
  188.3450  178.4810  138.9120 C   0  0  0  0  0  2  0  0  0  0  0  0
  188.5730  178.1300  140.3470 C   0  0  0  0  0  0  0  0  0  0  0  0
  189.7850  177.7110  140.7180 C   0  0  0  0  0  3  0  0  0  0  0  0
  187.4840  178.2520  141.2880 C   0  0  0  0  0  0  0  0  0  0  0  0
  185.4790  178.4710  143.0340 C   0  0  0  0  0  1  0  0  0  0  0  0
  186.5770  178.3520  142.0760 C   0  0  0  0  0  0  0  0  0  0  0  0
  190.4010  177.0770  143.2130 C   0  0  0  0  0  0  0  0  0  0  0  0
  190.1200  177.3620  142.0750 C   0  0  0  0  0  0  0  0  0  0  0  0
  189.4360  177.8600  146.5390 C   0  0  0  0  0  3  0  0  0  0  0  0
  190.7350  176.7480  144.5690 C   0  0  0  0  0  3  0  0  0  0  0  0
  190.0860  177.3030  145.5530 C   0  0  0  0  0  0  0  0  0  0  0  0
  188.3620  177.1240  147.2680 C   0  0  0  0  0  2  0  0  0  0  0  0
  187.9320  177.8850  148.5100 C   0  0  0  0  0  1  0  0  0  0  0  0
  1  3  1  0  0  0  0
  2  4  1  0  0  0  0
  4  3  2  0  0  0  0
  5  1  2  0  0  0  0
  6  9  1  0  0  0  0
  7  6  1  0  0  0  0
  8  2  2  0  0  0  0
  8  5  1  0  0  0  0
  9  5  1  0  0  0  0
  9 10  2  0  0  0  0
 10 21  1  0  0  0  0
 11  6  2  0  0  0  0
 11  8  1  0  0  0  0
 12  7  1  0  0  0  0
 13 10  1  0  0  0  0
 14 13  1  0  0  0  0
 18 15  1  0  0  0  0
 19 17  1  6  0  0  0
 19 18  1  0  0  0  0
 19 20  1  0  0  0  0
 19 14  1  0  0  0  0
 20 15  1  0  0  0  0
 20 16  1  1  0  0  0
 21 22  1  0  0  0  0
 22 23  2  0  0  0  0
 22 24  1  0  0  0  0
 23 28  1  0  0  0  0
 24 26  3  0  0  0  0
 26 25  1  0  0  0  0
 27 30  1  0  0  0  0
 28 27  3  0  0  0  0
 29 32  1  0  0  0  0
 30 31  2  0  0  0  0
 31 29  2  0  0  0  0
 32 33  1  0  0  0  0
M  END
>  <MODEL>
8

>  <REMARK>
 VINA RESULT:      -7.1      4.167      6.490
  Name = 
  9 active torsions:
  status: ('A' for Active; 'I' for Inactive)
    1  A    between atoms: C_1  and  C_18
    2  A    between atoms: C_2  and  C_7
    3  A    between atoms: C_3  and  C_8
    4  A    between atoms: C_3  and  C_17
    5  A    between atoms: O_6  and  C_15
    6  A    between atoms: O_6  and  C_31
    7  A    between atoms: C_9  and  C_10
    8  A    between atoms: C_15  and  C_27
    9  A    between atoms: C_17  and  C_27
                            x       y       z     vdW  Elec       q    Type
                         _______ _______ _______ _____ _____    ______ ____

>  <TORSDO>
F 9

$$$$
=
 OpenBabel10222419473D

 33 35  0  0  1  0  0  0  0  0999 V2000
  192.2570  176.7810  138.6170 N   0  0  0  0  0  0  0  0  0  0  0  0
  193.5880  174.5200  137.7170 C   0  0  0  0  0  3  0  0  0  0  0  0
  193.6080  176.6570  138.7770 C   0  0  0  0  0  3  0  0  0  0  0  0
  194.2590  175.5380  138.3310 N   0  0  0  0  0  0  0  0  0  0  0  0
  191.5850  175.7710  138.0120 C   0  0  0  0  0  0  0  0  0  0  0  0
  190.1370  174.3020  137.0310 C   0  0  0  0  0  0  0  0  0  0  0  0
  188.9580  173.6780  136.5220 N   0  0  0  0  0  2  0  0  0  0  0  0
  192.2160  174.6530  137.5590 C   0  0  0  0  0  0  0  0  0  0  0  0
  190.1700  175.6250  137.7030 C   0  0  0  0  0  0  0  0  0  0  0  0
  189.1580  176.4680  137.9750 C   0  0  0  0  0  0  0  0  0  0  0  0
  191.3100  173.7410  136.9490 N   0  0  0  0  0  0  0  0  0  0  0  0
  189.0170  172.4650  135.9240 O   0  0  0  0  0  1  0  0  0  0  0  0
  187.7560  176.1160  137.5660 C   0  0  0  0  0  2  0  0  0  0  0  0
  187.4900  176.4930  136.2370 O   0  0  0  0  0  0  0  0  0  0  0  0
  184.4060  177.1100  136.6530 C   0  0  0  0  0  2  0  0  0  0  0  0
  185.3260  175.4790  134.7010 Cl  0  0  0  0  0  0  0  0  0  0  0  0
  186.9480  178.7610  135.9430 O   0  0  0  0  0  1  0  0  0  0  0  0
  185.6160  177.4570  137.5030 C   0  0  0  0  0  2  0  0  0  0  0  0
  186.4780  177.4790  136.2530 C   0  0  2  0  0  0  0  0  0  0  0  0
  185.2640  177.1240  135.4000 C   0  0  2  0  0  3  0  0  0  0  0  0
  189.4250  177.7490  138.7180 C   0  0  0  0  0  2  0  0  0  0  0  0
  188.8460  177.7100  140.0960 C   0  0  0  0  0  0  0  0  0  0  0  0
  187.6420  178.2500  140.2990 C   0  0  0  0  0  3  0  0  0  0  0  0
  189.6000  177.0950  141.1640 C   0  0  0  0  0  0  0  0  0  0  0  0
  190.9810  175.9540  143.1410 C   0  0  0  0  0  1  0  0  0  0  0  0
  190.2250  176.5800  142.0570 C   0  0  0  0  0  0  0  0  0  0  0  0
  186.4250  178.2600  142.6500 C   0  0  0  0  0  0  0  0  0  0  0  0
  186.9830  178.2550  141.5810 C   0  0  0  0  0  0  0  0  0  0  0  0
  186.9530  177.3330  146.0360 C   0  0  0  0  0  3  0  0  0  0  0  0
  185.7520  178.2680  143.9170 C   0  0  0  0  0  3  0  0  0  0  0  0
  186.3520  177.8020  144.9760 C   0  0  0  0  0  0  0  0  0  0  0  0
  187.5640  178.2490  147.0430 C   0  0  0  0  0  2  0  0  0  0  0  0
  188.1770  177.4610  148.1880 C   0  0  0  0  0  1  0  0  0  0  0  0
  1  3  1  0  0  0  0
  2  4  1  0  0  0  0
  4  3  2  0  0  0  0
  5  1  2  0  0  0  0
  6  9  1  0  0  0  0
  7  6  1  0  0  0  0
  8  2  2  0  0  0  0
  8  5  1  0  0  0  0
  9 10  2  0  0  0  0
  9  5  1  0  0  0  0
 10 21  1  0  0  0  0
 11  6  2  0  0  0  0
 11  8  1  0  0  0  0
 12  7  1  0  0  0  0
 13 10  1  0  0  0  0
 14 19  1  0  0  0  0
 14 13  1  0  0  0  0
 15 18  1  0  0  0  0
 19 17  1  6  0  0  0
 19 18  1  0  0  0  0
 20 16  1  1  0  0  0
 20 19  1  0  0  0  0
 20 15  1  0  0  0  0
 21 22  1  0  0  0  0
 22 23  2  0  0  0  0
 22 24  1  0  0  0  0
 23 28  1  0  0  0  0
 24 26  3  0  0  0  0
 26 25  1  0  0  0  0
 27 30  1  0  0  0  0
 28 27  3  0  0  0  0
 29 32  1  0  0  0  0
 30 31  2  0  0  0  0
 31 29  2  0  0  0  0
 32 33  1  0  0  0  0
M  END
>  <MODEL>
9

>  <REMARK>
 VINA RESULT:      -7.0      4.596      6.442
  Name = 
  9 active torsions:
  status: ('A' for Active; 'I' for Inactive)
    1  A    between atoms: C_1  and  C_18
    2  A    between atoms: C_2  and  C_7
    3  A    between atoms: C_3  and  C_8
    4  A    between atoms: C_3  and  C_17
    5  A    between atoms: O_6  and  C_15
    6  A    between atoms: O_6  and  C_31
    7  A    between atoms: C_9  and  C_10
    8  A    between atoms: C_15  and  C_27
    9  A    between atoms: C_17  and  C_27
                            x       y       z     vdW  Elec       q    Type
                         _______ _______ _______ _____ _____    ______ ____

>  <TORSDO>
F 9

$$$$
