=
 OpenBabel10222418173D

 59 64  0  0  1  0  0  0  0  0999 V2000
  189.5430  176.5170  144.2550 C   0  0  0  0  0  3  0  0  0  0  0  0
  190.3150  176.7600  141.9970 C   0  0  0  0  0  0  0  0  0  0  0  0
  189.0740  177.2020  141.6050 C   0  0  0  0  0  0  0  0  0  0  0  0
  188.0050  177.7590  139.2260 C   0  0  0  0  0  2  0  0  0  0  0  0
  188.2730  176.9770  143.8610 C   0  0  0  0  0  3  0  0  0  0  0  0
  188.8000  178.9120  139.8140 C   0  0  0  0  0  2  0  0  0  0  0  0
  190.5790  176.4060  143.3180 C   0  0  0  0  0  3  0  0  0  0  0  0
  188.0150  177.3160  142.5180 C   0  0  0  0  0  0  0  0  0  0  0  0
  189.1690  177.4870  140.1520 C   0  0  0  0  0  0  0  0  0  0  0  0
  191.2570  176.7240  140.9310 N   0  0  0  0  0  2  0  0  0  0  0  0
  190.5920  177.1540  139.6980 C   0  0  1  0  0  3  0  0  0  0  0  0
  190.5630  175.1180  137.9680 C   0  0  0  0  0  0  0  0  0  0  0  0
  190.5860  176.0410  138.7430 C   0  0  0  0  0  0  0  0  0  0  0  0
  190.5180  173.9880  137.0320 C   0  0  2  0  0  3  0  0  0  0  0  0
  191.1230  174.3550  135.6760 C   0  0  0  0  0  2  0  0  0  0  0  0
  192.0100  173.2490  135.1180 C   0  0  0  0  0  2  0  0  0  0  0  0
  193.4810  173.6310  135.2490 C   0  0  0  0  0  2  0  0  0  0  0  0
  194.6020  172.3810  136.9880 O   0  0  0  0  0  1  0  0  0  0  0  0
  193.9910  173.6020  136.6950 C   0  0  1  0  0  3  0  0  0  0  0  0
  194.9080  174.7700  137.0770 C   0  0  1  0  0  3  0  0  0  0  0  0
  194.3160  175.6140  138.0210 O   0  0  0  0  0  1  0  0  0  0  0  0
  196.2870  174.3150  137.5410 C   0  0  0  0  0  2  0  0  0  0  0  0
  197.1690  174.1550  136.4390 O   0  0  0  0  0  0  0  0  0  0  0  0
  197.3610  176.4180  136.0370 O   0  0  0  0  0  0  0  0  0  0  0  0
  198.7830  175.0230  134.7530 C   0  0  0  0  0  1  0  0  0  0  0  0
  197.7330  175.2460  135.7800 C   0  0  0  0  0  0  0  0  0  0  0  0
  189.0990  173.4590  136.8880 C   0  0  0  0  0  2  0  0  0  0  0  0
  188.1350  174.6010  136.6370 C   0  0  0  0  0  2  0  0  0  0  0  0
  187.5130  174.4830  135.2560 C   0  0  0  0  0  2  0  0  0  0  0  0
  187.3390  175.8620  134.6440 C   0  0  0  0  0  2  0  0  0  0  0  0
  187.0650  176.8990  135.7200 C   0  0  0  0  0  2  0  0  0  0  0  0
  185.0210  177.2460  137.0810 C   0  0  0  0  0  3  0  0  0  0  0  0
  185.6320  177.0480  135.9080 N   0  0  0  0  0  0  0  0  0  0  0  0
  184.7030  176.9520  134.9440 C   0  0  0  0  0  3  0  0  0  0  0  0
  183.4550  177.1070  135.5130 C   0  0  0  0  0  3  0  0  0  0  0  0
  183.6550  177.2940  136.8700 C   0  0  0  0  0  3  0  0  0  0  0  0
  186.6950  177.9020  142.1060 C   0  0  0  0  0  2  0  0  0  0  0  0
  186.1710  178.7510  143.0870 O   0  0  0  0  0  0  0  0  0  0  0  0
  184.9720  179.2140  141.0600 C   0  0  0  0  0  0  0  0  0  0  0  0
  184.9530  179.2010  142.5650 C   0  0  1  0  0  3  0  0  0  0  0  0
  182.4980  178.7410  142.4540 C   0  0  0  0  0  2  0  0  0  0  0  0
  183.8170  178.3240  143.0880 C   0  0  0  0  0  2  0  0  0  0  0  0
  186.0270  179.5190  140.4400 O   0  0  0  0  0  0  0  0  0  0  0  0
  182.5380  178.4710  140.9500 C   0  0  2  0  0  3  0  0  0  0  0  0
  183.7560  179.0130  140.3330 N   0  0  0  0  0  2  0  0  0  0  0  0
  181.5080  179.3520  138.8880 C   0  0  1  0  0  3  0  0  0  0  0  0
  180.1680  178.0740  140.5270 C   0  0  1  0  0  3  0  0  0  0  0  0
  181.3150  178.9800  140.3080 N   0  0  1  0  0  0  0  0  0  0  0  0
  180.2000  179.3930  138.1530 C   0  0  0  0  0  0  0  0  0  0  0  0
  178.9830  178.7280  140.1230 O   0  0  0  0  0  0  0  0  0  0  0  0
  180.1560  179.7320  136.9410 O   0  0  0  0  0  0  0  0  0  0  0  0
  179.0420  178.9350  138.7880 O   0  0  0  0  0  0  0  0  0  0  0  0
  182.1940  180.7130  138.7880 C   0  0  0  0  0  1  0  0  0  0  0  0
  180.3340  176.6710  139.8890 C   0  0  1  0  0  3  0  0  0  0  0  0
  181.7340  176.1470  140.1570 C   0  0  0  0  0  1  0  0  0  0  0  0
  179.3310  175.6590  140.4400 C   0  0  0  0  0  2  0  0  0  0  0  0
  179.8870  174.2430  140.3750 C   0  0  0  0  0  3  0  0  0  0  0  0
  179.3250  173.5150  139.1690 C   0  0  0  0  0  1  0  0  0  0  0  0
  179.4820  173.4940  141.6300 C   0  0  0  0  0  1  0  0  0  0  0  0
  2  7  1  0  0  0  0
  3  2  2  0  0  0  0
  3  8  1  0  0  0  0
  4  6  1  0  0  0  0
  4  9  1  0  0  0  0
  5  1  1  0  0  0  0
  6  9  1  0  0  0  0
  7  1  2  0  0  0  0
  8  5  2  0  0  0  0
  9  3  1  0  0  0  0
 10  2  1  0  0  0  0
 11 13  1  6  0  0  0
 11  9  1  0  0  0  0
 11 10  1  0  0  0  0
 12 13  3  0  0  0  0
 14 15  1  6  0  0  0
 14 12  1  0  0  0  0
 16 17  1  0  0  0  0
 16 15  1  0  0  0  0
 17 19  1  0  0  0  0
 19 18  1  6  0  0  0
 19 20  1  0  0  0  0
 20 22  1  0  0  0  0
 20 21  1  1  0  0  0
 23 22  1  0  0  0  0
 25 26  1  0  0  0  0
 26 24  2  0  0  0  0
 26 23  1  0  0  0  0
 27 14  1  0  0  0  0
 28 27  1  0  0  0  0
 29 28  1  0  0  0  0
 30 29  1  0  0  0  0
 30 31  1  0  0  0  0
 31 33  1  0  0  0  0
 33 32  1  0  0  0  0
 34 35  2  0  0  0  0
 34 33  1  0  0  0  0
 35 36  1  0  0  0  0
 36 32  2  0  0  0  0
 37  8  1  0  0  0  0
 37 38  1  0  0  0  0
 39 40  1  0  0  0  0
 40 38  1  1  0  0  0
 40 42  1  0  0  0  0
 41 42  1  0  0  0  0
 43 39  2  0  0  0  0
 44 41  1  1  0  0  0
 45 44  1  0  0  0  0
 45 39  1  0  0  0  0
 46 53  1  1  0  0  0
 46 48  1  0  0  0  0
 47 54  1  6  0  0  0
 48 47  1  0  0  0  0
 48 44  1  6  0  0  0
 49 52  1  0  0  0  0
 49 46  1  0  0  0  0
 50 47  1  0  0  0  0
 51 49  2  0  0  0  0
 52 50  1  0  0  0  0
 54 55  1  1  0  0  0
 54 56  1  0  0  0  0
 57 56  1  0  0  0  0
 57 59  1  0  0  0  0
 58 57  1  0  0  0  0
M  END
>  <MODEL>
1

>  <REMARK>
 VINA RESULT:      -6.2      0.000      0.000
  Name = 
  23 active torsions:
  status: ('A' for Active; 'I' for Inactive)
    1  A    between atoms: C_3  and  C_30
    2  A    between atoms: C_3  and  C_40
    3  A    between atoms: C_6  and  C_26
    4  A    between atoms: C_6  and  O_46
    5  A    between atoms: C_8  and  C_40
    6  A    between atoms: C_8  and  C_42
    7  A    between atoms: C_9  and  O_46
    8  A    between atoms: C_14  and  C_22
    9  A    between atoms: C_15  and  C_27
   10  A    between atoms: C_15  and  O_49
   11  A    between atoms: N_16  and  C_31
   12  A    between atoms: C_22  and  C_47
   13  A    between atoms: C_25  and  C_47
   14  A    between atoms: C_27  and  C_53
   15  A    between atoms: C_30  and  N_33
   16  A    between atoms: C_35  and  C_36
   17  A    between atoms: C_35  and  C_41
   18  A    between atoms: C_36  and  C_53
   19  A    between atoms: C_41  and  C_44
   20  A    between atoms: C_42  and  C_44
   21  A    between atoms: C_44  and  C_50
   22  A    between atoms: C_45  and  C_51
   23  A    between atoms: O_49  and  C_57
                            x       y       z     vdW  Elec       q    Type
                         _______ _______ _______ _____ _____    ______ ____

>  <TORSDO>
F 23

$$$$
=
 OpenBabel10222418173D

 59 64  0  0  1  0  0  0  0  0999 V2000
  188.7240  173.3530  136.0700 C   0  0  0  0  0  3  0  0  0  0  0  0
  186.6760  174.3140  135.2730 C   0  0  0  0  0  0  0  0  0  0  0  0
  187.0470  175.5440  135.7600 C   0  0  0  0  0  0  0  0  0  0  0  0
  185.7810  177.8840  135.9580 C   0  0  0  0  0  2  0  0  0  0  0  0
  189.1130  174.6130  136.5630 C   0  0  0  0  0  3  0  0  0  0  0  0
  186.4160  177.6560  134.5970 C   0  0  0  0  0  2  0  0  0  0  0  0
  187.4950  173.1960  135.4170 C   0  0  0  0  0  3  0  0  0  0  0  0
  188.2680  175.7320  136.4250 C   0  0  0  0  0  0  0  0  0  0  0  0
  185.9460  176.4800  135.4200 C   0  0  0  0  0  0  0  0  0  0  0  0
  185.4110  174.3290  134.6210 N   0  0  0  0  0  2  0  0  0  0  0  0
  184.8590  175.6850  134.6940 C   0  0  1  0  0  3  0  0  0  0  0  0
  182.6000  175.6530  136.1200 C   0  0  0  0  0  0  0  0  0  0  0  0
  183.6220  175.6570  135.4810 C   0  0  0  0  0  0  0  0  0  0  0  0
  181.3480  175.6640  136.8870 C   0  0  2  0  0  3  0  0  0  0  0  0
  181.1210  177.0120  137.5740 C   0  0  0  0  0  2  0  0  0  0  0  0
  181.9970  177.1890  138.8090 C   0  0  0  0  0  2  0  0  0  0  0  0
  182.1210  178.6660  139.1630 C   0  0  0  0  0  2  0  0  0  0  0  0
  180.8530  179.4400  141.0710 O   0  0  0  0  0  1  0  0  0  0  0  0
  180.8140  179.2800  139.6830 C   0  0  1  0  0  3  0  0  0  0  0  0
  180.4020  180.5880  138.9990 C   0  0  1  0  0  3  0  0  0  0  0  0
  179.9430  181.5360  139.9170 O   0  0  0  0  0  1  0  0  0  0  0  0
  181.5010  181.1700  138.1190 C   0  0  0  0  0  2  0  0  0  0  0  0
  181.4480  182.5900  138.1080 O   0  0  0  0  0  0  0  0  0  0  0  0
  180.1420  184.3720  137.4450 O   0  0  0  0  0  0  0  0  0  0  0  0
  180.6080  182.7620  135.7700 C   0  0  0  0  0  1  0  0  0  0  0  0
  180.7170  183.2950  137.1520 C   0  0  0  0  0  0  0  0  0  0  0  0
  181.3100  174.5140  137.8820 C   0  0  0  0  0  2  0  0  0  0  0  0
  180.0800  173.6590  137.6490 C   0  0  0  0  0  2  0  0  0  0  0  0
  179.6460  173.7290  136.1940 C   0  0  0  0  0  2  0  0  0  0  0  0
  180.2340  172.5620  135.4200 C   0  0  0  0  0  2  0  0  0  0  0  0
  180.7300  171.4820  136.3660 C   0  0  0  0  0  2  0  0  0  0  0  0
  182.4950  170.1600  135.2310 C   0  0  0  0  0  3  0  0  0  0  0  0
  182.1070  171.1440  136.0490 N   0  0  0  0  0  0  0  0  0  0  0  0
  183.1970  171.7290  136.5710 C   0  0  0  0  0  3  0  0  0  0  0  0
  184.3210  171.1100  136.0630 C   0  0  0  0  0  3  0  0  0  0  0  0
  183.8760  170.1140  135.2110 C   0  0  0  0  0  3  0  0  0  0  0  0
  188.7150  177.0990  136.8570 C   0  0  0  0  0  2  0  0  0  0  0  0
  187.9260  177.6030  137.8970 O   0  0  0  0  0  0  0  0  0  0  0  0
  188.0560  178.0760  140.2470 C   0  0  0  0  0  0  0  0  0  0  0  0
  188.7990  177.7310  138.9840 C   0  0  1  0  0  3  0  0  0  0  0  0
  190.4800  176.5300  140.3920 C   0  0  0  0  0  2  0  0  0  0  0  0
  189.5960  176.4400  139.1550 C   0  0  0  0  0  2  0  0  0  0  0  0
  187.0500  178.8360  140.2060 O   0  0  0  0  0  0  0  0  0  0  0  0
  189.6110  176.6210  141.6450 C   0  0  2  0  0  3  0  0  0  0  0  0
  188.5720  177.6520  141.5120 N   0  0  0  0  0  2  0  0  0  0  0  0
  191.1490  178.1360  142.8410 C   0  0  1  0  0  3  0  0  0  0  0  0
  189.7080  176.5540  144.0820 C   0  0  1  0  0  3  0  0  0  0  0  0
  190.4520  176.8290  142.8340 N   0  0  1  0  0  0  0  0  0  0  0  0
  191.5810  178.5150  144.2270 C   0  0  0  0  0  0  0  0  0  0  0  0
  190.6200  176.5130  145.1600 O   0  0  0  0  0  0  0  0  0  0  0  0
  192.2280  179.5770  144.4280 O   0  0  0  0  0  0  0  0  0  0  0  0
  191.1570  177.7450  145.3130 O   0  0  0  0  0  0  0  0  0  0  0  0
  192.3650  178.0890  141.9190 C   0  0  0  0  0  1  0  0  0  0  0  0
  188.5120  177.5090  144.3340 C   0  0  1  0  0  3  0  0  0  0  0  0
  187.2080  176.7410  144.2130 C   0  0  0  0  0  1  0  0  0  0  0  0
  188.5630  178.1510  145.7190 C   0  0  0  0  0  2  0  0  0  0  0  0
  187.5670  177.4960  146.6650 C   0  0  0  0  0  3  0  0  0  0  0  0
  186.5450  178.5140  147.1350 C   0  0  0  0  0  1  0  0  0  0  0  0
  188.3100  176.9570  147.8720 C   0  0  0  0  0  1  0  0  0  0  0  0
  1  5  1  0  0  0  0
  2  7  1  0  0  0  0
  2  3  2  0  0  0  0
  3  8  1  0  0  0  0
  6  9  1  0  0  0  0
  6  4  1  0  0  0  0
  7  1  2  0  0  0  0
  8  5  2  0  0  0  0
  8 37  1  0  0  0  0
  9  3  1  0  0  0  0
  9  4  1  0  0  0  0
 10 11  1  0  0  0  0
 10  2  1  0  0  0  0
 11  9  1  0  0  0  0
 11 13  1  1  0  0  0
 13 12  3  0  0  0  0
 14 12  1  1  0  0  0
 14 15  1  0  0  0  0
 14 27  1  0  0  0  0
 15 16  1  0  0  0  0
 16 17  1  0  0  0  0
 17 19  1  0  0  0  0
 19 18  1  1  0  0  0
 20 19  1  0  0  0  0
 20 21  1  1  0  0  0
 22 20  1  0  0  0  0
 23 22  1  0  0  0  0
 25 26  1  0  0  0  0
 26 24  2  0  0  0  0
 26 23  1  0  0  0  0
 28 27  1  0  0  0  0
 29 28  1  0  0  0  0
 30 29  1  0  0  0  0
 30 31  1  0  0  0  0
 32 33  1  0  0  0  0
 33 31  1  0  0  0  0
 33 34  1  0  0  0  0
 35 34  2  0  0  0  0
 36 32  2  0  0  0  0
 36 35  1  0  0  0  0
 37 38  1  0  0  0  0
 39 45  1  0  0  0  0
 40 38  1  6  0  0  0
 40 42  1  0  0  0  0
 40 39  1  0  0  0  0
 42 41  1  0  0  0  0
 43 39  2  0  0  0  0
 44 41  1  6  0  0  0
 45 44  1  0  0  0  0
 46 53  1  6  0  0  0
 46 49  1  0  0  0  0
 47 54  1  1  0  0  0
 47 50  1  0  0  0  0
 48 44  1  6  0  0  0
 48 46  1  0  0  0  0
 48 47  1  0  0  0  0
 49 51  2  0  0  0  0
 49 52  1  0  0  0  0
 50 52  1  0  0  0  0
 54 55  1  1  0  0  0
 54 56  1  0  0  0  0
 56 57  1  0  0  0  0
 57 58  1  0  0  0  0
 57 59  1  0  0  0  0
M  END
>  <MODEL>
2

>  <REMARK>
 VINA RESULT:      -6.1      3.917     10.518
  Name = 
  23 active torsions:
  status: ('A' for Active; 'I' for Inactive)
    1  A    between atoms: C_3  and  C_30
    2  A    between atoms: C_3  and  C_40
    3  A    between atoms: C_6  and  C_26
    4  A    between atoms: C_6  and  O_46
    5  A    between atoms: C_8  and  C_40
    6  A    between atoms: C_8  and  C_42
    7  A    between atoms: C_9  and  O_46
    8  A    between atoms: C_14  and  C_22
    9  A    between atoms: C_15  and  C_27
   10  A    between atoms: C_15  and  O_49
   11  A    between atoms: N_16  and  C_31
   12  A    between atoms: C_22  and  C_47
   13  A    between atoms: C_25  and  C_47
   14  A    between atoms: C_27  and  C_53
   15  A    between atoms: C_30  and  N_33
   16  A    between atoms: C_35  and  C_36
   17  A    between atoms: C_35  and  C_41
   18  A    between atoms: C_36  and  C_53
   19  A    between atoms: C_41  and  C_44
   20  A    between atoms: C_42  and  C_44
   21  A    between atoms: C_44  and  C_50
   22  A    between atoms: C_45  and  C_51
   23  A    between atoms: O_49  and  C_57
                            x       y       z     vdW  Elec       q    Type
                         _______ _______ _______ _____ _____    ______ ____

>  <TORSDO>
F 23

$$$$
=
 OpenBabel10222418173D

 59 64  0  0  1  0  0  0  0  0999 V2000
  189.1120  176.3840  143.7430 C   0  0  0  0  0  3  0  0  0  0  0  0
  190.1110  176.8360  141.6100 C   0  0  0  0  0  0  0  0  0  0  0  0
  188.9360  177.3900  141.1610 C   0  0  0  0  0  0  0  0  0  0  0  0
  188.1310  178.2740  138.7760 C   0  0  0  0  0  2  0  0  0  0  0  0
  187.9090  176.9580  143.2910 C   0  0  0  0  0  3  0  0  0  0  0  0
  188.9180  179.3050  139.5670 C   0  0  0  0  0  2  0  0  0  0  0  0
  190.2280  176.3200  142.8980 C   0  0  0  0  0  3  0  0  0  0  0  0
  187.8000  177.4610  141.9800 C   0  0  0  0  0  0  0  0  0  0  0  0
  189.1860  177.8330  139.7660 C   0  0  0  0  0  0  0  0  0  0  0  0
  191.1500  176.8680  140.6380 N   0  0  0  0  0  2  0  0  0  0  0  0
  190.6290  177.4720  139.4080 C   0  0  1  0  0  3  0  0  0  0  0  0
  190.7130  175.6620  137.4440 C   0  0  0  0  0  0  0  0  0  0  0  0
  190.6640  176.4760  138.3320 C   0  0  0  0  0  0  0  0  0  0  0  0
  190.7930  174.6760  136.3600 C   0  0  2  0  0  3  0  0  0  0  0  0
  189.4690  174.5630  135.6020 C   0  0  0  0  0  2  0  0  0  0  0  0
  188.2840  175.0530  136.4280 C   0  0  0  0  0  2  0  0  0  0  0  0
  187.1490  175.4990  135.5130 C   0  0  0  0  0  2  0  0  0  0  0  0
  184.7510  175.7990  135.4490 O   0  0  0  0  0  1  0  0  0  0  0  0
  185.7720  174.9940  135.9610 C   0  0  1  0  0  3  0  0  0  0  0  0
  185.4990  173.5160  135.6550 C   0  0  1  0  0  3  0  0  0  0  0  0
  186.2790  173.0490  134.5940 O   0  0  0  0  0  1  0  0  0  0  0  0
  185.6480  172.6200  136.8780 C   0  0  0  0  0  2  0  0  0  0  0  0
  184.3800  172.2940  137.4300 O   0  0  0  0  0  0  0  0  0  0  0  0
  183.8650  170.3340  136.3290 O   0  0  0  0  0  0  0  0  0  0  0  0
  182.0720  171.8580  136.6050 C   0  0  0  0  0  1  0  0  0  0  0  0
  183.4870  171.4440  136.7780 C   0  0  0  0  0  0  0  0  0  0  0  0
  191.2540  173.3260  136.8870 C   0  0  0  0  0  2  0  0  0  0  0  0
  192.5920  172.9530  136.2760 C   0  0  0  0  0  2  0  0  0  0  0  0
  193.6530  173.9760  136.6450 C   0  0  0  0  0  2  0  0  0  0  0  0
  194.5070  173.4510  137.7860 C   0  0  0  0  0  2  0  0  0  0  0  0
  195.9640  173.3510  137.3670 C   0  0  0  0  0  2  0  0  0  0  0  0
  196.4090  174.4810  139.5290 C   0  0  0  0  0  3  0  0  0  0  0  0
  196.8030  174.0490  138.3260 N   0  0  0  0  0  0  0  0  0  0  0  0
  198.0790  174.4150  138.1290 C   0  0  0  0  0  3  0  0  0  0  0  0
  198.5250  175.0930  139.2450 C   0  0  0  0  0  3  0  0  0  0  0  0
  197.4650  175.1350  140.1350 C   0  0  0  0  0  3  0  0  0  0  0  0
  186.5550  178.1650  141.5210 C   0  0  0  0  0  2  0  0  0  0  0  0
  185.5050  178.0190  142.4340 O   0  0  0  0  0  0  0  0  0  0  0  0
  183.1780  178.6010  142.3420 C   0  0  0  0  0  0  0  0  0  0  0  0
  184.3470  177.9540  141.6490 C   0  0  1  0  0  3  0  0  0  0  0  0
  183.3330  178.6330  139.4670 C   0  0  0  0  0  2  0  0  0  0  0  0
  184.6110  178.6100  140.2960 C   0  0  0  0  0  2  0  0  0  0  0  0
  183.0470  178.5050  143.5930 O   0  0  0  0  0  0  0  0  0  0  0  0
  182.2950  179.5300  140.1400 C   0  0  2  0  0  3  0  0  0  0  0  0
  182.1400  179.2070  141.5650 N   0  0  0  0  0  2  0  0  0  0  0  0
  181.1600  179.6830  137.9540 C   0  0  1  0  0  3  0  0  0  0  0  0
  180.2590  178.2430  139.7520 C   0  0  1  0  0  3  0  0  0  0  0  0
  181.0180  179.4650  139.4130 N   0  0  1  0  0  0  0  0  0  0  0  0
  179.9770  179.1440  137.2050 C   0  0  0  0  0  0  0  0  0  0  0  0
  178.9480  178.3590  139.2380 O   0  0  0  0  0  0  0  0  0  0  0  0
  179.8960  179.2730  135.9560 O   0  0  0  0  0  0  0  0  0  0  0  0
  179.0200  178.3880  137.8880 O   0  0  0  0  0  0  0  0  0  0  0  0
  181.3190  181.1730  137.6570 C   0  0  0  0  0  1  0  0  0  0  0  0
  180.9600  176.9230  139.3380 C   0  0  1  0  0  3  0  0  0  0  0  0
  181.1790  176.0520  140.5610 C   0  0  0  0  0  1  0  0  0  0  0  0
  180.1430  176.1260  138.3220 C   0  0  0  0  0  2  0  0  0  0  0  0
  181.0460  175.2830  137.4320 C   0  0  0  0  0  3  0  0  0  0  0  0
  182.4800  175.3560  137.9220 C   0  0  0  0  0  1  0  0  0  0  0  0
  180.9870  175.8210  136.0150 C   0  0  0  0  0  1  0  0  0  0  0  0
  2  7  1  0  0  0  0
  3  2  2  0  0  0  0
  3  8  1  0  0  0  0
  4  6  1  0  0  0  0
  4  9  1  0  0  0  0
  5  1  1  0  0  0  0
  6  9  1  0  0  0  0
  7  1  2  0  0  0  0
  8  5  2  0  0  0  0
  9  3  1  0  0  0  0
 10  2  1  0  0  0  0
 11 13  1  6  0  0  0
 11  9  1  0  0  0  0
 11 10  1  0  0  0  0
 12 13  3  0  0  0  0
 14 15  1  1  0  0  0
 14 27  1  0  0  0  0
 14 12  1  0  0  0  0
 15 16  1  0  0  0  0
 17 19  1  0  0  0  0
 17 16  1  0  0  0  0
 19 18  1  6  0  0  0
 20 21  1  6  0  0  0
 20 19  1  0  0  0  0
 20 22  1  0  0  0  0
 22 23  1  0  0  0  0
 24 26  2  0  0  0  0
 25 26  1  0  0  0  0
 26 23  1  0  0  0  0
 28 29  1  0  0  0  0
 28 27  1  0  0  0  0
 29 30  1  0  0  0  0
 31 30  1  0  0  0  0
 31 33  1  0  0  0  0
 32 36  2  0  0  0  0
 33 32  1  0  0  0  0
 34 33  1  0  0  0  0
 34 35  2  0  0  0  0
 35 36  1  0  0  0  0
 37  8  1  0  0  0  0
 37 38  1  0  0  0  0
 39 43  2  0  0  0  0
 40 39  1  0  0  0  0
 40 38  1  1  0  0  0
 41 42  1  0  0  0  0
 42 40  1  0  0  0  0
 44 41  1  6  0  0  0
 44 45  1  0  0  0  0
 45 39  1  0  0  0  0
 46 53  1  1  0  0  0
 46 48  1  0  0  0  0
 47 54  1  6  0  0  0
 48 47  1  0  0  0  0
 48 44  1  1  0  0  0
 49 52  1  0  0  0  0
 49 46  1  0  0  0  0
 50 47  1  0  0  0  0
 51 49  2  0  0  0  0
 52 50  1  0  0  0  0
 54 55  1  1  0  0  0
 56 54  1  0  0  0  0
 57 58  1  0  0  0  0
 57 56  1  0  0  0  0
 59 57  1  0  0  0  0
M  END
>  <MODEL>
3

>  <REMARK>
 VINA RESULT:      -5.7      3.138      6.809
  Name = 
  23 active torsions:
  status: ('A' for Active; 'I' for Inactive)
    1  A    between atoms: C_3  and  C_30
    2  A    between atoms: C_3  and  C_40
    3  A    between atoms: C_6  and  C_26
    4  A    between atoms: C_6  and  O_46
    5  A    between atoms: C_8  and  C_40
    6  A    between atoms: C_8  and  C_42
    7  A    between atoms: C_9  and  O_46
    8  A    between atoms: C_14  and  C_22
    9  A    between atoms: C_15  and  C_27
   10  A    between atoms: C_15  and  O_49
   11  A    between atoms: N_16  and  C_31
   12  A    between atoms: C_22  and  C_47
   13  A    between atoms: C_25  and  C_47
   14  A    between atoms: C_27  and  C_53
   15  A    between atoms: C_30  and  N_33
   16  A    between atoms: C_35  and  C_36
   17  A    between atoms: C_35  and  C_41
   18  A    between atoms: C_36  and  C_53
   19  A    between atoms: C_41  and  C_44
   20  A    between atoms: C_42  and  C_44
   21  A    between atoms: C_44  and  C_50
   22  A    between atoms: C_45  and  C_51
   23  A    between atoms: O_49  and  C_57
                            x       y       z     vdW  Elec       q    Type
                         _______ _______ _______ _____ _____    ______ ____

>  <TORSDO>
F 23

$$$$
=
 OpenBabel10222418173D

 59 64  0  0  1  0  0  0  0  0999 V2000
  192.1360  177.0820  142.2120 C   0  0  0  0  0  3  0  0  0  0  0  0
  189.8760  176.5790  142.8410 C   0  0  0  0  0  0  0  0  0  0  0  0
  189.4030  177.3220  141.7860 C   0  0  0  0  0  0  0  0  0  0  0  0
  186.9550  178.0790  141.0440 C   0  0  0  0  0  2  0  0  0  0  0  0
  191.6560  177.8360  141.1250 C   0  0  0  0  0  3  0  0  0  0  0  0
  187.3240  176.6840  140.5670 C   0  0  0  0  0  2  0  0  0  0  0  0
  191.2420  176.4440  143.0820 C   0  0  0  0  0  3  0  0  0  0  0  0
  190.2720  177.9780  140.9030 C   0  0  0  0  0  0  0  0  0  0  0  0
  187.9220  177.2330  141.8410 C   0  0  0  0  0  0  0  0  0  0  0  0
  188.8410  175.9830  143.6140 N   0  0  0  0  0  2  0  0  0  0  0  0
  187.5460  176.3750  143.0520 C   0  0  1  0  0  3  0  0  0  0  0  0
  186.2170  177.8090  144.8740 C   0  0  0  0  0  0  0  0  0  0  0  0
  186.8130  177.1700  144.0440 C   0  0  0  0  0  0  0  0  0  0  0  0
  185.5000  178.5750  145.9000 C   0  0  2  0  0  3  0  0  0  0  0  0
  184.3790  179.4190  145.2910 C   0  0  0  0  0  2  0  0  0  0  0  0
  183.3780  178.5770  144.5080 C   0  0  0  0  0  2  0  0  0  0  0  0
  182.4740  179.4720  143.6680 C   0  0  0  0  0  2  0  0  0  0  0  0
  180.3260  178.7230  144.4860 O   0  0  0  0  0  1  0  0  0  0  0  0
  181.1180  178.8340  143.3410 C   0  0  1  0  0  3  0  0  0  0  0  0
  180.3410  179.5200  142.2110 C   0  0  1  0  0  3  0  0  0  0  0  0
  179.9810  180.8290  142.5440 O   0  0  0  0  0  1  0  0  0  0  0  0
  181.0750  179.4800  140.8760 C   0  0  0  0  0  2  0  0  0  0  0  0
  180.2390  179.9340  139.8210 O   0  0  0  0  0  0  0  0  0  0  0  0
  179.7200  182.0250  138.9960 O   0  0  0  0  0  0  0  0  0  0  0  0
  181.8410  181.1740  138.3730 C   0  0  0  0  0  1  0  0  0  0  0  0
  180.5400  181.0770  139.0800 C   0  0  0  0  0  0  0  0  0  0  0  0
  186.4620  179.4250  146.7150 C   0  0  0  0  0  2  0  0  0  0  0  0
  186.7070  178.7870  148.0700 C   0  0  0  0  0  2  0  0  0  0  0  0
  188.1900  178.5310  148.2800 C   0  0  0  0  0  2  0  0  0  0  0  0
  188.6030  177.2530  147.5690 C   0  0  0  0  0  2  0  0  0  0  0  0
  189.7110  177.5280  146.5670 C   0  0  0  0  0  2  0  0  0  0  0  0
  191.5190  175.8800  146.1560 C   0  0  0  0  0  3  0  0  0  0  0  0
  190.9020  176.7790  146.9310 N   0  0  0  0  0  0  0  0  0  0  0  0
  191.5280  176.8340  148.1170 C   0  0  0  0  0  3  0  0  0  0  0  0
  192.5890  175.9520  148.1010 C   0  0  0  0  0  3  0  0  0  0  0  0
  192.5850  175.3460  146.8560 C   0  0  0  0  0  3  0  0  0  0  0  0
  189.7510  178.6960  139.6910 C   0  0  0  0  0  2  0  0  0  0  0  0
  190.4680  178.3610  138.5360 O   0  0  0  0  0  0  0  0  0  0  0  0
  189.1190  176.5900  137.6380 C   0  0  0  0  0  0  0  0  0  0  0  0
  189.4930  178.0470  137.5820 C   0  0  1  0  0  3  0  0  0  0  0  0
  187.1610  178.5380  136.8250 C   0  0  0  0  0  2  0  0  0  0  0  0
  188.2670  178.9330  137.7940 C   0  0  0  0  0  2  0  0  0  0  0  0
  189.9940  175.7180  137.8940 O   0  0  0  0  0  0  0  0  0  0  0  0
  186.6790  177.1220  137.1390 C   0  0  2  0  0  3  0  0  0  0  0  0
  187.8000  176.1810  137.2640 N   0  0  0  0  0  2  0  0  0  0  0  0
  185.6060  175.2130  136.0020 C   0  0  1  0  0  3  0  0  0  0  0  0
  184.3840  177.3360  136.3380 C   0  0  1  0  0  3  0  0  0  0  0  0
  185.6950  176.6850  136.1350 N   0  0  1  0  0  0  0  0  0  0  0  0
  184.3100  174.8010  135.3670 C   0  0  0  0  0  0  0  0  0  0  0  0
  183.5690  177.0880  135.2110 O   0  0  0  0  0  0  0  0  0  0  0  0
  184.0680  173.5880  135.1320 O   0  0  0  0  0  0  0  0  0  0  0  0
  183.3180  175.7610  135.1490 O   0  0  0  0  0  0  0  0  0  0  0  0
  186.7730  174.6870  135.1690 C   0  0  0  0  0  1  0  0  0  0  0  0
  183.6930  176.9740  137.6780 C   0  0  1  0  0  3  0  0  0  0  0  0
  184.0760  177.9870  138.7420 C   0  0  0  0  0  1  0  0  0  0  0  0
  182.1710  176.9550  137.5600 C   0  0  0  0  0  2  0  0  0  0  0  0
  181.5600  175.9270  138.5050 C   0  0  0  0  0  3  0  0  0  0  0  0
  181.4350  174.5860  137.8080 C   0  0  0  0  0  1  0  0  0  0  0  0
  180.1770  176.3940  138.9170 C   0  0  0  0  0  1  0  0  0  0  0  0
  1  7  1  0  0  0  0
  2  7  2  0  0  0  0
  2 10  1  0  0  0  0
  3  9  1  0  0  0  0
  3  2  1  0  0  0  0
  4  9  1  0  0  0  0
  5  1  2  0  0  0  0
  6  4  1  0  0  0  0
  6  9  1  0  0  0  0
  8  5  1  0  0  0  0
  8  3  2  0  0  0  0
  9 11  1  0  0  0  0
 11 10  1  0  0  0  0
 11 13  1  1  0  0  0
 13 12  3  0  0  0  0
 14 12  1  6  0  0  0
 14 27  1  0  0  0  0
 15 14  1  0  0  0  0
 16 15  1  0  0  0  0
 17 16  1  0  0  0  0
 19 17  1  0  0  0  0
 19 18  1  1  0  0  0
 20 21  1  1  0  0  0
 20 19  1  0  0  0  0
 22 20  1  0  0  0  0
 23 22  1  0  0  0  0
 24 26  2  0  0  0  0
 25 26  1  0  0  0  0
 26 23  1  0  0  0  0
 27 28  1  0  0  0  0
 28 29  1  0  0  0  0
 30 29  1  0  0  0  0
 31 33  1  0  0  0  0
 31 30  1  0  0  0  0
 32 36  2  0  0  0  0
 32 33  1  0  0  0  0
 33 34  1  0  0  0  0
 35 34  2  0  0  0  0
 36 35  1  0  0  0  0
 37  8  1  0  0  0  0
 38 37  1  0  0  0  0
 39 43  2  0  0  0  0
 40 39  1  0  0  0  0
 40 42  1  0  0  0  0
 40 38  1  1  0  0  0
 41 42  1  0  0  0  0
 44 41  1  6  0  0  0
 44 45  1  0  0  0  0
 45 39  1  0  0  0  0
 46 53  1  6  0  0  0
 46 48  1  0  0  0  0
 47 54  1  1  0  0  0
 48 47  1  0  0  0  0
 48 44  1  1  0  0  0
 49 46  1  0  0  0  0
 50 47  1  0  0  0  0
 51 49  2  0  0  0  0
 52 50  1  0  0  0  0
 52 49  1  0  0  0  0
 54 55  1  1  0  0  0
 56 54  1  0  0  0  0
 56 57  1  0  0  0  0
 57 59  1  0  0  0  0
 58 57  1  0  0  0  0
M  END
>  <MODEL>
4

>  <REMARK>
 VINA RESULT:      -5.6      3.703     10.164
  Name = 
  23 active torsions:
  status: ('A' for Active; 'I' for Inactive)
    1  A    between atoms: C_3  and  C_30
    2  A    between atoms: C_3  and  C_40
    3  A    between atoms: C_6  and  C_26
    4  A    between atoms: C_6  and  O_46
    5  A    between atoms: C_8  and  C_40
    6  A    between atoms: C_8  and  C_42
    7  A    between atoms: C_9  and  O_46
    8  A    between atoms: C_14  and  C_22
    9  A    between atoms: C_15  and  C_27
   10  A    between atoms: C_15  and  O_49
   11  A    between atoms: N_16  and  C_31
   12  A    between atoms: C_22  and  C_47
   13  A    between atoms: C_25  and  C_47
   14  A    between atoms: C_27  and  C_53
   15  A    between atoms: C_30  and  N_33
   16  A    between atoms: C_35  and  C_36
   17  A    between atoms: C_35  and  C_41
   18  A    between atoms: C_36  and  C_53
   19  A    between atoms: C_41  and  C_44
   20  A    between atoms: C_42  and  C_44
   21  A    between atoms: C_44  and  C_50
   22  A    between atoms: C_45  and  C_51
   23  A    between atoms: O_49  and  C_57
                            x       y       z     vdW  Elec       q    Type
                         _______ _______ _______ _____ _____    ______ ____

>  <TORSDO>
F 23

$$$$
=
 OpenBabel10222418173D

 59 64  0  0  1  0  0  0  0  0999 V2000
  190.0610  176.5960  143.5810 C   0  0  0  0  0  3  0  0  0  0  0  0
  190.7410  177.0240  141.3210 C   0  0  0  0  0  0  0  0  0  0  0  0
  189.4430  177.3080  140.9700 C   0  0  0  0  0  0  0  0  0  0  0  0
  188.2530  177.8030  138.6340 C   0  0  0  0  0  2  0  0  0  0  0  0
  188.7320  176.8940  143.2290 C   0  0  0  0  0  3  0  0  0  0  0  0
  188.9000  179.0300  139.2520 C   0  0  0  0  0  2  0  0  0  0  0  0
  191.0800  176.6610  142.6220 C   0  0  0  0  0  3  0  0  0  0  0  0
  188.4000  177.2440  141.9050 C   0  0  0  0  0  0  0  0  0  0  0  0
  189.4650  177.6570  139.5270 C   0  0  0  0  0  0  0  0  0  0  0  0
  191.6540  177.1550  140.2380 N   0  0  0  0  0  2  0  0  0  0  0  0
  190.9090  177.5360  139.0350 C   0  0  1  0  0  3  0  0  0  0  0  0
  191.1430  175.6020  137.2070 C   0  0  0  0  0  0  0  0  0  0  0  0
  191.0300  176.4680  138.0370 C   0  0  0  0  0  0  0  0  0  0  0  0
  191.2970  174.5580  136.1870 C   0  0  2  0  0  3  0  0  0  0  0  0
  190.0180  174.3790  135.3670 C   0  0  0  0  0  2  0  0  0  0  0  0
  189.0570  173.3800  136.0000 C   0  0  0  0  0  2  0  0  0  0  0  0
  187.6460  173.9550  136.0420 C   0  0  0  0  0  2  0  0  0  0  0  0
  186.6860  172.7400  137.8990 O   0  0  0  0  0  1  0  0  0  0  0  0
  186.5920  172.9490  136.5200 C   0  0  1  0  0  3  0  0  0  0  0  0
  185.1510  173.2890  136.1230 C   0  0  1  0  0  3  0  0  0  0  0  0
  184.8980  173.0060  134.7790 O   0  0  0  0  0  1  0  0  0  0  0  0
  184.1150  172.6280  137.0240 C   0  0  0  0  0  2  0  0  0  0  0  0
  182.8790  172.4610  136.3430 O   0  0  0  0  0  0  0  0  0  0  0  0
  180.8760  172.8650  137.4140 O   0  0  0  0  0  0  0  0  0  0  0  0
  181.6330  174.5840  135.9690 C   0  0  0  0  0  1  0  0  0  0  0  0
  181.7680  173.2570  136.6220 C   0  0  0  0  0  0  0  0  0  0  0  0
  191.7490  173.2480  136.8130 C   0  0  0  0  0  2  0  0  0  0  0  0
  192.9650  172.7080  136.0840 C   0  0  0  0  0  2  0  0  0  0  0  0
  194.1140  173.7000  136.1530 C   0  0  0  0  0  2  0  0  0  0  0  0
  195.0960  173.2840  137.2350 C   0  0  0  0  0  2  0  0  0  0  0  0
  196.0440  174.4230  137.5690 C   0  0  0  0  0  2  0  0  0  0  0  0
  197.3690  175.5880  135.8260 C   0  0  0  0  0  3  0  0  0  0  0  0
  197.0880  174.5070  136.5630 N   0  0  0  0  0  0  0  0  0  0  0  0
  197.8900  173.5000  136.1810 C   0  0  0  0  0  3  0  0  0  0  0  0
  198.7200  173.9500  135.1750 C   0  0  0  0  0  3  0  0  0  0  0  0
  198.3910  175.2760  134.9490 C   0  0  0  0  0  3  0  0  0  0  0  0
  187.0030  177.6610  141.5400 C   0  0  0  0  0  2  0  0  0  0  0  0
  186.8280  179.0460  141.6430 O   0  0  0  0  0  0  0  0  0  0  0  0
  184.8330  179.1620  140.3140 C   0  0  0  0  0  0  0  0  0  0  0  0
  185.4410  179.2330  141.6880 C   0  0  1  0  0  3  0  0  0  0  0  0
  183.2980  178.3240  142.6010 C   0  0  0  0  0  2  0  0  0  0  0  0
  184.8150  178.1950  142.6160 C   0  0  0  0  0  2  0  0  0  0  0  0
  185.4570  179.6190  139.3170 O   0  0  0  0  0  0  0  0  0  0  0  0
  182.7630  177.9800  141.2120 C   0  0  2  0  0  3  0  0  0  0  0  0
  183.4880  178.6990  140.1560 N   0  0  0  0  0  2  0  0  0  0  0  0
  180.9150  179.5610  141.6320 C   0  0  1  0  0  3  0  0  0  0  0  0
  180.7600  177.8830  139.8220 C   0  0  1  0  0  3  0  0  0  0  0  0
  181.3120  178.2170  141.1520 N   0  0  1  0  0  0  0  0  0  0  0  0
  179.5580  179.9440  141.1190 C   0  0  0  0  0  0  0  0  0  0  0  0
  179.3490  177.8780  139.8990 O   0  0  0  0  0  0  0  0  0  0  0  0
  179.0310  181.0370  141.4550 O   0  0  0  0  0  0  0  0  0  0  0  0
  178.9310  179.1350  140.1680 O   0  0  0  0  0  0  0  0  0  0  0  0
  180.9150  179.5970  143.1590 C   0  0  0  0  0  1  0  0  0  0  0  0
  181.3020  178.7650  138.6680 C   0  0  1  0  0  3  0  0  0  0  0  0
  182.0940  177.9090  137.6960 C   0  0  0  0  0  1  0  0  0  0  0  0
  180.1840  179.4590  137.8920 C   0  0  0  0  0  2  0  0  0  0  0  0
  180.3680  180.9710  137.8980 C   0  0  0  0  0  3  0  0  0  0  0  0
  180.2230  181.5200  136.4910 C   0  0  0  0  0  1  0  0  0  0  0  0
  181.7580  181.2980  138.4090 C   0  0  0  0  0  1  0  0  0  0  0  0
  2  7  1  0  0  0  0
  3  2  2  0  0  0  0
  3  8  1  0  0  0  0
  4  6  1  0  0  0  0
  4  9  1  0  0  0  0
  5  1  1  0  0  0  0
  6  9  1  0  0  0  0
  7  1  2  0  0  0  0
  8  5  2  0  0  0  0
  9  3  1  0  0  0  0
 10  2  1  0  0  0  0
 11 13  1  6  0  0  0
 11  9  1  0  0  0  0
 11 10  1  0  0  0  0
 12 13  3  0  0  0  0
 14 15  1  1  0  0  0
 14 27  1  0  0  0  0
 14 12  1  0  0  0  0
 15 16  1  0  0  0  0
 16 17  1  0  0  0  0
 17 19  1  0  0  0  0
 19 18  1  1  0  0  0
 20 21  1  6  0  0  0
 20 19  1  0  0  0  0
 20 22  1  0  0  0  0
 23 26  1  0  0  0  0
 23 22  1  0  0  0  0
 25 26  1  0  0  0  0
 26 24  2  0  0  0  0
 28 29  1  0  0  0  0
 28 27  1  0  0  0  0
 29 30  1  0  0  0  0
 30 31  1  0  0  0  0
 32 33  1  0  0  0  0
 33 31  1  0  0  0  0
 34 33  1  0  0  0  0
 35 34  2  0  0  0  0
 36 35  1  0  0  0  0
 36 32  2  0  0  0  0
 37 38  1  0  0  0  0
 37  8  1  0  0  0  0
 39 40  1  0  0  0  0
 40 38  1  6  0  0  0
 40 42  1  0  0  0  0
 41 42  1  0  0  0  0
 43 39  2  0  0  0  0
 44 41  1  1  0  0  0
 45 39  1  0  0  0  0
 45 44  1  0  0  0  0
 46 53  1  1  0  0  0
 47 54  1  6  0  0  0
 47 50  1  0  0  0  0
 47 48  1  0  0  0  0
 48 44  1  6  0  0  0
 48 46  1  0  0  0  0
 49 51  2  0  0  0  0
 49 46  1  0  0  0  0
 50 52  1  0  0  0  0
 52 49  1  0  0  0  0
 54 55  1  6  0  0  0
 56 57  1  0  0  0  0
 56 54  1  0  0  0  0
 57 59  1  0  0  0  0
 58 57  1  0  0  0  0
M  END
>  <MODEL>
5

>  <REMARK>
 VINA RESULT:      -5.4      3.079      7.233
  Name = 
  23 active torsions:
  status: ('A' for Active; 'I' for Inactive)
    1  A    between atoms: C_3  and  C_30
    2  A    between atoms: C_3  and  C_40
    3  A    between atoms: C_6  and  C_26
    4  A    between atoms: C_6  and  O_46
    5  A    between atoms: C_8  and  C_40
    6  A    between atoms: C_8  and  C_42
    7  A    between atoms: C_9  and  O_46
    8  A    between atoms: C_14  and  C_22
    9  A    between atoms: C_15  and  C_27
   10  A    between atoms: C_15  and  O_49
   11  A    between atoms: N_16  and  C_31
   12  A    between atoms: C_22  and  C_47
   13  A    between atoms: C_25  and  C_47
   14  A    between atoms: C_27  and  C_53
   15  A    between atoms: C_30  and  N_33
   16  A    between atoms: C_35  and  C_36
   17  A    between atoms: C_35  and  C_41
   18  A    between atoms: C_36  and  C_53
   19  A    between atoms: C_41  and  C_44
   20  A    between atoms: C_42  and  C_44
   21  A    between atoms: C_44  and  C_50
   22  A    between atoms: C_45  and  C_51
   23  A    between atoms: O_49  and  C_57
                            x       y       z     vdW  Elec       q    Type
                         _______ _______ _______ _____ _____    ______ ____

>  <TORSDO>
F 23

$$$$
=
 OpenBabel10222418173D

 59 64  0  0  1  0  0  0  0  0999 V2000
  189.6050  176.4340  143.8740 C   0  0  0  0  0  3  0  0  0  0  0  0
  190.4380  176.9260  141.6800 C   0  0  0  0  0  0  0  0  0  0  0  0
  189.1940  177.3590  141.2900 C   0  0  0  0  0  0  0  0  0  0  0  0
  188.1790  178.1100  138.9390 C   0  0  0  0  0  2  0  0  0  0  0  0
  188.3310  176.8840  143.4830 C   0  0  0  0  0  3  0  0  0  0  0  0
  188.9090  179.2270  139.6650 C   0  0  0  0  0  2  0  0  0  0  0  0
  190.6740  176.4530  142.9690 C   0  0  0  0  0  3  0  0  0  0  0  0
  188.1030  177.3440  142.1710 C   0  0  0  0  0  0  0  0  0  0  0  0
  189.3230  177.7900  139.8750 C   0  0  0  0  0  0  0  0  0  0  0  0
  191.4140  177.0300  140.6500 N   0  0  0  0  0  2  0  0  0  0  0  0
  190.7720  177.5560  139.4410 C   0  0  1  0  0  3  0  0  0  0  0  0
  190.9120  175.7190  137.5060 C   0  0  0  0  0  0  0  0  0  0  0  0
  190.8400  176.5420  138.3830 C   0  0  0  0  0  0  0  0  0  0  0  0
  191.0190  174.7250  136.4310 C   0  0  2  0  0  3  0  0  0  0  0  0
  189.6470  174.3610  135.8620 C   0  0  0  0  0  2  0  0  0  0  0  0
  188.8450  173.4710  136.8040 C   0  0  0  0  0  2  0  0  0  0  0  0
  187.3990  173.9470  136.8810 C   0  0  0  0  0  2  0  0  0  0  0  0
  187.0440  172.0260  135.4560 O   0  0  0  0  0  1  0  0  0  0  0  0
  186.4630  173.2120  135.9130 C   0  0  1  0  0  3  0  0  0  0  0  0
  185.0540  172.9470  136.4580 C   0  0  1  0  0  3  0  0  0  0  0  0
  185.0300  172.9190  137.8550 O   0  0  0  0  0  1  0  0  0  0  0  0
  184.0150  173.9210  135.9150 C   0  0  0  0  0  2  0  0  0  0  0  0
  183.7700  174.9730  136.8380 O   0  0  0  0  0  0  0  0  0  0  0  0
  183.7720  177.2250  137.3350 O   0  0  0  0  0  0  0  0  0  0  0  0
  184.8200  176.6230  135.2980 C   0  0  0  0  0  1  0  0  0  0  0  0
  184.0940  176.2990  136.5510 C   0  0  0  0  0  0  0  0  0  0  0  0
  191.7750  173.4920  136.9040 C   0  0  0  0  0  2  0  0  0  0  0  0
  192.6450  172.9490  135.7870 C   0  0  0  0  0  2  0  0  0  0  0  0
  193.9630  173.7010  135.7220 C   0  0  0  0  0  2  0  0  0  0  0  0
  195.0410  172.9270  136.4620 C   0  0  0  0  0  2  0  0  0  0  0  0
  196.2180  172.6330  135.5470 C   0  0  0  0  0  2  0  0  0  0  0  0
  196.5880  170.6560  136.9990 C   0  0  0  0  0  3  0  0  0  0  0  0
  197.0140  171.5510  136.1010 N   0  0  0  0  0  0  0  0  0  0  0  0
  198.3100  171.3200  135.8390 C   0  0  0  0  0  3  0  0  0  0  0  0
  198.7280  170.2350  136.5820 C   0  0  0  0  0  3  0  0  0  0  0  0
  197.6350  169.8120  137.3190 C   0  0  0  0  0  3  0  0  0  0  0  0
  186.7740  177.9200  141.7720 C   0  0  0  0  0  2  0  0  0  0  0  0
  186.3750  178.9550  142.6250 O   0  0  0  0  0  0  0  0  0  0  0  0
  184.9780  179.3530  140.7150 C   0  0  0  0  0  0  0  0  0  0  0  0
  185.0780  179.2840  142.2150 C   0  0  1  0  0  3  0  0  0  0  0  0
  182.6860  178.5570  142.2640 C   0  0  0  0  0  2  0  0  0  0  0  0
  184.0890  178.2670  142.7800 C   0  0  0  0  0  2  0  0  0  0  0  0
  185.9430  179.7970  140.0330 O   0  0  0  0  0  0  0  0  0  0  0  0
  182.6380  178.3470  140.7510 C   0  0  2  0  0  3  0  0  0  0  0  0
  183.7390  179.0440  140.0700 N   0  0  0  0  0  2  0  0  0  0  0  0
  181.3940  179.4440  138.9230 C   0  0  1  0  0  3  0  0  0  0  0  0
  180.3750  177.6030  140.2230 C   0  0  1  0  0  3  0  0  0  0  0  0
  181.3210  178.7390  140.2240 N   0  0  1  0  0  0  0  0  0  0  0  0
  180.0800  179.3920  138.2010 C   0  0  0  0  0  0  0  0  0  0  0  0
  179.0750  178.0900  139.9610 O   0  0  0  0  0  0  0  0  0  0  0  0
  179.9330  179.9740  137.0940 O   0  0  0  0  0  0  0  0  0  0  0  0
  179.0510  178.5920  138.7060 O   0  0  0  0  0  0  0  0  0  0  0  0
  181.8060  180.9000  139.1340 C   0  0  0  0  0  1  0  0  0  0  0  0
  180.7850  176.4340  139.2920 C   0  0  1  0  0  3  0  0  0  0  0  0
  181.9540  175.6780  139.9000 C   0  0  0  0  0  1  0  0  0  0  0  0
  179.6430  175.4450  139.0630 C   0  0  0  0  0  2  0  0  0  0  0  0
  179.6230  174.9530  137.6220 C   0  0  0  0  0  3  0  0  0  0  0  0
  180.2090  173.5570  137.5380 C   0  0  0  0  0  1  0  0  0  0  0  0
  180.4590  175.8860  136.7690 C   0  0  0  0  0  1  0  0  0  0  0  0
  2  7  1  0  0  0  0
  3  2  2  0  0  0  0
  3  8  1  0  0  0  0
  4  6  1  0  0  0  0
  4  9  1  0  0  0  0
  5  1  1  0  0  0  0
  6  9  1  0  0  0  0
  7  1  2  0  0  0  0
  8  5  2  0  0  0  0
  9  3  1  0  0  0  0
 10  2  1  0  0  0  0
 11 13  1  6  0  0  0
 11  9  1  0  0  0  0
 11 10  1  0  0  0  0
 12 13  3  0  0  0  0
 14 15  1  1  0  0  0
 14 27  1  0  0  0  0
 14 12  1  0  0  0  0
 15 16  1  0  0  0  0
 16 17  1  0  0  0  0
 19 18  1  1  0  0  0
 19 20  1  0  0  0  0
 19 17  1  0  0  0  0
 20 21  1  1  0  0  0
 22 20  1  0  0  0  0
 22 23  1  0  0  0  0
 25 26  1  0  0  0  0
 26 23  1  0  0  0  0
 26 24  2  0  0  0  0
 28 27  1  0  0  0  0
 29 28  1  0  0  0  0
 29 30  1  0  0  0  0
 31 33  1  0  0  0  0
 31 30  1  0  0  0  0
 32 36  2  0  0  0  0
 33 32  1  0  0  0  0
 34 33  1  0  0  0  0
 34 35  2  0  0  0  0
 35 36  1  0  0  0  0
 37  8  1  0  0  0  0
 37 38  1  0  0  0  0
 39 40  1  0  0  0  0
 40 38  1  6  0  0  0
 40 42  1  0  0  0  0
 41 42  1  0  0  0  0
 43 39  2  0  0  0  0
 44 41  1  1  0  0  0
 45 39  1  0  0  0  0
 45 44  1  0  0  0  0
 46 53  1  1  0  0  0
 46 48  1  0  0  0  0
 47 54  1  6  0  0  0
 47 48  1  0  0  0  0
 48 44  1  6  0  0  0
 49 52  1  0  0  0  0
 49 46  1  0  0  0  0
 50 47  1  0  0  0  0
 51 49  2  0  0  0  0
 52 50  1  0  0  0  0
 54 55  1  1  0  0  0
 56 54  1  0  0  0  0
 57 56  1  0  0  0  0
 58 57  1  0  0  0  0
 59 57  1  0  0  0  0
M  END
>  <MODEL>
6

>  <REMARK>
 VINA RESULT:      -5.2      2.834      6.713
  Name = 
  23 active torsions:
  status: ('A' for Active; 'I' for Inactive)
    1  A    between atoms: C_3  and  C_30
    2  A    between atoms: C_3  and  C_40
    3  A    between atoms: C_6  and  C_26
    4  A    between atoms: C_6  and  O_46
    5  A    between atoms: C_8  and  C_40
    6  A    between atoms: C_8  and  C_42
    7  A    between atoms: C_9  and  O_46
    8  A    between atoms: C_14  and  C_22
    9  A    between atoms: C_15  and  C_27
   10  A    between atoms: C_15  and  O_49
   11  A    between atoms: N_16  and  C_31
   12  A    between atoms: C_22  and  C_47
   13  A    between atoms: C_25  and  C_47
   14  A    between atoms: C_27  and  C_53
   15  A    between atoms: C_30  and  N_33
   16  A    between atoms: C_35  and  C_36
   17  A    between atoms: C_35  and  C_41
   18  A    between atoms: C_36  and  C_53
   19  A    between atoms: C_41  and  C_44
   20  A    between atoms: C_42  and  C_44
   21  A    between atoms: C_44  and  C_50
   22  A    between atoms: C_45  and  C_51
   23  A    between atoms: O_49  and  C_57
                            x       y       z     vdW  Elec       q    Type
                         _______ _______ _______ _____ _____    ______ ____

>  <TORSDO>
F 23

$$$$
=
 OpenBabel10222418173D

 59 64  0  0  1  0  0  0  0  0999 V2000
  189.6460  176.4590  144.3130 C   0  0  0  0  0  3  0  0  0  0  0  0
  190.4640  176.7760  142.0810 C   0  0  0  0  0  0  0  0  0  0  0  0
  189.2300  177.2260  141.6770 C   0  0  0  0  0  0  0  0  0  0  0  0
  188.2080  177.8550  139.2950 C   0  0  0  0  0  2  0  0  0  0  0  0
  188.3830  176.9270  143.9080 C   0  0  0  0  0  3  0  0  0  0  0  0
  188.9860  178.9910  139.9360 C   0  0  0  0  0  2  0  0  0  0  0  0
  190.7010  176.3810  143.3950 C   0  0  0  0  0  3  0  0  0  0  0  0
  188.1520  177.3080  142.5710 C   0  0  0  0  0  0  0  0  0  0  0  0
  189.3540  177.5580  140.2360 C   0  0  0  0  0  0  0  0  0  0  0  0
  191.4280  176.7770  141.0340 N   0  0  0  0  0  2  0  0  0  0  0  0
  190.7870  177.2440  139.8020 C   0  0  1  0  0  3  0  0  0  0  0  0
  190.8010  175.2640  138.0070 C   0  0  0  0  0  0  0  0  0  0  0  0
  190.8050  176.1610  138.8120 C   0  0  0  0  0  0  0  0  0  0  0  0
  190.7770  174.1670  137.0320 C   0  0  2  0  0  3  0  0  0  0  0  0
  191.4120  174.5810  135.7030 C   0  0  0  0  0  2  0  0  0  0  0  0
  192.3490  173.5130  135.1500 C   0  0  0  0  0  2  0  0  0  0  0  0
  193.7200  173.6190  135.8070 C   0  0  0  0  0  2  0  0  0  0  0  0
  194.8000  175.4610  134.6740 O   0  0  0  0  0  1  0  0  0  0  0  0
  194.8240  174.0740  134.8450 C   0  0  1  0  0  3  0  0  0  0  0  0
  196.2340  173.5990  135.2130 C   0  0  1  0  0  3  0  0  0  0  0  0
  197.2220  174.4270  134.6730 O   0  0  0  0  0  1  0  0  0  0  0  0
  196.4290  173.4260  136.7140 C   0  0  0  0  0  2  0  0  0  0  0  0
  196.0740  172.1130  137.1270 O   0  0  0  0  0  0  0  0  0  0  0  0
  196.6710  169.9190  137.5070 O   0  0  0  0  0  0  0  0  0  0  0  0
  198.4650  171.4210  137.1320 C   0  0  0  0  0  1  0  0  0  0  0  0
  197.0220  171.1000  137.2640 C   0  0  0  0  0  0  0  0  0  0  0  0
  189.3630  173.6420  136.8390 C   0  0  0  0  0  2  0  0  0  0  0  0
  188.3640  174.7800  136.9240 C   0  0  0  0  0  2  0  0  0  0  0  0
  187.6960  175.0070  135.5780 C   0  0  0  0  0  2  0  0  0  0  0  0
  186.2020  175.2070  135.7660 C   0  0  0  0  0  2  0  0  0  0  0  0
  185.6650  174.2790  136.8430 C   0  0  0  0  0  2  0  0  0  0  0  0
  183.8910  172.9280  135.7570 C   0  0  0  0  0  3  0  0  0  0  0  0
  185.1330  173.0730  136.2330 N   0  0  0  0  0  0  0  0  0  0  0  0
  185.7860  171.9070  136.1050 C   0  0  0  0  0  3  0  0  0  0  0  0
  184.9420  170.9860  135.5190 C   0  0  0  0  0  3  0  0  0  0  0  0
  183.7390  171.6340  135.2960 C   0  0  0  0  0  3  0  0  0  0  0  0
  186.8380  177.9030  142.1500 C   0  0  0  0  0  2  0  0  0  0  0  0
  186.3130  178.7560  143.1270 O   0  0  0  0  0  0  0  0  0  0  0  0
  185.1080  179.2360  141.1090 C   0  0  0  0  0  0  0  0  0  0  0  0
  185.0850  179.1860  142.6120 C   0  0  1  0  0  3  0  0  0  0  0  0
  182.6430  178.6630  142.4810 C   0  0  0  0  0  2  0  0  0  0  0  0
  183.9720  178.2660  143.1100 C   0  0  0  0  0  2  0  0  0  0  0  0
  186.1570  179.5850  140.5000 O   0  0  0  0  0  0  0  0  0  0  0  0
  182.6950  178.4320  140.9720 C   0  0  2  0  0  3  0  0  0  0  0  0
  183.9000  179.0220  140.3720 N   0  0  0  0  0  2  0  0  0  0  0  0
  181.6170  179.2160  138.8950 C   0  0  1  0  0  3  0  0  0  0  0  0
  180.3090  178.0480  140.6390 C   0  0  1  0  0  3  0  0  0  0  0  0
  181.4610  178.9240  140.3390 N   0  0  1  0  0  0  0  0  0  0  0  0
  180.2890  179.2370  138.1970 C   0  0  0  0  0  0  0  0  0  0  0  0
  179.1210  178.6980  140.2340 O   0  0  0  0  0  0  0  0  0  0  0  0
  180.2130  179.5110  136.9700 O   0  0  0  0  0  0  0  0  0  0  0  0
  179.1440  178.8320  138.8890 O   0  0  0  0  0  0  0  0  0  0  0  0
  182.3180  180.5590  138.7010 C   0  0  0  0  0  1  0  0  0  0  0  0
  180.4370  176.6100  140.0730 C   0  0  1  0  0  3  0  0  0  0  0  0
  181.8310  176.0740  140.3470 C   0  0  0  0  0  1  0  0  0  0  0  0
  179.4240  175.6500  140.6930 C   0  0  0  0  0  2  0  0  0  0  0  0
  179.8370  174.2000  140.4750 C   0  0  0  0  0  3  0  0  0  0  0  0
  179.3070  173.6990  139.1450 C   0  0  0  0  0  1  0  0  0  0  0  0
  179.2550  173.3470  141.5850 C   0  0  0  0  0  1  0  0  0  0  0  0
  2  7  1  0  0  0  0
  3  2  2  0  0  0  0
  3  8  1  0  0  0  0
  4  6  1  0  0  0  0
  4  9  1  0  0  0  0
  5  1  1  0  0  0  0
  6  9  1  0  0  0  0
  7  1  2  0  0  0  0
  8  5  2  0  0  0  0
  9  3  1  0  0  0  0
 10  2  1  0  0  0  0
 11 13  1  6  0  0  0
 11  9  1  0  0  0  0
 11 10  1  0  0  0  0
 12 13  3  0  0  0  0
 14 15  1  6  0  0  0
 14 12  1  0  0  0  0
 16 15  1  0  0  0  0
 16 17  1  0  0  0  0
 19 18  1  1  0  0  0
 19 20  1  0  0  0  0
 19 17  1  0  0  0  0
 20 21  1  1  0  0  0
 20 22  1  0  0  0  0
 22 23  1  0  0  0  0
 23 26  1  0  0  0  0
 25 26  1  0  0  0  0
 26 24  2  0  0  0  0
 27 28  1  0  0  0  0
 27 14  1  0  0  0  0
 29 30  1  0  0  0  0
 29 28  1  0  0  0  0
 30 31  1  0  0  0  0
 32 33  1  0  0  0  0
 33 31  1  0  0  0  0
 34 33  1  0  0  0  0
 35 34  2  0  0  0  0
 36 35  1  0  0  0  0
 36 32  2  0  0  0  0
 37  8  1  0  0  0  0
 37 38  1  0  0  0  0
 39 40  1  0  0  0  0
 40 42  1  0  0  0  0
 40 38  1  6  0  0  0
 41 42  1  0  0  0  0
 43 39  2  0  0  0  0
 44 41  1  1  0  0  0
 45 44  1  0  0  0  0
 45 39  1  0  0  0  0
 46 53  1  1  0  0  0
 46 48  1  0  0  0  0
 47 54  1  6  0  0  0
 48 47  1  0  0  0  0
 48 44  1  6  0  0  0
 49 52  1  0  0  0  0
 49 46  1  0  0  0  0
 50 47  1  0  0  0  0
 51 49  2  0  0  0  0
 52 50  1  0  0  0  0
 54 55  1  1  0  0  0
 54 56  1  0  0  0  0
 57 56  1  0  0  0  0
 57 59  1  0  0  0  0
 58 57  1  0  0  0  0
M  END
>  <MODEL>
7

>  <REMARK>
 VINA RESULT:      -5.1      1.612      2.231
  Name = 
  23 active torsions:
  status: ('A' for Active; 'I' for Inactive)
    1  A    between atoms: C_3  and  C_30
    2  A    between atoms: C_3  and  C_40
    3  A    between atoms: C_6  and  C_26
    4  A    between atoms: C_6  and  O_46
    5  A    between atoms: C_8  and  C_40
    6  A    between atoms: C_8  and  C_42
    7  A    between atoms: C_9  and  O_46
    8  A    between atoms: C_14  and  C_22
    9  A    between atoms: C_15  and  C_27
   10  A    between atoms: C_15  and  O_49
   11  A    between atoms: N_16  and  C_31
   12  A    between atoms: C_22  and  C_47
   13  A    between atoms: C_25  and  C_47
   14  A    between atoms: C_27  and  C_53
   15  A    between atoms: C_30  and  N_33
   16  A    between atoms: C_35  and  C_36
   17  A    between atoms: C_35  and  C_41
   18  A    between atoms: C_36  and  C_53
   19  A    between atoms: C_41  and  C_44
   20  A    between atoms: C_42  and  C_44
   21  A    between atoms: C_44  and  C_50
   22  A    between atoms: C_45  and  C_51
   23  A    between atoms: O_49  and  C_57
                            x       y       z     vdW  Elec       q    Type
                         _______ _______ _______ _____ _____    ______ ____

>  <TORSDO>
F 23

$$$$
=
 OpenBabel10222418173D

 59 64  0  0  1  0  0  0  0  0999 V2000
  190.8910  175.4140  146.5490 C   0  0  0  0  0  3  0  0  0  0  0  0
  191.5490  176.5660  144.5510 C   0  0  0  0  0  0  0  0  0  0  0  0
  190.4620  177.4000  144.6560 C   0  0  0  0  0  0  0  0  0  0  0  0
  189.4410  179.2750  143.0560 C   0  0  0  0  0  2  0  0  0  0  0  0
  189.7810  176.2710  146.6670 C   0  0  0  0  0  3  0  0  0  0  0  0
  190.5680  179.7840  143.9390 C   0  0  0  0  0  2  0  0  0  0  0  0
  191.7880  175.5590  145.4830 C   0  0  0  0  0  3  0  0  0  0  0  0
  189.5420  177.2750  145.7070 C   0  0  0  0  0  0  0  0  0  0  0  0
  190.5390  178.3370  143.5070 C   0  0  0  0  0  0  0  0  0  0  0  0
  192.3700  176.8580  143.4250 N   0  0  0  0  0  2  0  0  0  0  0  0
  191.7750  177.9720  142.6830 C   0  0  1  0  0  3  0  0  0  0  0  0
  191.0770  177.1420  140.2410 C   0  0  0  0  0  0  0  0  0  0  0  0
  191.3890  177.5060  141.3470 C   0  0  0  0  0  0  0  0  0  0  0  0
  190.7040  176.7170  138.8860 C   0  0  2  0  0  3  0  0  0  0  0  0
  189.2450  176.2600  138.8210 C   0  0  0  0  0  2  0  0  0  0  0  0
  188.7590  176.0730  137.3890 C   0  0  0  0  0  2  0  0  0  0  0  0
  187.5400  175.1580  137.3580 C   0  0  0  0  0  2  0  0  0  0  0  0
  189.0830  173.5310  136.4540 O   0  0  0  0  0  1  0  0  0  0  0  0
  187.7380  173.9090  136.4900 C   0  0  1  0  0  3  0  0  0  0  0  0
  186.8520  172.7160  136.8690 C   0  0  1  0  0  3  0  0  0  0  0  0
  186.0340  173.0000  137.9660 O   0  0  0  0  0  1  0  0  0  0  0  0
  186.0290  172.1930  135.6970 C   0  0  0  0  0  2  0  0  0  0  0  0
  184.8150  171.6070  136.1470 O   0  0  0  0  0  0  0  0  0  0  0  0
  183.4810  173.1940  135.1370 O   0  0  0  0  0  0  0  0  0  0  0  0
  182.3380  171.5350  136.3850 C   0  0  0  0  0  1  0  0  0  0  0  0
  183.5720  172.1630  135.8490 C   0  0  0  0  0  0  0  0  0  0  0  0
  191.6510  175.6440  138.3730 C   0  0  0  0  0  2  0  0  0  0  0  0
  192.8410  176.2810  137.6810 C   0  0  0  0  0  2  0  0  0  0  0  0
  193.4190  175.3410  136.6370 C   0  0  0  0  0  2  0  0  0  0  0  0
  193.7420  173.9980  137.2680 C   0  0  0  0  0  2  0  0  0  0  0  0
  194.4640  173.0970  136.2800 C   0  0  0  0  0  2  0  0  0  0  0  0
  196.7320  173.9190  136.8540 C   0  0  0  0  0  3  0  0  0  0  0  0
  195.8480  172.9290  136.6860 N   0  0  0  0  0  0  0  0  0  0  0  0
  196.4640  171.7550  136.8970 C   0  0  0  0  0  3  0  0  0  0  0  0
  197.7830  171.9980  137.2250 C   0  0  0  0  0  3  0  0  0  0  0  0
  197.9540  173.3710  137.1990 C   0  0  0  0  0  3  0  0  0  0  0  0
  188.4190  178.2580  145.8770 C   0  0  0  0  0  2  0  0  0  0  0  0
  187.1670  177.6340  145.8340 O   0  0  0  0  0  0  0  0  0  0  0  0
  186.2470  177.5270  143.6200 C   0  0  0  0  0  0  0  0  0  0  0  0
  186.4410  178.3430  144.8700 C   0  0  1  0  0  3  0  0  0  0  0  0
  184.2560  179.4600  144.3890 C   0  0  0  0  0  2  0  0  0  0  0  0
  185.0970  178.7710  145.4560 C   0  0  0  0  0  2  0  0  0  0  0  0
  187.1570  176.7510  143.2190 O   0  0  0  0  0  0  0  0  0  0  0  0
  183.9010  178.4630  143.2870 C   0  0  2  0  0  3  0  0  0  0  0  0
  185.0850  177.7340  142.8110 N   0  0  0  0  0  2  0  0  0  0  0  0
  183.4890  178.5810  140.8560 C   0  0  1  0  0  3  0  0  0  0  0  0
  181.7440  179.2610  142.4720 C   0  0  1  0  0  3  0  0  0  0  0  0
  183.1910  179.1450  142.1930 N   0  0  1  0  0  0  0  0  0  0  0  0
  182.4260  178.9460  139.8620 C   0  0  0  0  0  0  0  0  0  0  0  0
  181.1650  180.1410  141.5310 O   0  0  0  0  0  0  0  0  0  0  0  0
  182.5260  178.5910  138.6580 O   0  0  0  0  0  0  0  0  0  0  0  0
  181.2620  179.5800  140.3040 O   0  0  0  0  0  0  0  0  0  0  0  0
  184.8450  179.0800  140.3630 C   0  0  0  0  0  1  0  0  0  0  0  0
  181.0040  177.9030  142.5690 C   0  0  1  0  0  3  0  0  0  0  0  0
  180.4530  177.7180  143.9720 C   0  0  0  0  0  1  0  0  0  0  0  0
  179.8430  177.8010  141.5820 C   0  0  0  0  0  2  0  0  0  0  0  0
  180.0180  176.6120  140.6480 C   0  0  0  0  0  3  0  0  0  0  0  0
  179.4040  176.9150  139.2940 C   0  0  0  0  0  1  0  0  0  0  0  0
  179.3160  175.4070  141.2430 C   0  0  0  0  0  1  0  0  0  0  0  0
  1  5  1  0  0  0  0
  2  3  2  0  0  0  0
  2  7  1  0  0  0  0
  3  8  1  0  0  0  0
  4  9  1  0  0  0  0
  4  6  1  0  0  0  0
  7  1  2  0  0  0  0
  8 37  1  0  0  0  0
  8  5  2  0  0  0  0
  9  6  1  0  0  0  0
  9  3  1  0  0  0  0
 10  2  1  0  0  0  0
 11 13  1  6  0  0  0
 11 10  1  0  0  0  0
 11  9  1  0  0  0  0
 12 13  3  0  0  0  0
 14 27  1  1  0  0  0
 14 12  1  0  0  0  0
 15 14  1  0  0  0  0
 16 15  1  0  0  0  0
 17 16  1  0  0  0  0
 19 18  1  1  0  0  0
 19 20  1  0  0  0  0
 19 17  1  0  0  0  0
 20 21  1  1  0  0  0
 22 23  1  0  0  0  0
 22 20  1  0  0  0  0
 24 26  2  0  0  0  0
 26 23  1  0  0  0  0
 26 25  1  0  0  0  0
 28 27  1  0  0  0  0
 29 30  1  0  0  0  0
 29 28  1  0  0  0  0
 31 33  1  0  0  0  0
 31 30  1  0  0  0  0
 32 36  2  0  0  0  0
 33 32  1  0  0  0  0
 33 34  1  0  0  0  0
 34 35  2  0  0  0  0
 36 35  1  0  0  0  0
 38 37  1  0  0  0  0
 39 40  1  0  0  0  0
 40 42  1  0  0  0  0
 40 38  1  1  0  0  0
 41 42  1  0  0  0  0
 43 39  2  0  0  0  0
 44 41  1  1  0  0  0
 45 44  1  0  0  0  0
 45 39  1  0  0  0  0
 46 53  1  6  0  0  0
 46 48  1  0  0  0  0
 47 54  1  6  0  0  0
 48 47  1  0  0  0  0
 48 44  1  1  0  0  0
 49 52  1  0  0  0  0
 49 46  1  0  0  0  0
 50 47  1  0  0  0  0
 51 49  2  0  0  0  0
 52 50  1  0  0  0  0
 54 55  1  1  0  0  0
 56 54  1  0  0  0  0
 57 59  1  0  0  0  0
 57 56  1  0  0  0  0
 58 57  1  0  0  0  0
M  END
>  <MODEL>
8

>  <REMARK>
 VINA RESULT:      -5.1      2.989      6.816
  Name = 
  23 active torsions:
  status: ('A' for Active; 'I' for Inactive)
    1  A    between atoms: C_3  and  C_30
    2  A    between atoms: C_3  and  C_40
    3  A    between atoms: C_6  and  C_26
    4  A    between atoms: C_6  and  O_46
    5  A    between atoms: C_8  and  C_40
    6  A    between atoms: C_8  and  C_42
    7  A    between atoms: C_9  and  O_46
    8  A    between atoms: C_14  and  C_22
    9  A    between atoms: C_15  and  C_27
   10  A    between atoms: C_15  and  O_49
   11  A    between atoms: N_16  and  C_31
   12  A    between atoms: C_22  and  C_47
   13  A    between atoms: C_25  and  C_47
   14  A    between atoms: C_27  and  C_53
   15  A    between atoms: C_30  and  N_33
   16  A    between atoms: C_35  and  C_36
   17  A    between atoms: C_35  and  C_41
   18  A    between atoms: C_36  and  C_53
   19  A    between atoms: C_41  and  C_44
   20  A    between atoms: C_42  and  C_44
   21  A    between atoms: C_44  and  C_50
   22  A    between atoms: C_45  and  C_51
   23  A    between atoms: O_49  and  C_57
                            x       y       z     vdW  Elec       q    Type
                         _______ _______ _______ _____ _____    ______ ____

>  <TORSDO>
F 23

$$$$
=
 OpenBabel10222418173D

 59 64  0  0  1  0  0  0  0  0999 V2000
  189.1680  176.3300  143.5650 C   0  0  0  0  0  3  0  0  0  0  0  0
  190.1720  176.8070  141.4400 C   0  0  0  0  0  0  0  0  0  0  0  0
  189.0180  177.4220  141.0180 C   0  0  0  0  0  0  0  0  0  0  0  0
  188.2360  178.4130  138.6670 C   0  0  0  0  0  2  0  0  0  0  0  0
  187.9870  176.9670  143.1410 C   0  0  0  0  0  3  0  0  0  0  0  0
  189.0690  179.3860  139.4840 C   0  0  0  0  0  2  0  0  0  0  0  0
  190.2750  176.2460  142.7110 C   0  0  0  0  0  3  0  0  0  0  0  0
  187.8910  177.5150  141.8470 C   0  0  0  0  0  0  0  0  0  0  0  0
  189.2770  177.8980  139.6350 C   0  0  0  0  0  0  0  0  0  0  0  0
  191.2050  176.8260  140.4620 N   0  0  0  0  0  2  0  0  0  0  0  0
  190.7020  177.4890  139.2560 C   0  0  1  0  0  3  0  0  0  0  0  0
  190.6990  175.7380  137.2370 C   0  0  0  0  0  0  0  0  0  0  0  0
  190.6890  176.5270  138.1490 C   0  0  0  0  0  0  0  0  0  0  0  0
  190.7320  174.7790  136.1270 C   0  0  2  0  0  3  0  0  0  0  0  0
  189.4890  174.8970  135.2440 C   0  0  0  0  0  2  0  0  0  0  0  0
  188.2030  174.9700  136.0600 C   0  0  0  0  0  2  0  0  0  0  0  0
  187.0380  174.3900  135.2660 C   0  0  0  0  0  2  0  0  0  0  0  0
  187.2860  172.4850  136.7340 O   0  0  0  0  0  1  0  0  0  0  0  0
  186.3680  173.1930  135.9540 C   0  0  1  0  0  3  0  0  0  0  0  0
  185.1180  173.5380  136.7710 C   0  0  1  0  0  3  0  0  0  0  0  0
  184.3390  174.5160  136.1470 O   0  0  0  0  0  1  0  0  0  0  0  0
  184.2800  172.3140  137.1190 C   0  0  0  0  0  2  0  0  0  0  0  0
  184.2250  171.4060  136.0280 O   0  0  0  0  0  0  0  0  0  0  0  0
  182.5300  172.1070  134.6290 O   0  0  0  0  0  0  0  0  0  0  0  0
  182.4010  169.8530  135.3490 C   0  0  0  0  0  1  0  0  0  0  0  0
  183.0510  171.1870  135.3080 C   0  0  0  0  0  0  0  0  0  0  0  0
  190.9250  173.3610  136.6390 C   0  0  0  0  0  2  0  0  0  0  0  0
  192.1740  172.7490  136.0340 C   0  0  0  0  0  2  0  0  0  0  0  0
  193.2540  173.8030  135.8550 C   0  0  0  0  0  2  0  0  0  0  0  0
  194.6240  173.1470  135.8460 C   0  0  0  0  0  2  0  0  0  0  0  0
  194.6910  172.0520  134.7950 C   0  0  0  0  0  2  0  0  0  0  0  0
  196.1060  170.0240  134.6010 C   0  0  0  0  0  3  0  0  0  0  0  0
  195.9300  171.3070  134.9370 N   0  0  0  0  0  0  0  0  0  0  0  0
  197.0670  171.7750  135.4760 C   0  0  0  0  0  3  0  0  0  0  0  0
  198.0070  170.7650  135.4770 C   0  0  0  0  0  3  0  0  0  0  0  0
  197.3990  169.6530  134.9200 C   0  0  0  0  0  3  0  0  0  0  0  0
  186.6730  178.2830  141.4190 C   0  0  0  0  0  2  0  0  0  0  0  0
  185.6230  178.1510  142.3350 O   0  0  0  0  0  0  0  0  0  0  0  0
  183.2760  178.6490  142.2720 C   0  0  0  0  0  0  0  0  0  0  0  0
  184.4660  178.0750  141.5510 C   0  0  1  0  0  3  0  0  0  0  0  0
  183.4180  178.8020  139.4010 C   0  0  0  0  0  2  0  0  0  0  0  0
  184.6980  178.7940  140.2240 C   0  0  0  0  0  2  0  0  0  0  0  0
  183.1540  178.4990  143.5190 O   0  0  0  0  0  0  0  0  0  0  0  0
  182.3500  179.6320  140.1120 C   0  0  2  0  0  3  0  0  0  0  0  0
  182.2130  179.2470  141.5240 N   0  0  0  0  0  2  0  0  0  0  0  0
  181.1840  179.9170  137.9560 C   0  0  1  0  0  3  0  0  0  0  0  0
  180.4050  178.2470  139.6060 C   0  0  1  0  0  3  0  0  0  0  0  0
  181.0730  179.5480  139.3860 N   0  0  1  0  0  0  0  0  0  0  0  0
  180.0340  179.3720  137.1610 C   0  0  0  0  0  0  0  0  0  0  0  0
  179.0840  178.3200  139.1100 O   0  0  0  0  0  0  0  0  0  0  0  0
  179.9310  179.6170  135.9310 O   0  0  0  0  0  0  0  0  0  0  0  0
  179.1390  178.4860  137.7690 O   0  0  0  0  0  0  0  0  0  0  0  0
  181.2340  181.4360  137.8060 C   0  0  0  0  0  1  0  0  0  0  0  0
  181.1920  177.0280  139.0610 C   0  0  1  0  0  3  0  0  0  0  0  0
  181.6120  176.1310  140.2120 C   0  0  0  0  0  1  0  0  0  0  0  0
  180.3680  176.1950  138.0810 C   0  0  0  0  0  2  0  0  0  0  0  0
  181.2620  175.5070  137.0570 C   0  0  0  0  0  3  0  0  0  0  0  0
  180.9560  176.0260  135.6650 C   0  0  0  0  0  1  0  0  0  0  0  0
  180.9960  174.0150  137.0920 C   0  0  0  0  0  1  0  0  0  0  0  0
  2  7  1  0  0  0  0
  3  2  2  0  0  0  0
  3  8  1  0  0  0  0
  4  6  1  0  0  0  0
  4  9  1  0  0  0  0
  5  1  1  0  0  0  0
  6  9  1  0  0  0  0
  7  1  2  0  0  0  0
  8  5  2  0  0  0  0
  9  3  1  0  0  0  0
 10  2  1  0  0  0  0
 11 13  1  6  0  0  0
 11  9  1  0  0  0  0
 11 10  1  0  0  0  0
 12 13  3  0  0  0  0
 14 15  1  1  0  0  0
 14 27  1  0  0  0  0
 14 12  1  0  0  0  0
 15 16  1  0  0  0  0
 17 19  1  0  0  0  0
 17 16  1  0  0  0  0
 19 18  1  1  0  0  0
 19 20  1  0  0  0  0
 20 21  1  6  0  0  0
 20 22  1  0  0  0  0
 23 22  1  0  0  0  0
 24 26  2  0  0  0  0
 26 25  1  0  0  0  0
 26 23  1  0  0  0  0
 28 27  1  0  0  0  0
 29 28  1  0  0  0  0
 30 29  1  0  0  0  0
 31 33  1  0  0  0  0
 31 30  1  0  0  0  0
 32 36  2  0  0  0  0
 32 33  1  0  0  0  0
 33 34  1  0  0  0  0
 34 35  2  0  0  0  0
 36 35  1  0  0  0  0
 37  8  1  0  0  0  0
 37 38  1  0  0  0  0
 39 43  2  0  0  0  0
 40 39  1  0  0  0  0
 40 38  1  1  0  0  0
 41 42  1  0  0  0  0
 42 40  1  0  0  0  0
 44 41  1  6  0  0  0
 44 45  1  0  0  0  0
 45 39  1  0  0  0  0
 46 53  1  1  0  0  0
 46 48  1  0  0  0  0
 47 54  1  6  0  0  0
 48 47  1  0  0  0  0
 48 44  1  6  0  0  0
 49 52  1  0  0  0  0
 49 46  1  0  0  0  0
 50 47  1  0  0  0  0
 51 49  2  0  0  0  0
 52 50  1  0  0  0  0
 54 55  1  1  0  0  0
 56 54  1  0  0  0  0
 57 59  1  0  0  0  0
 57 56  1  0  0  0  0
 58 57  1  0  0  0  0
M  END
>  <MODEL>
9

>  <REMARK>
 VINA RESULT:      -5.0      3.193      6.907
  Name = 
  23 active torsions:
  status: ('A' for Active; 'I' for Inactive)
    1  A    between atoms: C_3  and  C_30
    2  A    between atoms: C_3  and  C_40
    3  A    between atoms: C_6  and  C_26
    4  A    between atoms: C_6  and  O_46
    5  A    between atoms: C_8  and  C_40
    6  A    between atoms: C_8  and  C_42
    7  A    between atoms: C_9  and  O_46
    8  A    between atoms: C_14  and  C_22
    9  A    between atoms: C_15  and  C_27
   10  A    between atoms: C_15  and  O_49
   11  A    between atoms: N_16  and  C_31
   12  A    between atoms: C_22  and  C_47
   13  A    between atoms: C_25  and  C_47
   14  A    between atoms: C_27  and  C_53
   15  A    between atoms: C_30  and  N_33
   16  A    between atoms: C_35  and  C_36
   17  A    between atoms: C_35  and  C_41
   18  A    between atoms: C_36  and  C_53
   19  A    between atoms: C_41  and  C_44
   20  A    between atoms: C_42  and  C_44
   21  A    between atoms: C_44  and  C_50
   22  A    between atoms: C_45  and  C_51
   23  A    between atoms: O_49  and  C_57
                            x       y       z     vdW  Elec       q    Type
                         _______ _______ _______ _____ _____    ______ ____

>  <TORSDO>
F 23

$$$$
