=
 OpenBabel10222416263D

 38 44  0  0  1  0  0  0  0  0999 V2000
  190.8910  178.1040  145.7200 C   0  0  0  0  0  2  0  0  0  0  0  0
  188.0140  177.3830  142.6370 C   0  0  1  0  0  3  0  0  0  0  0  0
  188.5710  177.5530  140.2020 C   0  0  0  0  0  3  0  0  0  0  0  0
  190.1020  176.7990  145.8390 C   0  0  2  0  0  3  0  0  0  0  0  0
  188.1740  177.5900  135.5950 C   0  0  0  0  0  3  0  0  0  0  0  0
  189.4680  178.0130  139.1030 C   0  0  0  0  0  0  0  0  0  0  0  0
  188.7120  178.0190  137.8030 C   0  0  0  0  0  0  0  0  0  0  0  0
  190.1770  178.1410  143.3770 N   0  0  0  0  0  0  0  0  0  0  0  0
  191.4380  177.7170  141.3570 C   0  0  0  0  0  3  0  0  0  0  0  0
  190.2660  177.9060  141.9800 C   0  0  0  0  0  0  0  0  0  0  0  0
  187.5060  178.7260  137.5870 N   0  0  0  0  0  0  0  0  0  0  0  0
  188.9500  177.5600  141.4790 C   0  0  0  0  0  0  0  0  0  0  0  0
  191.1400  176.5300  137.7630 C   0  0  0  0  0  0  0  0  0  0  0  0
  188.8630  176.7440  144.9280 C   0  0  0  0  0  2  0  0  0  0  0  0
  187.0960  178.4970  136.2070 C   0  0  0  0  0  3  0  0  0  0  0  0
  190.3590  176.6120  136.6820 C   0  0  0  0  0  3  0  0  0  0  0  0
  189.7190  176.5980  147.1640 O   0  0  0  0  0  1  0  0  0  0  0  0
  188.8280  177.8430  143.8600 C   0  0  2  0  0  3  0  0  0  0  0  0
  191.3200  178.3160  144.2710 C   0  0  0  0  0  2  0  0  0  0  0  0
  190.7580  177.2140  139.0320 C   0  0  0  0  0  0  0  0  0  0  0  0
  189.1160  177.3860  136.7250 C   0  0  0  0  0  0  0  0  0  0  0  0
  191.6010  177.1950  140.0260 N   0  0  0  0  0  0  0  0  0  0  0  0
  186.7730  178.2170  142.4900 C   0  0  0  0  0  0  0  0  0  0  0  0
  186.7250  179.1190  141.6620 O   0  0  0  0  0  0  0  0  0  0  0  0
  185.3390  178.9850  144.3670 C   0  0  0  0  0  2  0  0  0  0  0  0
  184.3280  177.8430  142.5020 C   0  0  0  0  0  2  0  0  0  0  0  0
  185.5850  177.9030  143.3430 C   0  0  1  0  0  3  0  0  0  0  0  0
  183.2700  178.5210  143.2390 N   0  0  0  0  0  0  0  0  0  0  0  0
  183.9450  179.4990  144.0800 C   0  0  0  0  0  2  0  0  0  0  0  0
  182.4800  179.2700  142.2740 C   0  0  0  0  0  2  0  0  0  0  0  0
  182.5590  178.6110  140.9080 C   0  0  0  0  0  2  0  0  0  0  0  0
  181.6790  179.2470  140.0250 O   0  0  0  0  0  0  0  0  0  0  0  0
  181.9190  179.7680  137.7930 O   0  0  0  0  0  0  0  0  0  0  0  0
  182.4770  179.9010  139.0760 C   0  0  1  0  0  0  0  0  0  0  0  0
  181.9010  181.0590  138.3580 C   0  0  0  0  0  2  0  0  0  0  0  0
  183.9710  179.6280  139.0430 C   0  0  0  0  0  1  0  0  0  0  0  0
  193.3310  175.1440  137.6030 N   0  0  0  0  0  0  0  0  0  0  0  0
  192.3550  175.7620  137.6750 C   0  0  0  0  0  0  0  0  0  0  0  0
  1  4  1  0  0  0  0
  2 23  1  6  0  0  0
  2 18  1  0  0  0  0
  3 12  1  0  0  0  0
  4 17  1  1  0  0  0
  5 15  2  0  0  0  0
  5 21  1  0  0  0  0
  6  3  2  0  0  0  0
  7  6  1  0  0  0  0
  8 18  1  0  0  0  0
  8 19  1  0  0  0  0
  9 10  1  0  0  0  0
 10  8  1  0  0  0  0
 11  7  2  0  0  0  0
 12 10  2  0  0  0  0
 12  2  1  0  0  0  0
 13 20  2  0  0  0  0
 14  4  1  0  0  0  0
 15 11  1  0  0  0  0
 16 21  2  0  0  0  0
 16 13  1  0  0  0  0
 18 14  1  1  0  0  0
 19  1  1  0  0  0  0
 20  6  1  0  0  0  0
 20 22  1  0  0  0  0
 21  7  1  0  0  0  0
 22  9  2  0  0  0  0
 24 23  2  0  0  0  0
 26 28  1  0  0  0  0
 26 27  1  0  0  0  0
 27 23  1  6  0  0  0
 27 25  1  0  0  0  0
 28 29  1  0  0  0  0
 29 25  1  0  0  0  0
 30 28  1  0  0  0  0
 31 30  1  0  0  0  0
 32 31  1  0  0  0  0
 33 35  1  0  0  0  0
 33 34  1  0  0  0  0
 34 36  1  1  0  0  0
 34 32  1  0  0  0  0
 35 34  1  0  0  0  0
 37 38  3  0  0  0  0
 38 13  1  0  0  0  0
M  END
>  <MODEL>
1

>  <REMARK>
 VINA RESULT:      -8.1      0.000      0.000
  Name = 
  7 active torsions:
  status: ('A' for Active; 'I' for Inactive)
    1  A    between atoms: C_3  and  C_14
    2  A    between atoms: C_13  and  O_34
    3  A    between atoms: C_14  and  C_17
    4  A    between atoms: C_15  and  C_29
    5  A    between atoms: C_15  and  N_36
    6  A    between atoms: C_21  and  C_33
    7  A    between atoms: C_29  and  O_34
                            x       y       z     vdW  Elec       q    Type
                         _______ _______ _______ _____ _____    ______ ____

>  <TORSDO>
F 7

$$$$
=
 OpenBabel10222416263D

 38 44  0  0  1  0  0  0  0  0999 V2000
  190.8110  178.0810  145.5610 C   0  0  0  0  0  2  0  0  0  0  0  0
  187.9860  177.4260  142.4150 C   0  0  1  0  0  3  0  0  0  0  0  0
  188.6210  177.4900  139.9940 C   0  0  0  0  0  3  0  0  0  0  0  0
  189.9470  176.8260  145.6940 C   0  0  2  0  0  3  0  0  0  0  0  0
  188.3580  177.4070  135.3780 C   0  0  0  0  0  3  0  0  0  0  0  0
  189.5730  177.8660  138.9100 C   0  0  0  0  0  0  0  0  0  0  0  0
  188.8560  177.8730  137.5870 C   0  0  0  0  0  0  0  0  0  0  0  0
  190.1670  178.0860  143.1970 N   0  0  0  0  0  0  0  0  0  0  0  0
  191.4580  177.5300  141.2290 C   0  0  0  0  0  3  0  0  0  0  0  0
  190.2820  177.8030  141.8110 C   0  0  0  0  0  0  0  0  0  0  0  0
  187.6980  178.6390  137.3150 N   0  0  0  0  0  0  0  0  0  0  0  0
  188.9640  177.5150  141.2810 C   0  0  0  0  0  0  0  0  0  0  0  0
  191.1960  176.2510  137.6640 C   0  0  0  0  0  0  0  0  0  0  0  0
  188.7330  176.8120  144.7480 C   0  0  0  0  0  2  0  0  0  0  0  0
  187.3150  178.3900  135.9300 C   0  0  0  0  0  3  0  0  0  0  0  0
  190.4520  176.3430  136.5580 C   0  0  0  0  0  3  0  0  0  0  0  0
  189.5160  176.6870  147.0120 O   0  0  0  0  0  1  0  0  0  0  0  0
  188.7900  177.8780  143.6480 C   0  0  2  0  0  3  0  0  0  0  0  0
  191.2920  178.2240  144.1200 C   0  0  0  0  0  2  0  0  0  0  0  0
  190.8180  176.9940  138.9010 C   0  0  0  0  0  0  0  0  0  0  0  0
  189.2540  177.1860  136.5410 C   0  0  0  0  0  0  0  0  0  0  0  0
  191.6300  176.9590  139.9190 N   0  0  0  0  0  0  0  0  0  0  0  0
  186.8000  178.3230  142.2060 C   0  0  0  0  0  0  0  0  0  0  0  0
  186.9180  179.3800  141.6000 O   0  0  0  0  0  0  0  0  0  0  0  0
  184.9450  178.8220  143.7810 C   0  0  0  0  0  2  0  0  0  0  0  0
  184.4340  177.9170  141.6080 C   0  0  0  0  0  2  0  0  0  0  0  0
  185.4630  177.8850  142.7170 C   0  0  1  0  0  3  0  0  0  0  0  0
  183.2070  178.4790  142.1580 N   0  0  0  0  0  0  0  0  0  0  0  0
  183.6310  179.3490  143.2450 C   0  0  0  0  0  2  0  0  0  0  0  0
  182.6250  179.3350  141.1360 C   0  0  0  0  0  2  0  0  0  0  0  0
  181.1120  179.2040  141.1440 C   0  0  0  0  0  2  0  0  0  0  0  0
  180.5940  179.7720  142.3130 O   0  0  0  0  0  0  0  0  0  0  0  0
  180.1830  178.4460  144.1530 O   0  0  0  0  0  0  0  0  0  0  0  0
  179.7380  178.8140  142.8710 C   0  0  1  0  0  0  0  0  0  0  0  0
  178.9800  179.1780  144.0890 C   0  0  0  0  0  2  0  0  0  0  0  0
  179.3630  177.5860  142.0600 C   0  0  0  0  0  1  0  0  0  0  0  0
  193.3090  174.7430  137.6110 N   0  0  0  0  0  0  0  0  0  0  0  0
  192.3680  175.4150  137.6350 C   0  0  0  0  0  0  0  0  0  0  0  0
  1  4  1  0  0  0  0
  2 23  1  6  0  0  0
  2 18  1  0  0  0  0
  3 12  1  0  0  0  0
  4 17  1  1  0  0  0
  5 15  2  0  0  0  0
  5 21  1  0  0  0  0
  6  3  2  0  0  0  0
  7  6  1  0  0  0  0
  8 18  1  0  0  0  0
  8 19  1  0  0  0  0
  9 10  1  0  0  0  0
 10  8  1  0  0  0  0
 11  7  2  0  0  0  0
 12 10  2  0  0  0  0
 12  2  1  0  0  0  0
 13 20  2  0  0  0  0
 14  4  1  0  0  0  0
 15 11  1  0  0  0  0
 16 13  1  0  0  0  0
 18 14  1  1  0  0  0
 19  1  1  0  0  0  0
 20  6  1  0  0  0  0
 20 22  1  0  0  0  0
 21 16  2  0  0  0  0
 21  7  1  0  0  0  0
 22  9  2  0  0  0  0
 24 23  2  0  0  0  0
 26 28  1  0  0  0  0
 26 27  1  0  0  0  0
 27 23  1  6  0  0  0
 27 25  1  0  0  0  0
 28 29  1  0  0  0  0
 29 25  1  0  0  0  0
 30 31  1  0  0  0  0
 30 28  1  0  0  0  0
 31 32  1  0  0  0  0
 32 34  1  0  0  0  0
 34 36  1  6  0  0  0
 34 35  1  0  0  0  0
 34 33  1  0  0  0  0
 35 33  1  0  0  0  0
 37 38  3  0  0  0  0
 38 13  1  0  0  0  0
M  END
>  <MODEL>
2

>  <REMARK>
 VINA RESULT:      -7.8      1.373      2.077
  Name = 
  7 active torsions:
  status: ('A' for Active; 'I' for Inactive)
    1  A    between atoms: C_3  and  C_14
    2  A    between atoms: C_13  and  O_34
    3  A    between atoms: C_14  and  C_17
    4  A    between atoms: C_15  and  C_29
    5  A    between atoms: C_15  and  N_36
    6  A    between atoms: C_21  and  C_33
    7  A    between atoms: C_29  and  O_34
                            x       y       z     vdW  Elec       q    Type
                         _______ _______ _______ _____ _____    ______ ____

>  <TORSDO>
F 7

$$$$
=
 OpenBabel10222416263D

 38 44  0  0  1  0  0  0  0  0999 V2000
  189.5180  176.6310  137.6320 C   0  0  0  0  0  2  0  0  0  0  0  0
  187.2940  178.8530  140.5330 C   0  0  1  0  0  3  0  0  0  0  0  0
  187.2660  178.2530  142.9630 C   0  0  0  0  0  3  0  0  0  0  0  0
  189.7330  178.1450  137.6170 C   0  0  2  0  0  3  0  0  0  0  0  0
  186.2680  178.2520  147.4790 C   0  0  0  0  0  3  0  0  0  0  0  0
  187.5150  177.2790  144.0640 C   0  0  0  0  0  0  0  0  0  0  0  0
  186.7390  177.6880  145.2870 C   0  0  0  0  0  0  0  0  0  0  0  0
  188.6040  176.9380  139.8840 N   0  0  0  0  0  0  0  0  0  0  0  0
  189.5470  176.3770  142.0390 C   0  0  0  0  0  3  0  0  0  0  0  0
  188.6160  176.9980  141.3020 C   0  0  0  0  0  0  0  0  0  0  0  0
  185.3390  177.8880  145.3090 N   0  0  0  0  0  0  0  0  0  0  0  0
  187.7400  178.0700  141.7330 C   0  0  0  0  0  0  0  0  0  0  0  0
  189.5290  177.3120  145.7180 C   0  0  0  0  0  0  0  0  0  0  0  0
  188.6770  178.9240  138.4220 C   0  0  0  0  0  2  0  0  0  0  0  0
  184.9630  178.2580  146.6690 C   0  0  0  0  0  3  0  0  0  0  0  0
  188.7180  177.6890  146.7120 C   0  0  0  0  0  3  0  0  0  0  0  0
  189.7540  178.6060  136.3020 O   0  0  0  0  0  1  0  0  0  0  0  0
  187.8160  178.0420  139.3320 C   0  0  2  0  0  3  0  0  0  0  0  0
  189.5090  176.1270  139.0720 C   0  0  0  0  0  2  0  0  0  0  0  0
  188.9960  177.0830  144.3450 C   0  0  0  0  0  0  0  0  0  0  0  0
  187.2860  177.8730  146.4660 C   0  0  0  0  0  0  0  0  0  0  0  0
  189.8030  176.6140  143.4350 N   0  0  0  0  0  0  0  0  0  0  0  0
  185.7990  178.9790  140.4690 C   0  0  0  0  0  0  0  0  0  0  0  0
  185.1670  179.3940  141.4330 O   0  0  0  0  0  0  0  0  0  0  0  0
  184.2610  177.3800  139.3510 C   0  0  0  0  0  2  0  0  0  0  0  0
  184.1290  179.7220  138.8020 C   0  0  0  0  0  2  0  0  0  0  0  0
  185.0970  178.6270  139.1940 C   0  0  1  0  0  3  0  0  0  0  0  0
  182.9040  179.0840  138.3390 N   0  0  0  0  0  0  0  0  0  0  0  0
  182.8440  177.8050  139.0320 C   0  0  0  0  0  2  0  0  0  0  0  0
  181.7880  179.8790  138.8270 C   0  0  0  0  0  2  0  0  0  0  0  0
  181.1700  179.2200  140.0480 C   0  0  0  0  0  2  0  0  0  0  0  0
  180.3500  180.1370  140.7150 O   0  0  0  0  0  0  0  0  0  0  0  0
  180.0560  180.8700  142.8800 O   0  0  0  0  0  0  0  0  0  0  0  0
  180.3610  179.7650  142.0660 C   0  0  1  0  0  0  0  0  0  0  0  0
  179.0920  179.8430  142.8230 C   0  0  0  0  0  2  0  0  0  0  0  0
  181.5520  179.0020  142.6200 C   0  0  0  0  0  1  0  0  0  0  0  0
  192.0550  177.0000  146.2350 N   0  0  0  0  0  0  0  0  0  0  0  0
  190.9300  177.1390  146.0050 C   0  0  0  0  0  0  0  0  0  0  0  0
  1 19  1  0  0  0  0
  2 23  1  6  0  0  0
  2 12  1  0  0  0  0
  3  6  1  0  0  0  0
  4 17  1  6  0  0  0
  4  1  1  0  0  0  0
  4 14  1  0  0  0  0
  6 20  1  0  0  0  0
  6  7  2  0  0  0  0
  7 11  1  0  0  0  0
  7 21  1  0  0  0  0
  8 10  1  0  0  0  0
  9 22  1  0  0  0  0
 10 12  1  0  0  0  0
 10  9  2  0  0  0  0
 11 15  2  0  0  0  0
 12  3  2  0  0  0  0
 13 38  1  0  0  0  0
 13 16  2  0  0  0  0
 15  5  1  0  0  0  0
 18 14  1  6  0  0  0
 18  8  1  0  0  0  0
 18  2  1  0  0  0  0
 19  8  1  0  0  0  0
 20 13  1  0  0  0  0
 21 16  1  0  0  0  0
 21  5  2  0  0  0  0
 22 20  2  0  0  0  0
 23 24  2  0  0  0  0
 26 27  1  0  0  0  0
 27 25  1  0  0  0  0
 27 23  1  1  0  0  0
 28 26  1  0  0  0  0
 28 30  1  0  0  0  0
 28 29  1  0  0  0  0
 29 25  1  0  0  0  0
 30 31  1  0  0  0  0
 31 32  1  0  0  0  0
 32 34  1  0  0  0  0
 34 36  1  1  0  0  0
 34 35  1  0  0  0  0
 34 33  1  0  0  0  0
 35 33  1  0  0  0  0
 38 37  3  0  0  0  0
M  END
>  <MODEL>
3

>  <REMARK>
 VINA RESULT:      -7.5      2.425      6.344
  Name = 
  7 active torsions:
  status: ('A' for Active; 'I' for Inactive)
    1  A    between atoms: C_3  and  C_14
    2  A    between atoms: C_13  and  O_34
    3  A    between atoms: C_14  and  C_17
    4  A    between atoms: C_15  and  C_29
    5  A    between atoms: C_15  and  N_36
    6  A    between atoms: C_21  and  C_33
    7  A    between atoms: C_29  and  O_34
                            x       y       z     vdW  Elec       q    Type
                         _______ _______ _______ _____ _____    ______ ____

>  <TORSDO>
F 7

$$$$
=
 OpenBabel10222416263D

 38 44  0  0  1  0  0  0  0  0999 V2000
  189.0480  177.9910  135.8920 C   0  0  0  0  0  2  0  0  0  0  0  0
  188.1480  177.2030  140.0000 C   0  0  1  0  0  3  0  0  0  0  0  0
  186.0820  178.0640  141.1200 C   0  0  0  0  0  3  0  0  0  0  0  0
  189.1300  176.5260  136.3210 C   0  0  2  0  0  3  0  0  0  0  0  0
  182.8990  179.0220  144.3360 C   0  0  0  0  0  3  0  0  0  0  0  0
  184.9150  178.9920  141.1580 C   0  0  0  0  0  0  0  0  0  0  0  0
  184.3820  179.0770  142.5620 C   0  0  0  0  0  0  0  0  0  0  0  0
  187.7280  178.3510  137.9240 N   0  0  0  0  0  0  0  0  0  0  0  0
  185.3600  178.7620  138.1920 C   0  0  0  0  0  3  0  0  0  0  0  0
  186.5580  178.4700  138.7180 C   0  0  0  0  0  0  0  0  0  0  0  0
  185.1580  179.4470  143.6860 N   0  0  0  0  0  0  0  0  0  0  0  0
  186.8150  177.8910  140.0220 C   0  0  0  0  0  0  0  0  0  0  0  0
  182.4450  178.3780  140.5940 C   0  0  0  0  0  0  0  0  0  0  0  0
  189.1410  176.3310  137.8480 C   0  0  0  0  0  2  0  0  0  0  0  0
  184.2870  179.4280  144.8540 C   0  0  0  0  0  3  0  0  0  0  0  0
  182.1170  178.4770  141.8860 C   0  0  0  0  0  3  0  0  0  0  0  0
  190.2620  175.9330  135.7650 O   0  0  0  0  0  1  0  0  0  0  0  0
  188.7530  177.5860  138.6360 C   0  0  2  0  0  3  0  0  0  0  0  0
  187.8010  178.6340  136.4920 C   0  0  0  0  0  2  0  0  0  0  0  0
  183.8450  178.6240  140.1430 C   0  0  0  0  0  0  0  0  0  0  0  0
  183.1300  178.8410  142.8800 C   0  0  0  0  0  0  0  0  0  0  0  0
  184.0950  178.6200  138.8640 N   0  0  0  0  0  0  0  0  0  0  0  0
  189.0390  177.6670  141.1170 C   0  0  0  0  0  0  0  0  0  0  0  0
  188.8220  178.7290  141.6850 O   0  0  0  0  0  0  0  0  0  0  0  0
  191.4720  177.5560  141.6030 C   0  0  0  0  0  2  0  0  0  0  0  0
  189.9420  176.2780  142.9550 C   0  0  0  0  0  2  0  0  0  0  0  0
  190.1730  176.7900  141.5490 C   0  0  1  0  0  3  0  0  0  0  0  0
  191.2080  176.3600  143.6690 N   0  0  0  0  0  0  0  0  0  0  0  0
  191.9440  177.4460  143.0370 C   0  0  0  0  0  2  0  0  0  0  0  0
  190.9150  176.7860  145.0280 C   0  0  0  0  0  2  0  0  0  0  0  0
  189.4510  177.1760  145.1490 C   0  0  0  0  0  2  0  0  0  0  0  0
  189.3000  178.1370  146.1550 O   0  0  0  0  0  0  0  0  0  0  0  0
  188.5220  176.7260  147.8020 O   0  0  0  0  0  0  0  0  0  0  0  0
  188.1800  177.7520  146.9040 C   0  0  1  0  0  0  0  0  0  0  0  0
  188.2060  177.9790  148.3660 C   0  0  0  0  0  2  0  0  0  0  0  0
  186.8790  177.4300  146.1890 C   0  0  0  0  0  1  0  0  0  0  0  0
  180.5910  177.7350  138.8930 N   0  0  0  0  0  0  0  0  0  0  0  0
  181.4170  178.0210  139.6510 C   0  0  0  0  0  0  0  0  0  0  0  0
  1  4  1  0  0  0  0
  1 19  1  0  0  0  0
  2 12  1  0  0  0  0
  2 23  1  1  0  0  0
  3  6  1  0  0  0  0
  4 17  1  6  0  0  0
  4 14  1  0  0  0  0
  5 15  1  0  0  0  0
  6  7  2  0  0  0  0
  7 21  1  0  0  0  0
  7 11  1  0  0  0  0
  8 18  1  0  0  0  0
  8 10  1  0  0  0  0
  9 10  2  0  0  0  0
  9 22  1  0  0  0  0
 10 12  1  0  0  0  0
 11 15  2  0  0  0  0
 12  3  2  0  0  0  0
 13 16  2  0  0  0  0
 16 21  1  0  0  0  0
 18 14  1  6  0  0  0
 18  2  1  0  0  0  0
 19  8  1  0  0  0  0
 20 13  1  0  0  0  0
 20  6  1  0  0  0  0
 21  5  2  0  0  0  0
 22 20  2  0  0  0  0
 23 24  2  0  0  0  0
 25 29  1  0  0  0  0
 26 28  1  0  0  0  0
 27 23  1  1  0  0  0
 27 25  1  0  0  0  0
 27 26  1  0  0  0  0
 28 30  1  0  0  0  0
 29 28  1  0  0  0  0
 30 31  1  0  0  0  0
 31 32  1  0  0  0  0
 32 34  1  0  0  0  0
 33 35  1  0  0  0  0
 34 36  1  6  0  0  0
 34 33  1  0  0  0  0
 34 35  1  0  0  0  0
 37 38  3  0  0  0  0
 38 13  1  0  0  0  0
M  END
>  <MODEL>
4

>  <REMARK>
 VINA RESULT:      -7.5      2.604      8.185
  Name = 
  7 active torsions:
  status: ('A' for Active; 'I' for Inactive)
    1  A    between atoms: C_3  and  C_14
    2  A    between atoms: C_13  and  O_34
    3  A    between atoms: C_14  and  C_17
    4  A    between atoms: C_15  and  C_29
    5  A    between atoms: C_15  and  N_36
    6  A    between atoms: C_21  and  C_33
    7  A    between atoms: C_29  and  O_34
                            x       y       z     vdW  Elec       q    Type
                         _______ _______ _______ _____ _____    ______ ____

>  <TORSDO>
F 7

$$$$
=
 OpenBabel10222416263D

 38 44  0  0  1  0  0  0  0  0999 V2000
  189.2850  176.6550  137.5560 C   0  0  0  0  0  2  0  0  0  0  0  0
  187.1440  178.8810  140.5170 C   0  0  1  0  0  3  0  0  0  0  0  0
  187.1770  178.2800  142.9460 C   0  0  0  0  0  3  0  0  0  0  0  0
  189.5030  178.1680  137.5370 C   0  0  2  0  0  3  0  0  0  0  0  0
  186.2970  178.2780  147.4860 C   0  0  0  0  0  3  0  0  0  0  0  0
  187.4510  177.3030  144.0400 C   0  0  0  0  0  0  0  0  0  0  0  0
  186.7090  177.7140  145.2820 C   0  0  0  0  0  0  0  0  0  0  0  0
  188.4300  176.9630  139.8320 N   0  0  0  0  0  0  0  0  0  0  0  0
  189.4280  176.3970  141.9610 C   0  0  0  0  0  3  0  0  0  0  0  0
  188.4790  177.0210  141.2490 C   0  0  0  0  0  0  0  0  0  0  0  0
  185.3100  177.9180  145.3410 N   0  0  0  0  0  0  0  0  0  0  0  0
  187.6180  178.0960  141.7030 C   0  0  0  0  0  0  0  0  0  0  0  0
  189.5080  177.3300  145.6400 C   0  0  0  0  0  0  0  0  0  0  0  0
  188.4720  178.9500  138.3700 C   0  0  0  0  0  2  0  0  0  0  0  0
  184.9720  178.2880  146.7100 C   0  0  0  0  0  3  0  0  0  0  0  0
  188.7250  177.7070  146.6550 C   0  0  0  0  0  3  0  0  0  0  0  0
  189.4910  178.6300  136.2220 O   0  0  0  0  0  1  0  0  0  0  0  0
  187.6320  178.0700  139.3020 C   0  0  2  0  0  3  0  0  0  0  0  0
  189.3120  176.1490  138.9960 C   0  0  0  0  0  2  0  0  0  0  0  0
  188.9390  177.1030  144.2810 C   0  0  0  0  0  0  0  0  0  0  0  0
  187.2870  177.8960  146.4470 C   0  0  0  0  0  0  0  0  0  0  0  0
  189.7200  176.6330  143.3500 N   0  0  0  0  0  0  0  0  0  0  0  0
  185.6470  179.0120  140.4910 C   0  0  0  0  0  0  0  0  0  0  0  0
  185.0330  179.3210  141.5040 O   0  0  0  0  0  0  0  0  0  0  0  0
  184.0520  177.5670  139.2530 C   0  0  0  0  0  2  0  0  0  0  0  0
  183.9860  179.9510  138.9170 C   0  0  0  0  0  2  0  0  0  0  0  0
  184.9240  178.7970  139.1980 C   0  0  1  0  0  3  0  0  0  0  0  0
  182.7380  179.3940  138.4120 N   0  0  0  0  0  0  0  0  0  0  0  0
  182.6450  178.0610  138.9890 C   0  0  0  0  0  2  0  0  0  0  0  0
  181.6520  180.1760  138.9820 C   0  0  0  0  0  2  0  0  0  0  0  0
  180.9690  180.9920  137.8980 C   0  0  0  0  0  2  0  0  0  0  0  0
  180.9500  182.3420  138.2650 O   0  0  0  0  0  0  0  0  0  0  0  0
  179.9040  184.1370  137.2670 O   0  0  0  0  0  0  0  0  0  0  0  0
  180.8000  183.0710  137.0770 C   0  0  1  0  0  0  0  0  0  0  0  0
  181.2550  184.4780  137.0580 C   0  0  0  0  0  2  0  0  0  0  0  0
  180.4930  182.3340  135.7840 C   0  0  0  0  0  1  0  0  0  0  0  0
  192.0460  177.0090  146.0910 N   0  0  0  0  0  0  0  0  0  0  0  0
  190.9150  177.1520  145.8900 C   0  0  0  0  0  0  0  0  0  0  0  0
  1 19  1  0  0  0  0
  2 23  1  1  0  0  0
  2 12  1  0  0  0  0
  3  6  1  0  0  0  0
  4 17  1  6  0  0  0
  4  1  1  0  0  0  0
  4 14  1  0  0  0  0
  6 20  1  0  0  0  0
  6  7  2  0  0  0  0
  7 11  1  0  0  0  0
  7 21  1  0  0  0  0
  8 10  1  0  0  0  0
  9 22  1  0  0  0  0
 10 12  1  0  0  0  0
 10  9  2  0  0  0  0
 11 15  2  0  0  0  0
 12  3  2  0  0  0  0
 13 38  1  0  0  0  0
 13 16  2  0  0  0  0
 15  5  1  0  0  0  0
 18 14  1  6  0  0  0
 18  8  1  0  0  0  0
 18  2  1  0  0  0  0
 19  8  1  0  0  0  0
 20 13  1  0  0  0  0
 21 16  1  0  0  0  0
 21  5  2  0  0  0  0
 22 20  2  0  0  0  0
 23 24  2  0  0  0  0
 26 27  1  0  0  0  0
 27 25  1  0  0  0  0
 27 23  1  1  0  0  0
 28 26  1  0  0  0  0
 28 30  1  0  0  0  0
 28 29  1  0  0  0  0
 29 25  1  0  0  0  0
 31 32  1  0  0  0  0
 31 30  1  0  0  0  0
 34 36  1  6  0  0  0
 34 33  1  0  0  0  0
 34 32  1  0  0  0  0
 35 34  1  0  0  0  0
 35 33  1  0  0  0  0
 38 37  3  0  0  0  0
M  END
>  <MODEL>
5

>  <REMARK>
 VINA RESULT:      -7.2      2.545      6.391
  Name = 
  7 active torsions:
  status: ('A' for Active; 'I' for Inactive)
    1  A    between atoms: C_3  and  C_14
    2  A    between atoms: C_13  and  O_34
    3  A    between atoms: C_14  and  C_17
    4  A    between atoms: C_15  and  C_29
    5  A    between atoms: C_15  and  N_36
    6  A    between atoms: C_21  and  C_33
    7  A    between atoms: C_29  and  O_34
                            x       y       z     vdW  Elec       q    Type
                         _______ _______ _______ _____ _____    ______ ____

>  <TORSDO>
F 7

$$$$
=
 OpenBabel10222416263D

 38 44  0  0  1  0  0  0  0  0999 V2000
  190.4090  177.0450  144.6050 C   0  0  0  0  0  2  0  0  0  0  0  0
  188.5830  178.7640  141.1380 C   0  0  1  0  0  3  0  0  0  0  0  0
  186.1410  178.5300  140.6410 C   0  0  0  0  0  3  0  0  0  0  0  0
  190.7060  178.5250  144.3620 C   0  0  2  0  0  3  0  0  0  0  0  0
  182.0400  178.8140  138.5220 C   0  0  0  0  0  3  0  0  0  0  0  0
  184.8280  177.8580  140.8620 C   0  0  0  0  0  0  0  0  0  0  0  0
  183.9120  178.1460  139.7040 C   0  0  0  0  0  0  0  0  0  0  0  0
  188.5170  177.3330  143.0750 N   0  0  0  0  0  0  0  0  0  0  0  0
  186.1430  177.4250  143.5320 C   0  0  0  0  0  3  0  0  0  0  0  0
  187.1740  177.5880  142.6910 C   0  0  0  0  0  0  0  0  0  0  0  0
  184.2240  177.8630  138.3530 N   0  0  0  0  0  0  0  0  0  0  0  0
  187.1770  178.3510  141.4580 C   0  0  0  0  0  0  0  0  0  0  0  0
  182.8390  178.7960  142.2610 C   0  0  0  0  0  0  0  0  0  0  0  0
  190.3260  179.0060  142.9500 C   0  0  0  0  0  2  0  0  0  0  0  0
  183.0850  178.2680  137.5380 C   0  0  0  0  0  3  0  0  0  0  0  0
  182.1410  179.0100  141.1420 C   0  0  0  0  0  3  0  0  0  0  0  0
  192.0560  178.7810  144.5960 O   0  0  0  0  0  1  0  0  0  0  0  0
  189.4450  178.0200  142.1750 C   0  0  2  0  0  3  0  0  0  0  0  0
  188.9280  176.7710  144.3600 C   0  0  0  0  0  2  0  0  0  0  0  0
  184.2110  178.2140  142.2040 C   0  0  0  0  0  0  0  0  0  0  0  0
  182.7130  178.6650  139.8370 C   0  0  0  0  0  0  0  0  0  0  0  0
  184.8100  177.9240  143.3250 N   0  0  0  0  0  0  0  0  0  0  0  0
  188.9820  178.3690  139.7450 C   0  0  0  0  0  0  0  0  0  0  0  0
  189.0560  179.2090  138.8570 O   0  0  0  0  0  0  0  0  0  0  0  0
  188.7260  176.4670  138.1680 C   0  0  0  0  0  2  0  0  0  0  0  0
  190.8240  176.7740  139.3120 C   0  0  0  0  0  2  0  0  0  0  0  0
  189.3280  176.9390  139.4700 C   0  0  1  0  0  3  0  0  0  0  0  0
  191.0540  175.8760  138.1890 N   0  0  0  0  0  0  0  0  0  0  0  0
  189.9010  176.0400  137.3150 C   0  0  0  0  0  2  0  0  0  0  0  0
  192.2080  176.3780  137.4600 C   0  0  0  0  0  2  0  0  0  0  0  0
  193.3030  175.3250  137.4230 C   0  0  0  0  0  2  0  0  0  0  0  0
  194.2820  175.6280  138.3760 O   0  0  0  0  0  0  0  0  0  0  0  0
  196.4480  174.8770  138.1340 O   0  0  0  0  0  0  0  0  0  0  0  0
  195.1260  174.5120  138.4430 C   0  0  1  0  0  0  0  0  0  0  0  0
  196.1920  174.5020  139.4690 C   0  0  0  0  0  2  0  0  0  0  0  0
  194.7370  173.2370  137.7130 C   0  0  0  0  0  1  0  0  0  0  0  0
  181.7540  179.4280  144.5340 N   0  0  0  0  0  0  0  0  0  0  0  0
  182.2370  179.1470  143.5210 C   0  0  0  0  0  0  0  0  0  0  0  0
  2 23  1  6  0  0  0
  2 12  1  0  0  0  0
  2 18  1  0  0  0  0
  3  6  2  0  0  0  0
  3 12  1  0  0  0  0
  4 17  1  6  0  0  0
  4  1  1  0  0  0  0
  5 21  1  0  0  0  0
  6 20  1  0  0  0  0
  7 21  1  0  0  0  0
  7  6  1  0  0  0  0
  8 19  1  0  0  0  0
 10  8  1  0  0  0  0
 10  9  1  0  0  0  0
 11  7  2  0  0  0  0
 12 10  2  0  0  0  0
 13 38  1  0  0  0  0
 14  4  1  0  0  0  0
 15 11  1  0  0  0  0
 15  5  2  0  0  0  0
 16 13  1  0  0  0  0
 18 14  1  1  0  0  0
 18  8  1  0  0  0  0
 19  1  1  0  0  0  0
 20 13  2  0  0  0  0
 20 22  1  0  0  0  0
 21 16  2  0  0  0  0
 22  9  2  0  0  0  0
 24 23  2  0  0  0  0
 25 27  1  0  0  0  0
 26 27  1  0  0  0  0
 27 23  1  6  0  0  0
 28 26  1  0  0  0  0
 29 25  1  0  0  0  0
 29 28  1  0  0  0  0
 30 28  1  0  0  0  0
 31 30  1  0  0  0  0
 31 32  1  0  0  0  0
 32 34  1  0  0  0  0
 33 34  1  0  0  0  0
 33 35  1  0  0  0  0
 34 36  1  6  0  0  0
 34 35  1  0  0  0  0
 38 37  3  0  0  0  0
M  END
>  <MODEL>
6

>  <REMARK>
 VINA RESULT:      -7.2      3.000      8.209
  Name = 
  7 active torsions:
  status: ('A' for Active; 'I' for Inactive)
    1  A    between atoms: C_3  and  C_14
    2  A    between atoms: C_13  and  O_34
    3  A    between atoms: C_14  and  C_17
    4  A    between atoms: C_15  and  C_29
    5  A    between atoms: C_15  and  N_36
    6  A    between atoms: C_21  and  C_33
    7  A    between atoms: C_29  and  O_34
                            x       y       z     vdW  Elec       q    Type
                         _______ _______ _______ _____ _____    ______ ____

>  <TORSDO>
F 7

$$$$
=
 OpenBabel10222416263D

 38 44  0  0  1  0  0  0  0  0999 V2000
  191.5210  176.3250  134.7880 C   0  0  0  0  0  2  0  0  0  0  0  0
  189.3120  176.5230  138.4470 C   0  0  1  0  0  3  0  0  0  0  0  0
  186.9510  177.3460  138.5570 C   0  0  0  0  0  3  0  0  0  0  0  0
  191.5190  175.0510  135.6340 C   0  0  2  0  0  3  0  0  0  0  0  0
  182.8220  178.6510  140.1810 C   0  0  0  0  0  3  0  0  0  0  0  0
  185.7990  178.0750  137.9520 C   0  0  0  0  0  0  0  0  0  0  0  0
  184.8160  178.4490  139.0280 C   0  0  0  0  0  0  0  0  0  0  0  0
  189.5720  177.0150  136.1030 N   0  0  0  0  0  0  0  0  0  0  0  0
  187.2380  177.1400  135.4820 C   0  0  0  0  0  3  0  0  0  0  0  0
  188.1970  177.1700  136.4180 C   0  0  0  0  0  0  0  0  0  0  0  0
  185.1450  179.2080  140.1760 N   0  0  0  0  0  0  0  0  0  0  0  0
  188.0220  176.9960  137.8470 C   0  0  0  0  0  0  0  0  0  0  0  0
  183.7010  176.9890  136.8520 C   0  0  0  0  0  0  0  0  0  0  0  0
  191.0190  175.2670  137.0730 C   0  0  0  0  0  2  0  0  0  0  0  0
  183.9290  179.3720  140.9640 C   0  0  0  0  0  3  0  0  0  0  0  0
  182.9470  177.3770  137.8850 C   0  0  0  0  0  3  0  0  0  0  0  0
  192.7990  174.5000  135.6610 O   0  0  0  0  0  1  0  0  0  0  0  0
  190.3270  176.6180  137.2930 C   0  0  2  0  0  3  0  0  0  0  0  0
  190.1160  176.9190  134.7490 C   0  0  0  0  0  2  0  0  0  0  0  0
  185.1570  177.3050  136.8100 C   0  0  0  0  0  0  0  0  0  0  0  0
  183.5430  178.1300  138.9920 C   0  0  0  0  0  0  0  0  0  0  0  0
  185.8280  177.0010  135.7350 N   0  0  0  0  0  0  0  0  0  0  0  0
  189.7470  177.3860  139.5970 C   0  0  0  0  0  0  0  0  0  0  0  0
  189.4990  178.5860  139.6040 O   0  0  0  0  0  0  0  0  0  0  0  0
  191.7110  177.5030  141.1140 C   0  0  0  0  0  2  0  0  0  0  0  0
  189.5850  176.7870  141.9920 C   0  0  0  0  0  2  0  0  0  0  0  0
  190.4530  176.7490  140.7530 C   0  0  1  0  0  3  0  0  0  0  0  0
  190.4350  177.1460  143.1190 N   0  0  0  0  0  0  0  0  0  0  0  0
  191.5200  177.9350  142.5520 C   0  0  0  0  0  2  0  0  0  0  0  0
  189.6700  178.0370  143.9750 C   0  0  0  0  0  2  0  0  0  0  0  0
  188.5100  177.2870  144.6080 C   0  0  0  0  0  2  0  0  0  0  0  0
  187.9430  178.0640  145.6240 O   0  0  0  0  0  0  0  0  0  0  0  0
  185.7870  177.5070  146.2150 O   0  0  0  0  0  0  0  0  0  0  0  0
  186.5880  178.2100  145.3000 C   0  0  1  0  0  0  0  0  0  0  0  0
  185.7110  178.9130  146.2610 C   0  0  0  0  0  2  0  0  0  0  0  0
  186.1300  177.9500  143.8740 C   0  0  0  0  0  1  0  0  0  0  0  0
  182.5690  175.6650  134.9260 N   0  0  0  0  0  0  0  0  0  0  0  0
  183.0730  176.2550  135.7840 C   0  0  0  0  0  0  0  0  0  0  0  0
  1  4  1  0  0  0  0
  2 23  1  1  0  0  0
  4 17  1  1  0  0  0
  4 14  1  0  0  0  0
  5 15  1  0  0  0  0
  6  3  1  0  0  0  0
  6  7  2  0  0  0  0
  7 11  1  0  0  0  0
  8 10  1  0  0  0  0
  8 18  1  0  0  0  0
  9 22  1  0  0  0  0
  9 10  2  0  0  0  0
 10 12  1  0  0  0  0
 11 15  2  0  0  0  0
 12  2  1  0  0  0  0
 12  3  2  0  0  0  0
 13 16  2  0  0  0  0
 16 21  1  0  0  0  0
 18 14  1  6  0  0  0
 18  2  1  0  0  0  0
 19  1  1  0  0  0  0
 19  8  1  0  0  0  0
 20 13  1  0  0  0  0
 20  6  1  0  0  0  0
 21  7  1  0  0  0  0
 21  5  2  0  0  0  0
 22 20  2  0  0  0  0
 23 24  2  0  0  0  0
 25 29  1  0  0  0  0
 26 28  1  0  0  0  0
 27 23  1  6  0  0  0
 27 25  1  0  0  0  0
 27 26  1  0  0  0  0
 28 30  1  0  0  0  0
 29 28  1  0  0  0  0
 30 31  1  0  0  0  0
 31 32  1  0  0  0  0
 33 35  1  0  0  0  0
 34 36  1  6  0  0  0
 34 32  1  0  0  0  0
 34 33  1  0  0  0  0
 34 35  1  0  0  0  0
 37 38  3  0  0  0  0
 38 13  1  0  0  0  0
M  END
>  <MODEL>
7

>  <REMARK>
 VINA RESULT:      -7.2      2.829      7.346
  Name = 
  7 active torsions:
  status: ('A' for Active; 'I' for Inactive)
    1  A    between atoms: C_3  and  C_14
    2  A    between atoms: C_13  and  O_34
    3  A    between atoms: C_14  and  C_17
    4  A    between atoms: C_15  and  C_29
    5  A    between atoms: C_15  and  N_36
    6  A    between atoms: C_21  and  C_33
    7  A    between atoms: C_29  and  O_34
                            x       y       z     vdW  Elec       q    Type
                         _______ _______ _______ _____ _____    ______ ____

>  <TORSDO>
F 7

$$$$
=
 OpenBabel10222416263D

 38 44  0  0  1  0  0  0  0  0999 V2000
  182.0240  179.8940  138.2380 C   0  0  0  0  0  2  0  0  0  0  0  0
  185.6810  177.6890  137.9710 C   0  0  1  0  0  3  0  0  0  0  0  0
  187.4300  177.7520  139.7610 C   0  0  0  0  0  3  0  0  0  0  0  0
  181.8830  178.4100  137.8970 C   0  0  2  0  0  3  0  0  0  0  0  0
  191.3560  177.0320  142.0970 C   0  0  0  0  0  3  0  0  0  0  0  0
  188.0310  178.3870  140.9690 C   0  0  0  0  0  0  0  0  0  0  0  0
  189.4520  177.9210  141.1310 C   0  0  0  0  0  0  0  0  0  0  0  0
  184.2770  179.3390  139.0250 N   0  0  0  0  0  0  0  0  0  0  0  0
  185.1500  179.1970  141.2750 C   0  0  0  0  0  3  0  0  0  0  0  0
  185.2830  178.9800  139.9590 C   0  0  0  0  0  0  0  0  0  0  0  0
  190.4500  178.0520  140.1370 N   0  0  0  0  0  0  0  0  0  0  0  0
  186.2160  178.0750  139.3180 C   0  0  0  0  0  0  0  0  0  0  0  0
  187.8050  177.5360  143.4230 C   0  0  0  0  0  0  0  0  0  0  0  0
  183.2050  177.7460  137.4750 C   0  0  0  0  0  2  0  0  0  0  0  0
  191.6880  177.5010  140.6740 C   0  0  0  0  0  3  0  0  0  0  0  0
  189.0860  177.1580  143.4190 C   0  0  0  0  0  3  0  0  0  0  0  0
  180.9340  178.2450  136.8890 O   0  0  0  0  0  1  0  0  0  0  0  0
  184.4480  178.5910  137.7780 C   0  0  2  0  0  3  0  0  0  0  0  0
  183.0530  180.0700  139.3500 C   0  0  0  0  0  2  0  0  0  0  0  0
  187.1930  178.1680  142.2180 C   0  0  0  0  0  0  0  0  0  0  0  0
  189.9150  177.3690  142.2290 C   0  0  0  0  0  0  0  0  0  0  0  0
  185.9730  178.6170  142.3040 N   0  0  0  0  0  0  0  0  0  0  0  0
  186.6820  177.9310  136.8780 C   0  0  0  0  0  0  0  0  0  0  0  0
  187.2050  179.0310  136.7450 O   0  0  0  0  0  0  0  0  0  0  0  0
  188.2600  177.1400  135.1300 C   0  0  0  0  0  2  0  0  0  0  0  0
  187.4670  175.5860  136.7910 C   0  0  0  0  0  2  0  0  0  0  0  0
  187.0600  176.7960  135.9780 C   0  0  1  0  0  3  0  0  0  0  0  0
  188.6430  175.0030  136.1590 N   0  0  0  0  0  0  0  0  0  0  0  0
  189.3090  176.1070  135.4820 C   0  0  0  0  0  2  0  0  0  0  0  0
  189.5330  174.5630  137.2210 C   0  0  0  0  0  2  0  0  0  0  0  0
  190.7080  175.5170  137.3490 C   0  0  0  0  0  2  0  0  0  0  0  0
  191.7790  174.8670  137.9720 O   0  0  0  0  0  0  0  0  0  0  0  0
  193.5330  176.3600  137.8880 O   0  0  0  0  0  0  0  0  0  0  0  0
  192.9320  175.2490  137.2720 C   0  0  1  0  0  0  0  0  0  0  0  0
  194.2360  175.1410  137.9630 C   0  0  0  0  0  2  0  0  0  0  0  0
  192.8620  175.4400  135.7670 C   0  0  0  0  0  1  0  0  0  0  0  0
  186.4040  177.1360  145.5720 N   0  0  0  0  0  0  0  0  0  0  0  0
  187.0280  177.3140  144.6150 C   0  0  0  0  0  0  0  0  0  0  0  0
  1 19  1  0  0  0  0
  2 23  1  6  0  0  0
  2 12  1  0  0  0  0
  3  6  1  0  0  0  0
  4 17  1  6  0  0  0
  4  1  1  0  0  0  0
  5 21  2  0  0  0  0
  6  7  2  0  0  0  0
  6 20  1  0  0  0  0
  7 21  1  0  0  0  0
  8 19  1  0  0  0  0
  8 10  1  0  0  0  0
  9 22  1  0  0  0  0
 10  9  2  0  0  0  0
 11 15  2  0  0  0  0
 11  7  1  0  0  0  0
 12  3  2  0  0  0  0
 12 10  1  0  0  0  0
 13 38  1  0  0  0  0
 14  4  1  0  0  0  0
 15  5  1  0  0  0  0
 16 13  2  0  0  0  0
 18 14  1  1  0  0  0
 18  2  1  0  0  0  0
 18  8  1  0  0  0  0
 20 22  2  0  0  0  0
 20 13  1  0  0  0  0
 21 16  1  0  0  0  0
 24 23  2  0  0  0  0
 25 29  1  0  0  0  0
 25 27  1  0  0  0  0
 27 26  1  0  0  0  0
 27 23  1  1  0  0  0
 28 26  1  0  0  0  0
 28 30  1  0  0  0  0
 29 28  1  0  0  0  0
 30 31  1  0  0  0  0
 31 32  1  0  0  0  0
 33 35  1  0  0  0  0
 34 36  1  6  0  0  0
 34 33  1  0  0  0  0
 34 35  1  0  0  0  0
 34 32  1  0  0  0  0
 38 37  3  0  0  0  0
M  END
>  <MODEL>
8

>  <REMARK>
 VINA RESULT:      -7.1      2.735      8.466
  Name = 
  7 active torsions:
  status: ('A' for Active; 'I' for Inactive)
    1  A    between atoms: C_3  and  C_14
    2  A    between atoms: C_13  and  O_34
    3  A    between atoms: C_14  and  C_17
    4  A    between atoms: C_15  and  C_29
    5  A    between atoms: C_15  and  N_36
    6  A    between atoms: C_21  and  C_33
    7  A    between atoms: C_29  and  O_34
                            x       y       z     vdW  Elec       q    Type
                         _______ _______ _______ _____ _____    ______ ____

>  <TORSDO>
F 7

$$$$
=
 OpenBabel10222416263D

 38 44  0  0  1  0  0  0  0  0999 V2000
  187.1020  178.2310  135.8450 C   0  0  0  0  0  2  0  0  0  0  0  0
  189.5460  176.4300  138.8590 C   0  0  1  0  0  3  0  0  0  0  0  0
  189.4590  177.1240  141.2630 C   0  0  0  0  0  3  0  0  0  0  0  0
  187.0830  176.7030  135.8900 C   0  0  2  0  0  3  0  0  0  0  0  0
  190.3760  177.4330  145.7850 C   0  0  0  0  0  3  0  0  0  0  0  0
  189.0690  178.1020  142.3200 C   0  0  0  0  0  0  0  0  0  0  0  0
  189.8720  177.8450  143.5660 C   0  0  0  0  0  0  0  0  0  0  0  0
  188.0120  178.1330  138.1170 N   0  0  0  0  0  0  0  0  0  0  0  0
  186.9710  178.6530  140.2370 C   0  0  0  0  0  3  0  0  0  0  0  0
  187.9850  178.1290  139.5360 C   0  0  0  0  0  0  0  0  0  0  0  0
  191.2850  177.8270  143.6120 N   0  0  0  0  0  0  0  0  0  0  0  0
  188.9840  177.1960  140.0200 C   0  0  0  0  0  0  0  0  0  0  0  0
  187.0500  177.8750  143.9520 C   0  0  0  0  0  0  0  0  0  0  0  0
  188.2170  176.0980  136.7380 C   0  0  0  0  0  2  0  0  0  0  0  0
  191.6830  177.5630  144.9890 C   0  0  0  0  0  3  0  0  0  0  0  0
  187.8860  177.6460  144.9690 C   0  0  0  0  0  3  0  0  0  0  0  0
  187.1420  176.1910  134.5950 O   0  0  0  0  0  1  0  0  0  0  0  0
  188.9430  177.1190  137.6200 C   0  0  2  0  0  3  0  0  0  0  0  0
  187.0230  178.7890  137.2630 C   0  0  0  0  0  2  0  0  0  0  0  0
  187.5710  178.1160  142.5760 C   0  0  0  0  0  0  0  0  0  0  0  0
  189.3350  177.6380  144.7460 C   0  0  0  0  0  0  0  0  0  0  0  0
  186.7250  178.4410  141.6390 N   0  0  0  0  0  0  0  0  0  0  0  0
  191.0460  176.4950  138.8160 C   0  0  0  0  0  0  0  0  0  0  0  0
  191.6390  177.4820  139.2330 O   0  0  0  0  0  0  0  0  0  0  0  0
  190.9730  174.5090  137.3260 C   0  0  0  0  0  2  0  0  0  0  0  0
  193.0160  175.7730  137.5050 C   0  0  0  0  0  2  0  0  0  0  0  0
  191.8060  175.3170  138.2910 C   0  0  1  0  0  3  0  0  0  0  0  0
  193.1080  174.9420  136.3120 N   0  0  0  0  0  0  0  0  0  0  0  0
  191.7430  174.5230  136.0230 C   0  0  0  0  0  2  0  0  0  0  0  0
  193.5250  175.8010  135.2150 C   0  0  0  0  0  2  0  0  0  0  0  0
  195.0120  175.6300  134.9520 C   0  0  0  0  0  2  0  0  0  0  0  0
  195.7370  175.9740  136.0990 O   0  0  0  0  0  0  0  0  0  0  0  0
  197.8150  175.6280  137.0320 O   0  0  0  0  0  0  0  0  0  0  0  0
  196.8670  175.1460  136.1140 C   0  0  1  0  0  0  0  0  0  0  0  0
  197.1800  174.4130  137.3600 C   0  0  0  0  0  2  0  0  0  0  0  0
  197.5340  174.7700  134.8010 C   0  0  0  0  0  1  0  0  0  0  0  0
  184.4970  177.8810  144.4290 N   0  0  0  0  0  0  0  0  0  0  0  0
  185.6340  177.8780  144.2160 C   0  0  0  0  0  0  0  0  0  0  0  0
  1  4  1  0  0  0  0
  1 19  1  0  0  0  0
  2 23  1  6  0  0  0
  2 12  1  0  0  0  0
  3  6  1  0  0  0  0
  4 17  1  6  0  0  0
  4 14  1  0  0  0  0
  6 20  1  0  0  0  0
  6  7  2  0  0  0  0
  7 11  1  0  0  0  0
  7 21  1  0  0  0  0
  8 10  1  0  0  0  0
  9 22  1  0  0  0  0
 10 12  1  0  0  0  0
 10  9  2  0  0  0  0
 11 15  2  0  0  0  0
 12  3  2  0  0  0  0
 13 38  1  0  0  0  0
 13 16  2  0  0  0  0
 15  5  1  0  0  0  0
 18 14  1  6  0  0  0
 18  8  1  0  0  0  0
 18  2  1  0  0  0  0
 19  8  1  0  0  0  0
 20 13  1  0  0  0  0
 21 16  1  0  0  0  0
 21  5  2  0  0  0  0
 22 20  2  0  0  0  0
 23 24  2  0  0  0  0
 25 27  1  0  0  0  0
 26 27  1  0  0  0  0
 27 23  1  6  0  0  0
 28 26  1  0  0  0  0
 29 28  1  0  0  0  0
 29 25  1  0  0  0  0
 30 28  1  0  0  0  0
 31 30  1  0  0  0  0
 31 32  1  0  0  0  0
 32 34  1  0  0  0  0
 33 35  1  0  0  0  0
 34 36  1  6  0  0  0
 34 33  1  0  0  0  0
 34 35  1  0  0  0  0
 38 37  3  0  0  0  0
M  END
>  <MODEL>
9

>  <REMARK>
 VINA RESULT:      -7.0      3.718      9.864
  Name = 
  7 active torsions:
  status: ('A' for Active; 'I' for Inactive)
    1  A    between atoms: C_3  and  C_14
    2  A    between atoms: C_13  and  O_34
    3  A    between atoms: C_14  and  C_17
    4  A    between atoms: C_15  and  C_29
    5  A    between atoms: C_15  and  N_36
    6  A    between atoms: C_21  and  C_33
    7  A    between atoms: C_29  and  O_34
                            x       y       z     vdW  Elec       q    Type
                         _______ _______ _______ _____ _____    ______ ____

>  <TORSDO>
F 7

$$$$
