=
 OpenBabel10222415213D

 60 69  0  0  1  0  0  0  0  0999 V2000
  187.7300  177.9240  142.5080 C   0  0  1  0  0  3  0  0  0  0  0  0
  188.2710  178.0110  143.9000 C   0  0  0  0  0  0  0  0  0  0  0  0
  191.4750  177.4670  145.6240 C   0  0  0  0  0  2  0  0  0  0  0  0
  187.8520  177.9710  146.3190 C   0  0  0  0  0  2  0  0  0  0  0  0
  191.2410  176.5770  146.5800 C   0  0  0  0  0  0  0  0  0  0  0  0
  189.2410  175.8520  147.8900 F   0  0  0  0  0  0  0  0  0  0  0  0
  189.3220  177.7350  146.4410 C   0  0  1  0  0  3  0  0  0  0  0  0
  187.4500  177.8970  144.9100 N   0  0  0  0  0  0  0  0  0  0  0  0
  189.8890  176.7300  147.0830 C   0  0  0  0  0  0  0  0  0  0  0  0
  190.2580  178.3320  145.4500 C   0  0  2  0  0  3  0  0  0  0  0  0
  192.2020  175.5240  147.0020 C   0  0  0  0  0  1  0  0  0  0  0  0
  189.6910  178.1610  144.1160 N   0  0  0  0  0  2  0  0  0  0  0  0
  188.4190  176.7910  141.7590 C   0  0  0  0  0  2  0  0  0  0  0  0
  189.0160  177.2880  140.4830 C   0  0  0  0  0  0  0  0  0  0  0  0
  190.6910  176.9000  140.0180 S   0  0  0  0  0  0  0  0  0  0  0  0
  189.0030  178.2430  138.3930 C   0  0  0  0  0  2  0  0  0  0  0  0
  188.3150  177.9010  139.6060 N   0  0  0  0  0  0  0  0  0  0  0  0
  190.2450  177.3630  138.3100 C   0  0  2  0  0  3  0  0  0  0  0  0
  189.9350  176.1670  137.5410 N   0  0  0  0  0  2  0  0  0  0  0  0
  191.8820  174.8030  137.0770 C   0  0  0  0  0  3  0  0  0  0  0  0
  190.8940  175.6490  135.2240 C   0  0  0  0  0  3  0  0  0  0  0  0
  190.8790  175.5490  136.6670 C   0  0  0  0  0  0  0  0  0  0  0  0
  191.8940  174.9770  134.7630 N   0  0  0  0  0  0  0  0  0  0  0  0
  192.6440  174.3610  135.8570 C   0  0  1  0  0  3  0  0  0  0  0  0
  194.1000  174.8740  135.8700 C   0  0  2  0  0  3  0  0  0  0  0  0
  196.8360  173.1760  137.7940 C   0  0  1  0  0  3  0  0  0  0  0  0
  194.8780  171.7890  137.3670 C   0  0  0  0  0  2  0  0  0  0  0  0
  195.5810  173.0750  136.9570 C   0  0  1  0  0  3  0  0  0  0  0  0
  197.8400  172.1900  137.2180 C   0  0  0  0  0  2  0  0  0  0  0  0
  198.2090  175.1690  137.9660 O   0  0  0  0  0  0  0  0  0  0  0  0
  195.8530  170.6290  137.2130 C   0  0  0  0  0  3  0  0  0  0  0  0
  195.9560  175.3150  137.3880 O   0  0  0  0  0  0  0  0  0  0  0  0
  194.8700  174.4240  137.1350 C   0  0  1  0  0  3  0  0  0  0  0  0
  197.1990  170.8080  137.1850 C   0  0  0  0  0  3  0  0  0  0  0  0
  197.1070  174.6180  137.7030 C   0  0  0  0  0  0  0  0  0  0  0  0
  195.2960  176.8630  134.8470 C   0  0  0  0  0  1  0  0  0  0  0  0
  194.1520  177.0590  136.9410 O   0  0  0  0  0  1  0  0  0  0  0  0
  194.1320  176.4080  135.7060 C   0  0  2  0  0  3  0  0  0  0  0  0
  186.3480  177.7060  142.5310 O   0  0  0  0  0  0  0  0  0  0  0  0
  185.7900  178.8380  141.9370 C   0  0  0  0  0  2  0  0  0  0  0  0
  184.2950  178.6360  141.7940 C   0  0  0  0  0  2  0  0  0  0  0  0
  185.6230  174.6740  136.7110 C   0  0  1  0  0  3  0  0  0  0  0  0
  182.6140  177.2390  139.0590 C   0  0  0  0  0  3  0  0  0  0  0  0
  186.4810  172.6090  136.7570 O   0  0  0  0  0  0  0  0  0  0  0  0
  184.1080  172.9320  137.2480 C   0  0  0  0  0  0  0  0  0  0  0  0
  183.7950  171.7360  137.0030 O   0  0  0  0  0  0  0  0  0  0  0  0
  184.7130  179.8530  139.7620 O   0  0  0  0  0  0  0  0  0  0  0  0
  186.0690  177.5310  136.6350 O   0  0  0  0  0  0  0  0  0  0  0  0
  185.2080  179.3310  138.5930 N   0  0  0  0  0  2  0  0  0  0  0  0
  183.8600  178.8890  140.3620 C   0  0  1  0  0  3  0  0  0  0  0  0
  185.2380  177.1120  137.4860 C   0  0  0  0  0  0  0  0  0  0  0  0
  183.4910  175.3060  137.7270 C   0  0  0  0  0  0  0  0  0  0  0  0
  185.5210  173.3700  137.3930 C   0  0  2  0  0  3  0  0  0  0  0  0
  187.4860  173.5770  136.4890 C   0  0  0  0  0  2  0  0  0  0  0  0
  184.7940  178.0000  138.5160 N   0  0  0  0  0  0  0  0  0  0  0  0
  184.7650  175.7050  137.4100 C   0  0  0  0  0  0  0  0  0  0  0  0
  183.1060  173.9300  137.4920 N   0  0  0  0  0  2  0  0  0  0  0  0
  186.9880  174.8940  136.6700 O   0  0  0  0  0  0  0  0  0  0  0  0
  183.9550  177.6110  139.5910 C   0  0  2  0  0  3  0  0  0  0  0  0
  182.4330  176.2000  138.2460 C   0  0  0  0  0  3  0  0  0  0  0  0
  1 13  1  1  0  0  0
  1 39  1  0  0  0  0
  1  2  1  0  0  0  0
  2 12  1  0  0  0  0
  2  8  2  0  0  0  0
  3  5  1  0  0  0  0
  5 11  1  0  0  0  0
  5  9  2  0  0  0  0
  7  4  1  6  0  0  0
  7  9  1  0  0  0  0
  8  4  1  0  0  0  0
  9  6  1  0  0  0  0
 10  3  1  6  0  0  0
 10  7  1  0  0  0  0
 12 10  1  0  0  0  0
 14 13  1  0  0  0  0
 15 14  1  0  0  0  0
 16 17  1  0  0  0  0
 17 14  2  0  0  0  0
 18 19  1  6  0  0  0
 18 16  1  0  0  0  0
 18 15  1  0  0  0  0
 21 22  1  0  0  0  0
 22 20  2  0  0  0  0
 22 19  1  0  0  0  0
 23 21  2  0  0  0  0
 23 24  1  0  0  0  0
 24 25  1  1  0  0  0
 24 20  1  0  0  0  0
 25 38  1  1  0  0  0
 26 29  1  6  0  0  0
 28 33  1  0  0  0  0
 28 27  1  1  0  0  0
 28 26  1  0  0  0  0
 31 27  1  0  0  0  0
 32 35  1  0  0  0  0
 33 25  1  6  0  0  0
 33 32  1  0  0  0  0
 34 31  2  0  0  0  0
 34 29  1  0  0  0  0
 35 26  1  0  0  0  0
 35 30  2  0  0  0  0
 38 36  1  6  0  0  0
 38 37  1  0  0  0  0
 40 39  1  0  0  0  0
 41 40  1  0  0  0  0
 42 58  1  1  0  0  0
 42 53  1  0  0  0  0
 42 56  1  0  0  0  0
 45 53  1  0  0  0  0
 45 57  1  0  0  0  0
 46 45  2  0  0  0  0
 47 50  1  0  0  0  0
 48 51  2  0  0  0  0
 49 47  1  0  0  0  0
 50 41  1  1  0  0  0
 51 55  1  0  0  0  0
 52 60  1  0  0  0  0
 53 44  1  6  0  0  0
 54 58  1  0  0  0  0
 54 44  1  0  0  0  0
 55 49  1  0  0  0  0
 55 59  1  0  0  0  0
 56 51  1  0  0  0  0
 56 52  2  0  0  0  0
 57 52  1  0  0  0  0
 59 43  1  6  0  0  0
 59 50  1  0  0  0  0
 60 43  2  0  0  0  0
M  END
>  <MODEL>
1

>  <REMARK>
 VINA RESULT:      -9.9      0.000      0.000
  Name = 
  12 active torsions:
  status: ('A' for Active; 'I' for Inactive)
    1  A    between atoms: N_3  and  C_34
    2  A    between atoms: N_3  and  C_44
    3  A    between atoms: C_8  and  C_13
    4  A    between atoms: C_9  and  C_19
    5  A    between atoms: C_13  and  C_19
    6  A    between atoms: C_13  and  O_57
    7  A    between atoms: C_23  and  C_27
    8  A    between atoms: C_23  and  C_60
    9  A    between atoms: C_29  and  C_51
   10  A    between atoms: C_29  and  C_55
   11  A    between atoms: C_29  and  C_56
   12  A    between atoms: O_57  and  C_60
                            x       y       z     vdW  Elec       q    Type
                         _______ _______ _______ _____ _____    ______ ____

>  <TORSDO>
F 12

$$$$
=
 OpenBabel10222415213D

 60 69  0  0  1  0  0  0  0  0999 V2000
  190.9520  174.2970  137.5040 C   0  0  1  0  0  3  0  0  0  0  0  0
  192.1840  174.0660  136.6850 C   0  0  0  0  0  0  0  0  0  0  0  0
  194.3520  171.2460  135.7480 C   0  0  0  0  0  2  0  0  0  0  0  0
  194.2390  174.9670  135.6900 C   0  0  0  0  0  2  0  0  0  0  0  0
  195.5810  171.5750  136.1260 C   0  0  0  0  0  0  0  0  0  0  0  0
  196.8070  173.7130  136.5390 F   0  0  0  0  0  0  0  0  0  0  0  0
  194.6490  173.5380  135.5550 C   0  0  1  0  0  3  0  0  0  0  0  0
  193.0050  175.0610  136.4780 N   0  0  0  0  0  0  0  0  0  0  0  0
  195.7660  173.0100  136.0230 C   0  0  0  0  0  0  0  0  0  0  0  0
  193.6240  172.4870  135.3120 C   0  0  2  0  0  3  0  0  0  0  0  0
  196.5810  170.6140  136.6600 C   0  0  0  0  0  1  0  0  0  0  0  0
  192.4800  172.7460  136.1820 N   0  0  0  0  0  2  0  0  0  0  0  0
  190.3160  175.6230  137.1120 C   0  0  0  0  0  2  0  0  0  0  0  0
  190.4780  176.6300  138.2040 C   0  0  0  0  0  0  0  0  0  0  0  0
  189.2380  177.8660  138.5290 S   0  0  0  0  0  0  0  0  0  0  0  0
  191.4250  177.5530  140.0830 C   0  0  0  0  0  2  0  0  0  0  0  0
  191.4470  176.5690  139.0360 N   0  0  0  0  0  0  0  0  0  0  0  0
  190.0020  178.0920  140.1720 C   0  0  2  0  0  3  0  0  0  0  0  0
  189.2620  177.3310  141.1670 N   0  0  0  0  0  2  0  0  0  0  0  0
  189.2720  176.4010  143.4040 C   0  0  0  0  0  3  0  0  0  0  0  0
  190.3220  178.4000  143.2390 C   0  0  0  0  0  3  0  0  0  0  0  0
  189.5970  177.3520  142.5550 C   0  0  0  0  0  0  0  0  0  0  0  0
  190.4320  178.0940  144.4870 N   0  0  0  0  0  0  0  0  0  0  0  0
  189.7910  176.8080  144.7570 C   0  0  1  0  0  3  0  0  0  0  0  0
  188.6510  176.9760  145.7840 C   0  0  2  0  0  3  0  0  0  0  0  0
  185.6270  179.1810  145.5460 C   0  0  1  0  0  3  0  0  0  0  0  0
  186.3710  178.2400  143.4250 C   0  0  0  0  0  2  0  0  0  0  0  0
  186.5080  178.1160  144.9360 C   0  0  1  0  0  3  0  0  0  0  0  0
  184.1890  178.6990  145.4210 C   0  0  0  0  0  2  0  0  0  0  0  0
  185.6820  179.8280  147.8840 O   0  0  0  0  0  0  0  0  0  0  0  0
  184.8960  178.1460  143.0590 C   0  0  0  0  0  3  0  0  0  0  0  0
  187.5400  178.8560  146.8680 O   0  0  0  0  0  0  0  0  0  0  0  0
  187.8810  178.3050  145.5950 C   0  0  1  0  0  3  0  0  0  0  0  0
  183.9070  178.3920  143.9560 C   0  0  0  0  0  3  0  0  0  0  0  0
  186.2320  179.3040  146.8790 C   0  0  0  0  0  0  0  0  0  0  0  0
  190.6410  176.3780  147.2390 C   0  0  0  0  0  1  0  0  0  0  0  0
  188.4020  175.9880  147.9950 O   0  0  0  0  0  1  0  0  0  0  0  0
  189.1960  176.8380  147.2210 C   0  0  2  0  0  3  0  0  0  0  0  0
  190.0360  173.2570  137.3150 O   0  0  0  0  0  0  0  0  0  0  0  0
  189.4470  173.5100  136.0760 C   0  0  0  0  0  2  0  0  0  0  0  0
  187.9920  173.0880  136.1230 C   0  0  0  0  0  2  0  0  0  0  0  0
  183.2800  177.1710  138.2290 C   0  0  1  0  0  3  0  0  0  0  0  0
  186.9570  176.3880  135.5820 C   0  0  0  0  0  3  0  0  0  0  0  0
  182.8090  177.7680  140.3330 O   0  0  0  0  0  0  0  0  0  0  0  0
  184.6830  178.8300  139.1770 C   0  0  0  0  0  0  0  0  0  0  0  0
  184.7110  179.8330  139.9400 O   0  0  0  0  0  0  0  0  0  0  0  0
  186.1320  173.2110  134.6030 O   0  0  0  0  0  0  0  0  0  0  0  0
  182.8910  175.3160  136.0440 O   0  0  0  0  0  0  0  0  0  0  0  0
  184.9220  173.8100  134.8510 N   0  0  0  0  0  2  0  0  0  0  0  0
  187.1520  173.9790  135.2260 C   0  0  1  0  0  3  0  0  0  0  0  0
  184.0830  175.6290  136.3130 C   0  0  0  0  0  0  0  0  0  0  0  0
  185.4030  177.6280  137.1080 C   0  0  0  0  0  0  0  0  0  0  0  0
  183.8960  177.6100  139.4960 C   0  0  2  0  0  3  0  0  0  0  0  0
  181.9500  176.7260  139.8900 C   0  0  0  0  0  2  0  0  0  0  0  0
  185.1470  174.8640  135.7380 N   0  0  0  0  0  0  0  0  0  0  0  0
  184.3470  176.7630  137.2370 C   0  0  0  0  0  0  0  0  0  0  0  0
  185.4890  178.7730  137.9910 N   0  0  0  0  0  2  0  0  0  0  0  0
  182.3820  176.2030  138.6430 O   0  0  0  0  0  0  0  0  0  0  0  0
  186.5160  175.0480  136.0560 C   0  0  2  0  0  3  0  0  0  0  0  0
  186.4600  177.5200  136.0770 C   0  0  0  0  0  3  0  0  0  0  0  0
  1 13  1  6  0  0  0
  2  1  1  0  0  0  0
  3  5  1  0  0  0  0
  4  8  1  0  0  0  0
  5 11  1  0  0  0  0
  7  4  1  1  0  0  0
  7  9  1  0  0  0  0
  8  2  2  0  0  0  0
  9  5  2  0  0  0  0
  9  6  1  0  0  0  0
 10  7  1  0  0  0  0
 10  3  1  1  0  0  0
 10 12  1  0  0  0  0
 12  2  1  0  0  0  0
 13 14  1  0  0  0  0
 14 15  1  0  0  0  0
 14 17  2  0  0  0  0
 15 18  1  0  0  0  0
 16 18  1  0  0  0  0
 17 16  1  0  0  0  0
 18 19  1  1  0  0  0
 19 22  1  0  0  0  0
 20 24  1  0  0  0  0
 21 23  2  0  0  0  0
 22 21  1  0  0  0  0
 22 20  2  0  0  0  0
 23 24  1  0  0  0  0
 24 25  1  1  0  0  0
 25 38  1  1  0  0  0
 26 29  1  1  0  0  0
 26 35  1  0  0  0  0
 28 27  1  6  0  0  0
 28 26  1  0  0  0  0
 28 33  1  0  0  0  0
 31 27  1  0  0  0  0
 31 34  2  0  0  0  0
 32 35  1  0  0  0  0
 33 25  1  1  0  0  0
 33 32  1  0  0  0  0
 34 29  1  0  0  0  0
 35 30  2  0  0  0  0
 38 36  1  6  0  0  0
 38 37  1  0  0  0  0
 39  1  1  0  0  0  0
 40 41  1  0  0  0  0
 40 39  1  0  0  0  0
 42 56  1  6  0  0  0
 42 58  1  0  0  0  0
 42 53  1  0  0  0  0
 43 60  2  0  0  0  0
 45 46  2  0  0  0  0
 47 49  1  0  0  0  0
 47 50  1  0  0  0  0
 48 51  2  0  0  0  0
 49 55  1  0  0  0  0
 50 59  1  0  0  0  0
 50 41  1  1  0  0  0
 51 56  1  0  0  0  0
 52 56  2  0  0  0  0
 52 57  1  0  0  0  0
 53 45  1  6  0  0  0
 53 44  1  0  0  0  0
 54 44  1  0  0  0  0
 55 59  1  0  0  0  0
 55 51  1  0  0  0  0
 57 45  1  0  0  0  0
 58 54  1  0  0  0  0
 59 43  1  6  0  0  0
 60 52  1  0  0  0  0
M  END
>  <MODEL>
2

>  <REMARK>
 VINA RESULT:      -9.2      2.946      9.716
  Name = 
  12 active torsions:
  status: ('A' for Active; 'I' for Inactive)
    1  A    between atoms: N_3  and  C_34
    2  A    between atoms: N_3  and  C_44
    3  A    between atoms: C_8  and  C_13
    4  A    between atoms: C_9  and  C_19
    5  A    between atoms: C_13  and  C_19
    6  A    between atoms: C_13  and  O_57
    7  A    between atoms: C_23  and  C_27
    8  A    between atoms: C_23  and  C_60
    9  A    between atoms: C_29  and  C_51
   10  A    between atoms: C_29  and  C_55
   11  A    between atoms: C_29  and  C_56
   12  A    between atoms: O_57  and  C_60
                            x       y       z     vdW  Elec       q    Type
                         _______ _______ _______ _____ _____    ______ ____

>  <TORSDO>
F 12

$$$$
=
 OpenBabel10222415213D

 60 69  0  0  1  0  0  0  0  0999 V2000
  190.6100  176.8690  139.3760 C   0  0  1  0  0  3  0  0  0  0  0  0
  190.6130  176.7920  140.8710 C   0  0  0  0  0  0  0  0  0  0  0  0
  188.1860  176.2540  143.5830 C   0  0  0  0  0  2  0  0  0  0  0  0
  191.6860  177.3800  142.9990 C   0  0  0  0  0  2  0  0  0  0  0  0
  188.2870  177.3010  144.3910 C   0  0  0  0  0  0  0  0  0  0  0  0
  190.0650  178.9730  144.9280 F   0  0  0  0  0  0  0  0  0  0  0  0
  190.3760  177.0160  143.6150 C   0  0  1  0  0  3  0  0  0  0  0  0
  191.5660  177.3870  141.5360 N   0  0  0  0  0  0  0  0  0  0  0  0
  189.6530  177.7920  144.4010 C   0  0  0  0  0  0  0  0  0  0  0  0
  189.5400  175.9420  143.0110 C   0  0  2  0  0  3  0  0  0  0  0  0
  187.1430  177.9260  145.1050 C   0  0  0  0  0  1  0  0  0  0  0  0
  189.5410  176.1150  141.5610 N   0  0  0  0  0  2  0  0  0  0  0  0
  190.1950  178.2670  138.9360 C   0  0  0  0  0  2  0  0  0  0  0  0
  188.9640  178.2100  138.0910 C   0  0  0  0  0  0  0  0  0  0  0  0
  187.6450  177.0630  138.4330 S   0  0  0  0  0  0  0  0  0  0  0  0
  187.4790  178.9380  136.4950 C   0  0  0  0  0  2  0  0  0  0  0  0
  188.7420  179.0660  137.1670 N   0  0  0  0  0  0  0  0  0  0  0  0
  186.5680  178.1080  137.3930 C   0  0  2  0  0  3  0  0  0  0  0  0
  185.7840  178.9980  138.2350 N   0  0  0  0  0  2  0  0  0  0  0  0
  183.4400  178.4320  138.0080 C   0  0  0  0  0  3  0  0  0  0  0  0
  184.1730  178.4510  140.1490 C   0  0  0  0  0  3  0  0  0  0  0  0
  184.5040  178.6360  138.7530 C   0  0  0  0  0  0  0  0  0  0  0  0
  182.9260  178.1430  140.2520 N   0  0  0  0  0  0  0  0  0  0  0  0
  182.3010  178.0910  138.9300 C   0  0  1  0  0  3  0  0  0  0  0  0
  181.1540  179.1190  138.8330 C   0  0  2  0  0  3  0  0  0  0  0  0
  178.9470  176.7020  140.6650 C   0  0  1  0  0  3  0  0  0  0  0  0
  179.1840  176.2590  138.2800 C   0  0  0  0  0  2  0  0  0  0  0  0
  179.7780  177.0360  139.4470 C   0  0  1  0  0  3  0  0  0  0  0  0
  179.3470  175.3040  141.1110 C   0  0  0  0  0  2  0  0  0  0  0  0
  179.0670  177.8990  142.7720 O   0  0  0  0  0  0  0  0  0  0  0  0
  179.1400  174.7820  138.6480 C   0  0  0  0  0  3  0  0  0  0  0  0
  179.6940  178.9250  140.7760 O   0  0  0  0  0  0  0  0  0  0  0  0
  179.8230  178.5690  139.3990 C   0  0  1  0  0  3  0  0  0  0  0  0
  179.1750  174.3520  139.9340 C   0  0  0  0  0  3  0  0  0  0  0  0
  179.2570  177.8500  141.5280 C   0  0  0  0  0  0  0  0  0  0  0  0
  181.1120  181.1140  137.2670 C   0  0  0  0  0  1  0  0  0  0  0  0
  179.7860  179.1710  136.8200 O   0  0  0  0  0  1  0  0  0  0  0  0
  180.9900  179.6070  137.3780 C   0  0  2  0  0  3  0  0  0  0  0  0
  191.8780  176.5680  138.8670 O   0  0  0  0  0  0  0  0  0  0  0  0
  191.6560  176.1740  137.5470 C   0  0  0  0  0  2  0  0  0  0  0  0
  190.9070  174.8570  137.5430 C   0  0  0  0  0  2  0  0  0  0  0  0
  184.8470  172.9980  135.7720 C   0  0  1  0  0  3  0  0  0  0  0  0
  188.5990  175.5420  135.0010 C   0  0  0  0  0  3  0  0  0  0  0  0
  182.9680  173.0830  136.9820 O   0  0  0  0  0  0  0  0  0  0  0  0
  183.7990  175.1190  135.9140 C   0  0  0  0  0  0  0  0  0  0  0  0
  182.6860  175.7110  135.9550 O   0  0  0  0  0  0  0  0  0  0  0  0
  190.9250  173.1680  135.8300 O   0  0  0  0  0  0  0  0  0  0  0  0
  187.2250  171.5410  135.0040 O   0  0  0  0  0  0  0  0  0  0  0  0
  189.8430  172.4410  135.3990 N   0  0  0  0  0  2  0  0  0  0  0  0
  190.4920  174.4870  136.1300 C   0  0  1  0  0  3  0  0  0  0  0  0
  187.3830  172.7510  135.3230 C   0  0  0  0  0  0  0  0  0  0  0  0
  186.1670  174.9540  135.1330 C   0  0  0  0  0  0  0  0  0  0  0  0
  184.0620  173.8660  136.6690 C   0  0  2  0  0  3  0  0  0  0  0  0
  183.5430  171.7840  137.0170 C   0  0  0  0  0  2  0  0  0  0  0  0
  188.7080  173.2390  135.5560 N   0  0  0  0  0  0  0  0  0  0  0  0
  186.1910  173.6260  135.4730 C   0  0  0  0  0  0  0  0  0  0  0  0
  184.9130  175.6760  135.2020 N   0  0  0  0  0  2  0  0  0  0  0  0
  184.8370  171.7830  136.4320 O   0  0  0  0  0  0  0  0  0  0  0  0
  189.0010  174.5430  136.0290 C   0  0  2  0  0  3  0  0  0  0  0  0
  187.3320  175.7180  134.6320 C   0  0  0  0  0  3  0  0  0  0  0  0
  1 13  1  1  0  0  0
  1  2  1  0  0  0  0
  2  8  2  0  0  0  0
  2 12  1  0  0  0  0
  3  5  1  0  0  0  0
  5  9  2  0  0  0  0
  5 11  1  0  0  0  0
  7  4  1  6  0  0  0
  7  9  1  0  0  0  0
  8  4  1  0  0  0  0
  9  6  1  0  0  0  0
 10  3  1  1  0  0  0
 10  7  1  0  0  0  0
 12 10  1  0  0  0  0
 14 15  1  0  0  0  0
 14 13  1  0  0  0  0
 16 17  1  0  0  0  0
 16 18  1  0  0  0  0
 17 14  2  0  0  0  0
 18 19  1  1  0  0  0
 18 15  1  0  0  0  0
 19 22  1  0  0  0  0
 20 22  2  0  0  0  0
 20 24  1  0  0  0  0
 21 23  2  0  0  0  0
 22 21  1  0  0  0  0
 24 25  1  1  0  0  0
 24 23  1  0  0  0  0
 25 38  1  6  0  0  0
 26 29  1  1  0  0  0
 26 35  1  0  0  0  0
 27 31  1  0  0  0  0
 28 27  1  6  0  0  0
 28 26  1  0  0  0  0
 31 34  2  0  0  0  0
 32 35  1  0  0  0  0
 33 25  1  1  0  0  0
 33 28  1  0  0  0  0
 33 32  1  0  0  0  0
 34 29  1  0  0  0  0
 35 30  2  0  0  0  0
 37 38  1  0  0  0  0
 38 36  1  1  0  0  0
 39  1  1  0  0  0  0
 40 39  1  0  0  0  0
 41 40  1  0  0  0  0
 42 56  1  1  0  0  0
 42 58  1  0  0  0  0
 42 53  1  0  0  0  0
 44 54  1  0  0  0  0
 45 46  2  0  0  0  0
 47 50  1  0  0  0  0
 48 51  2  0  0  0  0
 49 55  1  0  0  0  0
 49 47  1  0  0  0  0
 50 41  1  1  0  0  0
 51 56  1  0  0  0  0
 51 55  1  0  0  0  0
 52 57  1  0  0  0  0
 52 56  2  0  0  0  0
 53 45  1  6  0  0  0
 53 44  1  0  0  0  0
 55 59  1  0  0  0  0
 57 45  1  0  0  0  0
 58 54  1  0  0  0  0
 59 43  1  6  0  0  0
 59 50  1  0  0  0  0
 60 43  2  0  0  0  0
 60 52  1  0  0  0  0
M  END
>  <MODEL>
3

>  <REMARK>
 VINA RESULT:      -9.2      3.443      9.630
  Name = 
  12 active torsions:
  status: ('A' for Active; 'I' for Inactive)
    1  A    between atoms: N_3  and  C_34
    2  A    between atoms: N_3  and  C_44
    3  A    between atoms: C_8  and  C_13
    4  A    between atoms: C_9  and  C_19
    5  A    between atoms: C_13  and  C_19
    6  A    between atoms: C_13  and  O_57
    7  A    between atoms: C_23  and  C_27
    8  A    between atoms: C_23  and  C_60
    9  A    between atoms: C_29  and  C_51
   10  A    between atoms: C_29  and  C_55
   11  A    between atoms: C_29  and  C_56
   12  A    between atoms: O_57  and  C_60
                            x       y       z     vdW  Elec       q    Type
                         _______ _______ _______ _____ _____    ______ ____

>  <TORSDO>
F 12

$$$$
=
 OpenBabel10222415213D

 60 69  0  0  1  0  0  0  0  0999 V2000
  189.8550  175.7630  136.5330 C   0  0  1  0  0  3  0  0  0  0  0  0
  191.2140  175.3150  136.0950 C   0  0  0  0  0  0  0  0  0  0  0  0
  194.0260  173.3780  137.4650 C   0  0  0  0  0  2  0  0  0  0  0  0
  193.1660  175.6520  134.6440 C   0  0  0  0  0  2  0  0  0  0  0  0
  195.0920  174.1650  137.3970 C   0  0  0  0  0  0  0  0  0  0  0  0
  195.7820  176.1160  135.9960 F   0  0  0  0  0  0  0  0  0  0  0  0
  193.8740  174.7530  135.6030 C   0  0  1  0  0  3  0  0  0  0  0  0
  191.8370  175.9900  135.1650 N   0  0  0  0  0  0  0  0  0  0  0  0
  194.9940  175.0380  136.2420 C   0  0  0  0  0  0  0  0  0  0  0  0
  193.1320  173.6610  136.2900 C   0  0  2  0  0  3  0  0  0  0  0  0
  196.1780  174.1980  138.4110 C   0  0  0  0  0  1  0  0  0  0  0  0
  191.8440  174.1850  136.7350 N   0  0  0  0  0  2  0  0  0  0  0  0
  189.8950  177.2410  136.9000 C   0  0  0  0  0  2  0  0  0  0  0  0
  189.5240  177.4390  138.3330 C   0  0  0  0  0  0  0  0  0  0  0  0
  189.4380  176.0750  139.4760 S   0  0  0  0  0  0  0  0  0  0  0  0
  189.1060  178.6430  140.2450 C   0  0  0  0  0  2  0  0  0  0  0  0
  189.3800  178.6060  138.8360 N   0  0  0  0  0  0  0  0  0  0  0  0
  189.5300  177.2990  140.8270 C   0  0  2  0  0  3  0  0  0  0  0  0
  190.8990  177.3960  141.3100 N   0  0  0  0  0  2  0  0  0  0  0  0
  191.2670  176.4090  143.4910 C   0  0  0  0  0  3  0  0  0  0  0  0
  191.5310  178.6570  143.4470 C   0  0  0  0  0  3  0  0  0  0  0  0
  191.2210  177.4580  142.6990 C   0  0  0  0  0  0  0  0  0  0  0  0
  191.7580  178.3430  144.6770 N   0  0  0  0  0  0  0  0  0  0  0  0
  191.6220  176.8990  144.8690 C   0  0  1  0  0  3  0  0  0  0  0  0
  190.5100  176.5920  145.8940 C   0  0  2  0  0  3  0  0  0  0  0  0
  187.2560  178.3560  146.4990 C   0  0  1  0  0  3  0  0  0  0  0  0
  187.8690  178.1270  144.1510 C   0  0  0  0  0  2  0  0  0  0  0  0
  188.1780  177.6210  145.5540 C   0  0  1  0  0  3  0  0  0  0  0  0
  185.8740  177.7380  146.3480 C   0  0  0  0  0  2  0  0  0  0  0  0
  187.4880  178.3550  148.9140 O   0  0  0  0  0  0  0  0  0  0  0  0
  186.3830  177.9380  143.8810 C   0  0  0  0  0  3  0  0  0  0  0  0
  189.3230  177.9470  147.5360 O   0  0  0  0  0  0  0  0  0  0  0  0
  189.5850  177.8080  146.1390 C   0  0  1  0  0  3  0  0  0  0  0  0
  185.4730  177.8010  144.8800 C   0  0  0  0  0  3  0  0  0  0  0  0
  187.9820  178.1970  147.7660 C   0  0  0  0  0  0  0  0  0  0  0  0
  192.5760  175.6790  147.0480 C   0  0  0  0  0  1  0  0  0  0  0  0
  190.3830  175.0070  147.7380 O   0  0  0  0  0  1  0  0  0  0  0  0
  191.1200  176.0710  147.2120 C   0  0  2  0  0  3  0  0  0  0  0  0
  188.9170  175.5520  135.5170 O   0  0  0  0  0  0  0  0  0  0  0  0
  188.2150  174.4090  135.9000 C   0  0  0  0  0  2  0  0  0  0  0  0
  186.9830  174.8240  136.6810 C   0  0  0  0  0  2  0  0  0  0  0  0
  181.4500  177.7190  138.7570 C   0  0  1  0  0  3  0  0  0  0  0  0
  185.9140  178.0020  137.6890 C   0  0  0  0  0  3  0  0  0  0  0  0
  180.1610  177.1490  140.4940 O   0  0  0  0  0  0  0  0  0  0  0  0
  182.2210  178.4060  140.8910 C   0  0  0  0  0  0  0  0  0  0  0  0
  181.8600  178.8290  142.0230 O   0  0  0  0  0  0  0  0  0  0  0  0
  185.8360  175.9900  134.9170 O   0  0  0  0  0  0  0  0  0  0  0  0
  182.1010  177.3990  135.9570 O   0  0  0  0  0  0  0  0  0  0  0  0
  184.5690  176.5160  134.9850 N   0  0  0  0  0  2  0  0  0  0  0  0
  186.4630  176.1600  136.1800 C   0  0  1  0  0  3  0  0  0  0  0  0
  183.0660  177.3580  136.7690 C   0  0  0  0  0  0  0  0  0  0  0  0
  183.7850  178.4210  138.9420 C   0  0  0  0  0  0  0  0  0  0  0  0
  181.4950  177.3230  140.1780 C   0  0  2  0  0  3  0  0  0  0  0  0
  179.6400  176.6330  139.2770 C   0  0  0  0  0  2  0  0  0  0  0  0
  184.3370  176.8880  136.3100 N   0  0  0  0  0  0  0  0  0  0  0  0
  182.8480  177.7710  138.1800 C   0  0  0  0  0  0  0  0  0  0  0  0
  183.4170  178.8890  140.2620 N   0  0  0  0  0  2  0  0  0  0  0  0
  180.5620  176.8090  138.2120 O   0  0  0  0  0  0  0  0  0  0  0  0
  185.4590  176.6880  137.1540 C   0  0  2  0  0  3  0  0  0  0  0  0
  185.1580  178.7440  138.4950 C   0  0  0  0  0  3  0  0  0  0  0  0
  1 13  1  6  0  0  0
  2  1  1  0  0  0  0
  2 12  1  0  0  0  0
  4  8  1  0  0  0  0
  5  3  1  0  0  0  0
  5 11  1  0  0  0  0
  6  9  1  0  0  0  0
  7  4  1  1  0  0  0
  7  9  1  0  0  0  0
  7 10  1  0  0  0  0
  8  2  2  0  0  0  0
  9  5  2  0  0  0  0
 10 12  1  0  0  0  0
 10  3  1  1  0  0  0
 13 14  1  0  0  0  0
 14 17  2  0  0  0  0
 14 15  1  0  0  0  0
 15 18  1  0  0  0  0
 16 18  1  0  0  0  0
 17 16  1  0  0  0  0
 18 19  1  6  0  0  0
 19 22  1  0  0  0  0
 20 24  1  0  0  0  0
 21 23  2  0  0  0  0
 22 21  1  0  0  0  0
 22 20  2  0  0  0  0
 23 24  1  0  0  0  0
 24 25  1  1  0  0  0
 25 38  1  1  0  0  0
 26 29  1  1  0  0  0
 26 35  1  0  0  0  0
 28 27  1  6  0  0  0
 28 33  1  0  0  0  0
 28 26  1  0  0  0  0
 31 27  1  0  0  0  0
 31 34  2  0  0  0  0
 32 35  1  0  0  0  0
 33 25  1  1  0  0  0
 33 32  1  0  0  0  0
 34 29  1  0  0  0  0
 35 30  2  0  0  0  0
 38 36  1  6  0  0  0
 38 37  1  0  0  0  0
 39 40  1  0  0  0  0
 39  1  1  0  0  0  0
 40 41  1  0  0  0  0
 42 56  1  6  0  0  0
 42 53  1  0  0  0  0
 43 60  2  0  0  0  0
 45 46  2  0  0  0  0
 47 49  1  0  0  0  0
 47 50  1  0  0  0  0
 48 51  2  0  0  0  0
 49 55  1  0  0  0  0
 50 41  1  1  0  0  0
 50 59  1  0  0  0  0
 51 56  1  0  0  0  0
 52 57  1  0  0  0  0
 53 44  1  1  0  0  0
 53 45  1  0  0  0  0
 54 44  1  0  0  0  0
 55 51  1  0  0  0  0
 55 59  1  0  0  0  0
 56 52  2  0  0  0  0
 57 45  1  0  0  0  0
 58 42  1  0  0  0  0
 58 54  1  0  0  0  0
 59 43  1  6  0  0  0
 60 52  1  0  0  0  0
M  END
>  <MODEL>
4

>  <REMARK>
 VINA RESULT:      -8.9      3.221      9.127
  Name = 
  12 active torsions:
  status: ('A' for Active; 'I' for Inactive)
    1  A    between atoms: N_3  and  C_34
    2  A    between atoms: N_3  and  C_44
    3  A    between atoms: C_8  and  C_13
    4  A    between atoms: C_9  and  C_19
    5  A    between atoms: C_13  and  C_19
    6  A    between atoms: C_13  and  O_57
    7  A    between atoms: C_23  and  C_27
    8  A    between atoms: C_23  and  C_60
    9  A    between atoms: C_29  and  C_51
   10  A    between atoms: C_29  and  C_55
   11  A    between atoms: C_29  and  C_56
   12  A    between atoms: O_57  and  C_60
                            x       y       z     vdW  Elec       q    Type
                         _______ _______ _______ _____ _____    ______ ____

>  <TORSDO>
F 12

$$$$
=
 OpenBabel10222415213D

 60 69  0  0  1  0  0  0  0  0999 V2000
  183.5850  177.0520  135.5020 C   0  0  1  0  0  3  0  0  0  0  0  0
  183.0100  175.6820  135.3300 C   0  0  0  0  0  0  0  0  0  0  0  0
  179.8140  173.9650  135.9400 C   0  0  0  0  0  2  0  0  0  0  0  0
  183.3790  173.2620  135.1290 C   0  0  0  0  0  2  0  0  0  0  0  0
  180.0870  172.9300  136.7240 C   0  0  0  0  0  0  0  0  0  0  0  0
  182.1030  171.5310  137.1920 F   0  0  0  0  0  0  0  0  0  0  0  0
  181.9270  173.1420  135.4540 C   0  0  1  0  0  3  0  0  0  0  0  0
  183.8160  174.6530  135.2980 N   0  0  0  0  0  0  0  0  0  0  0  0
  181.4150  172.4220  136.4350 C   0  0  0  0  0  0  0  0  0  0  0  0
  180.9730  174.1970  135.0120 C   0  0  2  0  0  3  0  0  0  0  0  0
  179.1900  172.4310  137.8000 C   0  0  0  0  0  1  0  0  0  0  0  0
  181.5790  175.5020  135.2600 N   0  0  0  0  0  2  0  0  0  0  0  0
  184.0990  177.2190  136.9260 C   0  0  0  0  0  2  0  0  0  0  0  0
  182.9780  177.5540  137.8550 C   0  0  0  0  0  0  0  0  0  0  0  0
  182.7520  176.6940  139.3980 S   0  0  0  0  0  0  0  0  0  0  0  0
  181.2330  178.8060  138.6720 C   0  0  0  0  0  2  0  0  0  0  0  0
  182.2110  178.5570  137.6500 N   0  0  0  0  0  0  0  0  0  0  0  0
  181.6970  178.0840  139.9320 C   0  0  2  0  0  3  0  0  0  0  0  0
  182.4720  179.0030  140.7530 N   0  0  0  0  0  2  0  0  0  0  0  0
  183.9670  177.9360  142.3320 C   0  0  0  0  0  3  0  0  0  0  0  0
  185.0300  179.0990  140.7070 C   0  0  0  0  0  3  0  0  0  0  0  0
  183.7640  178.6750  141.2630 C   0  0  0  0  0  0  0  0  0  0  0  0
  185.9890  178.6300  141.4300 N   0  0  0  0  0  0  0  0  0  0  0  0
  185.4540  177.8430  142.5410 C   0  0  1  0  0  3  0  0  0  0  0  0
  185.8860  178.4520  143.8920 C   0  0  2  0  0  3  0  0  0  0  0  0
  189.0360  177.1100  145.4220 C   0  0  1  0  0  3  0  0  0  0  0  0
  188.5140  176.2170  143.2150 C   0  0  0  0  0  2  0  0  0  0  0  0
  188.1800  177.3320  144.1960 C   0  0  1  0  0  3  0  0  0  0  0  0
  190.4480  177.5520  145.0680 C   0  0  0  0  0  2  0  0  0  0  0  0
  188.7210  178.2570  147.5370 O   0  0  0  0  0  0  0  0  0  0  0  0
  190.0160  176.2220  142.9640 C   0  0  0  0  0  3  0  0  0  0  0  0
  186.9550  178.0060  146.0370 O   0  0  0  0  0  0  0  0  0  0  0  0
  186.7470  177.4760  144.7280 C   0  0  1  0  0  3  0  0  0  0  0  0
  190.8960  176.7940  143.8250 C   0  0  0  0  0  3  0  0  0  0  0  0
  188.2740  177.8650  146.4260 C   0  0  0  0  0  0  0  0  0  0  0  0
  184.5550  180.4490  144.7150 C   0  0  0  0  0  1  0  0  0  0  0  0
  184.6340  178.4170  145.9800 O   0  0  0  0  0  1  0  0  0  0  0  0
  184.6520  178.9360  144.6830 C   0  0  2  0  0  3  0  0  0  0  0  0
  184.6280  177.2640  134.5940 O   0  0  0  0  0  0  0  0  0  0  0  0
  185.6630  177.8180  135.3490 C   0  0  0  0  0  2  0  0  0  0  0  0
  186.9150  176.9840  135.1600 C   0  0  0  0  0  2  0  0  0  0  0  0
  192.6100  175.1010  137.8670 C   0  0  1  0  0  3  0  0  0  0  0  0
  188.2410  176.4510  138.3560 C   0  0  0  0  0  3  0  0  0  0  0  0
  194.6370  176.0050  137.5880 O   0  0  0  0  0  0  0  0  0  0  0  0
  193.0480  177.0700  139.1110 C   0  0  0  0  0  0  0  0  0  0  0  0
  193.9340  177.7040  139.7470 O   0  0  0  0  0  0  0  0  0  0  0  0
  186.9260  174.6530  135.7540 O   0  0  0  0  0  0  0  0  0  0  0  0
  190.6000  173.2240  136.9690 O   0  0  0  0  0  0  0  0  0  0  0  0
  188.0210  173.9230  136.1460 N   0  0  0  0  0  2  0  0  0  0  0  0
  187.0480  175.9670  136.2790 C   0  0  1  0  0  3  0  0  0  0  0  0
  190.2060  174.3960  137.2210 C   0  0  0  0  0  0  0  0  0  0  0  0
  190.6960  176.2760  138.8320 C   0  0  0  0  0  0  0  0  0  0  0  0
  193.3300  176.3880  137.8210 C   0  0  2  0  0  3  0  0  0  0  0  0
  194.4610  174.8720  136.7500 C   0  0  0  0  0  2  0  0  0  0  0  0
  188.9000  174.7940  136.7920 N   0  0  0  0  0  0  0  0  0  0  0  0
  191.1160  175.3340  137.9270 C   0  0  0  0  0  0  0  0  0  0  0  0
  191.6840  177.0480  139.5550 N   0  0  0  0  0  2  0  0  0  0  0  0
  193.1120  174.4280  136.7670 O   0  0  0  0  0  0  0  0  0  0  0  0
  188.3940  176.1130  136.9130 C   0  0  2  0  0  3  0  0  0  0  0  0
  189.2810  176.5340  139.1840 C   0  0  0  0  0  3  0  0  0  0  0  0
  1 13  1  1  0  0  0
  2  1  1  0  0  0  0
  3  5  1  0  0  0  0
  4  8  1  0  0  0  0
  5 11  1  0  0  0  0
  7  4  1  1  0  0  0
  7  9  1  0  0  0  0
  8  2  2  0  0  0  0
  9  5  2  0  0  0  0
  9  6  1  0  0  0  0
 10 12  1  0  0  0  0
 10  7  1  0  0  0  0
 10  3  1  1  0  0  0
 12  2  1  0  0  0  0
 13 14  1  0  0  0  0
 14 15  1  0  0  0  0
 15 18  1  0  0  0  0
 16 18  1  0  0  0  0
 17 14  2  0  0  0  0
 17 16  1  0  0  0  0
 18 19  1  1  0  0  0
 19 22  1  0  0  0  0
 20 24  1  0  0  0  0
 21 22  1  0  0  0  0
 21 23  2  0  0  0  0
 22 20  2  0  0  0  0
 23 24  1  0  0  0  0
 24 25  1  1  0  0  0
 25 38  1  1  0  0  0
 26 29  1  6  0  0  0
 26 35  1  0  0  0  0
 28 27  1  6  0  0  0
 28 33  1  0  0  0  0
 28 26  1  0  0  0  0
 31 27  1  0  0  0  0
 31 34  2  0  0  0  0
 32 35  1  0  0  0  0
 33 25  1  6  0  0  0
 33 32  1  0  0  0  0
 34 29  1  0  0  0  0
 35 30  2  0  0  0  0
 38 36  1  1  0  0  0
 38 37  1  0  0  0  0
 39 40  1  0  0  0  0
 39  1  1  0  0  0  0
 41 40  1  0  0  0  0
 42 58  1  6  0  0  0
 42 56  1  0  0  0  0
 43 60  2  0  0  0  0
 45 57  1  0  0  0  0
 45 46  2  0  0  0  0
 47 49  1  0  0  0  0
 47 50  1  0  0  0  0
 48 51  2  0  0  0  0
 49 55  1  0  0  0  0
 50 41  1  6  0  0  0
 50 59  1  0  0  0  0
 51 56  1  0  0  0  0
 52 60  1  0  0  0  0
 52 57  1  0  0  0  0
 53 44  1  1  0  0  0
 53 42  1  0  0  0  0
 53 45  1  0  0  0  0
 54 58  1  0  0  0  0
 54 44  1  0  0  0  0
 55 59  1  0  0  0  0
 55 51  1  0  0  0  0
 56 52  2  0  0  0  0
 59 43  1  1  0  0  0
M  END
>  <MODEL>
5

>  <REMARK>
 VINA RESULT:      -8.2      3.243     10.259
  Name = 
  12 active torsions:
  status: ('A' for Active; 'I' for Inactive)
    1  A    between atoms: N_3  and  C_34
    2  A    between atoms: N_3  and  C_44
    3  A    between atoms: C_8  and  C_13
    4  A    between atoms: C_9  and  C_19
    5  A    between atoms: C_13  and  C_19
    6  A    between atoms: C_13  and  O_57
    7  A    between atoms: C_23  and  C_27
    8  A    between atoms: C_23  and  C_60
    9  A    between atoms: C_29  and  C_51
   10  A    between atoms: C_29  and  C_55
   11  A    between atoms: C_29  and  C_56
   12  A    between atoms: O_57  and  C_60
                            x       y       z     vdW  Elec       q    Type
                         _______ _______ _______ _____ _____    ______ ____

>  <TORSDO>
F 12

$$$$
=
 OpenBabel10222415213D

 60 69  0  0  1  0  0  0  0  0999 V2000
  190.4300  177.1130  139.3430 C   0  0  1  0  0  3  0  0  0  0  0  0
  190.5040  176.9520  140.8290 C   0  0  0  0  0  0  0  0  0  0  0  0
  188.2040  176.2880  143.6220 C   0  0  0  0  0  2  0  0  0  0  0  0
  191.6850  177.4120  142.9320 C   0  0  0  0  0  2  0  0  0  0  0  0
  188.3570  177.2880  144.4810 C   0  0  0  0  0  0  0  0  0  0  0  0
  190.1780  178.9110  145.0220 F   0  0  0  0  0  0  0  0  0  0  0  0
  190.4020  177.0270  143.5890 C   0  0  1  0  0  3  0  0  0  0  0  0
  191.4950  177.5010  141.4790 N   0  0  0  0  0  0  0  0  0  0  0  0
  189.7270  177.7640  144.4520 C   0  0  0  0  0  0  0  0  0  0  0  0
  189.5260  175.9950  142.9690 C   0  0  2  0  0  3  0  0  0  0  0  0
  187.2560  177.8820  145.2830 C   0  0  0  0  0  1  0  0  0  0  0  0
  189.4580  176.2480  141.5330 N   0  0  0  0  0  2  0  0  0  0  0  0
  189.8110  178.4620  139.0030 C   0  0  0  0  0  2  0  0  0  0  0  0
  188.7150  178.3020  138.0000 C   0  0  0  0  0  0  0  0  0  0  0  0
  187.7460  176.8100  137.9020 S   0  0  0  0  0  0  0  0  0  0  0  0
  187.2140  178.9940  136.4040 C   0  0  0  0  0  2  0  0  0  0  0  0
  188.3340  179.2710  137.2590 N   0  0  0  0  0  0  0  0  0  0  0  0
  186.5040  177.7670  136.9670 C   0  0  2  0  0  3  0  0  0  0  0  0
  185.4400  178.1970  137.8610 N   0  0  0  0  0  2  0  0  0  0  0  0
  183.9230  176.3620  137.4130 C   0  0  0  0  0  3  0  0  0  0  0  0
  183.4040  177.5460  139.2720 C   0  0  0  0  0  3  0  0  0  0  0  0
  184.3040  177.3810  138.1520 C   0  0  0  0  0  0  0  0  0  0  0  0
  182.4860  176.6430  139.2130 N   0  0  0  0  0  0  0  0  0  0  0  0
  182.6860  175.7850  138.0460 C   0  0  1  0  0  3  0  0  0  0  0  0
  181.4660  175.8630  137.1020 C   0  0  2  0  0  3  0  0  0  0  0  0
  181.9090  172.2050  136.3980 C   0  0  1  0  0  3  0  0  0  0  0  0
  183.2410  173.6830  134.9890 C   0  0  0  0  0  2  0  0  0  0  0  0
  182.4150  173.6240  136.2670 C   0  0  1  0  0  3  0  0  0  0  0  0
  183.0800  171.3520  136.8600 C   0  0  0  0  0  2  0  0  0  0  0  0
  180.1950  171.5040  137.9660 O   0  0  0  0  0  0  0  0  0  0  0  0
  184.3230  172.6130  135.0580 C   0  0  0  0  0  3  0  0  0  0  0  0
  180.3200  173.7150  137.2410 O   0  0  0  0  0  0  0  0  0  0  0  0
  181.1700  174.5090  136.4130 C   0  0  1  0  0  3  0  0  0  0  0  0
  184.2310  171.5360  135.8780 C   0  0  0  0  0  3  0  0  0  0  0  0
  180.7650  172.4070  137.2980 C   0  0  0  0  0  0  0  0  0  0  0  0
  180.9140  178.2550  136.4640 C   0  0  0  0  0  1  0  0  0  0  0  0
  181.2830  176.5880  134.7860 O   0  0  0  0  0  1  0  0  0  0  0  0
  181.6560  176.9930  136.0690 C   0  0  2  0  0  3  0  0  0  0  0  0
  191.7050  177.0190  138.7760 O   0  0  0  0  0  0  0  0  0  0  0  0
  191.8730  175.6660  138.4770 C   0  0  0  0  0  2  0  0  0  0  0  0
  190.7280  175.2080  137.5960 C   0  0  0  0  0  2  0  0  0  0  0  0
  196.9520  173.5860  136.2050 C   0  0  1  0  0  3  0  0  0  0  0  0
  192.4490  172.7540  135.7870 C   0  0  0  0  0  3  0  0  0  0  0  0
  198.6230  173.1670  137.6330 O   0  0  0  0  0  0  0  0  0  0  0  0
  196.9580  171.4310  137.1930 C   0  0  0  0  0  0  0  0  0  0  0  0
  197.6960  170.4880  137.5880 O   0  0  0  0  0  0  0  0  0  0  0  0
  191.4270  176.0050  135.4370 O   0  0  0  0  0  0  0  0  0  0  0  0
  195.4490  175.5170  134.6630 O   0  0  0  0  0  0  0  0  0  0  0  0
  192.7110  176.0030  134.9510 N   0  0  0  0  0  2  0  0  0  0  0  0
  191.2380  174.8320  136.2160 C   0  0  1  0  0  3  0  0  0  0  0  0
  194.7790  174.6890  135.3380 C   0  0  0  0  0  0  0  0  0  0  0  0
  194.8930  172.2760  136.0680 C   0  0  0  0  0  0  0  0  0  0  0  0
  197.2900  172.8580  137.4430 C   0  0  2  0  0  3  0  0  0  0  0  0
  198.6810  174.5030  137.1530 C   0  0  0  0  0  2  0  0  0  0  0  0
  193.3790  174.9200  135.5250 N   0  0  0  0  0  0  0  0  0  0  0  0
  195.4640  173.5160  135.9410 C   0  0  0  0  0  0  0  0  0  0  0  0
  195.7000  171.1750  136.5520 N   0  0  0  0  0  2  0  0  0  0  0  0
  197.5100  174.8340  136.4200 O   0  0  0  0  0  0  0  0  0  0  0  0
  192.5490  174.1260  136.3570 C   0  0  2  0  0  3  0  0  0  0  0  0
  193.5020  171.9450  135.6850 C   0  0  0  0  0  3  0  0  0  0  0  0
  1 13  1  1  0  0  0
  1  2  1  0  0  0  0
  2  8  2  0  0  0  0
  2 12  1  0  0  0  0
  3  5  1  0  0  0  0
  5 11  1  0  0  0  0
  7  4  1  6  0  0  0
  7  9  1  0  0  0  0
  8  4  1  0  0  0  0
  9  5  2  0  0  0  0
  9  6  1  0  0  0  0
 10  7  1  0  0  0  0
 10  3  1  1  0  0  0
 12 10  1  0  0  0  0
 14 13  1  0  0  0  0
 15 14  1  0  0  0  0
 16 18  1  0  0  0  0
 16 17  1  0  0  0  0
 17 14  2  0  0  0  0
 18 19  1  1  0  0  0
 18 15  1  0  0  0  0
 19 22  1  0  0  0  0
 20 24  1  0  0  0  0
 20 22  2  0  0  0  0
 22 21  1  0  0  0  0
 23 21  2  0  0  0  0
 24 25  1  6  0  0  0
 24 23  1  0  0  0  0
 25 38  1  6  0  0  0
 26 29  1  1  0  0  0
 26 35  1  0  0  0  0
 27 31  1  0  0  0  0
 28 27  1  6  0  0  0
 28 26  1  0  0  0  0
 28 33  1  0  0  0  0
 31 34  2  0  0  0  0
 32 35  1  0  0  0  0
 33 25  1  1  0  0  0
 33 32  1  0  0  0  0
 34 29  1  0  0  0  0
 35 30  2  0  0  0  0
 37 38  1  0  0  0  0
 38 36  1  1  0  0  0
 39  1  1  0  0  0  0
 40 39  1  0  0  0  0
 41 40  1  0  0  0  0
 42 56  1  1  0  0  0
 42 58  1  0  0  0  0
 42 53  1  0  0  0  0
 45 46  2  0  0  0  0
 47 50  1  0  0  0  0
 48 51  2  0  0  0  0
 49 47  1  0  0  0  0
 49 55  1  0  0  0  0
 50 59  1  0  0  0  0
 50 41  1  1  0  0  0
 51 55  1  0  0  0  0
 51 56  1  0  0  0  0
 52 57  1  0  0  0  0
 53 45  1  6  0  0  0
 53 44  1  0  0  0  0
 54 44  1  0  0  0  0
 55 59  1  0  0  0  0
 56 52  2  0  0  0  0
 57 45  1  0  0  0  0
 58 54  1  0  0  0  0
 59 43  1  6  0  0  0
 60 43  2  0  0  0  0
 60 52  1  0  0  0  0
M  END
>  <MODEL>
6

>  <REMARK>
 VINA RESULT:      -8.2      2.729     10.045
  Name = 
  12 active torsions:
  status: ('A' for Active; 'I' for Inactive)
    1  A    between atoms: N_3  and  C_34
    2  A    between atoms: N_3  and  C_44
    3  A    between atoms: C_8  and  C_13
    4  A    between atoms: C_9  and  C_19
    5  A    between atoms: C_13  and  C_19
    6  A    between atoms: C_13  and  O_57
    7  A    between atoms: C_23  and  C_27
    8  A    between atoms: C_23  and  C_60
    9  A    between atoms: C_29  and  C_51
   10  A    between atoms: C_29  and  C_55
   11  A    between atoms: C_29  and  C_56
   12  A    between atoms: O_57  and  C_60
                            x       y       z     vdW  Elec       q    Type
                         _______ _______ _______ _____ _____    ______ ____

>  <TORSDO>
F 12

$$$$
=
 OpenBabel10222415213D

 60 69  0  0  1  0  0  0  0  0999 V2000
  190.1150  177.2870  139.7450 C   0  0  1  0  0  3  0  0  0  0  0  0
  190.0660  176.9920  141.2120 C   0  0  0  0  0  0  0  0  0  0  0  0
  187.5180  176.6160  143.8390 C   0  0  0  0  0  2  0  0  0  0  0  0
  191.1940  177.0070  143.3920 C   0  0  0  0  0  2  0  0  0  0  0  0
  187.8310  177.4830  144.7930 C   0  0  0  0  0  0  0  0  0  0  0  0
  189.9230  178.6190  145.5530 F   0  0  0  0  0  0  0  0  0  0  0  0
  189.8220  176.8570  143.9610 C   0  0  1  0  0  3  0  0  0  0  0  0
  191.1130  177.2550  141.9480 N   0  0  0  0  0  0  0  0  0  0  0  0
  189.2710  177.6500  144.8610 C   0  0  0  0  0  0  0  0  0  0  0  0
  188.7830  176.0970  143.2130 C   0  0  2  0  0  3  0  0  0  0  0  0
  186.8380  178.2350  145.6030 C   0  0  0  0  0  1  0  0  0  0  0  0
  188.8550  176.4770  141.8050 N   0  0  0  0  0  2  0  0  0  0  0  0
  189.0860  178.3560  139.4020 C   0  0  0  0  0  2  0  0  0  0  0  0
  188.4840  178.0980  138.0590 C   0  0  0  0  0  0  0  0  0  0  0  0
  187.9340  176.4740  137.5750 S   0  0  0  0  0  0  0  0  0  0  0  0
  187.5620  178.6590  136.0310 C   0  0  0  0  0  2  0  0  0  0  0  0
  188.2160  179.0500  137.2490 N   0  0  0  0  0  0  0  0  0  0  0  0
  186.9550  177.2800  136.2620 C   0  0  2  0  0  3  0  0  0  0  0  0
  185.5750  177.4310  136.7000 N   0  0  0  0  0  2  0  0  0  0  0  0
  183.4860  176.4640  135.9490 C   0  0  0  0  0  3  0  0  0  0  0  0
  184.7350  175.0690  137.2210 C   0  0  0  0  0  3  0  0  0  0  0  0
  184.6200  176.3740  136.6090 C   0  0  0  0  0  0  0  0  0  0  0  0
  183.6840  174.3760  136.9410 N   0  0  0  0  0  0  0  0  0  0  0  0
  182.7640  175.1530  136.1120 C   0  0  1  0  0  3  0  0  0  0  0  0
  181.4070  175.3280  136.8270 C   0  0  2  0  0  3  0  0  0  0  0  0
  180.6030  175.9620  140.4350 C   0  0  1  0  0  3  0  0  0  0  0  0
  182.4320  177.3070  139.5470 C   0  0  0  0  0  2  0  0  0  0  0  0
  181.2630  176.4150  139.1530 C   0  0  1  0  0  3  0  0  0  0  0  0
  179.8030  177.1420  140.9680 C   0  0  0  0  0  2  0  0  0  0  0  0
  178.9460  174.1950  140.5710 O   0  0  0  0  0  0  0  0  0  0  0  0
  181.9120  178.4280  140.4380 C   0  0  0  0  0  3  0  0  0  0  0  0
  180.4760  174.2680  138.8150 O   0  0  0  0  0  0  0  0  0  0  0  0
  181.5200  175.1280  138.3570 C   0  0  1  0  0  3  0  0  0  0  0  0
  180.7380  178.3360  141.1130 C   0  0  0  0  0  3  0  0  0  0  0  0
  179.8940  174.7630  139.9680 C   0  0  0  0  0  0  0  0  0  0  0  0
  180.7510  173.9080  134.8310 C   0  0  0  0  0  1  0  0  0  0  0  0
  179.0880  174.9890  136.1710 O   0  0  0  0  0  1  0  0  0  0  0  0
  180.3490  174.3900  136.2110 C   0  0  2  0  0  3  0  0  0  0  0  0
  191.3920  177.7220  139.3750 O   0  0  0  0  0  0  0  0  0  0  0  0
  192.0480  176.5790  138.9170 C   0  0  0  0  0  2  0  0  0  0  0  0
  191.0240  175.6110  138.3590 C   0  0  0  0  0  2  0  0  0  0  0  0
  196.9550  173.5910  136.3460 C   0  0  1  0  0  3  0  0  0  0  0  0
  192.3840  173.0890  136.3470 C   0  0  0  0  0  3  0  0  0  0  0  0
  198.7180  173.0200  137.5980 O   0  0  0  0  0  0  0  0  0  0  0  0
  196.8990  171.4170  137.2880 C   0  0  0  0  0  0  0  0  0  0  0  0
  197.6000  170.4150  137.5930 O   0  0  0  0  0  0  0  0  0  0  0  0
  191.5720  176.4110  136.1580 O   0  0  0  0  0  0  0  0  0  0  0  0
  195.4570  175.6620  134.9920 O   0  0  0  0  0  0  0  0  0  0  0  0
  192.8010  176.3320  135.5500 N   0  0  0  0  0  2  0  0  0  0  0  0
  191.3730  175.2360  136.9300 C   0  0  1  0  0  3  0  0  0  0  0  0
  194.7950  174.8670  135.7120 C   0  0  0  0  0  0  0  0  0  0  0  0
  194.8030  172.4330  136.3830 C   0  0  0  0  0  0  0  0  0  0  0  0
  197.3550  172.8110  137.5320 C   0  0  2  0  0  3  0  0  0  0  0  0
  198.8270  174.3610  137.1390 C   0  0  0  0  0  2  0  0  0  0  0  0
  193.4400  175.1900  136.0380 N   0  0  0  0  0  0  0  0  0  0  0  0
  195.4480  173.6330  136.2240 C   0  0  0  0  0  0  0  0  0  0  0  0
  195.5700  171.2670  136.7670 N   0  0  0  0  0  2  0  0  0  0  0  0
  197.6200  174.7910  136.5290 O   0  0  0  0  0  0  0  0  0  0  0  0
  192.6370  174.4360  136.9300 C   0  0  2  0  0  3  0  0  0  0  0  0
  193.3620  172.2110  136.1290 C   0  0  0  0  0  3  0  0  0  0  0  0
  1 13  1  1  0  0  0
  1  2  1  0  0  0  0
  2 12  1  0  0  0  0
  2  8  2  0  0  0  0
  3  5  1  0  0  0  0
  5  9  2  0  0  0  0
  5 11  1  0  0  0  0
  7  4  1  6  0  0  0
  7  9  1  0  0  0  0
  8  4  1  0  0  0  0
  9  6  1  0  0  0  0
 10  3  1  1  0  0  0
 10  7  1  0  0  0  0
 12 10  1  0  0  0  0
 14 13  1  0  0  0  0
 15 14  1  0  0  0  0
 16 18  1  0  0  0  0
 16 17  1  0  0  0  0
 17 14  2  0  0  0  0
 18 19  1  1  0  0  0
 18 15  1  0  0  0  0
 20 24  1  0  0  0  0
 20 22  2  0  0  0  0
 22 19  1  0  0  0  0
 22 21  1  0  0  0  0
 23 21  2  0  0  0  0
 24 25  1  1  0  0  0
 24 23  1  0  0  0  0
 25 38  1  6  0  0  0
 26 29  1  6  0  0  0
 27 31  1  0  0  0  0
 28 27  1  1  0  0  0
 28 26  1  0  0  0  0
 29 34  1  0  0  0  0
 31 34  2  0  0  0  0
 32 35  1  0  0  0  0
 33 25  1  6  0  0  0
 33 32  1  0  0  0  0
 33 28  1  0  0  0  0
 35 26  1  0  0  0  0
 35 30  2  0  0  0  0
 37 38  1  0  0  0  0
 38 36  1  6  0  0  0
 39  1  1  0  0  0  0
 40 39  1  0  0  0  0
 41 40  1  0  0  0  0
 42 56  1  1  0  0  0
 42 58  1  0  0  0  0
 42 53  1  0  0  0  0
 45 46  2  0  0  0  0
 47 50  1  0  0  0  0
 48 51  2  0  0  0  0
 49 55  1  0  0  0  0
 49 47  1  0  0  0  0
 50 41  1  1  0  0  0
 51 55  1  0  0  0  0
 51 56  1  0  0  0  0
 52 57  1  0  0  0  0
 53 45  1  6  0  0  0
 53 44  1  0  0  0  0
 54 44  1  0  0  0  0
 55 59  1  0  0  0  0
 56 52  2  0  0  0  0
 57 45  1  0  0  0  0
 58 54  1  0  0  0  0
 59 43  1  6  0  0  0
 59 50  1  0  0  0  0
 60 43  2  0  0  0  0
 60 52  1  0  0  0  0
M  END
>  <MODEL>
7

>  <REMARK>
 VINA RESULT:      -8.0      2.667     10.515
  Name = 
  12 active torsions:
  status: ('A' for Active; 'I' for Inactive)
    1  A    between atoms: N_3  and  C_34
    2  A    between atoms: N_3  and  C_44
    3  A    between atoms: C_8  and  C_13
    4  A    between atoms: C_9  and  C_19
    5  A    between atoms: C_13  and  C_19
    6  A    between atoms: C_13  and  O_57
    7  A    between atoms: C_23  and  C_27
    8  A    between atoms: C_23  and  C_60
    9  A    between atoms: C_29  and  C_51
   10  A    between atoms: C_29  and  C_55
   11  A    between atoms: C_29  and  C_56
   12  A    between atoms: O_57  and  C_60
                            x       y       z     vdW  Elec       q    Type
                         _______ _______ _______ _____ _____    ______ ____

>  <TORSDO>
F 12

$$$$
=
 OpenBabel10222415213D

 60 69  0  0  1  0  0  0  0  0999 V2000
  189.7990  176.7140  139.1970 C   0  0  1  0  0  3  0  0  0  0  0  0
  190.4480  176.7770  140.5440 C   0  0  0  0  0  0  0  0  0  0  0  0
  189.4700  176.3800  144.0680 C   0  0  0  0  0  2  0  0  0  0  0  0
  192.2750  177.6140  141.9550 C   0  0  0  0  0  2  0  0  0  0  0  0
  189.8190  177.5020  144.6840 C   0  0  0  0  0  0  0  0  0  0  0  0
  191.5080  179.3000  144.2900 F   0  0  0  0  0  0  0  0  0  0  0  0
  191.3900  177.2460  143.0990 C   0  0  1  0  0  3  0  0  0  0  0  0
  191.5410  177.4780  140.6910 N   0  0  0  0  0  0  0  0  0  0  0  0
  191.0110  178.0560  144.0700 C   0  0  0  0  0  0  0  0  0  0  0  0
  190.4700  176.0810  142.9870 C   0  0  2  0  0  3  0  0  0  0  0  0
  189.0430  178.1350  145.7820 C   0  0  0  0  0  1  0  0  0  0  0  0
  189.8360  176.1170  141.6720 N   0  0  0  0  0  2  0  0  0  0  0  0
  189.0350  178.0050  138.9350 C   0  0  0  0  0  2  0  0  0  0  0  0
  187.9860  177.7950  137.8920 C   0  0  0  0  0  0  0  0  0  0  0  0
  186.5730  176.7490  138.1830 S   0  0  0  0  0  0  0  0  0  0  0  0
  186.8650  178.2110  135.9300 C   0  0  0  0  0  2  0  0  0  0  0  0
  187.9830  178.4570  136.7980 N   0  0  0  0  0  0  0  0  0  0  0  0
  185.7630  177.5800  136.7740 C   0  0  2  0  0  3  0  0  0  0  0  0
  184.8760  178.6250  137.2620 N   0  0  0  0  0  2  0  0  0  0  0  0
  182.6730  179.1910  138.0960 C   0  0  0  0  0  3  0  0  0  0  0  0
  183.3510  177.1030  138.6460 C   0  0  0  0  0  3  0  0  0  0  0  0
  183.6670  178.3400  137.9670 C   0  0  0  0  0  0  0  0  0  0  0  0
  182.1840  177.2020  139.1850 N   0  0  0  0  0  0  0  0  0  0  0  0
  181.6060  178.5180  138.9150 C   0  0  1  0  0  3  0  0  0  0  0  0
  181.3320  179.2700  140.2350 C   0  0  2  0  0  3  0  0  0  0  0  0
  182.2630  178.4650  143.7780 C   0  0  1  0  0  3  0  0  0  0  0  0
  184.0720  178.2060  142.1650 C   0  0  0  0  0  2  0  0  0  0  0  0
  182.6900  178.8100  142.3700 C   0  0  1  0  0  3  0  0  0  0  0  0
  183.0370  179.3780  144.7170 C   0  0  0  0  0  2  0  0  0  0  0  0
  180.0090  178.7460  144.6320 O   0  0  0  0  0  0  0  0  0  0  0  0
  184.9950  178.7160  143.2640 C   0  0  0  0  0  3  0  0  0  0  0  0
  180.4000  178.4920  142.3490 O   0  0  0  0  0  0  0  0  0  0  0  0
  181.5230  178.3660  141.4760 C   0  0  1  0  0  3  0  0  0  0  0  0
  184.5250  179.2110  144.4380 C   0  0  0  0  0  3  0  0  0  0  0  0
  180.8060  178.6160  143.6650 C   0  0  0  0  0  0  0  0  0  0  0  0
  179.0220  179.2480  139.1880 C   0  0  0  0  0  1  0  0  0  0  0  0
  179.9890  181.2850  139.9930 O   0  0  0  0  0  1  0  0  0  0  0  0
  179.9270  179.9070  140.2110 C   0  0  2  0  0  3  0  0  0  0  0  0
  190.7590  176.5200  138.1990 O   0  0  0  0  0  0  0  0  0  0  0  0
  190.1950  175.5880  137.3260 C   0  0  0  0  0  2  0  0  0  0  0  0
  191.1800  174.4570  137.1060 C   0  0  0  0  0  2  0  0  0  0  0  0
  197.7410  174.1320  136.7130 C   0  0  1  0  0  3  0  0  0  0  0  0
  193.6080  173.0730  134.9970 C   0  0  0  0  0  3  0  0  0  0  0  0
  199.1800  173.3690  138.2460 O   0  0  0  0  0  0  0  0  0  0  0  0
  197.9610  171.7750  136.8480 C   0  0  0  0  0  0  0  0  0  0  0  0
  198.7750  170.8330  137.0430 O   0  0  0  0  0  0  0  0  0  0  0  0
  192.0940  176.0880  135.5930 O   0  0  0  0  0  0  0  0  0  0  0  0
  196.2100  176.3440  135.6500 O   0  0  0  0  0  0  0  0  0  0  0  0
  193.4220  176.4030  135.4480 N   0  0  0  0  0  2  0  0  0  0  0  0
  191.9850  174.6940  135.8410 C   0  0  1  0  0  3  0  0  0  0  0  0
  195.5920  175.2580  135.8130 C   0  0  0  0  0  0  0  0  0  0  0  0
  196.0090  172.7740  135.6490 C   0  0  0  0  0  0  0  0  0  0  0  0
  197.9800  173.0230  137.6560 C   0  0  2  0  0  3  0  0  0  0  0  0
  199.0800  174.7850  138.2960 C   0  0  0  0  0  2  0  0  0  0  0  0
  194.1620  175.2560  135.7410 N   0  0  0  0  0  0  0  0  0  0  0  0
  196.3600  174.0190  136.1040 C   0  0  0  0  0  0  0  0  0  0  0  0
  196.9030  171.6590  135.8860 N   0  0  0  0  0  2  0  0  0  0  0  0
  198.0170  175.2510  137.4770 O   0  0  0  0  0  0  0  0  0  0  0  0
  193.3560  174.1240  136.0220 C   0  0  2  0  0  3  0  0  0  0  0  0
  194.7910  172.4760  134.8630 C   0  0  0  0  0  3  0  0  0  0  0  0
  1 13  1  6  0  0  0
  1  2  1  0  0  0  0
  2  8  2  0  0  0  0
  2 12  1  0  0  0  0
  3  5  1  0  0  0  0
  5 11  1  0  0  0  0
  7  4  1  6  0  0  0
  7  9  1  0  0  0  0
  8  4  1  0  0  0  0
  9  6  1  0  0  0  0
  9  5  2  0  0  0  0
 10  7  1  0  0  0  0
 10  3  1  1  0  0  0
 12 10  1  0  0  0  0
 14 15  1  0  0  0  0
 14 13  1  0  0  0  0
 16 18  1  0  0  0  0
 16 17  1  0  0  0  0
 17 14  2  0  0  0  0
 18 19  1  1  0  0  0
 18 15  1  0  0  0  0
 19 22  1  0  0  0  0
 20 24  1  0  0  0  0
 21 23  2  0  0  0  0
 22 20  2  0  0  0  0
 22 21  1  0  0  0  0
 24 23  1  0  0  0  0
 24 25  1  1  0  0  0
 25 38  1  6  0  0  0
 26 29  1  1  0  0  0
 27 31  1  0  0  0  0
 28 27  1  6  0  0  0
 28 26  1  0  0  0  0
 31 34  2  0  0  0  0
 32 35  1  0  0  0  0
 33 25  1  6  0  0  0
 33 32  1  0  0  0  0
 33 28  1  0  0  0  0
 34 29  1  0  0  0  0
 35 26  1  0  0  0  0
 35 30  2  0  0  0  0
 37 38  1  0  0  0  0
 38 36  1  6  0  0  0
 39  1  1  0  0  0  0
 40 39  1  0  0  0  0
 41 40  1  0  0  0  0
 42 56  1  1  0  0  0
 42 58  1  0  0  0  0
 42 53  1  0  0  0  0
 44 54  1  0  0  0  0
 45 46  2  0  0  0  0
 47 50  1  0  0  0  0
 48 51  2  0  0  0  0
 49 47  1  0  0  0  0
 49 55  1  0  0  0  0
 50 59  1  0  0  0  0
 50 41  1  1  0  0  0
 51 56  1  0  0  0  0
 52 57  1  0  0  0  0
 52 56  2  0  0  0  0
 53 45  1  6  0  0  0
 53 44  1  0  0  0  0
 55 51  1  0  0  0  0
 55 59  1  0  0  0  0
 57 45  1  0  0  0  0
 58 54  1  0  0  0  0
 59 43  1  6  0  0  0
 60 43  2  0  0  0  0
 60 52  1  0  0  0  0
M  END
>  <MODEL>
8

>  <REMARK>
 VINA RESULT:      -8.0      2.922     11.084
  Name = 
  12 active torsions:
  status: ('A' for Active; 'I' for Inactive)
    1  A    between atoms: N_3  and  C_34
    2  A    between atoms: N_3  and  C_44
    3  A    between atoms: C_8  and  C_13
    4  A    between atoms: C_9  and  C_19
    5  A    between atoms: C_13  and  C_19
    6  A    between atoms: C_13  and  O_57
    7  A    between atoms: C_23  and  C_27
    8  A    between atoms: C_23  and  C_60
    9  A    between atoms: C_29  and  C_51
   10  A    between atoms: C_29  and  C_55
   11  A    between atoms: C_29  and  C_56
   12  A    between atoms: O_57  and  C_60
                            x       y       z     vdW  Elec       q    Type
                         _______ _______ _______ _____ _____    ______ ____

>  <TORSDO>
F 12

$$$$
=
 OpenBabel10222415213D

 60 69  0  0  1  0  0  0  0  0999 V2000
  185.8270  177.9010  137.5950 C   0  0  1  0  0  3  0  0  0  0  0  0
  186.2420  178.3010  138.9760 C   0  0  0  0  0  0  0  0  0  0  0  0
  189.0270  177.6490  141.2890 C   0  0  0  0  0  2  0  0  0  0  0  0
  185.6050  179.1120  141.2040 C   0  0  0  0  0  2  0  0  0  0  0  0
  188.4860  177.1750  142.4040 C   0  0  0  0  0  0  0  0  0  0  0  0
  186.2550  177.3450  143.5150 F   0  0  0  0  0  0  0  0  0  0  0  0
  186.9470  178.6160  141.6290 C   0  0  1  0  0  3  0  0  0  0  0  0
  185.3290  178.6890  139.8260 N   0  0  0  0  0  0  0  0  0  0  0  0
  187.1770  177.7650  142.6120 C   0  0  0  0  0  0  0  0  0  0  0  0
  188.0920  178.6560  140.6790 C   0  0  2  0  0  3  0  0  0  0  0  0
  189.1040  176.1270  143.2580 C   0  0  0  0  0  1  0  0  0  0  0  0
  187.6260  178.2020  139.3720 N   0  0  0  0  0  2  0  0  0  0  0  0
  187.0550  177.8010  136.6990 C   0  0  0  0  0  2  0  0  0  0  0  0
  187.3250  176.3780  136.3310 C   0  0  0  0  0  0  0  0  0  0  0  0
  187.0670  175.7750  134.6750 S   0  0  0  0  0  0  0  0  0  0  0  0
  188.1530  174.2550  136.6280 C   0  0  0  0  0  2  0  0  0  0  0  0
  187.8770  175.5650  137.1490 N   0  0  0  0  0  0  0  0  0  0  0  0
  188.1340  174.3580  135.1060 C   0  0  2  0  0  3  0  0  0  0  0  0
  189.4870  174.5970  134.6260 N   0  0  0  0  0  2  0  0  0  0  0  0
  191.2730  174.7450  136.2550 C   0  0  0  0  0  3  0  0  0  0  0  0
  191.2960  172.8340  135.0430 C   0  0  0  0  0  3  0  0  0  0  0  0
  190.6420  174.0970  135.3000 C   0  0  0  0  0  0  0  0  0  0  0  0
  192.3140  172.7160  135.8260 N   0  0  0  0  0  0  0  0  0  0  0  0
  192.4350  173.8930  136.6860 C   0  0  1  0  0  3  0  0  0  0  0  0
  193.7870  174.5990  136.4480 C   0  0  2  0  0  3  0  0  0  0  0  0
  196.9520  173.1240  137.8170 C   0  0  1  0  0  3  0  0  0  0  0  0
  195.0200  171.6400  137.8910 C   0  0  0  0  0  2  0  0  0  0  0  0
  195.5540  172.9260  137.2760 C   0  0  1  0  0  3  0  0  0  0  0  0
  197.8580  172.1450  137.0860 C   0  0  0  0  0  2  0  0  0  0  0  0
  198.2290  175.1750  137.5890 O   0  0  0  0  0  0  0  0  0  0  0  0
  195.9970  170.5110  137.5870 C   0  0  0  0  0  3  0  0  0  0  0  0
  195.9000  175.2000  137.5060 O   0  0  0  0  0  0  0  0  0  0  0  0
  194.8310  174.2540  137.5370 C   0  0  1  0  0  3  0  0  0  0  0  0
  197.2950  170.7400  137.2610 C   0  0  0  0  0  3  0  0  0  0  0  0
  197.1250  174.5670  137.5990 C   0  0  0  0  0  0  0  0  0  0  0  0
  194.5480  176.7480  135.3350 C   0  0  0  0  0  1  0  0  0  0  0  0
  193.6760  176.7590  137.5650 O   0  0  0  0  0  1  0  0  0  0  0  0
  193.5830  176.1240  136.3240 C   0  0  2  0  0  3  0  0  0  0  0  0
  185.1570  176.6740  137.6200 O   0  0  0  0  0  0  0  0  0  0  0  0
  183.8130  176.9890  137.4150 C   0  0  0  0  0  2  0  0  0  0  0  0
  183.2610  176.1080  136.3110 C   0  0  0  0  0  2  0  0  0  0  0  0
  179.6140  178.7380  141.1170 C   0  0  1  0  0  3  0  0  0  0  0  0
  180.0570  177.4590  136.7220 C   0  0  0  0  0  3  0  0  0  0  0  0
  180.1060  180.4830  142.4270 O   0  0  0  0  0  0  0  0  0  0  0  0
  179.2980  180.8810  140.1530 C   0  0  0  0  0  0  0  0  0  0  0  0
  178.9310  182.0640  140.3870 O   0  0  0  0  0  0  0  0  0  0  0  0
  181.7320  174.5240  137.2800 O   0  0  0  0  0  0  0  0  0  0  0  0
  179.7670  175.8890  140.6390 O   0  0  0  0  0  0  0  0  0  0  0  0
  180.9900  174.7080  138.4200 N   0  0  0  0  0  2  0  0  0  0  0  0
  181.8090  175.7610  136.5860 C   0  0  1  0  0  3  0  0  0  0  0  0
  180.0670  176.6400  139.6720 C   0  0  0  0  0  0  0  0  0  0  0  0
  179.3790  178.8590  138.6860 C   0  0  0  0  0  0  0  0  0  0  0  0
  180.1510  180.1110  141.0970 C   0  0  2  0  0  3  0  0  0  0  0  0
  180.3920  179.2540  143.0800 C   0  0  0  0  0  2  0  0  0  0  0  0
  180.7160  176.0730  138.5290 N   0  0  0  0  0  0  0  0  0  0  0  0
  179.7640  178.0930  139.7560 C   0  0  0  0  0  0  0  0  0  0  0  0
  178.9850  180.2350  138.9110 N   0  0  0  0  0  2  0  0  0  0  0  0
  180.2840  178.1600  142.1800 O   0  0  0  0  0  0  0  0  0  0  0  0
  181.2040  176.8320  137.4360 C   0  0  2  0  0  3  0  0  0  0  0  0
  179.2720  178.3700  137.2940 C   0  0  0  0  0  3  0  0  0  0  0  0
  1 13  1  6  0  0  0
  1 39  1  0  0  0  0
  1  2  1  0  0  0  0
  2 12  1  0  0  0  0
  2  8  2  0  0  0  0
  3  5  1  0  0  0  0
  5  9  2  0  0  0  0
  5 11  1  0  0  0  0
  7  4  1  6  0  0  0
  7  9  1  0  0  0  0
  8  4  1  0  0  0  0
  9  6  1  0  0  0  0
 10  3  1  1  0  0  0
 10  7  1  0  0  0  0
 12 10  1  0  0  0  0
 14 13  1  0  0  0  0
 14 17  2  0  0  0  0
 15 18  1  0  0  0  0
 15 14  1  0  0  0  0
 16 17  1  0  0  0  0
 18 19  1  1  0  0  0
 18 16  1  0  0  0  0
 19 22  1  0  0  0  0
 20 24  1  0  0  0  0
 21 22  1  0  0  0  0
 21 23  2  0  0  0  0
 22 20  2  0  0  0  0
 23 24  1  0  0  0  0
 24 25  1  6  0  0  0
 25 38  1  1  0  0  0
 26 29  1  6  0  0  0
 28 33  1  0  0  0  0
 28 26  1  0  0  0  0
 28 27  1  1  0  0  0
 29 34  1  0  0  0  0
 30 35  2  0  0  0  0
 31 27  1  0  0  0  0
 32 33  1  0  0  0  0
 32 35  1  0  0  0  0
 33 25  1  6  0  0  0
 34 31  2  0  0  0  0
 35 26  1  0  0  0  0
 38 36  1  6  0  0  0
 38 37  1  0  0  0  0
 40 39  1  0  0  0  0
 41 40  1  0  0  0  0
 42 56  1  6  0  0  0
 42 58  1  0  0  0  0
 43 60  2  0  0  0  0
 44 54  1  0  0  0  0
 45 46  2  0  0  0  0
 47 49  1  0  0  0  0
 49 55  1  0  0  0  0
 50 41  1  1  0  0  0
 50 47  1  0  0  0  0
 50 59  1  0  0  0  0
 51 56  1  0  0  0  0
 51 48  2  0  0  0  0
 52 57  1  0  0  0  0
 52 56  2  0  0  0  0
 53 45  1  6  0  0  0
 53 42  1  0  0  0  0
 53 44  1  0  0  0  0
 55 51  1  0  0  0  0
 57 45  1  0  0  0  0
 58 54  1  0  0  0  0
 59 43  1  6  0  0  0
 59 55  1  0  0  0  0
 60 52  1  0  0  0  0
M  END
>  <MODEL>
9

>  <REMARK>
 VINA RESULT:      -7.9      2.833      5.389
  Name = 
  12 active torsions:
  status: ('A' for Active; 'I' for Inactive)
    1  A    between atoms: N_3  and  C_34
    2  A    between atoms: N_3  and  C_44
    3  A    between atoms: C_8  and  C_13
    4  A    between atoms: C_9  and  C_19
    5  A    between atoms: C_13  and  C_19
    6  A    between atoms: C_13  and  O_57
    7  A    between atoms: C_23  and  C_27
    8  A    between atoms: C_23  and  C_60
    9  A    between atoms: C_29  and  C_51
   10  A    between atoms: C_29  and  C_55
   11  A    between atoms: C_29  and  C_56
   12  A    between atoms: O_57  and  C_60
                            x       y       z     vdW  Elec       q    Type
                         _______ _______ _______ _____ _____    ______ ____

>  <TORSDO>
F 12

$$$$
