=
 OpenBabel10222417473D

 52 55  0  0  1  0  0  0  0  0999 V2000
  187.0380  177.7440  142.1740 C   0  0  2  0  0  3  0  0  0  0  0  0
  188.1540  175.8590  143.2280 N   0  0  0  0  0  1  0  0  0  0  0  0
  183.3080  178.7180  142.4610 C   0  0  0  0  0  0  0  0  0  0  0  0
  184.6850  178.3930  142.0640 C   0  0  0  0  0  3  0  0  0  0  0  0
  183.6420  178.7690  144.9730 C   0  0  0  0  0  3  0  0  0  0  0  0
  187.1010  177.5010  144.6000 N   0  0  0  0  0  2  0  0  0  0  0  0
  184.8950  178.3830  145.2190 C   0  0  0  0  0  0  0  0  0  0  0  0
  185.7580  178.1130  142.8010 C   0  0  0  0  0  0  0  0  0  0  0  0
  182.9040  178.8950  143.7160 C   0  0  0  0  0  3  0  0  0  0  0  0
  185.8400  177.9820  144.2090 N   0  0  0  0  0  0  0  0  0  0  0  0
  187.8630  177.2750  143.3660 C   0  0  2  0  0  3  0  0  0  0  0  0
  182.8270  179.2950  140.0960 C   0  0  0  0  0  3  0  0  0  0  0  0
  182.3310  178.9450  141.3630 C   0  0  0  0  0  0  0  0  0  0  0  0
  180.5800  179.4140  139.1930 C   0  0  0  0  0  0  0  0  0  0  0  0
  180.9300  178.8140  141.5290 C   0  0  0  0  0  0  0  0  0  0  0  0
  180.0750  179.0520  140.4480 C   0  0  0  0  0  3  0  0  0  0  0  0
  181.9640  179.5270  139.0250 C   0  0  0  0  0  3  0  0  0  0  0  0
  179.4880  178.6620  137.0490 C   0  0  0  0  0  1  0  0  0  0  0  0
  179.6990  179.6590  138.0860 N   0  0  0  0  0  0  0  0  0  0  0  0
  179.0360  180.8360  137.9920 O   0  0  0  0  0  1  0  0  0  0  0  0
  179.5170  177.2660  142.6240 O   0  0  0  0  0  1  0  0  0  0  0  0
  180.3100  178.3950  142.8230 C   0  0  0  0  0  2  0  0  0  0  0  0
  186.4360  178.8930  147.0240 N   0  0  0  0  0  0  0  0  0  0  0  0
  185.3340  178.3410  146.6290 C   0  0  0  0  0  3  0  0  0  0  0  0
  186.8040  178.8240  148.3460 O   0  0  0  0  0  0  0  0  0  0  0  0
  187.7290  177.8360  148.7720 C   0  0  0  0  0  2  0  0  0  0  0  0
  189.0860  178.0510  148.1180 C   0  0  1  0  0  3  0  0  0  0  0  0
  189.9680  178.6360  149.0280 O   0  0  0  0  0  1  0  0  0  0  0  0
  189.6740  176.7450  147.6000 C   0  0  0  0  0  2  0  0  0  0  0  0
  191.0190  176.9370  147.1800 O   0  0  0  0  0  0  0  0  0  0  0  0
  190.7780  178.5030  144.7360 C   0  0  0  0  0  2  0  0  0  0  0  0
  191.5040  176.4210  145.9740 C   0  0  0  0  0  0  0  0  0  0  0  0
  191.6210  177.8910  142.5330 C   0  0  0  0  0  2  0  0  0  0  0  0
  190.7390  178.8910  143.2690 C   0  0  0  0  0  2  0  0  0  0  0  0
  191.3800  177.1890  144.7730 N   0  0  0  0  0  0  0  0  0  0  0  0
  192.0540  175.2860  145.9400 O   0  0  0  0  0  0  0  0  0  0  0  0
  191.8330  176.7250  143.4790 C   0  0  0  0  0  2  0  0  0  0  0  0
  187.7150  178.9590  141.5540 C   0  0  0  0  0  2  0  0  0  0  0  0
  188.2610  178.6160  140.2460 N   0  0  0  0  0  2  0  0  0  0  0  0
  187.9180  177.9300  138.0120 C   0  0  0  0  0  3  0  0  0  0  0  0
  187.4940  178.0210  139.2310 N   0  0  0  0  0  0  0  0  0  0  0  0
  187.0700  177.2890  136.9590 C   0  0  2  0  0  3  0  0  0  0  0  0
  186.8730  175.8120  137.1710 C   0  0  0  0  0  0  0  0  0  0  0  0
  187.8700  175.1170  137.4980 O   0  0  0  0  0  0  0  0  0  0  0  0
  185.6050  175.1630  137.0090 N   0  0  0  0  0  2  0  0  0  0  0  0
  184.3610  175.8500  136.7050 C   0  0  0  0  0  2  0  0  0  0  0  0
  183.7520  176.4000  137.9810 C   0  0  0  0  0  2  0  0  0  0  0  0
  182.2840  176.0250  138.0670 C   0  0  0  0  0  2  0  0  0  0  0  0
  181.9080  175.6960  139.5000 C   0  0  0  0  0  1  0  0  0  0  0  0
  188.7340  177.4320  135.2330 O   0  0  0  0  0  0  0  0  0  0  0  0
  187.5320  177.6020  135.5710 C   0  0  0  0  0  0  0  0  0  0  0  0
  186.5930  178.0690  134.6110 N   0  0  0  0  0  1  0  0  0  0  0  0
  1 38  1  1  0  0  0
  1  8  1  0  0  0  0
  1 11  1  0  0  0  0
  3  9  2  0  0  0  0
  4  3  1  0  0  0  0
  4  8  2  0  0  0  0
  5  7  2  0  0  0  0
  7 24  1  0  0  0  0
  8 10  1  0  0  0  0
  9  5  1  0  0  0  0
 10  6  1  0  0  0  0
 10  7  1  0  0  0  0
 11  2  1  6  0  0  0
 11  6  1  0  0  0  0
 12 13  1  0  0  0  0
 13 15  2  0  0  0  0
 13  3  1  0  0  0  0
 14 16  2  0  0  0  0
 15 22  1  0  0  0  0
 16 15  1  0  0  0  0
 17 14  1  0  0  0  0
 17 12  2  0  0  0  0
 18 19  1  0  0  0  0
 19 14  1  0  0  0  0
 20 19  1  0  0  0  0
 21 22  1  0  0  0  0
 23 25  1  0  0  0  0
 24 23  2  0  0  0  0
 25 26  1  0  0  0  0
 27 26  1  0  0  0  0
 27 28  1  1  0  0  0
 29 27  1  0  0  0  0
 30 29  1  0  0  0  0
 31 35  1  0  0  0  0
 32 30  1  0  0  0  0
 33 34  1  0  0  0  0
 33 37  1  0  0  0  0
 34 31  1  0  0  0  0
 35 32  1  0  0  0  0
 36 32  2  0  0  0  0
 37 35  1  0  0  0  0
 39 38  1  0  0  0  0
 40 41  2  0  0  0  0
 41 39  1  0  0  0  0
 42 43  1  0  0  0  0
 42 40  1  1  0  0  0
 43 44  2  0  0  0  0
 45 43  1  0  0  0  0
 46 45  1  0  0  0  0
 46 47  1  0  0  0  0
 47 48  1  0  0  0  0
 48 49  1  0  0  0  0
 50 51  2  0  0  0  0
 51 42  1  0  0  0  0
 52 51  1  0  0  0  0
M  END
>  <MODEL>
1

>  <REMARK>
 VINA RESULT:      -7.3      0.000      0.000
  Name = 
  19 active torsions:
  status: ('A' for Active; 'I' for Inactive)
    1  A    between atoms: C_2  and  C_16
    2  A    between atoms: C_4  and  C_18
    3  A    between atoms: N_7  and  C_21
    4  A    between atoms: C_8  and  C_14
    5  A    between atoms: C_11  and  C_16
    6  A    between atoms: C_13  and  C_17
    7  A    between atoms: C_13  and  C_36
    8  A    between atoms: C_16  and  C_35
    9  A    between atoms: C_17  and  O_46
   10  A    between atoms: C_18  and  N_42
   11  A    between atoms: C_20  and  O_43
   12  A    between atoms: C_24  and  C_40
   13  A    between atoms: N_26  and  N_42
   14  A    between atoms: C_28  and  C_34
   15  A    between atoms: C_28  and  C_51
   16  A    between atoms: C_31  and  C_41
   17  A    between atoms: C_36  and  O_43
   18  A    between atoms: N_38  and  O_46
   19  A    between atoms: N_47  and  C_51
                            x       y       z     vdW  Elec       q    Type
                         _______ _______ _______ _____ _____    ______ ____

>  <TORSDO>
F 19

$$$$
=
 OpenBabel10222417473D

 52 55  0  0  1  0  0  0  0  0999 V2000
  189.3640  177.8440  139.1160 C   0  0  2  0  0  3  0  0  0  0  0  0
  189.0580  179.6580  137.5260 N   0  0  0  0  0  1  0  0  0  0  0  0
  188.2870  177.7760  142.8280 C   0  0  0  0  0  0  0  0  0  0  0  0
  188.9510  177.6950  141.5200 C   0  0  0  0  0  3  0  0  0  0  0  0
  185.9380  178.2910  142.0290 C   0  0  0  0  0  3  0  0  0  0  0  0
  187.1410  178.6720  138.5470 N   0  0  0  0  0  2  0  0  0  0  0  0
  185.9920  178.4550  140.7050 C   0  0  0  0  0  0  0  0  0  0  0  0
  188.4830  177.9210  140.2940 C   0  0  0  0  0  0  0  0  0  0  0  0
  186.9890  178.0100  143.0050 C   0  0  0  0  0  3  0  0  0  0  0  0
  187.1970  178.3830  139.9210 N   0  0  0  0  0  0  0  0  0  0  0  0
  188.4840  178.4160  138.0110 C   0  0  2  0  0  3  0  0  0  0  0  0
  190.4410  177.0410  143.8180 C   0  0  0  0  0  3  0  0  0  0  0  0
  189.1260  177.4900  144.0220 C   0  0  0  0  0  0  0  0  0  0  0  0
  190.8210  176.9000  146.2080 C   0  0  0  0  0  0  0  0  0  0  0  0
  188.6670  177.6590  145.3530 C   0  0  0  0  0  0  0  0  0  0  0  0
  189.5160  177.3600  146.4250 C   0  0  0  0  0  3  0  0  0  0  0  0
  191.2770  176.7500  144.8940 C   0  0  0  0  0  3  0  0  0  0  0  0
  192.4730  175.3710  147.3410 C   0  0  0  0  0  1  0  0  0  0  0  0
  191.6870  176.5930  147.3110 N   0  0  0  0  0  0  0  0  0  0  0  0
  191.7940  177.4530  148.3510 O   0  0  0  0  0  1  0  0  0  0  0  0
  186.6360  177.2770  146.5000 O   0  0  0  0  0  1  0  0  0  0  0  0
  187.3040  178.1800  145.6730 C   0  0  0  0  0  2  0  0  0  0  0  0
  183.6220  178.9760  140.6370 N   0  0  0  0  0  0  0  0  0  0  0  0
  184.7280  178.7580  140.0020 C   0  0  0  0  0  3  0  0  0  0  0  0
  182.4710  179.2500  139.9400 O   0  0  0  0  0  0  0  0  0  0  0  0
  182.5220  179.4370  138.5340 C   0  0  0  0  0  2  0  0  0  0  0  0
  181.5890  178.4630  137.8290 C   0  0  1  0  0  3  0  0  0  0  0  0
  181.5320  178.7580  136.4660 O   0  0  0  0  0  1  0  0  0  0  0  0
  182.0330  177.0190  138.0240 C   0  0  0  0  0  2  0  0  0  0  0  0
  182.6900  176.5390  136.8570 O   0  0  0  0  0  0  0  0  0  0  0  0
  183.9620  173.9820  137.4300 C   0  0  0  0  0  2  0  0  0  0  0  0
  184.0820  176.4230  136.7800 C   0  0  0  0  0  0  0  0  0  0  0  0
  186.3420  173.4800  137.2740 C   0  0  0  0  0  2  0  0  0  0  0  0
  185.0080  172.9340  137.7660 C   0  0  0  0  0  2  0  0  0  0  0  0
  184.7060  175.1680  137.0670 N   0  0  0  0  0  0  0  0  0  0  0  0
  184.7880  177.4170  136.4540 O   0  0  0  0  0  0  0  0  0  0  0  0
  186.1380  174.9640  137.0340 C   0  0  0  0  0  2  0  0  0  0  0  0
  189.7030  176.3990  138.7790 C   0  0  0  0  0  2  0  0  0  0  0  0
  190.1580  176.2990  137.3970 N   0  0  0  0  0  2  0  0  0  0  0  0
  192.0320  174.9000  137.7290 C   0  0  0  0  0  3  0  0  0  0  0  0
  191.4290  175.8190  137.0450 N   0  0  0  0  0  0  0  0  0  0  0  0
  193.3870  174.4160  137.3220 C   0  0  2  0  0  3  0  0  0  0  0  0
  194.4770  174.8170  138.2800 C   0  0  0  0  0  0  0  0  0  0  0  0
  194.4090  175.9520  138.8190 O   0  0  0  0  0  0  0  0  0  0  0  0
  195.5860  173.9680  138.5980 N   0  0  0  0  0  2  0  0  0  0  0  0
  195.7530  172.6110  138.1060 C   0  0  0  0  0  2  0  0  0  0  0  0
  196.6830  172.6080  136.9080 C   0  0  0  0  0  2  0  0  0  0  0  0
  197.8480  173.5510  137.1440 C   0  0  0  0  0  2  0  0  0  0  0  0
  198.0000  174.5040  135.9720 C   0  0  0  0  0  1  0  0  0  0  0  0
  193.2220  174.1270  134.9430 O   0  0  0  0  0  0  0  0  0  0  0  0
  193.7260  174.7640  135.9060 C   0  0  0  0  0  0  0  0  0  0  0  0
  194.6080  175.8490  135.6450 N   0  0  0  0  0  1  0  0  0  0  0  0
  1 38  1  6  0  0  0
  1  8  1  0  0  0  0
  3  9  2  0  0  0  0
  3 13  1  0  0  0  0
  4  3  1  0  0  0  0
  5  9  1  0  0  0  0
  6 10  1  0  0  0  0
  7  5  2  0  0  0  0
  8  4  2  0  0  0  0
 10  8  1  0  0  0  0
 10  7  1  0  0  0  0
 11  2  1  1  0  0  0
 11  6  1  0  0  0  0
 11  1  1  0  0  0  0
 12 13  2  0  0  0  0
 12 17  1  0  0  0  0
 13 15  1  0  0  0  0
 14 16  1  0  0  0  0
 14 19  1  0  0  0  0
 15 22  1  0  0  0  0
 15 16  2  0  0  0  0
 17 14  2  0  0  0  0
 19 18  1  0  0  0  0
 19 20  1  0  0  0  0
 22 21  1  0  0  0  0
 24 23  2  0  0  0  0
 24  7  1  0  0  0  0
 25 23  1  0  0  0  0
 26 25  1  0  0  0  0
 27 28  1  6  0  0  0
 27 29  1  0  0  0  0
 27 26  1  0  0  0  0
 30 29  1  0  0  0  0
 31 34  1  0  0  0  0
 32 30  1  0  0  0  0
 32 35  1  0  0  0  0
 33 34  1  0  0  0  0
 35 31  1  0  0  0  0
 36 32  2  0  0  0  0
 37 35  1  0  0  0  0
 37 33  1  0  0  0  0
 39 38  1  0  0  0  0
 41 39  1  0  0  0  0
 41 40  2  0  0  0  0
 42 40  1  1  0  0  0
 42 43  1  0  0  0  0
 43 45  1  0  0  0  0
 43 44  2  0  0  0  0
 46 45  1  0  0  0  0
 47 48  1  0  0  0  0
 47 46  1  0  0  0  0
 49 48  1  0  0  0  0
 50 51  2  0  0  0  0
 51 42  1  0  0  0  0
 52 51  1  0  0  0  0
M  END
>  <MODEL>
2

>  <REMARK>
 VINA RESULT:      -7.2      4.205      9.762
  Name = 
  19 active torsions:
  status: ('A' for Active; 'I' for Inactive)
    1  A    between atoms: C_2  and  C_16
    2  A    between atoms: C_4  and  C_18
    3  A    between atoms: N_7  and  C_21
    4  A    between atoms: C_8  and  C_14
    5  A    between atoms: C_11  and  C_16
    6  A    between atoms: C_13  and  C_17
    7  A    between atoms: C_13  and  C_36
    8  A    between atoms: C_16  and  C_35
    9  A    between atoms: C_17  and  O_46
   10  A    between atoms: C_18  and  N_42
   11  A    between atoms: C_20  and  O_43
   12  A    between atoms: C_24  and  C_40
   13  A    between atoms: N_26  and  N_42
   14  A    between atoms: C_28  and  C_34
   15  A    between atoms: C_28  and  C_51
   16  A    between atoms: C_31  and  C_41
   17  A    between atoms: C_36  and  O_43
   18  A    between atoms: N_38  and  O_46
   19  A    between atoms: N_47  and  C_51
                            x       y       z     vdW  Elec       q    Type
                         _______ _______ _______ _____ _____    ______ ____

>  <TORSDO>
F 19

$$$$
=
 OpenBabel10222417473D

 52 55  0  0  1  0  0  0  0  0999 V2000
  190.2710  176.6890  141.7380 C   0  0  2  0  0  3  0  0  0  0  0  0
  188.2940  176.0130  142.9810 N   0  0  0  0  0  1  0  0  0  0  0  0
  190.8940  176.3070  137.9420 C   0  0  0  0  0  0  0  0  0  0  0  0
  190.9300  176.3440  139.4100 C   0  0  0  0  0  3  0  0  0  0  0  0
  188.7470  177.6050  137.5830 C   0  0  0  0  0  3  0  0  0  0  0  0
  188.0720  177.6120  141.2250 N   0  0  0  0  0  2  0  0  0  0  0  0
  188.2160  177.8410  138.7850 C   0  0  0  0  0  0  0  0  0  0  0  0
  190.0520  176.8260  140.2880 C   0  0  0  0  0  0  0  0  0  0  0  0
  189.9550  176.8790  137.1930 C   0  0  0  0  0  3  0  0  0  0  0  0
  188.7760  177.3850  140.0300 N   0  0  0  0  0  0  0  0  0  0  0  0
  188.9330  177.1340  142.3140 C   0  0  2  0  0  3  0  0  0  0  0  0
  193.2550  176.3560  137.1790 C   0  0  0  0  0  3  0  0  0  0  0  0
  192.0430  175.6520  137.2610 C   0  0  0  0  0  0  0  0  0  0  0  0
  194.3000  174.5240  135.9840 C   0  0  0  0  0  0  0  0  0  0  0  0
  191.9770  174.3500  136.7040 C   0  0  0  0  0  0  0  0  0  0  0  0
  193.1010  173.8060  136.0720 C   0  0  0  0  0  3  0  0  0  0  0  0
  194.3680  175.8010  136.5500 C   0  0  0  0  0  3  0  0  0  0  0  0
  195.6840  172.5270  135.3120 C   0  0  0  0  0  1  0  0  0  0  0  0
  195.4500  173.9620  135.3340 N   0  0  0  0  0  0  0  0  0  0  0  0
  196.3430  174.7690  134.7150 O   0  0  0  0  0  1  0  0  0  0  0  0
  190.0280  173.5980  135.5960 O   0  0  0  0  0  1  0  0  0  0  0  0
  190.7490  173.5020  136.7860 C   0  0  0  0  0  2  0  0  0  0  0  0
  185.8510  178.1400  138.3270 N   0  0  0  0  0  0  0  0  0  0  0  0
  186.9490  178.5990  138.8350 C   0  0  0  0  0  3  0  0  0  0  0  0
  184.6980  178.8830  138.3950 O   0  0  0  0  0  0  0  0  0  0  0  0
  183.9710  178.9530  139.6120 C   0  0  0  0  0  2  0  0  0  0  0  0
  182.4940  178.6770  139.3720 C   0  0  1  0  0  3  0  0  0  0  0  0
  181.7180  179.4190  140.2650 O   0  0  0  0  0  1  0  0  0  0  0  0
  182.0860  179.0080  137.9410 C   0  0  0  0  0  2  0  0  0  0  0  0
  181.1900  180.1120  137.9220 O   0  0  0  0  0  0  0  0  0  0  0  0
  181.3920  183.0100  137.7160 C   0  0  0  0  0  2  0  0  0  0  0  0
  180.8210  180.7510  136.7340 C   0  0  0  0  0  0  0  0  0  0  0  0
  180.9140  184.3600  135.7440 C   0  0  0  0  0  2  0  0  0  0  0  0
  181.2090  184.4390  137.2360 C   0  0  0  0  0  2  0  0  0  0  0  0
  180.9160  182.1750  136.6350 N   0  0  0  0  0  0  0  0  0  0  0  0
  180.4120  180.0780  135.7480 O   0  0  0  0  0  0  0  0  0  0  0  0
  180.5350  182.9200  135.4550 C   0  0  0  0  0  2  0  0  0  0  0  0
  191.3570  177.6390  142.2200 C   0  0  0  0  0  2  0  0  0  0  0  0
  190.9490  178.2780  143.4660 N   0  0  0  0  0  2  0  0  0  0  0  0
  189.9270  177.9620  145.5730 C   0  0  0  0  0  3  0  0  0  0  0  0
  190.7550  177.5640  144.6600 N   0  0  0  0  0  0  0  0  0  0  0  0
  189.7490  177.1740  146.8310 C   0  0  2  0  0  3  0  0  0  0  0  0
  188.9360  177.8920  147.8750 C   0  0  0  0  0  0  0  0  0  0  0  0
  189.5280  178.3250  148.8980 O   0  0  0  0  0  0  0  0  0  0  0  0
  187.5230  178.0980  147.7580 N   0  0  0  0  0  2  0  0  0  0  0  0
  186.7280  177.7160  146.6030 C   0  0  0  0  0  2  0  0  0  0  0  0
  185.3590  178.3640  146.6850 C   0  0  0  0  0  2  0  0  0  0  0  0
  184.9140  178.8300  145.3110 C   0  0  0  0  0  2  0  0  0  0  0  0
  185.7800  178.2010  144.2350 C   0  0  0  0  0  1  0  0  0  0  0  0
  191.8990  177.4410  147.8690 O   0  0  0  0  0  0  0  0  0  0  0  0
  191.0420  176.6570  147.3810 C   0  0  0  0  0  0  0  0  0  0  0  0
  191.2910  175.2570  147.3800 N   0  0  0  0  0  1  0  0  0  0  0  0
  1 38  1  1  0  0  0
  1 11  1  0  0  0  0
  3  4  1  0  0  0  0
  4  8  2  0  0  0  0
  5  7  2  0  0  0  0
  6 11  1  0  0  0  0
  7 24  1  0  0  0  0
  7 10  1  0  0  0  0
  8  1  1  0  0  0  0
  9  5  1  0  0  0  0
  9  3  2  0  0  0  0
 10  8  1  0  0  0  0
 10  6  1  0  0  0  0
 11  2  1  6  0  0  0
 12 13  1  0  0  0  0
 13  3  1  0  0  0  0
 14 16  2  0  0  0  0
 14 17  1  0  0  0  0
 15 22  1  0  0  0  0
 15 13  2  0  0  0  0
 16 15  1  0  0  0  0
 17 12  2  0  0  0  0
 18 19  1  0  0  0  0
 19 14  1  0  0  0  0
 20 19  1  0  0  0  0
 21 22  1  0  0  0  0
 23 25  1  0  0  0  0
 23 24  2  0  0  0  0
 25 26  1  0  0  0  0
 27 26  1  0  0  0  0
 27 28  1  1  0  0  0
 29 27  1  0  0  0  0
 30 29  1  0  0  0  0
 32 30  1  0  0  0  0
 33 34  1  0  0  0  0
 34 31  1  0  0  0  0
 35 32  1  0  0  0  0
 35 31  1  0  0  0  0
 36 32  2  0  0  0  0
 37 33  1  0  0  0  0
 37 35  1  0  0  0  0
 38 39  1  0  0  0  0
 39 41  1  0  0  0  0
 41 40  2  0  0  0  0
 42 40  1  6  0  0  0
 42 51  1  0  0  0  0
 42 43  1  0  0  0  0
 43 44  2  0  0  0  0
 45 43  1  0  0  0  0
 46 47  1  0  0  0  0
 46 45  1  0  0  0  0
 48 47  1  0  0  0  0
 49 48  1  0  0  0  0
 51 50  2  0  0  0  0
 52 51  1  0  0  0  0
M  END
>  <MODEL>
3

>  <REMARK>
 VINA RESULT:      -7.0      3.843     11.255
  Name = 
  19 active torsions:
  status: ('A' for Active; 'I' for Inactive)
    1  A    between atoms: C_2  and  C_16
    2  A    between atoms: C_4  and  C_18
    3  A    between atoms: N_7  and  C_21
    4  A    between atoms: C_8  and  C_14
    5  A    between atoms: C_11  and  C_16
    6  A    between atoms: C_13  and  C_17
    7  A    between atoms: C_13  and  C_36
    8  A    between atoms: C_16  and  C_35
    9  A    between atoms: C_17  and  O_46
   10  A    between atoms: C_18  and  N_42
   11  A    between atoms: C_20  and  O_43
   12  A    between atoms: C_24  and  C_40
   13  A    between atoms: N_26  and  N_42
   14  A    between atoms: C_28  and  C_34
   15  A    between atoms: C_28  and  C_51
   16  A    between atoms: C_31  and  C_41
   17  A    between atoms: C_36  and  O_43
   18  A    between atoms: N_38  and  O_46
   19  A    between atoms: N_47  and  C_51
                            x       y       z     vdW  Elec       q    Type
                         _______ _______ _______ _____ _____    ______ ____

>  <TORSDO>
F 19

$$$$
=
 OpenBabel10222417473D

 52 55  0  0  1  0  0  0  0  0999 V2000
  190.2200  176.7210  141.6690 C   0  0  2  0  0  3  0  0  0  0  0  0
  188.1340  176.2300  142.8170 N   0  0  0  0  0  1  0  0  0  0  0  0
  191.0100  176.1980  137.9210 C   0  0  0  0  0  0  0  0  0  0  0  0
  190.9720  176.2690  139.3880 C   0  0  0  0  0  3  0  0  0  0  0  0
  188.9910  177.6450  137.4190 C   0  0  0  0  0  3  0  0  0  0  0  0
  188.1280  177.7950  141.0180 N   0  0  0  0  0  2  0  0  0  0  0  0
  188.4170  177.9510  138.5850 C   0  0  0  0  0  0  0  0  0  0  0  0
  190.0890  176.8380  140.2060 C   0  0  0  0  0  0  0  0  0  0  0  0
  190.1580  176.8200  137.1100 C   0  0  0  0  0  3  0  0  0  0  0  0
  188.8750  177.4860  139.8680 N   0  0  0  0  0  0  0  0  0  0  0  0
  188.8910  177.2810  142.1620 C   0  0  2  0  0  3  0  0  0  0  0  0
  193.4200  176.0140  137.3600 C   0  0  0  0  0  3  0  0  0  0  0  0
  192.1390  175.4410  137.3180 C   0  0  0  0  0  0  0  0  0  0  0  0
  194.3690  174.1100  136.1980 C   0  0  0  0  0  0  0  0  0  0  0  0
  191.9870  174.1670  136.7150 C   0  0  0  0  0  0  0  0  0  0  0  0
  193.0980  173.5210  136.1620 C   0  0  0  0  0  3  0  0  0  0  0  0
  194.5200  175.3590  136.8090 C   0  0  0  0  0  3  0  0  0  0  0  0
  196.5740  174.1870  134.9800 C   0  0  0  0  0  1  0  0  0  0  0  0
  195.5060  173.4440  135.6280 N   0  0  0  0  0  0  0  0  0  0  0  0
  195.6070  172.0960  135.6910 O   0  0  0  0  0  1  0  0  0  0  0  0
  190.1320  173.5490  135.3860 O   0  0  0  0  0  1  0  0  0  0  0  0
  190.6750  173.4520  136.6670 C   0  0  0  0  0  2  0  0  0  0  0  0
  186.0260  178.3290  138.7540 N   0  0  0  0  0  0  0  0  0  0  0  0
  187.2120  178.8050  138.5500 C   0  0  0  0  0  3  0  0  0  0  0  0
  184.9340  179.1610  138.7080 O   0  0  0  0  0  0  0  0  0  0  0  0
  183.6520  178.6310  138.4070 C   0  0  0  0  0  2  0  0  0  0  0  0
  183.4700  177.2670  139.0570 C   0  0  1  0  0  3  0  0  0  0  0  0
  183.1370  177.4200  140.4040 O   0  0  0  0  0  1  0  0  0  0  0  0
  182.3950  176.4480  138.3520 C   0  0  0  0  0  2  0  0  0  0  0  0
  182.9370  175.7900  137.2140 O   0  0  0  0  0  0  0  0  0  0  0  0
  185.7720  175.1370  137.0920 C   0  0  0  0  0  2  0  0  0  0  0  0
  183.3430  174.4520  137.2500 C   0  0  0  0  0  0  0  0  0  0  0  0
  186.7550  172.9110  137.2370 C   0  0  0  0  0  2  0  0  0  0  0  0
  187.0700  174.3680  136.9190 C   0  0  0  0  0  2  0  0  0  0  0  0
  184.7360  174.1320  137.1850 N   0  0  0  0  0  0  0  0  0  0  0  0
  182.4900  173.5280  137.3470 O   0  0  0  0  0  0  0  0  0  0  0  0
  185.2440  172.7780  137.1940 C   0  0  0  0  0  2  0  0  0  0  0  0
  191.3490  177.5990  142.1890 C   0  0  0  0  0  2  0  0  0  0  0  0
  190.9540  178.2380  143.4390 N   0  0  0  0  0  2  0  0  0  0  0  0
  189.9300  177.9160  145.5440 C   0  0  0  0  0  3  0  0  0  0  0  0
  190.7620  177.5240  144.6330 N   0  0  0  0  0  0  0  0  0  0  0  0
  189.7560  177.1280  146.8030 C   0  0  2  0  0  3  0  0  0  0  0  0
  188.9870  177.8640  147.8660 C   0  0  0  0  0  0  0  0  0  0  0  0
  189.6060  178.2480  148.8930 O   0  0  0  0  0  0  0  0  0  0  0  0
  187.5840  178.1410  147.7650 N   0  0  0  0  0  2  0  0  0  0  0  0
  186.7630  177.8210  146.6090 C   0  0  0  0  0  2  0  0  0  0  0  0
  185.4840  178.6350  146.6460 C   0  0  0  0  0  2  0  0  0  0  0  0
  184.8150  178.6260  145.2840 C   0  0  0  0  0  2  0  0  0  0  0  0
  185.8210  178.2700  144.2050 C   0  0  0  0  0  1  0  0  0  0  0  0
  191.9650  177.3310  147.7230 O   0  0  0  0  0  0  0  0  0  0  0  0
  191.0440  176.5710  147.3230 C   0  0  0  0  0  0  0  0  0  0  0  0
  191.2170  175.1610  147.3950 N   0  0  0  0  0  1  0  0  0  0  0  0
  1 11  1  0  0  0  0
  1 38  1  1  0  0  0
  3  4  1  0  0  0  0
  4  8  2  0  0  0  0
  5  7  2  0  0  0  0
  6 11  1  0  0  0  0
  7 10  1  0  0  0  0
  8  1  1  0  0  0  0
  9  5  1  0  0  0  0
  9  3  2  0  0  0  0
 10  8  1  0  0  0  0
 10  6  1  0  0  0  0
 11  2  1  6  0  0  0
 13 12  1  0  0  0  0
 13  3  1  0  0  0  0
 14 17  1  0  0  0  0
 15 13  2  0  0  0  0
 16 14  2  0  0  0  0
 16 15  1  0  0  0  0
 17 12  2  0  0  0  0
 18 19  1  0  0  0  0
 19 20  1  0  0  0  0
 19 14  1  0  0  0  0
 21 22  1  0  0  0  0
 22 15  1  0  0  0  0
 24  7  1  0  0  0  0
 24 23  2  0  0  0  0
 25 23  1  0  0  0  0
 26 25  1  0  0  0  0
 26 27  1  0  0  0  0
 27 28  1  1  0  0  0
 29 27  1  0  0  0  0
 30 32  1  0  0  0  0
 30 29  1  0  0  0  0
 31 35  1  0  0  0  0
 32 36  2  0  0  0  0
 34 31  1  0  0  0  0
 34 33  1  0  0  0  0
 35 37  1  0  0  0  0
 35 32  1  0  0  0  0
 37 33  1  0  0  0  0
 38 39  1  0  0  0  0
 39 41  1  0  0  0  0
 41 40  2  0  0  0  0
 42 40  1  6  0  0  0
 42 51  1  0  0  0  0
 42 43  1  0  0  0  0
 43 44  2  0  0  0  0
 45 43  1  0  0  0  0
 46 47  1  0  0  0  0
 46 45  1  0  0  0  0
 48 47  1  0  0  0  0
 49 48  1  0  0  0  0
 51 52  1  0  0  0  0
 51 50  2  0  0  0  0
M  END
>  <MODEL>
4

>  <REMARK>
 VINA RESULT:      -6.9      3.813     10.691
  Name = 
  19 active torsions:
  status: ('A' for Active; 'I' for Inactive)
    1  A    between atoms: C_2  and  C_16
    2  A    between atoms: C_4  and  C_18
    3  A    between atoms: N_7  and  C_21
    4  A    between atoms: C_8  and  C_14
    5  A    between atoms: C_11  and  C_16
    6  A    between atoms: C_13  and  C_17
    7  A    between atoms: C_13  and  C_36
    8  A    between atoms: C_16  and  C_35
    9  A    between atoms: C_17  and  O_46
   10  A    between atoms: C_18  and  N_42
   11  A    between atoms: C_20  and  O_43
   12  A    between atoms: C_24  and  C_40
   13  A    between atoms: N_26  and  N_42
   14  A    between atoms: C_28  and  C_34
   15  A    between atoms: C_28  and  C_51
   16  A    between atoms: C_31  and  C_41
   17  A    between atoms: C_36  and  O_43
   18  A    between atoms: N_38  and  O_46
   19  A    between atoms: N_47  and  C_51
                            x       y       z     vdW  Elec       q    Type
                         _______ _______ _______ _____ _____    ______ ____

>  <TORSDO>
F 19

$$$$
=
 OpenBabel10222417473D

 52 55  0  0  1  0  0  0  0  0999 V2000
  188.8540  178.0140  139.0100 C   0  0  2  0  0  3  0  0  0  0  0  0
  188.8560  179.7140  137.2720 N   0  0  0  0  0  1  0  0  0  0  0  0
  187.0260  178.1450  142.4140 C   0  0  0  0  0  0  0  0  0  0  0  0
  187.9500  178.0030  141.2810 C   0  0  0  0  0  3  0  0  0  0  0  0
  184.8870  178.5350  141.1110 C   0  0  0  0  0  3  0  0  0  0  0  0
  186.7850  178.7340  137.9370 N   0  0  0  0  0  2  0  0  0  0  0  0
  185.2140  178.6170  139.8190 C   0  0  0  0  0  0  0  0  0  0  0  0
  187.7450  178.1370  139.9720 C   0  0  0  0  0  0  0  0  0  0  0  0
  185.7160  178.3490  142.3010 C   0  0  0  0  0  3  0  0  0  0  0  0
  186.5570  178.5340  139.3090 N   0  0  0  0  0  0  0  0  0  0  0  0
  188.2150  178.4870  137.7110 C   0  0  2  0  0  3  0  0  0  0  0  0
  188.9630  177.6380  143.8790 C   0  0  0  0  0  3  0  0  0  0  0  0
  187.6010  177.9610  143.7730 C   0  0  0  0  0  0  0  0  0  0  0  0
  188.8150  177.5730  146.2970 C   0  0  0  0  0  0  0  0  0  0  0  0
  186.8450  178.1070  144.9640 C   0  0  0  0  0  0  0  0  0  0  0  0
  187.4580  177.9090  146.2060 C   0  0  0  0  0  3  0  0  0  0  0  0
  189.5630  177.4470  145.1230 C   0  0  0  0  0  3  0  0  0  0  0  0
  190.7770  176.8120  147.6850 C   0  0  0  0  0  1  0  0  0  0  0  0
  189.4390  177.3700  147.5740 N   0  0  0  0  0  0  0  0  0  0  0  0
  188.7860  177.7050  148.7110 O   0  0  0  0  0  1  0  0  0  0  0  0
  185.0650  179.0780  146.1800 O   0  0  0  0  0  1  0  0  0  0  0  0
  185.4030  178.4990  144.9560 C   0  0  0  0  0  2  0  0  0  0  0  0
  183.1770  179.6980  139.0590 N   0  0  0  0  0  0  0  0  0  0  0  0
  184.1200  178.8360  138.8500 C   0  0  0  0  0  3  0  0  0  0  0  0
  182.1790  179.8640  138.1310 O   0  0  0  0  0  0  0  0  0  0  0  0
  181.4980  178.7320  137.6130 C   0  0  0  0  0  2  0  0  0  0  0  0
  180.1760  178.5230  138.3370 C   0  0  1  0  0  3  0  0  0  0  0  0
  180.3000  177.4930  139.2710 O   0  0  0  0  0  1  0  0  0  0  0  0
  179.7110  179.7950  139.0350 C   0  0  0  0  0  2  0  0  0  0  0  0
  179.3530  180.7860  138.0780 O   0  0  0  0  0  0  0  0  0  0  0  0
  180.3220  182.5670  135.9880 C   0  0  0  0  0  2  0  0  0  0  0  0
  179.4840  182.1530  138.3370 C   0  0  0  0  0  0  0  0  0  0  0  0
  180.5490  184.9890  136.1370 C   0  0  0  0  0  2  0  0  0  0  0  0
  180.8930  183.7800  135.2760 C   0  0  0  0  0  2  0  0  0  0  0  0
  179.9650  183.0270  137.3110 N   0  0  0  0  0  0  0  0  0  0  0  0
  179.1740  182.6220  139.4670 O   0  0  0  0  0  0  0  0  0  0  0  0
  180.1520  184.4490  137.4980 C   0  0  0  0  0  2  0  0  0  0  0  0
  189.2820  176.5610  138.8500 C   0  0  0  0  0  2  0  0  0  0  0  0
  189.7100  176.3120  137.4790 N   0  0  0  0  0  2  0  0  0  0  0  0
  192.0630  176.1630  137.3350 C   0  0  0  0  0  3  0  0  0  0  0  0
  190.8960  175.6300  137.1630 N   0  0  0  0  0  0  0  0  0  0  0  0
  193.3030  175.4040  136.9850 C   0  0  2  0  0  3  0  0  0  0  0  0
  194.1820  175.1170  138.1730 C   0  0  0  0  0  0  0  0  0  0  0  0
  194.2970  176.0040  139.0580 O   0  0  0  0  0  0  0  0  0  0  0  0
  194.8960  173.8860  138.3360 N   0  0  0  0  0  2  0  0  0  0  0  0
  194.7990  172.7510  137.4320 C   0  0  0  0  0  2  0  0  0  0  0  0
  195.7540  171.6580  137.8740 C   0  0  0  0  0  2  0  0  0  0  0  0
  196.8950  171.5240  136.8820 C   0  0  0  0  0  2  0  0  0  0  0  0
  196.5520  172.2330  135.5850 C   0  0  0  0  0  1  0  0  0  0  0  0
  194.5610  177.1780  135.9660 O   0  0  0  0  0  0  0  0  0  0  0  0
  194.0660  176.0250  135.8570 C   0  0  0  0  0  0  0  0  0  0  0  0
  194.2600  175.2890  134.6560 N   0  0  0  0  0  1  0  0  0  0  0  0
  1 38  1  6  0  0  0
  1  8  1  0  0  0  0
  3 13  1  0  0  0  0
  4  3  1  0  0  0  0
  5  9  1  0  0  0  0
  6 10  1  0  0  0  0
  7  5  2  0  0  0  0
  8  4  2  0  0  0  0
  9  3  2  0  0  0  0
 10  7  1  0  0  0  0
 10  8  1  0  0  0  0
 11  2  1  1  0  0  0
 11  6  1  0  0  0  0
 11  1  1  0  0  0  0
 12 17  1  0  0  0  0
 13 12  2  0  0  0  0
 13 15  1  0  0  0  0
 14 19  1  0  0  0  0
 15 16  2  0  0  0  0
 16 14  1  0  0  0  0
 17 14  2  0  0  0  0
 19 18  1  0  0  0  0
 19 20  1  0  0  0  0
 22 15  1  0  0  0  0
 22 21  1  0  0  0  0
 24 23  2  0  0  0  0
 24  7  1  0  0  0  0
 25 23  1  0  0  0  0
 26 25  1  0  0  0  0
 26 27  1  0  0  0  0
 27 29  1  0  0  0  0
 27 28  1  1  0  0  0
 30 32  1  0  0  0  0
 30 29  1  0  0  0  0
 31 35  1  0  0  0  0
 32 36  2  0  0  0  0
 33 37  1  0  0  0  0
 34 31  1  0  0  0  0
 34 33  1  0  0  0  0
 35 37  1  0  0  0  0
 35 32  1  0  0  0  0
 39 38  1  0  0  0  0
 41 40  2  0  0  0  0
 41 39  1  0  0  0  0
 42 40  1  1  0  0  0
 42 43  1  0  0  0  0
 43 45  1  0  0  0  0
 43 44  2  0  0  0  0
 46 47  1  0  0  0  0
 46 45  1  0  0  0  0
 48 47  1  0  0  0  0
 49 48  1  0  0  0  0
 51 50  2  0  0  0  0
 51 42  1  0  0  0  0
 52 51  1  0  0  0  0
M  END
>  <MODEL>
5

>  <REMARK>
 VINA RESULT:      -6.8      4.324     10.202
  Name = 
  19 active torsions:
  status: ('A' for Active; 'I' for Inactive)
    1  A    between atoms: C_2  and  C_16
    2  A    between atoms: C_4  and  C_18
    3  A    between atoms: N_7  and  C_21
    4  A    between atoms: C_8  and  C_14
    5  A    between atoms: C_11  and  C_16
    6  A    between atoms: C_13  and  C_17
    7  A    between atoms: C_13  and  C_36
    8  A    between atoms: C_16  and  C_35
    9  A    between atoms: C_17  and  O_46
   10  A    between atoms: C_18  and  N_42
   11  A    between atoms: C_20  and  O_43
   12  A    between atoms: C_24  and  C_40
   13  A    between atoms: N_26  and  N_42
   14  A    between atoms: C_28  and  C_34
   15  A    between atoms: C_28  and  C_51
   16  A    between atoms: C_31  and  C_41
   17  A    between atoms: C_36  and  O_43
   18  A    between atoms: N_38  and  O_46
   19  A    between atoms: N_47  and  C_51
                            x       y       z     vdW  Elec       q    Type
                         _______ _______ _______ _____ _____    ______ ____

>  <TORSDO>
F 19

$$$$
=
 OpenBabel10222417473D

 52 55  0  0  1  0  0  0  0  0999 V2000
  189.1680  177.8290  138.9190 C   0  0  2  0  0  3  0  0  0  0  0  0
  188.9120  179.6210  137.2960 N   0  0  0  0  0  1  0  0  0  0  0  0
  188.0960  177.8630  142.6330 C   0  0  0  0  0  0  0  0  0  0  0  0
  188.7550  177.7380  141.3260 C   0  0  0  0  0  3  0  0  0  0  0  0
  185.7610  178.4300  141.8270 C   0  0  0  0  0  3  0  0  0  0  0  0
  186.9690  178.7100  138.3370 N   0  0  0  0  0  2  0  0  0  0  0  0
  185.8170  178.5670  140.5000 C   0  0  0  0  0  0  0  0  0  0  0  0
  188.2920  177.9540  140.0960 C   0  0  0  0  0  0  0  0  0  0  0  0
  186.8050  178.1370  142.8070 C   0  0  0  0  0  3  0  0  0  0  0  0
  187.0180  178.4460  139.7160 N   0  0  0  0  0  0  0  0  0  0  0  0
  188.3030  178.4050  137.8050 C   0  0  2  0  0  3  0  0  0  0  0  0
  190.3190  177.4790  143.6660 C   0  0  0  0  0  3  0  0  0  0  0  0
  188.9270  177.5740  143.8320 C   0  0  0  0  0  0  0  0  0  0  0  0
  190.6210  177.0210  146.0280 C   0  0  0  0  0  0  0  0  0  0  0  0
  188.3870  177.4050  145.1310 C   0  0  0  0  0  0  0  0  0  0  0  0
  189.2360  177.1280  146.2080 C   0  0  0  0  0  3  0  0  0  0  0  0
  191.1550  177.2060  144.7480 C   0  0  0  0  0  3  0  0  0  0  0  0
  192.4300  175.6280  147.0970 C   0  0  0  0  0  1  0  0  0  0  0  0
  191.4890  176.7360  147.1350 N   0  0  0  0  0  0  0  0  0  0  0  0
  191.4490  177.5080  148.2460 O   0  0  0  0  0  1  0  0  0  0  0  0
  186.7180  178.5660  146.3380 O   0  0  0  0  0  1  0  0  0  0  0  0
  186.9260  177.5390  145.4170 C   0  0  0  0  0  2  0  0  0  0  0  0
  183.4090  178.8490  140.3800 N   0  0  0  0  0  0  0  0  0  0  0  0
  184.5620  178.8940  139.7930 C   0  0  0  0  0  3  0  0  0  0  0  0
  182.2680  179.1580  139.6800 O   0  0  0  0  0  0  0  0  0  0  0  0
  182.1030  178.6850  138.3520 C   0  0  0  0  0  2  0  0  0  0  0  0
  181.7620  177.2020  138.3490 C   0  0  1  0  0  3  0  0  0  0  0  0
  180.7370  176.9460  139.2610 O   0  0  0  0  0  1  0  0  0  0  0  0
  181.3480  176.7240  136.9630 C   0  0  0  0  0  2  0  0  0  0  0  0
  182.3730  175.9260  136.3840 O   0  0  0  0  0  0  0  0  0  0  0  0
  185.1720  175.1690  136.6600 C   0  0  0  0  0  2  0  0  0  0  0  0
  182.7040  174.6630  136.8840 C   0  0  0  0  0  0  0  0  0  0  0  0
  186.0250  173.0840  137.5900 C   0  0  0  0  0  2  0  0  0  0  0  0
  186.4320  174.3410  136.8310 C   0  0  0  0  0  2  0  0  0  0  0  0
  184.0800  174.2900  137.0140 N   0  0  0  0  0  0  0  0  0  0  0  0
  181.7990  173.8530  137.2260 O   0  0  0  0  0  0  0  0  0  0  0  0
  184.5130  172.9970  137.5000 C   0  0  0  0  0  2  0  0  0  0  0  0
  189.4650  176.3690  138.6090 C   0  0  0  0  0  2  0  0  0  0  0  0
  190.0020  176.2410  137.2600 N   0  0  0  0  0  2  0  0  0  0  0  0
  191.8450  174.8830  137.8410 C   0  0  0  0  0  3  0  0  0  0  0  0
  191.2460  175.6490  136.9870 N   0  0  0  0  0  0  0  0  0  0  0  0
  193.1700  174.2710  137.5130 C   0  0  2  0  0  3  0  0  0  0  0  0
  194.2660  175.2850  137.3270 C   0  0  0  0  0  0  0  0  0  0  0  0
  194.0880  176.2100  136.4910 O   0  0  0  0  0  0  0  0  0  0  0  0
  195.5010  175.2420  138.0520 N   0  0  0  0  0  2  0  0  0  0  0  0
  195.8110  174.2770  139.0940 C   0  0  0  0  0  2  0  0  0  0  0  0
  197.2220  174.5030  139.6010 C   0  0  0  0  0  2  0  0  0  0  0  0
  197.2470  175.6490  140.5950 C   0  0  0  0  0  2  0  0  0  0  0  0
  198.0770  175.2750  141.8100 C   0  0  0  0  0  1  0  0  0  0  0  0
  194.1390  172.9280  135.7730 O   0  0  0  0  0  0  0  0  0  0  0  0
  193.0970  173.3050  136.3720 C   0  0  0  0  0  0  0  0  0  0  0  0
  191.8330  172.7840  135.9780 N   0  0  0  0  0  1  0  0  0  0  0  0
  1 38  1  6  0  0  0
  1  8  1  0  0  0  0
  3  9  2  0  0  0  0
  3 13  1  0  0  0  0
  4  3  1  0  0  0  0
  5  9  1  0  0  0  0
  6 10  1  0  0  0  0
  7  5  2  0  0  0  0
  8  4  2  0  0  0  0
 10  8  1  0  0  0  0
 10  7  1  0  0  0  0
 11  2  1  1  0  0  0
 11  6  1  0  0  0  0
 11  1  1  0  0  0  0
 12 13  2  0  0  0  0
 12 17  1  0  0  0  0
 13 15  1  0  0  0  0
 14 16  1  0  0  0  0
 14 19  1  0  0  0  0
 15 22  1  0  0  0  0
 15 16  2  0  0  0  0
 17 14  2  0  0  0  0
 18 19  1  0  0  0  0
 19 20  1  0  0  0  0
 22 21  1  0  0  0  0
 24 23  2  0  0  0  0
 24  7  1  0  0  0  0
 25 23  1  0  0  0  0
 26 25  1  0  0  0  0
 27 26  1  0  0  0  0
 27 28  1  1  0  0  0
 29 27  1  0  0  0  0
 30 32  1  0  0  0  0
 30 29  1  0  0  0  0
 31 34  1  0  0  0  0
 31 35  1  0  0  0  0
 32 35  1  0  0  0  0
 32 36  2  0  0  0  0
 34 33  1  0  0  0  0
 35 37  1  0  0  0  0
 37 33  1  0  0  0  0
 39 38  1  0  0  0  0
 41 39  1  0  0  0  0
 41 40  2  0  0  0  0
 42 40  1  6  0  0  0
 43 42  1  0  0  0  0
 43 45  1  0  0  0  0
 44 43  2  0  0  0  0
 45 46  1  0  0  0  0
 46 47  1  0  0  0  0
 47 48  1  0  0  0  0
 48 49  1  0  0  0  0
 50 51  2  0  0  0  0
 51 42  1  0  0  0  0
 52 51  1  0  0  0  0
M  END
>  <MODEL>
6

>  <REMARK>
 VINA RESULT:      -6.7      3.848      9.756
  Name = 
  19 active torsions:
  status: ('A' for Active; 'I' for Inactive)
    1  A    between atoms: C_2  and  C_16
    2  A    between atoms: C_4  and  C_18
    3  A    between atoms: N_7  and  C_21
    4  A    between atoms: C_8  and  C_14
    5  A    between atoms: C_11  and  C_16
    6  A    between atoms: C_13  and  C_17
    7  A    between atoms: C_13  and  C_36
    8  A    between atoms: C_16  and  C_35
    9  A    between atoms: C_17  and  O_46
   10  A    between atoms: C_18  and  N_42
   11  A    between atoms: C_20  and  O_43
   12  A    between atoms: C_24  and  C_40
   13  A    between atoms: N_26  and  N_42
   14  A    between atoms: C_28  and  C_34
   15  A    between atoms: C_28  and  C_51
   16  A    between atoms: C_31  and  C_41
   17  A    between atoms: C_36  and  O_43
   18  A    between atoms: N_38  and  O_46
   19  A    between atoms: N_47  and  C_51
                            x       y       z     vdW  Elec       q    Type
                         _______ _______ _______ _____ _____    ______ ____

>  <TORSDO>
F 19

$$$$
=
 OpenBabel10222417473D

 52 55  0  0  1  0  0  0  0  0999 V2000
  187.1290  177.8490  141.5640 C   0  0  2  0  0  3  0  0  0  0  0  0
  188.0520  176.0690  142.9390 N   0  0  0  0  0  1  0  0  0  0  0  0
  183.3990  178.7410  141.0820 C   0  0  0  0  0  0  0  0  0  0  0  0
  184.8290  178.4270  140.9720 C   0  0  0  0  0  3  0  0  0  0  0  0
  183.2540  178.9700  143.6020 C   0  0  0  0  0  3  0  0  0  0  0  0
  186.7390  177.7720  143.9710 N   0  0  0  0  0  2  0  0  0  0  0  0
  184.4440  178.6360  144.1040 C   0  0  0  0  0  0  0  0  0  0  0  0
  185.7480  178.2260  141.9140 C   0  0  0  0  0  0  0  0  0  0  0  0
  182.7640  178.9910  142.2240 C   0  0  0  0  0  3  0  0  0  0  0  0
  185.5670  178.1920  143.3190 N   0  0  0  0  0  0  0  0  0  0  0  0
  187.7210  177.4830  142.9200 C   0  0  2  0  0  3  0  0  0  0  0  0
  182.4520  180.1530  139.2740 C   0  0  0  0  0  3  0  0  0  0  0  0
  182.6420  178.8680  139.8070 C   0  0  0  0  0  0  0  0  0  0  0  0
  181.2130  179.2470  137.3970 C   0  0  0  0  0  0  0  0  0  0  0  0
  182.1150  177.7570  139.1020 C   0  0  0  0  0  0  0  0  0  0  0  0
  181.4080  177.9590  137.9120 C   0  0  0  0  0  3  0  0  0  0  0  0
  181.7480  180.3410  138.0850 C   0  0  0  0  0  3  0  0  0  0  0  0
  179.2210  178.7770  135.9250 C   0  0  0  0  0  1  0  0  0  0  0  0
  180.4850  179.4510  136.1760 N   0  0  0  0  0  0  0  0  0  0  0  0
  180.9660  180.2900  135.2300 O   0  0  0  0  0  1  0  0  0  0  0  0
  181.0740  175.7760  139.8660 O   0  0  0  0  0  1  0  0  0  0  0  0
  182.3100  176.3480  139.5620 C   0  0  0  0  0  2  0  0  0  0  0  0
  185.5660  179.3740  146.1260 N   0  0  0  0  0  0  0  0  0  0  0  0
  184.6100  178.7000  145.5700 C   0  0  0  0  0  3  0  0  0  0  0  0
  185.6830  179.4020  147.4940 O   0  0  0  0  0  0  0  0  0  0  0  0
  186.9680  179.4670  148.0930 C   0  0  0  0  0  2  0  0  0  0  0  0
  187.5170  178.0690  148.3380 C   0  0  1  0  0  3  0  0  0  0  0  0
  187.1350  177.2170  147.3010 O   0  0  0  0  0  1  0  0  0  0  0  0
  189.0350  178.0750  148.4640 C   0  0  0  0  0  2  0  0  0  0  0  0
  189.6400  178.2540  147.1890 O   0  0  0  0  0  0  0  0  0  0  0  0
  190.5730  178.6600  144.4610 C   0  0  0  0  0  2  0  0  0  0  0  0
  190.2520  177.2020  146.5020 C   0  0  0  0  0  0  0  0  0  0  0  0
  191.7570  177.0400  143.0770 C   0  0  0  0  0  2  0  0  0  0  0  0
  191.0590  178.3940  143.0470 C   0  0  0  0  0  2  0  0  0  0  0  0
  190.7060  177.4010  145.1590 N   0  0  0  0  0  0  0  0  0  0  0  0
  190.4130  176.0820  147.0600 O   0  0  0  0  0  0  0  0  0  0  0  0
  191.3300  176.3640  144.3660 C   0  0  0  0  0  2  0  0  0  0  0  0
  187.8930  179.0370  140.9960 C   0  0  0  0  0  2  0  0  0  0  0  0
  188.6250  178.6370  139.7990 N   0  0  0  0  0  2  0  0  0  0  0  0
  188.1810  176.8270  138.3470 C   0  0  0  0  0  3  0  0  0  0  0  0
  188.0000  178.0650  138.6790 N   0  0  0  0  0  0  0  0  0  0  0  0
  187.4970  176.2560  137.1460 C   0  0  2  0  0  3  0  0  0  0  0  0
  188.3790  175.3470  136.3330 C   0  0  0  0  0  0  0  0  0  0  0  0
  189.5950  175.6490  136.2090 O   0  0  0  0  0  0  0  0  0  0  0  0
  187.8960  174.1610  135.6910 N   0  0  0  0  0  2  0  0  0  0  0  0
  186.5380  173.6550  135.8090 C   0  0  0  0  0  2  0  0  0  0  0  0
  186.4420  172.7090  136.9910 C   0  0  0  0  0  2  0  0  0  0  0  0
  185.0540  172.7710  137.6030 C   0  0  0  0  0  2  0  0  0  0  0  0
  184.4460  174.1450  137.3910 C   0  0  0  0  0  1  0  0  0  0  0  0
  185.6590  177.6800  136.5410 O   0  0  0  0  0  0  0  0  0  0  0  0
  186.8360  177.3020  136.3020 C   0  0  0  0  0  0  0  0  0  0  0  0
  187.5620  177.8980  135.2340 N   0  0  0  0  0  1  0  0  0  0  0  0
  1 38  1  1  0  0  0
  1  8  1  0  0  0  0
  1 11  1  0  0  0  0
  3  9  2  0  0  0  0
  4  3  1  0  0  0  0
  4  8  2  0  0  0  0
  5  7  2  0  0  0  0
  7 24  1  0  0  0  0
  8 10  1  0  0  0  0
  9  5  1  0  0  0  0
 10  6  1  0  0  0  0
 10  7  1  0  0  0  0
 11  2  1  6  0  0  0
 11  6  1  0  0  0  0
 12 13  1  0  0  0  0
 13  3  1  0  0  0  0
 14 16  2  0  0  0  0
 14 17  1  0  0  0  0
 15 22  1  0  0  0  0
 15 13  2  0  0  0  0
 16 15  1  0  0  0  0
 17 12  2  0  0  0  0
 18 19  1  0  0  0  0
 19 14  1  0  0  0  0
 20 19  1  0  0  0  0
 22 21  1  0  0  0  0
 23 25  1  0  0  0  0
 24 23  2  0  0  0  0
 25 26  1  0  0  0  0
 26 27  1  0  0  0  0
 27 28  1  6  0  0  0
 27 29  1  0  0  0  0
 30 29  1  0  0  0  0
 31 35  1  0  0  0  0
 32 36  2  0  0  0  0
 32 30  1  0  0  0  0
 33 37  1  0  0  0  0
 34 33  1  0  0  0  0
 34 31  1  0  0  0  0
 35 32  1  0  0  0  0
 37 35  1  0  0  0  0
 39 38  1  0  0  0  0
 40 41  2  0  0  0  0
 41 39  1  0  0  0  0
 42 40  1  1  0  0  0
 43 42  1  0  0  0  0
 44 43  2  0  0  0  0
 45 46  1  0  0  0  0
 45 43  1  0  0  0  0
 46 47  1  0  0  0  0
 47 48  1  0  0  0  0
 49 48  1  0  0  0  0
 51 50  2  0  0  0  0
 51 42  1  0  0  0  0
 52 51  1  0  0  0  0
M  END
>  <MODEL>
7

>  <REMARK>
 VINA RESULT:      -6.6      1.612      2.091
  Name = 
  19 active torsions:
  status: ('A' for Active; 'I' for Inactive)
    1  A    between atoms: C_2  and  C_16
    2  A    between atoms: C_4  and  C_18
    3  A    between atoms: N_7  and  C_21
    4  A    between atoms: C_8  and  C_14
    5  A    between atoms: C_11  and  C_16
    6  A    between atoms: C_13  and  C_17
    7  A    between atoms: C_13  and  C_36
    8  A    between atoms: C_16  and  C_35
    9  A    between atoms: C_17  and  O_46
   10  A    between atoms: C_18  and  N_42
   11  A    between atoms: C_20  and  O_43
   12  A    between atoms: C_24  and  C_40
   13  A    between atoms: N_26  and  N_42
   14  A    between atoms: C_28  and  C_34
   15  A    between atoms: C_28  and  C_51
   16  A    between atoms: C_31  and  C_41
   17  A    between atoms: C_36  and  O_43
   18  A    between atoms: N_38  and  O_46
   19  A    between atoms: N_47  and  C_51
                            x       y       z     vdW  Elec       q    Type
                         _______ _______ _______ _____ _____    ______ ____

>  <TORSDO>
F 19

$$$$
=
 OpenBabel10222417473D

 52 55  0  0  1  0  0  0  0  0999 V2000
  185.0700  178.5440  138.1760 C   0  0  2  0  0  3  0  0  0  0  0  0
  183.9750  180.6460  138.7190 N   0  0  0  0  0  1  0  0  0  0  0  0
  188.6930  177.5010  139.0310 C   0  0  0  0  0  0  0  0  0  0  0  0
  187.3810  177.7930  138.4380 C   0  0  0  0  0  3  0  0  0  0  0  0
  188.1260  177.9710  141.4560 C   0  0  0  0  0  3  0  0  0  0  0  0
  184.7970  179.2740  140.4880 N   0  0  0  0  0  2  0  0  0  0  0  0
  186.8790  178.4480  141.4910 C   0  0  0  0  0  0  0  0  0  0  0  0
  186.2630  178.2590  138.9920 C   0  0  0  0  0  0  0  0  0  0  0  0
  188.9680  177.5660  140.3310 C   0  0  0  0  0  3  0  0  0  0  0  0
  186.0580  178.6750  140.3310 N   0  0  0  0  0  0  0  0  0  0  0  0
  184.1680  179.2770  139.1620 C   0  0  2  0  0  3  0  0  0  0  0  0
  191.0210  176.7380  138.6380 C   0  0  0  0  0  3  0  0  0  0  0  0
  189.7520  177.0190  138.1050 C   0  0  0  0  0  0  0  0  0  0  0  0
  191.8570  176.1050  136.4530 C   0  0  0  0  0  0  0  0  0  0  0  0
  189.5410  176.8180  136.7180 C   0  0  0  0  0  0  0  0  0  0  0  0
  190.5920  176.3680  135.9120 C   0  0  0  0  0  3  0  0  0  0  0  0
  192.0590  176.2880  137.8240 C   0  0  0  0  0  3  0  0  0  0  0  0
  194.2250  176.3130  135.6140 C   0  0  0  0  0  1  0  0  0  0  0  0
  192.9340  175.6460  135.6210 N   0  0  0  0  0  0  0  0  0  0  0  0
  192.7630  174.5650  134.8250 O   0  0  0  0  0  1  0  0  0  0  0  0
  187.8280  175.8890  135.3800 O   0  0  0  0  0  1  0  0  0  0  0  0
  188.2140  177.0390  136.0680 C   0  0  0  0  0  2  0  0  0  0  0  0
  185.5860  177.9610  143.4870 N   0  0  0  0  0  0  0  0  0  0  0  0
  186.3160  178.7910  142.8130 C   0  0  0  0  0  3  0  0  0  0  0  0
  185.0800  178.3250  144.7100 O   0  0  0  0  0  0  0  0  0  0  0  0
  185.7420  179.3140  145.4830 C   0  0  0  0  0  2  0  0  0  0  0  0
  185.6850  178.9650  146.9640 C   0  0  1  0  0  3  0  0  0  0  0  0
  184.5130  178.2590  147.2430 O   0  0  0  0  0  1  0  0  0  0  0  0
  186.8940  178.1440  147.3940 C   0  0  0  0  0  2  0  0  0  0  0  0
  187.8200  178.0220  146.3220 O   0  0  0  0  0  0  0  0  0  0  0  0
  189.3270  176.7590  144.1730 C   0  0  0  0  0  2  0  0  0  0  0  0
  189.1560  177.6640  146.5280 C   0  0  0  0  0  0  0  0  0  0  0  0
  191.6800  176.1290  144.2290 C   0  0  0  0  0  2  0  0  0  0  0  0
  190.3970  175.9890  143.4200 C   0  0  0  0  0  2  0  0  0  0  0  0
  189.8940  177.0390  145.4740 N   0  0  0  0  0  0  0  0  0  0  0  0
  189.7150  177.8950  147.6350 O   0  0  0  0  0  0  0  0  0  0  0  0
  191.2710  176.6160  145.6060 C   0  0  0  0  0  2  0  0  0  0  0  0
  184.3830  177.2570  137.7410 C   0  0  0  0  0  2  0  0  0  0  0  0
  183.4320  176.8260  138.7590 N   0  0  0  0  0  2  0  0  0  0  0  0
  182.2110  175.2220  137.5280 C   0  0  0  0  0  3  0  0  0  0  0  0
  182.6920  175.6370  138.6560 N   0  0  0  0  0  0  0  0  0  0  0  0
  181.4260  173.9500  137.4600 C   0  0  2  0  0  3  0  0  0  0  0  0
  181.4270  173.3210  136.0930 C   0  0  0  0  0  0  0  0  0  0  0  0
  180.7470  173.8650  135.1840 O   0  0  0  0  0  0  0  0  0  0  0  0
  182.1610  172.1300  135.7830 N   0  0  0  0  0  2  0  0  0  0  0  0
  183.0410  171.4400  136.7110 C   0  0  0  0  0  2  0  0  0  0  0  0
  184.4230  171.3010  136.1020 C   0  0  0  0  0  2  0  0  0  0  0  0
  185.1960  172.5990  136.2490 C   0  0  0  0  0  2  0  0  0  0  0  0
  185.2800  172.9980  137.7110 C   0  0  0  0  0  1  0  0  0  0  0  0
  179.7040  175.1180  138.6590 O   0  0  0  0  0  0  0  0  0  0  0  0
  180.0430  174.0910  138.0140 C   0  0  0  0  0  0  0  0  0  0  0  0
  179.0890  173.0630  137.7800 N   0  0  0  0  0  1  0  0  0  0  0  0
  1 38  1  1  0  0  0
  1  8  1  0  0  0  0
  1 11  1  0  0  0  0
  3  9  2  0  0  0  0
  4  8  2  0  0  0  0
  4  3  1  0  0  0  0
  5  7  2  0  0  0  0
  7 24  1  0  0  0  0
  8 10  1  0  0  0  0
  9  5  1  0  0  0  0
 10  6  1  0  0  0  0
 10  7  1  0  0  0  0
 11  2  1  6  0  0  0
 11  6  1  0  0  0  0
 13 12  1  0  0  0  0
 13  3  1  0  0  0  0
 14 17  1  0  0  0  0
 15 13  2  0  0  0  0
 16 14  2  0  0  0  0
 16 15  1  0  0  0  0
 17 12  2  0  0  0  0
 18 19  1  0  0  0  0
 19 14  1  0  0  0  0
 20 19  1  0  0  0  0
 21 22  1  0  0  0  0
 22 15  1  0  0  0  0
 23 25  1  0  0  0  0
 24 23  2  0  0  0  0
 25 26  1  0  0  0  0
 26 27  1  0  0  0  0
 27 28  1  6  0  0  0
 27 29  1  0  0  0  0
 30 32  1  0  0  0  0
 30 29  1  0  0  0  0
 31 35  1  0  0  0  0
 32 36  2  0  0  0  0
 33 37  1  0  0  0  0
 34 31  1  0  0  0  0
 34 33  1  0  0  0  0
 35 37  1  0  0  0  0
 35 32  1  0  0  0  0
 38 39  1  0  0  0  0
 40 41  2  0  0  0  0
 41 39  1  0  0  0  0
 42 40  1  6  0  0  0
 42 51  1  0  0  0  0
 43 42  1  0  0  0  0
 44 43  2  0  0  0  0
 45 43  1  0  0  0  0
 45 46  1  0  0  0  0
 47 48  1  0  0  0  0
 47 46  1  0  0  0  0
 48 49  1  0  0  0  0
 51 50  2  0  0  0  0
 52 51  1  0  0  0  0
M  END
>  <MODEL>
8

>  <REMARK>
 VINA RESULT:      -6.5      3.280      7.211
  Name = 
  19 active torsions:
  status: ('A' for Active; 'I' for Inactive)
    1  A    between atoms: C_2  and  C_16
    2  A    between atoms: C_4  and  C_18
    3  A    between atoms: N_7  and  C_21
    4  A    between atoms: C_8  and  C_14
    5  A    between atoms: C_11  and  C_16
    6  A    between atoms: C_13  and  C_17
    7  A    between atoms: C_13  and  C_36
    8  A    between atoms: C_16  and  C_35
    9  A    between atoms: C_17  and  O_46
   10  A    between atoms: C_18  and  N_42
   11  A    between atoms: C_20  and  O_43
   12  A    between atoms: C_24  and  C_40
   13  A    between atoms: N_26  and  N_42
   14  A    between atoms: C_28  and  C_34
   15  A    between atoms: C_28  and  C_51
   16  A    between atoms: C_31  and  C_41
   17  A    between atoms: C_36  and  O_43
   18  A    between atoms: N_38  and  O_46
   19  A    between atoms: N_47  and  C_51
                            x       y       z     vdW  Elec       q    Type
                         _______ _______ _______ _____ _____    ______ ____

>  <TORSDO>
F 19

$$$$
=
 OpenBabel10222417473D

 52 55  0  0  1  0  0  0  0  0999 V2000
  188.0070  177.0630  138.3630 C   0  0  2  0  0  3  0  0  0  0  0  0
  188.3860  175.3110  136.7200 N   0  0  0  0  0  1  0  0  0  0  0  0
  189.6910  177.4330  141.8230 C   0  0  0  0  0  0  0  0  0  0  0  0
  188.8020  177.3480  140.6560 C   0  0  0  0  0  3  0  0  0  0  0  0
  191.9150  177.3830  140.6090 C   0  0  0  0  0  3  0  0  0  0  0  0
  190.2140  176.6860  137.3940 N   0  0  0  0  0  2  0  0  0  0  0  0
  191.6610  177.1800  139.3150 C   0  0  0  0  0  0  0  0  0  0  0  0
  189.0810  177.1920  139.3630 C   0  0  0  0  0  0  0  0  0  0  0  0
  191.0200  177.4690  141.7620 C   0  0  0  0  0  3  0  0  0  0  0  0
  190.3460  176.9900  138.7600 N   0  0  0  0  0  0  0  0  0  0  0  0
  188.7740  176.6540  137.1110 C   0  0  2  0  0  3  0  0  0  0  0  0
  187.6360  177.5230  143.2100 C   0  0  0  0  0  3  0  0  0  0  0  0
  189.0380  177.5720  143.1520 C   0  0  0  0  0  0  0  0  0  0  0  0
  187.6720  177.8350  145.6140 C   0  0  0  0  0  0  0  0  0  0  0  0
  189.7610  177.7400  144.3600 C   0  0  0  0  0  0  0  0  0  0  0  0
  189.0720  177.8720  145.5710 C   0  0  0  0  0  3  0  0  0  0  0  0
  186.9610  177.6520  144.4240 C   0  0  0  0  0  3  0  0  0  0  0  0
  185.6250  178.5210  146.9150 C   0  0  0  0  0  1  0  0  0  0  0  0
  186.9700  177.9720  146.8590 N   0  0  0  0  0  0  0  0  0  0  0  0
  187.5540  177.5810  148.0160 O   0  0  0  0  0  1  0  0  0  0  0  0
  191.7090  176.7360  145.2460 O   0  0  0  0  0  1  0  0  0  0  0  0
  191.2540  177.7530  144.4070 C   0  0  0  0  0  2  0  0  0  0  0  0
  193.4070  176.0080  138.1040 N   0  0  0  0  0  0  0  0  0  0  0  0
  192.8140  177.1210  138.3930 C   0  0  0  0  0  3  0  0  0  0  0  0
  194.4780  176.0020  137.2440 O   0  0  0  0  0  0  0  0  0  0  0  0
  194.3970  175.2930  136.0170 C   0  0  0  0  0  2  0  0  0  0  0  0
  193.8770  173.8810  136.2470 C   0  0  1  0  0  3  0  0  0  0  0  0
  192.6740  173.6980  135.5620 O   0  0  0  0  0  1  0  0  0  0  0  0
  194.8860  172.8310  135.8010 C   0  0  0  0  0  2  0  0  0  0  0  0
  195.7520  172.4850  136.8760 O   0  0  0  0  0  0  0  0  0  0  0  0
  196.1690  174.1270  139.2440 C   0  0  0  0  0  2  0  0  0  0  0  0
  196.9830  173.1180  137.0730 C   0  0  0  0  0  0  0  0  0  0  0  0
  198.2340  175.2540  139.8820 C   0  0  0  0  0  2  0  0  0  0  0  0
  196.7510  175.1410  140.2130 C   0  0  0  0  0  2  0  0  0  0  0  0
  197.1850  173.9290  138.2350 N   0  0  0  0  0  0  0  0  0  0  0  0
  197.9170  172.9730  136.2380 O   0  0  0  0  0  0  0  0  0  0  0  0
  198.4170  174.6380  138.5080 C   0  0  0  0  0  2  0  0  0  0  0  0
  187.3280  178.4020  138.1120 C   0  0  0  0  0  2  0  0  0  0  0  0
  186.1100  178.5050  138.9070 N   0  0  0  0  0  2  0  0  0  0  0  0
  183.8440  177.8380  138.8960 C   0  0  0  0  0  3  0  0  0  0  0  0
  184.8260  178.4750  138.3420 N   0  0  0  0  0  0  0  0  0  0  0  0
  182.4900  177.8300  138.2610 C   0  0  2  0  0  3  0  0  0  0  0  0
  181.7750  179.1500  138.3650 C   0  0  0  0  0  0  0  0  0  0  0  0
  181.4930  179.7610  137.3010 O   0  0  0  0  0  0  0  0  0  0  0  0
  181.4080  179.7430  139.6170 N   0  0  0  0  0  2  0  0  0  0  0  0
  181.6060  179.1170  140.9140 C   0  0  0  0  0  2  0  0  0  0  0  0
  180.2750  178.9840  141.6290 C   0  0  0  0  0  2  0  0  0  0  0  0
  180.4870  178.4770  143.0440 C   0  0  0  0  0  2  0  0  0  0  0  0
  181.7940  179.0060  143.6030 C   0  0  0  0  0  1  0  0  0  0  0  0
  180.4110  176.6420  138.4470 O   0  0  0  0  0  0  0  0  0  0  0  0
  181.6380  176.6900  138.7250 C   0  0  0  0  0  0  0  0  0  0  0  0
  182.2320  175.6300  139.4650 N   0  0  0  0  0  1  0  0  0  0  0  0
  1 38  1  6  0  0  0
  1  8  1  0  0  0  0
  3 13  1  0  0  0  0
  4  3  1  0  0  0  0
  5  9  1  0  0  0  0
  6 10  1  0  0  0  0
  7  5  2  0  0  0  0
  8  4  2  0  0  0  0
  9  3  2  0  0  0  0
 10  7  1  0  0  0  0
 10  8  1  0  0  0  0
 11  2  1  1  0  0  0
 11  6  1  0  0  0  0
 11  1  1  0  0  0  0
 12 17  1  0  0  0  0
 13 12  2  0  0  0  0
 13 15  1  0  0  0  0
 14 19  1  0  0  0  0
 15 22  1  0  0  0  0
 15 16  2  0  0  0  0
 16 14  1  0  0  0  0
 17 14  2  0  0  0  0
 19 18  1  0  0  0  0
 19 20  1  0  0  0  0
 22 21  1  0  0  0  0
 23 24  2  0  0  0  0
 24  7  1  0  0  0  0
 25 23  1  0  0  0  0
 26 27  1  0  0  0  0
 26 25  1  0  0  0  0
 27 28  1  6  0  0  0
 29 27  1  0  0  0  0
 29 30  1  0  0  0  0
 30 32  1  0  0  0  0
 31 34  1  0  0  0  0
 32 35  1  0  0  0  0
 33 34  1  0  0  0  0
 35 37  1  0  0  0  0
 35 31  1  0  0  0  0
 36 32  2  0  0  0  0
 37 33  1  0  0  0  0
 38 39  1  0  0  0  0
 41 40  2  0  0  0  0
 41 39  1  0  0  0  0
 42 43  1  0  0  0  0
 42 51  1  0  0  0  0
 42 40  1  1  0  0  0
 43 45  1  0  0  0  0
 44 43  2  0  0  0  0
 45 46  1  0  0  0  0
 46 47  1  0  0  0  0
 47 48  1  0  0  0  0
 48 49  1  0  0  0  0
 50 51  2  0  0  0  0
 51 52  1  0  0  0  0
M  END
>  <MODEL>
9

>  <REMARK>
 VINA RESULT:      -6.5      4.414      9.010
  Name = 
  19 active torsions:
  status: ('A' for Active; 'I' for Inactive)
    1  A    between atoms: C_2  and  C_16
    2  A    between atoms: C_4  and  C_18
    3  A    between atoms: N_7  and  C_21
    4  A    between atoms: C_8  and  C_14
    5  A    between atoms: C_11  and  C_16
    6  A    between atoms: C_13  and  C_17
    7  A    between atoms: C_13  and  C_36
    8  A    between atoms: C_16  and  C_35
    9  A    between atoms: C_17  and  O_46
   10  A    between atoms: C_18  and  N_42
   11  A    between atoms: C_20  and  O_43
   12  A    between atoms: C_24  and  C_40
   13  A    between atoms: N_26  and  N_42
   14  A    between atoms: C_28  and  C_34
   15  A    between atoms: C_28  and  C_51
   16  A    between atoms: C_31  and  C_41
   17  A    between atoms: C_36  and  O_43
   18  A    between atoms: N_38  and  O_46
   19  A    between atoms: N_47  and  C_51
                            x       y       z     vdW  Elec       q    Type
                         _______ _______ _______ _____ _____    ______ ____

>  <TORSDO>
F 19

$$$$
