=
 OpenBabel10222417093D

 25 28  0  0  1  0  0  0  0  0999 V2000
  187.6150  178.2330  143.0630 C   0  0  1  0  0  3  0  0  0  0  0  0
  187.8950  178.1240  141.6310 N   0  0  0  0  0  2  0  0  0  0  0  0
  188.6920  176.1660  137.9330 C   0  0  0  0  0  3  0  0  0  0  0  0
  191.0320  176.1690  138.6770 C   0  0  0  0  0  3  0  0  0  0  0  0
  191.3650  177.3630  140.8710 C   0  0  0  0  0  2  0  0  0  0  0  0
  190.7860  177.4350  139.4550 C   0  0  2  0  0  3  0  0  0  0  0  0
  189.1750  177.8360  141.0540 C   0  0  0  0  0  0  0  0  0  0  0  0
  190.2500  177.6970  141.7500 N   0  0  0  0  0  0  0  0  0  0  0  0
  189.3620  177.6590  139.6650 N   0  0  0  0  0  0  0  0  0  0  0  0
  188.3590  177.1330  138.7880 C   0  0  0  0  0  3  0  0  0  0  0  0
  190.0630  175.6160  137.9390 C   0  0  0  0  0  3  0  0  0  0  0  0
  185.6490  178.5810  144.6240 C   0  0  0  0  0  3  0  0  0  0  0  0
  186.1490  178.4050  143.3240 C   0  0  0  0  0  0  0  0  0  0  0  0
  183.3920  178.6700  143.7530 C   0  0  0  0  0  0  0  0  0  0  0  0
  185.2600  178.3530  142.2450 C   0  0  0  0  0  3  0  0  0  0  0  0
  183.8840  178.4870  142.4580 C   0  0  0  0  0  3  0  0  0  0  0  0
  181.9300  178.8130  143.9790 C   0  0  0  0  0  1  0  0  0  0  0  0
  184.2740  178.7160  144.8360 C   0  0  0  0  0  3  0  0  0  0  0  0
  188.2260  177.0820  143.8620 C   0  0  0  0  0  2  0  0  0  0  0  0
  188.9330  177.5930  145.1070 C   0  0  2  0  0  3  0  0  0  0  0  0
  190.3490  177.1310  145.0870 C   0  0  0  0  0  0  0  0  0  0  0  0
  191.2820  176.2690  144.6450 N   0  0  0  0  0  0  0  0  0  0  0  0
  191.6640  177.2930  145.4820 N   0  0  0  0  0  2  0  0  0  0  0  0
  188.8020  177.7330  147.5950 C   0  0  0  0  0  1  0  0  0  0  0  0
  188.2290  177.0770  146.3520 C   0  0  0  0  0  2  0  0  0  0  0  0
  1 13  1  0  0  0  0
  1 19  1  1  0  0  0
  2  1  1  0  0  0  0
  3 11  1  0  0  0  0
  3 10  2  0  0  0  0
  5  8  1  0  0  0  0
  6  4  1  1  0  0  0
  6  9  1  0  0  0  0
  6  5  1  0  0  0  0
  7  2  1  0  0  0  0
  7  8  2  0  0  0  0
  9  7  1  0  0  0  0
 10  9  1  0  0  0  0
 11  4  2  0  0  0  0
 12 18  1  0  0  0  0
 13 12  2  0  0  0  0
 14 17  1  0  0  0  0
 14 18  2  0  0  0  0
 15 16  2  0  0  0  0
 15 13  1  0  0  0  0
 16 14  1  0  0  0  0
 20 19  1  6  0  0  0
 20 25  1  0  0  0  0
 21 20  1  0  0  0  0
 21 23  1  0  0  0  0
 22 21  2  0  0  0  0
 22 23  1  0  0  0  0
 25 24  1  0  0  0  0
M  END
>  <MODEL>
1

>  <REMARK>
 VINA RESULT:      -7.9      0.000      0.000
  Name = 
  6 active torsions:
  status: ('A' for Active; 'I' for Inactive)
    1  A    between atoms: C_1  and  C_22
    2  A    between atoms: N_2  and  C_25
    3  A    between atoms: C_9  and  C_25
    4  A    between atoms: C_22  and  C_23
    5  A    between atoms: C_22  and  C_24
    6  A    between atoms: C_23  and  C_25
                            x       y       z     vdW  Elec       q    Type
                         _______ _______ _______ _____ _____    ______ ____

>  <TORSDO>
F 6

$$$$
=
 OpenBabel10222417093D

 25 28  0  0  1  0  0  0  0  0999 V2000
  186.1730  177.9960  143.1690 C   0  0  1  0  0  3  0  0  0  0  0  0
  187.2200  178.3870  142.2250 N   0  0  0  0  0  2  0  0  0  0  0  0
  189.4430  178.3200  138.5920 C   0  0  0  0  0  3  0  0  0  0  0  0
  190.6790  176.4680  139.6300 C   0  0  0  0  0  3  0  0  0  0  0  0
  189.9530  176.0040  141.9970 C   0  0  0  0  0  2  0  0  0  0  0  0
  190.4260  177.0590  140.9910 C   0  0  2  0  0  3  0  0  0  0  0  0
  188.4080  177.6360  141.9420 C   0  0  0  0  0  0  0  0  0  0  0  0
  188.7130  176.5420  142.5480 N   0  0  0  0  0  0  0  0  0  0  0  0
  189.3390  178.0280  140.9550 N   0  0  0  0  0  0  0  0  0  0  0  0
  188.9850  178.7480  139.7690 C   0  0  0  0  0  3  0  0  0  0  0  0
  190.2560  177.0880  138.5210 C   0  0  0  0  0  3  0  0  0  0  0  0
  187.9700  177.6320  144.9190 C   0  0  0  0  0  3  0  0  0  0  0  0
  186.6670  178.0330  144.5840 C   0  0  0  0  0  0  0  0  0  0  0  0
  187.5160  178.0780  147.2540 C   0  0  0  0  0  0  0  0  0  0  0  0
  185.7930  178.4470  145.5930 C   0  0  0  0  0  3  0  0  0  0  0  0
  186.2160  178.4720  146.9260 C   0  0  0  0  0  3  0  0  0  0  0  0
  187.9650  178.1050  148.6700 C   0  0  0  0  0  1  0  0  0  0  0  0
  188.3930  177.6580  146.2510 C   0  0  0  0  0  3  0  0  0  0  0  0
  184.8850  178.7960  142.9720 C   0  0  0  0  0  2  0  0  0  0  0  0
  184.0610  178.2360  141.8240 C   0  0  2  0  0  3  0  0  0  0  0  0
  184.5250  178.8490  140.5480 C   0  0  0  0  0  0  0  0  0  0  0  0
  184.4690  179.8540  139.6570 N   0  0  0  0  0  0  0  0  0  0  0  0
  185.3450  178.8150  139.4350 N   0  0  0  0  0  2  0  0  0  0  0  0
  182.3590  179.0530  143.4570 C   0  0  0  0  0  1  0  0  0  0  0  0
  182.5870  178.5370  142.0480 C   0  0  0  0  0  2  0  0  0  0  0  0
  1 19  1  1  0  0  0
  1 13  1  0  0  0  0
  2  1  1  0  0  0  0
  3 10  2  0  0  0  0
  5  8  1  0  0  0  0
  6  4  1  6  0  0  0
  6  5  1  0  0  0  0
  7  2  1  0  0  0  0
  7  8  2  0  0  0  0
  9  6  1  0  0  0  0
  9  7  1  0  0  0  0
 10  9  1  0  0  0  0
 11  3  1  0  0  0  0
 11  4  2  0  0  0  0
 12 18  1  0  0  0  0
 13 12  2  0  0  0  0
 13 15  1  0  0  0  0
 14 17  1  0  0  0  0
 15 16  2  0  0  0  0
 16 14  1  0  0  0  0
 18 14  2  0  0  0  0
 20 25  1  1  0  0  0
 20 19  1  0  0  0  0
 21 20  1  0  0  0  0
 22 21  2  0  0  0  0
 23 22  1  0  0  0  0
 23 21  1  0  0  0  0
 25 24  1  0  0  0  0
M  END
>  <MODEL>
2

>  <REMARK>
 VINA RESULT:      -7.8      1.701      4.769
  Name = 
  6 active torsions:
  status: ('A' for Active; 'I' for Inactive)
    1  A    between atoms: C_1  and  C_22
    2  A    between atoms: N_2  and  C_25
    3  A    between atoms: C_9  and  C_25
    4  A    between atoms: C_22  and  C_23
    5  A    between atoms: C_22  and  C_24
    6  A    between atoms: C_23  and  C_25
                            x       y       z     vdW  Elec       q    Type
                         _______ _______ _______ _____ _____    ______ ____

>  <TORSDO>
F 6

$$$$
=
 OpenBabel10222417093D

 25 28  0  0  1  0  0  0  0  0999 V2000
  188.4040  177.8420  141.4110 C   0  0  1  0  0  3  0  0  0  0  0  0
  187.9350  177.3520  140.1150 N   0  0  0  0  0  2  0  0  0  0  0  0
  188.1900  175.3880  136.3440 C   0  0  0  0  0  3  0  0  0  0  0  0
  189.0840  177.5250  135.5290 C   0  0  0  0  0  3  0  0  0  0  0  0
  189.1010  179.3220  137.2940 C   0  0  0  0  0  2  0  0  0  0  0  0
  188.2730  178.2620  136.5620 C   0  0  2  0  0  3  0  0  0  0  0  0
  188.2410  177.9390  138.8440 C   0  0  0  0  0  0  0  0  0  0  0  0
  188.9280  179.0200  138.7120 N   0  0  0  0  0  0  0  0  0  0  0  0
  187.8260  177.3660  137.6210 N   0  0  0  0  0  0  0  0  0  0  0  0
  187.6500  175.9600  137.4210 C   0  0  0  0  0  3  0  0  0  0  0  0
  189.0010  176.1950  135.4090 C   0  0  0  0  0  3  0  0  0  0  0  0
  187.2500  177.6020  143.6540 C   0  0  0  0  0  3  0  0  0  0  0  0
  187.2620  178.1060  142.3450 C   0  0  0  0  0  0  0  0  0  0  0  0
  185.0730  178.5930  144.0270 C   0  0  0  0  0  0  0  0  0  0  0  0
  186.1690  178.8460  141.8820 C   0  0  0  0  0  3  0  0  0  0  0  0
  185.0770  179.0920  142.7210 C   0  0  0  0  0  3  0  0  0  0  0  0
  183.9120  178.8530  144.9170 C   0  0  0  0  0  1  0  0  0  0  0  0
  186.1580  177.8470  144.4940 C   0  0  0  0  0  3  0  0  0  0  0  0
  189.4690  176.9320  142.0240 C   0  0  0  0  0  2  0  0  0  0  0  0
  190.8090  177.6430  142.1180 C   0  0  2  0  0  3  0  0  0  0  0  0
  191.5830  177.3900  140.8700 C   0  0  0  0  0  0  0  0  0  0  0  0
  191.6250  176.9470  139.6020 N   0  0  0  0  0  0  0  0  0  0  0  0
  192.7680  177.4700  140.1620 N   0  0  0  0  0  2  0  0  0  0  0  0
  191.0490  177.7700  144.5990 C   0  0  0  0  0  1  0  0  0  0  0  0
  191.5820  177.1380  143.3270 C   0  0  0  0  0  2  0  0  0  0  0  0
  1 19  1  1  0  0  0
  1 13  1  0  0  0  0
  2  1  1  0  0  0  0
  3 10  2  0  0  0  0
  5  8  1  0  0  0  0
  6  4  1  6  0  0  0
  6  5  1  0  0  0  0
  6  9  1  0  0  0  0
  7  2  1  0  0  0  0
  8  7  2  0  0  0  0
  9  7  1  0  0  0  0
 10  9  1  0  0  0  0
 11  4  2  0  0  0  0
 11  3  1  0  0  0  0
 12 18  1  0  0  0  0
 13 12  2  0  0  0  0
 14 18  2  0  0  0  0
 14 17  1  0  0  0  0
 15 13  1  0  0  0  0
 15 16  2  0  0  0  0
 16 14  1  0  0  0  0
 20 19  1  6  0  0  0
 20 25  1  0  0  0  0
 21 20  1  0  0  0  0
 22 23  1  0  0  0  0
 22 21  2  0  0  0  0
 23 21  1  0  0  0  0
 25 24  1  0  0  0  0
M  END
>  <MODEL>
3

>  <REMARK>
 VINA RESULT:      -7.8      2.241      3.149
  Name = 
  6 active torsions:
  status: ('A' for Active; 'I' for Inactive)
    1  A    between atoms: C_1  and  C_22
    2  A    between atoms: N_2  and  C_25
    3  A    between atoms: C_9  and  C_25
    4  A    between atoms: C_22  and  C_23
    5  A    between atoms: C_22  and  C_24
    6  A    between atoms: C_23  and  C_25
                            x       y       z     vdW  Elec       q    Type
                         _______ _______ _______ _____ _____    ______ ____

>  <TORSDO>
F 6

$$$$
=
 OpenBabel10222417093D

 25 28  0  0  1  0  0  0  0  0999 V2000
  186.4610  178.6180  142.8100 C   0  0  1  0  0  3  0  0  0  0  0  0
  186.7600  178.6230  141.3780 N   0  0  0  0  0  2  0  0  0  0  0  0
  187.4290  176.9710  137.5090 C   0  0  0  0  0  3  0  0  0  0  0  0
  189.7400  176.6500  138.2780 C   0  0  0  0  0  3  0  0  0  0  0  0
  190.1470  177.5760  140.5850 C   0  0  0  0  0  2  0  0  0  0  0  0
  189.6110  177.8510  139.1770 C   0  0  2  0  0  3  0  0  0  0  0  0
  188.0150  178.2590  140.7890 C   0  0  0  0  0  0  0  0  0  0  0  0
  189.0540  177.9390  141.4810 N   0  0  0  0  0  0  0  0  0  0  0  0
  188.2130  178.2030  139.3920 N   0  0  0  0  0  0  0  0  0  0  0  0
  187.1810  177.8780  138.4550 C   0  0  0  0  0  3  0  0  0  0  0  0
  188.7350  176.2800  137.4750 C   0  0  0  0  0  3  0  0  0  0  0  0
  184.4710  178.8970  144.3550 C   0  0  0  0  0  3  0  0  0  0  0  0
  184.9860  178.7040  143.0640 C   0  0  0  0  0  0  0  0  0  0  0  0
  182.2160  178.8070  143.4800 C   0  0  0  0  0  0  0  0  0  0  0  0
  184.1060  178.5540  141.9870 C   0  0  0  0  0  3  0  0  0  0  0  0
  182.7240  178.6070  142.1930 C   0  0  0  0  0  3  0  0  0  0  0  0
  180.7480  178.8630  143.6990 C   0  0  0  0  0  1  0  0  0  0  0  0
  183.0890  178.9510  144.5610 C   0  0  0  0  0  3  0  0  0  0  0  0
  187.1160  177.4420  143.5350 C   0  0  0  0  0  2  0  0  0  0  0  0
  187.7680  177.8920  144.8320 C   0  0  2  0  0  3  0  0  0  0  0  0
  189.2100  177.5170  144.8080 C   0  0  0  0  0  0  0  0  0  0  0  0
  190.1710  176.6240  144.5160 N   0  0  0  0  0  0  0  0  0  0  0  0
  190.5330  177.8450  145.0380 N   0  0  0  0  0  2  0  0  0  0  0  0
  187.5980  177.8080  147.3210 C   0  0  0  0  0  1  0  0  0  0  0  0
  187.0740  177.2360  146.0160 C   0  0  0  0  0  2  0  0  0  0  0  0
  1 13  1  0  0  0  0
  1 19  1  6  0  0  0
  2  1  1  0  0  0  0
  3 10  2  0  0  0  0
  5  8  1  0  0  0  0
  6  4  1  6  0  0  0
  6  9  1  0  0  0  0
  6  5  1  0  0  0  0
  7  2  1  0  0  0  0
  7  8  2  0  0  0  0
  9  7  1  0  0  0  0
 10  9  1  0  0  0  0
 11  3  1  0  0  0  0
 11  4  2  0  0  0  0
 12 18  1  0  0  0  0
 13 12  2  0  0  0  0
 14 17  1  0  0  0  0
 14 18  2  0  0  0  0
 15 16  2  0  0  0  0
 15 13  1  0  0  0  0
 16 14  1  0  0  0  0
 20 19  1  6  0  0  0
 20 25  1  0  0  0  0
 21 20  1  0  0  0  0
 21 23  1  0  0  0  0
 22 21  2  0  0  0  0
 22 23  1  0  0  0  0
 25 24  1  0  0  0  0
M  END
>  <MODEL>
4

>  <REMARK>
 VINA RESULT:      -7.8      1.095      1.285
  Name = 
  6 active torsions:
  status: ('A' for Active; 'I' for Inactive)
    1  A    between atoms: C_1  and  C_22
    2  A    between atoms: N_2  and  C_25
    3  A    between atoms: C_9  and  C_25
    4  A    between atoms: C_22  and  C_23
    5  A    between atoms: C_22  and  C_24
    6  A    between atoms: C_23  and  C_25
                            x       y       z     vdW  Elec       q    Type
                         _______ _______ _______ _____ _____    ______ ____

>  <TORSDO>
F 6

$$$$
=
 OpenBabel10222417093D

 25 28  0  0  1  0  0  0  0  0999 V2000
  187.9260  177.9260  142.6290 C   0  0  1  0  0  3  0  0  0  0  0  0
  188.0560  177.7860  141.1790 N   0  0  0  0  0  2  0  0  0  0  0  0
  188.5220  175.7510  137.4660 C   0  0  0  0  0  3  0  0  0  0  0  0
  190.9260  175.8470  137.9550 C   0  0  0  0  0  3  0  0  0  0  0  0
  191.4500  177.1110  140.0710 C   0  0  0  0  0  2  0  0  0  0  0  0
  190.7220  177.1260  138.7230 C   0  0  2  0  0  3  0  0  0  0  0  0
  189.2770  177.5210  140.4750 C   0  0  0  0  0  0  0  0  0  0  0  0
  190.4230  177.4360  141.0560 N   0  0  0  0  0  0  0  0  0  0  0  0
  189.3210  177.3120  139.0790 N   0  0  0  0  0  0  0  0  0  0  0  0
  188.2490  176.7310  138.3280 C   0  0  0  0  0  3  0  0  0  0  0  0
  189.9040  175.2430  137.3380 C   0  0  0  0  0  3  0  0  0  0  0  0
  185.4810  178.3030  142.0800 C   0  0  0  0  0  3  0  0  0  0  0  0
  186.5020  178.1630  143.0330 C   0  0  0  0  0  0  0  0  0  0  0  0
  183.8660  178.6560  143.8490 C   0  0  0  0  0  0  0  0  0  0  0  0
  186.1970  178.2810  144.3920 C   0  0  0  0  0  3  0  0  0  0  0  0
  184.8810  178.5250  144.8010 C   0  0  0  0  0  3  0  0  0  0  0  0
  182.4700  178.9150  144.2830 C   0  0  0  0  0  1  0  0  0  0  0  0
  184.1660  178.5460  142.4880 C   0  0  0  0  0  3  0  0  0  0  0  0
  188.5680  176.7610  143.3840 C   0  0  0  0  0  2  0  0  0  0  0  0
  189.7020  177.2430  144.2740 C   0  0  2  0  0  3  0  0  0  0  0  0
  189.3100  177.0660  145.7000 C   0  0  0  0  0  0  0  0  0  0  0  0
  188.3650  177.1010  146.6560 N   0  0  0  0  0  0  0  0  0  0  0  0
  189.6430  176.7160  146.9960 N   0  0  0  0  0  2  0  0  0  0  0  0
  191.4960  178.9620  144.0380 C   0  0  0  0  0  1  0  0  0  0  0  0
  190.0010  178.7060  143.9880 C   0  0  0  0  0  2  0  0  0  0  0  0
  1 13  1  0  0  0  0
  1 19  1  1  0  0  0
  2  1  1  0  0  0  0
  3 10  2  0  0  0  0
  5  8  1  0  0  0  0
  6  4  1  1  0  0  0
  6  9  1  0  0  0  0
  6  5  1  0  0  0  0
  7  8  2  0  0  0  0
  7  2  1  0  0  0  0
  9  7  1  0  0  0  0
 10  9  1  0  0  0  0
 11  3  1  0  0  0  0
 11  4  2  0  0  0  0
 12 18  2  0  0  0  0
 12 13  1  0  0  0  0
 13 15  2  0  0  0  0
 14 17  1  0  0  0  0
 14 16  2  0  0  0  0
 15 16  1  0  0  0  0
 18 14  1  0  0  0  0
 20 19  1  6  0  0  0
 20 21  1  0  0  0  0
 21 22  2  0  0  0  0
 21 23  1  0  0  0  0
 22 23  1  0  0  0  0
 25 24  1  0  0  0  0
 25 20  1  0  0  0  0
M  END
>  <MODEL>
5

>  <REMARK>
 VINA RESULT:      -7.7      1.236      1.861
  Name = 
  6 active torsions:
  status: ('A' for Active; 'I' for Inactive)
    1  A    between atoms: C_1  and  C_22
    2  A    between atoms: N_2  and  C_25
    3  A    between atoms: C_9  and  C_25
    4  A    between atoms: C_22  and  C_23
    5  A    between atoms: C_22  and  C_24
    6  A    between atoms: C_23  and  C_25
                            x       y       z     vdW  Elec       q    Type
                         _______ _______ _______ _____ _____    ______ ____

>  <TORSDO>
F 6

$$$$
=
 OpenBabel10222417093D

 25 28  0  0  1  0  0  0  0  0999 V2000
  187.8340  178.1010  142.9180 C   0  0  1  0  0  3  0  0  0  0  0  0
  186.5070  178.4660  142.4200 N   0  0  0  0  0  2  0  0  0  0  0  0
  182.6740  177.8490  140.6680 C   0  0  0  0  0  3  0  0  0  0  0  0
  183.8510  178.0770  138.5240 C   0  0  0  0  0  3  0  0  0  0  0  0
  186.2940  178.6250  138.7970 C   0  0  0  0  0  2  0  0  0  0  0  0
  184.8550  178.9940  139.1700 C   0  0  2  0  0  3  0  0  0  0  0  0
  186.1460  178.6030  141.0390 C   0  0  0  0  0  0  0  0  0  0  0  0
  186.9870  178.4740  140.0730 N   0  0  0  0  0  0  0  0  0  0  0  0
  184.8240  178.8750  140.6220 N   0  0  0  0  0  0  0  0  0  0  0  0
  183.6600  178.4460  141.3370 C   0  0  0  0  0  3  0  0  0  0  0  0
  182.8170  177.5890  139.2200 C   0  0  0  0  0  3  0  0  0  0  0  0
  186.6500  177.8250  145.1410 C   0  0  0  0  0  3  0  0  0  0  0  0
  187.8400  177.9570  144.4100 C   0  0  0  0  0  0  0  0  0  0  0  0
  187.9160  177.7440  147.2030 C   0  0  0  0  0  0  0  0  0  0  0  0
  189.0640  177.9910  145.0860 C   0  0  0  0  0  3  0  0  0  0  0  0
  189.1040  177.8830  146.4800 C   0  0  0  0  0  3  0  0  0  0  0  0
  187.9580  177.6290  148.6840 C   0  0  0  0  0  1  0  0  0  0  0  0
  186.6890  177.7150  146.5350 C   0  0  0  0  0  3  0  0  0  0  0  0
  188.4030  176.8750  142.2040 C   0  0  0  0  0  2  0  0  0  0  0  0
  189.9220  176.8630  142.2610 C   0  0  2  0  0  3  0  0  0  0  0  0
  190.4610  176.8410  140.8720 C   0  0  0  0  0  0  0  0  0  0  0  0
  190.4090  176.3670  139.6150 N   0  0  0  0  0  0  0  0  0  0  0  0
  191.3560  177.3150  139.9300 N   0  0  0  0  0  2  0  0  0  0  0  0
  191.6750  175.9670  143.7950 C   0  0  0  0  0  1  0  0  0  0  0  0
  190.4030  175.6440  143.0320 C   0  0  0  0  0  2  0  0  0  0  0  0
  1 19  1  6  0  0  0
  1 13  1  0  0  0  0
  2  1  1  0  0  0  0
  3 10  2  0  0  0  0
  4 11  2  0  0  0  0
  5  6  1  0  0  0  0
  5  8  1  0  0  0  0
  6  4  1  6  0  0  0
  6  9  1  0  0  0  0
  7  2  1  0  0  0  0
  8  7  2  0  0  0  0
  9  7  1  0  0  0  0
  9 10  1  0  0  0  0
 11  3  1  0  0  0  0
 12 18  1  0  0  0  0
 13 15  1  0  0  0  0
 13 12  2  0  0  0  0
 14 17  1  0  0  0  0
 15 16  2  0  0  0  0
 16 14  1  0  0  0  0
 18 14  2  0  0  0  0
 20 19  1  6  0  0  0
 20 25  1  0  0  0  0
 21 20  1  0  0  0  0
 22 23  1  0  0  0  0
 22 21  2  0  0  0  0
 23 21  1  0  0  0  0
 25 24  1  0  0  0  0
M  END
>  <MODEL>
6

>  <REMARK>
 VINA RESULT:      -7.5      2.386      4.961
  Name = 
  6 active torsions:
  status: ('A' for Active; 'I' for Inactive)
    1  A    between atoms: C_1  and  C_22
    2  A    between atoms: N_2  and  C_25
    3  A    between atoms: C_9  and  C_25
    4  A    between atoms: C_22  and  C_23
    5  A    between atoms: C_22  and  C_24
    6  A    between atoms: C_23  and  C_25
                            x       y       z     vdW  Elec       q    Type
                         _______ _______ _______ _____ _____    ______ ____

>  <TORSDO>
F 6

$$$$
=
 OpenBabel10222417093D

 25 28  0  0  1  0  0  0  0  0999 V2000
  185.0610  178.7760  142.4840 C   0  0  1  0  0  3  0  0  0  0  0  0
  184.6130  179.2200  141.1640 N   0  0  0  0  0  2  0  0  0  0  0  0
  181.9110  180.7870  138.2670 C   0  0  0  0  0  3  0  0  0  0  0  0
  181.1100  178.4730  138.0720 C   0  0  0  0  0  3  0  0  0  0  0  0
  182.4220  176.8550  139.4890 C   0  0  0  0  0  2  0  0  0  0  0  0
  182.4810  177.9650  138.4350 C   0  0  2  0  0  3  0  0  0  0  0  0
  183.7480  178.4850  140.2890 C   0  0  0  0  0  0  0  0  0  0  0  0
  183.3140  177.3020  140.5540 N   0  0  0  0  0  0  0  0  0  0  0  0
  183.2830  179.0080  139.0620 N   0  0  0  0  0  0  0  0  0  0  0  0
  183.0590  180.4020  138.8260 C   0  0  0  0  0  3  0  0  0  0  0  0
  180.8710  179.7850  137.9540 C   0  0  0  0  0  3  0  0  0  0  0  0
  187.3210  178.4660  141.3790 C   0  0  0  0  0  3  0  0  0  0  0  0
  186.4310  178.1700  142.4230 C   0  0  0  0  0  0  0  0  0  0  0  0
  188.9600  176.9640  142.3380 C   0  0  0  0  0  0  0  0  0  0  0  0
  186.8120  177.2610  143.4160 C   0  0  0  0  0  3  0  0  0  0  0  0
  188.0740  176.6610  143.3760 C   0  0  0  0  0  3  0  0  0  0  0  0
  190.3010  176.3260  142.2950 C   0  0  0  0  0  1  0  0  0  0  0  0
  188.5830  177.8660  141.3390 C   0  0  0  0  0  3  0  0  0  0  0  0
  184.9500  179.8800  143.5360 C   0  0  0  0  0  2  0  0  0  0  0  0
  183.9210  179.5250  144.5970 C   0  0  2  0  0  3  0  0  0  0  0  0
  184.6270  179.0530  145.8210 C   0  0  0  0  0  0  0  0  0  0  0  0
  185.7170  179.0620  146.6080 N   0  0  0  0  0  0  0  0  0  0  0  0
  184.6270  178.3130  146.9900 N   0  0  0  0  0  2  0  0  0  0  0  0
  181.6750  179.0460  143.6190 C   0  0  0  0  0  1  0  0  0  0  0  0
  182.9900  178.4410  144.0750 C   0  0  0  0  0  2  0  0  0  0  0  0
  1 19  1  1  0  0  0
  2  1  1  0  0  0  0
  3 10  2  0  0  0  0
  5  8  1  0  0  0  0
  6  4  1  1  0  0  0
  6  9  1  0  0  0  0
  6  5  1  0  0  0  0
  7  8  2  0  0  0  0
  7  2  1  0  0  0  0
  9  7  1  0  0  0  0
 10  9  1  0  0  0  0
 11  4  2  0  0  0  0
 11  3  1  0  0  0  0
 12 13  1  0  0  0  0
 13  1  1  0  0  0  0
 13 15  2  0  0  0  0
 14 16  2  0  0  0  0
 16 15  1  0  0  0  0
 17 14  1  0  0  0  0
 18 12  2  0  0  0  0
 18 14  1  0  0  0  0
 20 19  1  6  0  0  0
 20 21  1  0  0  0  0
 21 22  2  0  0  0  0
 21 23  1  0  0  0  0
 22 23  1  0  0  0  0
 24 25  1  0  0  0  0
 25 20  1  0  0  0  0
M  END
>  <MODEL>
7

>  <REMARK>
 VINA RESULT:      -7.3      3.417      6.554
  Name = 
  6 active torsions:
  status: ('A' for Active; 'I' for Inactive)
    1  A    between atoms: C_1  and  C_22
    2  A    between atoms: N_2  and  C_25
    3  A    between atoms: C_9  and  C_25
    4  A    between atoms: C_22  and  C_23
    5  A    between atoms: C_22  and  C_24
    6  A    between atoms: C_23  and  C_25
                            x       y       z     vdW  Elec       q    Type
                         _______ _______ _______ _____ _____    ______ ____

>  <TORSDO>
F 6

$$$$
=
 OpenBabel10222417093D

 25 28  0  0  1  0  0  0  0  0999 V2000
  187.5210  178.1950  141.6810 C   0  0  1  0  0  3  0  0  0  0  0  0
  188.1920  178.5820  140.4400 N   0  0  0  0  0  2  0  0  0  0  0  0
  188.9470  178.6380  136.2490 C   0  0  0  0  0  3  0  0  0  0  0  0
  190.2850  176.6240  136.6760 C   0  0  0  0  0  3  0  0  0  0  0  0
  190.4140  176.0280  139.1200 C   0  0  0  0  0  2  0  0  0  0  0  0
  190.5960  177.1210  138.0620 C   0  0  2  0  0  3  0  0  0  0  0  0
  189.1200  177.7690  139.7090 C   0  0  0  0  0  0  0  0  0  0  0  0
  189.5140  176.6110  140.1100 N   0  0  0  0  0  0  0  0  0  0  0  0
  189.6680  178.1680  138.4700 N   0  0  0  0  0  0  0  0  0  0  0  0
  188.9850  179.0040  137.5300 C   0  0  0  0  0  3  0  0  0  0  0  0
  189.5550  177.3590  135.8280 C   0  0  0  0  0  3  0  0  0  0  0  0
  189.7400  178.6200  142.8300 C   0  0  0  0  0  3  0  0  0  0  0  0
  188.5050  177.9540  142.7860 C   0  0  0  0  0  0  0  0  0  0  0  0
  190.3250  177.4210  144.8500 C   0  0  0  0  0  0  0  0  0  0  0  0
  188.1930  177.0150  143.7750 C   0  0  0  0  0  3  0  0  0  0  0  0
  189.0990  176.7500  144.8070 C   0  0  0  0  0  3  0  0  0  0  0  0
  191.2870  177.1390  145.9460 C   0  0  0  0  0  1  0  0  0  0  0  0
  190.6460  178.3550  143.8620 C   0  0  0  0  0  3  0  0  0  0  0  0
  186.4200  179.1800  142.0760 C   0  0  0  0  0  2  0  0  0  0  0  0
  185.0420  178.5640  141.8940 C   0  0  2  0  0  3  0  0  0  0  0  0
  184.4580  179.0490  140.6120 C   0  0  0  0  0  0  0  0  0  0  0  0
  184.5980  179.7130  139.4520 N   0  0  0  0  0  0  0  0  0  0  0  0
  183.3910  179.1160  139.7360 N   0  0  0  0  0  2  0  0  0  0  0  0
  184.8280  178.6420  144.3800 C   0  0  0  0  0  1  0  0  0  0  0  0
  184.1440  178.9480  143.0600 C   0  0  0  0  0  2  0  0  0  0  0  0
  1 19  1  1  0  0  0
  1 13  1  0  0  0  0
  2  1  1  0  0  0  0
  3 10  2  0  0  0  0
  5  8  1  0  0  0  0
  6  4  1  6  0  0  0
  6  9  1  0  0  0  0
  6  5  1  0  0  0  0
  7  8  2  0  0  0  0
  7  2  1  0  0  0  0
  9  7  1  0  0  0  0
 10  9  1  0  0  0  0
 11  3  1  0  0  0  0
 11  4  2  0  0  0  0
 12 18  1  0  0  0  0
 13 12  2  0  0  0  0
 13 15  1  0  0  0  0
 14 17  1  0  0  0  0
 15 16  2  0  0  0  0
 16 14  1  0  0  0  0
 18 14  2  0  0  0  0
 20 19  1  1  0  0  0
 20 25  1  0  0  0  0
 21 20  1  0  0  0  0
 22 23  1  0  0  0  0
 22 21  2  0  0  0  0
 23 21  1  0  0  0  0
 25 24  1  0  0  0  0
M  END
>  <MODEL>
8

>  <REMARK>
 VINA RESULT:      -7.2      2.084      5.097
  Name = 
  6 active torsions:
  status: ('A' for Active; 'I' for Inactive)
    1  A    between atoms: C_1  and  C_22
    2  A    between atoms: N_2  and  C_25
    3  A    between atoms: C_9  and  C_25
    4  A    between atoms: C_22  and  C_23
    5  A    between atoms: C_22  and  C_24
    6  A    between atoms: C_23  and  C_25
                            x       y       z     vdW  Elec       q    Type
                         _______ _______ _______ _____ _____    ______ ____

>  <TORSDO>
F 6

$$$$
=
 OpenBabel10222417093D

 25 28  0  0  1  0  0  0  0  0999 V2000
  189.4470  177.5010  142.2250 C   0  0  1  0  0  3  0  0  0  0  0  0
  189.6840  177.1410  140.8270 N   0  0  0  0  0  2  0  0  0  0  0  0
  190.9090  174.6900  137.5660 C   0  0  0  0  0  3  0  0  0  0  0  0
  193.1530  175.5840  138.0110 C   0  0  0  0  0  3  0  0  0  0  0  0
  193.1770  177.3120  139.8430 C   0  0  0  0  0  2  0  0  0  0  0  0
  192.5450  176.8630  138.5230 C   0  0  2  0  0  3  0  0  0  0  0  0
  190.9630  177.1260  140.1780 C   0  0  0  0  0  0  0  0  0  0  0  0
  192.0530  177.4930  140.7560 N   0  0  0  0  0  0  0  0  0  0  0  0
  191.1350  176.6860  138.8470 N   0  0  0  0  0  0  0  0  0  0  0  0
  190.3190  175.6850  138.2280 C   0  0  0  0  0  3  0  0  0  0  0  0
  192.3840  174.6010  137.5280 C   0  0  0  0  0  3  0  0  0  0  0  0
  187.3600  177.5240  143.6630 C   0  0  0  0  0  3  0  0  0  0  0  0
  188.0100  177.8560  142.4650 C   0  0  0  0  0  0  0  0  0  0  0  0
  185.3080  178.5030  142.8320 C   0  0  0  0  0  0  0  0  0  0  0  0
  187.2980  178.5050  141.4510 C   0  0  0  0  0  3  0  0  0  0  0  0
  185.9500  178.8300  141.6340 C   0  0  0  0  0  3  0  0  0  0  0  0
  183.8770  178.8480  143.0270 C   0  0  0  0  0  1  0  0  0  0  0  0
  186.0130  177.8490  143.8470 C   0  0  0  0  0  3  0  0  0  0  0  0
  189.9610  176.4340  143.1930 C   0  0  0  0  0  2  0  0  0  0  0  0
  190.4200  177.0570  144.5010 C   0  0  2  0  0  3  0  0  0  0  0  0
  191.0140  178.3950  144.2210 C   0  0  0  0  0  0  0  0  0  0  0  0
  190.8710  179.7270  144.1130 N   0  0  0  0  0  0  0  0  0  0  0  0
  192.1160  179.1730  143.9160 N   0  0  0  0  0  2  0  0  0  0  0  0
  191.9600  175.1170  144.1940 C   0  0  0  0  0  1  0  0  0  0  0  0
  191.4460  176.1570  145.1730 C   0  0  0  0  0  2  0  0  0  0  0  0
  1 13  1  0  0  0  0
  1 19  1  1  0  0  0
  2  1  1  0  0  0  0
  3 10  2  0  0  0  0
  5  8  1  0  0  0  0
  6  4  1  1  0  0  0
  6  9  1  0  0  0  0
  6  5  1  0  0  0  0
  7  8  2  0  0  0  0
  7  2  1  0  0  0  0
  9  7  1  0  0  0  0
 10  9  1  0  0  0  0
 11  3  1  0  0  0  0
 11  4  2  0  0  0  0
 12 18  1  0  0  0  0
 13 12  2  0  0  0  0
 14 17  1  0  0  0  0
 14 18  2  0  0  0  0
 15 16  2  0  0  0  0
 15 13  1  0  0  0  0
 16 14  1  0  0  0  0
 20 19  1  6  0  0  0
 20 25  1  0  0  0  0
 21 20  1  0  0  0  0
 22 21  2  0  0  0  0
 23 22  1  0  0  0  0
 23 21  1  0  0  0  0
 24 25  1  0  0  0  0
M  END
>  <MODEL>
9

>  <REMARK>
 VINA RESULT:      -7.1      1.725      2.525
  Name = 
  6 active torsions:
  status: ('A' for Active; 'I' for Inactive)
    1  A    between atoms: C_1  and  C_22
    2  A    between atoms: N_2  and  C_25
    3  A    between atoms: C_9  and  C_25
    4  A    between atoms: C_22  and  C_23
    5  A    between atoms: C_22  and  C_24
    6  A    between atoms: C_23  and  C_25
                            x       y       z     vdW  Elec       q    Type
                         _______ _______ _______ _____ _____    ______ ____

>  <TORSDO>
F 6

$$$$
