=
 OpenBabel10222416013D

 25 28  0  0  1  0  0  0  0  0999 V2000
  187.5280  177.0790  142.9510 C   0  0  0  0  0  3  0  0  0  0  0  0
  188.7390  177.0990  142.3750 C   0  0  0  0  0  0  0  0  0  0  0  0
  186.0830  179.0080  140.3530 O   0  0  0  0  0  0  0  0  0  0  0  0
  186.3560  177.9390  142.6510 C   0  0  0  0  0  0  0  0  0  0  0  0
  186.2160  178.4870  141.4680 C   0  0  0  0  0  0  0  0  0  0  0  0
  185.4920  178.9490  147.4260 N   0  0  0  0  0  1  0  0  0  0  0  0
  185.9050  178.4530  145.0730 C   0  0  0  0  0  3  0  0  0  0  0  0
  184.0830  178.5750  143.4950 C   0  0  0  0  0  3  0  0  0  0  0  0
  183.2300  178.9430  144.5380 C   0  0  0  0  0  3  0  0  0  0  0  0
  185.4390  178.3230  143.7550 C   0  0  0  0  0  0  0  0  0  0  0  0
  183.7130  179.0570  145.8050 N   0  0  0  0  0  0  0  0  0  0  0  0
  185.0220  178.8210  146.0900 C   0  0  0  0  0  0  0  0  0  0  0  0
  189.2690  177.2490  140.0280 N   0  0  1  0  0  0  0  0  0  0  0  0
  190.3400  177.7170  140.7700 O   0  0  0  0  0  0  0  0  0  0  0  0
  189.0980  178.0150  141.2410 C   0  0  2  0  0  3  0  0  0  0  0  0
  189.0980  178.1700  138.9170 C   0  0  2  0  0  3  0  0  0  0  0  0
  188.0930  177.6810  138.0260 C   0  0  2  0  0  3  0  0  0  0  0  0
  190.4220  177.0950  136.8660 O   0  0  0  0  0  0  0  0  0  0  0  0
  189.5550  177.4900  137.6280 C   0  0  0  0  0  0  0  0  0  0  0  0
  187.5350  178.7780  137.2590 N   0  0  0  0  0  1  0  0  0  0  0  0
  189.7900  176.2020  142.9370 C   0  0  0  0  0  2  0  0  0  0  0  0
  191.5280  176.3220  144.4770 C   0  0  1  0  0  3  0  0  0  0  0  0
  191.8290  176.2600  145.9620 C   0  0  0  0  0  1  0  0  0  0  0  0
  190.1310  176.6290  144.2840 N   0  0  0  0  0  0  0  0  0  0  0  0
  191.1300  177.5800  144.1510 O   0  0  0  0  0  0  0  0  0  0  0  0
  2 21  1  0  0  0  0
  2  1  2  0  0  0  0
  3  5  2  0  0  0  0
  4  1  1  0  0  0  0
  4 10  1  0  0  0  0
  5  4  2  0  0  0  0
  7 12  1  0  0  0  0
  8 10  1  0  0  0  0
  8  9  2  0  0  0  0
  9 11  1  0  0  0  0
 10  7  2  0  0  0  0
 11 12  2  0  0  0  0
 12  6  1  0  0  0  0
 13 14  1  1  0  0  0
 13 15  1  0  0  0  0
 14 15  1  0  0  0  0
 15  2  1  1  0  0  0
 16 19  1  6  0  0  0
 16 13  1  0  0  0  0
 17 20  1  6  0  0  0
 17 16  1  0  0  0  0
 18 19  2  0  0  0  0
 19 17  1  0  0  0  0
 21 24  1  0  0  0  0
 22 23  1  1  0  0  0
 24 22  1  0  0  0  0
 25 24  1  0  0  0  0
 25 22  1  0  0  0  0
M  END
>  <MODEL>
1

>  <REMARK>
 VINA RESULT:      -8.2      0.000      0.000
  Name = 
  6 active torsions:
  status: ('A' for Active; 'I' for Inactive)
    1  A    between atoms: N_6  and  C_7
    2  A    between atoms: C_11  and  C_12
    3  A    between atoms: C_12  and  C_15
    4  A    between atoms: C_16  and  C_25
    5  A    between atoms: N_21  and  C_23
    6  A    between atoms: C_23  and  C_25
                            x       y       z     vdW  Elec       q    Type
                         _______ _______ _______ _____ _____    ______ ____

>  <TORSDO>
F 6

$$$$
=
 OpenBabel10222416013D

 25 28  0  0  1  0  0  0  0  0999 V2000
  188.1530  177.0400  143.4230 C   0  0  0  0  0  3  0  0  0  0  0  0
  189.4360  177.0160  143.0310 C   0  0  0  0  0  0  0  0  0  0  0  0
  187.1620  178.6520  140.4260 O   0  0  0  0  0  0  0  0  0  0  0  0
  187.0280  177.8010  142.8250 C   0  0  0  0  0  0  0  0  0  0  0  0
  187.0970  178.2370  141.5900 C   0  0  0  0  0  0  0  0  0  0  0  0
  185.0950  178.7180  147.2970 N   0  0  0  0  0  1  0  0  0  0  0  0
  186.0350  178.2690  145.0910 C   0  0  0  0  0  3  0  0  0  0  0  0
  184.6700  178.5950  143.1270 C   0  0  0  0  0  3  0  0  0  0  0  0
  183.6160  178.9970  143.9510 C   0  0  0  0  0  3  0  0  0  0  0  0
  185.8980  178.2220  143.6930 C   0  0  0  0  0  0  0  0  0  0  0  0
  183.7810  179.0290  145.3020 N   0  0  0  0  0  0  0  0  0  0  0  0
  184.9590  178.6750  145.8820 C   0  0  0  0  0  0  0  0  0  0  0  0
  190.4010  176.8200  140.8300 N   0  0  1  0  0  0  0  0  0  0  0  0
  191.2740  177.5120  141.6530 O   0  0  0  0  0  0  0  0  0  0  0  0
  189.9460  177.7590  141.8300 C   0  0  2  0  0  3  0  0  0  0  0  0
  190.3880  177.5180  139.5560 C   0  0  2  0  0  3  0  0  0  0  0  0
  189.6120  176.7860  138.6050 C   0  0  2  0  0  3  0  0  0  0  0  0
  192.1570  176.2540  138.0110 O   0  0  0  0  0  0  0  0  0  0  0  0
  191.1330  176.6800  138.5180 C   0  0  0  0  0  0  0  0  0  0  0  0
  189.1410  177.6750  137.5610 N   0  0  0  0  0  1  0  0  0  0  0  0
  190.4040  176.2550  143.8720 C   0  0  0  0  0  2  0  0  0  0  0  0
  191.6880  176.3670  145.8080 C   0  0  1  0  0  3  0  0  0  0  0  0
  191.5880  176.5070  147.3150 C   0  0  0  0  0  1  0  0  0  0  0  0
  190.4690  176.8430  145.2000 N   0  0  0  0  0  0  0  0  0  0  0  0
  191.6280  177.5990  145.2370 O   0  0  0  0  0  0  0  0  0  0  0  0
  2  1  2  0  0  0  0
  2 21  1  0  0  0  0
  3  5  2  0  0  0  0
  4  1  1  0  0  0  0
  4 10  1  0  0  0  0
  5  4  2  0  0  0  0
  7 12  1  0  0  0  0
  8 10  1  0  0  0  0
  8  9  2  0  0  0  0
  9 11  1  0  0  0  0
 10  7  2  0  0  0  0
 11 12  2  0  0  0  0
 12  6  1  0  0  0  0
 13 14  1  1  0  0  0
 13 15  1  0  0  0  0
 14 15  1  0  0  0  0
 15  2  1  1  0  0  0
 16 19  1  6  0  0  0
 16 13  1  0  0  0  0
 17 20  1  6  0  0  0
 17 16  1  0  0  0  0
 18 19  2  0  0  0  0
 19 17  1  0  0  0  0
 21 24  1  0  0  0  0
 22 23  1  1  0  0  0
 24 25  1  0  0  0  0
 24 22  1  0  0  0  0
 25 22  1  0  0  0  0
M  END
>  <MODEL>
2

>  <REMARK>
 VINA RESULT:      -8.1      1.154      1.219
  Name = 
  6 active torsions:
  status: ('A' for Active; 'I' for Inactive)
    1  A    between atoms: N_6  and  C_7
    2  A    between atoms: C_11  and  C_12
    3  A    between atoms: C_12  and  C_15
    4  A    between atoms: C_16  and  C_25
    5  A    between atoms: N_21  and  C_23
    6  A    between atoms: C_23  and  C_25
                            x       y       z     vdW  Elec       q    Type
                         _______ _______ _______ _____ _____    ______ ____

>  <TORSDO>
F 6

$$$$
=
 OpenBabel10222416013D

 25 28  0  0  1  0  0  0  0  0999 V2000
  188.1030  177.0430  143.5860 C   0  0  0  0  0  3  0  0  0  0  0  0
  189.3780  177.0330  143.1700 C   0  0  0  0  0  0  0  0  0  0  0  0
  187.0460  178.6810  140.6260 O   0  0  0  0  0  0  0  0  0  0  0  0
  186.9610  177.8010  143.0170 C   0  0  0  0  0  0  0  0  0  0  0  0
  187.0050  178.2520  141.7870 C   0  0  0  0  0  0  0  0  0  0  0  0
  182.2390  179.1240  143.7380 N   0  0  0  0  0  1  0  0  0  0  0  0
  184.5650  178.4750  143.3950 C   0  0  0  0  0  3  0  0  0  0  0  0
  186.0450  178.3060  145.2950 C   0  0  0  0  0  3  0  0  0  0  0  0
  184.9860  178.6770  146.1270 C   0  0  0  0  0  3  0  0  0  0  0  0
  185.8440  178.2030  143.9100 C   0  0  0  0  0  0  0  0  0  0  0  0
  183.7600  178.9360  145.5960 N   0  0  0  0  0  0  0  0  0  0  0  0
  183.5320  178.8440  144.2580 C   0  0  0  0  0  0  0  0  0  0  0  0
  190.2950  176.8690  140.9460 N   0  0  1  0  0  0  0  0  0  0  0  0
  191.1850  177.5510  141.7590 O   0  0  0  0  0  0  0  0  0  0  0  0
  189.8610  177.7930  141.9690 C   0  0  2  0  0  3  0  0  0  0  0  0
  190.2530  177.5850  139.6830 C   0  0  2  0  0  3  0  0  0  0  0  0
  189.4600  176.8630  138.7380 C   0  0  2  0  0  3  0  0  0  0  0  0
  191.9940  176.3500  138.0840 O   0  0  0  0  0  0  0  0  0  0  0  0
  190.9800  176.7650  138.6180 C   0  0  0  0  0  0  0  0  0  0  0  0
  188.9640  177.7650  137.7160 N   0  0  0  0  0  1  0  0  0  0  0  0
  190.3680  176.2700  143.9860 C   0  0  0  0  0  2  0  0  0  0  0  0
  191.6950  176.3630  145.8930 C   0  0  1  0  0  3  0  0  0  0  0  0
  191.6300  176.5100  147.4010 C   0  0  0  0  0  1  0  0  0  0  0  0
  190.4720  176.8600  145.3100 N   0  0  0  0  0  0  0  0  0  0  0  0
  191.6470  177.5950  145.3190 O   0  0  0  0  0  0  0  0  0  0  0  0
  2  1  2  0  0  0  0
  2 21  1  0  0  0  0
  3  5  2  0  0  0  0
  4  1  1  0  0  0  0
  4 10  1  0  0  0  0
  5  4  2  0  0  0  0
  6 12  1  0  0  0  0
  7 10  2  0  0  0  0
  7 12  1  0  0  0  0
  8  9  2  0  0  0  0
 10  8  1  0  0  0  0
 11  9  1  0  0  0  0
 12 11  2  0  0  0  0
 13 14  1  1  0  0  0
 13 15  1  0  0  0  0
 14 15  1  0  0  0  0
 15  2  1  1  0  0  0
 16 19  1  6  0  0  0
 16 13  1  0  0  0  0
 17 20  1  6  0  0  0
 17 16  1  0  0  0  0
 18 19  2  0  0  0  0
 19 17  1  0  0  0  0
 21 24  1  0  0  0  0
 22 23  1  1  0  0  0
 24 25  1  0  0  0  0
 24 22  1  0  0  0  0
 25 22  1  0  0  0  0
M  END
>  <MODEL>
3

>  <REMARK>
 VINA RESULT:      -8.1      1.232      1.808
  Name = 
  6 active torsions:
  status: ('A' for Active; 'I' for Inactive)
    1  A    between atoms: N_6  and  C_7
    2  A    between atoms: C_11  and  C_12
    3  A    between atoms: C_12  and  C_15
    4  A    between atoms: C_16  and  C_25
    5  A    between atoms: N_21  and  C_23
    6  A    between atoms: C_23  and  C_25
                            x       y       z     vdW  Elec       q    Type
                         _______ _______ _______ _____ _____    ______ ____

>  <TORSDO>
F 6

$$$$
=
 OpenBabel10222416013D

 25 28  0  0  1  0  0  0  0  0999 V2000
  188.7530  178.0960  145.6110 C   0  0  0  0  0  3  0  0  0  0  0  0
  187.6850  177.5400  145.0190 C   0  0  0  0  0  0  0  0  0  0  0  0
  191.0250  179.9860  143.6550 O   0  0  0  0  0  0  0  0  0  0  0  0
  190.1600  178.1030  145.1390 C   0  0  0  0  0  0  0  0  0  0  0  0
  190.6040  179.0730  144.3770 C   0  0  0  0  0  0  0  0  0  0  0  0
  192.8150  175.2150  148.1700 N   0  0  0  0  0  1  0  0  0  0  0  0
  191.5120  176.6290  146.6690 C   0  0  0  0  0  3  0  0  0  0  0  0
  191.3220  176.0310  144.3380 C   0  0  0  0  0  3  0  0  0  0  0  0
  192.1160  174.9090  144.5820 C   0  0  0  0  0  3  0  0  0  0  0  0
  191.0110  176.9100  145.3870 C   0  0  0  0  0  0  0  0  0  0  0  0
  192.5870  174.6670  145.8350 N   0  0  0  0  0  0  0  0  0  0  0  0
  192.3040  175.4980  146.8730 C   0  0  0  0  0  0  0  0  0  0  0  0
  188.0010  177.8060  142.6440 N   0  0  1  0  0  0  0  0  0  0  0  0
  186.7430  177.2800  142.8820 O   0  0  0  0  0  0  0  0  0  0  0  0
  187.7470  176.8420  143.6910 C   0  0  2  0  0  3  0  0  0  0  0  0
  188.5520  177.0710  141.5180 C   0  0  2  0  0  3  0  0  0  0  0  0
  189.8810  177.5210  141.2430 C   0  0  2  0  0  3  0  0  0  0  0  0
  188.3370  178.6930  139.4110 O   0  0  0  0  0  0  0  0  0  0  0  0
  188.7550  178.0300  140.3460 C   0  0  0  0  0  0  0  0  0  0  0  0
  190.6170  176.4900  140.5380 N   0  0  0  0  0  1  0  0  0  0  0  0
  186.3880  177.5730  145.7560 C   0  0  0  0  0  2  0  0  0  0  0  0
  184.3320  178.4520  145.1180 C   0  0  1  0  0  3  0  0  0  0  0  0
  183.6960  179.5790  144.3290 C   0  0  0  0  0  1  0  0  0  0  0  0
  185.6870  178.8110  145.4610 N   0  0  0  0  0  0  0  0  0  0  0  0
  184.6410  178.8940  146.3660 O   0  0  0  0  0  0  0  0  0  0  0  0
  2  1  2  0  0  0  0
  2 21  1  0  0  0  0
  3  5  2  0  0  0  0
  4 10  1  0  0  0  0
  4  1  1  0  0  0  0
  5  4  2  0  0  0  0
  7 12  1  0  0  0  0
  8  9  2  0  0  0  0
  8 10  1  0  0  0  0
  9 11  1  0  0  0  0
 10  7  2  0  0  0  0
 11 12  2  0  0  0  0
 12  6  1  0  0  0  0
 13 14  1  6  0  0  0
 13 15  1  0  0  0  0
 14 15  1  0  0  0  0
 15  2  1  1  0  0  0
 16 19  1  6  0  0  0
 16 13  1  0  0  0  0
 17 20  1  6  0  0  0
 17 16  1  0  0  0  0
 18 19  2  0  0  0  0
 19 17  1  0  0  0  0
 22 23  1  6  0  0  0
 22 24  1  0  0  0  0
 22 25  1  0  0  0  0
 24 21  1  0  0  0  0
 24 25  1  0  0  0  0
M  END
>  <MODEL>
4

>  <REMARK>
 VINA RESULT:      -8.0      2.462      5.996
  Name = 
  6 active torsions:
  status: ('A' for Active; 'I' for Inactive)
    1  A    between atoms: N_6  and  C_7
    2  A    between atoms: C_11  and  C_12
    3  A    between atoms: C_12  and  C_15
    4  A    between atoms: C_16  and  C_25
    5  A    between atoms: N_21  and  C_23
    6  A    between atoms: C_23  and  C_25
                            x       y       z     vdW  Elec       q    Type
                         _______ _______ _______ _____ _____    ______ ____

>  <TORSDO>
F 6

$$$$
=
 OpenBabel10222416013D

 25 28  0  0  1  0  0  0  0  0999 V2000
  190.1690  177.3510  142.6910 C   0  0  0  0  0  3  0  0  0  0  0  0
  189.3870  177.5830  141.6260 C   0  0  0  0  0  0  0  0  0  0  0  0
  192.0590  179.9350  144.2110 O   0  0  0  0  0  0  0  0  0  0  0  0
  190.2680  178.1410  143.9430 C   0  0  0  0  0  0  0  0  0  0  0  0
  191.1890  179.0650  144.0790 C   0  0  0  0  0  0  0  0  0  0  0  0
  185.8790  177.8000  146.2210 N   0  0  0  0  0  1  0  0  0  0  0  0
  188.0450  177.9640  145.1100 C   0  0  0  0  0  3  0  0  0  0  0  0
  190.0220  177.1570  146.2350 C   0  0  0  0  0  3  0  0  0  0  0  0
  189.2280  176.7890  147.3240 C   0  0  0  0  0  3  0  0  0  0  0  0
  189.4340  177.7540  145.1100 C   0  0  0  0  0  0  0  0  0  0  0  0
  187.8860  177.0090  147.2930 N   0  0  0  0  0  0  0  0  0  0  0  0
  187.2850  177.5840  146.2170 C   0  0  0  0  0  0  0  0  0  0  0  0
  187.0590  178.1870  141.4530 N   0  0  1  0  0  0  0  0  0  0  0  0
  187.7460  178.6940  140.3630 O   0  0  0  0  0  0  0  0  0  0  0  0
  188.4010  178.7140  141.5570 C   0  0  2  0  0  3  0  0  0  0  0  0
  186.1570  179.2350  141.9010 C   0  0  2  0  0  3  0  0  0  0  0  0
  185.1330  178.6780  142.7280 C   0  0  2  0  0  3  0  0  0  0  0  0
  183.9980  179.0560  140.3450 O   0  0  0  0  0  0  0  0  0  0  0  0
  184.7800  179.0090  141.2790 C   0  0  0  0  0  0  0  0  0  0  0  0
  184.5840  179.7040  143.5940 N   0  0  0  0  0  1  0  0  0  0  0  0
  189.5560  176.7000  140.4350 C   0  0  0  0  0  2  0  0  0  0  0  0
  190.8710  176.1800  138.5890 C   0  0  1  0  0  3  0  0  0  0  0  0
  192.2960  176.2270  138.0720 C   0  0  0  0  0  1  0  0  0  0  0  0
  190.7250  177.1160  139.6780 N   0  0  0  0  0  0  0  0  0  0  0  0
  190.2820  177.3900  138.3950 O   0  0  0  0  0  0  0  0  0  0  0  0
  1  4  1  0  0  0  0
  2  1  2  0  0  0  0
  4  5  2  0  0  0  0
  4 10  1  0  0  0  0
  5  3  2  0  0  0  0
  7 12  1  0  0  0  0
  8  9  2  0  0  0  0
 10  7  2  0  0  0  0
 10  8  1  0  0  0  0
 11  9  1  0  0  0  0
 12  6  1  0  0  0  0
 12 11  2  0  0  0  0
 13 14  1  6  0  0  0
 13 15  1  0  0  0  0
 13 16  1  0  0  0  0
 14 15  1  0  0  0  0
 15  2  1  6  0  0  0
 16 19  1  6  0  0  0
 16 17  1  0  0  0  0
 17 20  1  1  0  0  0
 18 19  2  0  0  0  0
 19 17  1  0  0  0  0
 21  2  1  0  0  0  0
 22 23  1  6  0  0  0
 22 24  1  0  0  0  0
 24 21  1  0  0  0  0
 25 22  1  0  0  0  0
 25 24  1  0  0  0  0
M  END
>  <MODEL>
5

>  <REMARK>
 VINA RESULT:      -7.6      2.194      5.023
  Name = 
  6 active torsions:
  status: ('A' for Active; 'I' for Inactive)
    1  A    between atoms: N_6  and  C_7
    2  A    between atoms: C_11  and  C_12
    3  A    between atoms: C_12  and  C_15
    4  A    between atoms: C_16  and  C_25
    5  A    between atoms: N_21  and  C_23
    6  A    between atoms: C_23  and  C_25
                            x       y       z     vdW  Elec       q    Type
                         _______ _______ _______ _____ _____    ______ ____

>  <TORSDO>
F 6

$$$$
=
 OpenBabel10222416013D

 25 28  0  0  1  0  0  0  0  0999 V2000
  186.9100  178.2810  142.5370 C   0  0  0  0  0  3  0  0  0  0  0  0
  188.0580  177.6020  142.6790 C   0  0  0  0  0  0  0  0  0  0  0  0
  185.9960  177.7650  145.9220 O   0  0  0  0  0  0  0  0  0  0  0  0
  185.7340  178.2900  143.4410 C   0  0  0  0  0  0  0  0  0  0  0  0
  185.8700  178.0210  144.7170 C   0  0  0  0  0  0  0  0  0  0  0  0
  182.5870  177.9230  139.6290 N   0  0  0  0  0  1  0  0  0  0  0  0
  184.1270  178.1080  141.5130 C   0  0  0  0  0  3  0  0  0  0  0  0
  183.3040  178.8700  143.6500 C   0  0  0  0  0  3  0  0  0  0  0  0
  182.0280  178.9890  143.0940 C   0  0  0  0  0  3  0  0  0  0  0  0
  184.3740  178.4280  142.8580 C   0  0  0  0  0  0  0  0  0  0  0  0
  181.8230  178.6740  141.7870 N   0  0  0  0  0  0  0  0  0  0  0  0
  182.8380  178.2410  140.9920 C   0  0  0  0  0  0  0  0  0  0  0  0
  189.4340  177.3240  144.6400 N   0  0  1  0  0  0  0  0  0  0  0  0
  189.6330  176.2530  143.7850 O   0  0  0  0  0  0  0  0  0  0  0  0
  188.3630  176.7360  143.8680 C   0  0  2  0  0  3  0  0  0  0  0  0
  189.3410  176.7740  145.9810 C   0  0  2  0  0  3  0  0  0  0  0  0
  189.3250  177.8310  146.9430 C   0  0  2  0  0  3  0  0  0  0  0  0
  191.8110  176.8650  146.9830 O   0  0  0  0  0  0  0  0  0  0  0  0
  190.6350  177.0730  146.7360 C   0  0  0  0  0  0  0  0  0  0  0  0
  188.7050  177.3740  148.1720 N   0  0  0  0  0  1  0  0  0  0  0  0
  189.0490  177.6720  141.5670 C   0  0  0  0  0  2  0  0  0  0  0  0
  189.3660  178.0140  139.2880 C   0  0  1  0  0  3  0  0  0  0  0  0
  188.9280  178.8860  138.1270 C   0  0  0  0  0  1  0  0  0  0  0  0
  188.3850  178.0920  140.3440 N   0  0  0  0  0  0  0  0  0  0  0  0
  188.4580  177.0190  139.4710 O   0  0  0  0  0  0  0  0  0  0  0  0
  1  2  2  0  0  0  0
  1  4  1  0  0  0  0
  4  5  2  0  0  0  0
  5  3  2  0  0  0  0
  6 12  1  0  0  0  0
  7 10  1  0  0  0  0
  9  8  1  0  0  0  0
 10  4  1  0  0  0  0
 10  8  2  0  0  0  0
 11  9  2  0  0  0  0
 12  7  2  0  0  0  0
 12 11  1  0  0  0  0
 13 14  1  6  0  0  0
 13 16  1  0  0  0  0
 14 15  1  0  0  0  0
 15  2  1  6  0  0  0
 15 13  1  0  0  0  0
 16 19  1  1  0  0  0
 16 17  1  0  0  0  0
 17 20  1  1  0  0  0
 19 17  1  0  0  0  0
 19 18  2  0  0  0  0
 21  2  1  0  0  0  0
 22 23  1  6  0  0  0
 22 25  1  0  0  0  0
 22 24  1  0  0  0  0
 24 21  1  0  0  0  0
 25 24  1  0  0  0  0
M  END
>  <MODEL>
6

>  <REMARK>
 VINA RESULT:      -7.5      2.495      5.806
  Name = 
  6 active torsions:
  status: ('A' for Active; 'I' for Inactive)
    1  A    between atoms: N_6  and  C_7
    2  A    between atoms: C_11  and  C_12
    3  A    between atoms: C_12  and  C_15
    4  A    between atoms: C_16  and  C_25
    5  A    between atoms: N_21  and  C_23
    6  A    between atoms: C_23  and  C_25
                            x       y       z     vdW  Elec       q    Type
                         _______ _______ _______ _____ _____    ______ ____

>  <TORSDO>
F 6

$$$$
=
 OpenBabel10222416013D

 25 28  0  0  1  0  0  0  0  0999 V2000
  187.9340  177.4250  142.0580 C   0  0  0  0  0  3  0  0  0  0  0  0
  187.0960  178.2490  141.4110 C   0  0  0  0  0  0  0  0  0  0  0  0
  186.2810  176.9760  145.1600 O   0  0  0  0  0  0  0  0  0  0  0  0
  188.1940  177.3450  143.5170 C   0  0  0  0  0  0  0  0  0  0  0  0
  187.2090  177.1540  144.3610 C   0  0  0  0  0  0  0  0  0  0  0  0
  191.9370  176.5780  146.6750 N   0  0  0  0  0  1  0  0  0  0  0  0
  190.1010  176.9650  145.1160 C   0  0  0  0  0  3  0  0  0  0  0  0
  190.3210  178.6680  143.4190 C   0  0  0  0  0  3  0  0  0  0  0  0
  191.6000  178.9550  143.9020 C   0  0  0  0  0  3  0  0  0  0  0  0
  189.5520  177.6640  144.0280 C   0  0  0  0  0  0  0  0  0  0  0  0
  192.1010  178.2620  144.9600 N   0  0  0  0  0  0  0  0  0  0  0  0
  191.3820  177.2820  145.5710 C   0  0  0  0  0  0  0  0  0  0  0  0
  184.8770  178.6920  142.2440 N   0  0  1  0  0  0  0  0  0  0  0  0
  185.2010  179.6340  141.2820 O   0  0  0  0  0  0  0  0  0  0  0  0
  186.2080  179.2390  142.1100 C   0  0  2  0  0  3  0  0  0  0  0  0
  184.2320  179.4110  143.3300 C   0  0  2  0  0  3  0  0  0  0  0  0
  183.7440  178.4880  144.3050 C   0  0  2  0  0  3  0  0  0  0  0  0
  181.6100  179.2140  142.8800 O   0  0  0  0  0  0  0  0  0  0  0  0
  182.7390  179.0890  143.3250 C   0  0  0  0  0  0  0  0  0  0  0  0
  183.6050  179.1500  145.5880 N   0  0  0  0  0  1  0  0  0  0  0  0
  187.0990  178.2110  139.9200 C   0  0  0  0  0  2  0  0  0  0  0  0
  188.4570  178.2190  138.0320 C   0  0  1  0  0  3  0  0  0  0  0  0
  189.5980  177.4760  137.3640 C   0  0  0  0  0  1  0  0  0  0  0  0
  188.4350  177.9000  139.4390 N   0  0  0  0  0  0  0  0  0  0  0  0
  188.9610  179.0850  138.9510 O   0  0  0  0  0  0  0  0  0  0  0  0
  1  4  1  0  0  0  0
  2  1  2  0  0  0  0
  4 10  1  0  0  0  0
  4  5  2  0  0  0  0
  5  3  2  0  0  0  0
  7 12  1  0  0  0  0
  8  9  2  0  0  0  0
  8 10  1  0  0  0  0
  9 11  1  0  0  0  0
 10  7  2  0  0  0  0
 11 12  2  0  0  0  0
 12  6  1  0  0  0  0
 13 14  1  6  0  0  0
 13 16  1  0  0  0  0
 14 15  1  0  0  0  0
 15  2  1  6  0  0  0
 15 13  1  0  0  0  0
 16 19  1  6  0  0  0
 16 17  1  0  0  0  0
 17 20  1  1  0  0  0
 18 19  2  0  0  0  0
 19 17  1  0  0  0  0
 21  2  1  0  0  0  0
 22 23  1  6  0  0  0
 22 25  1  0  0  0  0
 22 24  1  0  0  0  0
 24 21  1  0  0  0  0
 25 24  1  0  0  0  0
M  END
>  <MODEL>
7

>  <REMARK>
 VINA RESULT:      -7.5      2.240      6.422
  Name = 
  6 active torsions:
  status: ('A' for Active; 'I' for Inactive)
    1  A    between atoms: N_6  and  C_7
    2  A    between atoms: C_11  and  C_12
    3  A    between atoms: C_12  and  C_15
    4  A    between atoms: C_16  and  C_25
    5  A    between atoms: N_21  and  C_23
    6  A    between atoms: C_23  and  C_25
                            x       y       z     vdW  Elec       q    Type
                         _______ _______ _______ _____ _____    ______ ____

>  <TORSDO>
F 6

$$$$
=
 OpenBabel10222416013D

 25 28  0  0  1  0  0  0  0  0999 V2000
  186.3280  178.0100  143.8720 C   0  0  0  0  0  3  0  0  0  0  0  0
  185.1620  178.2680  143.2630 C   0  0  0  0  0  0  0  0  0  0  0  0
  184.9460  179.0010  146.9810 O   0  0  0  0  0  0  0  0  0  0  0  0
  186.6290  178.0400  145.3250 C   0  0  0  0  0  0  0  0  0  0  0  0
  185.7610  178.5330  146.1760 C   0  0  0  0  0  0  0  0  0  0  0  0
  191.3290  176.7590  144.4120 N   0  0  0  0  0  1  0  0  0  0  0  0
  189.0180  177.3880  144.8730 C   0  0  0  0  0  3  0  0  0  0  0  0
  188.2830  177.6200  147.1610 C   0  0  0  0  0  3  0  0  0  0  0  0
  189.5700  177.2830  147.5870 C   0  0  0  0  0  3  0  0  0  0  0  0
  187.9920  177.6740  145.7890 C   0  0  0  0  0  0  0  0  0  0  0  0
  190.5400  177.0090  146.6740 N   0  0  0  0  0  0  0  0  0  0  0  0
  190.2910  177.0540  145.3380 C   0  0  0  0  0  0  0  0  0  0  0  0
  182.9250  179.1530  143.0920 N   0  0  1  0  0  0  0  0  0  0  0  0
  183.6630  179.9380  143.9610 O   0  0  0  0  0  0  0  0  0  0  0  0
  183.8980  178.5980  144.0050 C   0  0  2  0  0  3  0  0  0  0  0  0
  181.6190  178.9700  143.7030 C   0  0  2  0  0  3  0  0  0  0  0  0
  180.7460  178.2930  142.7970 C   0  0  2  0  0  3  0  0  0  0  0  0
  180.0550  180.8650  142.6640 O   0  0  0  0  0  0  0  0  0  0  0  0
  180.5900  179.8050  142.9420 C   0  0  0  0  0  0  0  0  0  0  0  0
  179.6820  177.6360  143.5320 N   0  0  0  0  0  1  0  0  0  0  0  0
  185.1460  178.2820  141.7710 C   0  0  0  0  0  2  0  0  0  0  0  0
  187.0600  178.1140  140.4620 C   0  0  1  0  0  3  0  0  0  0  0  0
  188.4800  178.6300  140.3300 C   0  0  0  0  0  1  0  0  0  0  0  0
  186.2920  179.0260  141.2750 N   0  0  0  0  0  0  0  0  0  0  0  0
  186.2040  179.0040  139.8930 O   0  0  0  0  0  0  0  0  0  0  0  0
  1  4  1  0  0  0  0
  2  1  2  0  0  0  0
  4 10  1  0  0  0  0
  4  5  2  0  0  0  0
  5  3  2  0  0  0  0
  6 12  1  0  0  0  0
  7 12  2  0  0  0  0
  7 10  1  0  0  0  0
  8  9  1  0  0  0  0
 10  8  2  0  0  0  0
 11  9  2  0  0  0  0
 12 11  1  0  0  0  0
 13 16  1  0  0  0  0
 13 14  1  1  0  0  0
 13 15  1  0  0  0  0
 14 15  1  0  0  0  0
 15  2  1  6  0  0  0
 16 19  1  6  0  0  0
 17 19  1  0  0  0  0
 17 20  1  1  0  0  0
 17 16  1  0  0  0  0
 18 19  2  0  0  0  0
 21  2  1  0  0  0  0
 22 23  1  6  0  0  0
 22 24  1  0  0  0  0
 24 21  1  0  0  0  0
 25 22  1  0  0  0  0
 25 24  1  0  0  0  0
M  END
>  <MODEL>
8

>  <REMARK>
 VINA RESULT:      -7.4      3.014      6.915
  Name = 
  6 active torsions:
  status: ('A' for Active; 'I' for Inactive)
    1  A    between atoms: N_6  and  C_7
    2  A    between atoms: C_11  and  C_12
    3  A    between atoms: C_12  and  C_15
    4  A    between atoms: C_16  and  C_25
    5  A    between atoms: N_21  and  C_23
    6  A    between atoms: C_23  and  C_25
                            x       y       z     vdW  Elec       q    Type
                         _______ _______ _______ _____ _____    ______ ____

>  <TORSDO>
F 6

$$$$
=
 OpenBabel10222416013D

 25 28  0  0  1  0  0  0  0  0999 V2000
  187.9710  177.8360  143.0880 C   0  0  0  0  0  3  0  0  0  0  0  0
  187.3810  178.1560  141.9270 C   0  0  0  0  0  0  0  0  0  0  0  0
  184.8600  178.1780  144.7530 O   0  0  0  0  0  0  0  0  0  0  0  0
  187.3490  177.7280  144.4320 C   0  0  0  0  0  0  0  0  0  0  0  0
  186.0680  177.9580  144.5950 C   0  0  0  0  0  0  0  0  0  0  0  0
  191.7620  176.7490  146.4640 N   0  0  0  0  0  1  0  0  0  0  0  0
  189.5850  177.2310  145.4750 C   0  0  0  0  0  3  0  0  0  0  0  0
  187.6960  177.6670  146.9130 C   0  0  0  0  0  3  0  0  0  0  0  0
  188.5260  177.4910  148.0230 C   0  0  0  0  0  3  0  0  0  0  0  0
  188.2210  177.5350  145.6180 C   0  0  0  0  0  0  0  0  0  0  0  0
  189.8430  177.1940  147.8490 N   0  0  0  0  0  0  0  0  0  0  0  0
  190.3830  177.0610  146.6080 C   0  0  0  0  0  0  0  0  0  0  0  0
  185.6380  179.0580  140.5250 N   0  0  1  0  0  0  0  0  0  0  0  0
  185.6770  179.7610  141.7180 O   0  0  0  0  0  0  0  0  0  0  0  0
  185.9080  178.4220  141.7940 C   0  0  2  0  0  3  0  0  0  0  0  0
  184.2360  178.8250  140.2250 C   0  0  2  0  0  3  0  0  0  0  0  0
  184.0990  178.3050  138.9010 C   0  0  2  0  0  3  0  0  0  0  0  0
  183.4570  180.8880  138.7240 O   0  0  0  0  0  0  0  0  0  0  0  0
  183.7940  179.7850  139.1220 C   0  0  0  0  0  0  0  0  0  0  0  0
  182.8490  177.5790  138.7810 N   0  0  0  0  0  1  0  0  0  0  0  0
  188.2520  178.3100  140.7250 C   0  0  0  0  0  2  0  0  0  0  0  0
  189.9370  177.3660  139.4310 C   0  0  1  0  0  3  0  0  0  0  0  0
  190.5530  176.0380  139.0350 C   0  0  0  0  0  1  0  0  0  0  0  0
  189.1910  177.2030  140.6550 N   0  0  0  0  0  0  0  0  0  0  0  0
  190.4560  177.7660  140.6210 O   0  0  0  0  0  0  0  0  0  0  0  0
  1  4  1  0  0  0  0
  2  1  2  0  0  0  0
  4  5  2  0  0  0  0
  4 10  1  0  0  0  0
  5  3  2  0  0  0  0
  6 12  1  0  0  0  0
  7 10  2  0  0  0  0
  7 12  1  0  0  0  0
  8  9  2  0  0  0  0
 10  8  1  0  0  0  0
 11  9  1  0  0  0  0
 12 11  2  0  0  0  0
 13 14  1  1  0  0  0
 13 15  1  0  0  0  0
 14 15  1  0  0  0  0
 15  2  1  6  0  0  0
 16 19  1  6  0  0  0
 16 13  1  0  0  0  0
 17 20  1  1  0  0  0
 17 19  1  0  0  0  0
 17 16  1  0  0  0  0
 18 19  2  0  0  0  0
 21  2  1  0  0  0  0
 22 23  1  1  0  0  0
 22 25  1  0  0  0  0
 22 24  1  0  0  0  0
 24 21  1  0  0  0  0
 25 24  1  0  0  0  0
M  END
>  <MODEL>
9

>  <REMARK>
 VINA RESULT:      -7.2      2.687      4.918
  Name = 
  6 active torsions:
  status: ('A' for Active; 'I' for Inactive)
    1  A    between atoms: N_6  and  C_7
    2  A    between atoms: C_11  and  C_12
    3  A    between atoms: C_12  and  C_15
    4  A    between atoms: C_16  and  C_25
    5  A    between atoms: N_21  and  C_23
    6  A    between atoms: C_23  and  C_25
                            x       y       z     vdW  Elec       q    Type
                         _______ _______ _______ _____ _____    ______ ____

>  <TORSDO>
F 6

$$$$
