=
 OpenBabel10222419323D

 26 30  0  0  1  0  0  0  0  0999 V2000
  189.6390  177.4010  143.6420 C   0  0  1  0  0  0  0  0  0  0  0  0
  191.0990  177.7670  143.9090 C   0  0  1  0  0  3  0  0  0  0  0  0
  189.5030  176.5830  142.3730 C   0  0  2  0  0  3  0  0  0  0  0  0
  191.5010  177.5060  145.2810 N   0  0  0  0  0  1  0  0  0  0  0  0
  190.7580  176.4610  143.2210 C   0  0  2  0  0  3  0  0  0  0  0  0
  189.7130  176.6670  138.7990 C   0  0  2  0  0  3  0  0  0  0  0  0
  188.3930  177.3890  139.0870 C   0  0  1  0  0  3  0  0  0  0  0  0
  188.4710  177.8430  140.5010 C   0  0  0  0  0  0  0  0  0  0  0  0
  187.5050  178.5340  141.1100 C   0  0  0  0  0  2  0  0  0  0  0  0
  190.5200  176.6620  140.1000 C   0  0  2  0  0  3  0  0  0  0  0  0
  189.7540  177.4640  141.1530 C   0  0  2  0  0  3  0  0  0  0  0  0
  190.9410  177.5580  138.9520 C   0  0  0  0  0  2  0  0  0  0  0  0
  189.0280  179.3720  137.8270 N   0  0  0  0  0  2  0  0  0  0  0  0
  186.8610  178.5690  137.4190 N   0  0  0  0  0  2  0  0  0  0  0  0
  188.1150  178.5000  138.1020 C   0  0  0  0  0  0  0  0  0  0  0  0
  184.7130  178.1610  138.4920 C   0  0  0  0  0  1  0  0  0  0  0  0
  185.7980  177.5910  137.6000 C   0  0  0  0  0  2  0  0  0  0  0  0
  188.8900  176.7470  144.7980 C   0  0  0  0  0  2  0  0  0  0  0  0
  186.0780  178.5530  146.6060 C   0  0  0  0  0  3  0  0  0  0  0  0
  183.9750  179.2520  145.7620 O   0  0  0  0  0  0  0  0  0  0  0  0
  186.7180  177.5290  143.9970 C   0  0  0  0  0  3  0  0  0  0  0  0
  187.5880  177.4340  145.0120 C   0  0  0  0  0  0  0  0  0  0  0  0
  185.0820  178.6970  145.5320 C   0  0  0  0  0  0  0  0  0  0  0  0
  187.2520  177.9600  146.3580 C   0  0  0  0  0  3  0  0  0  0  0  0
  185.4110  178.1750  144.1960 C   0  0  0  0  0  0  0  0  0  0  0  0
  184.5790  178.2760  143.2130 N   0  0  0  0  0  2  0  0  0  0  0  0
  1  2  1  0  0  0  0
  1 18  1  1  0  0  0
  2  4  1  1  0  0  0
  3 11  1  6  0  0  0
  3  5  1  0  0  0  0
  3  1  1  0  0  0  0
  5  1  1  0  0  0  0
  5  2  1  0  0  0  0
  6 12  1  0  0  0  0
  6  7  1  0  0  0  0
  6 10  1  0  0  0  0
  7  8  1  0  0  0  0
  8  9  2  0  0  0  0
  8 11  1  0  0  0  0
 10 11  1  0  0  0  0
 12 10  1  0  0  0  0
 13 15  2  0  0  0  0
 14 17  1  0  0  0  0
 14 15  1  0  0  0  0
 15  7  1  0  0  0  0
 17 16  1  0  0  0  0
 18 22  1  0  0  0  0
 21 25  1  0  0  0  0
 21 22  2  0  0  0  0
 22 24  1  0  0  0  0
 23 20  2  0  0  0  0
 23 19  1  0  0  0  0
 24 19  2  0  0  0  0
 25 23  1  0  0  0  0
 26 25  2  0  0  0  0
M  END
>  <MODEL>
1

>  <REMARK>
 VINA RESULT:      -8.9      0.000      0.000
  Name = 
  5 active torsions:
  status: ('A' for Active; 'I' for Inactive)
    1  A    between atoms: C_3  and  C_26
    2  A    between atoms: C_4  and  C_6
    3  A    between atoms: C_4  and  C_16
    4  A    between atoms: C_11  and  C_12
    5  A    between atoms: N_13  and  C_25
                            x       y       z     vdW  Elec       q    Type
                         _______ _______ _______ _____ _____    ______ ____

>  <TORSDO>
F 5

$$$$
=
 OpenBabel10222419323D

 26 30  0  0  1  0  0  0  0  0999 V2000
  189.5870  177.4320  143.5970 C   0  0  1  0  0  0  0  0  0  0  0  0
  191.0420  177.8030  143.8860 C   0  0  1  0  0  3  0  0  0  0  0  0
  189.4750  176.6000  142.3360 C   0  0  2  0  0  3  0  0  0  0  0  0
  191.4180  177.5580  145.2690 N   0  0  0  0  0  1  0  0  0  0  0  0
  190.7130  176.4880  143.2080 C   0  0  2  0  0  3  0  0  0  0  0  0
  189.6980  176.6530  138.7620 C   0  0  2  0  0  3  0  0  0  0  0  0
  188.3910  177.4040  139.0400 C   0  0  1  0  0  3  0  0  0  0  0  0
  188.4740  177.8670  140.4510 C   0  0  0  0  0  0  0  0  0  0  0  0
  187.5210  178.5820  141.0520 C   0  0  0  0  0  2  0  0  0  0  0  0
  190.5000  176.6410  140.0650 C   0  0  2  0  0  3  0  0  0  0  0  0
  189.7470  177.4660  141.1100 C   0  0  2  0  0  3  0  0  0  0  0  0
  190.9430  177.5190  138.9130 C   0  0  0  0  0  2  0  0  0  0  0  0
  189.0710  179.3660  137.7690 N   0  0  0  0  0  2  0  0  0  0  0  0
  186.8910  178.6020  137.3570 N   0  0  0  0  0  2  0  0  0  0  0  0
  188.1400  178.5130  138.0460 C   0  0  0  0  0  0  0  0  0  0  0  0
  184.7630  178.2150  138.4770 C   0  0  0  0  0  1  0  0  0  0  0  0
  185.8080  177.6450  137.5380 C   0  0  0  0  0  2  0  0  0  0  0  0
  188.8170  176.7920  144.7470 C   0  0  0  0  0  2  0  0  0  0  0  0
  185.3600  178.1250  143.9010 C   0  0  0  0  0  3  0  0  0  0  0  0
  183.8980  179.4230  145.2420 O   0  0  0  0  0  0  0  0  0  0  0  0
  187.2390  178.1000  146.0760 C   0  0  0  0  0  3  0  0  0  0  0  0
  187.5060  177.4740  144.9220 C   0  0  0  0  0  0  0  0  0  0  0  0
  185.0020  178.8250  145.1440 C   0  0  0  0  0  0  0  0  0  0  0  0
  186.5350  177.4930  143.8010 C   0  0  0  0  0  3  0  0  0  0  0  0
  185.9630  178.8100  146.2600 C   0  0  0  0  0  0  0  0  0  0  0  0
  185.7020  179.4030  147.3770 N   0  0  0  0  0  2  0  0  0  0  0  0
  1  2  1  0  0  0  0
  1 18  1  1  0  0  0
  2  4  1  1  0  0  0
  3 11  1  6  0  0  0
  3  5  1  0  0  0  0
  3  1  1  0  0  0  0
  5  1  1  0  0  0  0
  5  2  1  0  0  0  0
  6 12  1  0  0  0  0
  6  7  1  0  0  0  0
  6 10  1  0  0  0  0
  7  8  1  0  0  0  0
  8  9  2  0  0  0  0
  8 11  1  0  0  0  0
 10 11  1  0  0  0  0
 12 10  1  0  0  0  0
 13 15  2  0  0  0  0
 14 17  1  0  0  0  0
 14 15  1  0  0  0  0
 15  7  1  0  0  0  0
 17 16  1  0  0  0  0
 18 22  1  0  0  0  0
 19 23  1  0  0  0  0
 21 25  1  0  0  0  0
 22 21  2  0  0  0  0
 23 20  2  0  0  0  0
 23 25  1  0  0  0  0
 24 19  2  0  0  0  0
 24 22  1  0  0  0  0
 25 26  2  0  0  0  0
M  END
>  <MODEL>
2

>  <REMARK>
 VINA RESULT:      -8.9      0.897      1.325
  Name = 
  5 active torsions:
  status: ('A' for Active; 'I' for Inactive)
    1  A    between atoms: C_3  and  C_26
    2  A    between atoms: C_4  and  C_6
    3  A    between atoms: C_4  and  C_16
    4  A    between atoms: C_11  and  C_12
    5  A    between atoms: N_13  and  C_25
                            x       y       z     vdW  Elec       q    Type
                         _______ _______ _______ _____ _____    ______ ____

>  <TORSDO>
F 5

$$$$
=
 OpenBabel10222419323D

 26 30  0  0  1  0  0  0  0  0999 V2000
  185.5120  178.4660  144.4180 C   0  0  1  0  0  0  0  0  0  0  0  0
  184.9560  179.2400  145.6140 C   0  0  1  0  0  3  0  0  0  0  0  0
  186.4410  177.3570  144.8690 C   0  0  2  0  0  3  0  0  0  0  0  0
  183.5170  179.4300  145.5380 N   0  0  0  0  0  1  0  0  0  0  0  0
  185.2680  177.7620  145.7440 C   0  0  2  0  0  3  0  0  0  0  0  0
  189.2390  176.8330  147.0410 C   0  0  2  0  0  3  0  0  0  0  0  0
  189.8470  176.6630  145.6450 C   0  0  1  0  0  3  0  0  0  0  0  0
  188.9170  177.3450  144.7050 C   0  0  0  0  0  0  0  0  0  0  0  0
  189.1240  177.4270  143.3890 C   0  0  0  0  0  2  0  0  0  0  0  0
  187.9090  177.5700  146.8700 C   0  0  2  0  0  3  0  0  0  0  0  0
  187.7450  177.9470  145.3970 C   0  0  2  0  0  3  0  0  0  0  0  0
  189.1000  178.2880  147.4730 C   0  0  0  0  0  2  0  0  0  0  0  0
  191.5750  178.1490  144.7920 N   0  0  0  0  0  2  0  0  0  0  0  0
  192.2850  176.5920  146.3970 N   0  0  0  0  0  2  0  0  0  0  0  0
  191.2690  177.1630  145.5700 C   0  0  0  0  0  0  0  0  0  0  0  0
  192.8660  175.7480  148.6070 C   0  0  0  0  0  1  0  0  0  0  0  0
  192.0280  175.5330  147.3620 C   0  0  0  0  0  2  0  0  0  0  0  0
  184.4850  177.9490  143.4180 C   0  0  0  0  0  2  0  0  0  0  0  0
  184.3340  178.4810  139.6580 C   0  0  0  0  0  3  0  0  0  0  0  0
  186.1150  178.8300  138.1330 O   0  0  0  0  0  0  0  0  0  0  0  0
  186.2600  178.3480  141.7870 C   0  0  0  0  0  3  0  0  0  0  0  0
  184.9490  178.2150  142.0300 C   0  0  0  0  0  0  0  0  0  0  0  0
  185.7580  178.6430  139.3260 C   0  0  0  0  0  0  0  0  0  0  0  0
  183.9580  178.2800  140.9270 C   0  0  0  0  0  3  0  0  0  0  0  0
  186.7440  178.5780  140.4170 C   0  0  0  0  0  0  0  0  0  0  0  0
  188.0080  178.7180  140.1880 N   0  0  0  0  0  2  0  0  0  0  0  0
  1 18  1  6  0  0  0
  1  3  1  0  0  0  0
  1  2  1  0  0  0  0
  1  5  1  0  0  0  0
  2  4  1  6  0  0  0
  2  5  1  0  0  0  0
  3 11  1  1  0  0  0
  3  5  1  0  0  0  0
  6 12  1  0  0  0  0
  7  6  1  0  0  0  0
  8 11  1  0  0  0  0
  8  7  1  0  0  0  0
  9  8  2  0  0  0  0
 10  6  1  0  0  0  0
 10 12  1  0  0  0  0
 11 10  1  0  0  0  0
 13 15  2  0  0  0  0
 14 17  1  0  0  0  0
 15  7  1  0  0  0  0
 15 14  1  0  0  0  0
 17 16  1  0  0  0  0
 19 24  2  0  0  0  0
 20 23  2  0  0  0  0
 21 22  2  0  0  0  0
 22 18  1  0  0  0  0
 23 19  1  0  0  0  0
 23 25  1  0  0  0  0
 24 22  1  0  0  0  0
 25 21  1  0  0  0  0
 26 25  2  0  0  0  0
M  END
>  <MODEL>
3

>  <REMARK>
 VINA RESULT:      -8.0      2.627      7.081
  Name = 
  5 active torsions:
  status: ('A' for Active; 'I' for Inactive)
    1  A    between atoms: C_3  and  C_26
    2  A    between atoms: C_4  and  C_6
    3  A    between atoms: C_4  and  C_16
    4  A    between atoms: C_11  and  C_12
    5  A    between atoms: N_13  and  C_25
                            x       y       z     vdW  Elec       q    Type
                         _______ _______ _______ _____ _____    ______ ____

>  <TORSDO>
F 5

$$$$
=
 OpenBabel10222419323D

 26 30  0  0  1  0  0  0  0  0999 V2000
  185.8950  178.4730  144.7140 C   0  0  1  0  0  0  0  0  0  0  0  0
  186.1420  178.8080  146.1850 C   0  0  1  0  0  3  0  0  0  0  0  0
  186.8070  177.3560  144.2470 C   0  0  2  0  0  3  0  0  0  0  0  0
  184.9110  178.8990  146.9530 N   0  0  0  0  0  1  0  0  0  0  0  0
  186.3280  177.3880  145.6880 C   0  0  2  0  0  3  0  0  0  0  0  0
  190.2600  176.4090  144.1700 C   0  0  2  0  0  3  0  0  0  0  0  0
  189.9760  176.8110  142.7180 C   0  0  1  0  0  3  0  0  0  0  0  0
  188.7650  177.6740  142.7580 C   0  0  0  0  0  0  0  0  0  0  0  0
  188.2230  178.2360  141.6760 C   0  0  0  0  0  2  0  0  0  0  0  0
  189.1460  177.0090  145.0320 C   0  0  2  0  0  3  0  0  0  0  0  0
  188.2420  177.8610  144.1390 C   0  0  2  0  0  3  0  0  0  0  0  0
  190.5430  177.5950  145.0850 C   0  0  0  0  0  2  0  0  0  0  0  0
  192.0210  178.1310  142.7560 N   0  0  0  0  0  2  0  0  0  0  0  0
  191.4010  177.2910  140.6550 N   0  0  0  0  0  2  0  0  0  0  0  0
  191.1680  177.4580  142.0550 C   0  0  0  0  0  0  0  0  0  0  0  0
  190.2180  177.2530  138.5260 C   0  0  0  0  0  1  0  0  0  0  0  0
  190.5450  176.4880  139.7930 C   0  0  0  0  0  2  0  0  0  0  0  0
  184.4480  178.1990  144.3230 C   0  0  0  0  0  2  0  0  0  0  0  0
  185.2100  179.4080  140.8010 C   0  0  0  0  0  3  0  0  0  0  0  0
  183.7890  179.4500  138.9040 O   0  0  0  0  0  0  0  0  0  0  0  0
  183.0590  178.2450  142.3130 C   0  0  0  0  0  3  0  0  0  0  0  0
  184.2490  178.4910  142.8770 C   0  0  0  0  0  0  0  0  0  0  0  0
  183.9310  179.1560  140.1200 C   0  0  0  0  0  0  0  0  0  0  0  0
  185.3550  179.0950  142.0950 C   0  0  0  0  0  3  0  0  0  0  0  0
  182.8300  178.5560  140.8930 C   0  0  0  0  0  0  0  0  0  0  0  0
  181.6860  178.3070  140.3480 N   0  0  0  0  0  2  0  0  0  0  0  0
  1 18  1  6  0  0  0
  1  5  1  0  0  0  0
  1  2  1  0  0  0  0
  2  4  1  1  0  0  0
  3 11  1  1  0  0  0
  3  1  1  0  0  0  0
  3  5  1  0  0  0  0
  5  2  1  0  0  0  0
  6 10  1  0  0  0  0
  6 12  1  0  0  0  0
  7  8  1  0  0  0  0
  7  6  1  0  0  0  0
  8 11  1  0  0  0  0
  9  8  2  0  0  0  0
 10 12  1  0  0  0  0
 11 10  1  0  0  0  0
 14 15  1  0  0  0  0
 15  7  1  0  0  0  0
 15 13  2  0  0  0  0
 16 17  1  0  0  0  0
 17 14  1  0  0  0  0
 19 24  2  0  0  0  0
 20 23  2  0  0  0  0
 21 22  2  0  0  0  0
 22 18  1  0  0  0  0
 23 19  1  0  0  0  0
 23 25  1  0  0  0  0
 24 22  1  0  0  0  0
 25 21  1  0  0  0  0
 26 25  2  0  0  0  0
M  END
>  <MODEL>
4

>  <REMARK>
 VINA RESULT:      -7.6      2.499      4.959
  Name = 
  5 active torsions:
  status: ('A' for Active; 'I' for Inactive)
    1  A    between atoms: C_3  and  C_26
    2  A    between atoms: C_4  and  C_6
    3  A    between atoms: C_4  and  C_16
    4  A    between atoms: C_11  and  C_12
    5  A    between atoms: N_13  and  C_25
                            x       y       z     vdW  Elec       q    Type
                         _______ _______ _______ _____ _____    ______ ____

>  <TORSDO>
F 5

$$$$
=
 OpenBabel10222419323D

 26 30  0  0  1  0  0  0  0  0999 V2000
  186.2880  178.6000  144.2560 C   0  0  1  0  0  0  0  0  0  0  0  0
  185.2420  179.5050  144.9080 C   0  0  1  0  0  3  0  0  0  0  0  0
  186.7240  177.4980  145.2010 C   0  0  2  0  0  3  0  0  0  0  0  0
  184.0970  179.7490  144.0450 N   0  0  0  0  0  1  0  0  0  0  0  0
  185.3040  178.0340  145.2670 C   0  0  2  0  0  3  0  0  0  0  0  0
  188.3050  176.8240  148.3430 C   0  0  2  0  0  3  0  0  0  0  0  0
  189.4850  176.8950  147.3670 C   0  0  1  0  0  3  0  0  0  0  0  0
  188.9970  177.6520  146.1840 C   0  0  0  0  0  0  0  0  0  0  0  0
  189.7560  177.9360  145.1230 C   0  0  0  0  0  2  0  0  0  0  0  0
  187.1130  177.5020  147.6620 C   0  0  2  0  0  3  0  0  0  0  0  0
  187.5780  178.0790  146.3240 C   0  0  2  0  0  3  0  0  0  0  0  0
  187.8200  178.1910  148.8120 C   0  0  0  0  0  2  0  0  0  0  0  0
  190.6740  178.6280  148.5950 N   0  0  0  0  0  2  0  0  0  0  0  0
  191.9540  176.7530  148.0020 N   0  0  0  0  0  2  0  0  0  0  0  0
  190.7240  177.4810  148.0010 C   0  0  0  0  0  0  0  0  0  0  0  0
  192.2780  175.5170  145.9280 C   0  0  0  0  0  1  0  0  0  0  0  0
  192.0950  175.4210  147.4300 C   0  0  0  0  0  2  0  0  0  0  0  0
  185.9260  178.0350  142.8870 C   0  0  0  0  0  2  0  0  0  0  0  0
  188.3590  178.4760  140.0000 C   0  0  0  0  0  3  0  0  0  0  0  0
  190.4530  177.4210  139.6460 O   0  0  0  0  0  0  0  0  0  0  0  0
  188.1080  177.0180  142.4650 C   0  0  0  0  0  3  0  0  0  0  0  0
  187.1560  177.8720  142.0640 C   0  0  0  0  0  0  0  0  0  0  0  0
  189.4440  177.5600  140.3870 C   0  0  0  0  0  0  0  0  0  0  0  0
  187.2880  178.6190  140.7900 C   0  0  0  0  0  3  0  0  0  0  0  0
  189.3170  176.8160  141.6510 C   0  0  0  0  0  0  0  0  0  0  0  0
  190.2380  176.0020  142.0450 N   0  0  0  0  0  2  0  0  0  0  0  0
  1 18  1  6  0  0  0
  1  2  1  0  0  0  0
  1  3  1  0  0  0  0
  1  5  1  0  0  0  0
  2  4  1  6  0  0  0
  2  5  1  0  0  0  0
  3  5  1  0  0  0  0
  3 11  1  1  0  0  0
  6 12  1  0  0  0  0
  7 15  1  0  0  0  0
  7  6  1  0  0  0  0
  8 11  1  0  0  0  0
  8  7  1  0  0  0  0
  9  8  2  0  0  0  0
 10  6  1  0  0  0  0
 10 12  1  0  0  0  0
 11 10  1  0  0  0  0
 15 14  1  0  0  0  0
 15 13  2  0  0  0  0
 16 17  1  0  0  0  0
 17 14  1  0  0  0  0
 19 23  1  0  0  0  0
 19 24  2  0  0  0  0
 20 23  2  0  0  0  0
 22 21  2  0  0  0  0
 22 18  1  0  0  0  0
 23 25  1  0  0  0  0
 24 22  1  0  0  0  0
 25 26  2  0  0  0  0
 25 21  1  0  0  0  0
M  END
>  <MODEL>
5

>  <REMARK>
 VINA RESULT:      -7.6      2.947      7.641
  Name = 
  5 active torsions:
  status: ('A' for Active; 'I' for Inactive)
    1  A    between atoms: C_3  and  C_26
    2  A    between atoms: C_4  and  C_6
    3  A    between atoms: C_4  and  C_16
    4  A    between atoms: C_11  and  C_12
    5  A    between atoms: N_13  and  C_25
                            x       y       z     vdW  Elec       q    Type
                         _______ _______ _______ _____ _____    ______ ____

>  <TORSDO>
F 5

$$$$
=
 OpenBabel10222419323D

 26 30  0  0  1  0  0  0  0  0999 V2000
  187.5950  178.2750  142.1400 C   0  0  1  0  0  0  0  0  0  0  0  0
  186.4200  179.2520  142.1010 C   0  0  1  0  0  3  0  0  0  0  0  0
  187.4740  177.3200  143.3100 C   0  0  2  0  0  3  0  0  0  0  0  0
  185.8270  179.3640  140.7780 N   0  0  0  0  0  1  0  0  0  0  0  0
  186.2220  177.8460  142.6300 C   0  0  2  0  0  3  0  0  0  0  0  0
  187.1950  177.1710  146.8770 C   0  0  2  0  0  3  0  0  0  0  0  0
  188.6990  176.9990  146.6380 C   0  0  1  0  0  3  0  0  0  0  0  0
  188.9650  177.5440  145.2800 C   0  0  0  0  0  0  0  0  0  0  0  0
  190.1790  177.5870  144.7260 C   0  0  0  0  0  2  0  0  0  0  0  0
  186.5980  177.7660  145.5990 C   0  0  2  0  0  3  0  0  0  0  0  0
  187.7350  178.0580  144.6190 C   0  0  2  0  0  3  0  0  0  0  0  0
  186.7340  178.6230  146.8410 C   0  0  0  0  0  2  0  0  0  0  0  0
  189.0550  178.6060  148.4320 N   0  0  0  0  0  2  0  0  0  0  0  0
  190.8350  177.1310  148.0290 N   0  0  0  0  0  2  0  0  0  0  0  0
  189.5320  177.6330  147.7270 C   0  0  0  0  0  0  0  0  0  0  0  0
  192.7530  175.6290  147.9960 C   0  0  0  0  0  1  0  0  0  0  0  0
  191.4310  175.9910  147.3470 C   0  0  0  0  0  2  0  0  0  0  0  0
  187.8850  177.5240  140.8460 C   0  0  0  0  0  2  0  0  0  0  0  0
  191.6110  177.8410  141.5230 C   0  0  0  0  0  3  0  0  0  0  0  0
  193.4280  177.4640  140.0480 O   0  0  0  0  0  0  0  0  0  0  0  0
  189.8130  177.1220  139.3990 C   0  0  0  0  0  3  0  0  0  0  0  0
  189.3530  177.4680  140.6090 C   0  0  0  0  0  0  0  0  0  0  0  0
  192.1810  177.4640  140.2210 C   0  0  0  0  0  0  0  0  0  0  0  0
  190.2840  177.8420  141.7020 C   0  0  0  0  0  3  0  0  0  0  0  0
  191.2600  177.0920  139.1340 C   0  0  0  0  0  0  0  0  0  0  0  0
  191.7010  176.7470  137.9700 N   0  0  0  0  0  2  0  0  0  0  0  0
  1 18  1  6  0  0  0
  1  5  1  0  0  0  0
  1  3  1  0  0  0  0
  2  4  1  6  0  0  0
  2  1  1  0  0  0  0
  2  5  1  0  0  0  0
  3 11  1  1  0  0  0
  5  3  1  0  0  0  0
  7  6  1  0  0  0  0
  7 15  1  0  0  0  0
  8  7  1  0  0  0  0
  9  8  2  0  0  0  0
 10 12  1  0  0  0  0
 10  6  1  0  0  0  0
 11  8  1  0  0  0  0
 11 10  1  0  0  0  0
 12  6  1  0  0  0  0
 15 14  1  0  0  0  0
 15 13  2  0  0  0  0
 17 16  1  0  0  0  0
 17 14  1  0  0  0  0
 19 24  2  0  0  0  0
 20 23  2  0  0  0  0
 21 22  2  0  0  0  0
 22 18  1  0  0  0  0
 22 24  1  0  0  0  0
 23 19  1  0  0  0  0
 25 21  1  0  0  0  0
 25 23  1  0  0  0  0
 26 25  2  0  0  0  0
M  END
>  <MODEL>
6

>  <REMARK>
 VINA RESULT:      -7.5      3.057      7.775
  Name = 
  5 active torsions:
  status: ('A' for Active; 'I' for Inactive)
    1  A    between atoms: C_3  and  C_26
    2  A    between atoms: C_4  and  C_6
    3  A    between atoms: C_4  and  C_16
    4  A    between atoms: C_11  and  C_12
    5  A    between atoms: N_13  and  C_25
                            x       y       z     vdW  Elec       q    Type
                         _______ _______ _______ _____ _____    ______ ____

>  <TORSDO>
F 5

$$$$
=
 OpenBabel10222419323D

 26 30  0  0  1  0  0  0  0  0999 V2000
  190.0930  177.1630  144.0060 C   0  0  1  0  0  0  0  0  0  0  0  0
  190.8080  175.9680  144.6360 C   0  0  1  0  0  3  0  0  0  0  0  0
  189.6760  178.1680  145.0610 C   0  0  2  0  0  3  0  0  0  0  0  0
  192.0430  175.6270  143.9480 N   0  0  0  0  0  1  0  0  0  0  0  0
  190.9350  177.3430  145.2600 C   0  0  2  0  0  3  0  0  0  0  0  0
  187.2670  178.8910  147.6100 C   0  0  2  0  0  3  0  0  0  0  0  0
  186.4180  178.8360  146.3350 C   0  0  1  0  0  3  0  0  0  0  0  0
  187.2130  178.0620  145.3440 C   0  0  0  0  0  0  0  0  0  0  0  0
  186.7880  177.7850  144.1100 C   0  0  0  0  0  2  0  0  0  0  0  0
  188.5910  178.1880  147.3040 C   0  0  2  0  0  3  0  0  0  0  0  0
  188.5220  177.6110  145.8890 C   0  0  2  0  0  3  0  0  0  0  0  0
  187.5690  177.5190  148.2010 C   0  0  0  0  0  2  0  0  0  0  0  0
  184.8170  177.5100  147.6020 N   0  0  0  0  0  2  0  0  0  0  0  0
  183.9460  178.6280  145.7310 N   0  0  0  0  0  2  0  0  0  0  0  0
  185.0380  178.2760  146.5840 C   0  0  0  0  0  0  0  0  0  0  0  0
  183.2670  179.0360  143.4280 C   0  0  0  0  0  1  0  0  0  0  0  0
  184.0740  179.5440  144.6070 C   0  0  0  0  0  2  0  0  0  0  0  0
  190.8190  177.8480  142.8540 C   0  0  0  0  0  2  0  0  0  0  0  0
  190.0130  176.7730  139.2990 C   0  0  0  0  0  3  0  0  0  0  0  0
  188.0690  177.2160  138.0160 O   0  0  0  0  0  0  0  0  0  0  0  0
  188.8360  178.2310  141.4790 C   0  0  0  0  0  3  0  0  0  0  0  0
  190.0490  177.6730  141.5930 C   0  0  0  0  0  0  0  0  0  0  0  0
  188.6750  177.3550  139.1120 C   0  0  0  0  0  0  0  0  0  0  0  0
  190.6540  176.9240  140.4640 C   0  0  0  0  0  3  0  0  0  0  0  0
  188.0710  178.0980  140.2290 C   0  0  0  0  0  0  0  0  0  0  0  0
  186.8970  178.6280  140.1260 N   0  0  0  0  0  2  0  0  0  0  0  0
  1 18  1  6  0  0  0
  1  2  1  0  0  0  0
  1  3  1  0  0  0  0
  1  5  1  0  0  0  0
  2  4  1  6  0  0  0
  2  5  1  0  0  0  0
  3  5  1  0  0  0  0
  3 11  1  1  0  0  0
  6 12  1  0  0  0  0
  7 15  1  0  0  0  0
  7  6  1  0  0  0  0
  8 11  1  0  0  0  0
  8  7  1  0  0  0  0
  9  8  2  0  0  0  0
 10  6  1  0  0  0  0
 10 12  1  0  0  0  0
 11 10  1  0  0  0  0
 14 15  1  0  0  0  0
 15 13  2  0  0  0  0
 16 17  1  0  0  0  0
 17 14  1  0  0  0  0
 19 24  2  0  0  0  0
 20 23  2  0  0  0  0
 21 22  2  0  0  0  0
 22 18  1  0  0  0  0
 23 19  1  0  0  0  0
 23 25  1  0  0  0  0
 24 22  1  0  0  0  0
 25 21  1  0  0  0  0
 26 25  2  0  0  0  0
M  END
>  <MODEL>
7

>  <REMARK>
 VINA RESULT:      -7.4      2.445      6.435
  Name = 
  5 active torsions:
  status: ('A' for Active; 'I' for Inactive)
    1  A    between atoms: C_3  and  C_26
    2  A    between atoms: C_4  and  C_6
    3  A    between atoms: C_4  and  C_16
    4  A    between atoms: C_11  and  C_12
    5  A    between atoms: N_13  and  C_25
                            x       y       z     vdW  Elec       q    Type
                         _______ _______ _______ _____ _____    ______ ____

>  <TORSDO>
F 5

$$$$
=
 OpenBabel10222419323D

 26 30  0  0  1  0  0  0  0  0999 V2000
  187.6660  178.0550  141.0250 C   0  0  1  0  0  0  0  0  0  0  0  0
  188.3660  177.3280  139.8770 C   0  0  1  0  0  3  0  0  0  0  0  0
  188.6710  178.7200  141.9440 C   0  0  2  0  0  3  0  0  0  0  0  0
  187.7760  177.6280  138.5820 N   0  0  0  0  0  1  0  0  0  0  0  0
  188.9740  178.5870  140.4620 C   0  0  2  0  0  3  0  0  0  0  0  0
  191.4540  178.1080  144.1130 C   0  0  2  0  0  3  0  0  0  0  0  0
  190.2500  178.0190  145.0570 C   0  0  1  0  0  3  0  0  0  0  0  0
  189.0680  177.7550  144.1940 C   0  0  0  0  0  0  0  0  0  0  0  0
  187.8300  177.5920  144.6660 C   0  0  0  0  0  2  0  0  0  0  0  0
  190.9230  177.9540  142.6860 C   0  0  2  0  0  3  0  0  0  0  0  0
  189.4220  177.6670  142.7510 C   0  0  2  0  0  3  0  0  0  0  0  0
  191.7080  176.8280  143.3270 C   0  0  0  0  0  2  0  0  0  0  0  0
  191.2490  175.9970  145.9740 N   0  0  0  0  0  2  0  0  0  0  0  0
  189.8030  177.1520  147.4170 N   0  0  0  0  0  2  0  0  0  0  0  0
  190.4500  176.9970  146.1520 C   0  0  0  0  0  0  0  0  0  0  0  0
  187.9580  177.8930  148.8240 C   0  0  0  0  0  1  0  0  0  0  0  0
  188.9470  178.2840  147.7440 C   0  0  0  0  0  2  0  0  0  0  0  0
  186.5590  179.0250  140.6290 C   0  0  0  0  0  2  0  0  0  0  0  0
  183.0090  178.3910  141.8300 C   0  0  0  0  0  3  0  0  0  0  0  0
  182.1220  178.5890  144.0200 O   0  0  0  0  0  0  0  0  0  0  0  0
  185.5760  179.1710  142.8620 C   0  0  0  0  0  3  0  0  0  0  0  0
  185.4080  178.8890  141.5630 C   0  0  0  0  0  0  0  0  0  0  0  0
  183.1280  178.6800  143.2680 C   0  0  0  0  0  0  0  0  0  0  0  0
  184.0800  178.4910  141.0340 C   0  0  0  0  0  3  0  0  0  0  0  0
  184.4440  179.0760  143.7970 C   0  0  0  0  0  0  0  0  0  0  0  0
  184.6110  179.3370  145.0510 N   0  0  0  0  0  2  0  0  0  0  0  0
  1 18  1  6  0  0  0
  1  3  1  0  0  0  0
  2  4  1  6  0  0  0
  2  5  1  0  0  0  0
  2  1  1  0  0  0  0
  3 11  1  1  0  0  0
  5  1  1  0  0  0  0
  5  3  1  0  0  0  0
  6  7  1  0  0  0  0
  7 15  1  0  0  0  0
  8  9  2  0  0  0  0
  8  7  1  0  0  0  0
 10 11  1  0  0  0  0
 10 12  1  0  0  0  0
 10  6  1  0  0  0  0
 11  8  1  0  0  0  0
 12  6  1  0  0  0  0
 13 15  2  0  0  0  0
 14 17  1  0  0  0  0
 15 14  1  0  0  0  0
 17 16  1  0  0  0  0
 18 22  1  0  0  0  0
 19 23  1  0  0  0  0
 21 25  1  0  0  0  0
 22 21  2  0  0  0  0
 23 25  1  0  0  0  0
 23 20  2  0  0  0  0
 24 22  1  0  0  0  0
 24 19  2  0  0  0  0
 25 26  2  0  0  0  0
M  END
>  <MODEL>
8

>  <REMARK>
 VINA RESULT:      -7.1      1.848      5.845
  Name = 
  5 active torsions:
  status: ('A' for Active; 'I' for Inactive)
    1  A    between atoms: C_3  and  C_26
    2  A    between atoms: C_4  and  C_6
    3  A    between atoms: C_4  and  C_16
    4  A    between atoms: C_11  and  C_12
    5  A    between atoms: N_13  and  C_25
                            x       y       z     vdW  Elec       q    Type
                         _______ _______ _______ _____ _____    ______ ____

>  <TORSDO>
F 5

$$$$
=
 OpenBabel10222419323D

 26 30  0  0  1  0  0  0  0  0999 V2000
  187.9570  177.8740  145.7440 C   0  0  1  0  0  0  0  0  0  0  0  0
  188.9600  178.2520  146.8340 C   0  0  1  0  0  3  0  0  0  0  0  0
  188.5340  176.8300  144.8080 C   0  0  2  0  0  3  0  0  0  0  0  0
  188.3710  178.2520  148.1630 N   0  0  0  0  0  1  0  0  0  0  0  0
  188.9460  176.8460  146.2700 C   0  0  2  0  0  3  0  0  0  0  0  0
  191.3800  176.1750  142.7370 C   0  0  2  0  0  3  0  0  0  0  0  0
  190.2940  176.5580  141.7250 C   0  0  1  0  0  3  0  0  0  0  0  0
  189.2680  177.3170  142.4900 C   0  0  0  0  0  0  0  0  0  0  0  0
  188.1700  177.8380  141.9370 C   0  0  0  0  0  2  0  0  0  0  0  0
  190.9190  176.6760  144.1070 C   0  0  2  0  0  3  0  0  0  0  0  0
  189.6140  177.4530  143.9310 C   0  0  2  0  0  3  0  0  0  0  0  0
  192.0560  177.3750  143.3890 C   0  0  0  0  0  2  0  0  0  0  0  0
  192.0070  177.8780  140.6080 N   0  0  0  0  0  2  0  0  0  0  0  0
  190.1320  177.3440  139.3020 N   0  0  0  0  0  2  0  0  0  0  0  0
  190.8500  177.3060  140.5370 C   0  0  0  0  0  0  0  0  0  0  0  0
  188.7340  176.2240  137.6500 C   0  0  0  0  0  1  0  0  0  0  0  0
  188.8600  176.6660  139.0950 C   0  0  0  0  0  2  0  0  0  0  0  0
  186.5670  177.4710  146.2240 C   0  0  0  0  0  2  0  0  0  0  0  0
  183.3350  179.0890  145.0470 C   0  0  0  0  0  3  0  0  0  0  0  0
  182.5580  179.4180  142.8320 O   0  0  0  0  0  0  0  0  0  0  0  0
  185.7100  177.8790  143.9710 C   0  0  0  0  0  3  0  0  0  0  0  0
  185.5350  178.0060  145.2940 C   0  0  0  0  0  0  0  0  0  0  0  0
  183.4700  178.9870  143.5860 C   0  0  0  0  0  0  0  0  0  0  0  0
  184.3060  178.6280  145.8450 C   0  0  0  0  0  3  0  0  0  0  0  0
  184.6880  178.3700  143.0350 C   0  0  0  0  0  0  0  0  0  0  0  0
  184.8640  178.2570  141.7600 N   0  0  0  0  0  2  0  0  0  0  0  0
  1 18  1  1  0  0  0
  1  5  1  0  0  0  0
  1  2  1  0  0  0  0
  2  4  1  1  0  0  0
  3 11  1  6  0  0  0
  3  1  1  0  0  0  0
  3  5  1  0  0  0  0
  5  2  1  0  0  0  0
  6 12  1  0  0  0  0
  6 10  1  0  0  0  0
  7  8  1  0  0  0  0
  7  6  1  0  0  0  0
  8 11  1  0  0  0  0
  9  8  2  0  0  0  0
 11 10  1  0  0  0  0
 12 10  1  0  0  0  0
 14 15  1  0  0  0  0
 15 13  2  0  0  0  0
 15  7  1  0  0  0  0
 16 17  1  0  0  0  0
 17 14  1  0  0  0  0
 19 24  2  0  0  0  0
 20 23  2  0  0  0  0
 21 22  2  0  0  0  0
 22 24  1  0  0  0  0
 22 18  1  0  0  0  0
 23 19  1  0  0  0  0
 25 23  1  0  0  0  0
 25 21  1  0  0  0  0
 26 25  2  0  0  0  0
M  END
>  <MODEL>
9

>  <REMARK>
 VINA RESULT:      -7.1      2.038      3.266
  Name = 
  5 active torsions:
  status: ('A' for Active; 'I' for Inactive)
    1  A    between atoms: C_3  and  C_26
    2  A    between atoms: C_4  and  C_6
    3  A    between atoms: C_4  and  C_16
    4  A    between atoms: C_11  and  C_12
    5  A    between atoms: N_13  and  C_25
                            x       y       z     vdW  Elec       q    Type
                         _______ _______ _______ _____ _____    ______ ____

>  <TORSDO>
F 5

$$$$
