=
 OpenBabel10222419153D

 35 39  0  0  1  0  0  0  0  0999 V2000
  183.2440  178.7180  140.8180 N   0  0  0  0  0  0  0  0  0  0  0  0
  180.8580  178.2220  140.3090 C   0  0  0  0  0  0  0  0  0  0  0  0
  180.2440  176.0200  139.4990 C   0  0  0  0  0  0  0  0  0  0  0  0
  181.5790  175.6170  139.5650 C   0  0  0  0  0  3  0  0  0  0  0  0
  179.8870  177.3200  139.8620 C   0  0  0  0  0  3  0  0  0  0  0  0
  182.5580  176.5130  140.0030 C   0  0  0  0  0  3  0  0  0  0  0  0
  182.2100  177.8150  140.3870 C   0  0  0  0  0  0  0  0  0  0  0  0
  179.2030  175.0680  139.0310 C   0  0  0  0  0  1  0  0  0  0  0  0
  180.4420  179.6210  140.6190 C   0  0  0  0  0  2  0  0  0  0  0  0
  180.5020  180.3990  139.4640 O   0  0  0  0  0  1  0  0  0  0  0  0
  184.8080  178.6170  144.7740 C   0  0  0  0  0  0  0  0  0  0  0  0
  183.7800  178.6760  142.1570 C   0  0  0  0  0  0  0  0  0  0  0  0
  182.9570  178.9700  143.2550 C   0  0  0  0  0  3  0  0  0  0  0  0
  185.6420  178.3330  143.6880 C   0  0  0  0  0  3  0  0  0  0  0  0
  183.4640  178.9370  144.5560 C   0  0  0  0  0  3  0  0  0  0  0  0
  185.1320  178.3670  142.3880 C   0  0  0  0  0  3  0  0  0  0  0  0
  185.3390  178.5470  146.1620 C   0  0  0  0  0  2  0  0  0  0  0  0
  186.3900  177.4590  146.2570 C   0  0  0  0  0  2  0  0  0  0  0  0
  187.6240  178.0240  146.5920 O   0  0  0  0  0  0  0  0  0  0  0  0
  189.6980  176.8930  146.5070 N   0  0  0  0  0  2  0  0  0  0  0  0
  188.5580  177.4150  145.7440 C   0  0  1  0  0  0  0  0  0  0  0  0
  188.1030  176.4920  144.8140 F   0  0  0  0  0  0  0  0  0  0  0  0
  189.8680  178.0600  145.6200 C   0  0  2  0  0  3  0  0  0  0  0  0
  191.3980  178.7890  143.8210 C   0  0  0  0  0  2  0  0  0  0  0  0
  190.0600  178.4690  143.1910 C   0  0  0  0  0  2  0  0  0  0  0  0
  190.5720  177.6320  144.3460 C   0  0  0  0  0  3  0  0  0  0  0  0
  183.8250  179.5760  139.8700 N   0  0  0  0  0  2  0  0  0  0  0  0
  184.2430  178.7610  138.7380 C   0  0  0  0  0  2  0  0  0  0  0  0
  185.7180  178.4200  138.8640 C   0  0  0  0  0  2  0  0  0  0  0  0
  186.2290  177.7620  137.5930 C   0  0  0  0  0  2  0  0  0  0  0  0
  187.7290  177.5170  137.6730 C   0  0  2  0  0  3  0  0  0  0  0  0
  188.9990  179.2070  138.0970 N   0  0  0  0  0  2  0  0  0  0  0  0
  189.2770  177.3120  139.6030 C   0  0  0  0  0  1  0  0  0  0  0  0
  188.2850  178.2150  138.8910 C   0  0  2  0  0  3  0  0  0  0  0  0
  188.4820  178.5720  136.8920 C   0  0  0  0  0  2  0  0  0  0  0  0
  1 12  1  0  0  0  0
  2  7  1  0  0  0  0
  2  9  1  0  0  0  0
  3  4  2  0  0  0  0
  3  5  1  0  0  0  0
  4  6  1  0  0  0  0
  5  2  2  0  0  0  0
  6  7  2  0  0  0  0
  7  1  1  0  0  0  0
  8  3  1  0  0  0  0
 10  9  1  0  0  0  0
 11 17  1  0  0  0  0
 12 16  2  0  0  0  0
 12 13  1  0  0  0  0
 13 15  2  0  0  0  0
 14 11  2  0  0  0  0
 15 11  1  0  0  0  0
 16 14  1  0  0  0  0
 17 18  1  0  0  0  0
 18 19  1  0  0  0  0
 21 22  1  6  0  0  0
 21 20  1  0  0  0  0
 21 19  1  0  0  0  0
 23 26  1  6  0  0  0
 23 21  1  0  0  0  0
 23 20  1  0  0  0  0
 24 26  1  0  0  0  0
 25 24  1  0  0  0  0
 25 26  1  0  0  0  0
 27  1  1  0  0  0  0
 28 29  1  0  0  0  0
 28 27  1  0  0  0  0
 30 29  1  0  0  0  0
 31 30  1  1  0  0  0
 31 34  1  0  0  0  0
 32 34  1  0  0  0  0
 34 33  1  6  0  0  0
 35 31  1  0  0  0  0
 35 32  1  0  0  0  0
M  END
>  <MODEL>
1

>  <REMARK>
 VINA RESULT:      -7.8      0.000      0.000
  Name = 
  13 active torsions:
  status: ('A' for Active; 'I' for Inactive)
    1  A    between atoms: C_1  and  C_20
    2  A    between atoms: C_3  and  C_8
    3  A    between atoms: C_3  and  C_28
    4  A    between atoms: C_4  and  C_7
    5  A    between atoms: N_5  and  C_11
    6  A    between atoms: N_5  and  N_31
    7  A    between atoms: C_11  and  C_30
    8  A    between atoms: C_15  and  O_17
    9  A    between atoms: O_17  and  C_28
   10  A    between atoms: C_20  and  C_30
   11  A    between atoms: C_21  and  N_31
   12  A    between atoms: C_23  and  C_29
   13  A    between atoms: N_31  and  C_32
                            x       y       z     vdW  Elec       q    Type
                         _______ _______ _______ _____ _____    ______ ____

>  <TORSDO>
F 13

$$$$
=
 OpenBabel10222419153D

 35 39  0  0  1  0  0  0  0  0999 V2000
  184.5520  178.6360  140.3040 N   0  0  0  0  0  0  0  0  0  0  0  0
  182.4400  179.0650  139.0590 C   0  0  0  0  0  0  0  0  0  0  0  0
  180.8980  177.2350  138.6600 C   0  0  0  0  0  0  0  0  0  0  0  0
  181.7520  176.3610  139.3340 C   0  0  0  0  0  3  0  0  0  0  0  0
  181.2450  178.5800  138.5160 C   0  0  0  0  0  3  0  0  0  0  0  0
  182.9510  176.8340  139.8740 C   0  0  0  0  0  3  0  0  0  0  0  0
  183.3020  178.1850  139.7520 C   0  0  0  0  0  0  0  0  0  0  0  0
  179.6230  176.7330  138.0840 C   0  0  0  0  0  1  0  0  0  0  0  0
  182.8030  180.4920  138.8200 C   0  0  0  0  0  2  0  0  0  0  0  0
  181.6450  181.2580  138.6810 O   0  0  0  0  0  1  0  0  0  0  0  0
  185.4080  178.3480  144.4620 C   0  0  0  0  0  0  0  0  0  0  0  0
  184.8360  178.5460  141.7160 C   0  0  0  0  0  0  0  0  0  0  0  0
  186.1100  178.1510  142.1540 C   0  0  0  0  0  3  0  0  0  0  0  0
  184.1310  178.7310  144.0390 C   0  0  0  0  0  3  0  0  0  0  0  0
  186.3970  178.0570  143.5170 C   0  0  0  0  0  3  0  0  0  0  0  0
  183.8460  178.8250  142.6750 C   0  0  0  0  0  3  0  0  0  0  0  0
  185.7240  178.2810  145.9150 C   0  0  0  0  0  2  0  0  0  0  0  0
  186.9460  177.4110  146.1360 C   0  0  0  0  0  2  0  0  0  0  0  0
  187.3700  177.5230  147.4640 O   0  0  0  0  0  0  0  0  0  0  0  0
  189.1400  178.1300  146.0220 N   0  0  0  0  0  2  0  0  0  0  0  0
  188.7360  177.8220  147.3980 C   0  0  1  0  0  0  0  0  0  0  0  0
  189.2550  178.7410  148.2980 F   0  0  0  0  0  0  0  0  0  0  0  0
  189.5920  176.8830  146.6680 C   0  0  2  0  0  3  0  0  0  0  0  0
  191.9110  176.2010  146.1550 C   0  0  0  0  0  2  0  0  0  0  0  0
  191.5650  175.6720  147.5290 C   0  0  0  0  0  2  0  0  0  0  0  0
  191.0440  177.0230  147.0860 C   0  0  0  0  0  3  0  0  0  0  0  0
  185.5620  179.0610  139.4250 N   0  0  0  0  0  2  0  0  0  0  0  0
  185.8460  177.9580  138.5170 C   0  0  0  0  0  2  0  0  0  0  0  0
  187.3220  177.9530  138.1590 C   0  0  0  0  0  2  0  0  0  0  0  0
  188.1680  178.3510  139.3570 C   0  0  0  0  0  2  0  0  0  0  0  0
  188.8950  177.1450  139.9340 C   0  0  2  0  0  3  0  0  0  0  0  0
  190.9970  177.3530  140.3640 N   0  0  0  0  0  2  0  0  0  0  0  0
  189.6370  176.6000  142.2400 C   0  0  0  0  0  1  0  0  0  0  0  0
  189.7560  177.5880  141.0920 C   0  0  2  0  0  3  0  0  0  0  0  0
  190.2090  176.9240  139.2170 C   0  0  0  0  0  2  0  0  0  0  0  0
  1 12  1  0  0  0  0
  2  7  1  0  0  0  0
  3  4  2  0  0  0  0
  4  6  1  0  0  0  0
  5  3  1  0  0  0  0
  5  2  2  0  0  0  0
  7  6  2  0  0  0  0
  7  1  1  0  0  0  0
  8  3  1  0  0  0  0
  9  2  1  0  0  0  0
 10  9  1  0  0  0  0
 11 17  1  0  0  0  0
 12 13  2  0  0  0  0
 12 16  1  0  0  0  0
 13 15  1  0  0  0  0
 14 11  1  0  0  0  0
 15 11  2  0  0  0  0
 16 14  2  0  0  0  0
 17 18  1  0  0  0  0
 18 19  1  0  0  0  0
 20 23  1  0  0  0  0
 20 21  1  0  0  0  0
 21 19  1  0  0  0  0
 21 22  1  1  0  0  0
 23 26  1  1  0  0  0
 23 21  1  0  0  0  0
 24 26  1  0  0  0  0
 24 25  1  0  0  0  0
 26 25  1  0  0  0  0
 27  1  1  0  0  0  0
 28 27  1  0  0  0  0
 29 28  1  0  0  0  0
 29 30  1  0  0  0  0
 31 30  1  6  0  0  0
 31 34  1  0  0  0  0
 32 34  1  0  0  0  0
 34 33  1  1  0  0  0
 35 31  1  0  0  0  0
 35 32  1  0  0  0  0
M  END
>  <MODEL>
2

>  <REMARK>
 VINA RESULT:      -7.5      1.734      2.400
  Name = 
  13 active torsions:
  status: ('A' for Active; 'I' for Inactive)
    1  A    between atoms: C_1  and  C_20
    2  A    between atoms: C_3  and  C_8
    3  A    between atoms: C_3  and  C_28
    4  A    between atoms: C_4  and  C_7
    5  A    between atoms: N_5  and  C_11
    6  A    between atoms: N_5  and  N_31
    7  A    between atoms: C_11  and  C_30
    8  A    between atoms: C_15  and  O_17
    9  A    between atoms: O_17  and  C_28
   10  A    between atoms: C_20  and  C_30
   11  A    between atoms: C_21  and  N_31
   12  A    between atoms: C_23  and  C_29
   13  A    between atoms: N_31  and  C_32
                            x       y       z     vdW  Elec       q    Type
                         _______ _______ _______ _____ _____    ______ ____

>  <TORSDO>
F 13

$$$$
=
 OpenBabel10222419153D

 35 39  0  0  1  0  0  0  0  0999 V2000
  189.0220  177.9280  141.0910 N   0  0  0  0  0  0  0  0  0  0  0  0
  188.8880  177.3850  138.6660 C   0  0  0  0  0  0  0  0  0  0  0  0
  190.8630  176.5750  137.5140 C   0  0  0  0  0  0  0  0  0  0  0  0
  191.5950  176.6560  138.7010 C   0  0  0  0  0  3  0  0  0  0  0  0
  189.5170  176.9460  137.4960 C   0  0  0  0  0  3  0  0  0  0  0  0
  190.9770  177.1010  139.8720 C   0  0  0  0  0  3  0  0  0  0  0  0
  189.6230  177.4590  139.8710 C   0  0  0  0  0  0  0  0  0  0  0  0
  191.5190  176.1040  136.2660 C   0  0  0  0  0  1  0  0  0  0  0  0
  187.4690  177.8380  138.5840 C   0  0  0  0  0  2  0  0  0  0  0  0
  187.3440  178.8290  137.6100 O   0  0  0  0  0  1  0  0  0  0  0  0
  190.7830  177.1970  144.8950 C   0  0  0  0  0  0  0  0  0  0  0  0
  189.6260  177.6860  142.3790 C   0  0  0  0  0  0  0  0  0  0  0  0
  189.5350  176.4180  142.9720 C   0  0  0  0  0  3  0  0  0  0  0  0
  190.8710  178.4680  144.3200 C   0  0  0  0  0  3  0  0  0  0  0  0
  190.1130  176.1710  144.2190 C   0  0  0  0  0  3  0  0  0  0  0  0
  190.2920  178.7130  143.0720 C   0  0  0  0  0  3  0  0  0  0  0  0
  191.4290  176.9250  146.2070 C   0  0  0  0  0  2  0  0  0  0  0  0
  190.3690  176.7520  147.2770 C   0  0  0  0  0  2  0  0  0  0  0  0
  189.9400  178.0060  147.7220 O   0  0  0  0  0  0  0  0  0  0  0  0
  188.1200  176.5000  147.6940 N   0  0  0  0  0  2  0  0  0  0  0  0
  188.5620  177.8770  147.9370 C   0  0  1  0  0  0  0  0  0  0  0  0
  188.0270  178.3830  149.1130 F   0  0  0  0  0  0  0  0  0  0  0  0
  187.7280  177.5810  146.7700 C   0  0  2  0  0  3  0  0  0  0  0  0
  185.5980  178.2180  145.6890 C   0  0  0  0  0  2  0  0  0  0  0  0
  186.0530  179.3820  146.5410 C   0  0  0  0  0  2  0  0  0  0  0  0
  186.2800  177.9620  147.0180 C   0  0  0  0  0  3  0  0  0  0  0  0
  187.8820  178.7460  141.0090 N   0  0  0  0  0  2  0  0  0  0  0  0
  186.9520  178.3090  142.0420 C   0  0  0  0  0  2  0  0  0  0  0  0
  185.6890  179.1510  141.9880 C   0  0  0  0  0  2  0  0  0  0  0  0
  184.4550  178.2800  142.1460 C   0  0  0  0  0  2  0  0  0  0  0  0
  183.4260  178.5940  141.0680 C   0  0  2  0  0  3  0  0  0  0  0  0
  183.8580  177.9560  139.0550 N   0  0  0  0  0  2  0  0  0  0  0  0
  181.7220  177.1870  139.9380 C   0  0  0  0  0  1  0  0  0  0  0  0
  183.2040  177.3680  140.2170 C   0  0  2  0  0  3  0  0  0  0  0  0
  184.1030  179.1600  139.8380 C   0  0  0  0  0  2  0  0  0  0  0  0
  1 12  1  0  0  0  0
  2  7  1  0  0  0  0
  3  4  2  0  0  0  0
  4  6  1  0  0  0  0
  5  3  1  0  0  0  0
  5  2  2  0  0  0  0
  7  6  2  0  0  0  0
  7  1  1  0  0  0  0
  8  3  1  0  0  0  0
  9  2  1  0  0  0  0
 10  9  1  0  0  0  0
 11 17  1  0  0  0  0
 12 13  2  0  0  0  0
 12 16  1  0  0  0  0
 13 15  1  0  0  0  0
 14 11  1  0  0  0  0
 15 11  2  0  0  0  0
 16 14  2  0  0  0  0
 17 18  1  0  0  0  0
 18 19  1  0  0  0  0
 19 21  1  0  0  0  0
 20 21  1  0  0  0  0
 21 22  1  1  0  0  0
 23 26  1  1  0  0  0
 23 20  1  0  0  0  0
 23 21  1  0  0  0  0
 24 25  1  0  0  0  0
 24 26  1  0  0  0  0
 25 26  1  0  0  0  0
 27  1  1  0  0  0  0
 27 28  1  0  0  0  0
 29 28  1  0  0  0  0
 29 30  1  0  0  0  0
 31 30  1  1  0  0  0
 32 35  1  0  0  0  0
 32 34  1  0  0  0  0
 34 33  1  6  0  0  0
 34 31  1  0  0  0  0
 35 31  1  0  0  0  0
M  END
>  <MODEL>
3

>  <REMARK>
 VINA RESULT:      -7.4      2.301      6.510
  Name = 
  13 active torsions:
  status: ('A' for Active; 'I' for Inactive)
    1  A    between atoms: C_1  and  C_20
    2  A    between atoms: C_3  and  C_8
    3  A    between atoms: C_3  and  C_28
    4  A    between atoms: C_4  and  C_7
    5  A    between atoms: N_5  and  C_11
    6  A    between atoms: N_5  and  N_31
    7  A    between atoms: C_11  and  C_30
    8  A    between atoms: C_15  and  O_17
    9  A    between atoms: O_17  and  C_28
   10  A    between atoms: C_20  and  C_30
   11  A    between atoms: C_21  and  N_31
   12  A    between atoms: C_23  and  C_29
   13  A    between atoms: N_31  and  C_32
                            x       y       z     vdW  Elec       q    Type
                         _______ _______ _______ _____ _____    ______ ____

>  <TORSDO>
F 13

$$$$
=
 OpenBabel10222419153D

 35 39  0  0  1  0  0  0  0  0999 V2000
  187.1930  178.4360  141.4580 N   0  0  0  0  0  0  0  0  0  0  0  0
  184.7600  178.7580  141.0430 C   0  0  0  0  0  0  0  0  0  0  0  0
  183.2230  178.7940  142.9200 C   0  0  0  0  0  0  0  0  0  0  0  0
  184.2890  178.6010  143.8020 C   0  0  0  0  0  3  0  0  0  0  0  0
  183.4590  178.8640  141.5450 C   0  0  0  0  0  3  0  0  0  0  0  0
  185.5910  178.4870  143.3090 C   0  0  0  0  0  3  0  0  0  0  0  0
  185.8420  178.5740  141.9340 C   0  0  0  0  0  0  0  0  0  0  0  0
  181.8370  178.9130  143.4430 C   0  0  0  0  0  1  0  0  0  0  0  0
  184.9550  178.7680  139.5640 C   0  0  0  0  0  2  0  0  0  0  0  0
  184.5410  179.9930  139.0400 O   0  0  0  0  0  1  0  0  0  0  0  0
  190.3370  177.0230  143.9520 C   0  0  0  0  0  0  0  0  0  0  0  0
  188.2530  177.9510  142.3090 C   0  0  0  0  0  0  0  0  0  0  0  0
  189.3260  178.7910  142.6430 C   0  0  0  0  0  3  0  0  0  0  0  0
  189.2790  176.1730  143.6170 C   0  0  0  0  0  3  0  0  0  0  0  0
  190.3600  178.3330  143.4630 C   0  0  0  0  0  3  0  0  0  0  0  0
  188.2460  176.6320  142.7970 C   0  0  0  0  0  3  0  0  0  0  0  0
  191.4210  176.5470  144.8540 C   0  0  0  0  0  2  0  0  0  0  0  0
  191.0040  176.7290  146.3000 C   0  0  0  0  0  2  0  0  0  0  0  0
  190.5130  178.0240  146.4890 O   0  0  0  0  0  0  0  0  0  0  0  0
  188.8880  176.5250  147.3230 N   0  0  0  0  0  2  0  0  0  0  0  0
  189.4260  177.8890  147.3620 C   0  0  1  0  0  0  0  0  0  0  0  0
  189.5640  178.3440  148.6650 F   0  0  0  0  0  0  0  0  0  0  0  0
  188.1120  177.6470  146.7600 C   0  0  2  0  0  3  0  0  0  0  0  0
  185.6850  178.0730  146.9510 C   0  0  0  0  0  2  0  0  0  0  0  0
  186.4100  179.3550  147.2970 C   0  0  0  0  0  2  0  0  0  0  0  0
  186.9930  178.0200  147.7140 C   0  0  0  0  0  3  0  0  0  0  0  0
  187.4530  178.6640  140.0970 N   0  0  0  0  0  2  0  0  0  0  0  0
  188.4640  177.7030  139.6750 C   0  0  0  0  0  2  0  0  0  0  0  0
  189.0970  178.1580  138.3720 C   0  0  0  0  0  2  0  0  0  0  0  0
  189.8750  177.0230  137.7270 C   0  0  0  0  0  2  0  0  0  0  0  0
  190.7890  176.3470  138.7380 C   0  0  2  0  0  3  0  0  0  0  0  0
  192.9000  176.2920  138.3020 N   0  0  0  0  0  2  0  0  0  0  0  0
  192.3240  177.2610  140.4620 C   0  0  0  0  0  1  0  0  0  0  0  0
  191.9990  177.2170  138.9790 C   0  0  2  0  0  3  0  0  0  0  0  0
  191.7610  175.4220  138.0390 C   0  0  0  0  0  2  0  0  0  0  0  0
  1  7  1  0  0  0  0
  1 12  1  0  0  0  0
  2  5  2  0  0  0  0
  2  7  1  0  0  0  0
  3  8  1  0  0  0  0
  3  4  2  0  0  0  0
  5  3  1  0  0  0  0
  6  4  1  0  0  0  0
  7  6  2  0  0  0  0
  9  2  1  0  0  0  0
 10  9  1  0  0  0  0
 11 17  1  0  0  0  0
 12 13  2  0  0  0  0
 12 16  1  0  0  0  0
 13 15  1  0  0  0  0
 14 11  1  0  0  0  0
 15 11  2  0  0  0  0
 16 14  2  0  0  0  0
 17 18  1  0  0  0  0
 18 19  1  0  0  0  0
 19 21  1  0  0  0  0
 20 21  1  0  0  0  0
 21 22  1  1  0  0  0
 23 20  1  0  0  0  0
 23 21  1  0  0  0  0
 23 26  1  1  0  0  0
 24 25  1  0  0  0  0
 24 26  1  0  0  0  0
 25 26  1  0  0  0  0
 27  1  1  0  0  0  0
 28 27  1  0  0  0  0
 29 28  1  0  0  0  0
 30 29  1  0  0  0  0
 31 30  1  6  0  0  0
 31 34  1  0  0  0  0
 32 34  1  0  0  0  0
 34 33  1  1  0  0  0
 35 32  1  0  0  0  0
 35 31  1  0  0  0  0
M  END
>  <MODEL>
4

>  <REMARK>
 VINA RESULT:      -7.4      2.631      4.632
  Name = 
  13 active torsions:
  status: ('A' for Active; 'I' for Inactive)
    1  A    between atoms: C_1  and  C_20
    2  A    between atoms: C_3  and  C_8
    3  A    between atoms: C_3  and  C_28
    4  A    between atoms: C_4  and  C_7
    5  A    between atoms: N_5  and  C_11
    6  A    between atoms: N_5  and  N_31
    7  A    between atoms: C_11  and  C_30
    8  A    between atoms: C_15  and  O_17
    9  A    between atoms: O_17  and  C_28
   10  A    between atoms: C_20  and  C_30
   11  A    between atoms: C_21  and  N_31
   12  A    between atoms: C_23  and  C_29
   13  A    between atoms: N_31  and  C_32
                            x       y       z     vdW  Elec       q    Type
                         _______ _______ _______ _____ _____    ______ ____

>  <TORSDO>
F 13

$$$$
=
 OpenBabel10222419153D

 35 39  0  0  1  0  0  0  0  0999 V2000
  183.3540  178.7570  140.7360 N   0  0  0  0  0  0  0  0  0  0  0  0
  180.9780  178.3620  140.1100 C   0  0  0  0  0  0  0  0  0  0  0  0
  180.2910  176.1590  139.3600 C   0  0  0  0  0  0  0  0  0  0  0  0
  181.5980  175.6920  139.5210 C   0  0  0  0  0  3  0  0  0  0  0  0
  179.9860  177.4920  139.6460 C   0  0  0  0  0  3  0  0  0  0  0  0
  182.5970  176.5560  139.9770 C   0  0  0  0  0  3  0  0  0  0  0  0
  182.2990  177.8900  140.2840 C   0  0  0  0  0  0  0  0  0  0  0  0
  179.2280  175.2420  138.8740 C   0  0  0  0  0  1  0  0  0  0  0  0
  180.6210  179.7930  140.3350 C   0  0  0  0  0  2  0  0  0  0  0  0
  180.1210  180.3470  139.1560 O   0  0  0  0  0  1  0  0  0  0  0  0
  184.8240  178.6160  144.7260 C   0  0  0  0  0  0  0  0  0  0  0  0
  183.8590  178.7020  142.0860 C   0  0  0  0  0  0  0  0  0  0  0  0
  183.0090  178.9850  143.1670 C   0  0  0  0  0  3  0  0  0  0  0  0
  185.6840  178.3430  143.6570 C   0  0  0  0  0  3  0  0  0  0  0  0
  183.4860  178.9380  144.4790 C   0  0  0  0  0  3  0  0  0  0  0  0
  185.2050  178.3900  142.3460 C   0  0  0  0  0  3  0  0  0  0  0  0
  185.3230  178.5310  146.1260 C   0  0  0  0  0  2  0  0  0  0  0  0
  186.3930  177.4630  146.2280 C   0  0  0  0  0  2  0  0  0  0  0  0
  187.6140  178.0510  146.5730 O   0  0  0  0  0  0  0  0  0  0  0  0
  189.6570  176.8640  146.5900 N   0  0  0  0  0  2  0  0  0  0  0  0
  188.5740  177.4210  145.7720 C   0  0  1  0  0  0  0  0  0  0  0  0
  188.1430  176.5150  144.8140 F   0  0  0  0  0  0  0  0  0  0  0  0
  189.9060  178.0290  145.7200 C   0  0  2  0  0  3  0  0  0  0  0  0
  191.5620  178.7170  144.0190 C   0  0  0  0  0  2  0  0  0  0  0  0
  190.2510  178.4550  143.3120 C   0  0  0  0  0  2  0  0  0  0  0  0
  190.6640  177.5880  144.4830 C   0  0  0  0  0  3  0  0  0  0  0  0
  183.9870  179.5900  139.7980 N   0  0  0  0  0  2  0  0  0  0  0  0
  184.2500  178.7930  138.6080 C   0  0  0  0  0  2  0  0  0  0  0  0
  185.6820  178.2890  138.6300 C   0  0  0  0  0  2  0  0  0  0  0  0
  185.9890  177.4830  137.3790 C   0  0  0  0  0  2  0  0  0  0  0  0
  184.8350  176.5500  137.0370 C   0  0  2  0  0  3  0  0  0  0  0  0
  185.1460  175.1060  135.4670 N   0  0  0  0  0  2  0  0  0  0  0  0
  184.4050  174.1680  137.5900 C   0  0  0  0  0  1  0  0  0  0  0  0
  185.3550  175.1390  136.9090 C   0  0  2  0  0  3  0  0  0  0  0  0
  184.6430  176.4710  135.5380 C   0  0  0  0  0  2  0  0  0  0  0  0
  1 12  1  0  0  0  0
  2  7  1  0  0  0  0
  2  9  1  0  0  0  0
  3  4  2  0  0  0  0
  3  5  1  0  0  0  0
  4  6  1  0  0  0  0
  5  2  2  0  0  0  0
  6  7  2  0  0  0  0
  7  1  1  0  0  0  0
  8  3  1  0  0  0  0
 10  9  1  0  0  0  0
 11 17  1  0  0  0  0
 12 16  2  0  0  0  0
 12 13  1  0  0  0  0
 13 15  2  0  0  0  0
 14 11  2  0  0  0  0
 15 11  1  0  0  0  0
 16 14  1  0  0  0  0
 17 18  1  0  0  0  0
 18 19  1  0  0  0  0
 21 22  1  6  0  0  0
 21 19  1  0  0  0  0
 21 20  1  0  0  0  0
 23 26  1  6  0  0  0
 23 21  1  0  0  0  0
 23 20  1  0  0  0  0
 24 26  1  0  0  0  0
 25 24  1  0  0  0  0
 25 26  1  0  0  0  0
 27  1  1  0  0  0  0
 28 29  1  0  0  0  0
 28 27  1  0  0  0  0
 30 29  1  0  0  0  0
 31 30  1  6  0  0  0
 32 35  1  0  0  0  0
 32 34  1  0  0  0  0
 34 31  1  0  0  0  0
 34 33  1  1  0  0  0
 35 31  1  0  0  0  0
M  END
>  <MODEL>
5

>  <REMARK>
 VINA RESULT:      -7.3      1.454      1.928
  Name = 
  13 active torsions:
  status: ('A' for Active; 'I' for Inactive)
    1  A    between atoms: C_1  and  C_20
    2  A    between atoms: C_3  and  C_8
    3  A    between atoms: C_3  and  C_28
    4  A    between atoms: C_4  and  C_7
    5  A    between atoms: N_5  and  C_11
    6  A    between atoms: N_5  and  N_31
    7  A    between atoms: C_11  and  C_30
    8  A    between atoms: C_15  and  O_17
    9  A    between atoms: O_17  and  C_28
   10  A    between atoms: C_20  and  C_30
   11  A    between atoms: C_21  and  N_31
   12  A    between atoms: C_23  and  C_29
   13  A    between atoms: N_31  and  C_32
                            x       y       z     vdW  Elec       q    Type
                         _______ _______ _______ _____ _____    ______ ____

>  <TORSDO>
F 13

$$$$
=
 OpenBabel10222419153D

 35 39  0  0  1  0  0  0  0  0999 V2000
  185.3350  178.7750  141.2670 N   0  0  0  0  0  0  0  0  0  0  0  0
  184.1860  178.2220  139.1300 C   0  0  0  0  0  0  0  0  0  0  0  0
  181.8110  177.7280  139.1450 C   0  0  0  0  0  0  0  0  0  0  0  0
  181.7740  177.9260  140.5270 C   0  0  0  0  0  3  0  0  0  0  0  0
  183.0150  177.8680  138.4520 C   0  0  0  0  0  3  0  0  0  0  0  0
  182.9400  178.2730  141.2140 C   0  0  0  0  0  3  0  0  0  0  0  0
  184.1500  178.4340  140.5270 C   0  0  0  0  0  0  0  0  0  0  0  0
  180.5720  177.3580  138.4140 C   0  0  0  0  0  1  0  0  0  0  0  0
  185.4620  178.2910  138.3590 C   0  0  0  0  0  2  0  0  0  0  0  0
  185.5490  177.2030  137.4920 O   0  0  0  0  0  1  0  0  0  0  0  0
  185.5210  178.4280  145.5030 C   0  0  0  0  0  0  0  0  0  0  0  0
  185.3990  178.6480  142.7030 C   0  0  0  0  0  0  0  0  0  0  0  0
  184.7240  179.5660  143.5220 C   0  0  0  0  0  3  0  0  0  0  0  0
  186.2070  177.5130  144.6990 C   0  0  0  0  0  3  0  0  0  0  0  0
  184.7790  179.4560  144.9130 C   0  0  0  0  0  3  0  0  0  0  0  0
  186.1500  177.6250  143.3080 C   0  0  0  0  0  3  0  0  0  0  0  0
  185.5520  178.2890  146.9850 C   0  0  0  0  0  2  0  0  0  0  0  0
  186.9520  178.5610  147.4990 C   0  0  0  0  0  2  0  0  0  0  0  0
  187.5960  177.3510  147.7730 O   0  0  0  0  0  0  0  0  0  0  0  0
  189.3640  177.9980  146.3450 N   0  0  0  0  0  2  0  0  0  0  0  0
  188.9660  177.6320  147.7090 C   0  0  1  0  0  0  0  0  0  0  0  0
  189.5060  178.5010  148.6460 F   0  0  0  0  0  0  0  0  0  0  0  0
  189.8020  176.7160  146.9300 C   0  0  2  0  0  3  0  0  0  0  0  0
  192.1000  175.9800  146.3980 C   0  0  0  0  0  2  0  0  0  0  0  0
  191.7480  175.4470  147.7690 C   0  0  0  0  0  2  0  0  0  0  0  0
  191.2590  176.8150  147.3410 C   0  0  0  0  0  3  0  0  0  0  0  0
  186.4950  179.1240  140.5560 N   0  0  0  0  0  2  0  0  0  0  0  0
  187.6350  178.5680  141.2730 C   0  0  0  0  0  2  0  0  0  0  0  0
  188.7460  178.2320  140.2940 C   0  0  0  0  0  2  0  0  0  0  0  0
  189.6380  177.1330  140.8490 C   0  0  0  0  0  2  0  0  0  0  0  0
  189.8520  177.3110  142.3460 C   0  0  2  0  0  3  0  0  0  0  0  0
  191.5860  176.3800  143.2260 N   0  0  0  0  0  2  0  0  0  0  0  0
  191.3850  178.7720  143.6410 C   0  0  0  0  0  1  0  0  0  0  0  0
  191.2970  177.6660  142.6040 C   0  0  2  0  0  3  0  0  0  0  0  0
  190.2030  175.9880  142.9920 C   0  0  0  0  0  2  0  0  0  0  0  0
  1 12  1  0  0  0  0
  2  7  1  0  0  0  0
  3  4  2  0  0  0  0
  4  6  1  0  0  0  0
  5  2  2  0  0  0  0
  5  3  1  0  0  0  0
  7  6  2  0  0  0  0
  7  1  1  0  0  0  0
  8  3  1  0  0  0  0
  9  2  1  0  0  0  0
 10  9  1  0  0  0  0
 11 17  1  0  0  0  0
 12 16  2  0  0  0  0
 12 13  1  0  0  0  0
 13 15  2  0  0  0  0
 14 11  2  0  0  0  0
 15 11  1  0  0  0  0
 16 14  1  0  0  0  0
 17 18  1  0  0  0  0
 18 19  1  0  0  0  0
 20 23  1  0  0  0  0
 20 21  1  0  0  0  0
 21 19  1  0  0  0  0
 21 22  1  1  0  0  0
 23 26  1  1  0  0  0
 23 21  1  0  0  0  0
 24 26  1  0  0  0  0
 24 25  1  0  0  0  0
 26 25  1  0  0  0  0
 27  1  1  0  0  0  0
 27 28  1  0  0  0  0
 29 30  1  0  0  0  0
 29 28  1  0  0  0  0
 31 30  1  6  0  0  0
 31 34  1  0  0  0  0
 31 35  1  0  0  0  0
 34 32  1  0  0  0  0
 34 33  1  1  0  0  0
 35 32  1  0  0  0  0
M  END
>  <MODEL>
6

>  <REMARK>
 VINA RESULT:      -7.2      2.205      3.611
  Name = 
  13 active torsions:
  status: ('A' for Active; 'I' for Inactive)
    1  A    between atoms: C_1  and  C_20
    2  A    between atoms: C_3  and  C_8
    3  A    between atoms: C_3  and  C_28
    4  A    between atoms: C_4  and  C_7
    5  A    between atoms: N_5  and  C_11
    6  A    between atoms: N_5  and  N_31
    7  A    between atoms: C_11  and  C_30
    8  A    between atoms: C_15  and  O_17
    9  A    between atoms: O_17  and  C_28
   10  A    between atoms: C_20  and  C_30
   11  A    between atoms: C_21  and  N_31
   12  A    between atoms: C_23  and  C_29
   13  A    between atoms: N_31  and  C_32
                            x       y       z     vdW  Elec       q    Type
                         _______ _______ _______ _____ _____    ______ ____

>  <TORSDO>
F 13

$$$$
=
 OpenBabel10222419153D

 35 39  0  0  1  0  0  0  0  0999 V2000
  186.6910  177.5120  144.3640 N   0  0  0  0  0  0  0  0  0  0  0  0
  184.5150  178.4680  145.1020 C   0  0  0  0  0  0  0  0  0  0  0  0
  182.8300  179.0180  143.4460 C   0  0  0  0  0  0  0  0  0  0  0  0
  183.6800  178.5790  142.4280 C   0  0  0  0  0  3  0  0  0  0  0  0
  183.2500  178.9700  144.7770 C   0  0  0  0  0  3  0  0  0  0  0  0
  184.9470  178.0830  142.7430 C   0  0  0  0  0  3  0  0  0  0  0  0
  185.3740  178.0130  144.0760 C   0  0  0  0  0  0  0  0  0  0  0  0
  181.4820  179.5480  143.1120 C   0  0  0  0  0  1  0  0  0  0  0  0
  184.9480  178.5010  146.5290 C   0  0  0  0  0  2  0  0  0  0  0  0
  185.3770  179.7850  146.8640 O   0  0  0  0  0  1  0  0  0  0  0  0
  189.6750  177.2490  141.3420 C   0  0  0  0  0  0  0  0  0  0  0  0
  187.7090  177.4180  143.3450 C   0  0  0  0  0  0  0  0  0  0  0  0
  187.8780  178.4610  142.4210 C   0  0  0  0  0  3  0  0  0  0  0  0
  189.5090  176.1990  142.2500 C   0  0  0  0  0  3  0  0  0  0  0  0
  188.8570  178.3810  141.4280 C   0  0  0  0  0  3  0  0  0  0  0  0
  188.5290  176.2810  143.2420 C   0  0  0  0  0  3  0  0  0  0  0  0
  190.7410  177.1800  140.3060 C   0  0  0  0  0  2  0  0  0  0  0  0
  190.1420  176.7600  138.9780 C   0  0  0  0  0  2  0  0  0  0  0  0
  190.6000  177.6090  137.9660 O   0  0  0  0  0  0  0  0  0  0  0  0
  189.0840  179.3720  137.5430 N   0  0  0  0  0  2  0  0  0  0  0  0
  189.4590  177.9850  137.2460 C   0  0  1  0  0  0  0  0  0  0  0  0
  189.4240  177.7290  135.8830 F   0  0  0  0  0  0  0  0  0  0  0  0
  188.2420  178.2560  138.0160 C   0  0  2  0  0  3  0  0  0  0  0  0
  185.7720  178.1730  138.0240 C   0  0  0  0  0  2  0  0  0  0  0  0
  186.2790  176.8590  137.4720 C   0  0  0  0  0  2  0  0  0  0  0  0
  187.0050  178.1470  137.1440 C   0  0  0  0  0  3  0  0  0  0  0  0
  187.0250  177.2250  145.6980 N   0  0  0  0  0  2  0  0  0  0  0  0
  188.1470  178.0800  146.0640 C   0  0  0  0  0  2  0  0  0  0  0  0
  188.4950  177.8750  147.5280 C   0  0  0  0  0  2  0  0  0  0  0  0
  189.5110  176.7560  147.6880 C   0  0  0  0  0  2  0  0  0  0  0  0
  190.8700  177.1740  147.1400 C   0  0  2  0  0  3  0  0  0  0  0  0
  192.1100  175.6430  146.2640 N   0  0  0  0  0  2  0  0  0  0  0  0
  191.6790  177.5620  144.8260 C   0  0  0  0  0  1  0  0  0  0  0  0
  191.0740  176.5480  145.7820 C   0  0  2  0  0  3  0  0  0  0  0  0
  191.9440  176.2100  147.5960 C   0  0  0  0  0  2  0  0  0  0  0  0
  1 27  1  0  0  0  0
  2  9  1  0  0  0  0
  3  5  2  0  0  0  0
  4  6  2  0  0  0  0
  4  3  1  0  0  0  0
  5  2  1  0  0  0  0
  6  7  1  0  0  0  0
  7  1  1  0  0  0  0
  7  2  2  0  0  0  0
  8  3  1  0  0  0  0
  9 10  1  0  0  0  0
 11 15  2  0  0  0  0
 11 14  1  0  0  0  0
 12  1  1  0  0  0  0
 13 12  2  0  0  0  0
 14 16  2  0  0  0  0
 15 13  1  0  0  0  0
 16 12  1  0  0  0  0
 17 11  1  0  0  0  0
 18 17  1  0  0  0  0
 19 18  1  0  0  0  0
 20 23  1  0  0  0  0
 21 22  1  6  0  0  0
 21 20  1  0  0  0  0
 21 19  1  0  0  0  0
 21 23  1  0  0  0  0
 23 26  1  6  0  0  0
 25 24  1  0  0  0  0
 26 25  1  0  0  0  0
 26 24  1  0  0  0  0
 27 28  1  0  0  0  0
 28 29  1  0  0  0  0
 29 30  1  0  0  0  0
 31 35  1  0  0  0  0
 31 30  1  1  0  0  0
 32 35  1  0  0  0  0
 34 33  1  6  0  0  0
 34 32  1  0  0  0  0
 34 31  1  0  0  0  0
M  END
>  <MODEL>
7

>  <REMARK>
 VINA RESULT:      -7.2      3.408      7.476
  Name = 
  13 active torsions:
  status: ('A' for Active; 'I' for Inactive)
    1  A    between atoms: C_1  and  C_20
    2  A    between atoms: C_3  and  C_8
    3  A    between atoms: C_3  and  C_28
    4  A    between atoms: C_4  and  C_7
    5  A    between atoms: N_5  and  C_11
    6  A    between atoms: N_5  and  N_31
    7  A    between atoms: C_11  and  C_30
    8  A    between atoms: C_15  and  O_17
    9  A    between atoms: O_17  and  C_28
   10  A    between atoms: C_20  and  C_30
   11  A    between atoms: C_21  and  N_31
   12  A    between atoms: C_23  and  C_29
   13  A    between atoms: N_31  and  C_32
                            x       y       z     vdW  Elec       q    Type
                         _______ _______ _______ _____ _____    ______ ____

>  <TORSDO>
F 13

$$$$
=
 OpenBabel10222419153D

 35 39  0  0  1  0  0  0  0  0999 V2000
  181.5520  178.5710  140.8710 N   0  0  0  0  0  0  0  0  0  0  0  0
  182.1480  180.1680  139.0580 C   0  0  0  0  0  0  0  0  0  0  0  0
  180.6420  181.9970  138.5340 C   0  0  0  0  0  0  0  0  0  0  0  0
  179.7660  181.5680  139.5340 C   0  0  0  0  0  3  0  0  0  0  0  0
  181.8250  181.2940  138.2930 C   0  0  0  0  0  3  0  0  0  0  0  0
  180.0780  180.4400  140.2980 C   0  0  0  0  0  3  0  0  0  0  0  0
  181.2690  179.7370  140.0770 C   0  0  0  0  0  0  0  0  0  0  0  0
  180.3110  183.1950  137.7200 C   0  0  0  0  0  1  0  0  0  0  0  0
  183.3870  179.4090  138.7170 C   0  0  0  0  0  2  0  0  0  0  0  0
  184.5100  180.1300  139.1210 O   0  0  0  0  0  1  0  0  0  0  0  0
  184.1980  178.6910  144.2000 C   0  0  0  0  0  0  0  0  0  0  0  0
  182.4440  178.6200  142.0030 C   0  0  0  0  0  0  0  0  0  0  0  0
  183.7870  178.2370  141.8590 C   0  0  0  0  0  3  0  0  0  0  0  0
  182.8600  179.0650  144.3610 C   0  0  0  0  0  3  0  0  0  0  0  0
  184.6600  178.2760  142.9470 C   0  0  0  0  0  3  0  0  0  0  0  0
  181.9880  179.0250  143.2700 C   0  0  0  0  0  3  0  0  0  0  0  0
  185.1370  178.7670  145.3520 C   0  0  0  0  0  2  0  0  0  0  0  0
  186.1480  177.6400  145.2670 C   0  0  0  0  0  2  0  0  0  0  0  0
  187.2940  177.9800  145.9920 O   0  0  0  0  0  0  0  0  0  0  0  0
  189.3090  176.7860  146.3010 N   0  0  0  0  0  2  0  0  0  0  0  0
  188.3550  177.3430  145.3360 C   0  0  1  0  0  0  0  0  0  0  0  0
  188.0600  176.4350  144.3300 F   0  0  0  0  0  0  0  0  0  0  0  0
  189.6830  177.9470  145.4710 C   0  0  2  0  0  3  0  0  0  0  0  0
  191.6200  178.5890  144.0770 C   0  0  0  0  0  2  0  0  0  0  0  0
  190.4280  178.4150  143.1630 C   0  0  0  0  0  2  0  0  0  0  0  0
  190.6080  177.4970  144.3550 C   0  0  0  0  0  3  0  0  0  0  0  0
  180.8430  177.3880  140.6040 N   0  0  0  0  0  2  0  0  0  0  0  0
  181.2080  176.9490  139.2630 C   0  0  0  0  0  2  0  0  0  0  0  0
  182.3280  175.9260  139.3430 C   0  0  0  0  0  2  0  0  0  0  0  0
  182.5340  175.2480  137.9990 C   0  0  0  0  0  2  0  0  0  0  0  0
  184.0090  175.2220  137.6240 C   0  0  2  0  0  3  0  0  0  0  0  0
  184.5190  175.4810  135.5460 N   0  0  0  0  0  2  0  0  0  0  0  0
  185.6140  177.0340  137.0710 C   0  0  0  0  0  1  0  0  0  0  0  0
  184.3060  176.3660  136.6850 C   0  0  2  0  0  3  0  0  0  0  0  0
  184.2330  174.3450  136.4110 C   0  0  0  0  0  2  0  0  0  0  0  0
  1 12  1  0  0  0  0
  2  7  1  0  0  0  0
  3  4  2  0  0  0  0
  4  6  1  0  0  0  0
  5  3  1  0  0  0  0
  5  2  2  0  0  0  0
  7  6  2  0  0  0  0
  7  1  1  0  0  0  0
  8  3  1  0  0  0  0
  9  2  1  0  0  0  0
  9 10  1  0  0  0  0
 11 14  1  0  0  0  0
 11 17  1  0  0  0  0
 12 16  1  0  0  0  0
 13 12  2  0  0  0  0
 13 15  1  0  0  0  0
 15 11  2  0  0  0  0
 16 14  2  0  0  0  0
 18 17  1  0  0  0  0
 18 19  1  0  0  0  0
 21 22  1  6  0  0  0
 21 23  1  0  0  0  0
 21 19  1  0  0  0  0
 21 20  1  0  0  0  0
 23 26  1  6  0  0  0
 23 20  1  0  0  0  0
 24 26  1  0  0  0  0
 25 24  1  0  0  0  0
 25 26  1  0  0  0  0
 27  1  1  0  0  0  0
 28 29  1  0  0  0  0
 28 27  1  0  0  0  0
 30 29  1  0  0  0  0
 31 30  1  6  0  0  0
 32 35  1  0  0  0  0
 32 34  1  0  0  0  0
 34 33  1  1  0  0  0
 34 31  1  0  0  0  0
 35 31  1  0  0  0  0
M  END
>  <MODEL>
8

>  <REMARK>
 VINA RESULT:      -7.1      2.178      3.662
  Name = 
  13 active torsions:
  status: ('A' for Active; 'I' for Inactive)
    1  A    between atoms: C_1  and  C_20
    2  A    between atoms: C_3  and  C_8
    3  A    between atoms: C_3  and  C_28
    4  A    between atoms: C_4  and  C_7
    5  A    between atoms: N_5  and  C_11
    6  A    between atoms: N_5  and  N_31
    7  A    between atoms: C_11  and  C_30
    8  A    between atoms: C_15  and  O_17
    9  A    between atoms: O_17  and  C_28
   10  A    between atoms: C_20  and  C_30
   11  A    between atoms: C_21  and  N_31
   12  A    between atoms: C_23  and  C_29
   13  A    between atoms: N_31  and  C_32
                            x       y       z     vdW  Elec       q    Type
                         _______ _______ _______ _____ _____    ______ ____

>  <TORSDO>
F 13

$$$$
=
 OpenBabel10222419153D

 35 39  0  0  1  0  0  0  0  0999 V2000
  182.3940  178.5000  140.5990 N   0  0  0  0  0  0  0  0  0  0  0  0
  180.3240  177.1180  140.6270 C   0  0  0  0  0  0  0  0  0  0  0  0
  180.2710  175.0230  139.4050 C   0  0  0  0  0  0  0  0  0  0  0  0
  181.5890  175.2260  138.9900 C   0  0  0  0  0  3  0  0  0  0  0  0
  179.6400  175.9700  140.2140 C   0  0  0  0  0  3  0  0  0  0  0  0
  182.2790  176.3730  139.3910 C   0  0  0  0  0  3  0  0  0  0  0  0
  181.6620  177.3220  140.2170 C   0  0  0  0  0  0  0  0  0  0  0  0
  179.5370  173.8040  138.9770 C   0  0  0  0  0  1  0  0  0  0  0  0
  179.5870  178.1350  141.4310 C   0  0  0  0  0  2  0  0  0  0  0  0
  179.2790  177.6130  142.6870 O   0  0  0  0  0  1  0  0  0  0  0  0
  184.3240  178.8300  144.3760 C   0  0  0  0  0  0  0  0  0  0  0  0
  183.0540  178.6040  141.8780 C   0  0  0  0  0  0  0  0  0  0  0  0
  182.3400  179.0370  143.0060 C   0  0  0  0  0  3  0  0  0  0  0  0
  185.0500  178.4090  143.2580 C   0  0  0  0  0  3  0  0  0  0  0  0
  182.9680  179.1450  144.2480 C   0  0  0  0  0  3  0  0  0  0  0  0
  184.4200  178.3010  142.0150 C   0  0  0  0  0  3  0  0  0  0  0  0
  184.9840  178.9120  145.7070 C   0  0  0  0  0  2  0  0  0  0  0  0
  185.9630  177.7650  145.8680 C   0  0  0  0  0  2  0  0  0  0  0  0
  187.2190  178.2650  146.2230 O   0  0  0  0  0  0  0  0  0  0  0  0
  189.0320  176.7620  146.4090 N   0  0  0  0  0  2  0  0  0  0  0  0
  188.1450  177.5000  145.5040 C   0  0  1  0  0  0  0  0  0  0  0  0
  187.6780  176.6910  144.4780 F   0  0  0  0  0  0  0  0  0  0  0  0
  189.5550  177.8840  145.6070 C   0  0  2  0  0  3  0  0  0  0  0  0
  191.4990  178.2950  144.1380 C   0  0  0  0  0  2  0  0  0  0  0  0
  190.2560  178.3100  143.2770 C   0  0  0  0  0  2  0  0  0  0  0  0
  190.3590  177.3440  144.4390 C   0  0  0  0  0  3  0  0  0  0  0  0
  182.5680  179.5210  139.6490 N   0  0  0  0  0  2  0  0  0  0  0  0
  181.2880  179.7270  138.9860 C   0  0  0  0  0  2  0  0  0  0  0  0
  180.8810  181.1870  139.0920 C   0  0  0  0  0  2  0  0  0  0  0  0
  181.5840  182.0190  138.0330 C   0  0  0  0  0  2  0  0  0  0  0  0
  180.5740  182.7320  137.1440 C   0  0  2  0  0  3  0  0  0  0  0  0
  179.9370  184.7050  137.7350 N   0  0  0  0  0  2  0  0  0  0  0  0
  180.8260  184.5500  135.4710 C   0  0  0  0  0  1  0  0  0  0  0  0
  181.0190  184.1580  136.9260 C   0  0  2  0  0  3  0  0  0  0  0  0
  179.4730  183.3470  137.9800 C   0  0  0  0  0  2  0  0  0  0  0  0
  1 12  1  0  0  0  0
  2  9  1  0  0  0  0
  3  5  1  0  0  0  0
  4  6  1  0  0  0  0
  4  3  2  0  0  0  0
  5  2  2  0  0  0  0
  6  7  2  0  0  0  0
  7  1  1  0  0  0  0
  7  2  1  0  0  0  0
  8  3  1  0  0  0  0
  9 10  1  0  0  0  0
 11 17  1  0  0  0  0
 12 16  2  0  0  0  0
 12 13  1  0  0  0  0
 13 15  2  0  0  0  0
 14 11  2  0  0  0  0
 15 11  1  0  0  0  0
 16 14  1  0  0  0  0
 17 18  1  0  0  0  0
 18 19  1  0  0  0  0
 21 22  1  6  0  0  0
 21 23  1  0  0  0  0
 21 19  1  0  0  0  0
 21 20  1  0  0  0  0
 23 26  1  6  0  0  0
 23 20  1  0  0  0  0
 24 26  1  0  0  0  0
 25 24  1  0  0  0  0
 25 26  1  0  0  0  0
 27  1  1  0  0  0  0
 28 29  1  0  0  0  0
 28 27  1  0  0  0  0
 30 29  1  0  0  0  0
 31 35  1  0  0  0  0
 31 30  1  1  0  0  0
 32 35  1  0  0  0  0
 34 33  1  6  0  0  0
 34 31  1  0  0  0  0
 34 32  1  0  0  0  0
M  END
>  <MODEL>
9

>  <REMARK>
 VINA RESULT:      -7.1      2.593      4.308
  Name = 
  13 active torsions:
  status: ('A' for Active; 'I' for Inactive)
    1  A    between atoms: C_1  and  C_20
    2  A    between atoms: C_3  and  C_8
    3  A    between atoms: C_3  and  C_28
    4  A    between atoms: C_4  and  C_7
    5  A    between atoms: N_5  and  C_11
    6  A    between atoms: N_5  and  N_31
    7  A    between atoms: C_11  and  C_30
    8  A    between atoms: C_15  and  O_17
    9  A    between atoms: O_17  and  C_28
   10  A    between atoms: C_20  and  C_30
   11  A    between atoms: C_21  and  N_31
   12  A    between atoms: C_23  and  C_29
   13  A    between atoms: N_31  and  C_32
                            x       y       z     vdW  Elec       q    Type
                         _______ _______ _______ _____ _____    ______ ____

>  <TORSDO>
F 13

$$$$
