=
 OpenBabel10222420203D

 27 30  0  0  1  0  0  0  0  0999 V2000
  189.8060  177.0130  145.0640 C   0  0  0  0  0  3  0  0  0  0  0  0
  187.9650  177.6390  146.2660 C   0  0  0  0  0  0  0  0  0  0  0  0
  187.5220  177.3640  144.9960 C   0  0  0  0  0  0  0  0  0  0  0  0
  188.6530  176.9740  144.2690 C   0  0  0  0  0  0  0  0  0  0  0  0
  189.3750  177.4340  146.3040 C   0  0  1  0  0  3  0  0  0  0  0  0
  190.0510  177.6320  147.4950 C   0  0  0  0  0  3  0  0  0  0  0  0
  189.3200  178.0210  148.5820 N   0  0  0  0  0  0  0  0  0  0  0  0
  187.9610  178.2080  148.5270 C   0  0  0  0  0  3  0  0  0  0  0  0
  187.2690  178.0140  147.3640 N   0  0  0  0  0  0  0  0  0  0  0  0
  186.0980  177.3540  144.5310 C   0  0  1  0  0  3  0  0  0  0  0  0
  185.5210  178.7570  144.6100 C   0  0  1  0  0  3  0  0  0  0  0  0
  185.9400  178.1900  143.2740 C   0  0  0  0  0  2  0  0  0  0  0  0
  184.0180  178.6550  144.7550 C   0  0  0  0  0  2  0  0  0  0  0  0
  183.3530  179.6390  143.8100 C   0  0  0  0  0  2  0  0  0  0  0  0
  180.9340  178.1050  141.3010 C   0  0  0  0  0  3  0  0  0  0  0  0
  179.8450  178.2680  143.4560 C   0  0  0  0  0  3  0  0  0  0  0  0
  181.0040  178.8250  143.9990 C   0  0  0  0  0  3  0  0  0  0  0  0
  182.0980  178.6630  141.8380 C   0  0  0  0  0  0  0  0  0  0  0  0
  182.1370  179.0230  143.2000 C   0  0  0  0  0  0  0  0  0  0  0  0
  183.2780  178.8590  140.9470 C   0  0  0  0  0  1  0  0  0  0  0  0
  179.8100  177.9070  142.1070 C   0  0  0  0  0  3  0  0  0  0  0  0
  188.6450  176.5030  142.8510 C   0  0  0  0  0  2  0  0  0  0  0  0
  190.0590  176.2610  142.3520 C   0  0  0  0  0  2  0  0  0  0  0  0
  190.2500  176.9000  141.0610 N   0  0  0  0  0  2  0  0  0  0  0  0
  189.0330  177.5050  140.7280 N   0  0  0  0  0  2  0  0  0  0  0  0
  188.9400  178.3020  139.5810 C   0  0  0  0  0  0  0  0  0  0  0  0
  188.8630  178.9610  138.6330 N   0  0  0  0  0  0  0  0  0  0  0  0
  2  5  1  0  0  0  0
  2  9  1  0  0  0  0
  3  2  2  0  0  0  0
  4  3  1  0  0  0  0
  4  1  2  0  0  0  0
  5  1  1  1  0  0  0
  5  6  1  0  0  0  0
  6  7  2  0  0  0  0
  8  7  1  0  0  0  0
  9  8  2  0  0  0  0
 10 11  1  0  0  0  0
 10  3  1  1  0  0  0
 11 13  1  6  0  0  0
 12 10  1  0  0  0  0
 12 11  1  0  0  0  0
 14 13  1  0  0  0  0
 15 18  2  0  0  0  0
 15 21  1  0  0  0  0
 16 17  1  0  0  0  0
 18 19  1  0  0  0  0
 19 14  1  0  0  0  0
 19 17  2  0  0  0  0
 20 18  1  0  0  0  0
 21 16  2  0  0  0  0
 22  4  1  0  0  0  0
 23 22  1  0  0  0  0
 24 23  1  0  0  0  0
 25 24  1  0  0  0  0
 26 25  1  0  0  0  0
 27 26  3  0  0  0  0
M  END
>  <MODEL>
1

>  <REMARK>
 VINA RESULT:      -8.2      0.000      0.000
  Name = 
  9 active torsions:
  status: ('A' for Active; 'I' for Inactive)
    1  A    between atoms: C_1  and  N_10
    2  A    between atoms: C_5  and  C_12
    3  A    between atoms: C_5  and  C_19
    4  A    between atoms: C_6  and  N_14
    5  A    between atoms: C_6  and  C_26
    6  A    between atoms: C_8  and  C_15
    7  A    between atoms: N_10  and  N_14
    8  A    between atoms: C_11  and  C_26
    9  A    between atoms: C_12  and  C_20
                            x       y       z     vdW  Elec       q    Type
                         _______ _______ _______ _____ _____    ______ ____

>  <TORSDO>
F 9

$$$$
=
 OpenBabel10222420203D

 27 30  0  0  1  0  0  0  0  0999 V2000
  189.1320  177.0130  139.6460 C   0  0  0  0  0  3  0  0  0  0  0  0
  191.2420  177.3660  140.4510 C   0  0  0  0  0  0  0  0  0  0  0  0
  190.3810  177.7020  141.4650 C   0  0  0  0  0  0  0  0  0  0  0  0
  189.0920  177.4760  140.9680 C   0  0  2  0  0  3  0  0  0  0  0  0
  190.4710  176.9530  139.3260 C   0  0  0  0  0  0  0  0  0  0  0  0
  191.1250  176.5450  138.1770 C   0  0  0  0  0  3  0  0  0  0  0  0
  192.4910  176.5620  138.1830 N   0  0  0  0  0  0  0  0  0  0  0  0
  193.2160  176.9590  139.2800 C   0  0  0  0  0  3  0  0  0  0  0  0
  192.5950  177.3610  140.4290 N   0  0  0  0  0  0  0  0  0  0  0  0
  190.7570  178.0980  142.8600 C   0  0  1  0  0  3  0  0  0  0  0  0
  190.1830  177.1000  143.8520 C   0  0  1  0  0  3  0  0  0  0  0  0
  191.6500  177.0440  143.4920 C   0  0  0  0  0  2  0  0  0  0  0  0
  190.0140  177.7870  145.1890 C   0  0  0  0  0  2  0  0  0  0  0  0
  189.0990  176.9580  146.0700 C   0  0  0  0  0  2  0  0  0  0  0  0
  186.0040  178.7530  147.3750 C   0  0  0  0  0  3  0  0  0  0  0  0
  185.6490  178.1370  145.0620 C   0  0  0  0  0  3  0  0  0  0  0  0
  186.9240  177.5690  145.0180 C   0  0  0  0  0  3  0  0  0  0  0  0
  187.2820  178.1860  147.3380 C   0  0  0  0  0  0  0  0  0  0  0  0
  187.7490  177.5920  146.1480 C   0  0  0  0  0  0  0  0  0  0  0  0
  188.1230  178.2290  148.5690 C   0  0  0  0  0  1  0  0  0  0  0  0
  185.1890  178.7290  146.2410 C   0  0  0  0  0  3  0  0  0  0  0  0
  187.8280  177.6310  141.7500 C   0  0  0  0  0  2  0  0  0  0  0  0
  187.1270  178.9320  141.3970 C   0  0  0  0  0  2  0  0  0  0  0  0
  186.2960  178.7480  140.2190 N   0  0  0  0  0  2  0  0  0  0  0  0
  185.1000  179.4320  140.4600 N   0  0  0  0  0  2  0  0  0  0  0  0
  184.1520  178.8960  141.3380 C   0  0  0  0  0  0  0  0  0  0  0  0
  183.3690  178.4530  142.0650 N   0  0  0  0  0  0  0  0  0  0  0  0
  1  4  1  0  0  0  0
  2  3  2  0  0  0  0
  4  3  1  0  0  0  0
  4 22  1  1  0  0  0
  5  1  2  0  0  0  0
  5  2  1  0  0  0  0
  6  7  2  0  0  0  0
  6  5  1  0  0  0  0
  7  8  1  0  0  0  0
  8  9  2  0  0  0  0
  9  2  1  0  0  0  0
 10  3  1  6  0  0  0
 10 12  1  0  0  0  0
 10 11  1  0  0  0  0
 11 13  1  1  0  0  0
 12 11  1  0  0  0  0
 13 14  1  0  0  0  0
 14 19  1  0  0  0  0
 16 21  1  0  0  0  0
 17 16  2  0  0  0  0
 17 19  1  0  0  0  0
 18 15  1  0  0  0  0
 18 20  1  0  0  0  0
 19 18  2  0  0  0  0
 21 15  2  0  0  0  0
 23 22  1  0  0  0  0
 24 25  1  0  0  0  0
 24 23  1  0  0  0  0
 25 26  1  0  0  0  0
 26 27  3  0  0  0  0
M  END
>  <MODEL>
2

>  <REMARK>
 VINA RESULT:      -8.2      3.109      6.713
  Name = 
  9 active torsions:
  status: ('A' for Active; 'I' for Inactive)
    1  A    between atoms: C_1  and  N_10
    2  A    between atoms: C_5  and  C_12
    3  A    between atoms: C_5  and  C_19
    4  A    between atoms: C_6  and  N_14
    5  A    between atoms: C_6  and  C_26
    6  A    between atoms: C_8  and  C_15
    7  A    between atoms: N_10  and  N_14
    8  A    between atoms: C_11  and  C_26
    9  A    between atoms: C_12  and  C_20
                            x       y       z     vdW  Elec       q    Type
                         _______ _______ _______ _____ _____    ______ ____

>  <TORSDO>
F 9

$$$$
=
 OpenBabel10222420203D

 27 30  0  0  1  0  0  0  0  0999 V2000
  190.2140  176.6010  143.7480 C   0  0  0  0  0  3  0  0  0  0  0  0
  189.8650  177.2500  145.9120 C   0  0  0  0  0  0  0  0  0  0  0  0
  188.7810  177.6920  145.1970 C   0  0  0  0  0  0  0  0  0  0  0  0
  188.9980  177.2840  143.8750 C   0  0  0  0  0  0  0  0  0  0  0  0
  190.7540  176.5870  145.0160 C   0  0  1  0  0  3  0  0  0  0  0  0
  191.9210  176.0340  145.5140 C   0  0  0  0  0  3  0  0  0  0  0  0
  192.1610  176.1570  146.8540 N   0  0  0  0  0  0  0  0  0  0  0  0
  191.2890  176.7940  147.7020 C   0  0  0  0  0  3  0  0  0  0  0  0
  190.1270  177.3440  147.2360 N   0  0  0  0  0  0  0  0  0  0  0  0
  187.5570  178.3540  145.7510 C   0  0  1  0  0  3  0  0  0  0  0  0
  186.3270  177.5280  145.4160 C   0  0  1  0  0  3  0  0  0  0  0  0
  186.9090  177.4800  146.8100 C   0  0  0  0  0  2  0  0  0  0  0  0
  185.1190  178.4390  145.4020 C   0  0  0  0  0  2  0  0  0  0  0  0
  185.0650  179.1830  144.0810 C   0  0  0  0  0  2  0  0  0  0  0  0
  182.3930  178.5410  141.4440 C   0  0  0  0  0  3  0  0  0  0  0  0
  181.3310  178.8070  143.6020 C   0  0  0  0  0  3  0  0  0  0  0  0
  182.5820  178.9970  144.1940 C   0  0  0  0  0  3  0  0  0  0  0  0
  183.6490  178.7310  142.0300 C   0  0  0  0  0  0  0  0  0  0  0  0
  183.7460  178.9570  143.4180 C   0  0  0  0  0  0  0  0  0  0  0  0
  184.8610  178.6850  141.1620 C   0  0  0  0  0  1  0  0  0  0  0  0
  181.2370  178.5780  142.2270 C   0  0  0  0  0  3  0  0  0  0  0  0
  188.0380  177.4770  142.7460 C   0  0  0  0  0  2  0  0  0  0  0  0
  188.6760  178.2780  141.6240 C   0  0  0  0  0  2  0  0  0  0  0  0
  188.6610  177.5100  140.3900 N   0  0  0  0  0  2  0  0  0  0  0  0
  189.5720  178.1220  139.5230 N   0  0  0  0  0  2  0  0  0  0  0  0
  189.1150  178.7470  138.3570 C   0  0  0  0  0  0  0  0  0  0  0  0
  188.7370  179.2640  137.3930 N   0  0  0  0  0  0  0  0  0  0  0  0
  1  4  2  0  0  0  0
  2  9  1  0  0  0  0
  3  2  2  0  0  0  0
  4  3  1  0  0  0  0
  5  1  1  1  0  0  0
  5  6  1  0  0  0  0
  5  2  1  0  0  0  0
  6  7  2  0  0  0  0
  7  8  1  0  0  0  0
  9  8  2  0  0  0  0
 10  3  1  6  0  0  0
 10 12  1  0  0  0  0
 11 13  1  1  0  0  0
 11 10  1  0  0  0  0
 11 12  1  0  0  0  0
 14 13  1  0  0  0  0
 15 18  2  0  0  0  0
 15 21  1  0  0  0  0
 16 17  1  0  0  0  0
 18 19  1  0  0  0  0
 19 14  1  0  0  0  0
 19 17  2  0  0  0  0
 20 18  1  0  0  0  0
 21 16  2  0  0  0  0
 22  4  1  0  0  0  0
 23 22  1  0  0  0  0
 24 23  1  0  0  0  0
 25 24  1  0  0  0  0
 26 25  1  0  0  0  0
 27 26  3  0  0  0  0
M  END
>  <MODEL>
3

>  <REMARK>
 VINA RESULT:      -8.1      1.414      2.106
  Name = 
  9 active torsions:
  status: ('A' for Active; 'I' for Inactive)
    1  A    between atoms: C_1  and  N_10
    2  A    between atoms: C_5  and  C_12
    3  A    between atoms: C_5  and  C_19
    4  A    between atoms: C_6  and  N_14
    5  A    between atoms: C_6  and  C_26
    6  A    between atoms: C_8  and  C_15
    7  A    between atoms: N_10  and  N_14
    8  A    between atoms: C_11  and  C_26
    9  A    between atoms: C_12  and  C_20
                            x       y       z     vdW  Elec       q    Type
                         _______ _______ _______ _____ _____    ______ ____

>  <TORSDO>
F 9

$$$$
=
 OpenBabel10222420203D

 27 30  0  0  1  0  0  0  0  0999 V2000
  184.8870  179.0200  139.9810 C   0  0  0  0  0  3  0  0  0  0  0  0
  183.0160  178.8310  141.2810 C   0  0  0  0  0  0  0  0  0  0  0  0
  184.0840  178.5540  142.0980 C   0  0  0  0  0  0  0  0  0  0  0  0
  185.2260  178.6790  141.2970 C   0  0  2  0  0  3  0  0  0  0  0  0
  183.5120  179.1070  139.9730 C   0  0  0  0  0  0  0  0  0  0  0  0
  182.6160  179.4350  138.9720 C   0  0  0  0  0  3  0  0  0  0  0  0
  181.2880  179.4750  139.2950 N   0  0  0  0  0  0  0  0  0  0  0  0
  180.8320  179.2120  140.5620 C   0  0  0  0  0  3  0  0  0  0  0  0
  181.6960  178.8900  141.5710 N   0  0  0  0  0  0  0  0  0  0  0  0
  184.0360  178.3040  143.5740 C   0  0  1  0  0  3  0  0  0  0  0  0
  184.7790  179.4070  144.3080 C   0  0  1  0  0  3  0  0  0  0  0  0
  183.2680  179.4080  144.2790 C   0  0  0  0  0  2  0  0  0  0  0  0
  185.2600  178.8670  145.6370 C   0  0  0  0  0  2  0  0  0  0  0  0
  186.1850  177.6890  145.3980 C   0  0  0  0  0  2  0  0  0  0  0  0
  189.7080  177.4340  146.8200 C   0  0  0  0  0  3  0  0  0  0  0  0
  188.2120  178.2350  148.5440 C   0  0  0  0  0  3  0  0  0  0  0  0
  187.1450  178.1790  147.6450 C   0  0  0  0  0  3  0  0  0  0  0  0
  188.6450  177.3750  145.9130 C   0  0  0  0  0  0  0  0  0  0  0  0
  187.3520  177.7550  146.3270 C   0  0  0  0  0  0  0  0  0  0  0  0
  188.9130  176.9110  144.5210 C   0  0  0  0  0  1  0  0  0  0  0  0
  189.4940  177.8630  148.1310 C   0  0  0  0  0  3  0  0  0  0  0  0
  186.6340  178.5440  141.7780 C   0  0  0  0  0  2  0  0  0  0  0  0
  187.6150  178.6800  140.6260 C   0  0  0  0  0  2  0  0  0  0  0  0
  188.5380  177.5580  140.6200 N   0  0  0  0  0  2  0  0  0  0  0  0
  189.5070  177.8390  139.6520 N   0  0  0  0  0  2  0  0  0  0  0  0
  189.1880  178.6510  138.5580 C   0  0  0  0  0  0  0  0  0  0  0  0
  188.9250  179.3230  137.6530 N   0  0  0  0  0  0  0  0  0  0  0  0
  1  4  1  0  0  0  0
  2  9  1  0  0  0  0
  2  3  2  0  0  0  0
  4 22  1  1  0  0  0
  4  3  1  0  0  0  0
  5  1  2  0  0  0  0
  5  2  1  0  0  0  0
  6  7  2  0  0  0  0
  6  5  1  0  0  0  0
  7  8  1  0  0  0  0
  8  9  2  0  0  0  0
 10  3  1  6  0  0  0
 10 12  1  0  0  0  0
 10 11  1  0  0  0  0
 11 13  1  1  0  0  0
 12 11  1  0  0  0  0
 14 13  1  0  0  0  0
 14 19  1  0  0  0  0
 15 21  1  0  0  0  0
 17 16  1  0  0  0  0
 18 19  1  0  0  0  0
 18 15  2  0  0  0  0
 19 17  2  0  0  0  0
 20 18  1  0  0  0  0
 21 16  2  0  0  0  0
 23 22  1  0  0  0  0
 24 23  1  0  0  0  0
 25 24  1  0  0  0  0
 26 25  1  0  0  0  0
 27 26  3  0  0  0  0
M  END
>  <MODEL>
4

>  <REMARK>
 VINA RESULT:      -8.0      2.470      6.913
  Name = 
  9 active torsions:
  status: ('A' for Active; 'I' for Inactive)
    1  A    between atoms: C_1  and  N_10
    2  A    between atoms: C_5  and  C_12
    3  A    between atoms: C_5  and  C_19
    4  A    between atoms: C_6  and  N_14
    5  A    between atoms: C_6  and  C_26
    6  A    between atoms: C_8  and  C_15
    7  A    between atoms: N_10  and  N_14
    8  A    between atoms: C_11  and  C_26
    9  A    between atoms: C_12  and  C_20
                            x       y       z     vdW  Elec       q    Type
                         _______ _______ _______ _____ _____    ______ ____

>  <TORSDO>
F 9

$$$$
=
 OpenBabel10222420203D

 27 30  0  0  1  0  0  0  0  0999 V2000
  189.8120  177.3880  138.7080 C   0  0  0  0  0  3  0  0  0  0  0  0
  188.6780  177.9900  140.6000 C   0  0  0  0  0  0  0  0  0  0  0  0
  189.9560  177.6810  140.9960 C   0  0  0  0  0  0  0  0  0  0  0  0
  190.6450  177.3210  139.8320 C   0  0  2  0  0  3  0  0  0  0  0  0
  188.5870  177.7980  139.1900 C   0  0  0  0  0  0  0  0  0  0  0  0
  187.3890  178.0670  138.5520 C   0  0  0  0  0  3  0  0  0  0  0  0
  186.3460  178.5050  139.3180 N   0  0  0  0  0  0  0  0  0  0  0  0
  186.4550  178.6900  140.6740 C   0  0  0  0  0  3  0  0  0  0  0  0
  187.6290  178.4370  141.3280 N   0  0  0  0  0  0  0  0  0  0  0  0
  190.5220  177.8330  142.3750 C   0  0  1  0  0  3  0  0  0  0  0  0
  189.6350  177.1170  143.3790 C   0  0  1  0  0  3  0  0  0  0  0  0
  190.9330  176.4840  142.9360 C   0  0  0  0  0  2  0  0  0  0  0  0
  189.8210  177.7590  144.7360 C   0  0  0  0  0  2  0  0  0  0  0  0
  188.9910  177.0150  145.7640 C   0  0  0  0  0  2  0  0  0  0  0  0
  185.8590  178.6920  147.1360 C   0  0  0  0  0  3  0  0  0  0  0  0
  185.5290  178.1890  144.7930 C   0  0  0  0  0  3  0  0  0  0  0  0
  186.8130  177.6440  144.7280 C   0  0  0  0  0  3  0  0  0  0  0  0
  187.1470  178.1470  147.0800 C   0  0  0  0  0  0  0  0  0  0  0  0
  187.6310  177.6220  145.8640 C   0  0  0  0  0  0  0  0  0  0  0  0
  187.9790  178.1410  148.3180 C   0  0  0  0  0  1  0  0  0  0  0  0
  185.0530  178.7140  145.9970 C   0  0  0  0  0  3  0  0  0  0  0  0
  192.0980  176.9790  139.7630 C   0  0  0  0  0  2  0  0  0  0  0  0
  192.4750  176.4980  138.3720 C   0  0  0  0  0  2  0  0  0  0  0  0
  193.9090  176.2740  138.2930 N   0  0  0  0  0  2  0  0  0  0  0  0
  194.0870  174.9830  137.7850 N   0  0  0  0  0  2  0  0  0  0  0  0
  194.9460  174.0890  138.4350 C   0  0  0  0  0  0  0  0  0  0  0  0
  195.6560  173.3490  138.9720 N   0  0  0  0  0  0  0  0  0  0  0  0
  1  5  2  0  0  0  0
  1  4  1  0  0  0  0
  2  3  2  0  0  0  0
  2  9  1  0  0  0  0
  4 22  1  6  0  0  0
  4  3  1  0  0  0  0
  5  2  1  0  0  0  0
  6  5  1  0  0  0  0
  6  7  2  0  0  0  0
  7  8  1  0  0  0  0
  8  9  2  0  0  0  0
 10  3  1  6  0  0  0
 10 12  1  0  0  0  0
 10 11  1  0  0  0  0
 11 13  1  1  0  0  0
 12 11  1  0  0  0  0
 13 14  1  0  0  0  0
 14 19  1  0  0  0  0
 16 21  1  0  0  0  0
 17 16  2  0  0  0  0
 17 19  1  0  0  0  0
 18 15  1  0  0  0  0
 18 20  1  0  0  0  0
 19 18  2  0  0  0  0
 21 15  2  0  0  0  0
 23 22  1  0  0  0  0
 24 23  1  0  0  0  0
 25 24  1  0  0  0  0
 25 26  1  0  0  0  0
 26 27  3  0  0  0  0
M  END
>  <MODEL>
5

>  <REMARK>
 VINA RESULT:      -8.0      3.379      6.620
  Name = 
  9 active torsions:
  status: ('A' for Active; 'I' for Inactive)
    1  A    between atoms: C_1  and  N_10
    2  A    between atoms: C_5  and  C_12
    3  A    between atoms: C_5  and  C_19
    4  A    between atoms: C_6  and  N_14
    5  A    between atoms: C_6  and  C_26
    6  A    between atoms: C_8  and  C_15
    7  A    between atoms: N_10  and  N_14
    8  A    between atoms: C_11  and  C_26
    9  A    between atoms: C_12  and  C_20
                            x       y       z     vdW  Elec       q    Type
                         _______ _______ _______ _____ _____    ______ ____

>  <TORSDO>
F 9

$$$$
=
 OpenBabel10222420203D

 27 30  0  0  1  0  0  0  0  0999 V2000
  185.3780  178.2910  146.3170 C   0  0  0  0  0  3  0  0  0  0  0  0
  185.4410  178.0940  144.0400 C   0  0  0  0  0  0  0  0  0  0  0  0
  186.6170  177.5610  144.5070 C   0  0  0  0  0  0  0  0  0  0  0  0
  186.5680  177.6790  145.9010 C   0  0  2  0  0  3  0  0  0  0  0  0
  184.6830  178.5540  145.1570 C   0  0  0  0  0  0  0  0  0  0  0  0
  183.4390  179.1190  144.9370 C   0  0  0  0  0  3  0  0  0  0  0  0
  183.0010  179.2080  143.6450 N   0  0  0  0  0  0  0  0  0  0  0  0
  183.7440  178.7530  142.5840 C   0  0  0  0  0  3  0  0  0  0  0  0
  184.9740  178.1860  142.7740 N   0  0  0  0  0  0  0  0  0  0  0  0
  187.6690  176.8740  143.6920 C   0  0  1  0  0  3  0  0  0  0  0  0
  188.3810  177.8870  142.8100 C   0  0  1  0  0  3  0  0  0  0  0  0
  189.0510  177.3800  144.0660 C   0  0  0  0  0  2  0  0  0  0  0  0
  188.9500  177.1670  141.6070 C   0  0  0  0  0  2  0  0  0  0  0  0
  188.8230  178.0530  140.3820 C   0  0  0  0  0  2  0  0  0  0  0  0
  189.9780  176.9220  136.9350 C   0  0  0  0  0  3  0  0  0  0  0  0
  191.7410  176.5080  138.5390 C   0  0  0  0  0  3  0  0  0  0  0  0
  190.9420  177.0350  139.5550 C   0  0  0  0  0  3  0  0  0  0  0  0
  189.1710  177.4510  137.9470 C   0  0  0  0  0  0  0  0  0  0  0  0
  189.6580  177.5130  139.2680 C   0  0  0  0  0  0  0  0  0  0  0  0
  187.8080  177.9440  137.5950 C   0  0  0  0  0  1  0  0  0  0  0  0
  191.2600  176.4510  137.2290 C   0  0  0  0  0  3  0  0  0  0  0  0
  187.6020  177.1590  146.8460 C   0  0  0  0  0  2  0  0  0  0  0  0
  188.0200  178.2330  147.8360 C   0  0  0  0  0  2  0  0  0  0  0  0
  189.4150  178.0580  148.2040 N   0  0  0  0  0  2  0  0  0  0  0  0
  189.8820  176.9460  147.4960 N   0  0  0  0  0  2  0  0  0  0  0  0
  191.2370  176.6020  147.5470 C   0  0  0  0  0  0  0  0  0  0  0  0
  192.3590  176.3190  147.5900 N   0  0  0  0  0  0  0  0  0  0  0  0
  2  3  2  0  0  0  0
  2  5  1  0  0  0  0
  3  4  1  0  0  0  0
  4  1  1  0  0  0  0
  4 22  1  1  0  0  0
  5  1  2  0  0  0  0
  6  5  1  0  0  0  0
  7  6  2  0  0  0  0
  8  9  2  0  0  0  0
  8  7  1  0  0  0  0
  9  2  1  0  0  0  0
 10 12  1  0  0  0  0
 10  3  1  1  0  0  0
 11 13  1  6  0  0  0
 11 10  1  0  0  0  0
 11 12  1  0  0  0  0
 14 13  1  0  0  0  0
 15 21  2  0  0  0  0
 15 18  1  0  0  0  0
 16 17  2  0  0  0  0
 18 19  2  0  0  0  0
 19 17  1  0  0  0  0
 19 14  1  0  0  0  0
 20 18  1  0  0  0  0
 21 16  1  0  0  0  0
 22 23  1  0  0  0  0
 23 24  1  0  0  0  0
 25 26  1  0  0  0  0
 25 24  1  0  0  0  0
 26 27  3  0  0  0  0
M  END
>  <MODEL>
6

>  <REMARK>
 VINA RESULT:      -7.9      2.507      7.258
  Name = 
  9 active torsions:
  status: ('A' for Active; 'I' for Inactive)
    1  A    between atoms: C_1  and  N_10
    2  A    between atoms: C_5  and  C_12
    3  A    between atoms: C_5  and  C_19
    4  A    between atoms: C_6  and  N_14
    5  A    between atoms: C_6  and  C_26
    6  A    between atoms: C_8  and  C_15
    7  A    between atoms: N_10  and  N_14
    8  A    between atoms: C_11  and  C_26
    9  A    between atoms: C_12  and  C_20
                            x       y       z     vdW  Elec       q    Type
                         _______ _______ _______ _____ _____    ______ ____

>  <TORSDO>
F 9

$$$$
=
 OpenBabel10222420203D

 27 30  0  0  1  0  0  0  0  0999 V2000
  186.0060  178.3150  146.1790 C   0  0  0  0  0  3  0  0  0  0  0  0
  188.0760  177.4080  145.8330 C   0  0  0  0  0  0  0  0  0  0  0  0
  187.4030  177.3020  144.6420 C   0  0  0  0  0  0  0  0  0  0  0  0
  186.1410  177.8650  144.8590 C   0  0  0  0  0  0  0  0  0  0  0  0
  187.2090  178.0230  146.7840 C   0  0  0  0  0  0  0  0  0  0  0  0
  187.6750  178.2550  148.0660 C   0  0  0  0  0  3  0  0  0  0  0  0
  188.9570  177.8770  148.3540 N   0  0  0  0  0  0  0  0  0  0  0  0
  189.7780  177.2920  147.4220 C   0  0  0  0  0  3  0  0  0  0  0  0
  189.3440  177.0560  146.1480 N   0  0  0  0  0  2  0  0  0  0  0  0
  187.9630  176.8060  143.3440 C   0  0  1  0  0  3  0  0  0  0  0  0
  188.2860  177.9830  142.4380 C   0  0  1  0  0  3  0  0  0  0  0  0
  189.3990  177.2680  143.1690 C   0  0  0  0  0  2  0  0  0  0  0  0
  188.2420  177.5160  141.0000 C   0  0  0  0  0  2  0  0  0  0  0  0
  188.9790  178.5100  140.1240 C   0  0  0  0  0  2  0  0  0  0  0  0
  190.2440  177.1290  136.8080 C   0  0  0  0  0  3  0  0  0  0  0  0
  191.6650  176.3290  138.5950 C   0  0  0  0  0  3  0  0  0  0  0  0
  190.8930  177.0300  139.5240 C   0  0  0  0  0  3  0  0  0  0  0  0
  189.4660  177.8340  137.7320 C   0  0  0  0  0  0  0  0  0  0  0  0
  189.7950  177.7880  139.1020 C   0  0  0  0  0  0  0  0  0  0  0  0
  188.3020  178.6240  137.2350 C   0  0  0  0  0  1  0  0  0  0  0  0
  191.3410  176.3790  137.2380 C   0  0  0  0  0  3  0  0  0  0  0  0
  185.0860  178.0430  143.8150 C   0  0  0  0  0  2  0  0  0  0  0  0
  184.9210  179.5090  143.4550 C   0  0  0  0  0  2  0  0  0  0  0  0
  185.4160  179.7530  142.1110 N   0  0  0  0  0  2  0  0  0  0  0  0
  184.6400  178.9710  141.2490 N   0  0  0  0  0  2  0  0  0  0  0  0
  184.8920  178.9880  139.8720 C   0  0  0  0  0  0  0  0  0  0  0  0
  185.1010  179.0020  138.7340 N   0  0  0  0  0  0  0  0  0  0  0  0
  1  5  1  0  0  0  0
  2  9  1  0  0  0  0
  2  5  1  0  0  0  0
  3  4  1  0  0  0  0
  3  2  2  0  0  0  0
  4  1  2  0  0  0  0
  5  6  2  0  0  0  0
  6  7  1  0  0  0  0
  8  7  2  0  0  0  0
  9  8  1  0  0  0  0
 10  3  1  1  0  0  0
 11 13  1  6  0  0  0
 11 12  1  0  0  0  0
 11 10  1  0  0  0  0
 12 10  1  0  0  0  0
 14 13  1  0  0  0  0
 15 21  2  0  0  0  0
 15 18  1  0  0  0  0
 16 17  2  0  0  0  0
 18 19  2  0  0  0  0
 19 17  1  0  0  0  0
 19 14  1  0  0  0  0
 20 18  1  0  0  0  0
 21 16  1  0  0  0  0
 22  4  1  0  0  0  0
 23 22  1  0  0  0  0
 24 23  1  0  0  0  0
 25 24  1  0  0  0  0
 26 25  1  0  0  0  0
 27 26  3  0  0  0  0
M  END
>  <MODEL>
7

>  <REMARK>
 VINA RESULT:      -7.9      2.714      6.213
  Name = 
  9 active torsions:
  status: ('A' for Active; 'I' for Inactive)
    1  A    between atoms: C_1  and  N_10
    2  A    between atoms: C_5  and  C_12
    3  A    between atoms: C_5  and  C_19
    4  A    between atoms: C_6  and  N_14
    5  A    between atoms: C_6  and  C_26
    6  A    between atoms: C_8  and  C_15
    7  A    between atoms: N_10  and  N_14
    8  A    between atoms: C_11  and  C_26
    9  A    between atoms: C_12  and  C_20
                            x       y       z     vdW  Elec       q    Type
                         _______ _______ _______ _____ _____    ______ ____

>  <TORSDO>
F 9

$$$$
=
 OpenBabel10222420203D

 27 30  0  0  1  0  0  0  0  0999 V2000
  187.9050  177.6610  146.7640 C   0  0  0  0  0  3  0  0  0  0  0  0
  189.5160  176.8930  145.3350 C   0  0  0  0  0  0  0  0  0  0  0  0
  188.3820  177.0670  144.5820 C   0  0  0  0  0  0  0  0  0  0  0  0
  187.4030  177.5440  145.4610 C   0  0  0  0  0  0  0  0  0  0  0  0
  189.2180  177.2490  146.6830 C   0  0  0  0  0  0  0  0  0  0  0  0
  190.2190  177.1730  147.6350 C   0  0  0  0  0  3  0  0  0  0  0  0
  191.4540  176.7540  147.2250 N   0  0  0  0  0  0  0  0  0  0  0  0
  191.7230  176.4210  145.9210 C   0  0  0  0  0  3  0  0  0  0  0  0
  190.7520  176.4930  144.9600 N   0  0  0  0  0  2  0  0  0  0  0  0
  188.2650  176.9060  143.0970 C   0  0  1  0  0  3  0  0  0  0  0  0
  188.4360  178.2540  142.4170 C   0  0  1  0  0  3  0  0  0  0  0  0
  189.5750  177.2600  142.4160 C   0  0  0  0  0  2  0  0  0  0  0  0
  187.7290  178.2160  141.0800 C   0  0  0  0  0  2  0  0  0  0  0  0
  188.7240  178.5170  139.9750 C   0  0  0  0  0  2  0  0  0  0  0  0
  189.0260  175.9300  137.1970 C   0  0  0  0  0  3  0  0  0  0  0  0
  186.9500  177.1430  136.9300 C   0  0  0  0  0  3  0  0  0  0  0  0
  187.2460  177.9010  138.0650 C   0  0  0  0  0  3  0  0  0  0  0  0
  189.3300  176.6840  138.3350 C   0  0  0  0  0  0  0  0  0  0  0  0
  188.4300  177.6760  138.7760 C   0  0  0  0  0  0  0  0  0  0  0  0
  190.6060  176.4130  139.0580 C   0  0  0  0  0  1  0  0  0  0  0  0
  187.8400  176.1570  136.4960 C   0  0  0  0  0  3  0  0  0  0  0  0
  186.0200  177.9530  145.0710 C   0  0  0  0  0  2  0  0  0  0  0  0
  185.2620  178.5090  146.2640 C   0  0  0  0  0  2  0  0  0  0  0  0
  183.9610  179.0030  145.8440 N   0  0  0  0  0  2  0  0  0  0  0  0
  183.9790  179.0450  144.4460 N   0  0  0  0  0  2  0  0  0  0  0  0
  182.7770  179.0240  143.7300 C   0  0  0  0  0  0  0  0  0  0  0  0
  181.7820  179.0060  143.1380 N   0  0  0  0  0  0  0  0  0  0  0  0
  2  5  1  0  0  0  0
  3  2  2  0  0  0  0
  3  4  1  0  0  0  0
  4  1  2  0  0  0  0
  5  1  1  0  0  0  0
  5  6  2  0  0  0  0
  7  6  1  0  0  0  0
  8  7  2  0  0  0  0
  9  2  1  0  0  0  0
  9  8  1  0  0  0  0
 10  3  1  1  0  0  0
 11 13  1  6  0  0  0
 11 10  1  0  0  0  0
 12 11  1  0  0  0  0
 12 10  1  0  0  0  0
 14 13  1  0  0  0  0
 15 18  1  0  0  0  0
 16 17  2  0  0  0  0
 17 19  1  0  0  0  0
 18 19  2  0  0  0  0
 18 20  1  0  0  0  0
 19 14  1  0  0  0  0
 21 16  1  0  0  0  0
 21 15  2  0  0  0  0
 22  4  1  0  0  0  0
 22 23  1  0  0  0  0
 24 23  1  0  0  0  0
 25 24  1  0  0  0  0
 26 25  1  0  0  0  0
 27 26  3  0  0  0  0
M  END
>  <MODEL>
8

>  <REMARK>
 VINA RESULT:      -7.8      2.603      6.133
  Name = 
  9 active torsions:
  status: ('A' for Active; 'I' for Inactive)
    1  A    between atoms: C_1  and  N_10
    2  A    between atoms: C_5  and  C_12
    3  A    between atoms: C_5  and  C_19
    4  A    between atoms: C_6  and  N_14
    5  A    between atoms: C_6  and  C_26
    6  A    between atoms: C_8  and  C_15
    7  A    between atoms: N_10  and  N_14
    8  A    between atoms: C_11  and  C_26
    9  A    between atoms: C_12  and  C_20
                            x       y       z     vdW  Elec       q    Type
                         _______ _______ _______ _____ _____    ______ ____

>  <TORSDO>
F 9

$$$$
=
 OpenBabel10222420203D

 27 30  0  0  1  0  0  0  0  0999 V2000
  182.1210  178.6270  140.3360 C   0  0  0  0  0  3  0  0  0  0  0  0
  182.1470  178.6910  142.6210 C   0  0  0  0  0  0  0  0  0  0  0  0
  183.4210  178.9950  142.2110 C   0  0  0  0  0  0  0  0  0  0  0  0
  183.3950  178.9620  140.8120 C   0  0  0  0  0  0  0  0  0  0  0  0
  181.3490  178.4520  141.4640 C   0  0  1  0  0  3  0  0  0  0  0  0
  180.0100  178.1420  141.6250 C   0  0  0  0  0  3  0  0  0  0  0  0
  179.5210  178.0790  142.8990 N   0  0  0  0  0  0  0  0  0  0  0  0
  180.3050  178.3180  144.0000 C   0  0  0  0  0  3  0  0  0  0  0  0
  181.6290  178.6310  143.8700 N   0  0  0  0  0  0  0  0  0  0  0  0
  184.5630  179.4110  143.0870 C   0  0  1  0  0  3  0  0  0  0  0  0
  184.9840  178.2490  143.9710 C   0  0  1  0  0  3  0  0  0  0  0  0
  185.8100  178.6080  142.7570 C   0  0  0  0  0  2  0  0  0  0  0  0
  185.6460  178.8010  145.2150 C   0  0  0  0  0  2  0  0  0  0  0  0
  186.1080  177.6530  146.0920 C   0  0  0  0  0  2  0  0  0  0  0  0
  189.8020  177.4950  147.0030 C   0  0  0  0  0  3  0  0  0  0  0  0
  189.5540  177.1240  144.6250 C   0  0  0  0  0  3  0  0  0  0  0  0
  188.1690  177.2540  144.7490 C   0  0  0  0  0  3  0  0  0  0  0  0
  188.4160  177.6270  147.1350 C   0  0  0  0  0  0  0  0  0  0  0  0
  187.5910  177.5010  145.9990 C   0  0  0  0  0  0  0  0  0  0  0  0
  187.8460  177.8950  148.4870 C   0  0  0  0  0  1  0  0  0  0  0  0
  190.3710  177.2440  145.7520 C   0  0  0  0  0  3  0  0  0  0  0  0
  184.5440  179.3070  139.9210 C   0  0  0  0  0  2  0  0  0  0  0  0
  184.6090  178.3650  138.7310 C   0  0  0  0  0  2  0  0  0  0  0  0
  185.8660  178.5400  138.0230 N   0  0  0  0  0  2  0  0  0  0  0  0
  186.8770  178.5290  138.9900 N   0  0  0  0  0  2  0  0  0  0  0  0
  188.0940  177.8910  138.7230 C   0  0  0  0  0  0  0  0  0  0  0  0
  189.1000  177.3640  138.5020 N   0  0  0  0  0  0  0  0  0  0  0  0
  1  4  2  0  0  0  0
  2  9  1  0  0  0  0
  3  2  2  0  0  0  0
  4  3  1  0  0  0  0
  5  1  1  6  0  0  0
  5  6  1  0  0  0  0
  5  2  1  0  0  0  0
  6  7  2  0  0  0  0
  7  8  1  0  0  0  0
  9  8  2  0  0  0  0
 10  3  1  6  0  0  0
 10 11  1  0  0  0  0
 11 13  1  1  0  0  0
 12 10  1  0  0  0  0
 12 11  1  0  0  0  0
 13 14  1  0  0  0  0
 15 18  1  0  0  0  0
 16 17  2  0  0  0  0
 16 21  1  0  0  0  0
 17 19  1  0  0  0  0
 18 20  1  0  0  0  0
 19 14  1  0  0  0  0
 19 18  2  0  0  0  0
 21 15  2  0  0  0  0
 22  4  1  0  0  0  0
 23 22  1  0  0  0  0
 24 23  1  0  0  0  0
 24 25  1  0  0  0  0
 26 25  1  0  0  0  0
 27 26  3  0  0  0  0
M  END
>  <MODEL>
9

>  <REMARK>
 VINA RESULT:      -7.7      2.486      7.225
  Name = 
  9 active torsions:
  status: ('A' for Active; 'I' for Inactive)
    1  A    between atoms: C_1  and  N_10
    2  A    between atoms: C_5  and  C_12
    3  A    between atoms: C_5  and  C_19
    4  A    between atoms: C_6  and  N_14
    5  A    between atoms: C_6  and  C_26
    6  A    between atoms: C_8  and  C_15
    7  A    between atoms: N_10  and  N_14
    8  A    between atoms: C_11  and  C_26
    9  A    between atoms: C_12  and  C_20
                            x       y       z     vdW  Elec       q    Type
                         _______ _______ _______ _____ _____    ______ ____

>  <TORSDO>
F 9

$$$$
