=
 OpenBabel10222419003D

 38 41  0  0  1  0  0  0  0  0999 V2000
  186.0680  178.2700  145.3950 C   0  0  0  0  0  0  0  0  0  0  0  0
  187.0630  177.5810  145.9720 C   0  0  0  0  0  3  0  0  0  0  0  0
  182.0860  178.7820  142.1930 C   0  0  0  0  0  3  0  0  0  0  0  0
  187.0770  177.7520  143.1240 C   0  0  0  0  0  0  0  0  0  0  0  0
  184.4600  178.4070  141.9350 C   0  0  0  0  0  3  0  0  0  0  0  0
  182.2670  178.9610  143.5670 C   0  0  0  0  0  3  0  0  0  0  0  0
  186.0610  178.5710  143.9020 C   0  0  1  0  0  3  0  0  0  0  0  0
  184.9210  178.7150  146.1990 C   0  0  0  0  0  0  0  0  0  0  0  0
  183.5400  178.8550  144.1320 C   0  0  0  0  0  0  0  0  0  0  0  0
  183.6900  179.0210  145.5440 N   0  0  0  0  0  2  0  0  0  0  0  0
  184.6570  178.5600  143.3160 C   0  0  0  0  0  0  0  0  0  0  0  0
  188.2330  177.0780  145.1820 C   0  0  0  0  0  2  0  0  0  0  0  0
  183.1800  178.4960  141.3740 C   0  0  0  0  0  0  0  0  0  0  0  0
  187.3930  178.1070  141.9240 N   0  0  0  0  0  0  0  0  0  0  0  0
  184.9980  178.7940  147.4550 O   0  0  0  0  0  0  0  0  0  0  0  0
  187.7670  176.6040  143.8120 C   0  0  0  0  0  2  0  0  0  0  0  0
  188.3570  177.4050  141.1110 C   0  0  0  0  0  2  0  0  0  0  0  0
  189.7210  178.0640  141.2400 C   0  0  0  0  0  2  0  0  0  0  0  0
  190.8010  177.0060  141.3930 C   0  0  0  0  0  2  0  0  0  0  0  0
  190.9620  178.2260  143.3060 O   0  0  0  0  0  1  0  0  0  0  0  0
  191.5950  177.2620  142.5940 N   0  0  0  0  0  0  0  0  0  0  0  0
  191.6250  176.3600  144.9270 C   0  0  0  0  0  1  0  0  0  0  0  0
  191.6730  176.0580  143.4310 C   0  0  1  0  0  3  0  0  0  0  0  0
  190.6590  175.1620  143.0900 O   0  0  0  0  0  1  0  0  0  0  0  0
  182.9730  178.3290  139.9000 C   0  0  1  0  0  3  0  0  0  0  0  0
  185.0130  177.9880  138.4600 N   0  0  0  0  0  2  0  0  0  0  0  0
  184.2980  180.1310  139.0490 O   0  0  0  0  0  0  0  0  0  0  0  0
  184.1280  178.8840  139.1290 C   0  0  0  0  0  0  0  0  0  0  0  0
  186.1440  178.4640  137.6790 C   0  0  0  0  0  2  0  0  0  0  0  0
  187.3630  177.6020  137.9510 C   0  0  2  0  0  3  0  0  0  0  0  0
  188.6230  178.3140  137.5370 C   0  0  0  0  0  3  0  0  0  0  0  0
  189.7480  176.1530  137.7590 C   0  0  0  0  0  2  0  0  0  0  0  0
  189.7620  177.6210  137.4470 C   0  0  0  0  0  3  0  0  0  0  0  0
  187.2270  176.2600  137.2170 C   0  0  0  0  0  2  0  0  0  0  0  0
  188.5520  175.4780  137.0770 C   0  0  0  0  0  2  0  0  0  0  0  0
  182.7680  176.9820  139.5770 O   0  0  0  0  0  0  0  0  0  0  0  0
  180.6420  176.7250  139.3750 C   0  0  0  0  0  1  0  0  0  0  0  0
  181.8150  176.9910  138.6670 O   0  0  0  0  0  0  0  0  0  0  0  0
  1  2  2  0  0  0  0
  1  8  1  0  0  0  0
  3  6  1  0  0  0  0
  4 16  1  0  0  0  0
  5 11  2  0  0  0  0
  6  9  2  0  0  0  0
  7  4  1  6  0  0  0
  7  1  1  0  0  0  0
  8 15  2  0  0  0  0
  9 10  1  0  0  0  0
 10  8  1  0  0  0  0
 11  7  1  0  0  0  0
 11  9  1  0  0  0  0
 12  2  1  0  0  0  0
 13  5  1  0  0  0  0
 13  3  2  0  0  0  0
 14  4  2  0  0  0  0
 16 12  1  0  0  0  0
 17 18  1  0  0  0  0
 17 14  1  0  0  0  0
 18 19  1  0  0  0  0
 19 21  1  0  0  0  0
 21 20  1  0  0  0  0
 21 23  1  0  0  0  0
 23 22  1  1  0  0  0
 24 23  1  0  0  0  0
 25 28  1  6  0  0  0
 25 13  1  0  0  0  0
 26 28  1  0  0  0  0
 27 28  2  0  0  0  0
 29 26  1  0  0  0  0
 30 29  1  6  0  0  0
 31 30  1  0  0  0  0
 33 31  2  0  0  0  0
 33 32  1  0  0  0  0
 34 30  1  0  0  0  0
 35 34  1  0  0  0  0
 35 32  1  0  0  0  0
 36 25  1  0  0  0  0
 38 37  1  0  0  0  0
 38 36  1  0  0  0  0
M  END
>  <MODEL>
1

>  <REMARK>
 VINA RESULT:      -9.1      0.000      0.000
  Name = 
  11 active torsions:
  status: ('A' for Active; 'I' for Inactive)
    1  A    between atoms: C_1  and  C_38
    2  A    between atoms: C_5  and  C_16
    3  A    between atoms: C_5  and  N_33
    4  A    between atoms: C_8  and  C_16
    5  A    between atoms: C_8  and  N_31
    6  A    between atoms: N_12  and  C_38
    7  A    between atoms: C_20  and  C_32
    8  A    between atoms: C_22  and  N_33
    9  A    between atoms: O_25  and  O_28
   10  A    between atoms: O_25  and  C_32
   11  A    between atoms: C_30  and  C_32
                            x       y       z     vdW  Elec       q    Type
                         _______ _______ _______ _____ _____    ______ ____

>  <TORSDO>
F 11

$$$$
=
 OpenBabel10222419003D

 38 41  0  0  1  0  0  0  0  0999 V2000
  189.7300  177.1610  146.7860 C   0  0  0  0  0  0  0  0  0  0  0  0
  189.3980  177.5090  148.0370 C   0  0  0  0  0  3  0  0  0  0  0  0
  190.3400  178.0750  141.7700 C   0  0  0  0  0  3  0  0  0  0  0  0
  187.3980  177.8140  146.0260 C   0  0  0  0  0  0  0  0  0  0  0  0
  188.4540  177.9570  143.2770 C   0  0  0  0  0  3  0  0  0  0  0  0
  191.1820  177.6360  142.7940 C   0  0  0  0  0  3  0  0  0  0  0  0
  188.7010  177.1210  145.6640 C   0  0  1  0  0  3  0  0  0  0  0  0
  191.1290  176.8530  146.4570 C   0  0  0  0  0  0  0  0  0  0  0  0
  190.6680  177.3640  144.0640 C   0  0  0  0  0  0  0  0  0  0  0  0
  191.5590  176.9370  145.0980 N   0  0  0  0  0  2  0  0  0  0  0  0
  189.2890  177.5370  144.3240 C   0  0  0  0  0  0  0  0  0  0  0  0
  187.9910  177.8660  148.4080 C   0  0  0  0  0  2  0  0  0  0  0  0
  188.9750  178.2450  142.0100 C   0  0  0  0  0  0  0  0  0  0  0  0
  186.3470  177.6020  145.3080 N   0  0  0  0  0  0  0  0  0  0  0  0
  191.9580  176.5510  147.3570 O   0  0  0  0  0  0  0  0  0  0  0  0
  187.3420  178.6520  147.2760 C   0  0  0  0  0  2  0  0  0  0  0  0
  185.0610  178.1990  145.5790 C   0  0  0  0  0  2  0  0  0  0  0  0
  184.4940  178.8100  144.3070 C   0  0  0  0  0  2  0  0  0  0  0  0
  182.9760  178.7850  144.3440 C   0  0  0  0  0  2  0  0  0  0  0  0
  182.9850  178.7040  142.0710 O   0  0  0  0  0  1  0  0  0  0  0  0
  182.4280  179.3620  143.1170 N   0  0  0  0  0  0  0  0  0  0  0  0
  180.4100  178.4500  144.2810 C   0  0  0  0  0  1  0  0  0  0  0  0
  180.9750  179.1650  143.0550 C   0  0  1  0  0  3  0  0  0  0  0  0
  180.3260  180.3870  142.8700 O   0  0  0  0  0  1  0  0  0  0  0  0
  188.0820  178.6960  140.8950 C   0  0  1  0  0  3  0  0  0  0  0  0
  188.6410  176.9010  139.2160 N   0  0  0  0  0  2  0  0  0  0  0  0
  189.0510  179.1530  138.7560 O   0  0  0  0  0  0  0  0  0  0  0  0
  188.6300  178.2830  139.5660 C   0  0  0  0  0  0  0  0  0  0  0  0
  189.1450  176.4360  137.9330 C   0  0  0  0  0  2  0  0  0  0  0  0
  190.4510  175.6900  138.1260 C   0  0  2  0  0  3  0  0  0  0  0  0
  191.6250  176.6190  137.9710 C   0  0  0  0  0  3  0  0  0  0  0  0
  193.0180  174.6120  137.8460 C   0  0  0  0  0  2  0  0  0  0  0  0
  192.8500  176.1040  137.8390 C   0  0  0  0  0  3  0  0  0  0  0  0
  190.5410  174.5270  137.1270 C   0  0  0  0  0  2  0  0  0  0  0  0
  191.9640  173.9570  136.9440 C   0  0  0  0  0  2  0  0  0  0  0  0
  186.7840  178.1980  141.0670 O   0  0  0  0  0  0  0  0  0  0  0  0
  185.2440  178.6520  139.6340 C   0  0  0  0  0  1  0  0  0  0  0  0
  185.9900  179.1800  140.6900 O   0  0  0  0  0  0  0  0  0  0  0  0
  1  2  2  0  0  0  0
  2 12  1  0  0  0  0
  3 13  2  0  0  0  0
  3  6  1  0  0  0  0
  4 16  1  0  0  0  0
  5 11  2  0  0  0  0
  6  9  2  0  0  0  0
  7 11  1  6  0  0  0
  7  4  1  0  0  0  0
  7  1  1  0  0  0  0
  8  1  1  0  0  0  0
  8 15  2  0  0  0  0
  9 11  1  0  0  0  0
  9 10  1  0  0  0  0
 10  8  1  0  0  0  0
 13  5  1  0  0  0  0
 14 17  1  0  0  0  0
 14  4  2  0  0  0  0
 16 12  1  0  0  0  0
 18 19  1  0  0  0  0
 18 17  1  0  0  0  0
 20 21  1  0  0  0  0
 21 19  1  0  0  0  0
 23 21  1  0  0  0  0
 23 22  1  1  0  0  0
 24 23  1  0  0  0  0
 25 28  1  6  0  0  0
 25 36  1  0  0  0  0
 25 13  1  0  0  0  0
 26 28  1  0  0  0  0
 27 28  2  0  0  0  0
 29 26  1  0  0  0  0
 30 29  1  6  0  0  0
 31 30  1  0  0  0  0
 33 32  1  0  0  0  0
 33 31  2  0  0  0  0
 34 30  1  0  0  0  0
 35 34  1  0  0  0  0
 35 32  1  0  0  0  0
 37 38  1  0  0  0  0
 38 36  1  0  0  0  0
M  END
>  <MODEL>
2

>  <REMARK>
 VINA RESULT:      -8.8      2.468      6.204
  Name = 
  11 active torsions:
  status: ('A' for Active; 'I' for Inactive)
    1  A    between atoms: C_1  and  C_38
    2  A    between atoms: C_5  and  C_16
    3  A    between atoms: C_5  and  N_33
    4  A    between atoms: C_8  and  C_16
    5  A    between atoms: C_8  and  N_31
    6  A    between atoms: N_12  and  C_38
    7  A    between atoms: C_20  and  C_32
    8  A    between atoms: C_22  and  N_33
    9  A    between atoms: O_25  and  O_28
   10  A    between atoms: O_25  and  C_32
   11  A    between atoms: C_30  and  C_32
                            x       y       z     vdW  Elec       q    Type
                         _______ _______ _______ _____ _____    ______ ____

>  <TORSDO>
F 11

$$$$
=
 OpenBabel10222419003D

 38 41  0  0  1  0  0  0  0  0999 V2000
  185.8830  178.2360  145.1950 C   0  0  0  0  0  0  0  0  0  0  0  0
  186.8820  177.5350  145.7490 C   0  0  0  0  0  3  0  0  0  0  0  0
  181.9200  178.8360  141.9840 C   0  0  0  0  0  3  0  0  0  0  0  0
  186.9170  177.8330  142.9120 C   0  0  0  0  0  0  0  0  0  0  0  0
  184.3020  178.5050  141.7300 C   0  0  0  0  0  3  0  0  0  0  0  0
  182.0880  178.9560  143.3660 C   0  0  0  0  0  3  0  0  0  0  0  0
  185.8830  178.6030  143.7170 C   0  0  1  0  0  3  0  0  0  0  0  0
  184.7230  178.6280  146.0080 C   0  0  0  0  0  0  0  0  0  0  0  0
  183.3570  178.8410  143.9370 C   0  0  0  0  0  0  0  0  0  0  0  0
  183.4940  178.9470  145.3570 N   0  0  0  0  0  2  0  0  0  0  0  0
  184.4850  178.5990  143.1180 C   0  0  0  0  0  0  0  0  0  0  0  0
  188.0660  177.0840  144.9480 C   0  0  0  0  0  2  0  0  0  0  0  0
  183.0250  178.6020  141.1630 C   0  0  0  0  0  0  0  0  0  0  0  0
  187.2380  178.2470  141.7320 N   0  0  0  0  0  0  0  0  0  0  0  0
  184.7880  178.6520  147.2660 O   0  0  0  0  0  0  0  0  0  0  0  0
  187.6190  176.6650  143.5550 C   0  0  0  0  0  2  0  0  0  0  0  0
  188.2190  177.5950  140.8970 C   0  0  0  0  0  2  0  0  0  0  0  0
  189.5980  178.1760  141.1660 C   0  0  0  0  0  2  0  0  0  0  0  0
  190.6200  177.0600  141.3020 C   0  0  0  0  0  2  0  0  0  0  0  0
  190.9710  178.3420  143.1480 O   0  0  0  0  0  1  0  0  0  0  0  0
  191.5030  177.3160  142.4390 N   0  0  0  0  0  0  0  0  0  0  0  0
  191.4990  176.4970  144.8020 C   0  0  0  0  0  1  0  0  0  0  0  0
  191.5700  176.1430  143.3180 C   0  0  1  0  0  3  0  0  0  0  0  0
  190.5630  175.2330  142.9930 O   0  0  0  0  0  1  0  0  0  0  0  0
  182.8330  178.4980  139.6810 C   0  0  1  0  0  3  0  0  0  0  0  0
  181.6610  180.6550  139.1090 N   0  0  0  0  0  2  0  0  0  0  0  0
  180.5500  178.6060  138.9740 O   0  0  0  0  0  0  0  0  0  0  0  0
  181.6080  179.2370  139.2450 C   0  0  0  0  0  0  0  0  0  0  0  0
  180.5090  181.4300  138.6730 C   0  0  0  0  0  2  0  0  0  0  0  0
  180.9290  182.4340  137.6160 C   0  0  2  0  0  3  0  0  0  0  0  0
  180.2450  183.7570  137.8350 C   0  0  0  0  0  3  0  0  0  0  0  0
  180.9890  184.3560  135.5840 C   0  0  0  0  0  2  0  0  0  0  0  0
  180.2760  184.6750  136.8650 C   0  0  0  0  0  3  0  0  0  0  0  0
  180.6140  181.8830  136.2170 C   0  0  0  0  0  2  0  0  0  0  0  0
  180.6100  182.9500  135.1020 C   0  0  0  0  0  2  0  0  0  0  0  0
  183.9610  178.9720  138.9990 O   0  0  0  0  0  0  0  0  0  0  0  0
  185.7230  178.1490  138.0810 C   0  0  0  0  0  1  0  0  0  0  0  0
  184.3480  177.9670  138.2410 O   0  0  0  0  0  0  0  0  0  0  0  0
  1  2  2  0  0  0  0
  1  8  1  0  0  0  0
  3  6  1  0  0  0  0
  4 16  1  0  0  0  0
  5 11  2  0  0  0  0
  6  9  2  0  0  0  0
  7  4  1  6  0  0  0
  7  1  1  0  0  0  0
  8 15  2  0  0  0  0
  9 10  1  0  0  0  0
 10  8  1  0  0  0  0
 11  7  1  0  0  0  0
 11  9  1  0  0  0  0
 12  2  1  0  0  0  0
 13  5  1  0  0  0  0
 13  3  2  0  0  0  0
 14  4  2  0  0  0  0
 16 12  1  0  0  0  0
 17 18  1  0  0  0  0
 17 14  1  0  0  0  0
 18 19  1  0  0  0  0
 19 21  1  0  0  0  0
 21 20  1  0  0  0  0
 21 23  1  0  0  0  0
 23 22  1  1  0  0  0
 24 23  1  0  0  0  0
 25 36  1  6  0  0  0
 25 13  1  0  0  0  0
 26 28  1  0  0  0  0
 27 28  2  0  0  0  0
 28 25  1  0  0  0  0
 29 26  1  0  0  0  0
 30 31  1  0  0  0  0
 30 29  1  1  0  0  0
 32 33  1  0  0  0  0
 33 31  2  0  0  0  0
 34 30  1  0  0  0  0
 35 32  1  0  0  0  0
 35 34  1  0  0  0  0
 37 38  1  0  0  0  0
 38 36  1  0  0  0  0
M  END
>  <MODEL>
3

>  <REMARK>
 VINA RESULT:      -8.7      2.804      4.532
  Name = 
  11 active torsions:
  status: ('A' for Active; 'I' for Inactive)
    1  A    between atoms: C_1  and  C_38
    2  A    between atoms: C_5  and  C_16
    3  A    between atoms: C_5  and  N_33
    4  A    between atoms: C_8  and  C_16
    5  A    between atoms: C_8  and  N_31
    6  A    between atoms: N_12  and  C_38
    7  A    between atoms: C_20  and  C_32
    8  A    between atoms: C_22  and  N_33
    9  A    between atoms: O_25  and  O_28
   10  A    between atoms: O_25  and  C_32
   11  A    between atoms: C_30  and  C_32
                            x       y       z     vdW  Elec       q    Type
                         _______ _______ _______ _____ _____    ______ ____

>  <TORSDO>
F 11

$$$$
=
 OpenBabel10222419003D

 38 41  0  0  1  0  0  0  0  0999 V2000
  186.1280  178.2440  145.3220 C   0  0  0  0  0  0  0  0  0  0  0  0
  187.1420  177.5560  145.8660 C   0  0  0  0  0  3  0  0  0  0  0  0
  182.0840  178.7700  142.2010 C   0  0  0  0  0  3  0  0  0  0  0  0
  187.1040  177.7930  143.0230 C   0  0  0  0  0  0  0  0  0  0  0  0
  184.4580  178.4370  141.8940 C   0  0  0  0  0  3  0  0  0  0  0  0
  182.2860  178.9200  143.5750 C   0  0  0  0  0  3  0  0  0  0  0  0
  186.0900  178.5790  143.8370 C   0  0  1  0  0  3  0  0  0  0  0  0
  184.9880  178.6520  146.1560 C   0  0  0  0  0  0  0  0  0  0  0  0
  183.5700  178.8190  144.1160 C   0  0  0  0  0  0  0  0  0  0  0  0
  183.7420  178.9550  145.5290 N   0  0  0  0  0  2  0  0  0  0  0  0
  184.6770  178.5600  143.2750 C   0  0  0  0  0  0  0  0  0  0  0  0
  188.3060  177.0890  145.0450 C   0  0  0  0  0  2  0  0  0  0  0  0
  183.1680  178.5200  141.3570 C   0  0  0  0  0  0  0  0  0  0  0  0
  187.3940  178.1810  141.8260 N   0  0  0  0  0  0  0  0  0  0  0  0
  185.0850  178.7040  147.4120 O   0  0  0  0  0  0  0  0  0  0  0  0
  187.8240  176.6400  143.6730 C   0  0  0  0  0  2  0  0  0  0  0  0
  188.3550  177.5130  140.9810 C   0  0  0  0  0  2  0  0  0  0  0  0
  188.6940  178.3910  139.7870 C   0  0  0  0  0  2  0  0  0  0  0  0
  189.8480  177.7870  139.0040 C   0  0  0  0  0  2  0  0  0  0  0  0
  191.0270  175.8420  139.0430 O   0  0  0  0  0  1  0  0  0  0  0  0
  190.5950  176.8500  139.8410 N   0  0  0  0  0  0  0  0  0  0  0  0
  191.9110  177.2660  141.9270 C   0  0  0  0  0  1  0  0  0  0  0  0
  191.7730  177.5020  140.4250 C   0  0  1  0  0  3  0  0  0  0  0  0
  192.9330  177.0920  139.7660 O   0  0  0  0  0  1  0  0  0  0  0  0
  182.9380  178.3840  139.8840 C   0  0  1  0  0  3  0  0  0  0  0  0
  184.9080  177.9870  138.3630 N   0  0  0  0  0  2  0  0  0  0  0  0
  184.3600  180.1360  139.0900 O   0  0  0  0  0  0  0  0  0  0  0  0
  184.1060  178.9010  139.1070 C   0  0  0  0  0  0  0  0  0  0  0  0
  186.0480  178.4280  137.5740 C   0  0  0  0  0  2  0  0  0  0  0  0
  186.4810  177.3270  136.6240 C   0  0  2  0  0  3  0  0  0  0  0  0
  186.9430  176.1150  137.3880 C   0  0  0  0  0  3  0  0  0  0  0  0
  187.8790  175.3140  135.2740 C   0  0  0  0  0  2  0  0  0  0  0  0
  187.6090  175.1530  136.7420 C   0  0  0  0  0  3  0  0  0  0  0  0
  187.5920  177.8440  135.6970 C   0  0  0  0  0  2  0  0  0  0  0  0
  188.3880  176.7310  134.9810 C   0  0  0  0  0  2  0  0  0  0  0  0
  182.6730  177.0510  139.5430 O   0  0  0  0  0  0  0  0  0  0  0  0
  180.9270  175.7950  139.5560 C   0  0  0  0  0  1  0  0  0  0  0  0
  181.4140  177.0420  139.1560 O   0  0  0  0  0  0  0  0  0  0  0  0
  1  2  2  0  0  0  0
  1  8  1  0  0  0  0
  3  6  1  0  0  0  0
  4 16  1  0  0  0  0
  5 11  2  0  0  0  0
  6  9  2  0  0  0  0
  7  4  1  6  0  0  0
  7  1  1  0  0  0  0
  8 15  2  0  0  0  0
  9 10  1  0  0  0  0
 10  8  1  0  0  0  0
 11  7  1  0  0  0  0
 11  9  1  0  0  0  0
 12  2  1  0  0  0  0
 13  5  1  0  0  0  0
 13  3  2  0  0  0  0
 14  4  2  0  0  0  0
 16 12  1  0  0  0  0
 17 14  1  0  0  0  0
 18 17  1  0  0  0  0
 19 18  1  0  0  0  0
 19 21  1  0  0  0  0
 20 21  1  0  0  0  0
 21 23  1  0  0  0  0
 23 22  1  1  0  0  0
 24 23  1  0  0  0  0
 25 28  1  6  0  0  0
 25 13  1  0  0  0  0
 26 28  1  0  0  0  0
 27 28  2  0  0  0  0
 29 26  1  0  0  0  0
 30 31  1  0  0  0  0
 30 29  1  1  0  0  0
 32 33  1  0  0  0  0
 33 31  2  0  0  0  0
 34 30  1  0  0  0  0
 35 32  1  0  0  0  0
 35 34  1  0  0  0  0
 36 25  1  0  0  0  0
 38 36  1  0  0  0  0
 38 37  1  0  0  0  0
M  END
>  <MODEL>
4

>  <REMARK>
 VINA RESULT:      -8.7      1.423      1.839
  Name = 
  11 active torsions:
  status: ('A' for Active; 'I' for Inactive)
    1  A    between atoms: C_1  and  C_38
    2  A    between atoms: C_5  and  C_16
    3  A    between atoms: C_5  and  N_33
    4  A    between atoms: C_8  and  C_16
    5  A    between atoms: C_8  and  N_31
    6  A    between atoms: N_12  and  C_38
    7  A    between atoms: C_20  and  C_32
    8  A    between atoms: C_22  and  N_33
    9  A    between atoms: O_25  and  O_28
   10  A    between atoms: O_25  and  C_32
   11  A    between atoms: C_30  and  C_32
                            x       y       z     vdW  Elec       q    Type
                         _______ _______ _______ _____ _____    ______ ____

>  <TORSDO>
F 11

$$$$
=
 OpenBabel10222419003D

 38 41  0  0  1  0  0  0  0  0999 V2000
  186.1500  178.2560  145.2640 C   0  0  0  0  0  0  0  0  0  0  0  0
  187.1560  177.5500  145.8000 C   0  0  0  0  0  3  0  0  0  0  0  0
  182.1420  178.8820  142.1150 C   0  0  0  0  0  3  0  0  0  0  0  0
  187.1490  177.8610  142.9640 C   0  0  0  0  0  0  0  0  0  0  0  0
  184.5180  178.5460  141.8240 C   0  0  0  0  0  3  0  0  0  0  0  0
  182.3300  178.9950  143.4950 C   0  0  0  0  0  3  0  0  0  0  0  0
  186.1300  178.6300  143.7870 C   0  0  1  0  0  3  0  0  0  0  0  0
  185.0040  178.6490  146.0960 C   0  0  0  0  0  0  0  0  0  0  0  0
  183.6080  178.8750  144.0460 C   0  0  0  0  0  0  0  0  0  0  0  0
  183.7660  178.9730  145.4640 N   0  0  0  0  0  2  0  0  0  0  0  0
  184.7230  178.6330  143.2100 C   0  0  0  0  0  0  0  0  0  0  0  0
  188.3260  177.1000  144.9800 C   0  0  0  0  0  2  0  0  0  0  0  0
  183.2340  178.6480  141.2770 C   0  0  0  0  0  0  0  0  0  0  0  0
  187.4540  178.2790  141.7810 N   0  0  0  0  0  0  0  0  0  0  0  0
  185.0880  178.6670  147.3530 O   0  0  0  0  0  0  0  0  0  0  0  0
  187.8570  176.6880  143.5910 C   0  0  0  0  0  2  0  0  0  0  0  0
  188.4200  177.6280  140.9280 C   0  0  0  0  0  2  0  0  0  0  0  0
  188.6150  178.4360  139.6550 C   0  0  0  0  0  2  0  0  0  0  0  0
  187.4490  178.2120  138.7080 C   0  0  0  0  0  2  0  0  0  0  0  0
  188.9030  179.4760  137.4990 O   0  0  0  0  0  1  0  0  0  0  0  0
  187.7490  178.7720  137.3910 N   0  0  0  0  0  0  0  0  0  0  0  0
  187.1290  177.8760  135.1400 C   0  0  0  0  0  1  0  0  0  0  0  0
  187.9610  177.7030  136.4090 C   0  0  1  0  0  3  0  0  0  0  0  0
  189.3140  177.6000  136.0850 O   0  0  0  0  0  1  0  0  0  0  0  0
  183.0190  178.5520  139.7980 C   0  0  1  0  0  3  0  0  0  0  0  0
  181.9090  180.6440  138.9340 N   0  0  0  0  0  2  0  0  0  0  0  0
  184.2260  180.3780  138.8330 O   0  0  0  0  0  0  0  0  0  0  0  0
  183.1040  179.8980  139.1520 C   0  0  0  0  0  0  0  0  0  0  0  0
  181.9260  181.9660  138.3270 C   0  0  0  0  0  2  0  0  0  0  0  0
  180.7350  182.1280  137.4010 C   0  0  2  0  0  3  0  0  0  0  0  0
  180.8070  181.1460  136.2630 C   0  0  0  0  0  3  0  0  0  0  0  0
  179.0550  182.4760  135.1910 C   0  0  0  0  0  2  0  0  0  0  0  0
  180.0020  181.3120  135.2090 C   0  0  0  0  0  3  0  0  0  0  0  0
  180.6770  183.5700  136.8740 C   0  0  0  0  0  2  0  0  0  0  0  0
  179.7790  183.7550  135.6320 C   0  0  0  0  0  2  0  0  0  0  0  0
  183.9400  177.6700  139.2180 O   0  0  0  0  0  0  0  0  0  0  0  0
  184.3060  176.4980  137.4520 C   0  0  0  0  0  1  0  0  0  0  0  0
  183.3110  177.1520  138.1830 O   0  0  0  0  0  0  0  0  0  0  0  0
  1  2  2  0  0  0  0
  1  8  1  0  0  0  0
  3  6  1  0  0  0  0
  4 16  1  0  0  0  0
  5 11  2  0  0  0  0
  6  9  2  0  0  0  0
  7  4  1  6  0  0  0
  7  1  1  0  0  0  0
  8 15  2  0  0  0  0
  9 10  1  0  0  0  0
 10  8  1  0  0  0  0
 11  7  1  0  0  0  0
 11  9  1  0  0  0  0
 12  2  1  0  0  0  0
 13  5  1  0  0  0  0
 13  3  2  0  0  0  0
 14  4  2  0  0  0  0
 16 12  1  0  0  0  0
 17 14  1  0  0  0  0
 18 17  1  0  0  0  0
 19 18  1  0  0  0  0
 21 20  1  0  0  0  0
 21 19  1  0  0  0  0
 23 22  1  6  0  0  0
 23 21  1  0  0  0  0
 24 23  1  0  0  0  0
 25 28  1  6  0  0  0
 25 13  1  0  0  0  0
 26 28  1  0  0  0  0
 27 28  2  0  0  0  0
 29 26  1  0  0  0  0
 30 29  1  1  0  0  0
 31 30  1  0  0  0  0
 32 33  1  0  0  0  0
 32 35  1  0  0  0  0
 33 31  2  0  0  0  0
 34 30  1  0  0  0  0
 35 34  1  0  0  0  0
 36 25  1  0  0  0  0
 37 38  1  0  0  0  0
 38 36  1  0  0  0  0
M  END
>  <MODEL>
5

>  <REMARK>
 VINA RESULT:      -8.6      3.111      5.318
  Name = 
  11 active torsions:
  status: ('A' for Active; 'I' for Inactive)
    1  A    between atoms: C_1  and  C_38
    2  A    between atoms: C_5  and  C_16
    3  A    between atoms: C_5  and  N_33
    4  A    between atoms: C_8  and  C_16
    5  A    between atoms: C_8  and  N_31
    6  A    between atoms: N_12  and  C_38
    7  A    between atoms: C_20  and  C_32
    8  A    between atoms: C_22  and  N_33
    9  A    between atoms: O_25  and  O_28
   10  A    between atoms: O_25  and  C_32
   11  A    between atoms: C_30  and  C_32
                            x       y       z     vdW  Elec       q    Type
                         _______ _______ _______ _____ _____    ______ ____

>  <TORSDO>
F 11

$$$$
=
 OpenBabel10222419003D

 38 41  0  0  1  0  0  0  0  0999 V2000
  186.0970  178.2530  145.3060 C   0  0  0  0  0  0  0  0  0  0  0  0
  187.0810  177.5580  145.8930 C   0  0  0  0  0  3  0  0  0  0  0  0
  182.2320  178.8270  141.9730 C   0  0  0  0  0  3  0  0  0  0  0  0
  187.2020  177.8460  143.0570 C   0  0  0  0  0  0  0  0  0  0  0  0
  184.6210  178.5040  141.7930 C   0  0  0  0  0  3  0  0  0  0  0  0
  182.3570  178.9530  143.3580 C   0  0  0  0  0  3  0  0  0  0  0  0
  186.1410  178.6150  143.8270 C   0  0  1  0  0  3  0  0  0  0  0  0
  184.9110  178.6450  146.0810 C   0  0  0  0  0  0  0  0  0  0  0  0
  183.6090  178.8450  143.9690 C   0  0  0  0  0  0  0  0  0  0  0  0
  183.7010  178.9560  145.3910 N   0  0  0  0  0  2  0  0  0  0  0  0
  184.7620  178.6030  143.1860 C   0  0  0  0  0  0  0  0  0  0  0  0
  188.2900  177.1080  145.1310 C   0  0  0  0  0  2  0  0  0  0  0  0
  183.3620  178.5940  141.1870 C   0  0  0  0  0  0  0  0  0  0  0  0
  187.5570  178.2560  141.8860 N   0  0  0  0  0  0  0  0  0  0  0  0
  184.9380  178.6740  147.3410 O   0  0  0  0  0  0  0  0  0  0  0  0
  187.8870  176.6830  143.7260 C   0  0  0  0  0  2  0  0  0  0  0  0
  188.5660  177.6040  141.0840 C   0  0  0  0  0  2  0  0  0  0  0  0
  188.6360  178.2540  139.7120 C   0  0  0  0  0  2  0  0  0  0  0  0
  188.3030  177.2380  138.6320 C   0  0  0  0  0  2  0  0  0  0  0  0
  186.4950  178.6180  138.5700 O   0  0  0  0  0  1  0  0  0  0  0  0
  187.1680  177.7000  137.8330 N   0  0  0  0  0  0  0  0  0  0  0  0
  186.8860  177.8950  135.3560 C   0  0  0  0  0  1  0  0  0  0  0  0
  187.6320  178.3570  136.6050 C   0  0  1  0  0  3  0  0  0  0  0  0
  187.5440  179.7440  136.7320 O   0  0  0  0  0  1  0  0  0  0  0  0
  183.2160  178.4840  139.7000 C   0  0  1  0  0  3  0  0  0  0  0  0
  182.8660  176.7460  137.9080 N   0  0  0  0  0  2  0  0  0  0  0  0
  182.6800  176.2000  140.1710 O   0  0  0  0  0  0  0  0  0  0  0  0
  182.8950  177.0810  139.2940 C   0  0  0  0  0  0  0  0  0  0  0  0
  182.5760  175.3960  137.4490 C   0  0  0  0  0  2  0  0  0  0  0  0
  183.7940  174.5110  137.6340 C   0  0  2  0  0  3  0  0  0  0  0  0
  184.9970  175.1100  136.9560 C   0  0  0  0  0  3  0  0  0  0  0  0
  186.0750  172.9350  137.2580 C   0  0  0  0  0  2  0  0  0  0  0  0
  186.0870  174.3570  136.7790 C   0  0  0  0  0  3  0  0  0  0  0  0
  183.5050  173.1040  137.0890 C   0  0  0  0  0  2  0  0  0  0  0  0
  184.7660  172.2480  136.8460 C   0  0  0  0  0  2  0  0  0  0  0  0
  182.2350  179.3670  139.2310 O   0  0  0  0  0  0  0  0  0  0  0  0
  181.9230  181.3200  138.3850 C   0  0  0  0  0  1  0  0  0  0  0  0
  182.9040  180.4010  138.7630 O   0  0  0  0  0  0  0  0  0  0  0  0
  1  2  2  0  0  0  0
  1  8  1  0  0  0  0
  3  6  1  0  0  0  0
  4 16  1  0  0  0  0
  5 11  2  0  0  0  0
  6  9  2  0  0  0  0
  7  4  1  6  0  0  0
  7  1  1  0  0  0  0
  8 15  2  0  0  0  0
  9 10  1  0  0  0  0
 10  8  1  0  0  0  0
 11  7  1  0  0  0  0
 11  9  1  0  0  0  0
 12  2  1  0  0  0  0
 13  5  1  0  0  0  0
 13  3  2  0  0  0  0
 14  4  2  0  0  0  0
 16 12  1  0  0  0  0
 17 14  1  0  0  0  0
 18 17  1  0  0  0  0
 19 18  1  0  0  0  0
 21 20  1  0  0  0  0
 21 19  1  0  0  0  0
 23 22  1  6  0  0  0
 23 24  1  0  0  0  0
 23 21  1  0  0  0  0
 25 36  1  1  0  0  0
 25 13  1  0  0  0  0
 26 28  1  0  0  0  0
 28 25  1  0  0  0  0
 28 27  2  0  0  0  0
 29 26  1  0  0  0  0
 30 29  1  6  0  0  0
 31 30  1  0  0  0  0
 33 31  2  0  0  0  0
 33 32  1  0  0  0  0
 34 30  1  0  0  0  0
 35 34  1  0  0  0  0
 35 32  1  0  0  0  0
 37 38  1  0  0  0  0
 38 36  1  0  0  0  0
M  END
>  <MODEL>
6

>  <REMARK>
 VINA RESULT:      -8.4      2.217      3.967
  Name = 
  11 active torsions:
  status: ('A' for Active; 'I' for Inactive)
    1  A    between atoms: C_1  and  C_38
    2  A    between atoms: C_5  and  C_16
    3  A    between atoms: C_5  and  N_33
    4  A    between atoms: C_8  and  C_16
    5  A    between atoms: C_8  and  N_31
    6  A    between atoms: N_12  and  C_38
    7  A    between atoms: C_20  and  C_32
    8  A    between atoms: C_22  and  N_33
    9  A    between atoms: O_25  and  O_28
   10  A    between atoms: O_25  and  C_32
   11  A    between atoms: C_30  and  C_32
                            x       y       z     vdW  Elec       q    Type
                         _______ _______ _______ _____ _____    ______ ____

>  <TORSDO>
F 11

$$$$
=
 OpenBabel10222419003D

 38 41  0  0  1  0  0  0  0  0999 V2000
  186.0450  178.2590  145.2530 C   0  0  0  0  0  0  0  0  0  0  0  0
  187.0550  177.5530  145.7830 C   0  0  0  0  0  3  0  0  0  0  0  0
  182.0440  178.8940  142.0970 C   0  0  0  0  0  3  0  0  0  0  0  0
  187.0560  177.9040  142.9510 C   0  0  0  0  0  0  0  0  0  0  0  0
  184.4240  178.5820  141.8110 C   0  0  0  0  0  3  0  0  0  0  0  0
  182.2260  178.9900  143.4790 C   0  0  0  0  0  3  0  0  0  0  0  0
  186.0270  178.6530  143.7810 C   0  0  1  0  0  3  0  0  0  0  0  0
  184.8920  178.6290  146.0850 C   0  0  0  0  0  0  0  0  0  0  0  0
  183.5020  178.8720  144.0340 C   0  0  0  0  0  0  0  0  0  0  0  0
  183.6540  178.9530  145.4540 N   0  0  0  0  0  2  0  0  0  0  0  0
  184.6220  178.6510  143.1990 C   0  0  0  0  0  0  0  0  0  0  0  0
  188.2320  177.1240  144.9610 C   0  0  0  0  0  2  0  0  0  0  0  0
  183.1410  178.6820  141.2600 C   0  0  0  0  0  0  0  0  0  0  0  0
  187.3620  178.3400  141.7750 N   0  0  0  0  0  0  0  0  0  0  0  0
  184.9710  178.6310  147.3430 O   0  0  0  0  0  0  0  0  0  0  0  0
  187.7710  176.7280  143.5650 C   0  0  0  0  0  2  0  0  0  0  0  0
  188.3370  177.7100  140.9180 C   0  0  0  0  0  2  0  0  0  0  0  0
  188.1030  178.1240  139.4740 C   0  0  0  0  0  2  0  0  0  0  0  0
  189.4300  178.2630  138.7470 C   0  0  0  0  0  2  0  0  0  0  0  0
  189.6490  177.4540  136.6320 O   0  0  0  0  0  1  0  0  0  0  0  0
  189.6900  177.0760  137.9340 N   0  0  0  0  0  0  0  0  0  0  0  0
  191.6700  177.1360  139.4620 C   0  0  0  0  0  1  0  0  0  0  0  0
  191.0290  176.5430  138.2090 C   0  0  1  0  0  3  0  0  0  0  0  0
  190.9890  175.1510  138.3040 O   0  0  0  0  0  1  0  0  0  0  0  0
  182.9320  178.6040  139.7790 C   0  0  1  0  0  3  0  0  0  0  0  0
  183.4880  176.5170  138.4780 N   0  0  0  0  0  2  0  0  0  0  0  0
  181.5620  176.6420  139.7920 O   0  0  0  0  0  0  0  0  0  0  0  0
  182.6010  177.2080  139.3550 C   0  0  0  0  0  0  0  0  0  0  0  0
  183.2320  175.1530  138.0420 C   0  0  0  0  0  2  0  0  0  0  0  0
  184.3930  174.6470  137.2080 C   0  0  2  0  0  3  0  0  0  0  0  0
  184.8990  173.3330  137.7380 C   0  0  0  0  0  3  0  0  0  0  0  0
  186.8570  173.6710  136.3110 C   0  0  0  0  0  2  0  0  0  0  0  0
  186.0750  172.8660  137.3080 C   0  0  0  0  0  3  0  0  0  0  0  0
  185.5160  175.6950  137.1860 C   0  0  0  0  0  2  0  0  0  0  0  0
  186.8850  175.1470  136.7280 C   0  0  0  0  0  2  0  0  0  0  0  0
  181.9280  179.4920  139.3710 O   0  0  0  0  0  0  0  0  0  0  0  0
  181.5860  181.3170  138.2850 C   0  0  0  0  0  1  0  0  0  0  0  0
  182.5720  180.5380  138.8940 O   0  0  0  0  0  0  0  0  0  0  0  0
  1  2  2  0  0  0  0
  1  8  1  0  0  0  0
  3  6  1  0  0  0  0
  4 16  1  0  0  0  0
  5 11  2  0  0  0  0
  6  9  2  0  0  0  0
  7  4  1  6  0  0  0
  7  1  1  0  0  0  0
  8 15  2  0  0  0  0
  9 10  1  0  0  0  0
 10  8  1  0  0  0  0
 11  7  1  0  0  0  0
 11  9  1  0  0  0  0
 12  2  1  0  0  0  0
 13  5  1  0  0  0  0
 13  3  2  0  0  0  0
 14  4  2  0  0  0  0
 16 12  1  0  0  0  0
 17 14  1  0  0  0  0
 18 17  1  0  0  0  0
 19 18  1  0  0  0  0
 20 21  1  0  0  0  0
 21 23  1  0  0  0  0
 21 19  1  0  0  0  0
 23 24  1  0  0  0  0
 23 22  1  1  0  0  0
 25 28  1  1  0  0  0
 25 13  1  0  0  0  0
 26 28  1  0  0  0  0
 28 27  2  0  0  0  0
 29 26  1  0  0  0  0
 30 31  1  0  0  0  0
 30 29  1  1  0  0  0
 32 35  1  0  0  0  0
 32 33  1  0  0  0  0
 33 31  2  0  0  0  0
 34 30  1  0  0  0  0
 35 34  1  0  0  0  0
 36 25  1  0  0  0  0
 37 38  1  0  0  0  0
 38 36  1  0  0  0  0
M  END
>  <MODEL>
7

>  <REMARK>
 VINA RESULT:      -8.3      2.235      3.160
  Name = 
  11 active torsions:
  status: ('A' for Active; 'I' for Inactive)
    1  A    between atoms: C_1  and  C_38
    2  A    between atoms: C_5  and  C_16
    3  A    between atoms: C_5  and  N_33
    4  A    between atoms: C_8  and  C_16
    5  A    between atoms: C_8  and  N_31
    6  A    between atoms: N_12  and  C_38
    7  A    between atoms: C_20  and  C_32
    8  A    between atoms: C_22  and  N_33
    9  A    between atoms: O_25  and  O_28
   10  A    between atoms: O_25  and  C_32
   11  A    between atoms: C_30  and  C_32
                            x       y       z     vdW  Elec       q    Type
                         _______ _______ _______ _____ _____    ______ ____

>  <TORSDO>
F 11

$$$$
=
 OpenBabel10222419003D

 38 41  0  0  1  0  0  0  0  0999 V2000
  192.6460  175.2710  136.1220 C   0  0  0  0  0  0  0  0  0  0  0  0
  192.6820  174.2250  135.2840 C   0  0  0  0  0  3  0  0  0  0  0  0
  191.8340  177.4710  140.6910 C   0  0  0  0  0  3  0  0  0  0  0  0
  190.2010  174.7660  136.5850 C   0  0  0  0  0  0  0  0  0  0  0  0
  190.4450  176.3870  139.0350 C   0  0  0  0  0  3  0  0  0  0  0  0
  192.9250  177.3940  139.8210 C   0  0  0  0  0  3  0  0  0  0  0  0
  191.3430  175.7570  136.7430 C   0  0  1  0  0  3  0  0  0  0  0  0
  193.8930  175.9490  136.5030 C   0  0  0  0  0  0  0  0  0  0  0  0
  192.7850  176.8060  138.5620 C   0  0  0  0  0  0  0  0  0  0  0  0
  193.9250  176.7230  137.7020 N   0  0  0  0  0  2  0  0  0  0  0  0
  191.5350  176.2800  138.1590 C   0  0  0  0  0  0  0  0  0  0  0  0
  191.4390  173.4830  134.8970 C   0  0  0  0  0  2  0  0  0  0  0  0
  190.5930  176.9600  140.3040 C   0  0  0  0  0  0  0  0  0  0  0  0
  188.9880  175.1600  136.7860 N   0  0  0  0  0  0  0  0  0  0  0  0
  194.9380  175.8290  135.8090 O   0  0  0  0  0  0  0  0  0  0  0  0
  190.5070  173.3750  136.0960 C   0  0  0  0  0  2  0  0  0  0  0  0
  187.8370  174.3010  136.6450 C   0  0  0  0  0  2  0  0  0  0  0  0
  186.5640  175.1320  136.6600 C   0  0  0  0  0  2  0  0  0  0  0  0
  186.6160  176.1890  135.5690 C   0  0  0  0  0  2  0  0  0  0  0  0
  184.7890  177.2020  136.4690 O   0  0  0  0  0  1  0  0  0  0  0  0
  186.0570  177.4490  136.0570 N   0  0  0  0  0  0  0  0  0  0  0  0
  188.1270  178.6290  136.8180 C   0  0  0  0  0  1  0  0  0  0  0  0
  186.8190  177.9430  137.2090 C   0  0  1  0  0  3  0  0  0  0  0  0
  186.0360  178.8060  137.9770 O   0  0  0  0  0  1  0  0  0  0  0  0
  189.4280  177.0700  141.2390 C   0  0  1  0  0  3  0  0  0  0  0  0
  189.8950  177.6230  143.6540 N   0  0  0  0  0  2  0  0  0  0  0  0
  190.0140  175.4260  142.8750 O   0  0  0  0  0  0  0  0  0  0  0  0
  189.8060  176.6430  142.6220 C   0  0  0  0  0  0  0  0  0  0  0  0
  190.2410  177.2710  145.0220 C   0  0  0  0  0  2  0  0  0  0  0  0
  189.2240  177.8570  145.9830 C   0  0  2  0  0  3  0  0  0  0  0  0
  189.3280  177.2020  147.3340 C   0  0  0  0  0  3  0  0  0  0  0  0
  187.1750  178.2450  147.8480 C   0  0  0  0  0  2  0  0  0  0  0  0
  188.3500  177.3900  148.2250 C   0  0  0  0  0  3  0  0  0  0  0  0
  187.8090  177.6980  145.4070 C   0  0  0  0  0  2  0  0  0  0  0  0
  186.6790  177.8750  146.4440 C   0  0  0  0  0  2  0  0  0  0  0  0
  188.9210  178.3760  141.2500 O   0  0  0  0  0  0  0  0  0  0  0  0
  186.8170  178.6650  141.5880 C   0  0  0  0  0  1  0  0  0  0  0  0
  187.7620  178.2970  140.6280 O   0  0  0  0  0  0  0  0  0  0  0  0
  1  8  1  0  0  0  0
  2  1  2  0  0  0  0
  4  7  1  0  0  0  0
  4 14  2  0  0  0  0
  5 13  2  0  0  0  0
  6  3  2  0  0  0  0
  7  1  1  1  0  0  0
  7 11  1  0  0  0  0
  8 10  1  0  0  0  0
  9  6  1  0  0  0  0
 10  9  1  0  0  0  0
 11  9  2  0  0  0  0
 11  5  1  0  0  0  0
 12  2  1  0  0  0  0
 12 16  1  0  0  0  0
 13  3  1  0  0  0  0
 13 25  1  0  0  0  0
 15  8  2  0  0  0  0
 16  4  1  0  0  0  0
 17 18  1  0  0  0  0
 17 14  1  0  0  0  0
 19 21  1  0  0  0  0
 19 18  1  0  0  0  0
 21 20  1  0  0  0  0
 21 23  1  0  0  0  0
 23 22  1  6  0  0  0
 23 24  1  0  0  0  0
 25 36  1  1  0  0  0
 25 28  1  0  0  0  0
 26 29  1  0  0  0  0
 28 27  2  0  0  0  0
 28 26  1  0  0  0  0
 30 29  1  6  0  0  0
 30 31  1  0  0  0  0
 31 33  2  0  0  0  0
 32 33  1  0  0  0  0
 34 30  1  0  0  0  0
 34 35  1  0  0  0  0
 35 32  1  0  0  0  0
 38 36  1  0  0  0  0
 38 37  1  0  0  0  0
M  END
>  <MODEL>
8

>  <REMARK>
 VINA RESULT:      -7.9      3.116      9.307
  Name = 
  11 active torsions:
  status: ('A' for Active; 'I' for Inactive)
    1  A    between atoms: C_1  and  C_38
    2  A    between atoms: C_5  and  C_16
    3  A    between atoms: C_5  and  N_33
    4  A    between atoms: C_8  and  C_16
    5  A    between atoms: C_8  and  N_31
    6  A    between atoms: N_12  and  C_38
    7  A    between atoms: C_20  and  C_32
    8  A    between atoms: C_22  and  N_33
    9  A    between atoms: O_25  and  O_28
   10  A    between atoms: O_25  and  C_32
   11  A    between atoms: C_30  and  C_32
                            x       y       z     vdW  Elec       q    Type
                         _______ _______ _______ _____ _____    ______ ____

>  <TORSDO>
F 11

$$$$
=
 OpenBabel10222419003D

 38 41  0  0  1  0  0  0  0  0999 V2000
  189.5960  177.1430  147.0770 C   0  0  0  0  0  0  0  0  0  0  0  0
  189.2540  177.5410  148.3110 C   0  0  0  0  0  3  0  0  0  0  0  0
  190.3720  177.8960  142.0570 C   0  0  0  0  0  3  0  0  0  0  0  0
  187.3220  177.9040  146.2430 C   0  0  0  0  0  0  0  0  0  0  0  0
  188.4470  177.9190  143.5190 C   0  0  0  0  0  3  0  0  0  0  0  0
  191.1640  177.4370  143.1120 C   0  0  0  0  0  3  0  0  0  0  0  0
  188.5920  177.1310  145.9310 C   0  0  1  0  0  3  0  0  0  0  0  0
  190.9830  176.7500  146.7900 C   0  0  0  0  0  0  0  0  0  0  0  0
  190.6070  177.2260  144.3750 C   0  0  0  0  0  0  0  0  0  0  0  0
  191.4480  176.7770  145.4410 N   0  0  0  0  0  2  0  0  0  0  0  0
  189.2330  177.4810  144.5960 C   0  0  0  0  0  0  0  0  0  0  0  0
  187.8600  177.9830  148.6380 C   0  0  0  0  0  2  0  0  0  0  0  0
  189.0140  178.1470  142.2590 C   0  0  0  0  0  0  0  0  0  0  0  0
  186.2770  177.7320  145.5050 N   0  0  0  0  0  0  0  0  0  0  0  0
  191.7720  176.4270  147.7170 O   0  0  0  0  0  0  0  0  0  0  0  0
  187.2820  178.7750  147.4720 C   0  0  0  0  0  2  0  0  0  0  0  0
  185.0200  178.4060  145.7300 C   0  0  0  0  0  2  0  0  0  0  0  0
  184.6020  179.1550  144.4750 C   0  0  0  0  0  2  0  0  0  0  0  0
  183.7610  178.2570  143.5840 C   0  0  0  0  0  2  0  0  0  0  0  0
  182.4700  178.3170  141.7120 O   0  0  0  0  0  1  0  0  0  0  0  0
  182.8320  179.0580  142.7880 N   0  0  0  0  0  0  0  0  0  0  0  0
  180.4350  179.7660  142.6820 C   0  0  0  0  0  1  0  0  0  0  0  0
  181.6190  179.3620  143.5570 C   0  0  1  0  0  3  0  0  0  0  0  0
  181.2710  178.2790  144.3650 O   0  0  0  0  0  1  0  0  0  0  0  0
  188.1730  178.6180  141.1120 C   0  0  1  0  0  3  0  0  0  0  0  0
  188.8380  178.9960  138.7100 N   0  0  0  0  0  2  0  0  0  0  0  0
  189.0430  176.8920  139.7010 O   0  0  0  0  0  0  0  0  0  0  0  0
  188.7000  178.1010  139.8110 C   0  0  0  0  0  0  0  0  0  0  0  0
  189.3600  178.5600  137.4240 C   0  0  0  0  0  2  0  0  0  0  0  0
  188.3380  177.6890  136.7180 C   0  0  2  0  0  3  0  0  0  0  0  0
  188.9790  176.9220  135.5920 C   0  0  0  0  0  3  0  0  0  0  0  0
  186.7090  176.4200  134.8300 C   0  0  0  0  0  2  0  0  0  0  0  0
  188.2000  176.3150  134.6920 C   0  0  0  0  0  3  0  0  0  0  0  0
  187.1820  178.5570  136.1990 C   0  0  0  0  0  2  0  0  0  0  0  0
  186.3060  177.8700  135.1290 C   0  0  0  0  0  2  0  0  0  0  0  0
  186.8360  178.2370  141.2870 O   0  0  0  0  0  0  0  0  0  0  0  0
  185.2360  179.0020  140.0690 C   0  0  0  0  0  1  0  0  0  0  0  0
  186.1390  179.3360  141.0810 O   0  0  0  0  0  0  0  0  0  0  0  0
  1  2  2  0  0  0  0
  2 12  1  0  0  0  0
  3 13  2  0  0  0  0
  3  6  1  0  0  0  0
  4 16  1  0  0  0  0
  5 11  2  0  0  0  0
  6  9  2  0  0  0  0
  7 11  1  6  0  0  0
  7  4  1  0  0  0  0
  7  1  1  0  0  0  0
  8  1  1  0  0  0  0
  8 15  2  0  0  0  0
  9 11  1  0  0  0  0
  9 10  1  0  0  0  0
 10  8  1  0  0  0  0
 13  5  1  0  0  0  0
 14 17  1  0  0  0  0
 14  4  2  0  0  0  0
 16 12  1  0  0  0  0
 18 17  1  0  0  0  0
 19 18  1  0  0  0  0
 20 21  1  0  0  0  0
 21 23  1  0  0  0  0
 21 19  1  0  0  0  0
 23 22  1  6  0  0  0
 23 24  1  0  0  0  0
 25 28  1  6  0  0  0
 25 36  1  0  0  0  0
 25 13  1  0  0  0  0
 26 28  1  0  0  0  0
 27 28  2  0  0  0  0
 29 26  1  0  0  0  0
 30 29  1  6  0  0  0
 31 30  1  0  0  0  0
 32 35  1  0  0  0  0
 33 32  1  0  0  0  0
 33 31  2  0  0  0  0
 34 30  1  0  0  0  0
 35 34  1  0  0  0  0
 37 38  1  0  0  0  0
 38 36  1  0  0  0  0
M  END
>  <MODEL>
9

>  <REMARK>
 VINA RESULT:      -7.8      2.388      6.104
  Name = 
  11 active torsions:
  status: ('A' for Active; 'I' for Inactive)
    1  A    between atoms: C_1  and  C_38
    2  A    between atoms: C_5  and  C_16
    3  A    between atoms: C_5  and  N_33
    4  A    between atoms: C_8  and  C_16
    5  A    between atoms: C_8  and  N_31
    6  A    between atoms: N_12  and  C_38
    7  A    between atoms: C_20  and  C_32
    8  A    between atoms: C_22  and  N_33
    9  A    between atoms: O_25  and  O_28
   10  A    between atoms: O_25  and  C_32
   11  A    between atoms: C_30  and  C_32
                            x       y       z     vdW  Elec       q    Type
                         _______ _______ _______ _____ _____    ______ ____

>  <TORSDO>
F 11

$$$$
