=
 OpenBabel10222415243D

 47 52  0  0  1  0  0  0  0  0999 V2000
  184.5710  178.7170  146.8430 N   0  0  0  0  0  0  0  0  0  0  0  0
  186.0100  178.5110  147.0390 C   0  0  0  0  0  0  0  0  0  0  0  0
  188.7220  177.3940  144.5570 C   0  0  0  0  0  3  0  0  0  0  0  0
  186.0070  178.1740  144.4730 C   0  0  2  0  0  3  0  0  0  0  0  0
  182.3140  178.7220  141.0930 S   0  0  0  0  0  0  0  0  0  0  0  0
  183.9720  178.7290  145.6890 C   0  0  0  0  0  3  0  0  0  0  0  0
  181.7260  179.1590  143.8460 C   0  0  0  0  0  1  0  0  0  0  0  0
  186.7420  177.8590  143.2630 N   0  0  0  0  0  0  0  0  0  0  0  0
  184.8010  178.2420  141.9030 C   0  0  0  0  0  0  0  0  0  0  0  0
  184.0410  178.3210  140.6280 C   0  0  2  0  0  3  0  0  0  0  0  0
  186.0890  177.9150  141.9800 C   0  0  0  0  0  2  0  0  0  0  0  0
  182.7560  178.8060  142.8290 C   0  0  1  0  0  3  0  0  0  0  0  0
  188.1270  177.4630  143.3620 C   0  0  0  0  0  0  0  0  0  0  0  0
  186.5990  179.7280  147.5720 N   0  0  0  0  0  1  0  0  0  0  0  0
  184.0300  178.5310  143.0990 C   0  0  0  0  0  0  0  0  0  0  0  0
  186.7130  178.1130  145.7690 C   0  0  0  0  0  0  0  0  0  0  0  0
  187.9950  177.7360  145.7970 C   0  0  0  0  0  3  0  0  0  0  0  0
  184.7000  178.4880  144.4280 C   0  0  0  0  0  0  0  0  0  0  0  0
  185.1540  177.9560  137.9860 N   0  0  0  0  0  0  0  0  0  0  0  0
  185.1140  179.1510  138.4880 C   0  0  0  0  0  3  0  0  0  0  0  0
  184.5850  179.3840  139.7940 N   0  0  0  0  0  2  0  0  0  0  0  0
  186.9410  178.2700  136.2630 C   0  0  0  0  0  2  0  0  0  0  0  0
  184.8790  176.7960  135.8510 C   0  0  0  0  0  2  0  0  0  0  0  0
  187.3970  177.7950  134.8830 C   0  0  0  0  0  2  0  0  0  0  0  0
  185.5600  175.4390  135.7380 C   0  0  0  0  0  2  0  0  0  0  0  0
  186.5770  175.4420  134.6030 C   0  0  0  0  0  2  0  0  0  0  0  0
  187.7800  176.3210  134.9190 C   0  0  0  0  0  2  0  0  0  0  0  0
  185.6600  177.6870  136.7000 N   0  0  0  0  0  0  0  0  0  0  0  0
  188.9150  177.1050  142.1420 C   0  0  0  0  0  2  0  0  0  0  0  0
  190.4060  177.0260  142.4770 C   0  0  1  0  0  3  0  0  0  0  0  0
  191.7560  175.5710  143.8610 C   0  0  0  0  0  1  0  0  0  0  0  0
  190.8940  175.6590  142.6860 N   0  0  0  0  0  2  0  0  0  0  0  0
  191.3040  177.8590  141.5560 C   0  0  0  0  0  2  0  0  0  0  0  0
  191.4490  177.2590  140.2370 N   0  0  0  0  0  0  0  0  0  0  0  0
  190.8610  176.1710  138.3250 C   0  0  0  0  0  0  0  0  0  0  0  0
  192.6600  176.8780  139.6010 C   0  0  0  0  0  0  0  0  0  0  0  0
  192.3290  176.1910  138.3700 C   0  0  0  0  0  0  0  0  0  0  0  0
  193.8140  177.0770  140.0730 O   0  0  0  0  0  0  0  0  0  0  0  0
  190.3800  176.7800  139.4110 C   0  0  0  0  0  3  0  0  0  0  0  0
  193.1430  175.7070  137.4850 N   0  0  0  0  0  0  0  0  0  0  0  0
  189.8620  174.2160  137.1920 C   0  0  0  0  0  1  0  0  0  0  0  0
  190.0470  175.6160  137.3330 O   0  0  0  0  0  0  0  0  0  0  0  0
  194.5080  175.7890  137.6440 O   0  0  0  0  0  0  0  0  0  0  0  0
  194.5410  173.4770  136.9890 C   0  0  0  0  0  1  0  0  0  0  0  0
  195.2970  174.6100  137.6610 C   0  0  2  0  0  3  0  0  0  0  0  0
  195.6650  174.2330  139.0930 C   0  0  0  0  0  2  0  0  0  0  0  0
  196.7400  175.0030  139.5500 O   0  0  0  0  0  1  0  0  0  0  0  0
  1  2  2  0  0  0  0
  2 14  1  0  0  0  0
  3 17  1  0  0  0  0
  4 18  1  1  0  0  0
  4 16  1  0  0  0  0
  5 12  1  0  0  0  0
  6  1  1  0  0  0  0
  8 13  1  0  0  0  0
  8  4  1  0  0  0  0
  9 11  1  0  0  0  0
  9 15  2  0  0  0  0
 10 21  1  6  0  0  0
 10  5  1  0  0  0  0
 10  9  1  0  0  0  0
 11  8  1  0  0  0  0
 12 15  1  0  0  0  0
 12  7  1  1  0  0  0
 13  3  2  0  0  0  0
 15 18  1  0  0  0  0
 16 17  2  0  0  0  0
 16  2  1  0  0  0  0
 18  6  2  0  0  0  0
 19 20  2  0  0  0  0
 20 21  1  0  0  0  0
 22 28  1  0  0  0  0
 23 28  1  0  0  0  0
 24 27  1  0  0  0  0
 24 22  1  0  0  0  0
 25 23  1  0  0  0  0
 26 27  1  0  0  0  0
 26 25  1  0  0  0  0
 28 19  1  0  0  0  0
 29 30  1  0  0  0  0
 29 13  1  0  0  0  0
 30 33  1  6  0  0  0
 30 32  1  0  0  0  0
 32 31  1  0  0  0  0
 34 33  1  0  0  0  0
 35 37  1  0  0  0  0
 35 39  2  0  0  0  0
 36 38  2  0  0  0  0
 36 34  1  0  0  0  0
 37 36  1  0  0  0  0
 39 34  1  0  0  0  0
 40 43  1  0  0  0  0
 40 37  2  0  0  0  0
 41 42  1  0  0  0  0
 42 35  1  0  0  0  0
 43 45  1  0  0  0  0
 45 44  1  1  0  0  0
 45 46  1  0  0  0  0
 46 47  1  0  0  0  0
M  END
>  <MODEL>
1

>  <REMARK>
 VINA RESULT:      -9.2      0.000      0.000
  Name = 
  11 active torsions:
  status: ('A' for Active; 'I' for Inactive)
    1  A    between atoms: N_3  and  C_45
    2  A    between atoms: N_8  and  N_47
    3  A    between atoms: O_11  and  C_15
    4  A    between atoms: C_14  and  C_41
    5  A    between atoms: C_20  and  C_32
    6  A    between atoms: C_20  and  C_35
    7  A    between atoms: C_28  and  N_40
    8  A    between atoms: O_31  and  N_33
    9  A    between atoms: O_31  and  C_41
   10  A    between atoms: C_35  and  N_42
   11  A    between atoms: C_35  and  C_45
                            x       y       z     vdW  Elec       q    Type
                         _______ _______ _______ _____ _____    ______ ____

>  <TORSDO>
F 11

$$$$
=
 OpenBabel10222415243D

 47 52  0  0  1  0  0  0  0  0999 V2000
  184.1840  178.6270  146.5640 N   0  0  0  0  0  0  0  0  0  0  0  0
  185.6310  178.5070  146.7790 C   0  0  0  0  0  0  0  0  0  0  0  0
  188.4520  177.6930  144.3010 C   0  0  0  0  0  3  0  0  0  0  0  0
  185.6940  178.2970  144.2000 C   0  0  2  0  0  3  0  0  0  0  0  0
  182.0300  178.7690  140.7760 S   0  0  0  0  0  0  0  0  0  0  0  0
  183.6060  178.6580  145.4000 C   0  0  0  0  0  3  0  0  0  0  0  0
  181.3680  179.0290  143.5350 C   0  0  0  0  0  1  0  0  0  0  0  0
  186.4680  178.0910  142.9910 N   0  0  0  0  0  0  0  0  0  0  0  0
  184.5290  178.4130  141.6120 C   0  0  0  0  0  0  0  0  0  0  0  0
  183.7870  178.5060  140.3270 C   0  0  2  0  0  3  0  0  0  0  0  0
  185.8350  178.1680  141.6990 C   0  0  0  0  0  2  0  0  0  0  0  0
  182.4360  178.7960  142.5230 C   0  0  1  0  0  3  0  0  0  0  0  0
  187.8740  177.7820  143.0980 C   0  0  0  0  0  0  0  0  0  0  0  0
  186.1290  179.7320  147.3810 N   0  0  0  0  0  1  0  0  0  0  0  0
  183.7210  178.5910  142.8050 C   0  0  0  0  0  0  0  0  0  0  0  0
  186.3810  178.2180  145.5050 C   0  0  0  0  0  0  0  0  0  0  0  0
  187.6840  177.9260  145.5410 C   0  0  0  0  0  3  0  0  0  0  0  0
  184.3700  178.5270  144.1440 C   0  0  0  0  0  0  0  0  0  0  0  0
  182.1600  180.1740  138.6190 N   0  0  0  0  0  0  0  0  0  0  0  0
  183.4230  180.4420  138.7350 C   0  0  0  0  0  3  0  0  0  0  0  0
  184.2740  179.6410  139.5570 N   0  0  0  0  0  2  0  0  0  0  0  0
  181.3200  182.4150  137.8870 C   0  0  0  0  0  2  0  0  0  0  0  0
  180.3870  180.2200  136.9350 C   0  0  0  0  0  2  0  0  0  0  0  0
  180.3840  183.0960  136.8890 C   0  0  0  0  0  2  0  0  0  0  0  0
  180.8450  180.3590  135.4900 C   0  0  0  0  0  2  0  0  0  0  0  0
  180.2660  181.6220  134.8630 C   0  0  0  0  0  2  0  0  0  0  0  0
  180.8730  182.8850  135.4600 C   0  0  0  0  0  2  0  0  0  0  0  0
  181.2880  180.9430  137.8250 N   0  0  0  0  0  0  0  0  0  0  0  0
  188.7060  177.5370  141.8790 C   0  0  0  0  0  2  0  0  0  0  0  0
  190.1410  177.1870  142.2760 C   0  0  1  0  0  3  0  0  0  0  0  0
  191.2660  175.5180  143.6180 C   0  0  0  0  0  1  0  0  0  0  0  0
  190.3600  175.7540  142.4970 N   0  0  0  0  0  2  0  0  0  0  0  0
  191.2140  177.8380  141.3960 C   0  0  0  0  0  2  0  0  0  0  0  0
  191.3140  177.2070  140.0880 N   0  0  0  0  0  0  0  0  0  0  0  0
  190.6880  176.0000  138.2620 C   0  0  0  0  0  0  0  0  0  0  0  0
  192.5040  176.9170  139.3700 C   0  0  0  0  0  0  0  0  0  0  0  0
  192.1460  176.1580  138.1890 C   0  0  0  0  0  0  0  0  0  0  0  0
  193.6670  177.2390  139.7420 O   0  0  0  0  0  0  0  0  0  0  0  0
  190.2350  176.6010  139.3650 C   0  0  0  0  0  3  0  0  0  0  0  0
  192.9320  175.7190  137.2570 N   0  0  0  0  0  0  0  0  0  0  0  0
  188.9400  176.0210  136.5160 C   0  0  0  0  0  1  0  0  0  0  0  0
  189.8570  175.3360  137.3550 O   0  0  0  0  0  0  0  0  0  0  0  0
  194.2920  175.9330  137.3030 O   0  0  0  0  0  0  0  0  0  0  0  0
  194.7870  173.8800  136.1580 C   0  0  0  0  0  1  0  0  0  0  0  0
  195.1890  174.8350  137.2680 C   0  0  2  0  0  3  0  0  0  0  0  0
  195.2090  174.1150  138.6130 C   0  0  0  0  0  2  0  0  0  0  0  0
  195.9110  174.8610  139.5670 O   0  0  0  0  0  1  0  0  0  0  0  0
  1  2  2  0  0  0  0
  2 14  1  0  0  0  0
  3 17  1  0  0  0  0
  4 18  1  1  0  0  0
  4 16  1  0  0  0  0
  5 12  1  0  0  0  0
  6  1  1  0  0  0  0
  8 13  1  0  0  0  0
  8  4  1  0  0  0  0
  9 11  1  0  0  0  0
  9 15  2  0  0  0  0
 10 21  1  6  0  0  0
 10  5  1  0  0  0  0
 10  9  1  0  0  0  0
 11  8  1  0  0  0  0
 12 15  1  0  0  0  0
 12  7  1  1  0  0  0
 13  3  2  0  0  0  0
 15 18  1  0  0  0  0
 16 17  2  0  0  0  0
 16  2  1  0  0  0  0
 18  6  2  0  0  0  0
 19 20  2  0  0  0  0
 20 21  1  0  0  0  0
 23 28  1  0  0  0  0
 24 22  1  0  0  0  0
 25 23  1  0  0  0  0
 26 27  1  0  0  0  0
 26 25  1  0  0  0  0
 27 24  1  0  0  0  0
 28 22  1  0  0  0  0
 28 19  1  0  0  0  0
 29 30  1  0  0  0  0
 29 13  1  0  0  0  0
 30 33  1  6  0  0  0
 30 32  1  0  0  0  0
 32 31  1  0  0  0  0
 34 33  1  0  0  0  0
 35 39  2  0  0  0  0
 36 38  2  0  0  0  0
 36 34  1  0  0  0  0
 37 35  1  0  0  0  0
 37 36  1  0  0  0  0
 39 34  1  0  0  0  0
 40 43  1  0  0  0  0
 40 37  2  0  0  0  0
 41 42  1  0  0  0  0
 42 35  1  0  0  0  0
 45 44  1  6  0  0  0
 45 43  1  0  0  0  0
 45 46  1  0  0  0  0
 46 47  1  0  0  0  0
M  END
>  <MODEL>
2

>  <REMARK>
 VINA RESULT:      -8.6      2.289      3.074
  Name = 
  11 active torsions:
  status: ('A' for Active; 'I' for Inactive)
    1  A    between atoms: N_3  and  C_45
    2  A    between atoms: N_8  and  N_47
    3  A    between atoms: O_11  and  C_15
    4  A    between atoms: C_14  and  C_41
    5  A    between atoms: C_20  and  C_32
    6  A    between atoms: C_20  and  C_35
    7  A    between atoms: C_28  and  N_40
    8  A    between atoms: O_31  and  N_33
    9  A    between atoms: O_31  and  C_41
   10  A    between atoms: C_35  and  N_42
   11  A    between atoms: C_35  and  C_45
                            x       y       z     vdW  Elec       q    Type
                         _______ _______ _______ _____ _____    ______ ____

>  <TORSDO>
F 11

$$$$
=
 OpenBabel10222415243D

 47 52  0  0  1  0  0  0  0  0999 V2000
  184.3670  178.6760  146.7610 N   0  0  0  0  0  0  0  0  0  0  0  0
  185.8170  178.4980  146.8840 C   0  0  0  0  0  0  0  0  0  0  0  0
  188.4330  177.5090  144.2490 C   0  0  0  0  0  3  0  0  0  0  0  0
  185.7020  178.2300  144.3120 C   0  0  2  0  0  3  0  0  0  0  0  0
  181.8430  178.7860  141.1240 S   0  0  0  0  0  0  0  0  0  0  0  0
  183.7140  178.7060  145.6360 C   0  0  0  0  0  3  0  0  0  0  0  0
  181.3760  179.1340  143.9120 C   0  0  0  0  0  1  0  0  0  0  0  0
  186.3850  177.9640  143.0610 N   0  0  0  0  0  0  0  0  0  0  0  0
  184.3740  178.3400  141.8040 C   0  0  0  0  0  0  0  0  0  0  0  0
  183.5540  178.4370  140.5680 C   0  0  2  0  0  3  0  0  0  0  0  0
  185.6720  178.0400  141.8120 C   0  0  0  0  0  2  0  0  0  0  0  0
  182.3640  178.8330  142.8390 C   0  0  1  0  0  3  0  0  0  0  0  0
  187.7810  177.5970  143.0840 C   0  0  0  0  0  0  0  0  0  0  0  0
  186.4050  179.7130  147.4230 N   0  0  0  0  0  1  0  0  0  0  0  0
  183.6550  178.5790  143.0420 C   0  0  0  0  0  0  0  0  0  0  0  0
  186.4690  178.1500  145.5720 C   0  0  0  0  0  0  0  0  0  0  0  0
  187.7590  177.8020  145.5300 C   0  0  0  0  0  3  0  0  0  0  0  0
  184.3880  178.5160  144.3370 C   0  0  0  0  0  0  0  0  0  0  0  0
  181.9760  179.8560  138.6070 N   0  0  0  0  0  0  0  0  0  0  0  0
  183.2090  180.2100  138.7910 C   0  0  0  0  0  3  0  0  0  0  0  0
  184.0360  179.5330  139.7400 N   0  0  0  0  0  2  0  0  0  0  0  0
  181.0560  181.9730  137.6390 C   0  0  0  0  0  2  0  0  0  0  0  0
  180.3580  179.6540  136.7840 C   0  0  0  0  0  2  0  0  0  0  0  0
  180.1680  182.5120  136.5190 C   0  0  0  0  0  2  0  0  0  0  0  0
  180.9310  179.7250  135.3760 C   0  0  0  0  0  2  0  0  0  0  0  0
  180.3260  180.8940  134.6090 C   0  0  0  0  0  2  0  0  0  0  0  0
  180.7930  182.2370  135.1560 C   0  0  0  0  0  2  0  0  0  0  0  0
  181.1280  180.5020  137.6880 N   0  0  0  0  0  0  0  0  0  0  0  0
  188.5190  177.2900  141.8200 C   0  0  0  0  0  2  0  0  0  0  0  0
  190.0190  177.1670  142.0960 C   0  0  1  0  0  3  0  0  0  0  0  0
  191.4310  175.8210  143.5270 C   0  0  0  0  0  1  0  0  0  0  0  0
  190.4460  175.8100  142.4490 N   0  0  0  0  0  2  0  0  0  0  0  0
  190.9100  177.8310  141.0410 C   0  0  0  0  0  2  0  0  0  0  0  0
  190.6210  177.3550  139.6960 N   0  0  0  0  0  0  0  0  0  0  0  0
  190.8820  176.1910  137.7560 C   0  0  0  0  0  0  0  0  0  0  0  0
  189.7540  177.9550  138.7460 C   0  0  0  0  0  0  0  0  0  0  0  0
  189.8800  177.2330  137.4970 C   0  0  0  0  0  0  0  0  0  0  0  0
  189.0380  178.9720  138.9660 O   0  0  0  0  0  0  0  0  0  0  0  0
  191.2990  176.2870  139.0210 C   0  0  0  0  0  3  0  0  0  0  0  0
  189.2430  177.4440  136.3880 N   0  0  0  0  0  0  0  0  0  0  0  0
  192.0230  174.0490  137.2920 C   0  0  0  0  0  1  0  0  0  0  0  0
  191.3610  175.2290  136.8620 O   0  0  0  0  0  0  0  0  0  0  0  0
  188.3220  178.4610  136.2700 O   0  0  0  0  0  0  0  0  0  0  0  0
  186.1640  178.0240  137.2320 C   0  0  0  0  0  1  0  0  0  0  0  0
  186.9710  178.1680  135.9540 C   0  0  2  0  0  3  0  0  0  0  0  0
  186.8810  176.8940  135.1180 C   0  0  0  0  0  2  0  0  0  0  0  0
  185.8790  176.0480  135.6060 O   0  0  0  0  0  1  0  0  0  0  0  0
  1  2  2  0  0  0  0
  2 14  1  0  0  0  0
  3 17  1  0  0  0  0
  4 18  1  1  0  0  0
  4 16  1  0  0  0  0
  5 12  1  0  0  0  0
  6  1  1  0  0  0  0
  8 13  1  0  0  0  0
  8  4  1  0  0  0  0
  9 11  1  0  0  0  0
  9 15  2  0  0  0  0
 10 21  1  6  0  0  0
 10  5  1  0  0  0  0
 10  9  1  0  0  0  0
 11  8  1  0  0  0  0
 12 15  1  0  0  0  0
 12  7  1  1  0  0  0
 13  3  2  0  0  0  0
 15 18  1  0  0  0  0
 16  2  1  0  0  0  0
 17 16  2  0  0  0  0
 18  6  2  0  0  0  0
 19 20  2  0  0  0  0
 20 21  1  0  0  0  0
 22 28  1  0  0  0  0
 23 28  1  0  0  0  0
 24 22  1  0  0  0  0
 25 23  1  0  0  0  0
 26 27  1  0  0  0  0
 26 25  1  0  0  0  0
 27 24  1  0  0  0  0
 28 19  1  0  0  0  0
 29 30  1  0  0  0  0
 29 13  1  0  0  0  0
 30 33  1  6  0  0  0
 30 32  1  0  0  0  0
 32 31  1  0  0  0  0
 34 33  1  0  0  0  0
 35 39  2  0  0  0  0
 36 38  2  0  0  0  0
 36 34  1  0  0  0  0
 37 35  1  0  0  0  0
 37 36  1  0  0  0  0
 39 34  1  0  0  0  0
 40 37  2  0  0  0  0
 42 41  1  0  0  0  0
 42 35  1  0  0  0  0
 43 40  1  0  0  0  0
 45 43  1  0  0  0  0
 45 44  1  1  0  0  0
 46 47  1  0  0  0  0
 46 45  1  0  0  0  0
M  END
>  <MODEL>
3

>  <REMARK>
 VINA RESULT:      -8.6      2.552      4.460
  Name = 
  11 active torsions:
  status: ('A' for Active; 'I' for Inactive)
    1  A    between atoms: N_3  and  C_45
    2  A    between atoms: N_8  and  N_47
    3  A    between atoms: O_11  and  C_15
    4  A    between atoms: C_14  and  C_41
    5  A    between atoms: C_20  and  C_32
    6  A    between atoms: C_20  and  C_35
    7  A    between atoms: C_28  and  N_40
    8  A    between atoms: O_31  and  N_33
    9  A    between atoms: O_31  and  C_41
   10  A    between atoms: C_35  and  N_42
   11  A    between atoms: C_35  and  C_45
                            x       y       z     vdW  Elec       q    Type
                         _______ _______ _______ _____ _____    ______ ____

>  <TORSDO>
F 11

$$$$
=
 OpenBabel10222415243D

 47 52  0  0  1  0  0  0  0  0999 V2000
  188.0950  177.7860  148.6670 N   0  0  0  0  0  0  0  0  0  0  0  0
  189.5030  177.4690  148.4040 C   0  0  0  0  0  0  0  0  0  0  0  0
  191.2380  176.3710  145.1570 C   0  0  0  0  0  3  0  0  0  0  0  0
  188.7020  177.3360  145.9460 C   0  0  2  0  0  3  0  0  0  0  0  0
  184.2300  178.3960  143.8870 S   0  0  0  0  0  0  0  0  0  0  0  0
  187.1820  177.9300  147.7530 C   0  0  0  0  0  3  0  0  0  0  0  0
  184.5340  178.6530  146.7080 C   0  0  0  0  0  1  0  0  0  0  0  0
  189.0100  177.0680  144.5550 N   0  0  0  0  0  0  0  0  0  0  0  0
  186.7930  177.6870  143.8740 C   0  0  0  0  0  0  0  0  0  0  0  0
  185.6960  177.9180  142.8970 C   0  0  2  0  0  3  0  0  0  0  0  0
  188.0110  177.2700  143.5370 C   0  0  0  0  0  2  0  0  0  0  0  0
  185.1770  178.3130  145.4090 C   0  0  1  0  0  3  0  0  0  0  0  0
  190.3210  176.5740  144.2050 C   0  0  0  0  0  0  0  0  0  0  0  0
  190.3290  178.5990  148.7970 N   0  0  0  0  0  1  0  0  0  0  0  0
  186.4440  177.9320  145.2620 C   0  0  0  0  0  0  0  0  0  0  0  0
  189.7560  177.1260  146.9600 C   0  0  0  0  0  0  0  0  0  0  0  0
  190.9490  176.6630  146.5750 C   0  0  0  0  0  3  0  0  0  0  0  0
  187.4750  177.7400  146.3190 C   0  0  0  0  0  0  0  0  0  0  0  0
  184.4480  178.4440  140.3440 N   0  0  0  0  0  0  0  0  0  0  0  0
  185.3990  179.2270  140.7480 C   0  0  0  0  0  3  0  0  0  0  0  0
  186.0570  179.0040  141.9970 N   0  0  0  0  0  2  0  0  0  0  0  0
  183.4770  177.4900  138.2440 C   0  0  0  0  0  2  0  0  0  0  0  0
  183.3610  179.9950  138.7980 C   0  0  0  0  0  2  0  0  0  0  0  0
  182.6480  177.8540  137.0130 C   0  0  0  0  0  2  0  0  0  0  0  0
  181.8540  180.1460  138.9550 C   0  0  0  0  0  2  0  0  0  0  0  0
  181.1370  179.7440  137.6730 C   0  0  0  0  0  2  0  0  0  0  0  0
  181.2310  178.2460  137.4130 C   0  0  0  0  0  2  0  0  0  0  0  0
  183.7710  178.6350  139.1250 N   0  0  0  0  0  0  0  0  0  0  0  0
  190.6730  176.2610  142.7850 C   0  0  0  0  0  2  0  0  0  0  0  0
  191.1240  177.5290  142.0580 C   0  0  1  0  0  3  0  0  0  0  0  0
  191.2120  179.4240  143.5600 C   0  0  0  0  0  1  0  0  0  0  0  0
  191.9850  178.3990  142.8640 N   0  0  0  0  0  2  0  0  0  0  0  0
  191.6580  177.2870  140.6420 C   0  0  0  0  0  2  0  0  0  0  0  0
  190.5880  177.1090  139.6710 N   0  0  0  0  0  0  0  0  0  0  0  0
  188.5480  177.3620  138.6930 C   0  0  0  0  0  0  0  0  0  0  0  0
  190.4650  176.0630  138.7190 C   0  0  0  0  0  0  0  0  0  0  0  0
  189.1800  176.1970  138.0630 C   0  0  0  0  0  0  0  0  0  0  0  0
  191.3240  175.1580  138.5270 O   0  0  0  0  0  0  0  0  0  0  0  0
  189.3690  177.8620  139.6180 C   0  0  0  0  0  3  0  0  0  0  0  0
  188.6900  175.4610  137.1150 N   0  0  0  0  0  0  0  0  0  0  0  0
  187.0090  178.5970  137.2050 C   0  0  0  0  0  1  0  0  0  0  0  0
  187.2900  177.9040  138.4110 O   0  0  0  0  0  0  0  0  0  0  0  0
  189.3860  174.3870  136.6060 O   0  0  0  0  0  0  0  0  0  0  0  0
  191.0510  173.6930  135.0170 C   0  0  0  0  0  1  0  0  0  0  0  0
  189.6830  174.3210  135.2200 C   0  0  2  0  0  3  0  0  0  0  0  0
  189.6350  175.7120  134.5950 C   0  0  0  0  0  2  0  0  0  0  0  0
  190.8650  176.3650  134.7360 O   0  0  0  0  0  1  0  0  0  0  0  0
  2  1  2  0  0  0  0
  2 14  1  0  0  0  0
  3 17  1  0  0  0  0
  4 18  1  1  0  0  0
  4 16  1  0  0  0  0
  5 12  1  0  0  0  0
  6  1  1  0  0  0  0
  8  4  1  0  0  0  0
  9 15  2  0  0  0  0
 10 21  1  6  0  0  0
 10  9  1  0  0  0  0
 10  5  1  0  0  0  0
 11  9  1  0  0  0  0
 11  8  1  0  0  0  0
 12  7  1  1  0  0  0
 13  8  1  0  0  0  0
 13  3  2  0  0  0  0
 15 12  1  0  0  0  0
 15 18  1  0  0  0  0
 16  2  1  0  0  0  0
 17 16  2  0  0  0  0
 18  6  2  0  0  0  0
 19 20  2  0  0  0  0
 20 21  1  0  0  0  0
 22 28  1  0  0  0  0
 23 25  1  0  0  0  0
 23 28  1  0  0  0  0
 24 27  1  0  0  0  0
 24 22  1  0  0  0  0
 26 25  1  0  0  0  0
 27 26  1  0  0  0  0
 28 19  1  0  0  0  0
 29 13  1  0  0  0  0
 30 33  1  6  0  0  0
 30 29  1  0  0  0  0
 30 32  1  0  0  0  0
 32 31  1  0  0  0  0
 34 33  1  0  0  0  0
 35 39  2  0  0  0  0
 36 34  1  0  0  0  0
 37 35  1  0  0  0  0
 37 36  1  0  0  0  0
 38 36  2  0  0  0  0
 39 34  1  0  0  0  0
 40 37  2  0  0  0  0
 41 42  1  0  0  0  0
 42 35  1  0  0  0  0
 43 40  1  0  0  0  0
 45 44  1  1  0  0  0
 45 43  1  0  0  0  0
 46 47  1  0  0  0  0
 46 45  1  0  0  0  0
M  END
>  <MODEL>
4

>  <REMARK>
 VINA RESULT:      -8.3      2.562      4.089
  Name = 
  11 active torsions:
  status: ('A' for Active; 'I' for Inactive)
    1  A    between atoms: N_3  and  C_45
    2  A    between atoms: N_8  and  N_47
    3  A    between atoms: O_11  and  C_15
    4  A    between atoms: C_14  and  C_41
    5  A    between atoms: C_20  and  C_32
    6  A    between atoms: C_20  and  C_35
    7  A    between atoms: C_28  and  N_40
    8  A    between atoms: O_31  and  N_33
    9  A    between atoms: O_31  and  C_41
   10  A    between atoms: C_35  and  N_42
   11  A    between atoms: C_35  and  C_45
                            x       y       z     vdW  Elec       q    Type
                         _______ _______ _______ _____ _____    ______ ____

>  <TORSDO>
F 11

$$$$
=
 OpenBabel10222415243D

 47 52  0  0  1  0  0  0  0  0999 V2000
  189.2460  177.1910  147.6640 N   0  0  0  0  0  0  0  0  0  0  0  0
  190.4530  176.8500  146.9030 C   0  0  0  0  0  0  0  0  0  0  0  0
  190.9090  176.1340  143.1560 C   0  0  0  0  0  3  0  0  0  0  0  0
  188.8750  177.0940  144.8660 C   0  0  2  0  0  3  0  0  0  0  0  0
  184.0860  178.6280  144.5880 S   0  0  0  0  0  0  0  0  0  0  0  0
  188.0980  177.5010  147.1380 C   0  0  0  0  0  3  0  0  0  0  0  0
  185.3290  178.4790  147.1470 C   0  0  0  0  0  1  0  0  0  0  0  0
  188.6790  177.0070  143.4320 N   0  0  0  0  0  0  0  0  0  0  0  0
  186.4250  177.8130  143.6220 C   0  0  0  0  0  0  0  0  0  0  0  0
  185.0920  178.2250  143.1100 C   0  0  2  0  0  3  0  0  0  0  0  0
  187.4210  177.3920  142.8450 C   0  0  0  0  0  2  0  0  0  0  0  0
  185.4730  178.2940  145.6760 C   0  0  1  0  0  3  0  0  0  0  0  0
  189.7500  176.5070  142.6030 C   0  0  0  0  0  0  0  0  0  0  0  0
  191.4600  177.8760  147.1190 N   0  0  0  0  0  1  0  0  0  0  0  0
  186.5800  177.8800  145.0640 C   0  0  0  0  0  0  0  0  0  0  0  0
  190.1820  176.6980  145.4300 C   0  0  0  0  0  0  0  0  0  0  0  0
  191.1340  176.2400  144.6120 C   0  0  0  0  0  3  0  0  0  0  0  0
  187.8820  177.4970  145.6780 C   0  0  0  0  0  0  0  0  0  0  0  0
  183.5380  178.7670  140.7350 N   0  0  0  0  0  0  0  0  0  0  0  0
  184.4260  179.6330  141.1110 C   0  0  0  0  0  3  0  0  0  0  0  0
  185.2290  179.4080  142.2710 N   0  0  0  0  0  2  0  0  0  0  0  0
  181.4790  178.1840  139.4380 C   0  0  0  0  0  2  0  0  0  0  0  0
  183.1530  179.9560  138.6330 C   0  0  0  0  0  2  0  0  0  0  0  0
  180.6620  178.5820  138.2100 C   0  0  0  0  0  2  0  0  0  0  0  0
  182.2690  181.1930  138.7200 C   0  0  0  0  0  2  0  0  0  0  0  0
  181.0360  181.0340  137.8380 C   0  0  0  0  0  2  0  0  0  0  0  0
  180.0790  179.9810  138.3800 C   0  0  0  0  0  2  0  0  0  0  0  0
  182.7230  178.9560  139.6030 N   0  0  0  0  0  0  0  0  0  0  0  0
  189.5830  176.3770  141.1220 C   0  0  0  0  0  2  0  0  0  0  0  0
  190.4070  177.4440  140.3990 C   0  0  1  0  0  3  0  0  0  0  0  0
  192.8220  177.5030  140.2550 C   0  0  0  0  0  1  0  0  0  0  0  0
  191.5950  176.9160  139.7220 N   0  0  0  0  0  2  0  0  0  0  0  0
  189.5800  178.3930  139.5250 C   0  0  0  0  0  2  0  0  0  0  0  0
  188.8350  177.6860  138.4930 N   0  0  0  0  0  0  0  0  0  0  0  0
  188.4530  176.5120  136.5810 C   0  0  0  0  0  0  0  0  0  0  0  0
  187.4390  177.7590  138.2470 C   0  0  0  0  0  0  0  0  0  0  0  0
  187.1510  177.0120  137.0410 C   0  0  0  0  0  0  0  0  0  0  0  0
  186.6160  178.4100  138.9510 O   0  0  0  0  0  0  0  0  0  0  0  0
  189.4040  176.9200  137.4240 C   0  0  0  0  0  3  0  0  0  0  0  0
  185.9980  176.8090  136.4860 N   0  0  0  0  0  0  0  0  0  0  0  0
  188.5090  174.3290  135.4230 C   0  0  0  0  0  1  0  0  0  0  0  0
  188.7140  175.7340  135.4490 O   0  0  0  0  0  0  0  0  0  0  0  0
  184.8420  177.3360  137.0180 O   0  0  0  0  0  0  0  0  0  0  0  0
  183.6470  175.4310  137.8660 C   0  0  0  0  0  1  0  0  0  0  0  0
  183.6210  176.6210  136.9210 C   0  0  2  0  0  3  0  0  0  0  0  0
  183.3810  176.1600  135.4870 C   0  0  0  0  0  2  0  0  0  0  0  0
  182.7150  174.9290  135.4630 O   0  0  0  0  0  1  0  0  0  0  0  0
  2 14  1  0  0  0  0
  2  1  2  0  0  0  0
  3 17  1  0  0  0  0
  4 16  1  1  0  0  0
  4 18  1  0  0  0  0
  5 12  1  0  0  0  0
  6  1  1  0  0  0  0
  8  4  1  0  0  0  0
  9 15  2  0  0  0  0
 10 21  1  6  0  0  0
 10  9  1  0  0  0  0
 10  5  1  0  0  0  0
 11  8  1  0  0  0  0
 11  9  1  0  0  0  0
 12  7  1  1  0  0  0
 13  3  2  0  0  0  0
 13  8  1  0  0  0  0
 15 12  1  0  0  0  0
 15 18  1  0  0  0  0
 16  2  1  0  0  0  0
 17 16  2  0  0  0  0
 18  6  2  0  0  0  0
 19 20  2  0  0  0  0
 20 21  1  0  0  0  0
 22 28  1  0  0  0  0
 23 25  1  0  0  0  0
 23 28  1  0  0  0  0
 24 27  1  0  0  0  0
 24 22  1  0  0  0  0
 26 27  1  0  0  0  0
 26 25  1  0  0  0  0
 28 19  1  0  0  0  0
 29 13  1  0  0  0  0
 30 33  1  6  0  0  0
 30 29  1  0  0  0  0
 32 31  1  0  0  0  0
 32 30  1  0  0  0  0
 34 33  1  0  0  0  0
 35 37  1  0  0  0  0
 35 39  2  0  0  0  0
 36 34  1  0  0  0  0
 36 38  2  0  0  0  0
 37 36  1  0  0  0  0
 39 34  1  0  0  0  0
 40 43  1  0  0  0  0
 40 37  2  0  0  0  0
 41 42  1  0  0  0  0
 42 35  1  0  0  0  0
 45 43  1  0  0  0  0
 45 44  1  1  0  0  0
 46 45  1  0  0  0  0
 47 46  1  0  0  0  0
M  END
>  <MODEL>
5

>  <REMARK>
 VINA RESULT:      -8.1      2.951      5.836
  Name = 
  11 active torsions:
  status: ('A' for Active; 'I' for Inactive)
    1  A    between atoms: N_3  and  C_45
    2  A    between atoms: N_8  and  N_47
    3  A    between atoms: O_11  and  C_15
    4  A    between atoms: C_14  and  C_41
    5  A    between atoms: C_20  and  C_32
    6  A    between atoms: C_20  and  C_35
    7  A    between atoms: C_28  and  N_40
    8  A    between atoms: O_31  and  N_33
    9  A    between atoms: O_31  and  C_41
   10  A    between atoms: C_35  and  N_42
   11  A    between atoms: C_35  and  C_45
                            x       y       z     vdW  Elec       q    Type
                         _______ _______ _______ _____ _____    ______ ____

>  <TORSDO>
F 11

$$$$
=
 OpenBabel10222415243D

 47 52  0  0  1  0  0  0  0  0999 V2000
  180.8040  178.8470  139.9440 N   0  0  0  0  0  0  0  0  0  0  0  0
  181.4040  178.5630  138.6360 C   0  0  2  0  0  3  0  0  0  0  0  0
  185.0940  178.2580  137.6080 C   0  0  0  0  0  3  0  0  0  0  0  0
  183.6030  178.4770  139.9990 C   0  0  0  0  0  0  0  0  0  0  0  0
  184.4010  178.7390  144.9650 S   0  0  0  0  0  0  0  0  0  0  0  0
  181.4520  178.8660  141.0710 C   0  0  0  0  0  3  0  0  0  0  0  0
  181.7330  178.9700  143.9930 C   0  0  0  0  0  1  0  0  0  0  0  0
  185.0450  178.3220  140.0170 N   0  0  0  0  0  0  0  0  0  0  0  0
  185.0940  178.4380  142.4150 C   0  0  0  0  0  0  0  0  0  0  0  0
  185.7420  178.4320  143.7530 C   0  0  2  0  0  3  0  0  0  0  0  0
  185.7580  178.2990  141.2690 C   0  0  0  0  0  2  0  0  0  0  0  0
  183.1720  178.7770  143.6590 C   0  0  1  0  0  3  0  0  0  0  0  0
  185.7600  178.2170  138.7670 C   0  0  0  0  0  0  0  0  0  0  0  0
  180.8650  177.3150  138.1230 N   0  0  0  0  0  1  0  0  0  0  0  0
  183.6550  178.6270  142.4280 C   0  0  0  0  0  0  0  0  0  0  0  0
  182.9070  178.4870  138.6960 C   0  0  0  0  0  0  0  0  0  0  0  0
  183.6230  178.3890  137.5720 C   0  0  0  0  0  3  0  0  0  0  0  0
  182.9080  178.6370  141.1390 C   0  0  0  0  0  0  0  0  0  0  0  0
  188.1920  177.9900  145.2210 N   0  0  0  0  0  0  0  0  0  0  0  0
  187.5530  176.9660  144.7480 C   0  0  0  0  0  3  0  0  0  0  0  0
  186.3440  177.1300  144.0060 N   0  0  0  0  0  2  0  0  0  0  0  0
  189.3410  177.7410  147.4300 C   0  0  0  0  0  2  0  0  0  0  0  0
  190.6330  177.8520  145.2140 C   0  0  0  0  0  2  0  0  0  0  0  0
  190.7100  177.5160  148.0700 C   0  0  0  0  0  2  0  0  0  0  0  0
  191.2210  176.4480  145.1970 C   0  0  0  0  0  2  0  0  0  0  0  0
  192.0870  176.2130  146.4280 C   0  0  0  0  0  2  0  0  0  0  0  0
  191.2580  176.1410  147.7030 C   0  0  0  0  0  2  0  0  0  0  0  0
  189.3820  177.8690  145.9630 N   0  0  0  0  0  0  0  0  0  0  0  0
  187.2490  178.0820  138.7390 C   0  0  0  0  0  2  0  0  0  0  0  0
  187.6910  177.3400  137.4770 C   0  0  1  0  0  3  0  0  0  0  0  0
  188.9570  179.3800  137.1820 C   0  0  0  0  0  1  0  0  0  0  0  0
  188.4550  178.1690  136.5400 N   0  0  0  0  0  2  0  0  0  0  0  0
  188.3330  175.9730  137.7430 C   0  0  0  0  0  2  0  0  0  0  0  0
  189.7000  176.0900  138.2290 N   0  0  0  0  0  0  0  0  0  0  0  0
  191.4550  176.8590  139.4590 C   0  0  0  0  0  0  0  0  0  0  0  0
  190.8770  175.6220  137.5890 C   0  0  0  0  0  0  0  0  0  0  0  0
  192.0210  176.0810  138.3500 C   0  0  0  0  0  0  0  0  0  0  0  0
  190.8970  174.9580  136.5150 O   0  0  0  0  0  0  0  0  0  0  0  0
  190.1230  176.8580  139.3630 C   0  0  0  0  0  3  0  0  0  0  0  0
  193.2750  175.8490  138.1200 N   0  0  0  0  0  0  0  0  0  0  0  0
  191.7090  177.5160  141.8280 C   0  0  0  0  0  1  0  0  0  0  0  0
  192.1490  177.5180  140.4780 O   0  0  0  0  0  0  0  0  0  0  0  0
  193.6810  175.1000  137.0380 O   0  0  0  0  0  0  0  0  0  0  0  0
  194.5540  172.8840  136.7160 C   0  0  0  0  0  1  0  0  0  0  0  0
  194.8610  174.3170  137.1140 C   0  0  2  0  0  3  0  0  0  0  0  0
  195.4470  174.3670  138.5220 C   0  0  0  0  0  2  0  0  0  0  0  0
  195.6610  173.0770  139.0190 O   0  0  0  0  0  1  0  0  0  0  0  0
  1  6  2  0  0  0  0
  2 14  1  1  0  0  0
  2 16  1  0  0  0  0
  2  1  1  0  0  0  0
  3 13  2  0  0  0  0
  4  8  1  0  0  0  0
  4 18  2  0  0  0  0
  6 18  1  0  0  0  0
  8 11  1  0  0  0  0
  9 15  2  0  0  0  0
  9 10  1  0  0  0  0
 10 21  1  1  0  0  0
 10  5  1  0  0  0  0
 11  9  1  0  0  0  0
 12  7  1  6  0  0  0
 12  5  1  0  0  0  0
 13  8  1  0  0  0  0
 15 12  1  0  0  0  0
 16  4  1  0  0  0  0
 17  3  1  0  0  0  0
 17 16  2  0  0  0  0
 18 15  1  0  0  0  0
 19 28  1  0  0  0  0
 20 19  2  0  0  0  0
 21 20  1  0  0  0  0
 22 24  1  0  0  0  0
 23 28  1  0  0  0  0
 25 23  1  0  0  0  0
 25 26  1  0  0  0  0
 26 27  1  0  0  0  0
 27 24  1  0  0  0  0
 28 22  1  0  0  0  0
 29 13  1  0  0  0  0
 30 33  1  1  0  0  0
 30 29  1  0  0  0  0
 32 31  1  0  0  0  0
 32 30  1  0  0  0  0
 33 34  1  0  0  0  0
 34 39  1  0  0  0  0
 35 42  1  0  0  0  0
 36 34  1  0  0  0  0
 36 37  1  0  0  0  0
 37 35  1  0  0  0  0
 38 36  2  0  0  0  0
 39 35  2  0  0  0  0
 40 37  2  0  0  0  0
 42 41  1  0  0  0  0
 43 45  1  0  0  0  0
 43 40  1  0  0  0  0
 45 44  1  1  0  0  0
 45 46  1  0  0  0  0
 46 47  1  0  0  0  0
M  END
>  <MODEL>
6

>  <REMARK>
 VINA RESULT:      -7.9      2.111      6.655
  Name = 
  11 active torsions:
  status: ('A' for Active; 'I' for Inactive)
    1  A    between atoms: N_3  and  C_45
    2  A    between atoms: N_8  and  N_47
    3  A    between atoms: O_11  and  C_15
    4  A    between atoms: C_14  and  C_41
    5  A    between atoms: C_20  and  C_32
    6  A    between atoms: C_20  and  C_35
    7  A    between atoms: C_28  and  N_40
    8  A    between atoms: O_31  and  N_33
    9  A    between atoms: O_31  and  C_41
   10  A    between atoms: C_35  and  N_42
   11  A    between atoms: C_35  and  C_45
                            x       y       z     vdW  Elec       q    Type
                         _______ _______ _______ _____ _____    ______ ____

>  <TORSDO>
F 11

$$$$
=
 OpenBabel10222415243D

 47 52  0  0  1  0  0  0  0  0999 V2000
  184.1800  178.6280  146.5570 N   0  0  0  0  0  0  0  0  0  0  0  0
  185.6190  178.4200  146.7520 C   0  0  0  0  0  0  0  0  0  0  0  0
  188.3530  177.4450  144.2350 C   0  0  0  0  0  3  0  0  0  0  0  0
  185.6350  178.2150  144.1720 C   0  0  2  0  0  3  0  0  0  0  0  0
  181.9610  178.9180  140.8000 S   0  0  0  0  0  0  0  0  0  0  0  0
  183.5890  178.6970  145.4010 C   0  0  0  0  0  3  0  0  0  0  0  0
  181.3530  179.2090  143.5680 C   0  0  0  0  0  1  0  0  0  0  0  0
  186.3790  177.9660  142.9530 N   0  0  0  0  0  0  0  0  0  0  0  0
  184.4450  178.4090  141.6010 C   0  0  0  0  0  0  0  0  0  0  0  0
  183.6930  178.5510  140.3260 C   0  0  2  0  0  3  0  0  0  0  0  0
  185.7340  178.0860  141.6700 C   0  0  0  0  0  2  0  0  0  0  0  0
  182.3910  178.9150  142.5410 C   0  0  1  0  0  3  0  0  0  0  0  0
  187.7660  177.5730  143.0400 C   0  0  0  0  0  0  0  0  0  0  0  0
  186.1990  179.6110  147.3510 N   0  0  0  0  0  1  0  0  0  0  0  0
  183.6650  178.6320  142.8050 C   0  0  0  0  0  0  0  0  0  0  0  0
  186.3330  178.0910  145.4680 C   0  0  0  0  0  0  0  0  0  0  0  0
  187.6170  177.7200  145.4850 C   0  0  0  0  0  3  0  0  0  0  0  0
  184.3270  178.5250  144.1350 C   0  0  0  0  0  0  0  0  0  0  0  0
  182.1440  180.3350  138.6630 N   0  0  0  0  0  0  0  0  0  0  0  0
  183.4230  180.5180  138.7530 C   0  0  0  0  0  3  0  0  0  0  0  0
  184.2370  179.6580  139.5520 N   0  0  0  0  0  2  0  0  0  0  0  0
  181.4310  182.6310  137.9680 C   0  0  0  0  0  2  0  0  0  0  0  0
  180.3500  180.5080  137.0110 C   0  0  0  0  0  2  0  0  0  0  0  0
  180.5230  183.3790  136.9940 C   0  0  0  0  0  2  0  0  0  0  0  0
  180.7910  180.6360  135.5590 C   0  0  0  0  0  2  0  0  0  0  0  0
  180.2800  181.9380  134.9550 C   0  0  0  0  0  2  0  0  0  0  0  0
  180.9740  183.1550  135.5550 C   0  0  0  0  0  2  0  0  0  0  0  0
  181.3080  181.1650  137.8920 N   0  0  0  0  0  0  0  0  0  0  0  0
  188.5640  177.2820  141.8090 C   0  0  0  0  0  2  0  0  0  0  0  0
  189.9670  177.8800  141.9320 C   0  0  1  0  0  3  0  0  0  0  0  0
  191.6840  176.8720  143.3070 C   0  0  0  0  0  1  0  0  0  0  0  0
  190.5380  177.7760  143.2790 N   0  0  0  0  0  2  0  0  0  0  0  0
  190.9350  177.4470  140.8260 C   0  0  0  0  0  2  0  0  0  0  0  0
  190.3240  177.4990  139.5050 N   0  0  0  0  0  0  0  0  0  0  0  0
  188.9400  178.1900  137.8350 C   0  0  0  0  0  0  0  0  0  0  0  0
  190.3670  176.4930  138.5050 C   0  0  0  0  0  0  0  0  0  0  0  0
  189.5060  176.9020  137.4140 C   0  0  0  0  0  0  0  0  0  0  0  0
  191.0180  175.4150  138.5950 O   0  0  0  0  0  0  0  0  0  0  0  0
  189.4160  178.5070  139.0410 C   0  0  0  0  0  3  0  0  0  0  0  0
  189.2850  176.2800  136.2990 N   0  0  0  0  0  0  0  0  0  0  0  0
  186.7940  178.5160  136.6540 C   0  0  0  0  0  1  0  0  0  0  0  0
  188.0420  178.9970  137.1290 O   0  0  0  0  0  0  0  0  0  0  0  0
  189.8800  175.0700  136.0210 O   0  0  0  0  0  0  0  0  0  0  0  0
  188.4550  173.3150  136.8370 C   0  0  0  0  0  1  0  0  0  0  0  0
  189.0900  173.9620  135.6190 C   0  0  2  0  0  3  0  0  0  0  0  0
  189.9370  172.9490  134.8550 C   0  0  0  0  0  2  0  0  0  0  0  0
  191.1440  172.7050  135.5210 O   0  0  0  0  0  1  0  0  0  0  0  0
  1  2  2  0  0  0  0
  2 14  1  0  0  0  0
  3 17  1  0  0  0  0
  4 18  1  1  0  0  0
  4 16  1  0  0  0  0
  5 12  1  0  0  0  0
  6  1  1  0  0  0  0
  8 13  1  0  0  0  0
  8  4  1  0  0  0  0
  9 11  1  0  0  0  0
  9 15  2  0  0  0  0
 10 21  1  6  0  0  0
 10  5  1  0  0  0  0
 10  9  1  0  0  0  0
 11  8  1  0  0  0  0
 12 15  1  0  0  0  0
 12  7  1  1  0  0  0
 13  3  2  0  0  0  0
 15 18  1  0  0  0  0
 16 17  2  0  0  0  0
 16  2  1  0  0  0  0
 18  6  2  0  0  0  0
 19 20  2  0  0  0  0
 20 21  1  0  0  0  0
 23 28  1  0  0  0  0
 24 22  1  0  0  0  0
 25 23  1  0  0  0  0
 26 27  1  0  0  0  0
 26 25  1  0  0  0  0
 27 24  1  0  0  0  0
 28 22  1  0  0  0  0
 28 19  1  0  0  0  0
 29 30  1  0  0  0  0
 29 13  1  0  0  0  0
 30 33  1  6  0  0  0
 30 32  1  0  0  0  0
 32 31  1  0  0  0  0
 34 33  1  0  0  0  0
 35 39  2  0  0  0  0
 36 38  2  0  0  0  0
 36 34  1  0  0  0  0
 37 35  1  0  0  0  0
 37 36  1  0  0  0  0
 39 34  1  0  0  0  0
 40 37  2  0  0  0  0
 41 42  1  0  0  0  0
 42 35  1  0  0  0  0
 43 40  1  0  0  0  0
 45 43  1  0  0  0  0
 45 44  1  1  0  0  0
 46 47  1  0  0  0  0
 46 45  1  0  0  0  0
M  END
>  <MODEL>
7

>  <REMARK>
 VINA RESULT:      -7.6      2.653      4.061
  Name = 
  11 active torsions:
  status: ('A' for Active; 'I' for Inactive)
    1  A    between atoms: N_3  and  C_45
    2  A    between atoms: N_8  and  N_47
    3  A    between atoms: O_11  and  C_15
    4  A    between atoms: C_14  and  C_41
    5  A    between atoms: C_20  and  C_32
    6  A    between atoms: C_20  and  C_35
    7  A    between atoms: C_28  and  N_40
    8  A    between atoms: O_31  and  N_33
    9  A    between atoms: O_31  and  C_41
   10  A    between atoms: C_35  and  N_42
   11  A    between atoms: C_35  and  C_45
                            x       y       z     vdW  Elec       q    Type
                         _______ _______ _______ _____ _____    ______ ____

>  <TORSDO>
F 11

$$$$
=
 OpenBabel10222415243D

 47 52  0  0  1  0  0  0  0  0999 V2000
  186.7840  178.1100  147.1050 N   0  0  0  0  0  0  0  0  0  0  0  0
  185.4620  178.3690  146.5230 C   0  0  0  0  0  0  0  0  0  0  0  0
  184.4480  179.1100  142.8910 C   0  0  0  0  0  3  0  0  0  0  0  0
  186.7620  178.2820  144.2860 C   0  0  2  0  0  3  0  0  0  0  0  0
  191.5690  177.1270  143.3250 S   0  0  0  0  0  0  0  0  0  0  0  0
  187.8690  177.8990  146.4210 C   0  0  0  0  0  3  0  0  0  0  0  0
  190.6780  177.1370  146.0310 C   0  0  0  0  0  1  0  0  0  0  0  0
  186.7530  178.4070  142.8420 N   0  0  0  0  0  0  0  0  0  0  0  0
  189.0660  177.7750  142.7050 C   0  0  0  0  0  0  0  0  0  0  0  0
  190.3430  177.4750  142.0070 C   0  0  2  0  0  3  0  0  0  0  0  0
  187.9450  178.1300  142.0810 C   0  0  0  0  0  2  0  0  0  0  0  0
  190.3230  177.3350  144.5980 C   0  0  1  0  0  3  0  0  0  0  0  0
  185.5450  178.8360  142.1780 C   0  0  0  0  0  0  0  0  0  0  0  0
  184.5730  177.2650  146.8440 N   0  0  0  0  0  1  0  0  0  0  0  0
  189.1150  177.6730  144.1530 C   0  0  0  0  0  0  0  0  0  0  0  0
  185.5180  178.5660  145.0310 C   0  0  0  0  0  0  0  0  0  0  0  0
  184.4320  178.9630  144.3610 C   0  0  0  0  0  3  0  0  0  0  0  0
  187.8840  177.9430  144.9460 C   0  0  0  0  0  0  0  0  0  0  0  0
  189.9010  177.5260  139.1520 N   0  0  0  0  0  0  0  0  0  0  0  0
  189.9760  176.3800  139.7520 C   0  0  0  0  0  3  0  0  0  0  0  0
  190.1820  176.2990  141.1630 N   0  0  0  0  0  2  0  0  0  0  0  0
  190.1770  176.5950  136.8460 C   0  0  0  0  0  2  0  0  0  0  0  0
  189.0040  178.8350  137.2910 C   0  0  0  0  0  2  0  0  0  0  0  0
  189.7960  176.8310  135.3850 C   0  0  0  0  0  2  0  0  0  0  0  0
  187.5950  178.4730  136.8410 C   0  0  0  0  0  2  0  0  0  0  0  0
  187.5950  178.0330  135.3820 C   0  0  0  0  0  2  0  0  0  0  0  0
  188.2910  176.6920  135.1910 C   0  0  0  0  0  2  0  0  0  0  0  0
  189.7070  177.6470  137.7630 N   0  0  0  0  0  0  0  0  0  0  0  0
  185.4990  179.0030  140.6920 C   0  0  0  0  0  2  0  0  0  0  0  0
  184.1820  178.4570  140.1370 C   0  0  1  0  0  3  0  0  0  0  0  0
  183.0030  180.1970  138.9380 C   0  0  0  0  0  1  0  0  0  0  0  0
  183.0790  179.4230  140.1740 N   0  0  0  0  0  2  0  0  0  0  0  0
  184.3160  177.7380  138.7900 C   0  0  0  0  0  2  0  0  0  0  0  0
  183.2810  176.7320  138.5960 N   0  0  0  0  0  0  0  0  0  0  0  0
  181.5360  175.3600  139.1010 C   0  0  0  0  0  0  0  0  0  0  0  0
  183.2100  175.7710  137.5550 C   0  0  0  0  0  0  0  0  0  0  0  0
  182.1000  174.8820  137.8320 C   0  0  0  0  0  0  0  0  0  0  0  0
  184.0170  175.6970  136.5860 O   0  0  0  0  0  0  0  0  0  0  0  0
  182.2350  176.4150  139.5240 C   0  0  0  0  0  3  0  0  0  0  0  0
  181.6790  173.8870  137.1170 N   0  0  0  0  0  0  0  0  0  0  0  0
  179.2470  175.5650  140.0100 C   0  0  0  0  0  1  0  0  0  0  0  0
  180.4450  174.8330  139.8000 O   0  0  0  0  0  0  0  0  0  0  0  0
  182.2990  173.5360  135.9390 O   0  0  0  0  0  0  0  0  0  0  0  0
  182.7640  171.4630  137.0620 C   0  0  0  0  0  1  0  0  0  0  0  0
  182.7490  172.2060  135.7370 C   0  0  2  0  0  3  0  0  0  0  0  0
  184.1380  172.2000  135.1050 C   0  0  0  0  0  2  0  0  0  0  0  0
  185.1080  172.6080  136.0290 O   0  0  0  0  0  1  0  0  0  0  0  0
  2 14  1  0  0  0  0
  2  1  2  0  0  0  0
  3 17  1  0  0  0  0
  4 18  1  1  0  0  0
  4 16  1  0  0  0  0
  5 12  1  0  0  0  0
  6  1  1  0  0  0  0
  8  4  1  0  0  0  0
  9 15  2  0  0  0  0
 10 21  1  6  0  0  0
 10  9  1  0  0  0  0
 10  5  1  0  0  0  0
 11  9  1  0  0  0  0
 11  8  1  0  0  0  0
 12  7  1  1  0  0  0
 13  8  1  0  0  0  0
 13  3  2  0  0  0  0
 15 12  1  0  0  0  0
 15 18  1  0  0  0  0
 16  2  1  0  0  0  0
 17 16  2  0  0  0  0
 18  6  2  0  0  0  0
 19 20  2  0  0  0  0
 20 21  1  0  0  0  0
 22 28  1  0  0  0  0
 23 28  1  0  0  0  0
 24 22  1  0  0  0  0
 25 23  1  0  0  0  0
 26 25  1  0  0  0  0
 27 26  1  0  0  0  0
 27 24  1  0  0  0  0
 28 19  1  0  0  0  0
 29 13  1  0  0  0  0
 30 33  1  6  0  0  0
 30 32  1  0  0  0  0
 30 29  1  0  0  0  0
 31 32  1  0  0  0  0
 34 33  1  0  0  0  0
 34 39  1  0  0  0  0
 35 39  2  0  0  0  0
 35 42  1  0  0  0  0
 36 37  1  0  0  0  0
 36 34  1  0  0  0  0
 37 35  1  0  0  0  0
 38 36  2  0  0  0  0
 40 37  2  0  0  0  0
 42 41  1  0  0  0  0
 43 40  1  0  0  0  0
 45 43  1  0  0  0  0
 45 44  1  1  0  0  0
 46 45  1  0  0  0  0
 46 47  1  0  0  0  0
M  END
>  <MODEL>
8

>  <REMARK>
 VINA RESULT:      -7.6      3.897      7.449
  Name = 
  11 active torsions:
  status: ('A' for Active; 'I' for Inactive)
    1  A    between atoms: N_3  and  C_45
    2  A    between atoms: N_8  and  N_47
    3  A    between atoms: O_11  and  C_15
    4  A    between atoms: C_14  and  C_41
    5  A    between atoms: C_20  and  C_32
    6  A    between atoms: C_20  and  C_35
    7  A    between atoms: C_28  and  N_40
    8  A    between atoms: O_31  and  N_33
    9  A    between atoms: O_31  and  C_41
   10  A    between atoms: C_35  and  N_42
   11  A    between atoms: C_35  and  C_45
                            x       y       z     vdW  Elec       q    Type
                         _______ _______ _______ _____ _____    ______ ____

>  <TORSDO>
F 11

$$$$
=
 OpenBabel10222415243D

 47 52  0  0  1  0  0  0  0  0999 V2000
  186.7990  177.9380  147.6260 N   0  0  0  0  0  0  0  0  0  0  0  0
  188.2060  177.5570  147.4530 C   0  0  0  0  0  0  0  0  0  0  0  0
  190.1060  176.4260  144.3110 C   0  0  0  0  0  3  0  0  0  0  0  0
  187.5700  177.5000  144.9440 C   0  0  2  0  0  3  0  0  0  0  0  0
  183.3040  178.8040  142.6070 S   0  0  0  0  0  0  0  0  0  0  0  0
  185.9590  178.1390  146.6540 C   0  0  0  0  0  3  0  0  0  0  0  0
  183.4260  179.0040  145.4460 C   0  0  0  0  0  1  0  0  0  0  0  0
  187.9600  177.2380  143.5720 N   0  0  0  0  0  0  0  0  0  0  0  0
  185.8260  177.9730  142.7540 C   0  0  0  0  0  0  0  0  0  0  0  0
  184.8110  178.2710  141.7090 C   0  0  2  0  0  3  0  0  0  0  0  0
  187.0430  177.5020  142.4930 C   0  0  0  0  0  2  0  0  0  0  0  0
  184.1400  178.6530  144.1870 C   0  0  1  0  0  3  0  0  0  0  0  0
  189.2670  176.6870  143.3030 C   0  0  0  0  0  0  0  0  0  0  0  0
  189.0550  178.6400  147.9210 N   0  0  0  0  0  1  0  0  0  0  0  0
  185.3950  178.2140  144.1190 C   0  0  0  0  0  0  0  0  0  0  0  0
  188.5410  177.2240  146.0230 C   0  0  0  0  0  0  0  0  0  0  0  0
  189.7350  176.7100  145.7120 C   0  0  0  0  0  3  0  0  0  0  0  0
  186.3410  177.9570  145.2400 C   0  0  0  0  0  0  0  0  0  0  0  0
  185.2570  178.0640  138.8620 N   0  0  0  0  0  0  0  0  0  0  0  0
  185.4770  179.1990  139.4480 C   0  0  0  0  0  3  0  0  0  0  0  0
  185.2830  179.3510  140.8550 N   0  0  0  0  0  2  0  0  0  0  0  0
  186.6850  178.2790  136.8170 C   0  0  0  0  0  2  0  0  0  0  0  0
  184.3330  177.2500  136.7490 C   0  0  0  0  0  2  0  0  0  0  0  0
  186.7480  177.9130  135.3350 C   0  0  0  0  0  2  0  0  0  0  0  0
  184.6960  175.8220  136.3700 C   0  0  0  0  0  2  0  0  0  0  0  0
  185.4420  175.7920  135.0420 C   0  0  0  0  0  2  0  0  0  0  0  0
  186.8330  176.4010  135.1560 C   0  0  0  0  0  2  0  0  0  0  0  0
  185.4300  177.8770  137.4770 N   0  0  0  0  0  0  0  0  0  0  0  0
  189.7010  176.3780  141.9050 C   0  0  0  0  0  2  0  0  0  0  0  0
  190.4950  177.5500  141.3250 C   0  0  1  0  0  3  0  0  0  0  0  0
  192.2410  178.2720  142.8360 C   0  0  0  0  0  1  0  0  0  0  0  0
  191.9270  177.5050  141.6340 N   0  0  0  0  0  2  0  0  0  0  0  0
  190.2000  177.8410  139.8490 C   0  0  0  0  0  2  0  0  0  0  0  0
  190.6910  176.7900  138.9700 N   0  0  0  0  0  0  0  0  0  0  0  0
  192.1720  175.5670  137.7480 C   0  0  0  0  0  0  0  0  0  0  0  0
  189.9200  175.9780  138.0970 C   0  0  0  0  0  0  0  0  0  0  0  0
  190.8290  175.1720  137.3070 C   0  0  0  0  0  0  0  0  0  0  0  0
  188.6610  176.0060  138.0110 O   0  0  0  0  0  0  0  0  0  0  0  0
  192.0680  176.5030  138.6950 C   0  0  0  0  0  3  0  0  0  0  0  0
  190.5310  174.2830  136.4130 N   0  0  0  0  0  0  0  0  0  0  0  0
  193.7780  173.7170  137.4220 C   0  0  0  0  0  1  0  0  0  0  0  0
  193.3980  175.0780  137.2860 O   0  0  0  0  0  0  0  0  0  0  0  0
  189.2230  174.0020  136.0860 O   0  0  0  0  0  0  0  0  0  0  0  0
  188.8710  171.7640  135.2850 C   0  0  0  0  0  1  0  0  0  0  0  0
  188.6570  172.7460  136.4230 C   0  0  2  0  0  3  0  0  0  0  0  0
  187.1690  172.8940  136.7290 C   0  0  0  0  0  2  0  0  0  0  0  0
  186.4260  171.9000  136.0830 O   0  0  0  0  0  1  0  0  0  0  0  0
  2  1  2  0  0  0  0
  2 14  1  0  0  0  0
  3 17  1  0  0  0  0
  4 18  1  1  0  0  0
  4 16  1  0  0  0  0
  5 12  1  0  0  0  0
  6  1  1  0  0  0  0
  8  4  1  0  0  0  0
  9 15  2  0  0  0  0
 10 21  1  6  0  0  0
 10  5  1  0  0  0  0
 10  9  1  0  0  0  0
 11  9  1  0  0  0  0
 11  8  1  0  0  0  0
 12  7  1  1  0  0  0
 13  8  1  0  0  0  0
 13  3  2  0  0  0  0
 15 12  1  0  0  0  0
 15 18  1  0  0  0  0
 16  2  1  0  0  0  0
 17 16  2  0  0  0  0
 18  6  2  0  0  0  0
 19 20  2  0  0  0  0
 20 21  1  0  0  0  0
 22 28  1  0  0  0  0
 23 28  1  0  0  0  0
 24 22  1  0  0  0  0
 25 23  1  0  0  0  0
 26 27  1  0  0  0  0
 26 25  1  0  0  0  0
 27 24  1  0  0  0  0
 28 19  1  0  0  0  0
 29 13  1  0  0  0  0
 30 33  1  6  0  0  0
 30 32  1  0  0  0  0
 30 29  1  0  0  0  0
 32 31  1  0  0  0  0
 34 33  1  0  0  0  0
 35 39  2  0  0  0  0
 36 34  1  0  0  0  0
 37 35  1  0  0  0  0
 37 36  1  0  0  0  0
 38 36  2  0  0  0  0
 39 34  1  0  0  0  0
 40 37  2  0  0  0  0
 42 41  1  0  0  0  0
 42 35  1  0  0  0  0
 43 40  1  0  0  0  0
 43 45  1  0  0  0  0
 45 44  1  6  0  0  0
 45 46  1  0  0  0  0
 47 46  1  0  0  0  0
M  END
>  <MODEL>
9

>  <REMARK>
 VINA RESULT:      -7.6      1.650      3.323
  Name = 
  11 active torsions:
  status: ('A' for Active; 'I' for Inactive)
    1  A    between atoms: N_3  and  C_45
    2  A    between atoms: N_8  and  N_47
    3  A    between atoms: O_11  and  C_15
    4  A    between atoms: C_14  and  C_41
    5  A    between atoms: C_20  and  C_32
    6  A    between atoms: C_20  and  C_35
    7  A    between atoms: C_28  and  N_40
    8  A    between atoms: O_31  and  N_33
    9  A    between atoms: O_31  and  C_41
   10  A    between atoms: C_35  and  N_42
   11  A    between atoms: C_35  and  C_45
                            x       y       z     vdW  Elec       q    Type
                         _______ _______ _______ _____ _____    ______ ____

>  <TORSDO>
F 11

$$$$
