=
 OpenBabel10222415513D

 47 52  0  0  1  0  0  0  0  0999 V2000
  183.2790  176.1710  134.9940 C   0  0  0  0  0  1  0  0  0  0  0  0
  183.2360  178.5720  137.6840 C   0  0  0  0  0  0  0  0  0  0  0  0
  182.8780  180.3340  139.2180 N   0  0  0  0  0  0  0  0  0  0  0  0
  180.6650  177.9400  135.1490 C   0  0  0  0  0  1  0  0  0  0  0  0
  181.8320  177.9850  136.0750 C   0  0  0  0  0  0  0  0  0  0  0  0
  182.9890  177.2100  136.0250 C   0  0  0  0  0  0  0  0  0  0  0  0
  181.6550  180.5810  138.6510 C   0  0  0  0  0  3  0  0  0  0  0  0
  181.2160  179.8330  137.5950 N   0  0  0  0  0  0  0  0  0  0  0  0
  182.0180  178.8410  137.1360 C   0  0  0  0  0  0  0  0  0  0  0  0
  183.6960  179.3430  138.7490 C   0  0  0  0  0  0  0  0  0  0  0  0
  183.8450  177.5680  137.0210 N   0  0  0  0  0  0  0  0  0  0  0  0
  186.6310  175.0510  136.7610 C   0  0  0  0  0  2  0  0  0  0  0  0
  189.6260  177.0320  136.1290 C   0  0  2  0  0  3  0  0  0  0  0  0
  187.7290  175.9990  137.2520 C   0  0  2  0  0  3  0  0  0  0  0  0
  185.1930  177.0650  137.2730 C   0  0  2  0  0  3  0  0  0  0  0  0
  188.4460  177.9660  135.9750 C   0  0  0  0  0  2  0  0  0  0  0  0
  190.2860  176.8990  134.9210 F   0  0  0  0  0  0  0  0  0  0  0  0
  187.3920  177.4730  136.9470 C   0  0  1  0  0  3  0  0  0  0  0  0
  186.1120  177.6390  136.3750 O   0  0  0  0  0  0  0  0  0  0  0  0
  185.2480  175.5300  137.2190 C   0  0  0  0  0  2  0  0  0  0  0  0
  189.0480  175.6980  136.5590 C   0  0  2  0  0  3  0  0  0  0  0  0
  190.0150  174.9090  137.4510 C   0  0  0  0  0  2  0  0  0  0  0  0
  192.2840  175.9730  138.0520 C   0  0  0  0  0  1  0  0  0  0  0  0
  190.8320  175.7730  138.3720 C   0  0  0  0  0  0  0  0  0  0  0  0
  190.2730  176.3230  139.3990 N   0  0  0  0  0  0  0  0  0  0  0  0
  190.9800  177.1610  140.3400 C   0  0  0  0  0  2  0  0  0  0  0  0
  190.3460  177.0760  141.6850 C   0  0  0  0  0  0  0  0  0  0  0  0
  190.2930  175.8310  142.3700 N   0  0  0  0  0  1  0  0  0  0  0  0
  189.8350  178.1020  142.2060 O   0  0  0  0  0  0  0  0  0  0  0  0
  184.9410  179.0880  139.3350 O   0  0  0  0  0  0  0  0  0  0  0  0
  185.1760  179.1820  140.6940 N   0  0  0  0  0  2  0  0  0  0  0  0
  184.6090  178.3040  141.6750 C   0  0  0  0  0  0  0  0  0  0  0  0
  183.7020  177.4900  141.3460 O   0  0  0  0  0  0  0  0  0  0  0  0
  182.7980  179.0390  144.1450 C   0  0  0  0  0  1  0  0  0  0  0  0
  184.9370  178.6530  145.4180 C   0  0  0  0  0  3  0  0  0  0  0  0
  186.6010  178.0670  143.6190 S   0  0  0  0  0  0  0  0  0  0  0  0
  186.2730  178.3160  145.2480 C   0  0  0  0  0  0  0  0  0  0  0  0
  184.2440  178.6890  144.2010 C   0  0  0  0  0  0  0  0  0  0  0  0
  185.0330  178.3830  143.0850 C   0  0  0  0  0  0  0  0  0  0  0  0
  187.2390  178.1830  146.2930 N   0  0  0  0  0  2  0  0  0  0  0  0
  190.1560  176.1750  147.3530 O   0  0  0  0  0  0  0  0  0  0  0  0
  188.4690  177.4240  146.1270 C   0  0  1  0  0  3  0  0  0  0  0  0
  189.5770  178.3350  145.6110 C   0  0  0  0  0  2  0  0  0  0  0  0
  192.3240  176.1420  146.5980 O   0  0  0  0  0  0  0  0  0  0  0  0
  191.1630  176.6090  146.4820 C   0  0  0  0  0  0  0  0  0  0  0  0
  190.8430  177.5250  145.3390 C   0  0  0  0  0  2  0  0  0  0  0  0
  188.9050  176.8590  147.4720 C   0  0  0  0  0  2  0  0  0  0  0  0
  1  6  1  0  0  0  0
  2 10  1  0  0  0  0
  4  5  1  0  0  0  0
  5  9  1  0  0  0  0
  6  5  2  0  0  0  0
  6 11  1  0  0  0  0
  7  3  1  0  0  0  0
  8  7  2  0  0  0  0
  9  8  1  0  0  0  0
  9  2  2  0  0  0  0
 10  3  2  0  0  0  0
 10 30  1  0  0  0  0
 11  2  1  0  0  0  0
 12 20  1  0  0  0  0
 13 17  1  6  0  0  0
 13 21  1  0  0  0  0
 14 12  1  6  0  0  0
 15 11  1  6  0  0  0
 16 13  1  0  0  0  0
 18 16  1  6  0  0  0
 18 14  1  0  0  0  0
 19 18  1  0  0  0  0
 19 15  1  0  0  0  0
 20 15  1  0  0  0  0
 21 14  1  0  0  0  0
 21 22  1  1  0  0  0
 22 24  1  0  0  0  0
 23 24  1  0  0  0  0
 24 25  2  0  0  0  0
 25 26  1  0  0  0  0
 26 27  1  0  0  0  0
 27 29  2  0  0  0  0
 27 28  1  0  0  0  0
 30 31  1  0  0  0  0
 31 32  1  0  0  0  0
 32 39  1  0  0  0  0
 33 32  2  0  0  0  0
 34 38  1  0  0  0  0
 36 37  1  0  0  0  0
 37 35  2  0  0  0  0
 37 40  1  0  0  0  0
 38 35  1  0  0  0  0
 39 36  1  0  0  0  0
 39 38  2  0  0  0  0
 41 47  1  0  0  0  0
 42 40  1  1  0  0  0
 42 47  1  0  0  0  0
 43 42  1  0  0  0  0
 45 44  2  0  0  0  0
 45 41  1  0  0  0  0
 46 43  1  0  0  0  0
 46 45  1  0  0  0  0
M  END
>  <MODEL>
1

>  <REMARK>
 VINA RESULT:      -9.3      0.000      0.000
  Name = 
  10 active torsions:
  status: ('A' for Active; 'I' for Inactive)
    1  A    between atoms: C_2  and  C_34
    2  A    between atoms: C_2  and  C_46
    3  A    between atoms: N_6  and  O_10
    4  A    between atoms: C_7  and  N_29
    5  A    between atoms: C_8  and  C_31
    6  A    between atoms: O_10  and  C_42
    7  A    between atoms: C_18  and  N_47
    8  A    between atoms: C_19  and  C_45
    9  A    between atoms: N_29  and  C_37
   10  A    between atoms: C_31  and  N_38
                            x       y       z     vdW  Elec       q    Type
                         _______ _______ _______ _____ _____    ______ ____

>  <TORSDO>
F 10

$$$$
=
 OpenBabel10222415513D

 47 52  0  0  1  0  0  0  0  0999 V2000
  183.7820  178.5550  144.6240 C   0  0  0  0  0  1  0  0  0  0  0  0
  184.7330  178.7900  141.1530 C   0  0  0  0  0  0  0  0  0  0  0  0
  184.9350  178.8350  138.7990 N   0  0  0  0  0  0  0  0  0  0  0  0
  181.3660  178.7710  142.5990 C   0  0  0  0  0  1  0  0  0  0  0  0
  182.8170  178.7870  142.2640 C   0  0  0  0  0  0  0  0  0  0  0  0
  183.8960  178.6990  143.1430 C   0  0  0  0  0  0  0  0  0  0  0  0
  183.5700  178.8920  138.6830 C   0  0  0  0  0  3  0  0  0  0  0  0
  182.7790  178.8900  139.7960 N   0  0  0  0  0  0  0  0  0  0  0  0
  183.3800  178.8420  141.0100 C   0  0  0  0  0  0  0  0  0  0  0  0
  185.5450  178.7730  140.0210 C   0  0  0  0  0  0  0  0  0  0  0  0
  185.0710  178.7100  142.4560 N   0  0  0  0  0  0  0  0  0  0  0  0
  187.6040  177.7090  145.0540 C   0  0  0  0  0  2  0  0  0  0  0  0
  190.2870  176.1040  143.1770 C   0  0  2  0  0  3  0  0  0  0  0  0
  188.8140  177.7990  144.1200 C   0  0  2  0  0  3  0  0  0  0  0  0
  186.4230  178.5550  142.9860 C   0  0  2  0  0  3  0  0  0  0  0  0
  189.1300  176.2820  142.2180 C   0  0  0  0  0  2  0  0  0  0  0  0
  190.5390  174.7580  143.3700 F   0  0  0  0  0  0  0  0  0  0  0  0
  188.4200  177.5510  142.6480 C   0  0  1  0  0  3  0  0  0  0  0  0
  187.0290  177.3940  142.4680 O   0  0  0  0  0  0  0  0  0  0  0  0
  186.4370  178.5500  144.5230 C   0  0  0  0  0  2  0  0  0  0  0  0
  189.8500  176.7460  144.4800 C   0  0  2  0  0  3  0  0  0  0  0  0
  191.0340  177.3290  145.2620 C   0  0  0  0  0  2  0  0  0  0  0  0
  189.9610  176.6170  147.4950 C   0  0  0  0  0  1  0  0  0  0  0  0
  191.1890  176.7550  146.6440 C   0  0  0  0  0  0  0  0  0  0  0  0
  192.3560  176.3900  147.0590 N   0  0  0  0  0  0  0  0  0  0  0  0
  192.6010  175.8360  148.3710 C   0  0  0  0  0  2  0  0  0  0  0  0
  193.2330  176.8560  149.2530 C   0  0  0  0  0  0  0  0  0  0  0  0
  192.5250  178.0430  149.5890 N   0  0  0  0  0  1  0  0  0  0  0  0
  194.4020  176.6790  149.6830 O   0  0  0  0  0  0  0  0  0  0  0  0
  186.9390  178.7230  140.1370 O   0  0  0  0  0  0  0  0  0  0  0  0
  187.7340  177.8650  139.4010 N   0  0  0  0  0  2  0  0  0  0  0  0
  188.8690  178.2760  138.6300 C   0  0  0  0  0  0  0  0  0  0  0  0
  189.0950  179.5030  138.4420 O   0  0  0  0  0  0  0  0  0  0  0  0
  188.9360  177.4850  135.5810 C   0  0  0  0  0  1  0  0  0  0  0  0
  190.7780  175.9490  136.3530 C   0  0  0  0  0  3  0  0  0  0  0  0
  190.9060  176.3740  138.8330 S   0  0  0  0  0  0  0  0  0  0  0  0
  191.4750  175.5490  137.4850 C   0  0  0  0  0  0  0  0  0  0  0  0
  189.8100  176.9180  136.6460 C   0  0  0  0  0  0  0  0  0  0  0  0
  189.7490  177.2740  137.9990 C   0  0  0  0  0  0  0  0  0  0  0  0
  192.5310  174.5860  137.5170 N   0  0  0  0  0  2  0  0  0  0  0  0
  195.8960  175.7840  136.5660 O   0  0  0  0  0  0  0  0  0  0  0  0
  193.9210  174.9600  137.7210 C   0  0  1  0  0  3  0  0  0  0  0  0
  194.7310  173.7410  138.1480 C   0  0  0  0  0  2  0  0  0  0  0  0
  197.9840  175.1580  137.2880 O   0  0  0  0  0  0  0  0  0  0  0  0
  196.7380  175.0230  137.3860 C   0  0  0  0  0  0  0  0  0  0  0  0
  196.1700  174.1460  138.4610 C   0  0  0  0  0  2  0  0  0  0  0  0
  194.5050  175.4850  136.4160 C   0  0  0  0  0  2  0  0  0  0  0  0
  2 11  1  0  0  0  0
  3 10  2  0  0  0  0
  5  4  1  0  0  0  0
  5  6  2  0  0  0  0
  6  1  1  0  0  0  0
  7  3  1  0  0  0  0
  7  8  2  0  0  0  0
  8  9  1  0  0  0  0
  9  2  2  0  0  0  0
  9  5  1  0  0  0  0
 10 30  1  0  0  0  0
 10  2  1  0  0  0  0
 11  6  1  0  0  0  0
 13 17  1  1  0  0  0
 13 21  1  0  0  0  0
 14 21  1  0  0  0  0
 14 12  1  1  0  0  0
 15 11  1  1  0  0  0
 15 20  1  0  0  0  0
 16 13  1  0  0  0  0
 18 16  1  1  0  0  0
 18 14  1  0  0  0  0
 19 18  1  0  0  0  0
 19 15  1  0  0  0  0
 20 12  1  0  0  0  0
 21 22  1  6  0  0  0
 22 24  1  0  0  0  0
 24 25  2  0  0  0  0
 24 23  1  0  0  0  0
 25 26  1  0  0  0  0
 26 27  1  0  0  0  0
 27 28  1  0  0  0  0
 27 29  2  0  0  0  0
 31 30  1  0  0  0  0
 32 31  1  0  0  0  0
 33 32  2  0  0  0  0
 34 38  1  0  0  0  0
 35 38  1  0  0  0  0
 35 37  2  0  0  0  0
 37 40  1  0  0  0  0
 37 36  1  0  0  0  0
 38 39  2  0  0  0  0
 39 32  1  0  0  0  0
 39 36  1  0  0  0  0
 41 45  1  0  0  0  0
 42 40  1  6  0  0  0
 42 43  1  0  0  0  0
 43 46  1  0  0  0  0
 44 45  2  0  0  0  0
 45 46  1  0  0  0  0
 47 41  1  0  0  0  0
 47 42  1  0  0  0  0
M  END
>  <MODEL>
2

>  <REMARK>
 VINA RESULT:      -8.7      3.470      7.990
  Name = 
  10 active torsions:
  status: ('A' for Active; 'I' for Inactive)
    1  A    between atoms: C_2  and  C_34
    2  A    between atoms: C_2  and  C_46
    3  A    between atoms: N_6  and  O_10
    4  A    between atoms: C_7  and  N_29
    5  A    between atoms: C_8  and  C_31
    6  A    between atoms: O_10  and  C_42
    7  A    between atoms: C_18  and  N_47
    8  A    between atoms: C_19  and  C_45
    9  A    between atoms: N_29  and  C_37
   10  A    between atoms: C_31  and  N_38
                            x       y       z     vdW  Elec       q    Type
                         _______ _______ _______ _____ _____    ______ ____

>  <TORSDO>
F 10

$$$$
=
 OpenBabel10222415513D

 47 52  0  0  1  0  0  0  0  0999 V2000
  186.1860  178.6300  147.3400 C   0  0  0  0  0  1  0  0  0  0  0  0
  188.6100  177.2510  145.0530 C   0  0  0  0  0  0  0  0  0  0  0  0
  190.4960  176.5180  143.8320 N   0  0  0  0  0  0  0  0  0  0  0  0
  189.1180  178.3980  148.4960 C   0  0  0  0  0  1  0  0  0  0  0  0
  188.6540  177.9750  147.1450 C   0  0  0  0  0  0  0  0  0  0  0  0
  187.3660  178.0640  146.6210 C   0  0  0  0  0  0  0  0  0  0  0  0
  191.2890  176.7300  144.9290 C   0  0  0  0  0  3  0  0  0  0  0  0
  190.7530  177.2090  146.0910 N   0  0  0  0  0  0  0  0  0  0  0  0
  189.4210  177.4570  146.1280 C   0  0  0  0  0  0  0  0  0  0  0  0
  189.1540  176.7790  143.8600 C   0  0  0  0  0  0  0  0  0  0  0  0
  187.3420  177.6100  145.3380 N   0  0  0  0  0  0  0  0  0  0  0  0
  184.0150  178.7870  144.0300 C   0  0  0  0  0  2  0  0  0  0  0  0
  184.4470  178.9840  140.4150 C   0  0  2  0  0  3  0  0  0  0  0  0
  184.1450  178.1050  142.6650 C   0  0  2  0  0  3  0  0  0  0  0  0
  186.2170  177.6060  144.4060 C   0  0  2  0  0  3  0  0  0  0  0  0
  185.8230  178.7770  141.0070 C   0  0  0  0  0  2  0  0  0  0  0  0
  184.3800  180.2160  139.7890 F   0  0  0  0  0  0  0  0  0  0  0  0
  185.6220  177.9330  142.2500 C   0  0  1  0  0  3  0  0  0  0  0  0
  186.5270  178.3470  143.2500 O   0  0  0  0  0  0  0  0  0  0  0  0
  184.9280  178.1200  145.0650 C   0  0  0  0  0  2  0  0  0  0  0  0
  183.4800  178.9380  141.5820 C   0  0  2  0  0  3  0  0  0  0  0  0
  182.1080  178.3860  141.1750 C   0  0  0  0  0  2  0  0  0  0  0  0
  180.1990  179.8120  142.1560 C   0  0  0  0  0  1  0  0  0  0  0  0
  181.0590  179.4480  140.9830 C   0  0  0  0  0  0  0  0  0  0  0  0
  180.9300  180.0210  139.8330 N   0  0  0  0  0  0  0  0  0  0  0  0
  179.9480  181.0440  139.5550 C   0  0  0  0  0  2  0  0  0  0  0  0
  180.4700  181.9990  138.5390 C   0  0  0  0  0  0  0  0  0  0  0  0
  179.5670  182.7990  137.7840 N   0  0  0  0  0  1  0  0  0  0  0  0
  181.7080  182.0830  138.3310 O   0  0  0  0  0  0  0  0  0  0  0  0
  188.3450  176.5540  142.7410 O   0  0  0  0  0  0  0  0  0  0  0  0
  188.8470  176.3010  141.4780 N   0  0  0  0  0  2  0  0  0  0  0  0
  189.2700  177.3150  140.5580 C   0  0  0  0  0  0  0  0  0  0  0  0
  189.0310  178.5300  140.8030 O   0  0  0  0  0  0  0  0  0  0  0  0
  187.8830  176.9020  137.7600 C   0  0  0  0  0  1  0  0  0  0  0  0
  190.2480  176.4590  137.0150 C   0  0  0  0  0  3  0  0  0  0  0  0
  191.5930  176.7000  139.1330 S   0  0  0  0  0  0  0  0  0  0  0  0
  191.5530  176.3830  137.4840 C   0  0  0  0  0  0  0  0  0  0  0  0
  189.3420  176.7780  138.0340 C   0  0  0  0  0  0  0  0  0  0  0  0
  189.9330  176.9490  139.2920 C   0  0  0  0  0  0  0  0  0  0  0  0
  192.7070  176.0890  136.6920 N   0  0  0  0  0  2  0  0  0  0  0  0
  196.2790  175.1400  136.7720 O   0  0  0  0  0  0  0  0  0  0  0  0
  193.9400  175.5780  137.2710 C   0  0  1  0  0  3  0  0  0  0  0  0
  193.7800  174.1020  137.6170 C   0  0  0  0  0  2  0  0  0  0  0  0
  197.3570  173.3930  137.8010 O   0  0  0  0  0  0  0  0  0  0  0  0
  196.2790  174.0030  137.5910 C   0  0  0  0  0  0  0  0  0  0  0  0
  195.0350  173.5840  138.3160 C   0  0  0  0  0  2  0  0  0  0  0  0
  195.0710  175.7100  136.2600 C   0  0  0  0  0  2  0  0  0  0  0  0
  2 11  1  0  0  0  0
  2  9  2  0  0  0  0
  3 10  2  0  0  0  0
  3  7  1  0  0  0  0
  5  4  1  0  0  0  0
  6  5  2  0  0  0  0
  6  1  1  0  0  0  0
  7  8  2  0  0  0  0
  8  9  1  0  0  0  0
  9  5  1  0  0  0  0
 10  2  1  0  0  0  0
 11  6  1  0  0  0  0
 12 20  1  0  0  0  0
 13 17  1  1  0  0  0
 13 16  1  0  0  0  0
 13 21  1  0  0  0  0
 14 12  1  1  0  0  0
 15 20  1  1  0  0  0
 15 11  1  0  0  0  0
 18 16  1  6  0  0  0
 18 14  1  0  0  0  0
 18 19  1  0  0  0  0
 19 15  1  0  0  0  0
 21 22  1  6  0  0  0
 21 14  1  0  0  0  0
 24 22  1  0  0  0  0
 24 23  1  0  0  0  0
 25 24  2  0  0  0  0
 26 25  1  0  0  0  0
 27 26  1  0  0  0  0
 28 27  1  0  0  0  0
 29 27  2  0  0  0  0
 30 10  1  0  0  0  0
 31 30  1  0  0  0  0
 32 33  2  0  0  0  0
 32 31  1  0  0  0  0
 34 38  1  0  0  0  0
 35 37  2  0  0  0  0
 35 38  1  0  0  0  0
 36 39  1  0  0  0  0
 37 36  1  0  0  0  0
 38 39  2  0  0  0  0
 39 32  1  0  0  0  0
 40 37  1  0  0  0  0
 41 45  1  0  0  0  0
 42 40  1  6  0  0  0
 42 43  1  0  0  0  0
 43 46  1  0  0  0  0
 45 44  2  0  0  0  0
 45 46  1  0  0  0  0
 47 41  1  0  0  0  0
 47 42  1  0  0  0  0
M  END
>  <MODEL>
3

>  <REMARK>
 VINA RESULT:      -8.5      3.300      9.842
  Name = 
  10 active torsions:
  status: ('A' for Active; 'I' for Inactive)
    1  A    between atoms: C_2  and  C_34
    2  A    between atoms: C_2  and  C_46
    3  A    between atoms: N_6  and  O_10
    4  A    between atoms: C_7  and  N_29
    5  A    between atoms: C_8  and  C_31
    6  A    between atoms: O_10  and  C_42
    7  A    between atoms: C_18  and  N_47
    8  A    between atoms: C_19  and  C_45
    9  A    between atoms: N_29  and  C_37
   10  A    between atoms: C_31  and  N_38
                            x       y       z     vdW  Elec       q    Type
                         _______ _______ _______ _____ _____    ______ ____

>  <TORSDO>
F 10

$$$$
=
 OpenBabel10222415513D

 47 52  0  0  1  0  0  0  0  0999 V2000
  180.6570  178.3710  143.7000 C   0  0  0  0  0  1  0  0  0  0  0  0
  182.5290  178.9690  140.6760 C   0  0  0  0  0  0  0  0  0  0  0  0
  183.4140  179.1660  138.4930 N   0  0  0  0  0  0  0  0  0  0  0  0
  178.9790  178.1360  141.0330 C   0  0  0  0  0  1  0  0  0  0  0  0
  180.4210  178.4900  141.1530 C   0  0  0  0  0  0  0  0  0  0  0  0
  181.1750  178.6040  142.3190 C   0  0  0  0  0  0  0  0  0  0  0  0
  182.1720  178.9230  137.9670 C   0  0  0  0  0  3  0  0  0  0  0  0
  181.1030  178.6950  138.7880 N   0  0  0  0  0  0  0  0  0  0  0  0
  181.3060  178.7260  140.1280 C   0  0  0  0  0  0  0  0  0  0  0  0
  183.6260  179.1850  139.8440 C   0  0  0  0  0  0  0  0  0  0  0  0
  182.4690  178.9070  142.0210 N   0  0  0  0  0  0  0  0  0  0  0  0
  184.1610  178.6510  145.3740 C   0  0  0  0  0  2  0  0  0  0  0  0
  187.4530  177.2570  144.6560 C   0  0  2  0  0  3  0  0  0  0  0  0
  185.5840  178.8080  144.8310 C   0  0  2  0  0  3  0  0  0  0  0  0
  183.5970  179.0330  142.9400 C   0  0  2  0  0  3  0  0  0  0  0  0
  186.6400  177.1300  143.3870 C   0  0  0  0  0  2  0  0  0  0  0  0
  187.7790  176.0030  145.1380 F   0  0  0  0  0  0  0  0  0  0  0  0
  185.6970  178.3180  143.3720 C   0  0  1  0  0  3  0  0  0  0  0  0
  184.4570  177.9250  142.8240 O   0  0  0  0  0  0  0  0  0  0  0  0
  183.1330  179.2250  144.3920 C   0  0  0  0  0  2  0  0  0  0  0  0
  186.5650  177.9840  145.6480 C   0  0  2  0  0  3  0  0  0  0  0  0
  187.3750  178.8380  146.6310 C   0  0  0  0  0  2  0  0  0  0  0  0
  187.9300  177.5020  148.7640 C   0  0  0  0  0  1  0  0  0  0  0  0
  188.3710  178.0520  147.4400 C   0  0  0  0  0  0  0  0  0  0  0  0
  189.5630  177.8620  146.9810 N   0  0  0  0  0  0  0  0  0  0  0  0
  190.5850  177.1280  147.6900 C   0  0  0  0  0  2  0  0  0  0  0  0
  191.4940  176.4470  146.7270 C   0  0  0  0  0  0  0  0  0  0  0  0
  191.2850  176.5900  145.3270 N   0  0  0  0  0  1  0  0  0  0  0  0
  192.4360  175.7270  147.1510 O   0  0  0  0  0  0  0  0  0  0  0  0
  184.8940  179.4420  140.3780 O   0  0  0  0  0  0  0  0  0  0  0  0
  185.9760  178.6000  140.2070 N   0  0  0  0  0  2  0  0  0  0  0  0
  186.7150  178.4710  138.9860 C   0  0  0  0  0  0  0  0  0  0  0  0
  186.2860  179.0090  137.9280 O   0  0  0  0  0  0  0  0  0  0  0  0
  189.0390  178.4610  141.1120 C   0  0  0  0  0  1  0  0  0  0  0  0
  190.0130  176.7300  139.5620 C   0  0  0  0  0  3  0  0  0  0  0  0
  188.3150  176.5720  137.7070 S   0  0  0  0  0  0  0  0  0  0  0  0
  189.7730  176.0620  138.3680 C   0  0  0  0  0  0  0  0  0  0  0  0
  188.9860  177.6280  139.8780 C   0  0  0  0  0  0  0  0  0  0  0  0
  187.9480  177.6630  138.9380 C   0  0  0  0  0  0  0  0  0  0  0  0
  190.6240  175.0760  137.7800 N   0  0  0  0  0  2  0  0  0  0  0  0
  193.9980  176.4100  137.0710 O   0  0  0  0  0  0  0  0  0  0  0  0
  192.0740  175.1490  137.8600 C   0  0  1  0  0  3  0  0  0  0  0  0
  192.6940  173.8990  137.2450 C   0  0  0  0  0  2  0  0  0  0  0  0
  196.0100  175.3470  136.7640 O   0  0  0  0  0  0  0  0  0  0  0  0
  194.7850  175.2520  137.0280 C   0  0  0  0  0  0  0  0  0  0  0  0
  194.2110  173.9230  137.4150 C   0  0  0  0  0  2  0  0  0  0  0  0
  192.5680  176.3590  137.0770 C   0  0  0  0  0  2  0  0  0  0  0  0
  2 11  1  0  0  0  0
  3 10  2  0  0  0  0
  4  5  1  0  0  0  0
  5  6  2  0  0  0  0
  6  1  1  0  0  0  0
  7  3  1  0  0  0  0
  7  8  2  0  0  0  0
  8  9  1  0  0  0  0
  9  2  2  0  0  0  0
  9  5  1  0  0  0  0
 10 30  1  0  0  0  0
 10  2  1  0  0  0  0
 11  6  1  0  0  0  0
 13 17  1  1  0  0  0
 13 21  1  0  0  0  0
 14 12  1  1  0  0  0
 14 21  1  0  0  0  0
 15 11  1  6  0  0  0
 15 20  1  0  0  0  0
 16 13  1  0  0  0  0
 18 16  1  1  0  0  0
 18 14  1  0  0  0  0
 19 15  1  0  0  0  0
 19 18  1  0  0  0  0
 20 12  1  0  0  0  0
 21 22  1  1  0  0  0
 22 24  1  0  0  0  0
 24 23  1  0  0  0  0
 25 24  2  0  0  0  0
 25 26  1  0  0  0  0
 27 29  2  0  0  0  0
 27 26  1  0  0  0  0
 28 27  1  0  0  0  0
 31 30  1  0  0  0  0
 32 31  1  0  0  0  0
 33 32  2  0  0  0  0
 35 38  1  0  0  0  0
 36 37  1  0  0  0  0
 36 39  1  0  0  0  0
 37 35  2  0  0  0  0
 38 34  1  0  0  0  0
 39 32  1  0  0  0  0
 39 38  2  0  0  0  0
 40 37  1  0  0  0  0
 41 47  1  0  0  0  0
 42 40  1  6  0  0  0
 43 46  1  0  0  0  0
 43 42  1  0  0  0  0
 44 45  2  0  0  0  0
 45 41  1  0  0  0  0
 45 46  1  0  0  0  0
 47 42  1  0  0  0  0
M  END
>  <MODEL>
4

>  <REMARK>
 VINA RESULT:      -8.3      3.058      7.476
  Name = 
  10 active torsions:
  status: ('A' for Active; 'I' for Inactive)
    1  A    between atoms: C_2  and  C_34
    2  A    between atoms: C_2  and  C_46
    3  A    between atoms: N_6  and  O_10
    4  A    between atoms: C_7  and  N_29
    5  A    between atoms: C_8  and  C_31
    6  A    between atoms: O_10  and  C_42
    7  A    between atoms: C_18  and  N_47
    8  A    between atoms: C_19  and  C_45
    9  A    between atoms: N_29  and  C_37
   10  A    between atoms: C_31  and  N_38
                            x       y       z     vdW  Elec       q    Type
                         _______ _______ _______ _____ _____    ______ ____

>  <TORSDO>
F 10

$$$$
=
 OpenBabel10222415513D

 47 52  0  0  1  0  0  0  0  0999 V2000
  191.6970  176.7430  143.1860 C   0  0  0  0  0  1  0  0  0  0  0  0
  188.3000  177.5290  144.1080 C   0  0  0  0  0  0  0  0  0  0  0  0
  186.1910  177.8920  145.1110 N   0  0  0  0  0  0  0  0  0  0  0  0
  191.1680  176.8920  146.2980 C   0  0  0  0  0  1  0  0  0  0  0  0
  190.1800  177.1390  145.2110 C   0  0  0  0  0  0  0  0  0  0  0  0
  190.3960  177.0840  143.8350 C   0  0  0  0  0  0  0  0  0  0  0  0
  186.7620  177.7840  146.3530 C   0  0  0  0  0  3  0  0  0  0  0  0
  188.1000  177.5420  146.4820 N   0  0  0  0  0  0  0  0  0  0  0  0
  188.8420  177.4220  145.3530 C   0  0  0  0  0  0  0  0  0  0  0  0
  186.9320  177.7580  143.9700 C   0  0  0  0  0  0  0  0  0  0  0  0
  189.2390  177.3320  143.1620 N   0  0  0  0  0  0  0  0  0  0  0  0
  188.9910  178.8360  139.7200 C   0  0  0  0  0  2  0  0  0  0  0  0
  190.6520  176.4410  137.5300 C   0  0  2  0  0  3  0  0  0  0  0  0
  189.0030  177.4980  138.9760 C   0  0  2  0  0  3  0  0  0  0  0  0
  189.0120  177.2900  141.7200 C   0  0  2  0  0  3  0  0  0  0  0  0
  190.9580  176.0170  138.9490 C   0  0  0  0  0  2  0  0  0  0  0  0
  191.8180  176.8080  136.8830 F   0  0  0  0  0  0  0  0  0  0  0  0
  189.7460  176.4060  139.7730 C   0  0  1  0  0  3  0  0  0  0  0  0
  190.1650  176.8430  141.0480 O   0  0  0  0  0  0  0  0  0  0  0  0
  188.5460  178.6500  141.1750 C   0  0  0  0  0  2  0  0  0  0  0  0
  189.7200  177.6320  137.6420 C   0  0  2  0  0  3  0  0  0  0  0  0
  188.7490  177.7190  136.4580 C   0  0  0  0  0  2  0  0  0  0  0  0
  186.2440  177.8280  137.0540 C   0  0  0  0  0  1  0  0  0  0  0  0
  187.4450  177.0060  136.6880 C   0  0  0  0  0  0  0  0  0  0  0  0
  187.3840  175.7220  136.5600 N   0  0  0  0  0  0  0  0  0  0  0  0
  186.1790  174.9540  136.7680 C   0  0  0  0  0  2  0  0  0  0  0  0
  186.5120  173.6000  137.2910 C   0  0  0  0  0  0  0  0  0  0  0  0
  187.7330  172.9730  136.9160 N   0  0  0  0  0  1  0  0  0  0  0  0
  185.7050  173.0010  138.0480 O   0  0  0  0  0  0  0  0  0  0  0  0
  186.3480  177.8770  142.7040 O   0  0  0  0  0  0  0  0  0  0  0  0
  184.9820  177.8570  142.4910 N   0  0  0  0  0  2  0  0  0  0  0  0
  184.3160  178.5800  141.4490 C   0  0  0  0  0  0  0  0  0  0  0  0
  184.9480  179.4330  140.7670 O   0  0  0  0  0  0  0  0  0  0  0  0
  181.9640  179.1640  143.4620 C   0  0  0  0  0  1  0  0  0  0  0  0
  180.5480  178.3800  141.5320 C   0  0  0  0  0  3  0  0  0  0  0  0
  182.2370  177.8030  139.7520 S   0  0  0  0  0  0  0  0  0  0  0  0
  180.6290  177.8990  140.2310 C   0  0  0  0  0  0  0  0  0  0  0  0
  181.8110  178.6490  142.0730 C   0  0  0  0  0  0  0  0  0  0  0  0
  182.8750  178.3800  141.2020 C   0  0  0  0  0  0  0  0  0  0  0  0
  179.5200  177.5450  139.4030 N   0  0  0  0  0  2  0  0  0  0  0  0
  179.6640  173.8530  139.5310 O   0  0  0  0  0  0  0  0  0  0  0  0
  179.2930  176.1830  138.9440 C   0  0  1  0  0  3  0  0  0  0  0  0
  180.0610  175.9360  137.6500 C   0  0  0  0  0  2  0  0  0  0  0  0
  179.9670  172.2930  137.8730 O   0  0  0  0  0  0  0  0  0  0  0  0
  179.8390  173.5040  138.1860 C   0  0  0  0  0  0  0  0  0  0  0  0
  179.7490  174.5420  137.1080 C   0  0  0  0  0  2  0  0  0  0  0  0
  179.7990  175.2010  139.9920 C   0  0  0  0  0  2  0  0  0  0  0  0
  1  6  1  0  0  0  0
  2  9  2  0  0  0  0
  3  7  1  0  0  0  0
  5  9  1  0  0  0  0
  5  4  1  0  0  0  0
  6  5  2  0  0  0  0
  7  8  2  0  0  0  0
  9  8  1  0  0  0  0
 10  2  1  0  0  0  0
 10  3  2  0  0  0  0
 11  6  1  0  0  0  0
 11  2  1  0  0  0  0
 12 20  1  0  0  0  0
 13 17  1  1  0  0  0
 13 21  1  0  0  0  0
 13 16  1  0  0  0  0
 14 12  1  1  0  0  0
 14 18  1  0  0  0  0
 15 20  1  6  0  0  0
 15 11  1  0  0  0  0
 18 16  1  6  0  0  0
 18 19  1  0  0  0  0
 19 15  1  0  0  0  0
 21 22  1  6  0  0  0
 21 14  1  0  0  0  0
 22 24  1  0  0  0  0
 24 23  1  0  0  0  0
 25 24  2  0  0  0  0
 25 26  1  0  0  0  0
 26 27  1  0  0  0  0
 27 29  2  0  0  0  0
 28 27  1  0  0  0  0
 30 10  1  0  0  0  0
 31 30  1  0  0  0  0
 32 31  1  0  0  0  0
 33 32  2  0  0  0  0
 35 38  1  0  0  0  0
 36 37  1  0  0  0  0
 36 39  1  0  0  0  0
 37 35  2  0  0  0  0
 38 34  1  0  0  0  0
 39 32  1  0  0  0  0
 39 38  2  0  0  0  0
 40 37  1  0  0  0  0
 41 47  1  0  0  0  0
 42 40  1  1  0  0  0
 42 47  1  0  0  0  0
 43 42  1  0  0  0  0
 44 45  2  0  0  0  0
 45 41  1  0  0  0  0
 46 43  1  0  0  0  0
 46 45  1  0  0  0  0
M  END
>  <MODEL>
5

>  <REMARK>
 VINA RESULT:      -8.3      2.951      8.283
  Name = 
  10 active torsions:
  status: ('A' for Active; 'I' for Inactive)
    1  A    between atoms: C_2  and  C_34
    2  A    between atoms: C_2  and  C_46
    3  A    between atoms: N_6  and  O_10
    4  A    between atoms: C_7  and  N_29
    5  A    between atoms: C_8  and  C_31
    6  A    between atoms: O_10  and  C_42
    7  A    between atoms: C_18  and  N_47
    8  A    between atoms: C_19  and  C_45
    9  A    between atoms: N_29  and  C_37
   10  A    between atoms: C_31  and  N_38
                            x       y       z     vdW  Elec       q    Type
                         _______ _______ _______ _____ _____    ______ ____

>  <TORSDO>
F 10

$$$$
=
 OpenBabel10222415513D

 47 52  0  0  1  0  0  0  0  0999 V2000
  191.7530  177.0540  143.1300 C   0  0  0  0  0  1  0  0  0  0  0  0
  188.2950  177.4740  144.0650 C   0  0  0  0  0  0  0  0  0  0  0  0
  186.1620  177.6030  145.0740 N   0  0  0  0  0  0  0  0  0  0  0  0
  191.2180  177.0970  146.2430 C   0  0  0  0  0  1  0  0  0  0  0  0
  190.2080  177.2590  145.1610 C   0  0  0  0  0  0  0  0  0  0  0  0
  190.4250  177.2490  143.7840 C   0  0  0  0  0  0  0  0  0  0  0  0
  186.7440  177.5340  146.3140 C   0  0  0  0  0  3  0  0  0  0  0  0
  188.1000  177.4270  146.4380 N   0  0  0  0  0  0  0  0  0  0  0  0
  188.8480  177.4020  145.3080 C   0  0  0  0  0  0  0  0  0  0  0  0
  186.9110  177.5650  143.9310 C   0  0  0  0  0  0  0  0  0  0  0  0
  189.2480  177.3900  143.1150 N   0  0  0  0  0  0  0  0  0  0  0  0
  189.0560  178.8850  139.6670 C   0  0  0  0  0  2  0  0  0  0  0  0
  190.6480  176.4290  137.4910 C   0  0  2  0  0  3  0  0  0  0  0  0
  189.0280  177.5440  138.9280 C   0  0  2  0  0  3  0  0  0  0  0  0
  189.0240  177.3490  141.6730 C   0  0  2  0  0  3  0  0  0  0  0  0
  190.9360  176.0030  138.9140 C   0  0  0  0  0  2  0  0  0  0  0  0
  191.8260  176.7570  136.8460 F   0  0  0  0  0  0  0  0  0  0  0  0
  189.7350  176.4330  139.7320 C   0  0  1  0  0  3  0  0  0  0  0  0
  190.1640  176.8620  141.0070 O   0  0  0  0  0  0  0  0  0  0  0  0
  188.6010  178.7190  141.1210 C   0  0  0  0  0  2  0  0  0  0  0  0
  189.7530  177.6500  137.5960 C   0  0  2  0  0  3  0  0  0  0  0  0
  188.7880  177.7620  136.4090 C   0  0  0  0  0  2  0  0  0  0  0  0
  186.3120  177.8870  137.1130 C   0  0  0  0  0  1  0  0  0  0  0  0
  187.4720  177.0680  136.6280 C   0  0  0  0  0  0  0  0  0  0  0  0
  187.3670  175.8030  136.3890 N   0  0  0  0  0  0  0  0  0  0  0  0
  186.1460  175.0530  136.5780 C   0  0  0  0  0  2  0  0  0  0  0  0
  186.4570  173.6510  136.9710 C   0  0  0  0  0  0  0  0  0  0  0  0
  185.6780  173.0020  137.9690 N   0  0  0  0  0  1  0  0  0  0  0  0
  187.4230  173.0460  136.4380 O   0  0  0  0  0  0  0  0  0  0  0  0
  186.3160  177.6440  142.6670 O   0  0  0  0  0  0  0  0  0  0  0  0
  184.9760  177.9260  142.4740 N   0  0  0  0  0  2  0  0  0  0  0  0
  184.4670  178.7360  141.4070 C   0  0  0  0  0  0  0  0  0  0  0  0
  185.2600  179.3910  140.6760 O   0  0  0  0  0  0  0  0  0  0  0  0
  182.2480  179.0030  143.6270 C   0  0  0  0  0  1  0  0  0  0  0  0
  180.7190  179.1220  141.6290 C   0  0  0  0  0  3  0  0  0  0  0  0
  182.2850  178.8910  139.6680 S   0  0  0  0  0  0  0  0  0  0  0  0
  180.7180  179.0820  140.2410 C   0  0  0  0  0  0  0  0  0  0  0  0
  182.0100  178.9970  142.1570 C   0  0  0  0  0  0  0  0  0  0  0  0
  183.0130  178.8590  141.1880 C   0  0  0  0  0  0  0  0  0  0  0  0
  179.5630  179.1960  139.4050 N   0  0  0  0  0  2  0  0  0  0  0  0
  179.8220  181.6200  136.6260 O   0  0  0  0  0  0  0  0  0  0  0  0
  179.2600  180.4050  138.6560 C   0  0  1  0  0  3  0  0  0  0  0  0
  179.6780  181.6330  139.4570 C   0  0  0  0  0  2  0  0  0  0  0  0
  179.7280  183.9150  136.6070 O   0  0  0  0  0  0  0  0  0  0  0  0
  179.6560  182.8510  137.2730 C   0  0  0  0  0  0  0  0  0  0  0  0
  179.2710  182.9080  138.7210 C   0  0  0  0  0  2  0  0  0  0  0  0
  180.0380  180.4030  137.3470 C   0  0  0  0  0  2  0  0  0  0  0  0
  1  6  1  0  0  0  0
  2  9  2  0  0  0  0
  3  7  1  0  0  0  0
  5  9  1  0  0  0  0
  5  4  1  0  0  0  0
  6  5  2  0  0  0  0
  7  8  2  0  0  0  0
  9  8  1  0  0  0  0
 10  2  1  0  0  0  0
 10  3  2  0  0  0  0
 11  6  1  0  0  0  0
 11  2  1  0  0  0  0
 12 20  1  0  0  0  0
 13 17  1  1  0  0  0
 13 21  1  0  0  0  0
 13 16  1  0  0  0  0
 14 12  1  1  0  0  0
 14 18  1  0  0  0  0
 15 20  1  6  0  0  0
 15 11  1  0  0  0  0
 18 16  1  6  0  0  0
 18 19  1  0  0  0  0
 19 15  1  0  0  0  0
 21 22  1  6  0  0  0
 21 14  1  0  0  0  0
 22 24  1  0  0  0  0
 24 23  1  0  0  0  0
 25 26  1  0  0  0  0
 25 24  2  0  0  0  0
 26 27  1  0  0  0  0
 27 28  1  0  0  0  0
 29 27  2  0  0  0  0
 30 10  1  0  0  0  0
 31 30  1  0  0  0  0
 32 31  1  0  0  0  0
 33 32  2  0  0  0  0
 35 38  1  0  0  0  0
 36 37  1  0  0  0  0
 36 39  1  0  0  0  0
 37 35  2  0  0  0  0
 38 34  1  0  0  0  0
 39 32  1  0  0  0  0
 39 38  2  0  0  0  0
 40 37  1  0  0  0  0
 41 45  1  0  0  0  0
 41 47  1  0  0  0  0
 42 40  1  1  0  0  0
 42 43  1  0  0  0  0
 44 45  2  0  0  0  0
 45 46  1  0  0  0  0
 46 43  1  0  0  0  0
 47 42  1  0  0  0  0
M  END
>  <MODEL>
6

>  <REMARK>
 VINA RESULT:      -8.1      2.721      8.618
  Name = 
  10 active torsions:
  status: ('A' for Active; 'I' for Inactive)
    1  A    between atoms: C_2  and  C_34
    2  A    between atoms: C_2  and  C_46
    3  A    between atoms: N_6  and  O_10
    4  A    between atoms: C_7  and  N_29
    5  A    between atoms: C_8  and  C_31
    6  A    between atoms: O_10  and  C_42
    7  A    between atoms: C_18  and  N_47
    8  A    between atoms: C_19  and  C_45
    9  A    between atoms: N_29  and  C_37
   10  A    between atoms: C_31  and  N_38
                            x       y       z     vdW  Elec       q    Type
                         _______ _______ _______ _____ _____    ______ ____

>  <TORSDO>
F 10

$$$$
=
 OpenBabel10222415513D

 47 52  0  0  1  0  0  0  0  0999 V2000
  186.5050  178.7070  147.7180 C   0  0  0  0  0  1  0  0  0  0  0  0
  188.7170  177.2040  145.2990 C   0  0  0  0  0  0  0  0  0  0  0  0
  190.4890  176.3780  143.9710 N   0  0  0  0  0  0  0  0  0  0  0  0
  189.4890  178.3470  148.6930 C   0  0  0  0  0  1  0  0  0  0  0  0
  188.9230  177.9380  147.3780 C   0  0  0  0  0  0  0  0  0  0  0  0
  187.6110  178.0830  146.9330 C   0  0  0  0  0  0  0  0  0  0  0  0
  191.3570  176.5600  145.0150 C   0  0  0  0  0  3  0  0  0  0  0  0
  190.9160  177.0700  146.2040 N   0  0  0  0  0  0  0  0  0  0  0  0
  189.6010  177.3790  146.3200 C   0  0  0  0  0  0  0  0  0  0  0  0
  189.1650  176.7010  144.0790 C   0  0  0  0  0  0  0  0  0  0  0  0
  187.4870  177.6230  145.6580 N   0  0  0  0  0  0  0  0  0  0  0  0
  184.2030  179.0240  144.4670 C   0  0  0  0  0  2  0  0  0  0  0  0
  184.4130  178.9380  140.8280 C   0  0  2  0  0  3  0  0  0  0  0  0
  184.1800  178.2440  143.1500 C   0  0  2  0  0  3  0  0  0  0  0  0
  186.3070  177.6650  144.7970 C   0  0  2  0  0  3  0  0  0  0  0  0
  185.8000  178.6390  141.3510 C   0  0  0  0  0  2  0  0  0  0  0  0
  184.4190  180.1260  140.1200 F   0  0  0  0  0  0  0  0  0  0  0  0
  185.6040  177.9030  142.6620 C   0  0  1  0  0  3  0  0  0  0  0  0
  186.6080  178.2940  143.5740 O   0  0  0  0  0  0  0  0  0  0  0  0
  185.1170  178.3440  145.4920 C   0  0  0  0  0  2  0  0  0  0  0  0
  183.5240  179.0630  142.0510 C   0  0  2  0  0  3  0  0  0  0  0  0
  182.0840  178.6200  141.7660 C   0  0  0  0  0  2  0  0  0  0  0  0
  181.2210  179.4080  139.4700 C   0  0  0  0  0  1  0  0  0  0  0  0
  181.8150  178.3220  140.3170 C   0  0  0  0  0  0  0  0  0  0  0  0
  182.1070  177.1590  139.8360 N   0  0  0  0  0  0  0  0  0  0  0  0
  181.8780  176.7830  138.4600 C   0  0  0  0  0  2  0  0  0  0  0  0
  183.0820  176.1070  137.9020 C   0  0  0  0  0  0  0  0  0  0  0  0
  183.0000  174.7600  137.4550 N   0  0  0  0  0  1  0  0  0  0  0  0
  184.1790  176.7210  137.8460 O   0  0  0  0  0  0  0  0  0  0  0  0
  188.2790  176.5060  143.0130 O   0  0  0  0  0  0  0  0  0  0  0  0
  188.6850  176.3860  141.6970 N   0  0  0  0  0  2  0  0  0  0  0  0
  189.1590  177.4750  140.8950 C   0  0  0  0  0  0  0  0  0  0  0  0
  189.0570  178.6610  141.3150 O   0  0  0  0  0  0  0  0  0  0  0  0
  187.6560  177.8150  138.1480 C   0  0  0  0  0  1  0  0  0  0  0  0
  189.8820  177.1030  137.2100 C   0  0  0  0  0  3  0  0  0  0  0  0
  191.2970  176.7240  139.2610 S   0  0  0  0  0  0  0  0  0  0  0  0
  191.1620  176.7160  137.5870 C   0  0  0  0  0  0  0  0  0  0  0  0
  189.0730  177.3900  138.3170 C   0  0  0  0  0  0  0  0  0  0  0  0
  189.7150  177.2290  139.5520 C   0  0  0  0  0  0  0  0  0  0  0  0
  192.2240  176.3700  136.6950 N   0  0  0  0  0  2  0  0  0  0  0  0
  195.8440  175.6470  136.4960 O   0  0  0  0  0  0  0  0  0  0  0  0
  193.5220  175.9160  137.1670 C   0  0  1  0  0  3  0  0  0  0  0  0
  193.4760  174.4200  137.4570 C   0  0  0  0  0  2  0  0  0  0  0  0
  197.0940  173.9320  137.3740 O   0  0  0  0  0  0  0  0  0  0  0  0
  195.9690  174.4810  137.2620 C   0  0  0  0  0  0  0  0  0  0  0  0
  194.8060  173.9550  138.0490 C   0  0  0  0  0  2  0  0  0  0  0  0
  194.5710  176.1600  136.0900 C   0  0  0  0  0  2  0  0  0  0  0  0
  2 11  1  0  0  0  0
  2  9  2  0  0  0  0
  3 10  2  0  0  0  0
  3  7  1  0  0  0  0
  5  4  1  0  0  0  0
  6  5  2  0  0  0  0
  6  1  1  0  0  0  0
  7  8  2  0  0  0  0
  8  9  1  0  0  0  0
  9  5  1  0  0  0  0
 10  2  1  0  0  0  0
 11  6  1  0  0  0  0
 12 20  1  0  0  0  0
 13 17  1  1  0  0  0
 13 16  1  0  0  0  0
 13 21  1  0  0  0  0
 14 12  1  1  0  0  0
 15 20  1  1  0  0  0
 15 11  1  0  0  0  0
 18 16  1  6  0  0  0
 18 14  1  0  0  0  0
 18 19  1  0  0  0  0
 19 15  1  0  0  0  0
 21 22  1  6  0  0  0
 21 14  1  0  0  0  0
 23 24  1  0  0  0  0
 24 22  1  0  0  0  0
 25 24  2  0  0  0  0
 26 25  1  0  0  0  0
 27 26  1  0  0  0  0
 28 27  1  0  0  0  0
 29 27  2  0  0  0  0
 30 10  1  0  0  0  0
 31 30  1  0  0  0  0
 32 33  2  0  0  0  0
 32 31  1  0  0  0  0
 34 38  1  0  0  0  0
 35 37  2  0  0  0  0
 35 38  1  0  0  0  0
 36 39  1  0  0  0  0
 37 36  1  0  0  0  0
 38 39  2  0  0  0  0
 39 32  1  0  0  0  0
 40 37  1  0  0  0  0
 41 45  1  0  0  0  0
 42 40  1  6  0  0  0
 42 43  1  0  0  0  0
 43 46  1  0  0  0  0
 45 44  2  0  0  0  0
 45 46  1  0  0  0  0
 47 41  1  0  0  0  0
 47 42  1  0  0  0  0
M  END
>  <MODEL>
7

>  <REMARK>
 VINA RESULT:      -8.1      3.173      9.525
  Name = 
  10 active torsions:
  status: ('A' for Active; 'I' for Inactive)
    1  A    between atoms: C_2  and  C_34
    2  A    between atoms: C_2  and  C_46
    3  A    between atoms: N_6  and  O_10
    4  A    between atoms: C_7  and  N_29
    5  A    between atoms: C_8  and  C_31
    6  A    between atoms: O_10  and  C_42
    7  A    between atoms: C_18  and  N_47
    8  A    between atoms: C_19  and  C_45
    9  A    between atoms: N_29  and  C_37
   10  A    between atoms: C_31  and  N_38
                            x       y       z     vdW  Elec       q    Type
                         _______ _______ _______ _____ _____    ______ ____

>  <TORSDO>
F 10

$$$$
=
 OpenBabel10222415513D

 47 52  0  0  1  0  0  0  0  0999 V2000
  180.6040  180.7110  136.7760 C   0  0  0  0  0  1  0  0  0  0  0  0
  181.3480  179.3700  140.0410 C   0  0  0  0  0  0  0  0  0  0  0  0
  181.6350  178.8560  142.3300 N   0  0  0  0  0  0  0  0  0  0  0  0
  178.9700  182.0110  139.1470 C   0  0  0  0  0  1  0  0  0  0  0  0
  179.9660  180.9080  139.2480 C   0  0  0  0  0  0  0  0  0  0  0  0
  180.6920  180.3190  138.2140 C   0  0  0  0  0  0  0  0  0  0  0  0
  180.6790  179.7820  142.6580 C   0  0  0  0  0  3  0  0  0  0  0  0
  180.0570  180.5120  141.6850 N   0  0  0  0  0  0  0  0  0  0  0  0
  180.4040  180.2870  140.3940 C   0  0  0  0  0  0  0  0  0  0  0  0
  181.9980  178.6350  141.0300 C   0  0  0  0  0  0  0  0  0  0  0  0
  181.5330  179.3680  138.7050 N   0  0  0  0  0  0  0  0  0  0  0  0
  184.9830  178.0140  138.0470 C   0  0  0  0  0  2  0  0  0  0  0  0
  184.4660  174.5040  137.2050 C   0  0  2  0  0  3  0  0  0  0  0  0
  184.5290  176.9340  137.0600 C   0  0  2  0  0  3  0  0  0  0  0  0
  182.5200  178.5770  137.9750 C   0  0  2  0  0  3  0  0  0  0  0  0
  183.1480  175.0230  137.7360 C   0  0  0  0  0  2  0  0  0  0  0  0
  184.9630  173.5240  138.0450 F   0  0  0  0  0  0  0  0  0  0  0  0
  183.0790  176.4830  137.3330 C   0  0  1  0  0  3  0  0  0  0  0  0
  182.4540  177.2240  138.3580 O   0  0  0  0  0  0  0  0  0  0  0  0
  183.9410  179.1350  138.1490 C   0  0  0  0  0  2  0  0  0  0  0  0
  185.4030  175.6960  137.1800 C   0  0  2  0  0  3  0  0  0  0  0  0
  186.4370  175.5950  136.0520 C   0  0  0  0  0  2  0  0  0  0  0  0
  187.5750  177.7160  135.1320 C   0  0  0  0  0  1  0  0  0  0  0  0
  187.5410  176.6120  136.1470 C   0  0  0  0  0  0  0  0  0  0  0  0
  188.4170  176.5220  137.0920 N   0  0  0  0  0  0  0  0  0  0  0  0
  189.5140  177.4480  137.2570 C   0  0  0  0  0  2  0  0  0  0  0  0
  189.4280  178.1200  138.5820 C   0  0  0  0  0  0  0  0  0  0  0  0
  190.3320  177.7630  139.6220 N   0  0  0  0  0  1  0  0  0  0  0  0
  188.5410  178.9880  138.7920 O   0  0  0  0  0  0  0  0  0  0  0  0
  182.9680  177.6830  140.6970 O   0  0  0  0  0  0  0  0  0  0  0  0
  184.1330  177.5000  141.4180 N   0  0  0  0  0  2  0  0  0  0  0  0
  185.0540  178.5480  141.7450 C   0  0  0  0  0  0  0  0  0  0  0  0
  184.9260  179.6890  141.2230 O   0  0  0  0  0  0  0  0  0  0  0  0
  184.9410  178.2510  144.8790 C   0  0  0  0  0  1  0  0  0  0  0  0
  187.4160  177.8660  144.6090 C   0  0  0  0  0  3  0  0  0  0  0  0
  187.7840  178.0910  142.1260 S   0  0  0  0  0  0  0  0  0  0  0  0
  188.4230  177.8100  143.6540 C   0  0  0  0  0  0  0  0  0  0  0  0
  186.1660  178.1350  144.0390 C   0  0  0  0  0  0  0  0  0  0  0  0
  186.1930  178.2890  142.6470 C   0  0  0  0  0  0  0  0  0  0  0  0
  189.8030  177.5430  143.9140 N   0  0  0  0  0  2  0  0  0  0  0  0
  190.7130  176.9480  147.4470 O   0  0  0  0  0  0  0  0  0  0  0  0
  190.2450  176.7750  145.0670 C   0  0  1  0  0  3  0  0  0  0  0  0
  191.6820  176.3070  144.8610 C   0  0  0  0  0  2  0  0  0  0  0  0
  192.3430  175.6320  148.3880 O   0  0  0  0  0  0  0  0  0  0  0  0
  191.7640  176.0270  147.3450 C   0  0  0  0  0  0  0  0  0  0  0  0
  192.1180  175.4160  146.0220 C   0  0  0  0  0  2  0  0  0  0  0  0
  190.2060  177.6540  146.3100 C   0  0  0  0  0  2  0  0  0  0  0  0
  1  6  1  0  0  0  0
  2  9  2  0  0  0  0
  2 10  1  0  0  0  0
  3  7  1  0  0  0  0
  4  5  1  0  0  0  0
  5  9  1  0  0  0  0
  6 11  1  0  0  0  0
  6  5  2  0  0  0  0
  8  7  2  0  0  0  0
  9  8  1  0  0  0  0
 10  3  2  0  0  0  0
 11  2  1  0  0  0  0
 12 20  1  0  0  0  0
 13 16  1  0  0  0  0
 13 17  1  1  0  0  0
 14 21  1  0  0  0  0
 14 18  1  0  0  0  0
 14 12  1  1  0  0  0
 15 20  1  1  0  0  0
 15 19  1  0  0  0  0
 15 11  1  0  0  0  0
 18 16  1  1  0  0  0
 18 19  1  0  0  0  0
 21 22  1  6  0  0  0
 21 13  1  0  0  0  0
 22 24  1  0  0  0  0
 23 24  1  0  0  0  0
 24 25  2  0  0  0  0
 25 26  1  0  0  0  0
 26 27  1  0  0  0  0
 27 29  2  0  0  0  0
 27 28  1  0  0  0  0
 30 10  1  0  0  0  0
 30 31  1  0  0  0  0
 31 32  1  0  0  0  0
 32 39  1  0  0  0  0
 33 32  2  0  0  0  0
 36 39  1  0  0  0  0
 36 37  1  0  0  0  0
 37 40  1  0  0  0  0
 37 35  2  0  0  0  0
 38 35  1  0  0  0  0
 38 34  1  0  0  0  0
 39 38  2  0  0  0  0
 42 40  1  6  0  0  0
 42 47  1  0  0  0  0
 43 42  1  0  0  0  0
 43 46  1  0  0  0  0
 45 41  1  0  0  0  0
 45 44  2  0  0  0  0
 46 45  1  0  0  0  0
 47 41  1  0  0  0  0
M  END
>  <MODEL>
8

>  <REMARK>
 VINA RESULT:      -7.9      2.194      3.693
  Name = 
  10 active torsions:
  status: ('A' for Active; 'I' for Inactive)
    1  A    between atoms: C_2  and  C_34
    2  A    between atoms: C_2  and  C_46
    3  A    between atoms: N_6  and  O_10
    4  A    between atoms: C_7  and  N_29
    5  A    between atoms: C_8  and  C_31
    6  A    between atoms: O_10  and  C_42
    7  A    between atoms: C_18  and  N_47
    8  A    between atoms: C_19  and  C_45
    9  A    between atoms: N_29  and  C_37
   10  A    between atoms: C_31  and  N_38
                            x       y       z     vdW  Elec       q    Type
                         _______ _______ _______ _____ _____    ______ ____

>  <TORSDO>
F 10

$$$$
=
 OpenBabel10222415513D

 47 52  0  0  1  0  0  0  0  0999 V2000
  190.8750  172.0270  134.8330 C   0  0  0  0  0  1  0  0  0  0  0  0
  192.7780  174.2630  136.9260 C   0  0  0  0  0  0  0  0  0  0  0  0
  194.2870  175.3780  138.3640 N   0  0  0  0  0  0  0  0  0  0  0  0
  193.7960  171.0370  135.5170 C   0  0  0  0  0  1  0  0  0  0  0  0
  193.1640  172.3170  135.9420 C   0  0  0  0  0  0  0  0  0  0  0  0
  191.8800  172.7730  135.6460 C   0  0  0  0  0  0  0  0  0  0  0  0
  195.2070  174.3800  138.1720 C   0  0  0  0  0  3  0  0  0  0  0  0
  194.9190  173.3160  137.3650 N   0  0  0  0  0  0  0  0  0  0  0  0
  193.7080  173.2830  136.7570 C   0  0  0  0  0  0  0  0  0  0  0  0
  193.0590  175.3420  137.7620 C   0  0  0  0  0  0  0  0  0  0  0  0
  191.6510  173.9730  136.2460 N   0  0  0  0  0  0  0  0  0  0  0  0
  188.7050  175.6890  134.6510 C   0  0  0  0  0  2  0  0  0  0  0  0
  185.8660  174.8440  136.7770 C   0  0  2  0  0  3  0  0  0  0  0  0
  187.9170  175.8650  135.9520 C   0  0  2  0  0  3  0  0  0  0  0  0
  190.4140  174.7500  136.2580 C   0  0  2  0  0  3  0  0  0  0  0  0
  187.0160  173.9670  137.2180 C   0  0  0  0  0  2  0  0  0  0  0  0
  184.8430  174.0650  136.2670 F   0  0  0  0  0  0  0  0  0  0  0  0
  188.2760  174.7790  136.9890 C   0  0  1  0  0  3  0  0  0  0  0  0
  189.3130  173.9250  136.5580 O   0  0  0  0  0  0  0  0  0  0  0  0
  190.2000  175.5030  134.9360 C   0  0  0  0  0  2  0  0  0  0  0  0
  186.4240  175.7490  135.6950 C   0  0  2  0  0  3  0  0  0  0  0  0
  185.7240  177.1140  135.6660 C   0  0  0  0  0  2  0  0  0  0  0  0
  183.2290  176.8970  136.2730 C   0  0  0  0  0  1  0  0  0  0  0  0
  184.6260  177.2550  136.6850 C   0  0  0  0  0  0  0  0  0  0  0  0
  184.9060  177.6670  137.8770 N   0  0  0  0  0  0  0  0  0  0  0  0
  183.9170  177.8390  138.9160 C   0  0  0  0  0  2  0  0  0  0  0  0
  183.6210  179.2840  139.1130 C   0  0  0  0  0  0  0  0  0  0  0  0
  182.2780  179.7170  139.2970 N   0  0  0  0  0  1  0  0  0  0  0  0
  184.5550  180.1270  139.0930 O   0  0  0  0  0  0  0  0  0  0  0  0
  192.1250  176.3660  137.9530 O   0  0  0  0  0  0  0  0  0  0  0  0
  191.2030  176.3730  138.9830 N   0  0  0  0  0  2  0  0  0  0  0  0
  191.3480  177.1290  140.1920 C   0  0  0  0  0  0  0  0  0  0  0  0
  192.4420  177.7030  140.4510 O   0  0  0  0  0  0  0  0  0  0  0  0
  188.4500  178.2530  139.6820 C   0  0  0  0  0  1  0  0  0  0  0  0
  188.1150  177.5770  142.0860 C   0  0  0  0  0  3  0  0  0  0  0  0
  190.3610  176.6530  142.7610 S   0  0  0  0  0  0  0  0  0  0  0  0
  188.7740  177.0200  143.1740 C   0  0  0  0  0  0  0  0  0  0  0  0
  188.9460  177.6740  140.9630 C   0  0  0  0  0  0  0  0  0  0  0  0
  190.2460  177.1970  141.1690 C   0  0  0  0  0  0  0  0  0  0  0  0
  188.2000  176.7770  144.4600 N   0  0  0  0  0  2  0  0  0  0  0  0
  184.9070  178.3840  143.9700 O   0  0  0  0  0  0  0  0  0  0  0  0
  186.8250  177.1280  144.7800 C   0  0  1  0  0  3  0  0  0  0  0  0
  186.7830  177.9660  146.0530 C   0  0  0  0  0  2  0  0  0  0  0  0
  183.4490  179.3320  145.4690 O   0  0  0  0  0  0  0  0  0  0  0  0
  184.5300  178.7220  145.2760 C   0  0  0  0  0  0  0  0  0  0  0  0
  185.3370  178.2530  146.4490 C   0  0  0  0  0  2  0  0  0  0  0  0
  186.2340  177.9550  143.6460 C   0  0  0  0  0  2  0  0  0  0  0  0
  1  6  1  0  0  0  0
  2 10  1  0  0  0  0
  4  5  1  0  0  0  0
  5  9  1  0  0  0  0
  6  5  2  0  0  0  0
  6 11  1  0  0  0  0
  7  3  1  0  0  0  0
  8  7  2  0  0  0  0
  9  2  2  0  0  0  0
  9  8  1  0  0  0  0
 10 30  1  0  0  0  0
 10  3  2  0  0  0  0
 11 15  1  0  0  0  0
 11  2  1  0  0  0  0
 12 20  1  0  0  0  0
 13 17  1  6  0  0  0
 13 16  1  0  0  0  0
 14 12  1  6  0  0  0
 14 18  1  0  0  0  0
 15 20  1  6  0  0  0
 15 19  1  0  0  0  0
 18 16  1  6  0  0  0
 19 18  1  0  0  0  0
 21 22  1  1  0  0  0
 21 14  1  0  0  0  0
 21 13  1  0  0  0  0
 22 24  1  0  0  0  0
 23 24  1  0  0  0  0
 24 25  2  0  0  0  0
 25 26  1  0  0  0  0
 26 27  1  0  0  0  0
 27 28  1  0  0  0  0
 29 27  2  0  0  0  0
 30 31  1  0  0  0  0
 31 32  1  0  0  0  0
 32 33  2  0  0  0  0
 32 39  1  0  0  0  0
 34 38  1  0  0  0  0
 35 37  2  0  0  0  0
 36 37  1  0  0  0  0
 37 40  1  0  0  0  0
 38 39  2  0  0  0  0
 38 35  1  0  0  0  0
 39 36  1  0  0  0  0
 41 45  1  0  0  0  0
 42 40  1  6  0  0  0
 42 43  1  0  0  0  0
 43 46  1  0  0  0  0
 45 44  2  0  0  0  0
 45 46  1  0  0  0  0
 47 41  1  0  0  0  0
 47 42  1  0  0  0  0
M  END
>  <MODEL>
9

>  <REMARK>
 VINA RESULT:      -7.9      2.861      7.859
  Name = 
  10 active torsions:
  status: ('A' for Active; 'I' for Inactive)
    1  A    between atoms: C_2  and  C_34
    2  A    between atoms: C_2  and  C_46
    3  A    between atoms: N_6  and  O_10
    4  A    between atoms: C_7  and  N_29
    5  A    between atoms: C_8  and  C_31
    6  A    between atoms: O_10  and  C_42
    7  A    between atoms: C_18  and  N_47
    8  A    between atoms: C_19  and  C_45
    9  A    between atoms: N_29  and  C_37
   10  A    between atoms: C_31  and  N_38
                            x       y       z     vdW  Elec       q    Type
                         _______ _______ _______ _____ _____    ______ ____

>  <TORSDO>
F 10

$$$$
