=
 OpenBabel10222419143D

 35 38  0  0  1  0  0  0  0  0999 V2000
  189.2740  176.7010  141.6890 N   0  0  0  0  0  0  0  0  0  0  0  0
  187.8130  178.2980  142.8190 C   0  0  0  0  0  3  0  0  0  0  0  0
  186.9250  178.5200  141.7100 N   0  0  0  0  0  0  0  0  0  0  0  0
  188.6570  178.3560  140.0060 C   0  0  1  0  0  3  0  0  0  0  0  0
  186.2020  178.7170  139.4710 N   0  0  0  0  0  2  0  0  0  0  0  0
  188.9120  177.5200  142.8160 C   0  0  0  0  0  0  0  0  0  0  0  0
  187.2310  178.5150  140.4460 C   0  0  0  0  0  0  0  0  0  0  0  0
  189.1600  177.0220  140.4370 C   0  0  0  0  0  3  0  0  0  0  0  0
  191.0960  177.2180  144.1200 C   0  0  0  0  0  0  0  0  0  0  0  0
  191.6880  176.7790  147.7130 N   0  0  0  0  0  1  0  0  0  0  0  0
  188.9910  177.2340  145.2390 N   0  0  0  0  0  0  0  0  0  0  0  0
  188.7850  176.9680  147.6760 C   0  0  0  0  0  1  0  0  0  0  0  0
  189.6070  177.0580  146.4360 C   0  0  0  0  0  0  0  0  0  0  0  0
  191.7070  177.0410  145.3220 N   0  0  0  0  0  0  0  0  0  0  0  0
  189.6850  177.3300  144.0710 C   0  0  0  0  0  0  0  0  0  0  0  0
  191.0010  176.9650  146.4790 C   0  0  0  0  0  0  0  0  0  0  0  0
  191.8950  177.2420  142.9410 N   0  0  0  0  0  1  0  0  0  0  0  0
  188.8290  178.5250  138.4980 C   0  0  0  0  0  2  0  0  0  0  0  0
  189.4110  176.7500  136.8870 C   0  0  0  0  0  3  0  0  0  0  0  0
  189.7590  177.4970  137.9400 C   0  0  0  0  0  3  0  0  0  0  0  0
  191.7460  176.1900  136.2460 C   0  0  0  0  0  2  0  0  0  0  0  0
  190.3390  174.4510  137.1620 C   0  0  0  0  0  2  0  0  0  0  0  0
  190.3180  175.7040  136.3060 C   0  0  1  0  0  3  0  0  0  0  0  0
  192.5520  175.1150  136.9390 C   0  0  2  0  0  3  0  0  0  0  0  0
  191.6490  174.3590  137.7940 N   0  0  0  0  0  2  0  0  0  0  0  0
  193.4160  176.7620  138.4260 O   0  0  0  0  0  1  0  0  0  0  0  0
  194.9080  175.1460  137.7800 O   0  0  0  0  0  0  0  0  0  0  0  0
  193.6440  175.7240  137.7520 C   0  0  0  0  0  0  0  0  0  0  0  0
  184.8060  178.9070  139.8330 C   0  0  0  0  0  2  0  0  0  0  0  0
  183.0030  176.0140  137.8580 C   0  0  0  0  0  3  0  0  0  0  0  0
  184.2420  177.1480  137.7200 S   0  0  0  0  0  0  0  0  0  0  0  0
  183.9850  177.8230  139.2320 C   0  0  0  0  0  0  0  0  0  0  0  0
  182.4370  176.2130  139.1160 C   0  0  0  0  0  0  0  0  0  0  0  0
  181.3530  175.4220  139.5880 N   0  0  0  0  0  1  0  0  0  0  0  0
  182.9780  177.2010  139.8780 N   0  0  0  0  0  0  0  0  0  0  0  0
  1  6  1  0  0  0  0
  3  2  1  0  0  0  0
  4 18  1  6  0  0  0
  4  8  1  0  0  0  0
  4  7  1  0  0  0  0
  5 29  1  0  0  0  0
  5  7  1  0  0  0  0
  6  2  2  0  0  0  0
  6 15  1  0  0  0  0
  7  3  2  0  0  0  0
  8  1  2  0  0  0  0
  9 14  1  0  0  0  0
 11 13  2  0  0  0  0
 13 16  1  0  0  0  0
 13 12  1  0  0  0  0
 14 16  2  0  0  0  0
 15  9  2  0  0  0  0
 15 11  1  0  0  0  0
 16 10  1  0  0  0  0
 17  9  1  0  0  0  0
 19 20  2  0  0  0  0
 20 18  1  0  0  0  0
 21 23  1  0  0  0  0
 21 24  1  0  0  0  0
 22 25  1  0  0  0  0
 23 19  1  1  0  0  0
 23 22  1  0  0  0  0
 24 28  1  1  0  0  0
 24 25  1  0  0  0  0
 28 27  2  0  0  0  0
 28 26  1  0  0  0  0
 30 33  2  0  0  0  0
 31 30  1  0  0  0  0
 31 32  1  0  0  0  0
 32 29  1  0  0  0  0
 32 35  2  0  0  0  0
 33 34  1  0  0  0  0
 33 35  1  0  0  0  0
M  END
>  <MODEL>
1

>  <REMARK>
 VINA RESULT:      -8.3      0.000      0.000
  Name = 
  7 active torsions:
  status: ('A' for Active; 'I' for Inactive)
    1  A    between atoms: C_10  and  CA_25
    2  A    between atoms: C_11  and  C_13
    3  A    between atoms: C_11  and  C_20
    4  A    between atoms: C_15  and  C_19
    5  A    between atoms: C_16  and  C_24
    6  A    between atoms: N_17  and  C_19
    7  A    between atoms: C_22  and  C_31
                            x       y       z     vdW  Elec       q    Type
                         _______ _______ _______ _____ _____    ______ ____

>  <TORSDO>
F 7

$$$$
=
 OpenBabel10222419143D

 35 38  0  0  1  0  0  0  0  0999 V2000
  186.0470  179.1440  141.8440 N   0  0  0  0  0  0  0  0  0  0  0  0
  185.8000  178.1040  144.0390 C   0  0  0  0  0  3  0  0  0  0  0  0
  187.2030  178.0360  144.3460 N   0  0  0  0  0  0  0  0  0  0  0  0
  187.9070  177.5800  142.0600 C   0  0  1  0  0  3  0  0  0  0  0  0
  189.5310  177.8510  143.9920 N   0  0  0  0  0  2  0  0  0  0  0  0
  185.2570  178.5520  142.8920 C   0  0  0  0  0  0  0  0  0  0  0  0
  188.1820  177.8500  143.5100 C   0  0  0  0  0  0  0  0  0  0  0  0
  187.2250  178.7600  141.4590 C   0  0  0  0  0  3  0  0  0  0  0  0
  182.9030  178.9330  143.8280 C   0  0  0  0  0  0  0  0  0  0  0  0
  179.6290  178.8020  142.1800 N   0  0  0  0  0  1  0  0  0  0  0  0
  183.2360  178.3810  141.5330 N   0  0  0  0  0  0  0  0  0  0  0  0
  181.3730  178.1480  139.9440 C   0  0  0  0  0  1  0  0  0  0  0  0
  181.8980  178.4290  141.3110 C   0  0  0  0  0  0  0  0  0  0  0  0
  181.5640  178.9780  143.5990 N   0  0  0  0  0  0  0  0  0  0  0  0
  183.7790  178.6330  142.7570 C   0  0  0  0  0  0  0  0  0  0  0  0
  181.0400  178.7420  142.3690 C   0  0  0  0  0  0  0  0  0  0  0  0
  183.3800  179.1450  145.1540 N   0  0  0  0  0  1  0  0  0  0  0  0
  189.1720  177.2430  141.2740 C   0  0  0  0  0  2  0  0  0  0  0  0
  189.4810  177.0460  138.8340 C   0  0  0  0  0  3  0  0  0  0  0  0
  189.1070  177.7860  139.8830 C   0  0  0  0  0  3  0  0  0  0  0  0
  188.4060  176.8220  136.6050 C   0  0  0  0  0  2  0  0  0  0  0  0
  189.0280  179.0240  137.3840 C   0  0  0  0  0  2  0  0  0  0  0  0
  189.4350  177.5620  137.4250 C   0  0  1  0  0  3  0  0  0  0  0  0
  187.5400  177.9030  135.9990 C   0  0  2  0  0  3  0  0  0  0  0  0
  187.6920  179.1040  136.8070 N   0  0  0  0  0  2  0  0  0  0  0  0
  185.5740  177.1550  134.8820 O   0  0  0  0  0  0  0  0  0  0  0  0
  185.3740  177.4150  137.1510 O   0  0  0  0  0  1  0  0  0  0  0  0
  186.1120  177.4750  135.9740 C   0  0  0  0  0  0  0  0  0  0  0  0
  189.8630  178.0770  145.3900 C   0  0  0  0  0  2  0  0  0  0  0  0
  192.4660  175.2030  146.0850 C   0  0  0  0  0  3  0  0  0  0  0  0
  191.5140  175.8700  144.8640 S   0  0  0  0  0  0  0  0  0  0  0  0
  190.8190  177.0350  145.8480 C   0  0  0  0  0  0  0  0  0  0  0  0
  192.1980  175.9470  147.2330 C   0  0  0  0  0  0  0  0  0  0  0  0
  192.8330  175.6720  148.4750 N   0  0  0  0  0  1  0  0  0  0  0  0
  191.2990  176.9600  147.1050 N   0  0  0  0  0  0  0  0  0  0  0  0
  1  6  1  0  0  0  0
  2  3  1  0  0  0  0
  4 18  1  6  0  0  0
  4  7  1  0  0  0  0
  5 29  1  0  0  0  0
  6  2  2  0  0  0  0
  7  5  1  0  0  0  0
  7  3  2  0  0  0  0
  8  1  2  0  0  0  0
  8  4  1  0  0  0  0
  9 17  1  0  0  0  0
 10 16  1  0  0  0  0
 11 15  1  0  0  0  0
 12 13  1  0  0  0  0
 13 11  2  0  0  0  0
 13 16  1  0  0  0  0
 14  9  1  0  0  0  0
 15  6  1  0  0  0  0
 15  9  2  0  0  0  0
 16 14  2  0  0  0  0
 19 20  2  0  0  0  0
 20 18  1  0  0  0  0
 21 23  1  0  0  0  0
 22 23  1  0  0  0  0
 23 19  1  1  0  0  0
 24 28  1  1  0  0  0
 24 21  1  0  0  0  0
 24 25  1  0  0  0  0
 25 22  1  0  0  0  0
 26 28  2  0  0  0  0
 28 27  1  0  0  0  0
 29 32  1  0  0  0  0
 30 33  2  0  0  0  0
 31 32  1  0  0  0  0
 31 30  1  0  0  0  0
 32 35  2  0  0  0  0
 33 34  1  0  0  0  0
 35 33  1  0  0  0  0
M  END
>  <MODEL>
2

>  <REMARK>
 VINA RESULT:      -8.0      3.664      7.963
  Name = 
  7 active torsions:
  status: ('A' for Active; 'I' for Inactive)
    1  A    between atoms: C_10  and  CA_25
    2  A    between atoms: C_11  and  C_13
    3  A    between atoms: C_11  and  C_20
    4  A    between atoms: C_15  and  C_19
    5  A    between atoms: C_16  and  C_24
    6  A    between atoms: N_17  and  C_19
    7  A    between atoms: C_22  and  C_31
                            x       y       z     vdW  Elec       q    Type
                         _______ _______ _______ _____ _____    ______ ____

>  <TORSDO>
F 7

$$$$
=
 OpenBabel10222419143D

 35 38  0  0  1  0  0  0  0  0999 V2000
  188.4440  178.5710  140.9250 N   0  0  0  0  0  0  0  0  0  0  0  0
  189.7740  176.6610  141.6630 C   0  0  0  0  0  3  0  0  0  0  0  0
  190.5120  176.4950  140.4400 N   0  0  0  0  0  0  0  0  0  0  0  0
  188.6630  177.1140  138.9810 C   0  0  1  0  0  3  0  0  0  0  0  0
  190.9830  176.5370  138.1260 N   0  0  0  0  0  2  0  0  0  0  0  0
  188.7970  177.5600  141.8870 C   0  0  0  0  0  0  0  0  0  0  0  0
  190.0890  176.7200  139.2310 C   0  0  0  0  0  0  0  0  0  0  0  0
  188.3920  178.4230  139.6380 C   0  0  0  0  0  3  0  0  0  0  0  0
  186.8000  177.8780  143.4610 C   0  0  0  0  0  0  0  0  0  0  0  0
  186.6340  177.9300  147.1240 N   0  0  0  0  0  1  0  0  0  0  0  0
  189.0010  177.5590  144.3200 N   0  0  0  0  0  0  0  0  0  0  0  0
  189.4880  177.5140  146.7310 C   0  0  0  0  0  1  0  0  0  0  0  0
  188.5340  177.6400  145.5910 C   0  0  0  0  0  0  0  0  0  0  0  0
  186.3390  177.9580  144.7360 N   0  0  0  0  0  0  0  0  0  0  0  0
  188.1810  177.6600  143.2360 C   0  0  0  0  0  0  0  0  0  0  0  0
  187.1670  177.8380  145.8050 C   0  0  0  0  0  0  0  0  0  0  0  0
  185.8830  178.0600  142.3860 N   0  0  0  0  0  1  0  0  0  0  0  0
  188.3250  177.1870  137.4940 C   0  0  0  0  0  2  0  0  0  0  0  0
  185.9180  177.1970  136.9530 C   0  0  0  0  0  3  0  0  0  0  0  0
  187.0320  176.4990  137.1970 C   0  0  0  0  0  3  0  0  0  0  0  0
  184.7930  175.1070  136.2170 C   0  0  0  0  0  2  0  0  0  0  0  0
  183.7220  176.4790  137.8940 C   0  0  0  0  0  2  0  0  0  0  0  0
  184.6020  176.5380  136.6580 C   0  0  1  0  0  3  0  0  0  0  0  0
  183.8930  174.2970  137.1220 C   0  0  2  0  0  3  0  0  0  0  0  0
  183.6290  175.0880  138.3150 N   0  0  0  0  0  2  0  0  0  0  0  0
  183.9390  171.9230  137.2970 O   0  0  0  0  0  0  0  0  0  0  0  0
  185.8260  172.9980  138.0340 O   0  0  0  0  0  1  0  0  0  0  0  0
  184.5460  173.0090  137.4900 C   0  0  0  0  0  0  0  0  0  0  0  0
  192.3680  176.1270  138.2990 C   0  0  0  0  0  2  0  0  0  0  0  0
  193.7490  176.0920  134.6090 C   0  0  0  0  0  3  0  0  0  0  0  0
  192.4290  175.6130  135.5400 S   0  0  0  0  0  0  0  0  0  0  0  0
  193.0660  176.1710  136.9860 C   0  0  0  0  0  0  0  0  0  0  0  0
  194.6470  176.6900  135.4930 C   0  0  0  0  0  0  0  0  0  0  0  0
  195.8890  177.2270  135.0560 N   0  0  0  0  0  1  0  0  0  0  0  0
  194.2720  176.7430  136.7990 N   0  0  0  0  0  0  0  0  0  0  0  0
  1  6  1  0  0  0  0
  2  6  2  0  0  0  0
  3  2  1  0  0  0  0
  4 18  1  6  0  0  0
  4  7  1  0  0  0  0
  4  8  1  0  0  0  0
  5 29  1  0  0  0  0
  5  7  1  0  0  0  0
  6 15  1  0  0  0  0
  7  3  2  0  0  0  0
  8  1  2  0  0  0  0
  9 14  1  0  0  0  0
 11 13  2  0  0  0  0
 13 16  1  0  0  0  0
 13 12  1  0  0  0  0
 14 16  2  0  0  0  0
 15  9  2  0  0  0  0
 15 11  1  0  0  0  0
 16 10  1  0  0  0  0
 17  9  1  0  0  0  0
 19 20  2  0  0  0  0
 20 18  1  0  0  0  0
 21 23  1  0  0  0  0
 21 24  1  0  0  0  0
 22 25  1  0  0  0  0
 23 19  1  1  0  0  0
 23 22  1  0  0  0  0
 24 28  1  1  0  0  0
 24 25  1  0  0  0  0
 26 28  2  0  0  0  0
 28 27  1  0  0  0  0
 30 33  2  0  0  0  0
 30 31  1  0  0  0  0
 31 32  1  0  0  0  0
 32 29  1  0  0  0  0
 33 35  1  0  0  0  0
 34 33  1  0  0  0  0
 35 32  2  0  0  0  0
M  END
>  <MODEL>
3

>  <REMARK>
 VINA RESULT:      -7.9      3.493      6.967
  Name = 
  7 active torsions:
  status: ('A' for Active; 'I' for Inactive)
    1  A    between atoms: C_10  and  CA_25
    2  A    between atoms: C_11  and  C_13
    3  A    between atoms: C_11  and  C_20
    4  A    between atoms: C_15  and  C_19
    5  A    between atoms: C_16  and  C_24
    6  A    between atoms: N_17  and  C_19
    7  A    between atoms: C_22  and  C_31
                            x       y       z     vdW  Elec       q    Type
                         _______ _______ _______ _____ _____    ______ ____

>  <TORSDO>
F 7

$$$$
=
 OpenBabel10222419143D

 35 38  0  0  1  0  0  0  0  0999 V2000
  187.7600  178.9260  140.5680 N   0  0  0  0  0  0  0  0  0  0  0  0
  186.6290  177.9980  138.6130 C   0  0  0  0  0  3  0  0  0  0  0  0
  185.3870  178.7000  138.7950 N   0  0  0  0  0  0  0  0  0  0  0  0
  185.4330  178.6030  141.2280 C   0  0  1  0  0  3  0  0  0  0  0  0
  183.6030  179.7710  139.9120 N   0  0  0  0  0  2  0  0  0  0  0  0
  187.6970  178.0440  139.4320 C   0  0  0  0  0  0  0  0  0  0  0  0
  184.8310  179.0330  139.9230 C   0  0  0  0  0  0  0  0  0  0  0  0
  186.7840  179.2140  141.3720 C   0  0  0  0  0  3  0  0  0  0  0  0
  189.8570  176.7920  140.0050 C   0  0  0  0  0  0  0  0  0  0  0  0
  192.4110  175.3190  137.8250 N   0  0  0  0  0  1  0  0  0  0  0  0
  189.2270  177.1780  137.7390 N   0  0  0  0  0  0  0  0  0  0  0  0
  190.5870  176.4100  135.8380 C   0  0  0  0  0  1  0  0  0  0  0  0
  190.3400  176.5350  137.3030 C   0  0  0  0  0  0  0  0  0  0  0  0
  190.9690  176.1490  139.5630 N   0  0  0  0  0  0  0  0  0  0  0  0
  188.9410  177.3200  139.0630 C   0  0  0  0  0  0  0  0  0  0  0  0
  191.2310  176.0010  138.2390 C   0  0  0  0  0  0  0  0  0  0  0  0
  189.6690  176.9520  141.4090 N   0  0  0  0  0  1  0  0  0  0  0  0
  184.5580  178.9620  142.4270 C   0  0  0  0  0  2  0  0  0  0  0  0
  185.2410  178.7120  144.7840 C   0  0  0  0  0  3  0  0  0  0  0  0
  184.9120  178.1380  143.6220 C   0  0  0  0  0  3  0  0  0  0  0  0
  186.8530  177.0960  145.7660 C   0  0  0  0  0  2  0  0  0  0  0  0
  185.9200  178.8190  147.1820 C   0  0  0  0  0  2  0  0  0  0  0  0
  185.6070  177.9150  146.0020 C   0  0  1  0  0  3  0  0  0  0  0  0
  187.7750  177.4500  146.9120 C   0  0  2  0  0  3  0  0  0  0  0  0
  187.3490  178.7340  147.4490 N   0  0  0  0  0  2  0  0  0  0  0  0
  189.4780  178.2670  145.4630 O   0  0  0  0  0  0  0  0  0  0  0  0
  190.1850  176.8040  147.0810 O   0  0  0  0  0  1  0  0  0  0  0  0
  189.1870  177.5290  146.4410 C   0  0  0  0  0  0  0  0  0  0  0  0
  182.9520  180.1920  138.6810 C   0  0  0  0  0  2  0  0  0  0  0  0
  179.3220  181.1400  139.8830 C   0  0  0  0  0  3  0  0  0  0  0  0
  180.5190  179.9680  140.0630 S   0  0  0  0  0  0  0  0  0  0  0  0
  181.5840  180.6880  138.9870 C   0  0  0  0  0  0  0  0  0  0  0  0
  179.8270  182.0700  138.9750 C   0  0  0  0  0  0  0  0  0  0  0  0
  179.0850  183.2180  138.5810 N   0  0  0  0  0  1  0  0  0  0  0  0
  181.0730  181.8290  138.4860 N   0  0  0  0  0  0  0  0  0  0  0  0
  1  8  2  0  0  0  0
  2  3  1  0  0  0  0
  2  6  2  0  0  0  0
  3  7  2  0  0  0  0
  4  8  1  0  0  0  0
  4 18  1  1  0  0  0
  5  7  1  0  0  0  0
  6  1  1  0  0  0  0
  7  4  1  0  0  0  0
  9 17  1  0  0  0  0
 10 16  1  0  0  0  0
 11 15  1  0  0  0  0
 12 13  1  0  0  0  0
 13 11  2  0  0  0  0
 13 16  1  0  0  0  0
 14  9  1  0  0  0  0
 15  6  1  0  0  0  0
 15  9  2  0  0  0  0
 16 14  2  0  0  0  0
 18 20  1  0  0  0  0
 20 19  2  0  0  0  0
 21 23  1  0  0  0  0
 21 24  1  0  0  0  0
 22 25  1  0  0  0  0
 23 19  1  6  0  0  0
 23 22  1  0  0  0  0
 24 28  1  6  0  0  0
 24 25  1  0  0  0  0
 26 28  2  0  0  0  0
 28 27  1  0  0  0  0
 29 32  1  0  0  0  0
 29  5  1  0  0  0  0
 30 31  1  0  0  0  0
 32 31  1  0  0  0  0
 33 30  2  0  0  0  0
 34 33  1  0  0  0  0
 35 33  1  0  0  0  0
 35 32  2  0  0  0  0
M  END
>  <MODEL>
4

>  <REMARK>
 VINA RESULT:      -7.9      3.669      7.447
  Name = 
  7 active torsions:
  status: ('A' for Active; 'I' for Inactive)
    1  A    between atoms: C_10  and  CA_25
    2  A    between atoms: C_11  and  C_13
    3  A    between atoms: C_11  and  C_20
    4  A    between atoms: C_15  and  C_19
    5  A    between atoms: C_16  and  C_24
    6  A    between atoms: N_17  and  C_19
    7  A    between atoms: C_22  and  C_31
                            x       y       z     vdW  Elec       q    Type
                         _______ _______ _______ _____ _____    ______ ____

>  <TORSDO>
F 7

$$$$
=
 OpenBabel10222419143D

 35 38  0  0  1  0  0  0  0  0999 V2000
  188.5350  178.6730  140.0060 N   0  0  0  0  0  0  0  0  0  0  0  0
  187.0800  177.7560  138.2730 C   0  0  0  0  0  3  0  0  0  0  0  0
  185.9060  178.5060  138.6320 N   0  0  0  0  0  0  0  0  0  0  0  0
  186.3320  178.4450  141.0290 C   0  0  1  0  0  3  0  0  0  0  0  0
  184.3570  179.6580  139.9920 N   0  0  0  0  0  2  0  0  0  0  0  0
  188.2640  177.7760  138.9120 C   0  0  0  0  0  0  0  0  0  0  0  0
  185.5460  178.8770  139.8260 C   0  0  0  0  0  0  0  0  0  0  0  0
  187.7080  179.0100  140.9470 C   0  0  0  0  0  3  0  0  0  0  0  0
  190.3630  176.3310  139.1730 C   0  0  0  0  0  0  0  0  0  0  0  0
  192.5880  174.8770  136.6460 N   0  0  0  0  0  1  0  0  0  0  0  0
  189.5630  176.9550  137.0160 N   0  0  0  0  0  0  0  0  0  0  0  0
  190.6820  176.2620  134.9380 C   0  0  0  0  0  1  0  0  0  0  0  0
  190.5790  176.2760  136.4250 C   0  0  0  0  0  0  0  0  0  0  0  0
  191.3770  175.6530  138.5750 N   0  0  0  0  0  0  0  0  0  0  0  0
  189.4100  177.0020  138.3690 C   0  0  0  0  0  0  0  0  0  0  0  0
  191.5060  175.6020  137.2250 C   0  0  0  0  0  0  0  0  0  0  0  0
  190.3160  176.3810  140.5960 N   0  0  0  0  0  1  0  0  0  0  0  0
  185.6690  178.8560  142.3420 C   0  0  0  0  0  2  0  0  0  0  0  0
  185.8100  178.3000  144.7420 C   0  0  0  0  0  3  0  0  0  0  0  0
  186.1650  178.0260  143.4820 C   0  0  0  0  0  3  0  0  0  0  0  0
  187.6200  176.8350  145.6090 C   0  0  0  0  0  2  0  0  0  0  0  0
  186.5300  178.3660  147.1290 C   0  0  0  0  0  2  0  0  0  0  0  0
  186.2950  177.4920  145.9110 C   0  0  1  0  0  3  0  0  0  0  0  0
  188.5230  177.2360  146.7540 C   0  0  2  0  0  3  0  0  0  0  0  0
  187.9660  178.4350  147.3640 N   0  0  0  0  0  2  0  0  0  0  0  0
  190.8890  176.9860  146.8550 O   0  0  0  0  0  1  0  0  0  0  0  0
  190.1130  178.3030  145.1460 O   0  0  0  0  0  0  0  0  0  0  0  0
  189.9050  177.5010  146.2620 C   0  0  0  0  0  0  0  0  0  0  0  0
  183.5350  180.0830  138.8700 C   0  0  0  0  0  2  0  0  0  0  0  0
  180.3140  177.8820  138.3220 C   0  0  0  0  0  3  0  0  0  0  0  0
  181.5890  178.6040  137.4900 S   0  0  0  0  0  0  0  0  0  0  0  0
  182.2720  179.2980  138.8540 C   0  0  0  0  0  0  0  0  0  0  0  0
  180.4910  178.2170  139.6640 C   0  0  0  0  0  0  0  0  0  0  0  0
  179.5960  177.7710  140.6760 N   0  0  0  0  0  1  0  0  0  0  0  0
  181.5700  178.9890  139.9620 N   0  0  0  0  0  0  0  0  0  0  0  0
  1  8  2  0  0  0  0
  2  3  1  0  0  0  0
  2  6  2  0  0  0  0
  3  7  2  0  0  0  0
  4 18  1  1  0  0  0
  6  1  1  0  0  0  0
  7  5  1  0  0  0  0
  7  4  1  0  0  0  0
  8  4  1  0  0  0  0
  9 17  1  0  0  0  0
 10 16  1  0  0  0  0
 11 15  1  0  0  0  0
 12 13  1  0  0  0  0
 13 11  2  0  0  0  0
 13 16  1  0  0  0  0
 14  9  1  0  0  0  0
 15  6  1  0  0  0  0
 15  9  2  0  0  0  0
 16 14  2  0  0  0  0
 18 20  1  0  0  0  0
 20 19  2  0  0  0  0
 21 23  1  0  0  0  0
 21 24  1  0  0  0  0
 22 25  1  0  0  0  0
 23 19  1  6  0  0  0
 23 22  1  0  0  0  0
 24 28  1  6  0  0  0
 24 25  1  0  0  0  0
 27 28  2  0  0  0  0
 28 26  1  0  0  0  0
 29  5  1  0  0  0  0
 30 33  2  0  0  0  0
 31 30  1  0  0  0  0
 31 32  1  0  0  0  0
 32 29  1  0  0  0  0
 32 35  2  0  0  0  0
 33 35  1  0  0  0  0
 33 34  1  0  0  0  0
M  END
>  <MODEL>
5

>  <REMARK>
 VINA RESULT:      -7.7      2.933      7.129
  Name = 
  7 active torsions:
  status: ('A' for Active; 'I' for Inactive)
    1  A    between atoms: C_10  and  CA_25
    2  A    between atoms: C_11  and  C_13
    3  A    between atoms: C_11  and  C_20
    4  A    between atoms: C_15  and  C_19
    5  A    between atoms: C_16  and  C_24
    6  A    between atoms: N_17  and  C_19
    7  A    between atoms: C_22  and  C_31
                            x       y       z     vdW  Elec       q    Type
                         _______ _______ _______ _____ _____    ______ ____

>  <TORSDO>
F 7

$$$$
=
 OpenBabel10222419143D

 35 38  0  0  1  0  0  0  0  0999 V2000
  186.0560  179.4300  140.7420 N   0  0  0  0  0  0  0  0  0  0  0  0
  184.4050  178.2420  139.3910 C   0  0  0  0  0  3  0  0  0  0  0  0
  183.2680  178.5500  140.2160 N   0  0  0  0  0  0  0  0  0  0  0  0
  184.4860  178.4340  142.3220 C   0  0  1  0  0  3  0  0  0  0  0  0
  182.0260  179.0390  142.1640 N   0  0  0  0  0  2  0  0  0  0  0  0
  185.6830  178.5850  139.6370 C   0  0  0  0  0  0  0  0  0  0  0  0
  183.2510  178.6900  141.5090 C   0  0  0  0  0  0  0  0  0  0  0  0
  185.5420  179.4100  141.9330 C   0  0  0  0  0  3  0  0  0  0  0  0
  188.0520  177.8550  138.9890 C   0  0  0  0  0  0  0  0  0  0  0  0
  189.5880  177.3980  135.6900 N   0  0  0  0  0  1  0  0  0  0  0  0
  186.4300  178.3810  137.3220 N   0  0  0  0  0  0  0  0  0  0  0  0
  186.9180  178.2570  134.9150 C   0  0  0  0  0  1  0  0  0  0  0  0
  187.3270  178.1090  136.3400 C   0  0  0  0  0  0  0  0  0  0  0  0
  188.9450  177.5840  138.0010 N   0  0  0  0  0  0  0  0  0  0  0  0
  186.7390  178.2600  138.6440 C   0  0  0  0  0  0  0  0  0  0  0  0
  188.6150  177.6930  136.6890 C   0  0  0  0  0  0  0  0  0  0  0  0
  188.4790  177.7650  140.3450 N   0  0  0  0  0  1  0  0  0  0  0  0
  184.2260  178.5060  143.8250 C   0  0  0  0  0  2  0  0  0  0  0  0
  186.3680  177.2970  144.0260 C   0  0  0  0  0  3  0  0  0  0  0  0
  185.4130  178.0340  144.6030 C   0  0  0  0  0  3  0  0  0  0  0  0
  188.7800  176.7170  143.8820 C   0  0  0  0  0  2  0  0  0  0  0  0
  187.9480  177.7490  145.9030 C   0  0  0  0  0  2  0  0  0  0  0  0
  187.5690  176.8020  144.7790 C   0  0  1  0  0  3  0  0  0  0  0  0
  189.8560  177.4940  144.6060 C   0  0  2  0  0  3  0  0  0  0  0  0
  189.2030  178.3960  145.5440 N   0  0  0  0  0  2  0  0  0  0  0  0
  190.9620  179.4720  143.8750 O   0  0  0  0  0  1  0  0  0  0  0  0
  191.1590  177.6640  142.4780 O   0  0  0  0  0  0  0  0  0  0  0  0
  190.6830  178.2670  143.6370 C   0  0  0  0  0  0  0  0  0  0  0  0
  180.7870  179.2710  141.4380 C   0  0  0  0  0  2  0  0  0  0  0  0
  179.4920  175.9620  139.7360 C   0  0  0  0  0  3  0  0  0  0  0  0
  180.1130  177.4870  139.3780 S   0  0  0  0  0  0  0  0  0  0  0  0
  180.2290  177.9710  140.9780 C   0  0  0  0  0  0  0  0  0  0  0  0
  179.4120  175.8950  141.1260 C   0  0  0  0  0  0  0  0  0  0  0  0
  178.9330  174.7370  141.7990 N   0  0  0  0  0  1  0  0  0  0  0  0
  179.8230  176.9950  141.8140 N   0  0  0  0  0  0  0  0  0  0  0  0
  1  8  2  0  0  0  0
  2  6  2  0  0  0  0
  2  3  1  0  0  0  0
  3  7  2  0  0  0  0
  4 18  1  1  0  0  0
  6  1  1  0  0  0  0
  7  5  1  0  0  0  0
  7  4  1  0  0  0  0
  8  4  1  0  0  0  0
  9 17  1  0  0  0  0
 10 16  1  0  0  0  0
 11 15  2  0  0  0  0
 12 13  1  0  0  0  0
 13 16  2  0  0  0  0
 13 11  1  0  0  0  0
 14  9  2  0  0  0  0
 15  9  1  0  0  0  0
 15  6  1  0  0  0  0
 16 14  1  0  0  0  0
 18 20  1  0  0  0  0
 19 20  2  0  0  0  0
 21 24  1  0  0  0  0
 21 23  1  0  0  0  0
 23 19  1  6  0  0  0
 23 22  1  0  0  0  0
 24 28  1  6  0  0  0
 24 25  1  0  0  0  0
 25 22  1  0  0  0  0
 27 28  2  0  0  0  0
 28 26  1  0  0  0  0
 29  5  1  0  0  0  0
 30 33  2  0  0  0  0
 31 30  1  0  0  0  0
 31 32  1  0  0  0  0
 32 29  1  0  0  0  0
 32 35  2  0  0  0  0
 33 34  1  0  0  0  0
 33 35  1  0  0  0  0
M  END
>  <MODEL>
6

>  <REMARK>
 VINA RESULT:      -7.5      2.931      7.035
  Name = 
  7 active torsions:
  status: ('A' for Active; 'I' for Inactive)
    1  A    between atoms: C_10  and  CA_25
    2  A    between atoms: C_11  and  C_13
    3  A    between atoms: C_11  and  C_20
    4  A    between atoms: C_15  and  C_19
    5  A    between atoms: C_16  and  C_24
    6  A    between atoms: N_17  and  C_19
    7  A    between atoms: C_22  and  C_31
                            x       y       z     vdW  Elec       q    Type
                         _______ _______ _______ _____ _____    ______ ____

>  <TORSDO>
F 7

$$$$
=
 OpenBabel10222419143D

 35 38  0  0  1  0  0  0  0  0999 V2000
  188.6120  178.6160  141.0570 N   0  0  0  0  0  0  0  0  0  0  0  0
  189.8540  176.6230  141.7230 C   0  0  0  0  0  3  0  0  0  0  0  0
  190.5740  176.4590  140.4890 N   0  0  0  0  0  0  0  0  0  0  0  0
  188.7460  177.2110  139.0670 C   0  0  1  0  0  3  0  0  0  0  0  0
  191.0290  176.5510  138.1740 N   0  0  0  0  0  2  0  0  0  0  0  0
  188.9230  177.5590  141.9840 C   0  0  0  0  0  0  0  0  0  0  0  0
  190.1540  176.7420  139.2910 C   0  0  0  0  0  0  0  0  0  0  0  0
  188.5430  178.5110  139.7660 C   0  0  0  0  0  3  0  0  0  0  0  0
  186.9480  177.8760  143.5840 C   0  0  0  0  0  0  0  0  0  0  0  0
  186.8230  177.8770  147.2490 N   0  0  0  0  0  1  0  0  0  0  0  0
  189.1540  177.5220  144.4140 N   0  0  0  0  0  0  0  0  0  0  0  0
  189.6670  177.4380  146.8180 C   0  0  0  0  0  1  0  0  0  0  0  0
  188.7020  177.5890  145.6920 C   0  0  0  0  0  0  0  0  0  0  0  0
  186.5020  177.9430  144.8660 N   0  0  0  0  0  0  0  0  0  0  0  0
  188.3240  177.6470  143.3410 C   0  0  0  0  0  0  0  0  0  0  0  0
  187.3400  177.7990  145.9240 C   0  0  0  0  0  0  0  0  0  0  0  0
  186.0200  178.0830  142.5230 N   0  0  0  0  0  1  0  0  0  0  0  0
  188.4010  177.3470  137.5860 C   0  0  0  0  0  2  0  0  0  0  0  0
  186.6050  176.2500  136.2980 C   0  0  0  0  0  3  0  0  0  0  0  0
  186.9650  177.0180  137.3320 C   0  0  0  0  0  3  0  0  0  0  0  0
  184.4780  175.3780  137.2420 C   0  0  0  0  0  2  0  0  0  0  0  0
  184.3840  177.1290  135.5790 C   0  0  0  0  0  2  0  0  0  0  0  0
  185.1720  175.9060  136.0100 C   0  0  1  0  0  3  0  0  0  0  0  0
  183.2330  176.2250  137.3800 C   0  0  2  0  0  3  0  0  0  0  0  0
  183.4500  177.4620  136.6460 N   0  0  0  0  0  2  0  0  0  0  0  0
  183.3980  177.5770  139.3330 O   0  0  0  0  0  0  0  0  0  0  0  0
  182.2070  175.6340  139.5840 O   0  0  0  0  0  1  0  0  0  0  0  0
  182.9580  176.5170  138.8160 C   0  0  0  0  0  0  0  0  0  0  0  0
  192.3940  176.0700  138.3200 C   0  0  0  0  0  2  0  0  0  0  0  0
  193.7860  176.1510  134.6360 C   0  0  0  0  0  3  0  0  0  0  0  0
  192.4700  175.6300  135.5490 S   0  0  0  0  0  0  0  0  0  0  0  0
  193.0950  176.1580  137.0120 C   0  0  0  0  0  0  0  0  0  0  0  0
  194.6730  176.7380  135.5380 C   0  0  0  0  0  0  0  0  0  0  0  0
  195.9090  177.3040  135.1200 N   0  0  0  0  0  1  0  0  0  0  0  0
  194.2930  176.7510  136.8440 N   0  0  0  0  0  0  0  0  0  0  0  0
  1  6  1  0  0  0  0
  2  6  2  0  0  0  0
  3  2  1  0  0  0  0
  4 18  1  6  0  0  0
  4  7  1  0  0  0  0
  4  8  1  0  0  0  0
  5 29  1  0  0  0  0
  5  7  1  0  0  0  0
  6 15  1  0  0  0  0
  7  3  2  0  0  0  0
  8  1  2  0  0  0  0
  9 14  1  0  0  0  0
 11 13  2  0  0  0  0
 13 16  1  0  0  0  0
 13 12  1  0  0  0  0
 14 16  2  0  0  0  0
 15  9  2  0  0  0  0
 15 11  1  0  0  0  0
 16 10  1  0  0  0  0
 17  9  1  0  0  0  0
 19 20  2  0  0  0  0
 20 18  1  0  0  0  0
 21 24  1  0  0  0  0
 22 23  1  0  0  0  0
 22 25  1  0  0  0  0
 23 19  1  1  0  0  0
 23 21  1  0  0  0  0
 24 28  1  1  0  0  0
 25 24  1  0  0  0  0
 28 26  2  0  0  0  0
 28 27  1  0  0  0  0
 30 33  2  0  0  0  0
 30 31  1  0  0  0  0
 31 32  1  0  0  0  0
 32 29  1  0  0  0  0
 33 35  1  0  0  0  0
 34 33  1  0  0  0  0
 35 32  2  0  0  0  0
M  END
>  <MODEL>
7

>  <REMARK>
 VINA RESULT:      -7.5      3.643      7.168
  Name = 
  7 active torsions:
  status: ('A' for Active; 'I' for Inactive)
    1  A    between atoms: C_10  and  CA_25
    2  A    between atoms: C_11  and  C_13
    3  A    between atoms: C_11  and  C_20
    4  A    between atoms: C_15  and  C_19
    5  A    between atoms: C_16  and  C_24
    6  A    between atoms: N_17  and  C_19
    7  A    between atoms: C_22  and  C_31
                            x       y       z     vdW  Elec       q    Type
                         _______ _______ _______ _____ _____    ______ ____

>  <TORSDO>
F 7

$$$$
=
 OpenBabel10222419143D

 35 38  0  0  1  0  0  0  0  0999 V2000
  185.4020  179.3690  141.6690 N   0  0  0  0  0  0  0  0  0  0  0  0
  184.9190  177.9670  143.6080 C   0  0  0  0  0  3  0  0  0  0  0  0
  186.2670  177.9030  144.1030 N   0  0  0  0  0  0  0  0  0  0  0  0
  187.3080  177.8640  141.9020 C   0  0  1  0  0  3  0  0  0  0  0  0
  188.6290  177.8700  144.0700 N   0  0  0  0  0  2  0  0  0  0  0  0
  184.5130  178.5800  142.4810 C   0  0  0  0  0  0  0  0  0  0  0  0
  187.3620  177.8980  143.4010 C   0  0  0  0  0  0  0  0  0  0  0  0
  186.6430  179.1010  141.4050 C   0  0  0  0  0  3  0  0  0  0  0  0
  182.5530  178.4670  140.8340 C   0  0  0  0  0  0  0  0  0  0  0  0
  178.9440  178.7990  141.3950 N   0  0  0  0  0  1  0  0  0  0  0  0
  182.1830  178.8550  143.1570 N   0  0  0  0  0  0  0  0  0  0  0  0
  179.9350  179.1660  144.1060 C   0  0  0  0  0  1  0  0  0  0  0  0
  180.8430  178.9160  142.9510 C   0  0  0  0  0  0  0  0  0  0  0  0
  181.2100  178.5290  140.6340 N   0  0  0  0  0  0  0  0  0  0  0  0
  183.0660  178.6250  142.1450 C   0  0  0  0  0  0  0  0  0  0  0  0
  180.3440  178.7420  141.6570 C   0  0  0  0  0  0  0  0  0  0  0  0
  183.4080  178.2870  139.7090 N   0  0  0  0  0  1  0  0  0  0  0  0
  188.6890  177.7120  141.2670 C   0  0  0  0  0  2  0  0  0  0  0  0
  189.5530  177.4850  138.9670 C   0  0  0  0  0  3  0  0  0  0  0  0
  188.6460  178.0040  139.8010 C   0  0  0  0  0  3  0  0  0  0  0  0
  188.6970  176.7550  136.7510 C   0  0  0  0  0  2  0  0  0  0  0  0
  188.9370  179.1210  137.1870 C   0  0  0  0  0  2  0  0  0  0  0  0
  189.5430  177.7620  137.4920 C   0  0  1  0  0  3  0  0  0  0  0  0
  187.7360  177.5830  135.9290 C   0  0  2  0  0  3  0  0  0  0  0  0
  187.6530  178.9050  136.5340 N   0  0  0  0  0  2  0  0  0  0  0  0
  186.2180  175.8800  135.2470 O   0  0  0  0  0  0  0  0  0  0  0  0
  185.3260  177.5060  136.5960 O   0  0  0  0  0  1  0  0  0  0  0  0
  186.3900  176.9440  135.8990 C   0  0  0  0  0  0  0  0  0  0  0  0
  188.7490  177.8720  145.5200 C   0  0  0  0  0  2  0  0  0  0  0  0
  192.1520  175.9570  146.0420 C   0  0  0  0  0  3  0  0  0  0  0  0
  191.0280  176.3720  144.8580 S   0  0  0  0  0  0  0  0  0  0  0  0
  189.9960  177.1650  145.9150 C   0  0  0  0  0  0  0  0  0  0  0  0
  191.6620  176.4780  147.2390 C   0  0  0  0  0  0  0  0  0  0  0  0
  192.3600  176.3270  148.4690 N   0  0  0  0  0  1  0  0  0  0  0  0
  190.4810  177.1500  147.1720 N   0  0  0  0  0  0  0  0  0  0  0  0
  1  6  1  0  0  0  0
  2  3  1  0  0  0  0
  4 18  1  6  0  0  0
  4  7  1  0  0  0  0
  5 29  1  0  0  0  0
  6  2  2  0  0  0  0
  7  5  1  0  0  0  0
  7  3  2  0  0  0  0
  8  1  2  0  0  0  0
  8  4  1  0  0  0  0
  9 15  1  0  0  0  0
 10 16  1  0  0  0  0
 13 11  1  0  0  0  0
 13 12  1  0  0  0  0
 14  9  2  0  0  0  0
 14 16  1  0  0  0  0
 15  6  1  0  0  0  0
 15 11  2  0  0  0  0
 16 13  2  0  0  0  0
 17  9  1  0  0  0  0
 19 20  2  0  0  0  0
 20 18  1  0  0  0  0
 21 23  1  0  0  0  0
 22 23  1  0  0  0  0
 23 19  1  1  0  0  0
 24 28  1  1  0  0  0
 24 25  1  0  0  0  0
 24 21  1  0  0  0  0
 25 22  1  0  0  0  0
 26 28  2  0  0  0  0
 28 27  1  0  0  0  0
 29 32  1  0  0  0  0
 30 33  2  0  0  0  0
 31 32  1  0  0  0  0
 31 30  1  0  0  0  0
 32 35  2  0  0  0  0
 33 34  1  0  0  0  0
 35 33  1  0  0  0  0
M  END
>  <MODEL>
8

>  <REMARK>
 VINA RESULT:      -7.5      3.567      7.997
  Name = 
  7 active torsions:
  status: ('A' for Active; 'I' for Inactive)
    1  A    between atoms: C_10  and  CA_25
    2  A    between atoms: C_11  and  C_13
    3  A    between atoms: C_11  and  C_20
    4  A    between atoms: C_15  and  C_19
    5  A    between atoms: C_16  and  C_24
    6  A    between atoms: N_17  and  C_19
    7  A    between atoms: C_22  and  C_31
                            x       y       z     vdW  Elec       q    Type
                         _______ _______ _______ _____ _____    ______ ____

>  <TORSDO>
F 7

$$$$
=
 OpenBabel10222419143D

 35 38  0  0  1  0  0  0  0  0999 V2000
  188.0780  178.5430  140.7820 N   0  0  0  0  0  0  0  0  0  0  0  0
  189.6340  176.9770  141.8240 C   0  0  0  0  0  3  0  0  0  0  0  0
  190.5130  176.8440  140.6940 N   0  0  0  0  0  0  0  0  0  0  0  0
  188.7470  176.9900  139.0240 C   0  0  1  0  0  3  0  0  0  0  0  0
  191.2070  176.7740  138.4380 N   0  0  0  0  0  2  0  0  0  0  0  0
  188.4980  177.6980  141.8700 C   0  0  0  0  0  0  0  0  0  0  0  0
  190.1860  176.8850  139.4360 C   0  0  0  0  0  0  0  0  0  0  0  0
  188.1860  178.2790  139.5170 C   0  0  0  0  0  3  0  0  0  0  0  0
  188.3040  177.5750  144.4210 C   0  0  0  0  0  0  0  0  0  0  0  0
  185.4230  178.1190  146.6230 N   0  0  0  0  0  1  0  0  0  0  0  0
  186.4120  178.1050  143.0710 N   0  0  0  0  0  0  0  0  0  0  0  0
  184.1910  178.5610  144.0240 C   0  0  0  0  0  1  0  0  0  0  0  0
  185.6340  178.2180  144.1770 C   0  0  0  0  0  0  0  0  0  0  0  0
  187.5190  177.6890  145.5240 N   0  0  0  0  0  0  0  0  0  0  0  0
  187.7380  177.7990  143.1420 C   0  0  0  0  0  0  0  0  0  0  0  0
  186.2030  178.0110  145.4360 C   0  0  0  0  0  0  0  0  0  0  0  0
  189.6650  177.1880  144.5840 N   0  0  0  0  0  1  0  0  0  0  0  0
  188.5570  176.8730  137.5130 C   0  0  0  0  0  2  0  0  0  0  0  0
  186.2550  176.9480  136.6290 C   0  0  0  0  0  3  0  0  0  0  0  0
  187.2460  176.2380  137.1780 C   0  0  0  0  0  3  0  0  0  0  0  0
  185.0520  174.8670  135.9980 C   0  0  0  0  0  2  0  0  0  0  0  0
  183.9490  176.4600  137.4440 C   0  0  0  0  0  2  0  0  0  0  0  0
  184.9240  176.3440  136.2860 C   0  0  1  0  0  3  0  0  0  0  0  0
  184.0300  174.2060  136.8950 C   0  0  2  0  0  3  0  0  0  0  0  0
  183.7280  175.1250  137.9830 N   0  0  0  0  0  2  0  0  0  0  0  0
  185.6680  172.9110  138.0400 O   0  0  0  0  0  1  0  0  0  0  0  0
  183.8430  171.7430  137.2900 O   0  0  0  0  0  0  0  0  0  0  0  0
  184.5630  172.9230  137.4360 C   0  0  0  0  0  0  0  0  0  0  0  0
  192.6170  176.6400  138.7710 C   0  0  0  0  0  2  0  0  0  0  0  0
  193.7150  173.6600  136.4400 C   0  0  0  0  0  3  0  0  0  0  0  0
  192.3560  174.3760  137.1320 S   0  0  0  0  0  0  0  0  0  0  0  0
  193.2200  175.5560  137.9500 C   0  0  0  0  0  0  0  0  0  0  0  0
  194.8100  174.4010  136.8830 C   0  0  0  0  0  0  0  0  0  0  0  0
  196.1410  174.0880  136.4920 N   0  0  0  0  0  1  0  0  0  0  0  0
  194.5410  175.4490  137.7080 N   0  0  0  0  0  0  0  0  0  0  0  0
  1  6  1  0  0  0  0
  2  6  2  0  0  0  0
  3  2  1  0  0  0  0
  4 18  1  6  0  0  0
  4  7  1  0  0  0  0
  4  8  1  0  0  0  0
  5 29  1  0  0  0  0
  5  7  1  0  0  0  0
  6 15  1  0  0  0  0
  7  3  2  0  0  0  0
  8  1  2  0  0  0  0
  9 17  1  0  0  0  0
  9 14  1  0  0  0  0
 11 15  1  0  0  0  0
 11 13  2  0  0  0  0
 12 13  1  0  0  0  0
 13 16  1  0  0  0  0
 15  9  2  0  0  0  0
 16 14  2  0  0  0  0
 16 10  1  0  0  0  0
 19 20  2  0  0  0  0
 20 18  1  0  0  0  0
 21 23  1  0  0  0  0
 21 24  1  0  0  0  0
 22 25  1  0  0  0  0
 23 19  1  1  0  0  0
 23 22  1  0  0  0  0
 24 28  1  1  0  0  0
 24 25  1  0  0  0  0
 27 28  2  0  0  0  0
 28 26  1  0  0  0  0
 30 33  2  0  0  0  0
 30 31  1  0  0  0  0
 31 32  1  0  0  0  0
 32 29  1  0  0  0  0
 33 35  1  0  0  0  0
 34 33  1  0  0  0  0
 35 32  2  0  0  0  0
M  END
>  <MODEL>
9

>  <REMARK>
 VINA RESULT:      -7.5      3.549      7.018
  Name = 
  7 active torsions:
  status: ('A' for Active; 'I' for Inactive)
    1  A    between atoms: C_10  and  CA_25
    2  A    between atoms: C_11  and  C_13
    3  A    between atoms: C_11  and  C_20
    4  A    between atoms: C_15  and  C_19
    5  A    between atoms: C_16  and  C_24
    6  A    between atoms: N_17  and  C_19
    7  A    between atoms: C_22  and  C_31
                            x       y       z     vdW  Elec       q    Type
                         _______ _______ _______ _____ _____    ______ ____

>  <TORSDO>
F 7

$$$$
