=
 OpenBabel10222417353D

 57 60  0  0  1  0  0  0  0  0999 V2000
  190.0740  174.7510  137.3730 C   0  0  0  0  0  3  0  0  0  0  0  0
  190.6520  175.9520  137.3540 C   0  0  0  0  0  0  0  0  0  0  0  0
  188.6570  174.5540  137.0630 C   0  0  0  0  0  3  0  0  0  0  0  0
  188.2730  173.7800  136.0640 C   0  0  0  0  0  3  0  0  0  0  0  0
  184.9050  171.9410  135.1500 S   0  0  0  0  0  0  0  0  0  0  0  0
  186.8190  173.5900  135.8070 C   0  0  2  0  0  3  0  0  0  0  0  0
  186.0630  173.3690  137.0890 C   0  0  0  0  0  2  0  0  0  0  0  0
  184.6850  172.9310  136.6640 C   0  0  1  0  0  3  0  0  0  0  0  0
  186.5900  172.4460  134.9460 N   0  0  0  0  0  2  0  0  0  0  0  0
  183.8840  174.1000  136.3480 N   0  0  0  0  0  2  0  0  0  0  0  0
  182.6790  174.0390  137.1570 C   0  0  2  0  0  3  0  0  0  0  0  0
  181.5330  173.6130  136.2940 C   0  0  0  0  0  0  0  0  0  0  0  0
  180.2580  173.4570  136.8350 O   0  0  0  0  0  1  0  0  0  0  0  0
  181.7090  173.4740  135.0570 O   0  0  0  0  0  0  0  0  0  0  0  0
  182.4190  175.4060  137.8060 C   0  0  1  0  0  3  0  0  0  0  0  0
  182.2120  176.5060  136.7620 C   0  0  0  0  0  2  0  0  0  0  0  0
  183.1090  177.5570  136.9700 O   0  0  0  0  0  1  0  0  0  0  0  0
  181.3010  175.3360  138.6480 O   0  0  0  0  0  0  0  0  0  0  0  0
  181.5470  176.2720  139.6520 C   0  0  0  0  0  2  0  0  0  0  0  0
  180.2700  176.5320  140.4290 C   0  0  0  0  0  1  0  0  0  0  0  0
  192.0110  176.0580  137.7980 N   0  0  0  0  0  2  0  0  0  0  0  0
  193.1750  175.6780  137.0020 C   0  0  2  0  0  3  0  0  0  0  0  0
  193.0570  176.2300  135.6010 C   0  0  0  0  0  1  0  0  0  0  0  0
  194.6030  173.6020  137.1600 C   0  0  0  0  0  0  0  0  0  0  0  0
  196.7730  173.4670  137.6910 N   0  0  0  0  0  0  0  0  0  0  0  0
  196.5140  172.0430  137.6950 C   0  0  0  0  0  2  0  0  0  0  0  0
  193.3400  174.2350  136.9520 N   0  0  0  0  0  2  0  0  0  0  0  0
  194.7640  171.8260  137.2120 S   0  0  0  0  0  0  0  0  0  0  0  0
  195.6690  174.2690  137.4170 N   0  0  0  0  0  0  0  0  0  0  0  0
  198.0680  174.0350  138.0270 C   0  0  0  0  0  2  0  0  0  0  0  0
  197.9380  174.9550  139.1940 C   0  0  0  0  0  0  0  0  0  0  0  0
  197.0990  174.7090  140.1000 O   0  0  0  0  0  1  0  0  0  0  0  0
  198.7180  176.1020  139.2630 O   0  0  0  0  0  0  0  0  0  0  0  0
  189.8770  177.1810  136.9610 C   0  0  0  0  0  2  0  0  0  0  0  0
  189.0450  177.9230  138.3670 S   0  0  0  0  0  0  0  0  0  0  0  0
  189.0810  179.4140  138.2140 O   0  0  0  0  0  0  0  0  0  0  0  0
  187.6170  177.4690  138.3920 O   0  0  0  0  0  0  0  0  0  0  0  0
  191.1310  177.7240  140.1470 C   0  0  0  0  0  3  0  0  0  0  0  0
  189.7740  177.4990  139.9040 C   0  0  0  0  0  0  0  0  0  0  0  0
  189.5160  176.6430  142.1690 C   0  0  0  0  0  0  0  0  0  0  0  0
  190.8890  176.8360  142.3940 C   0  0  0  0  0  0  0  0  0  0  0  0
  191.6250  176.4380  143.9380 Cl  0  0  0  0  0  0  0  0  0  0  0  0
  191.6880  177.3860  141.3850 C   0  0  0  0  0  3  0  0  0  0  0  0
  188.9700  176.9760  140.9210 C   0  0  0  0  0  3  0  0  0  0  0  0
  188.6800  176.1270  143.2140 N   0  0  0  0  0  2  0  0  0  0  0  0
  188.5140  176.8120  144.4910 C   0  0  0  0  0  2  0  0  0  0  0  0
  186.6220  177.7510  145.7760 C   0  0  0  0  0  2  0  0  0  0  0  0
  186.3600  177.3610  143.3330 C   0  0  0  0  0  2  0  0  0  0  0  0
  185.4410  178.7210  145.7990 C   0  0  1  0  0  3  0  0  0  0  0  0
  185.9050  180.0210  145.8790 F   0  0  0  0  0  0  0  0  0  0  0  0
  187.3420  177.7750  144.4350 C   0  0  2  0  0  3  0  0  0  0  0  0
  185.2070  178.2610  143.3190 N   0  0  0  0  0  0  0  0  0  0  0  0
  184.5860  178.5650  144.5840 C   0  0  0  0  0  0  0  0  0  0  0  0
  183.2690  178.6850  144.7010 C   0  0  0  0  0  2  0  0  0  0  0  0
  183.5510  178.5890  141.5940 C   0  0  0  0  0  2  0  0  0  0  0  0
  184.7610  178.8530  142.0790 C   0  0  0  0  0  0  0  0  0  0  0  0
  185.6710  179.5930  141.2640 N   0  0  0  0  0  1  0  0  0  0  0  0
  2  1  2  0  0  0  0
  2 21  1  0  0  0  0
  3  1  1  0  0  0  0
  4  3  2  0  0  0  0
  5  8  1  0  0  0  0
  6  4  1  1  0  0  0
  6  7  1  0  0  0  0
  8 10  1  6  0  0  0
  8  7  1  0  0  0  0
  9  5  1  0  0  0  0
  9  6  1  0  0  0  0
 10 11  1  0  0  0  0
 11 12  1  6  0  0  0
 11 15  1  0  0  0  0
 12 13  1  0  0  0  0
 14 12  2  0  0  0  0
 15 16  1  6  0  0  0
 15 18  1  0  0  0  0
 16 17  1  0  0  0  0
 18 19  1  0  0  0  0
 19 20  1  0  0  0  0
 22 23  1  6  0  0  0
 22 21  1  0  0  0  0
 24 28  1  0  0  0  0
 24 29  2  0  0  0  0
 25 26  1  0  0  0  0
 25 30  1  0  0  0  0
 27 22  1  0  0  0  0
 27 24  1  0  0  0  0
 28 26  1  0  0  0  0
 29 25  1  0  0  0  0
 30 31  1  0  0  0  0
 31 33  2  0  0  0  0
 31 32  1  0  0  0  0
 34  2  1  0  0  0  0
 34 35  1  0  0  0  0
 35 37  2  0  0  0  0
 35 39  1  0  0  0  0
 36 35  2  0  0  0  0
 38 43  1  0  0  0  0
 39 38  2  0  0  0  0
 39 44  1  0  0  0  0
 40 41  1  0  0  0  0
 40 45  1  0  0  0  0
 41 42  1  0  0  0  0
 43 41  2  0  0  0  0
 44 40  2  0  0  0  0
 45 46  1  0  0  0  0
 47 49  1  0  0  0  0
 48 51  1  0  0  0  0
 49 50  1  6  0  0  0
 51 46  1  1  0  0  0
 51 47  1  0  0  0  0
 52 48  1  0  0  0  0
 52 53  1  0  0  0  0
 53 54  2  0  0  0  0
 53 49  1  0  0  0  0
 55 56  2  0  0  0  0
 56 52  1  0  0  0  0
 57 56  1  0  0  0  0
M  END
>  <MODEL>
1

>  <REMARK>
 VINA RESULT:      -7.1      0.000      0.000
  Name = 
  21 active torsions:
  status: ('A' for Active; 'I' for Inactive)
    1  A    between atoms: C_1  and  O_28
    2  A    between atoms: C_3  and  C_30
    3  A    between atoms: S_4  and  C_12
    4  A    between atoms: S_4  and  C_17
    5  A    between atoms: C_9  and  C_25
    6  A    between atoms: N_11  and  C_41
    7  A    between atoms: CA_13  and  C_16
    8  A    between atoms: CA_13  and  C_30
    9  A    between atoms: CA_13  and  N_53
   10  A    between atoms: C_14  and  C_22
   11  A    between atoms: C_17  and  C_48
   12  A    between atoms: C_18  and  N_35
   13  A    between atoms: C_21  and  C_34
   14  A    between atoms: C_21  and  N_47
   15  A    between atoms: C_23  and  C_41
   16  A    between atoms: C_27  and  N_47
   17  A    between atoms: O_28  and  C_30
   18  A    between atoms: N_31  and  C_44
   19  A    between atoms: C_44  and  N_57
   20  A    between atoms: C_48  and  N_57
   21  A    between atoms: C_49  and  N_53
                            x       y       z     vdW  Elec       q    Type
                         _______ _______ _______ _____ _____    ______ ____

>  <TORSDO>
F 21

$$$$
=
 OpenBabel10222417353D

 57 60  0  0  1  0  0  0  0  0999 V2000
  189.0530  177.1640  139.9860 C   0  0  0  0  0  3  0  0  0  0  0  0
  188.5680  178.2980  139.4820 C   0  0  0  0  0  0  0  0  0  0  0  0
  190.0640  176.3630  139.2940 C   0  0  0  0  0  3  0  0  0  0  0  0
  191.3480  176.6600  139.3710 C   0  0  0  0  0  3  0  0  0  0  0  0
  192.8100  174.1580  136.6960 S   0  0  0  0  0  0  0  0  0  0  0  0
  192.3390  175.7970  138.6710 C   0  0  2  0  0  3  0  0  0  0  0  0
  193.1800  176.5990  137.7150 C   0  0  0  0  0  2  0  0  0  0  0  0
  193.9310  175.5790  136.8990 C   0  0  1  0  0  3  0  0  0  0  0  0
  191.6750  174.7500  137.9180 N   0  0  0  0  0  2  0  0  0  0  0  0
  195.1080  175.1480  137.6330 N   0  0  0  0  0  2  0  0  0  0  0  0
  195.7870  174.1480  136.8260 C   0  0  2  0  0  3  0  0  0  0  0  0
  195.6730  172.8180  137.5010 C   0  0  0  0  0  0  0  0  0  0  0  0
  195.4460  172.7380  138.8750 O   0  0  0  0  0  1  0  0  0  0  0  0
  195.7030  171.7690  136.8100 O   0  0  0  0  0  0  0  0  0  0  0  0
  197.2530  174.5540  136.6210 C   0  0  1  0  0  3  0  0  0  0  0  0
  197.4610  175.3060  135.3040 C   0  0  0  0  0  2  0  0  0  0  0  0
  198.8190  175.5570  135.0900 O   0  0  0  0  0  1  0  0  0  0  0  0
  197.6900  175.3450  137.6920 O   0  0  0  0  0  0  0  0  0  0  0  0
  198.5920  174.5430  138.3890 C   0  0  0  0  0  2  0  0  0  0  0  0
  198.9660  175.2140  139.6970 C   0  0  0  0  0  1  0  0  0  0  0  0
  187.4880  178.9410  140.1730 N   0  0  0  0  0  2  0  0  0  0  0  0
  186.2350  178.2880  140.5430 C   0  0  2  0  0  3  0  0  0  0  0  0
  185.0940  178.8330  139.7160 C   0  0  0  0  0  1  0  0  0  0  0  0
  186.7770  177.9060  142.9790 C   0  0  0  0  0  0  0  0  0  0  0  0
  188.5740  176.8850  143.8400 N   0  0  0  0  0  0  0  0  0  0  0  0
  188.0390  177.3650  145.0970 C   0  0  0  0  0  2  0  0  0  0  0  0
  185.9440  178.4540  141.9570 N   0  0  0  0  0  2  0  0  0  0  0  0
  186.4700  178.2180  144.7090 S   0  0  0  0  0  0  0  0  0  0  0  0
  187.8440  177.2440  142.7100 N   0  0  0  0  0  0  0  0  0  0  0  0
  189.8240  176.1500  143.7430 C   0  0  0  0  0  2  0  0  0  0  0  0
  190.9790  177.0940  143.7880 C   0  0  0  0  0  0  0  0  0  0  0  0
  191.6540  177.2120  144.8440 O   0  0  0  0  0  1  0  0  0  0  0  0
  191.2860  177.8670  142.6770 O   0  0  0  0  0  0  0  0  0  0  0  0
  189.0740  178.8470  138.1750 C   0  0  0  0  0  2  0  0  0  0  0  0
  187.9880  178.4290  136.8090 S   0  0  0  0  0  0  0  0  0  0  0  0
  186.8410  179.3930  136.7950 O   0  0  0  0  0  0  0  0  0  0  0  0
  188.7450  178.5510  135.5210 O   0  0  0  0  0  0  0  0  0  0  0  0
  188.1830  175.6860  136.7780 C   0  0  0  0  0  3  0  0  0  0  0  0
  187.3490  176.7990  136.9090 C   0  0  0  0  0  0  0  0  0  0  0  0
  185.4470  175.3240  137.2820 C   0  0  0  0  0  0  0  0  0  0  0  0
  186.2840  174.2100  137.1110 C   0  0  0  0  0  0  0  0  0  0  0  0
  185.6590  172.5720  137.2350 Cl  0  0  0  0  0  0  0  0  0  0  0  0
  187.6510  174.3950  136.8720 C   0  0  0  0  0  3  0  0  0  0  0  0
  185.9900  176.6140  137.1780 C   0  0  0  0  0  3  0  0  0  0  0  0
  184.0560  175.1430  137.5790 N   0  0  0  0  0  2  0  0  0  0  0  0
  183.0100  175.9250  136.9300 C   0  0  0  0  0  2  0  0  0  0  0  0
  181.6160  176.3640  138.9250 C   0  0  0  0  0  2  0  0  0  0  0  0
  181.6630  178.0330  137.0810 C   0  0  0  0  0  2  0  0  0  0  0  0
  181.0820  177.3980  139.9150 C   0  0  1  0  0  3  0  0  0  0  0  0
  182.0970  177.8080  140.7580 F   0  0  0  0  0  0  0  0  0  0  0  0
  182.4940  177.0080  137.8610 C   0  0  2  0  0  3  0  0  0  0  0  0
  181.1240  179.0440  137.9910 N   0  0  0  0  0  0  0  0  0  0  0  0
  180.5060  178.5810  139.2080 C   0  0  0  0  0  0  0  0  0  0  0  0
  179.4210  179.1650  139.7020 C   0  0  0  0  0  2  0  0  0  0  0  0
  181.9300  181.2610  138.5030 C   0  0  0  0  0  2  0  0  0  0  0  0
  181.2680  180.4480  137.6840 C   0  0  0  0  0  0  0  0  0  0  0  0
  180.5570  181.0260  136.5870 N   0  0  0  0  0  1  0  0  0  0  0  0
  2  1  2  0  0  0  0
  2 21  1  0  0  0  0
  3  4  2  0  0  0  0
  3  1  1  0  0  0  0
  5  8  1  0  0  0  0
  5  9  1  0  0  0  0
  6  4  1  6  0  0  0
  7  6  1  0  0  0  0
  8 10  1  1  0  0  0
  8  7  1  0  0  0  0
  9  6  1  0  0  0  0
 11 12  1  1  0  0  0
 11 10  1  0  0  0  0
 12 13  1  0  0  0  0
 14 12  2  0  0  0  0
 15 16  1  6  0  0  0
 15 11  1  0  0  0  0
 15 18  1  0  0  0  0
 17 16  1  0  0  0  0
 18 19  1  0  0  0  0
 19 20  1  0  0  0  0
 21 22  1  0  0  0  0
 22 23  1  6  0  0  0
 22 27  1  0  0  0  0
 24 28  1  0  0  0  0
 25 26  1  0  0  0  0
 27 24  1  0  0  0  0
 28 26  1  0  0  0  0
 29 24  2  0  0  0  0
 29 25  1  0  0  0  0
 30 31  1  0  0  0  0
 30 25  1  0  0  0  0
 31 32  1  0  0  0  0
 33 31  2  0  0  0  0
 34  2  1  0  0  0  0
 35 39  1  0  0  0  0
 35 34  1  0  0  0  0
 36 35  2  0  0  0  0
 37 35  2  0  0  0  0
 38 43  2  0  0  0  0
 38 39  1  0  0  0  0
 39 44  2  0  0  0  0
 40 45  1  0  0  0  0
 41 42  1  0  0  0  0
 41 40  2  0  0  0  0
 43 41  1  0  0  0  0
 44 40  1  0  0  0  0
 46 45  1  0  0  0  0
 47 49  1  0  0  0  0
 48 51  1  0  0  0  0
 48 52  1  0  0  0  0
 49 50  1  1  0  0  0
 51 46  1  6  0  0  0
 51 47  1  0  0  0  0
 52 53  1  0  0  0  0
 53 54  2  0  0  0  0
 53 49  1  0  0  0  0
 56 52  1  0  0  0  0
 56 55  2  0  0  0  0
 57 56  1  0  0  0  0
M  END
>  <MODEL>
2

>  <REMARK>
 VINA RESULT:      -7.1      3.233      9.548
  Name = 
  21 active torsions:
  status: ('A' for Active; 'I' for Inactive)
    1  A    between atoms: C_1  and  O_28
    2  A    between atoms: C_3  and  C_30
    3  A    between atoms: S_4  and  C_12
    4  A    between atoms: S_4  and  C_17
    5  A    between atoms: C_9  and  C_25
    6  A    between atoms: N_11  and  C_41
    7  A    between atoms: CA_13  and  C_16
    8  A    between atoms: CA_13  and  C_30
    9  A    between atoms: CA_13  and  N_53
   10  A    between atoms: C_14  and  C_22
   11  A    between atoms: C_17  and  C_48
   12  A    between atoms: C_18  and  N_35
   13  A    between atoms: C_21  and  C_34
   14  A    between atoms: C_21  and  N_47
   15  A    between atoms: C_23  and  C_41
   16  A    between atoms: C_27  and  N_47
   17  A    between atoms: O_28  and  C_30
   18  A    between atoms: N_31  and  C_44
   19  A    between atoms: C_44  and  N_57
   20  A    between atoms: C_48  and  N_57
   21  A    between atoms: C_49  and  N_53
                            x       y       z     vdW  Elec       q    Type
                         _______ _______ _______ _____ _____    ______ ____

>  <TORSDO>
F 21

$$$$
=
 OpenBabel10222417353D

 57 60  0  0  1  0  0  0  0  0999 V2000
  189.0750  173.4150  137.2090 C   0  0  0  0  0  3  0  0  0  0  0  0
  189.9300  174.3890  136.8990 C   0  0  0  0  0  0  0  0  0  0  0  0
  187.6650  173.4500  136.8190 C   0  0  0  0  0  3  0  0  0  0  0  0
  186.9930  172.3400  136.5710 C   0  0  0  0  0  3  0  0  0  0  0  0
  183.3580  171.1440  135.6150 S   0  0  0  0  0  0  0  0  0  0  0  0
  185.5520  172.4280  136.2040 C   0  0  2  0  0  3  0  0  0  0  0  0
  184.6880  172.5910  137.4250 C   0  0  0  0  0  2  0  0  0  0  0  0
  183.2760  172.3960  136.9370 C   0  0  1  0  0  3  0  0  0  0  0  0
  185.1220  171.2330  135.5030 N   0  0  0  0  0  2  0  0  0  0  0  0
  182.7830  173.6400  136.3740 N   0  0  0  0  0  2  0  0  0  0  0  0
  182.2920  174.4550  137.4720 C   0  0  2  0  0  3  0  0  0  0  0  0
  180.7990  174.3650  137.5160 C   0  0  0  0  0  0  0  0  0  0  0  0
  180.0830  173.9300  136.4010 O   0  0  0  0  0  0  0  0  0  0  0  0
  180.1960  174.6080  138.5910 O   0  0  0  0  0  1  0  0  0  0  0  0
  182.7650  175.9050  137.2960 C   0  0  1  0  0  3  0  0  0  0  0  0
  181.8330  176.7050  136.3830 C   0  0  0  0  0  2  0  0  0  0  0  0
  182.3210  176.7210  135.0740 O   0  0  0  0  0  1  0  0  0  0  0  0
  182.8630  176.5360  138.5430 O   0  0  0  0  0  0  0  0  0  0  0  0
  183.0170  177.8910  138.2510 C   0  0  0  0  0  2  0  0  0  0  0  0
  184.4870  178.2620  138.3190 C   0  0  0  0  0  1  0  0  0  0  0  0
  191.2570  174.3250  137.4380 N   0  0  0  0  0  2  0  0  0  0  0  0
  192.4670  174.1380  136.6400 C   0  0  2  0  0  3  0  0  0  0  0  0
  192.2590  174.6590  135.2380 C   0  0  0  0  0  1  0  0  0  0  0  0
  194.2220  172.3260  136.7530 C   0  0  0  0  0  0  0  0  0  0  0  0
  196.4050  172.5570  137.1920 N   0  0  0  0  0  0  0  0  0  0  0  0
  196.3840  171.1100  137.2170 C   0  0  0  0  0  2  0  0  0  0  0  0
  192.8650  172.7410  136.5950 N   0  0  0  0  0  2  0  0  0  0  0  0
  194.6760  170.6020  136.8110 S   0  0  0  0  0  0  0  0  0  0  0  0
  195.1740  173.1640  136.9590 N   0  0  0  0  0  0  0  0  0  0  0  0
  197.6020  173.3350  137.4680 C   0  0  0  0  0  2  0  0  0  0  0  0
  197.3120  174.3750  138.4970 C   0  0  0  0  0  0  0  0  0  0  0  0
  197.9290  175.4720  138.4760 O   0  0  0  0  0  0  0  0  0  0  0  0
  196.3860  174.1190  139.5000 O   0  0  0  0  0  1  0  0  0  0  0  0
  189.4940  175.5730  136.0780 C   0  0  0  0  0  2  0  0  0  0  0  0
  189.0130  176.9600  137.1100 S   0  0  0  0  0  0  0  0  0  0  0  0
  189.2910  178.2310  136.3660 O   0  0  0  0  0  0  0  0  0  0  0  0
  187.5450  176.8750  137.4000 O   0  0  0  0  0  0  0  0  0  0  0  0
  191.1950  177.4300  138.7160 C   0  0  0  0  0  3  0  0  0  0  0  0
  189.8650  177.0100  138.6420 C   0  0  0  0  0  0  0  0  0  0  0  0
  189.8270  176.7180  141.0590 C   0  0  0  0  0  0  0  0  0  0  0  0
  191.1750  177.1050  141.1220 C   0  0  0  0  0  0  0  0  0  0  0  0
  192.0310  177.1830  142.6540 Cl  0  0  0  0  0  0  0  0  0  0  0  0
  191.8500  177.4710  139.9520 C   0  0  0  0  0  3  0  0  0  0  0  0
  189.1820  176.6730  139.8140 C   0  0  0  0  0  3  0  0  0  0  0  0
  189.1140  176.3910  142.2590 N   0  0  0  0  0  2  0  0  0  0  0  0
  187.8690  177.0540  142.6330 C   0  0  0  0  0  2  0  0  0  0  0  0
  189.1050  176.9220  144.7710 C   0  0  0  0  0  2  0  0  0  0  0  0
  186.6560  177.3580  144.8050 C   0  0  0  0  0  2  0  0  0  0  0  0
  189.2710  177.4570  146.1930 C   0  0  1  0  0  3  0  0  0  0  0  0
  189.8310  178.7190  146.1560 F   0  0  0  0  0  0  0  0  0  0  0  0
  187.9610  177.6130  144.0420 C   0  0  2  0  0  3  0  0  0  0  0  0
  186.7690  177.8500  146.1790 N   0  0  0  0  0  0  0  0  0  0  0  0
  187.9620  177.5070  146.9110 C   0  0  0  0  0  0  0  0  0  0  0  0
  187.9220  177.2110  148.2040 C   0  0  0  0  0  2  0  0  0  0  0  0
  184.4580  178.5050  146.4180 C   0  0  0  0  0  2  0  0  0  0  0  0
  185.7360  178.6920  146.7360 C   0  0  0  0  0  0  0  0  0  0  0  0
  186.0810  179.8470  147.5030 N   0  0  0  0  0  1  0  0  0  0  0  0
  2  1  2  0  0  0  0
  2 21  1  0  0  0  0
  3  1  1  0  0  0  0
  4  3  2  0  0  0  0
  5  8  1  0  0  0  0
  6  4  1  1  0  0  0
  6  7  1  0  0  0  0
  8 10  1  6  0  0  0
  8  7  1  0  0  0  0
  9  5  1  0  0  0  0
  9  6  1  0  0  0  0
 11 10  1  6  0  0  0
 11 12  1  0  0  0  0
 12 14  1  0  0  0  0
 13 12  2  0  0  0  0
 15 16  1  6  0  0  0
 15 11  1  0  0  0  0
 15 18  1  0  0  0  0
 17 16  1  0  0  0  0
 19 20  1  0  0  0  0
 19 18  1  0  0  0  0
 22 23  1  6  0  0  0
 22 21  1  0  0  0  0
 24 28  1  0  0  0  0
 24 29  2  0  0  0  0
 25 26  1  0  0  0  0
 25 30  1  0  0  0  0
 27 22  1  0  0  0  0
 27 24  1  0  0  0  0
 28 26  1  0  0  0  0
 29 25  1  0  0  0  0
 30 31  1  0  0  0  0
 31 33  1  0  0  0  0
 32 31  2  0  0  0  0
 34  2  1  0  0  0  0
 34 35  1  0  0  0  0
 35 37  2  0  0  0  0
 35 39  1  0  0  0  0
 36 35  2  0  0  0  0
 38 43  1  0  0  0  0
 39 38  2  0  0  0  0
 39 44  1  0  0  0  0
 40 41  1  0  0  0  0
 40 45  1  0  0  0  0
 41 42  1  0  0  0  0
 43 41  2  0  0  0  0
 44 40  2  0  0  0  0
 45 46  1  0  0  0  0
 47 49  1  0  0  0  0
 48 52  1  0  0  0  0
 49 50  1  6  0  0  0
 49 53  1  0  0  0  0
 51 46  1  6  0  0  0
 51 47  1  0  0  0  0
 51 48  1  0  0  0  0
 52 56  1  0  0  0  0
 52 53  1  0  0  0  0
 53 54  2  0  0  0  0
 55 56  2  0  0  0  0
 56 57  1  0  0  0  0
M  END
>  <MODEL>
3

>  <REMARK>
 VINA RESULT:      -7.0      1.821      2.482
  Name = 
  21 active torsions:
  status: ('A' for Active; 'I' for Inactive)
    1  A    between atoms: C_1  and  O_28
    2  A    between atoms: C_3  and  C_30
    3  A    between atoms: S_4  and  C_12
    4  A    between atoms: S_4  and  C_17
    5  A    between atoms: C_9  and  C_25
    6  A    between atoms: N_11  and  C_41
    7  A    between atoms: CA_13  and  C_16
    8  A    between atoms: CA_13  and  C_30
    9  A    between atoms: CA_13  and  N_53
   10  A    between atoms: C_14  and  C_22
   11  A    between atoms: C_17  and  C_48
   12  A    between atoms: C_18  and  N_35
   13  A    between atoms: C_21  and  C_34
   14  A    between atoms: C_21  and  N_47
   15  A    between atoms: C_23  and  C_41
   16  A    between atoms: C_27  and  N_47
   17  A    between atoms: O_28  and  C_30
   18  A    between atoms: N_31  and  C_44
   19  A    between atoms: C_44  and  N_57
   20  A    between atoms: C_48  and  N_57
   21  A    between atoms: C_49  and  N_53
                            x       y       z     vdW  Elec       q    Type
                         _______ _______ _______ _____ _____    ______ ____

>  <TORSDO>
F 21

$$$$
=
 OpenBabel10222417353D

 57 60  0  0  1  0  0  0  0  0999 V2000
  188.2230  174.7980  136.7520 C   0  0  0  0  0  3  0  0  0  0  0  0
  187.3810  175.8130  136.9450 C   0  0  0  0  0  0  0  0  0  0  0  0
  189.5500  174.9770  136.1600 C   0  0  0  0  0  3  0  0  0  0  0  0
  190.6380  174.5410  136.7680 C   0  0  0  0  0  3  0  0  0  0  0  0
  193.4730  176.2210  134.6000 S   0  0  0  0  0  0  0  0  0  0  0  0
  191.9620  174.7230  136.1120 C   0  0  2  0  0  3  0  0  0  0  0  0
  192.9640  175.3180  137.0630 C   0  0  0  0  0  2  0  0  0  0  0  0
  194.1470  175.6890  136.2070 C   0  0  1  0  0  3  0  0  0  0  0  0
  191.8550  175.6000  134.9620 N   0  0  0  0  0  2  0  0  0  0  0  0
  194.9800  174.5180  136.0020 N   0  0  0  0  0  2  0  0  0  0  0  0
  196.2160  174.7220  136.7370 C   0  0  2  0  0  3  0  0  0  0  0  0
  197.3650  174.6860  135.7800 C   0  0  0  0  0  0  0  0  0  0  0  0
  198.2070  175.7880  135.6400 O   0  0  0  0  0  1  0  0  0  0  0  0
  197.6170  173.6230  135.1570 O   0  0  0  0  0  0  0  0  0  0  0  0
  196.3560  173.6500  137.8280 C   0  0  1  0  0  3  0  0  0  0  0  0
  196.4960  174.2650  139.2220 C   0  0  0  0  0  2  0  0  0  0  0  0
  195.4080  175.0940  139.5060 O   0  0  0  0  0  1  0  0  0  0  0  0
  195.2520  172.7870  137.8000 O   0  0  0  0  0  0  0  0  0  0  0  0
  195.7950  171.5050  137.8730 C   0  0  0  0  0  2  0  0  0  0  0  0
  195.5580  170.7760  136.5630 C   0  0  0  0  0  1  0  0  0  0  0  0
  186.0570  175.5180  137.4100 N   0  0  0  0  0  2  0  0  0  0  0  0
  184.9030  175.3000  136.5400 C   0  0  2  0  0  3  0  0  0  0  0  0
  185.3570  174.9620  135.1400 C   0  0  0  0  0  1  0  0  0  0  0  0
  182.6450  176.3850  136.8490 C   0  0  0  0  0  0  0  0  0  0  0  0
  180.7600  175.4400  137.6010 N   0  0  0  0  0  0  0  0  0  0  0  0
  180.2650  176.8000  137.5810 C   0  0  0  0  0  2  0  0  0  0  0  0
  184.0300  176.4610  136.5110 N   0  0  0  0  0  2  0  0  0  0  0  0
  181.6150  177.8410  136.9210 S   0  0  0  0  0  0  0  0  0  0  0  0
  182.0880  175.2870  137.2130 N   0  0  0  0  0  0  0  0  0  0  0  0
  179.9640  174.3170  138.0670 C   0  0  0  0  0  2  0  0  0  0  0  0
  180.0870  173.1720  137.1190 C   0  0  0  0  0  0  0  0  0  0  0  0
  179.6370  173.2730  135.9480 O   0  0  0  0  0  0  0  0  0  0  0  0
  180.6660  171.9820  137.5400 O   0  0  0  0  0  1  0  0  0  0  0  0
  187.7730  177.2250  136.6020 C   0  0  0  0  0  2  0  0  0  0  0  0
  188.4260  178.1020  138.0240 S   0  0  0  0  0  0  0  0  0  0  0  0
  189.5560  177.3040  138.6030 O   0  0  0  0  0  0  0  0  0  0  0  0
  188.9460  179.4380  137.5860 O   0  0  0  0  0  0  0  0  0  0  0  0
  185.8900  178.6020  138.9600 C   0  0  0  0  0  3  0  0  0  0  0  0
  187.2300  178.3720  139.2780 C   0  0  0  0  0  0  0  0  0  0  0  0
  186.6850  178.4950  141.6480 C   0  0  0  0  0  0  0  0  0  0  0  0
  185.3460  178.7640  141.3210 C   0  0  0  0  0  0  0  0  0  0  0  0
  184.1350  179.0110  142.5690 Cl  0  0  0  0  0  0  0  0  0  0  0  0
  184.9520  178.8050  139.9790 C   0  0  0  0  0  3  0  0  0  0  0  0
  187.6190  178.3020  140.6190 C   0  0  0  0  0  3  0  0  0  0  0  0
  187.0870  178.4010  143.0210 N   0  0  0  0  0  2  0  0  0  0  0  0
  186.5680  177.3740  143.9180 C   0  0  0  0  0  2  0  0  0  0  0  0
  186.8980  177.7210  146.3440 C   0  0  0  0  0  2  0  0  0  0  0  0
  188.8600  177.8420  144.8190 C   0  0  0  0  0  2  0  0  0  0  0  0
  187.7950  177.5010  147.5620 C   0  0  1  0  0  3  0  0  0  0  0  0
  187.7520  176.1730  147.9420 F   0  0  0  0  0  0  0  0  0  0  0  0
  187.5190  177.1450  145.0790 C   0  0  2  0  0  3  0  0  0  0  0  0
  189.7530  177.6630  145.9640 N   0  0  0  0  0  0  0  0  0  0  0  0
  189.2060  177.8980  147.2770 C   0  0  0  0  0  0  0  0  0  0  0  0
  189.9190  178.4840  148.2320 C   0  0  0  0  0  2  0  0  0  0  0  0
  191.7030  177.3370  144.5790 C   0  0  0  0  0  2  0  0  0  0  0  0
  191.1110  177.2130  145.7630 C   0  0  0  0  0  0  0  0  0  0  0  0
  191.7840  176.4710  146.7820 N   0  0  0  0  0  1  0  0  0  0  0  0
  1  2  2  0  0  0  0
  2 21  1  0  0  0  0
  3  1  1  0  0  0  0
  3  4  2  0  0  0  0
  5  9  1  0  0  0  0
  5  8  1  0  0  0  0
  6  4  1  1  0  0  0
  6  7  1  0  0  0  0
  8 10  1  6  0  0  0
  8  7  1  0  0  0  0
  9  6  1  0  0  0  0
 10 11  1  0  0  0  0
 11 12  1  6  0  0  0
 11 15  1  0  0  0  0
 13 12  1  0  0  0  0
 14 12  2  0  0  0  0
 15 16  1  1  0  0  0
 16 17  1  0  0  0  0
 18 15  1  0  0  0  0
 18 19  1  0  0  0  0
 20 19  1  0  0  0  0
 22 23  1  6  0  0  0
 22 21  1  0  0  0  0
 24 28  1  0  0  0  0
 24 29  2  0  0  0  0
 25 30  1  0  0  0  0
 26 25  1  0  0  0  0
 27 22  1  0  0  0  0
 27 24  1  0  0  0  0
 28 26  1  0  0  0  0
 29 25  1  0  0  0  0
 31 33  1  0  0  0  0
 31 30  1  0  0  0  0
 32 31  2  0  0  0  0
 34  2  1  0  0  0  0
 34 35  1  0  0  0  0
 35 36  2  0  0  0  0
 35 39  1  0  0  0  0
 37 35  2  0  0  0  0
 38 39  2  0  0  0  0
 38 43  1  0  0  0  0
 39 44  1  0  0  0  0
 40 45  1  0  0  0  0
 41 40  1  0  0  0  0
 41 42  1  0  0  0  0
 43 41  2  0  0  0  0
 44 40  2  0  0  0  0
 45 46  1  0  0  0  0
 47 49  1  0  0  0  0
 48 51  1  0  0  0  0
 48 52  1  0  0  0  0
 49 50  1  6  0  0  0
 51 46  1  6  0  0  0
 51 47  1  0  0  0  0
 52 53  1  0  0  0  0
 53 49  1  0  0  0  0
 53 54  2  0  0  0  0
 55 56  2  0  0  0  0
 56 52  1  0  0  0  0
 56 57  1  0  0  0  0
M  END
>  <MODEL>
4

>  <REMARK>
 VINA RESULT:      -6.9      2.793     10.287
  Name = 
  21 active torsions:
  status: ('A' for Active; 'I' for Inactive)
    1  A    between atoms: C_1  and  O_28
    2  A    between atoms: C_3  and  C_30
    3  A    between atoms: S_4  and  C_12
    4  A    between atoms: S_4  and  C_17
    5  A    between atoms: C_9  and  C_25
    6  A    between atoms: N_11  and  C_41
    7  A    between atoms: CA_13  and  C_16
    8  A    between atoms: CA_13  and  C_30
    9  A    between atoms: CA_13  and  N_53
   10  A    between atoms: C_14  and  C_22
   11  A    between atoms: C_17  and  C_48
   12  A    between atoms: C_18  and  N_35
   13  A    between atoms: C_21  and  C_34
   14  A    between atoms: C_21  and  N_47
   15  A    between atoms: C_23  and  C_41
   16  A    between atoms: C_27  and  N_47
   17  A    between atoms: O_28  and  C_30
   18  A    between atoms: N_31  and  C_44
   19  A    between atoms: C_44  and  N_57
   20  A    between atoms: C_48  and  N_57
   21  A    between atoms: C_49  and  N_53
                            x       y       z     vdW  Elec       q    Type
                         _______ _______ _______ _____ _____    ______ ____

>  <TORSDO>
F 21

$$$$
=
 OpenBabel10222417353D

 57 60  0  0  1  0  0  0  0  0999 V2000
  187.6780  174.6610  137.0930 C   0  0  0  0  0  3  0  0  0  0  0  0
  186.7320  175.5770  136.8840 C   0  0  0  0  0  0  0  0  0  0  0  0
  189.0720  174.8630  136.6930 C   0  0  0  0  0  3  0  0  0  0  0  0
  189.9880  173.9350  136.9030 C   0  0  0  0  0  3  0  0  0  0  0  0
  193.1080  175.8670  135.4570 S   0  0  0  0  0  0  0  0  0  0  0  0
  191.3860  174.1770  136.4520 C   0  0  2  0  0  3  0  0  0  0  0  0
  192.2800  174.5240  137.6130 C   0  0  0  0  0  2  0  0  0  0  0  0
  193.5680  174.9970  136.9910 C   0  0  1  0  0  3  0  0  0  0  0  0
  191.4430  175.2680  135.4990 N   0  0  0  0  0  2  0  0  0  0  0  0
  194.3900  173.8500  136.6500 N   0  0  0  0  0  2  0  0  0  0  0  0
  195.0230  173.3850  137.8720 C   0  0  2  0  0  3  0  0  0  0  0  0
  196.0200  174.4050  138.3220 C   0  0  0  0  0  0  0  0  0  0  0  0
  196.8030  175.0900  137.3930 O   0  0  0  0  0  0  0  0  0  0  0  0
  196.0940  174.7020  139.5410 O   0  0  0  0  0  1  0  0  0  0  0  0
  195.6830  172.0200  137.6280 C   0  0  1  0  0  3  0  0  0  0  0  0
  194.6670  170.9620  137.1940 C   0  0  0  0  0  2  0  0  0  0  0  0
  194.9690  170.4840  135.9160 O   0  0  0  0  0  1  0  0  0  0  0  0
  196.6890  172.1360  136.6600 O   0  0  0  0  0  0  0  0  0  0  0  0
  197.7910  171.4760  137.2030 C   0  0  0  0  0  2  0  0  0  0  0  0
  199.0310  172.3350  137.0400 C   0  0  0  0  0  1  0  0  0  0  0  0
  185.3750  175.2340  137.1930 N   0  0  0  0  0  2  0  0  0  0  0  0
  184.3420  174.9590  136.1960 C   0  0  2  0  0  3  0  0  0  0  0  0
  184.9190  174.1660  135.0470 C   0  0  0  0  0  1  0  0  0  0  0  0
  182.4160  176.5840  136.0510 C   0  0  0  0  0  0  0  0  0  0  0  0
  180.4640  176.4980  137.1430 N   0  0  0  0  0  0  0  0  0  0  0  0
  180.2740  177.8130  136.5690 C   0  0  0  0  0  2  0  0  0  0  0  0
  183.7410  176.1850  135.6990 N   0  0  0  0  0  2  0  0  0  0  0  0
  181.7370  178.1490  135.5260 S   0  0  0  0  0  0  0  0  0  0  0  0
  181.6790  175.8900  136.8400 N   0  0  0  0  0  0  0  0  0  0  0  0
  179.5000  175.8800  138.0390 C   0  0  0  0  0  2  0  0  0  0  0  0
  179.9270  176.0610  139.4570 C   0  0  0  0  0  0  0  0  0  0  0  0
  179.4270  176.9830  140.1520 O   0  0  0  0  0  1  0  0  0  0  0  0
  180.9030  175.2340  139.9970 O   0  0  0  0  0  0  0  0  0  0  0  0
  187.0610  176.9050  136.2570 C   0  0  0  0  0  2  0  0  0  0  0  0
  187.5060  178.1330  137.4880 S   0  0  0  0  0  0  0  0  0  0  0  0
  188.8070  177.7340  138.1160 O   0  0  0  0  0  0  0  0  0  0  0  0
  187.6730  179.4650  136.8210 O   0  0  0  0  0  0  0  0  0  0  0  0
  184.9390  178.2450  138.4670 C   0  0  0  0  0  3  0  0  0  0  0  0
  186.3040  178.3090  138.7530 C   0  0  0  0  0  0  0  0  0  0  0  0
  185.7910  178.5900  141.1170 C   0  0  0  0  0  0  0  0  0  0  0  0
  184.4190  178.5620  140.8170 C   0  0  0  0  0  0  0  0  0  0  0  0
  183.2060  178.7120  142.0800 Cl  0  0  0  0  0  0  0  0  0  0  0  0
  183.9990  178.3780  139.4950 C   0  0  0  0  0  3  0  0  0  0  0  0
  186.7240  178.4640  140.0770 C   0  0  0  0  0  3  0  0  0  0  0  0
  186.2290  178.7260  142.4750 N   0  0  0  0  0  2  0  0  0  0  0  0
  186.5640  177.5760  143.3080 C   0  0  0  0  0  2  0  0  0  0  0  0
  189.0340  177.5360  143.4110 C   0  0  0  0  0  2  0  0  0  0  0  0
  187.7210  177.0390  145.4650 C   0  0  0  0  0  2  0  0  0  0  0  0
  190.2900  177.8410  144.2270 C   0  0  1  0  0  3  0  0  0  0  0  0
  190.4900  179.2070  144.2840 F   0  0  0  0  0  0  0  0  0  0  0  0
  187.7670  177.8780  144.1830 C   0  0  2  0  0  3  0  0  0  0  0  0
  188.9100  177.2950  146.2790 N   0  0  0  0  0  0  0  0  0  0  0  0
  190.1870  177.2880  145.6100 C   0  0  0  0  0  0  0  0  0  0  0  0
  191.2690  176.7790  146.1860 C   0  0  0  0  0  2  0  0  0  0  0  0
  187.7600  177.1090  148.3930 C   0  0  0  0  0  2  0  0  0  0  0  0
  188.7760  177.5940  147.6860 C   0  0  0  0  0  0  0  0  0  0  0  0
  189.6350  178.5540  148.3050 N   0  0  0  0  0  1  0  0  0  0  0  0
  2  1  2  0  0  0  0
  2 21  1  0  0  0  0
  3  4  2  0  0  0  0
  3  1  1  0  0  0  0
  5  9  1  0  0  0  0
  5  8  1  0  0  0  0
  6  4  1  1  0  0  0
  6  7  1  0  0  0  0
  8 10  1  6  0  0  0
  8  7  1  0  0  0  0
  9  6  1  0  0  0  0
 11 10  1  6  0  0  0
 11 12  1  0  0  0  0
 12 14  1  0  0  0  0
 13 12  2  0  0  0  0
 15 16  1  6  0  0  0
 15 11  1  0  0  0  0
 17 16  1  0  0  0  0
 18 19  1  0  0  0  0
 18 15  1  0  0  0  0
 20 19  1  0  0  0  0
 22 23  1  6  0  0  0
 22 21  1  0  0  0  0
 24 29  2  0  0  0  0
 25 30  1  0  0  0  0
 26 25  1  0  0  0  0
 27 24  1  0  0  0  0
 27 22  1  0  0  0  0
 28 24  1  0  0  0  0
 28 26  1  0  0  0  0
 29 25  1  0  0  0  0
 30 31  1  0  0  0  0
 31 33  2  0  0  0  0
 31 32  1  0  0  0  0
 34  2  1  0  0  0  0
 34 35  1  0  0  0  0
 35 36  2  0  0  0  0
 35 39  1  0  0  0  0
 37 35  2  0  0  0  0
 38 39  2  0  0  0  0
 38 43  1  0  0  0  0
 39 44  1  0  0  0  0
 40 45  1  0  0  0  0
 41 40  1  0  0  0  0
 41 42  1  0  0  0  0
 43 41  2  0  0  0  0
 44 40  2  0  0  0  0
 45 46  1  0  0  0  0
 47 51  1  0  0  0  0
 47 49  1  0  0  0  0
 48 52  1  0  0  0  0
 49 50  1  1  0  0  0
 49 53  1  0  0  0  0
 51 46  1  6  0  0  0
 51 48  1  0  0  0  0
 52 56  1  0  0  0  0
 53 54  2  0  0  0  0
 53 52  1  0  0  0  0
 56 57  1  0  0  0  0
 56 55  2  0  0  0  0
M  END
>  <MODEL>
5

>  <REMARK>
 VINA RESULT:      -6.6      2.939     10.427
  Name = 
  21 active torsions:
  status: ('A' for Active; 'I' for Inactive)
    1  A    between atoms: C_1  and  O_28
    2  A    between atoms: C_3  and  C_30
    3  A    between atoms: S_4  and  C_12
    4  A    between atoms: S_4  and  C_17
    5  A    between atoms: C_9  and  C_25
    6  A    between atoms: N_11  and  C_41
    7  A    between atoms: CA_13  and  C_16
    8  A    between atoms: CA_13  and  C_30
    9  A    between atoms: CA_13  and  N_53
   10  A    between atoms: C_14  and  C_22
   11  A    between atoms: C_17  and  C_48
   12  A    between atoms: C_18  and  N_35
   13  A    between atoms: C_21  and  C_34
   14  A    between atoms: C_21  and  N_47
   15  A    between atoms: C_23  and  C_41
   16  A    between atoms: C_27  and  N_47
   17  A    between atoms: O_28  and  C_30
   18  A    between atoms: N_31  and  C_44
   19  A    between atoms: C_44  and  N_57
   20  A    between atoms: C_48  and  N_57
   21  A    between atoms: C_49  and  N_53
                            x       y       z     vdW  Elec       q    Type
                         _______ _______ _______ _____ _____    ______ ____

>  <TORSDO>
F 21

$$$$
=
 OpenBabel10222417353D

 57 60  0  0  1  0  0  0  0  0999 V2000
  188.7830  174.5960  137.2370 C   0  0  0  0  0  3  0  0  0  0  0  0
  187.6730  175.1130  136.7110 C   0  0  0  0  0  0  0  0  0  0  0  0
  190.1130  174.8510  136.6790 C   0  0  0  0  0  3  0  0  0  0  0  0
  191.2000  174.3580  137.2420 C   0  0  0  0  0  3  0  0  0  0  0  0
  194.1440  176.3810  135.5690 S   0  0  0  0  0  0  0  0  0  0  0  0
  192.5270  174.6230  136.6200 C   0  0  2  0  0  3  0  0  0  0  0  0
  193.5900  174.8220  137.6660 C   0  0  0  0  0  2  0  0  0  0  0  0
  194.7900  175.3380  136.9160 C   0  0  1  0  0  3  0  0  0  0  0  0
  192.4830  175.8120  135.7900 N   0  0  0  0  0  2  0  0  0  0  0  0
  195.5140  174.2210  136.3370 N   0  0  0  0  0  2  0  0  0  0  0  0
  196.5310  173.8140  137.2920 C   0  0  2  0  0  3  0  0  0  0  0  0
  197.6180  174.8410  137.3140 C   0  0  0  0  0  0  0  0  0  0  0  0
  198.0820  175.4070  136.1260 O   0  0  0  0  0  0  0  0  0  0  0  0
  198.0580  175.2530  138.4170 O   0  0  0  0  0  1  0  0  0  0  0  0
  197.0720  172.4270  136.9160 C   0  0  1  0  0  3  0  0  0  0  0  0
  196.2910  171.3020  137.6000 C   0  0  0  0  0  2  0  0  0  0  0  0
  195.4320  171.8210  138.5720 O   0  0  0  0  0  1  0  0  0  0  0  0
  197.0320  172.2540  135.5260 O   0  0  0  0  0  0  0  0  0  0  0  0
  198.3580  172.0470  135.1500 C   0  0  0  0  0  2  0  0  0  0  0  0
  199.0000  171.0350  136.0800 C   0  0  0  0  0  1  0  0  0  0  0  0
  186.4100  174.7000  137.2500 N   0  0  0  0  0  2  0  0  0  0  0  0
  185.7450  173.4390  136.9300 C   0  0  2  0  0  3  0  0  0  0  0  0
  186.6770  172.5340  136.1600 C   0  0  0  0  0  1  0  0  0  0  0  0
  183.4040  174.3570  136.7080 C   0  0  0  0  0  0  0  0  0  0  0  0
  182.2650  175.5840  138.1930 N   0  0  0  0  0  0  0  0  0  0  0  0
  181.3120  175.7100  137.1110 C   0  0  0  0  0  2  0  0  0  0  0  0
  184.5260  173.6570  136.1700 N   0  0  0  0  0  2  0  0  0  0  0  0
  181.9620  174.7170  135.7210 S   0  0  0  0  0  0  0  0  0  0  0  0
  183.4080  174.8490  137.8940 N   0  0  0  0  0  0  0  0  0  0  0  0
  182.0910  176.2400  139.4790 C   0  0  0  0  0  2  0  0  0  0  0  0
  180.7080  176.0100  139.9890 C   0  0  0  0  0  0  0  0  0  0  0  0
  180.3620  174.8640  140.3760 O   0  0  0  0  0  1  0  0  0  0  0  0
  179.7930  177.0540  140.0030 O   0  0  0  0  0  0  0  0  0  0  0  0
  187.7330  176.0360  135.5240 C   0  0  0  0  0  2  0  0  0  0  0  0
  187.8170  177.7580  136.0210 S   0  0  0  0  0  0  0  0  0  0  0  0
  189.2550  178.1250  136.2370 O   0  0  0  0  0  0  0  0  0  0  0  0
  187.2530  178.6160  134.9290 O   0  0  0  0  0  0  0  0  0  0  0  0
  185.5310  178.1850  137.4870 C   0  0  0  0  0  3  0  0  0  0  0  0
  186.9250  178.0970  137.4920 C   0  0  0  0  0  0  0  0  0  0  0  0
  186.9380  178.4840  139.8960 C   0  0  0  0  0  0  0  0  0  0  0  0
  185.5390  178.6080  139.8780 C   0  0  0  0  0  0  0  0  0  0  0  0
  184.6330  178.9230  141.3500 Cl  0  0  0  0  0  0  0  0  0  0  0  0
  184.8410  178.4470  138.6760 C   0  0  0  0  0  3  0  0  0  0  0  0
  187.6200  178.2290  138.6970 C   0  0  0  0  0  3  0  0  0  0  0  0
  187.6560  178.5960  141.1310 N   0  0  0  0  0  2  0  0  0  0  0  0
  188.6690  177.6280  141.5370 C   0  0  0  0  0  2  0  0  0  0  0  0
  187.2630  177.9520  143.5450 C   0  0  0  0  0  2  0  0  0  0  0  0
  189.7270  177.7360  143.8070 C   0  0  0  0  0  2  0  0  0  0  0  0
  187.0260  177.6080  145.0160 C   0  0  1  0  0  3  0  0  0  0  0  0
  186.5660  176.3100  145.1250 F   0  0  0  0  0  0  0  0  0  0  0  0
  188.5090  177.2660  143.0030 C   0  0  2  0  0  3  0  0  0  0  0  0
  189.5440  177.4320  145.2270 N   0  0  0  0  0  0  0  0  0  0  0  0
  188.2740  177.7710  145.8190 C   0  0  0  0  0  0  0  0  0  0  0  0
  188.1900  178.2470  147.0560 C   0  0  0  0  0  2  0  0  0  0  0  0
  190.5730  176.7450  147.2990 C   0  0  0  0  0  2  0  0  0  0  0  0
  190.5900  176.7680  145.9690 C   0  0  0  0  0  0  0  0  0  0  0  0
  191.7500  176.2740  145.2980 N   0  0  0  0  0  1  0  0  0  0  0  0
  2  1  2  0  0  0  0
  2 21  1  0  0  0  0
  3  1  1  0  0  0  0
  3  4  2  0  0  0  0
  5  9  1  0  0  0  0
  5  8  1  0  0  0  0
  6  4  1  1  0  0  0
  6  7  1  0  0  0  0
  8 10  1  6  0  0  0
  8  7  1  0  0  0  0
  9  6  1  0  0  0  0
 11 10  1  6  0  0  0
 11 12  1  0  0  0  0
 12 14  1  0  0  0  0
 13 12  2  0  0  0  0
 15 11  1  0  0  0  0
 15 16  1  1  0  0  0
 16 17  1  0  0  0  0
 18 15  1  0  0  0  0
 19 18  1  0  0  0  0
 19 20  1  0  0  0  0
 22 23  1  6  0  0  0
 22 21  1  0  0  0  0
 24 29  2  0  0  0  0
 25 30  1  0  0  0  0
 26 25  1  0  0  0  0
 27 24  1  0  0  0  0
 27 22  1  0  0  0  0
 28 24  1  0  0  0  0
 28 26  1  0  0  0  0
 29 25  1  0  0  0  0
 30 31  1  0  0  0  0
 31 33  2  0  0  0  0
 31 32  1  0  0  0  0
 34 35  1  0  0  0  0
 34  2  1  0  0  0  0
 35 36  2  0  0  0  0
 35 39  1  0  0  0  0
 37 35  2  0  0  0  0
 38 39  2  0  0  0  0
 38 43  1  0  0  0  0
 39 44  1  0  0  0  0
 40 45  1  0  0  0  0
 41 40  1  0  0  0  0
 41 42  1  0  0  0  0
 43 41  2  0  0  0  0
 44 40  2  0  0  0  0
 45 46  1  0  0  0  0
 47 49  1  0  0  0  0
 48 52  1  0  0  0  0
 49 50  1  6  0  0  0
 49 53  1  0  0  0  0
 51 46  1  6  0  0  0
 51 47  1  0  0  0  0
 51 48  1  0  0  0  0
 52 53  1  0  0  0  0
 52 56  1  0  0  0  0
 53 54  2  0  0  0  0
 56 55  2  0  0  0  0
 57 56  1  0  0  0  0
M  END
>  <MODEL>
6

>  <REMARK>
 VINA RESULT:      -6.5      2.614     10.373
  Name = 
  21 active torsions:
  status: ('A' for Active; 'I' for Inactive)
    1  A    between atoms: C_1  and  O_28
    2  A    between atoms: C_3  and  C_30
    3  A    between atoms: S_4  and  C_12
    4  A    between atoms: S_4  and  C_17
    5  A    between atoms: C_9  and  C_25
    6  A    between atoms: N_11  and  C_41
    7  A    between atoms: CA_13  and  C_16
    8  A    between atoms: CA_13  and  C_30
    9  A    between atoms: CA_13  and  N_53
   10  A    between atoms: C_14  and  C_22
   11  A    between atoms: C_17  and  C_48
   12  A    between atoms: C_18  and  N_35
   13  A    between atoms: C_21  and  C_34
   14  A    between atoms: C_21  and  N_47
   15  A    between atoms: C_23  and  C_41
   16  A    between atoms: C_27  and  N_47
   17  A    between atoms: O_28  and  C_30
   18  A    between atoms: N_31  and  C_44
   19  A    between atoms: C_44  and  N_57
   20  A    between atoms: C_48  and  N_57
   21  A    between atoms: C_49  and  N_53
                            x       y       z     vdW  Elec       q    Type
                         _______ _______ _______ _____ _____    ______ ____

>  <TORSDO>
F 21

$$$$
=
 OpenBabel10222417353D

 57 60  0  0  1  0  0  0  0  0999 V2000
  182.6750  178.1930  138.0430 C   0  0  0  0  0  3  0  0  0  0  0  0
  182.2650  178.2640  139.3090 C   0  0  0  0  0  0  0  0  0  0  0  0
  183.8970  177.4900  137.6490 C   0  0  0  0  0  3  0  0  0  0  0  0
  184.9730  178.1480  137.2600 C   0  0  0  0  0  3  0  0  0  0  0  0
  187.9570  176.8120  135.0540 S   0  0  0  0  0  0  0  0  0  0  0  0
  186.2010  177.3880  136.8960 C   0  0  2  0  0  3  0  0  0  0  0  0
  187.4430  178.1200  137.3250 C   0  0  0  0  0  2  0  0  0  0  0  0
  188.5810  177.3860  136.6660 C   0  0  1  0  0  3  0  0  0  0  0  0
  186.2740  177.1770  135.4630 N   0  0  0  0  0  2  0  0  0  0  0  0
  188.9390  176.2300  137.4690 N   0  0  0  0  0  2  0  0  0  0  0  0
  190.2130  175.7330  136.9820 C   0  0  2  0  0  3  0  0  0  0  0  0
  190.1030  174.2590  136.7450 C   0  0  0  0  0  0  0  0  0  0  0  0
  191.0610  173.3860  137.2590 O   0  0  0  0  0  1  0  0  0  0  0  0
  189.0970  173.8030  136.1470 O   0  0  0  0  0  0  0  0  0  0  0  0
  191.3210  176.0610  137.9930 C   0  0  1  0  0  3  0  0  0  0  0  0
  192.6470  176.3920  137.3040 C   0  0  0  0  0  2  0  0  0  0  0  0
  193.7150  176.2370  138.1910 O   0  0  0  0  0  1  0  0  0  0  0  0
  190.9300  177.1320  138.8070 O   0  0  0  0  0  0  0  0  0  0  0  0
  190.9480  176.6250  140.1050 C   0  0  0  0  0  2  0  0  0  0  0  0
  189.7420  177.1360  140.8700 C   0  0  0  0  0  1  0  0  0  0  0  0
  181.1270  179.0840  139.6090 N   0  0  0  0  0  2  0  0  0  0  0  0
  179.9740  179.2560  138.7290 C   0  0  2  0  0  3  0  0  0  0  0  0
  178.9690  178.1510  138.9580 C   0  0  0  0  0  1  0  0  0  0  0  0
  180.1900  180.4350  136.5070 C   0  0  0  0  0  0  0  0  0  0  0  0
  179.6870  182.5630  136.0300 N   0  0  0  0  0  0  0  0  0  0  0  0
  180.3110  182.2530  134.7610 C   0  0  0  0  0  2  0  0  0  0  0  0
  180.3700  179.2830  137.3310 N   0  0  0  0  0  2  0  0  0  0  0  0
  180.7880  180.4900  134.8270 S   0  0  0  0  0  0  0  0  0  0  0  0
  179.6790  181.5240  136.9560 N   0  0  0  0  0  0  0  0  0  0  0  0
  179.1720  183.8830  136.3550 C   0  0  0  0  0  2  0  0  0  0  0  0
  180.1520  184.6220  137.2020 C   0  0  0  0  0  0  0  0  0  0  0  0
  179.7460  185.3890  138.1130 O   0  0  0  0  0  1  0  0  0  0  0  0
  181.5140  184.4910  136.9600 O   0  0  0  0  0  0  0  0  0  0  0  0
  183.0240  177.5760  140.4120 C   0  0  0  0  0  2  0  0  0  0  0  0
  184.3630  178.5940  141.0370 S   0  0  0  0  0  0  0  0  0  0  0  0
  185.6570  178.0760  140.4870 O   0  0  0  0  0  0  0  0  0  0  0  0
  184.1660  180.0070  140.5760 O   0  0  0  0  0  0  0  0  0  0  0  0
  183.4040  179.0750  143.5690 C   0  0  0  0  0  3  0  0  0  0  0  0
  184.4620  178.6050  142.7880 C   0  0  0  0  0  0  0  0  0  0  0  0
  185.7060  178.0610  144.8090 C   0  0  0  0  0  0  0  0  0  0  0  0
  184.6550  178.5700  145.5880 C   0  0  0  0  0  0  0  0  0  0  0  0
  184.7330  178.5620  147.3430 Cl  0  0  0  0  0  0  0  0  0  0  0  0
  183.5030  179.0640  144.9650 C   0  0  0  0  0  3  0  0  0  0  0  0
  185.6000  178.0840  143.4110 C   0  0  0  0  0  3  0  0  0  0  0  0
  186.8670  177.5050  145.4410 N   0  0  0  0  0  2  0  0  0  0  0  0
  187.7140  178.2810  146.3400 C   0  0  0  0  0  2  0  0  0  0  0  0
  189.3950  177.7790  144.5980 C   0  0  0  0  0  2  0  0  0  0  0  0
  189.5970  176.7010  146.8310 C   0  0  0  0  0  2  0  0  0  0  0  0
  190.8610  177.4940  144.2720 C   0  0  1  0  0  3  0  0  0  0  0  0
  191.6020  178.6540  144.3960 F   0  0  0  0  0  0  0  0  0  0  0  0
  189.1810  177.9780  146.0920 C   0  0  2  0  0  3  0  0  0  0  0  0
  190.9960  176.3840  146.5450 N   0  0  0  0  0  0  0  0  0  0  0  0
  191.4220  176.4400  145.1680 C   0  0  0  0  0  0  0  0  0  0  0  0
  192.2830  175.5590  144.6720 C   0  0  0  0  0  2  0  0  0  0  0  0
  192.0350  174.8450  148.0860 C   0  0  0  0  0  2  0  0  0  0  0  0
  191.9090  176.0850  147.6230 C   0  0  0  0  0  0  0  0  0  0  0  0
  192.5660  177.1410  148.3280 N   0  0  0  0  0  1  0  0  0  0  0  0
  1  2  2  0  0  0  0
  2 21  1  0  0  0  0
  2 34  1  0  0  0  0
  3  1  1  0  0  0  0
  4  3  2  0  0  0  0
  5  9  1  0  0  0  0
  5  8  1  0  0  0  0
  6  4  1  6  0  0  0
  6  7  1  0  0  0  0
  8  7  1  0  0  0  0
  8 10  1  1  0  0  0
  9  6  1  0  0  0  0
 11 12  1  1  0  0  0
 11 10  1  0  0  0  0
 11 15  1  0  0  0  0
 12 13  1  0  0  0  0
 14 12  2  0  0  0  0
 15 16  1  6  0  0  0
 15 18  1  0  0  0  0
 16 17  1  0  0  0  0
 18 19  1  0  0  0  0
 19 20  1  0  0  0  0
 22 23  1  6  0  0  0
 22 21  1  0  0  0  0
 24 29  2  0  0  0  0
 24 27  1  0  0  0  0
 25 30  1  0  0  0  0
 25 29  1  0  0  0  0
 26 28  1  0  0  0  0
 26 25  1  0  0  0  0
 27 22  1  0  0  0  0
 28 24  1  0  0  0  0
 30 31  1  0  0  0  0
 31 32  1  0  0  0  0
 33 31  2  0  0  0  0
 34 35  1  0  0  0  0
 35 39  1  0  0  0  0
 36 35  2  0  0  0  0
 37 35  2  0  0  0  0
 38 43  1  0  0  0  0
 39 44  1  0  0  0  0
 39 38  2  0  0  0  0
 40 45  1  0  0  0  0
 40 41  1  0  0  0  0
 41 42  1  0  0  0  0
 43 41  2  0  0  0  0
 44 40  2  0  0  0  0
 45 46  1  0  0  0  0
 47 51  1  0  0  0  0
 49 50  1  1  0  0  0
 49 47  1  0  0  0  0
 49 53  1  0  0  0  0
 51 46  1  6  0  0  0
 51 48  1  0  0  0  0
 52 48  1  0  0  0  0
 52 56  1  0  0  0  0
 53 52  1  0  0  0  0
 54 53  2  0  0  0  0
 56 55  2  0  0  0  0
 56 57  1  0  0  0  0
M  END
>  <MODEL>
7

>  <REMARK>
 VINA RESULT:      -6.4      4.395     10.561
  Name = 
  21 active torsions:
  status: ('A' for Active; 'I' for Inactive)
    1  A    between atoms: C_1  and  O_28
    2  A    between atoms: C_3  and  C_30
    3  A    between atoms: S_4  and  C_12
    4  A    between atoms: S_4  and  C_17
    5  A    between atoms: C_9  and  C_25
    6  A    between atoms: N_11  and  C_41
    7  A    between atoms: CA_13  and  C_16
    8  A    between atoms: CA_13  and  C_30
    9  A    between atoms: CA_13  and  N_53
   10  A    between atoms: C_14  and  C_22
   11  A    between atoms: C_17  and  C_48
   12  A    between atoms: C_18  and  N_35
   13  A    between atoms: C_21  and  C_34
   14  A    between atoms: C_21  and  N_47
   15  A    between atoms: C_23  and  C_41
   16  A    between atoms: C_27  and  N_47
   17  A    between atoms: O_28  and  C_30
   18  A    between atoms: N_31  and  C_44
   19  A    between atoms: C_44  and  N_57
   20  A    between atoms: C_48  and  N_57
   21  A    between atoms: C_49  and  N_53
                            x       y       z     vdW  Elec       q    Type
                         _______ _______ _______ _____ _____    ______ ____

>  <TORSDO>
F 21

$$$$
=
 OpenBabel10222417353D

 57 60  0  0  1  0  0  0  0  0999 V2000
  187.1930  174.9620  136.6440 C   0  0  0  0  0  3  0  0  0  0  0  0
  186.6780  176.1840  136.7750 C   0  0  0  0  0  0  0  0  0  0  0  0
  188.5610  174.7290  136.1770 C   0  0  0  0  0  3  0  0  0  0  0  0
  189.3880  173.9390  136.8360 C   0  0  0  0  0  3  0  0  0  0  0  0
  192.5950  174.4350  134.5950 S   0  0  0  0  0  0  0  0  0  0  0  0
  190.7600  173.7130  136.3040 C   0  0  2  0  0  3  0  0  0  0  0  0
  191.7920  174.4160  137.1430 C   0  0  0  0  0  2  0  0  0  0  0  0
  193.0710  174.3280  136.3500 C   0  0  1  0  0  3  0  0  0  0  0  0
  190.8750  174.2020  134.9440 N   0  0  0  0  0  2  0  0  0  0  0  0
  193.6980  173.0400  136.5890 N   0  0  0  0  0  2  0  0  0  0  0  0
  195.1300  173.2090  136.4140 C   0  0  2  0  0  3  0  0  0  0  0  0
  195.8270  171.9670  136.8720 C   0  0  0  0  0  0  0  0  0  0  0  0
  197.0630  172.0430  137.5110 O   0  0  0  0  0  1  0  0  0  0  0  0
  195.2530  170.8550  136.7500 O   0  0  0  0  0  0  0  0  0  0  0  0
  195.6060  174.4430  137.1930 C   0  0  1  0  0  3  0  0  0  0  0  0
  195.7930  174.1440  138.6820 C   0  0  0  0  0  2  0  0  0  0  0  0
  195.4000  175.2390  139.4570 O   0  0  0  0  0  1  0  0  0  0  0  0
  196.8070  174.9220  136.6520 O   0  0  0  0  0  0  0  0  0  0  0  0
  196.5220  175.1800  135.3120 C   0  0  0  0  0  2  0  0  0  0  0  0
  196.7920  176.6410  135.0060 C   0  0  0  0  0  1  0  0  0  0  0  0
  185.2900  176.3030  137.1150 N   0  0  0  0  0  2  0  0  0  0  0  0
  184.3400  175.1930  137.1220 C   0  0  2  0  0  3  0  0  0  0  0  0
  183.5270  175.1900  135.8480 C   0  0  0  0  0  1  0  0  0  0  0  0
  182.6530  176.3990  138.5610 C   0  0  0  0  0  0  0  0  0  0  0  0
  181.7260  178.4040  138.1990 N   0  0  0  0  0  0  0  0  0  0  0  0
  180.8990  178.0420  139.3300 C   0  0  0  0  0  2  0  0  0  0  0  0
  183.4560  175.2540  138.2730 N   0  0  0  0  0  2  0  0  0  0  0  0
  181.4860  176.4110  139.9110 S   0  0  0  0  0  0  0  0  0  0  0  0
  182.6530  177.4410  137.8100 N   0  0  0  0  0  0  0  0  0  0  0  0
  181.5590  179.6470  137.4630 C   0  0  0  0  0  2  0  0  0  0  0  0
  180.2360  179.6600  136.7740 C   0  0  0  0  0  0  0  0  0  0  0  0
  179.8910  178.6870  136.0540 O   0  0  0  0  0  0  0  0  0  0  0  0
  179.4010  180.7630  136.8980 O   0  0  0  0  0  1  0  0  0  0  0  0
  187.5020  177.4100  136.4870 C   0  0  0  0  0  2  0  0  0  0  0  0
  188.2840  178.0530  137.9690 S   0  0  0  0  0  0  0  0  0  0  0  0
  189.3280  177.0780  138.4230 O   0  0  0  0  0  0  0  0  0  0  0  0
  188.9420  179.3620  137.6530 O   0  0  0  0  0  0  0  0  0  0  0  0
  185.8240  178.6600  139.0380 C   0  0  0  0  0  3  0  0  0  0  0  0
  187.1560  178.3180  139.2860 C   0  0  0  0  0  0  0  0  0  0  0  0
  186.7070  178.3180  141.6790 C   0  0  0  0  0  0  0  0  0  0  0  0
  185.3790  178.6990  141.4250 C   0  0  0  0  0  0  0  0  0  0  0  0
  184.2340  178.9420  142.7350 Cl  0  0  0  0  0  0  0  0  0  0  0  0
  184.9400  178.8570  140.1050 C   0  0  0  0  0  3  0  0  0  0  0  0
  187.5870  178.1320  140.6020 C   0  0  0  0  0  3  0  0  0  0  0  0
  187.1500  178.1040  143.0250 N   0  0  0  0  0  2  0  0  0  0  0  0
  187.9310  176.9340  143.4140 C   0  0  0  0  0  2  0  0  0  0  0  0
  190.2720  176.6070  144.1390 C   0  0  0  0  0  2  0  0  0  0  0  0
  188.4880  176.8470  145.8560 C   0  0  0  0  0  2  0  0  0  0  0  0
  191.3640  176.9540  145.1510 C   0  0  1  0  0  3  0  0  0  0  0  0
  191.7990  178.2490  144.9430 F   0  0  0  0  0  0  0  0  0  0  0  0
  188.9590  177.3020  144.4700 C   0  0  2  0  0  3  0  0  0  0  0  0
  189.5060  177.1550  146.8610 N   0  0  0  0  0  0  0  0  0  0  0  0
  190.8710  176.8070  146.5530 C   0  0  0  0  0  0  0  0  0  0  0  0
  191.6940  176.3350  147.4820 C   0  0  0  0  0  2  0  0  0  0  0  0
  187.8700  177.8920  148.4750 C   0  0  0  0  0  2  0  0  0  0  0  0
  189.1400  177.8320  148.0830 C   0  0  0  0  0  0  0  0  0  0  0  0
  190.1080  178.5970  148.8040 N   0  0  0  0  0  1  0  0  0  0  0  0
  1  2  2  0  0  0  0
  2 21  1  0  0  0  0
  3  1  1  0  0  0  0
  3  4  2  0  0  0  0
  5  9  1  0  0  0  0
  5  8  1  0  0  0  0
  6  4  1  1  0  0  0
  6  7  1  0  0  0  0
  8 10  1  6  0  0  0
  8  7  1  0  0  0  0
  9  6  1  0  0  0  0
 11 10  1  1  0  0  0
 11 12  1  0  0  0  0
 11 15  1  0  0  0  0
 12 13  1  0  0  0  0
 14 12  2  0  0  0  0
 15 16  1  1  0  0  0
 16 17  1  0  0  0  0
 18 15  1  0  0  0  0
 19 18  1  0  0  0  0
 20 19  1  0  0  0  0
 21 22  1  0  0  0  0
 22 23  1  6  0  0  0
 22 27  1  0  0  0  0
 24 28  1  0  0  0  0
 25 26  1  0  0  0  0
 26 28  1  0  0  0  0
 27 24  1  0  0  0  0
 29 25  1  0  0  0  0
 29 24  2  0  0  0  0
 30 25  1  0  0  0  0
 31 33  1  0  0  0  0
 31 30  1  0  0  0  0
 32 31  2  0  0  0  0
 34  2  1  0  0  0  0
 34 35  1  0  0  0  0
 35 36  2  0  0  0  0
 35 39  1  0  0  0  0
 37 35  2  0  0  0  0
 38 39  2  0  0  0  0
 38 43  1  0  0  0  0
 39 44  1  0  0  0  0
 40 45  1  0  0  0  0
 41 40  1  0  0  0  0
 41 42  1  0  0  0  0
 43 41  2  0  0  0  0
 44 40  2  0  0  0  0
 45 46  1  0  0  0  0
 47 51  1  0  0  0  0
 47 49  1  0  0  0  0
 48 52  1  0  0  0  0
 49 50  1  6  0  0  0
 49 53  1  0  0  0  0
 51 46  1  6  0  0  0
 51 48  1  0  0  0  0
 52 56  1  0  0  0  0
 53 52  1  0  0  0  0
 53 54  2  0  0  0  0
 56 55  2  0  0  0  0
 56 57  1  0  0  0  0
M  END
>  <MODEL>
8

>  <REMARK>
 VINA RESULT:      -6.4      3.207     10.223
  Name = 
  21 active torsions:
  status: ('A' for Active; 'I' for Inactive)
    1  A    between atoms: C_1  and  O_28
    2  A    between atoms: C_3  and  C_30
    3  A    between atoms: S_4  and  C_12
    4  A    between atoms: S_4  and  C_17
    5  A    between atoms: C_9  and  C_25
    6  A    between atoms: N_11  and  C_41
    7  A    between atoms: CA_13  and  C_16
    8  A    between atoms: CA_13  and  C_30
    9  A    between atoms: CA_13  and  N_53
   10  A    between atoms: C_14  and  C_22
   11  A    between atoms: C_17  and  C_48
   12  A    between atoms: C_18  and  N_35
   13  A    between atoms: C_21  and  C_34
   14  A    between atoms: C_21  and  N_47
   15  A    between atoms: C_23  and  C_41
   16  A    between atoms: C_27  and  N_47
   17  A    between atoms: O_28  and  C_30
   18  A    between atoms: N_31  and  C_44
   19  A    between atoms: C_44  and  N_57
   20  A    between atoms: C_48  and  N_57
   21  A    between atoms: C_49  and  N_53
                            x       y       z     vdW  Elec       q    Type
                         _______ _______ _______ _____ _____    ______ ____

>  <TORSDO>
F 21

$$$$
=
 OpenBabel10222417353D

 57 60  0  0  1  0  0  0  0  0999 V2000
  188.9820  176.8010  139.4180 C   0  0  0  0  0  3  0  0  0  0  0  0
  188.5950  178.0710  139.2980 C   0  0  0  0  0  0  0  0  0  0  0  0
  189.7980  176.1280  138.4070 C   0  0  0  0  0  3  0  0  0  0  0  0
  191.0730  175.8600  138.6200 C   0  0  0  0  0  3  0  0  0  0  0  0
  192.0650  174.5120  135.0480 S   0  0  0  0  0  0  0  0  0  0  0  0
  191.8530  175.1480  137.5700 C   0  0  2  0  0  3  0  0  0  0  0  0
  192.9910  175.9950  137.0680 C   0  0  0  0  0  2  0  0  0  0  0  0
  193.5110  175.2750  135.8510 C   0  0  1  0  0  3  0  0  0  0  0  0
  191.0120  174.8070  136.4400 N   0  0  0  0  0  2  0  0  0  0  0  0
  194.4250  174.2260  136.2660 N   0  0  0  0  0  2  0  0  0  0  0  0
  195.4060  174.8230  137.1560 C   0  0  2  0  0  3  0  0  0  0  0  0
  196.7360  174.8450  136.4700 C   0  0  0  0  0  0  0  0  0  0  0  0
  197.5440  175.9800  136.5260 O   0  0  0  0  0  1  0  0  0  0  0  0
  197.1590  173.8040  135.9080 O   0  0  0  0  0  0  0  0  0  0  0  0
  195.4630  174.0350  138.4720 C   0  0  1  0  0  3  0  0  0  0  0  0
  195.1930  172.5430  138.2580 C   0  0  0  0  0  2  0  0  0  0  0  0
  196.3860  171.8170  138.2950 O   0  0  0  0  0  1  0  0  0  0  0  0
  196.7110  174.2070  139.0850 O   0  0  0  0  0  0  0  0  0  0  0  0
  196.5140  175.2160  140.0270 C   0  0  0  0  0  2  0  0  0  0  0  0
  197.6940  175.2600  140.9800 C   0  0  0  0  0  1  0  0  0  0  0  0
  187.6910  178.6010  140.2770 N   0  0  0  0  0  2  0  0  0  0  0  0
  186.3150  178.1470  140.4650 C   0  0  2  0  0  3  0  0  0  0  0  0
  185.3560  179.0580  139.7350 C   0  0  0  0  0  1  0  0  0  0  0  0
  186.9390  177.9110  142.8990 C   0  0  0  0  0  0  0  0  0  0  0  0
  188.9910  177.7590  143.7800 N   0  0  0  0  0  0  0  0  0  0  0  0
  188.2810  177.8740  145.0360 C   0  0  0  0  0  2  0  0  0  0  0  0
  185.9620  178.0840  141.8730 N   0  0  0  0  0  2  0  0  0  0  0  0
  186.5010  177.9530  144.6290 S   0  0  0  0  0  0  0  0  0  0  0  0
  188.1930  177.8150  142.6410 N   0  0  0  0  0  0  0  0  0  0  0  0
  190.4400  177.6700  143.6970 C   0  0  0  0  0  2  0  0  0  0  0  0
  190.8370  176.8490  142.5160 C   0  0  0  0  0  0  0  0  0  0  0  0
  190.5280  175.6310  142.4630 O   0  0  0  0  0  1  0  0  0  0  0  0
  191.5780  177.4230  141.4910 O   0  0  0  0  0  0  0  0  0  0  0  0
  189.0220  178.9060  138.1210 C   0  0  0  0  0  2  0  0  0  0  0  0
  187.9390  178.6740  136.7090 S   0  0  0  0  0  0  0  0  0  0  0  0
  186.9990  179.8390  136.6280 O   0  0  0  0  0  0  0  0  0  0  0  0
  188.7620  178.6220  135.4580 O   0  0  0  0  0  0  0  0  0  0  0  0
  187.5780  175.9520  136.5530 C   0  0  0  0  0  3  0  0  0  0  0  0
  186.9960  177.1980  136.7980 C   0  0  0  0  0  0  0  0  0  0  0  0
  184.8710  176.1070  137.2700 C   0  0  0  0  0  0  0  0  0  0  0  0
  185.4530  174.8610  136.9860 C   0  0  0  0  0  0  0  0  0  0  0  0
  184.5240  173.3740  137.0960 Cl  0  0  0  0  0  0  0  0  0  0  0  0
  186.8070  174.7880  136.6390 C   0  0  0  0  0  3  0  0  0  0  0  0
  185.6510  177.2690  137.1720 C   0  0  0  0  0  3  0  0  0  0  0  0
  183.4980  176.1850  137.6760 N   0  0  0  0  0  2  0  0  0  0  0  0
  183.0860  176.0590  139.0700 C   0  0  0  0  0  2  0  0  0  0  0  0
  181.7440  177.9490  138.2070 C   0  0  0  0  0  2  0  0  0  0  0  0
  182.1830  177.7820  140.6500 C   0  0  0  0  0  2  0  0  0  0  0  0
  180.5640  178.8940  138.4320 C   0  0  1  0  0  3  0  0  0  0  0  0
  179.3770  178.2080  138.2620 F   0  0  0  0  0  0  0  0  0  0  0  0
  181.9180  176.9820  139.3700 C   0  0  2  0  0  3  0  0  0  0  0  0
  181.0790  178.7080  140.9050 N   0  0  0  0  0  0  0  0  0  0  0  0
  180.6050  179.4990  139.7970 C   0  0  0  0  0  0  0  0  0  0  0  0
  180.2280  180.7620  139.9560 C   0  0  0  0  0  2  0  0  0  0  0  0
  181.0690  179.3940  143.2190 C   0  0  0  0  0  2  0  0  0  0  0  0
  180.4670  178.7670  142.2120 C   0  0  0  0  0  0  0  0  0  0  0  0
  179.2900  178.0080  142.4940 N   0  0  0  0  0  1  0  0  0  0  0  0
  2  1  2  0  0  0  0
  2 21  1  0  0  0  0
  3  4  2  0  0  0  0
  3  1  1  0  0  0  0
  5  8  1  0  0  0  0
  5  9  1  0  0  0  0
  6  4  1  1  0  0  0
  7  6  1  0  0  0  0
  8 10  1  1  0  0  0
  8  7  1  0  0  0  0
  9  6  1  0  0  0  0
 11 10  1  6  0  0  0
 11 15  1  0  0  0  0
 12 13  1  0  0  0  0
 12 11  1  0  0  0  0
 14 12  2  0  0  0  0
 15 16  1  6  0  0  0
 15 18  1  0  0  0  0
 16 17  1  0  0  0  0
 18 19  1  0  0  0  0
 19 20  1  0  0  0  0
 21 22  1  0  0  0  0
 22 23  1  6  0  0  0
 22 27  1  0  0  0  0
 24 28  1  0  0  0  0
 25 26  1  0  0  0  0
 27 24  1  0  0  0  0
 28 26  1  0  0  0  0
 29 24  2  0  0  0  0
 29 25  1  0  0  0  0
 30 25  1  0  0  0  0
 31 30  1  0  0  0  0
 32 31  1  0  0  0  0
 33 31  2  0  0  0  0
 34  2  1  0  0  0  0
 35 39  1  0  0  0  0
 35 34  1  0  0  0  0
 36 35  2  0  0  0  0
 37 35  2  0  0  0  0
 38 43  2  0  0  0  0
 38 39  1  0  0  0  0
 39 44  2  0  0  0  0
 40 45  1  0  0  0  0
 41 42  1  0  0  0  0
 41 40  2  0  0  0  0
 43 41  1  0  0  0  0
 44 40  1  0  0  0  0
 45 46  1  0  0  0  0
 47 49  1  0  0  0  0
 47 51  1  0  0  0  0
 48 52  1  0  0  0  0
 49 50  1  1  0  0  0
 49 53  1  0  0  0  0
 51 46  1  6  0  0  0
 51 48  1  0  0  0  0
 52 56  1  0  0  0  0
 53 54  2  0  0  0  0
 53 52  1  0  0  0  0
 56 57  1  0  0  0  0
 56 55  2  0  0  0  0
M  END
>  <MODEL>
9

>  <REMARK>
 VINA RESULT:      -6.3      3.599      9.253
  Name = 
  21 active torsions:
  status: ('A' for Active; 'I' for Inactive)
    1  A    between atoms: C_1  and  O_28
    2  A    between atoms: C_3  and  C_30
    3  A    between atoms: S_4  and  C_12
    4  A    between atoms: S_4  and  C_17
    5  A    between atoms: C_9  and  C_25
    6  A    between atoms: N_11  and  C_41
    7  A    between atoms: CA_13  and  C_16
    8  A    between atoms: CA_13  and  C_30
    9  A    between atoms: CA_13  and  N_53
   10  A    between atoms: C_14  and  C_22
   11  A    between atoms: C_17  and  C_48
   12  A    between atoms: C_18  and  N_35
   13  A    between atoms: C_21  and  C_34
   14  A    between atoms: C_21  and  N_47
   15  A    between atoms: C_23  and  C_41
   16  A    between atoms: C_27  and  N_47
   17  A    between atoms: O_28  and  C_30
   18  A    between atoms: N_31  and  C_44
   19  A    between atoms: C_44  and  N_57
   20  A    between atoms: C_48  and  N_57
   21  A    between atoms: C_49  and  N_53
                            x       y       z     vdW  Elec       q    Type
                         _______ _______ _______ _____ _____    ______ ____

>  <TORSDO>
F 21

$$$$
