=
 OpenBabel10222417503D

 53 56  0  0  1  0  0  0  0  0999 V2000
  186.1820  178.3820  138.8270 C   0  0  1  0  0  3  0  0  0  0  0  0
  186.2380  177.2780  137.4270 Cl  0  0  0  0  0  0  0  0  0  0  0  0
  183.2040  179.0900  140.9590 F   0  0  0  0  0  0  0  0  0  0  0  0
  184.4750  178.8250  140.5590 C   0  0  0  0  0  0  0  0  0  0  0  0
  186.9360  178.6680  140.9490 C   0  0  2  0  0  3  0  0  0  0  0  0
  184.7480  178.6760  139.2540 C   0  0  0  0  0  0  0  0  0  0  0  0
  185.5490  178.6940  141.6060 C   0  0  1  0  0  3  0  0  0  0  0  0
  186.9100  177.7720  139.8670 O   0  0  0  0  0  0  0  0  0  0  0  0
  185.4630  179.7690  142.4910 O   0  0  0  0  0  1  0  0  0  0  0  0
  183.7150  178.9740  138.3050 N   0  0  0  0  0  0  0  0  0  0  0  0
  182.8770  178.1040  137.9140 N   0  0  0  0  0  0  0  0  0  0  0  0
  181.8490  178.4510  136.9430 C   0  0  1  0  0  3  0  0  0  0  0  0
  180.9910  177.4740  134.8140 O   0  0  0  0  0  0  0  0  0  0  0  0
  182.0730  177.7450  135.6400 C   0  0  0  0  0  0  0  0  0  0  0  0
  183.2270  177.3660  135.3030 O   0  0  0  0  0  1  0  0  0  0  0  0
  180.4600  178.1600  137.5010 C   0  0  0  0  0  2  0  0  0  0  0  0
  180.4740  176.9890  138.3650 N   0  0  0  0  0  2  0  0  0  0  0  0
  179.5360  177.2450  139.4460 C   0  0  1  0  0  3  0  0  0  0  0  0
  179.3350  176.0910  140.1830 F   0  0  0  0  0  0  0  0  0  0  0  0
  180.0610  178.3530  140.3430 C   0  0  0  0  0  2  0  0  0  0  0  0
  180.2360  177.8800  141.6550 O   0  0  0  0  0  0  0  0  0  0  0  0
  179.8820  178.9000  142.5660 C   0  0  2  0  0  3  0  0  0  0  0  0
  180.4560  180.1350  142.2330 O   0  0  0  0  0  1  0  0  0  0  0  0
  179.8880  177.1830  144.2440 F   0  0  0  0  0  0  0  0  0  0  0  0
  179.3010  179.2760  144.8500 F   0  0  0  0  0  0  0  0  0  0  0  0
  180.1300  178.5290  144.0320 C   0  0  0  0  0  0  0  0  0  0  0  0
  181.4460  178.8040  144.3540 F   0  0  0  0  0  0  0  0  0  0  0  0
  188.0110  178.2240  141.9550 C   0  0  1  0  0  3  0  0  0  0  0  0
  187.8390  176.8840  142.3360 O   0  0  0  0  0  0  0  0  0  0  0  0
  187.1140  176.9440  143.4770 N   0  0  0  0  0  2  0  0  0  0  0  0
  187.6930  177.9430  144.2670 N   0  0  0  0  0  2  0  0  0  0  0  0
  185.7630  178.7710  146.1970 C   0  0  0  0  0  1  0  0  0  0  0  0
  187.0800  178.2100  146.6150 C   0  0  0  0  0  0  0  0  0  0  0  0
  187.3620  178.1290  147.9420 N   0  0  0  0  0  0  0  0  0  0  0  0
  188.0250  177.7900  145.6590 C   0  0  0  0  0  0  0  0  0  0  0  0
  189.5090  177.2050  147.4940 C   0  0  0  0  0  3  0  0  0  0  0  0
  188.5450  177.6440  148.3960 C   0  0  0  0  0  3  0  0  0  0  0  0
  189.2590  177.2510  146.1130 C   0  0  0  0  0  0  0  0  0  0  0  0
  191.6800  176.8150  145.8650 C   0  0  0  0  0  2  0  0  0  0  0  0
  190.3300  176.7760  145.1670 C   0  0  0  0  0  3  0  0  0  0  0  0
  191.3400  177.8680  144.8380 C   0  0  0  0  0  2  0  0  0  0  0  0
  189.3270  178.4630  141.5040 O   0  0  0  0  0  0  0  0  0  0  0  0
  189.9810  177.2280  141.3440 C   0  0  0  0  0  2  0  0  0  0  0  0
  191.3190  177.4280  140.6500 C   0  0  0  0  0  2  0  0  0  0  0  0
  192.6280  175.9160  137.4350 C   0  0  0  0  0  0  0  0  0  0  0  0
  191.3140  176.8220  139.2860 C   0  0  0  0  0  0  0  0  0  0  0  0
  190.1680  176.3670  138.7690 C   0  0  0  0  0  3  0  0  0  0  0  0
  192.5760  176.6810  138.5300 C   0  0  0  0  0  3  0  0  0  0  0  0
  191.4360  175.0940  137.0200 C   0  0  0  0  0  2  0  0  0  0  0  0
  193.9010  175.7960  136.6800 C   0  0  0  0  0  1  0  0  0  0  0  0
  190.1270  175.8140  137.3670 C   0  0  1  0  0  3  0  0  0  0  0  0
  189.6310  173.6870  137.0110 C   0  0  0  0  0  1  0  0  0  0  0  0
  189.0500  174.9370  137.2300 O   0  0  0  0  0  0  0  0  0  0  0  0
  1  2  1  6  0  0  0
  1  6  1  0  0  0  0
  1  8  1  0  0  0  0
  4  3  1  0  0  0  0
  4  7  1  0  0  0  0
  5  7  1  0  0  0  0
  5 28  1  1  0  0  0
  6  4  2  0  0  0  0
  7  9  1  1  0  0  0
  8  5  1  0  0  0  0
 10  6  1  0  0  0  0
 11 10  2  0  0  0  0
 12 16  1  1  0  0  0
 12 11  1  0  0  0  0
 13 14  2  0  0  0  0
 14 12  1  0  0  0  0
 15 14  1  0  0  0  0
 16 17  1  0  0  0  0
 17 18  1  0  0  0  0
 18 19  1  1  0  0  0
 18 20  1  0  0  0  0
 20 21  1  0  0  0  0
 21 22  1  0  0  0  0
 22 23  1  6  0  0  0
 22 26  1  0  0  0  0
 26 24  1  0  0  0  0
 26 27  1  0  0  0  0
 26 25  1  0  0  0  0
 28 42  1  6  0  0  0
 28 29  1  0  0  0  0
 29 30  1  0  0  0  0
 30 31  1  0  0  0  0
 31 35  1  0  0  0  0
 32 33  1  0  0  0  0
 33 34  1  0  0  0  0
 34 37  2  0  0  0  0
 35 38  1  0  0  0  0
 35 33  2  0  0  0  0
 36 37  1  0  0  0  0
 38 36  2  0  0  0  0
 40 39  1  0  0  0  0
 40 38  1  0  0  0  0
 41 40  1  0  0  0  0
 41 39  1  0  0  0  0
 43 42  1  0  0  0  0
 44 43  1  0  0  0  0
 45 48  2  0  0  0  0
 46 44  1  0  0  0  0
 47 46  2  0  0  0  0
 48 46  1  0  0  0  0
 49 51  1  0  0  0  0
 49 45  1  0  0  0  0
 50 45  1  0  0  0  0
 51 53  1  1  0  0  0
 51 47  1  0  0  0  0
 52 53  1  0  0  0  0
M  END
>  <MODEL>
1

>  <REMARK>
 VINA RESULT:      -7.3      0.000      0.000
  Name = 
  21 active torsions:
  status: ('A' for Active; 'I' for Inactive)
    1  A    between atoms: N_6  and  C_13
    2  A    between atoms: N_6  and  C_44
    3  A    between atoms: C_11  and  C_13
    4  A    between atoms: C_11  and  N_27
    5  A    between atoms: C_11  and  C_42
    6  A    between atoms: C_12  and  C_41
    7  A    between atoms: C_14  and  C_26
    8  A    between atoms: C_14  and  O_40
    9  A    between atoms: O_20  and  C_32
   10  A    between atoms: O_20  and  N_34
   11  A    between atoms: C_21  and  C_32
   12  A    between atoms: N_22  and  C_25
   13  A    between atoms: N_28  and  N_34
   14  A    between atoms: N_28  and  C_38
   15  A    between atoms: C_32  and  O_45
   16  A    between atoms: C_36  and  C_41
   17  A    between atoms: C_36  and  O_45
   18  A    between atoms: C_37  and  O_43
   19  A    between atoms: O_40  and  C_48
   20  A    between atoms: C_44  and  C_48
   21  A    between atoms: C_49  and  C_52
                            x       y       z     vdW  Elec       q    Type
                         _______ _______ _______ _____ _____    ______ ____

>  <TORSDO>
F 21

$$$$
=
 OpenBabel10222417503D

 53 56  0  0  1  0  0  0  0  0999 V2000
  187.3210  177.8320  138.3960 C   0  0  1  0  0  3  0  0  0  0  0  0
  186.4380  176.8840  137.1700 Cl  0  0  0  0  0  0  0  0  0  0  0  0
  185.9630  179.0310  141.6570 F   0  0  0  0  0  0  0  0  0  0  0  0
  186.7890  178.5070  140.7130 C   0  0  0  0  0  0  0  0  0  0  0  0
  189.0170  177.7270  139.9020 C   0  0  2  0  0  3  0  0  0  0  0  0
  186.3770  178.4200  139.4400 C   0  0  0  0  0  0  0  0  0  0  0  0
  188.1510  178.0240  141.1330 C   0  0  1  0  0  3  0  0  0  0  0  0
  188.2640  176.9700  138.9890 O   0  0  0  0  0  0  0  0  0  0  0  0
  188.7630  179.0000  141.9200 O   0  0  0  0  0  1  0  0  0  0  0  0
  185.1380  179.0460  139.0800 N   0  0  0  0  0  0  0  0  0  0  0  0
  184.0140  178.4820  139.2580 N   0  0  0  0  0  0  0  0  0  0  0  0
  182.7810  179.1540  138.8710 C   0  0  1  0  0  3  0  0  0  0  0  0
  181.3440  179.4490  136.8530 O   0  0  0  0  0  0  0  0  0  0  0  0
  182.3380  178.7300  137.5040 C   0  0  0  0  0  0  0  0  0  0  0  0
  182.8320  177.7090  136.9550 O   0  0  0  0  0  1  0  0  0  0  0  0
  181.6890  178.9140  139.9090 C   0  0  0  0  0  2  0  0  0  0  0  0
  182.1920  179.1180  141.2590 N   0  0  0  0  0  2  0  0  0  0  0  0
  181.0770  178.9010  142.1670 C   0  0  1  0  0  3  0  0  0  0  0  0
  180.5060  177.6630  141.9310 F   0  0  0  0  0  0  0  0  0  0  0  0
  181.5530  178.9900  143.6070 C   0  0  0  0  0  2  0  0  0  0  0  0
  182.8860  178.5540  143.7110 O   0  0  0  0  0  0  0  0  0  0  0  0
  183.5890  179.4170  144.5810 C   0  0  2  0  0  3  0  0  0  0  0  0
  184.0340  180.5790  143.9360 O   0  0  0  0  0  1  0  0  0  0  0  0
  184.2390  178.2010  146.5470 F   0  0  0  0  0  0  0  0  0  0  0  0
  185.7220  179.6320  145.6290 F   0  0  0  0  0  0  0  0  0  0  0  0
  184.7140  178.7250  145.3580 C   0  0  0  0  0  0  0  0  0  0  0  0
  185.2290  177.6970  144.5890 F   0  0  0  0  0  0  0  0  0  0  0  0
  190.2810  176.9450  140.2950 C   0  0  1  0  0  3  0  0  0  0  0  0
  190.6890  176.0760  139.2720 O   0  0  0  0  0  0  0  0  0  0  0  0
  191.6370  176.7640  138.5960 N   0  0  0  0  0  2  0  0  0  0  0  0
  191.5390  176.3700  137.2560 N   0  0  0  0  0  2  0  0  0  0  0  0
  189.3860  174.8130  136.2170 C   0  0  0  0  0  1  0  0  0  0  0  0
  190.7750  174.2710  136.2710 C   0  0  0  0  0  0  0  0  0  0  0  0
  190.9940  173.0000  135.8440 N   0  0  0  0  0  0  0  0  0  0  0  0
  191.8370  175.0470  136.7720 C   0  0  0  0  0  0  0  0  0  0  0  0
  193.3140  173.1620  136.3520 C   0  0  0  0  0  3  0  0  0  0  0  0
  192.2280  172.4350  135.8780 C   0  0  0  0  0  3  0  0  0  0  0  0
  193.1420  174.4860  136.7890 C   0  0  0  0  0  0  0  0  0  0  0  0
  195.5640  174.3380  137.2680 C   0  0  0  0  0  2  0  0  0  0  0  0
  194.3390  175.2380  137.3060 C   0  0  0  0  0  3  0  0  0  0  0  0
  194.8960  174.6350  138.5890 C   0  0  0  0  0  2  0  0  0  0  0  0
  191.3420  177.7770  140.7140 O   0  0  0  0  0  0  0  0  0  0  0  0
  191.6900  177.4350  142.0330 C   0  0  0  0  0  2  0  0  0  0  0  0
  190.8330  176.2750  142.5180 C   0  0  0  0  0  2  0  0  0  0  0  0
  191.4740  176.2530  146.2490 C   0  0  0  0  0  0  0  0  0  0  0  0
  190.5670  176.3790  143.9830 C   0  0  0  0  0  0  0  0  0  0  0  0
  189.4210  176.9180  144.4110 C   0  0  0  0  0  3  0  0  0  0  0  0
  191.5850  175.9320  144.9570 C   0  0  0  0  0  3  0  0  0  0  0  0
  190.3740  177.1710  146.7160 C   0  0  0  0  0  2  0  0  0  0  0  0
  192.4980  175.7850  147.2170 C   0  0  0  0  0  1  0  0  0  0  0  0
  189.1020  176.9690  145.8830 C   0  0  1  0  0  3  0  0  0  0  0  0
  187.7270  177.7520  147.4310 C   0  0  0  0  0  1  0  0  0  0  0  0
  188.1960  178.0000  146.1400 O   0  0  0  0  0  0  0  0  0  0  0  0
  1  2  1  6  0  0  0
  1  8  1  0  0  0  0
  1  6  1  0  0  0  0
  4  7  1  0  0  0  0
  4  3  1  0  0  0  0
  5 28  1  1  0  0  0
  5  7  1  0  0  0  0
  6  4  2  0  0  0  0
  7  9  1  1  0  0  0
  8  5  1  0  0  0  0
 10 11  2  0  0  0  0
 10  6  1  0  0  0  0
 12 11  1  0  0  0  0
 12 16  1  1  0  0  0
 13 14  2  0  0  0  0
 14 12  1  0  0  0  0
 15 14  1  0  0  0  0
 16 17  1  0  0  0  0
 17 18  1  0  0  0  0
 18 19  1  6  0  0  0
 18 20  1  0  0  0  0
 20 21  1  0  0  0  0
 21 22  1  0  0  0  0
 22 23  1  6  0  0  0
 22 26  1  0  0  0  0
 26 25  1  0  0  0  0
 26 24  1  0  0  0  0
 27 26  1  0  0  0  0
 28 29  1  6  0  0  0
 28 42  1  0  0  0  0
 30 29  1  0  0  0  0
 31 30  1  0  0  0  0
 32 33  1  0  0  0  0
 33 35  1  0  0  0  0
 34 37  1  0  0  0  0
 34 33  2  0  0  0  0
 35 38  2  0  0  0  0
 35 31  1  0  0  0  0
 36 38  1  0  0  0  0
 37 36  2  0  0  0  0
 38 40  1  0  0  0  0
 39 40  1  0  0  0  0
 39 41  1  0  0  0  0
 40 41  1  0  0  0  0
 42 43  1  0  0  0  0
 43 44  1  0  0  0  0
 44 46  1  0  0  0  0
 45 49  1  0  0  0  0
 45 50  1  0  0  0  0
 46 47  2  0  0  0  0
 46 48  1  0  0  0  0
 47 51  1  0  0  0  0
 48 45  2  0  0  0  0
 51 53  1  6  0  0  0
 51 49  1  0  0  0  0
 53 52  1  0  0  0  0
M  END
>  <MODEL>
2

>  <REMARK>
 VINA RESULT:      -7.2      2.779      6.684
  Name = 
  21 active torsions:
  status: ('A' for Active; 'I' for Inactive)
    1  A    between atoms: N_6  and  C_13
    2  A    between atoms: N_6  and  C_44
    3  A    between atoms: C_11  and  C_13
    4  A    between atoms: C_11  and  N_27
    5  A    between atoms: C_11  and  C_42
    6  A    between atoms: C_12  and  C_41
    7  A    between atoms: C_14  and  C_26
    8  A    between atoms: C_14  and  O_40
    9  A    between atoms: O_20  and  C_32
   10  A    between atoms: O_20  and  N_34
   11  A    between atoms: C_21  and  C_32
   12  A    between atoms: N_22  and  C_25
   13  A    between atoms: N_28  and  N_34
   14  A    between atoms: N_28  and  C_38
   15  A    between atoms: C_32  and  O_45
   16  A    between atoms: C_36  and  C_41
   17  A    between atoms: C_36  and  O_45
   18  A    between atoms: C_37  and  O_43
   19  A    between atoms: O_40  and  C_48
   20  A    between atoms: C_44  and  C_48
   21  A    between atoms: C_49  and  C_52
                            x       y       z     vdW  Elec       q    Type
                         _______ _______ _______ _____ _____    ______ ____

>  <TORSDO>
F 21

$$$$
=
 OpenBabel10222417503D

 53 56  0  0  1  0  0  0  0  0999 V2000
  189.5040  178.1460  139.8100 C   0  0  1  0  0  3  0  0  0  0  0  0
  190.9000  177.3130  140.5430 Cl  0  0  0  0  0  0  0  0  0  0  0  0
  187.6050  177.0330  136.7970 F   0  0  0  0  0  0  0  0  0  0  0  0
  187.9060  177.5160  138.0310 C   0  0  0  0  0  0  0  0  0  0  0  0
  187.3280  178.6960  140.1540 C   0  0  2  0  0  3  0  0  0  0  0  0
  189.1870  177.5970  138.4220 C   0  0  0  0  0  0  0  0  0  0  0  0
  186.7800  177.9380  138.9370 C   0  0  1  0  0  3  0  0  0  0  0  0
  188.4130  177.9790  140.6850 O   0  0  0  0  0  0  0  0  0  0  0  0
  185.8990  178.7540  138.2260 O   0  0  0  0  0  1  0  0  0  0  0  0
  190.2120  177.3330  137.4540 N   0  0  0  0  0  0  0  0  0  0  0  0
  190.9500  176.3020  137.5080 N   0  0  0  0  0  0  0  0  0  0  0  0
  191.9840  176.0780  136.5070 C   0  0  1  0  0  3  0  0  0  0  0  0
  193.5140  176.5610  138.4170 O   0  0  0  0  0  1  0  0  0  0  0  0
  193.3430  176.4010  137.0480 C   0  0  0  0  0  0  0  0  0  0  0  0
  194.3230  176.5640  136.2730 O   0  0  0  0  0  0  0  0  0  0  0  0
  191.9210  174.6500  135.9770 C   0  0  0  0  0  2  0  0  0  0  0  0
  190.7550  174.4530  135.1300 N   0  0  0  0  0  2  0  0  0  0  0  0
  189.9970  173.3480  135.6950 C   0  0  1  0  0  3  0  0  0  0  0  0
  190.2870  173.2130  137.0420 F   0  0  0  0  0  0  0  0  0  0  0  0
  188.5090  173.5830  135.5020 C   0  0  0  0  0  2  0  0  0  0  0  0
  187.8620  173.6800  136.7470 O   0  0  0  0  0  0  0  0  0  0  0  0
  186.8940  172.6550  136.8460 C   0  0  2  0  0  3  0  0  0  0  0  0
  186.9150  171.7920  135.7420 O   0  0  0  0  0  1  0  0  0  0  0  0
  184.5700  172.6530  136.2400 F   0  0  0  0  0  0  0  0  0  0  0  0
  185.4620  174.5520  137.0710 F   0  0  0  0  0  0  0  0  0  0  0  0
  185.4810  173.1710  137.1430 C   0  0  0  0  0  0  0  0  0  0  0  0
  185.1160  172.7820  138.4190 F   0  0  0  0  0  0  0  0  0  0  0  0
  186.2440  178.8580  141.2320 C   0  0  1  0  0  3  0  0  0  0  0  0
  185.0150  179.2420  140.6740 O   0  0  0  0  0  0  0  0  0  0  0  0
  184.1000  178.4590  141.2910 N   0  0  0  0  0  2  0  0  0  0  0  0
  182.8420  178.9690  140.9500 N   0  0  0  0  0  2  0  0  0  0  0  0
  180.8960  179.3260  143.0040 C   0  0  0  0  0  1  0  0  0  0  0  0
  180.6790  178.3490  141.8980 C   0  0  0  0  0  0  0  0  0  0  0  0
  179.5460  177.6010  141.9020 N   0  0  0  0  0  0  0  0  0  0  0  0
  181.6370  178.1850  140.8780 C   0  0  0  0  0  0  0  0  0  0  0  0
  180.1950  176.4890  139.9000 C   0  0  0  0  0  3  0  0  0  0  0  0
  179.2890  176.6820  140.9370 C   0  0  0  0  0  3  0  0  0  0  0  0
  181.3740  177.2500  139.8420 C   0  0  0  0  0  0  0  0  0  0  0  0
  181.8270  175.8680  137.8410 C   0  0  0  0  0  2  0  0  0  0  0  0
  182.3380  177.0060  138.7100 C   0  0  0  0  0  3  0  0  0  0  0  0
  182.9830  175.6290  138.7820 C   0  0  0  0  0  2  0  0  0  0  0  0
  186.1010  177.7180  142.0530 O   0  0  0  0  0  0  0  0  0  0  0  0
  186.5320  178.0410  143.3520 C   0  0  0  0  0  2  0  0  0  0  0  0
  187.0410  176.7950  144.0610 C   0  0  0  0  0  2  0  0  0  0  0  0
  188.6550  177.6520  147.3760 C   0  0  0  0  0  0  0  0  0  0  0  0
  188.1040  177.1360  145.0520 C   0  0  0  0  0  0  0  0  0  0  0  0
  189.3900  176.9850  144.7210 C   0  0  0  0  0  3  0  0  0  0  0  0
  187.7360  177.5930  146.4080 C   0  0  0  0  0  3  0  0  0  0  0  0
  190.0530  177.1440  147.1340 C   0  0  0  0  0  2  0  0  0  0  0  0
  188.2720  178.1260  148.7310 C   0  0  0  0  0  1  0  0  0  0  0  0
  190.4800  177.3880  145.6810 C   0  0  1  0  0  3  0  0  0  0  0  0
  191.5760  176.3840  144.0410 C   0  0  0  0  0  1  0  0  0  0  0  0
  191.6490  176.6780  145.4040 O   0  0  0  0  0  0  0  0  0  0  0  0
  1  2  1  1  0  0  0
  1  8  1  0  0  0  0
  3  4  1  0  0  0  0
  4  6  2  0  0  0  0
  4  7  1  0  0  0  0
  5  8  1  0  0  0  0
  5 28  1  1  0  0  0
  6  1  1  0  0  0  0
  7  9  1  6  0  0  0
  7  5  1  0  0  0  0
 10 11  2  0  0  0  0
 10  6  1  0  0  0  0
 12 16  1  1  0  0  0
 12 14  1  0  0  0  0
 12 11  1  0  0  0  0
 14 13  1  0  0  0  0
 15 14  2  0  0  0  0
 17 18  1  0  0  0  0
 17 16  1  0  0  0  0
 18 19  1  1  0  0  0
 20 18  1  0  0  0  0
 20 21  1  0  0  0  0
 21 22  1  0  0  0  0
 22 23  1  6  0  0  0
 22 26  1  0  0  0  0
 24 26  1  0  0  0  0
 25 26  1  0  0  0  0
 26 27  1  0  0  0  0
 28 29  1  6  0  0  0
 28 42  1  0  0  0  0
 29 30  1  0  0  0  0
 31 30  1  0  0  0  0
 33 34  1  0  0  0  0
 33 32  1  0  0  0  0
 35 31  1  0  0  0  0
 35 33  2  0  0  0  0
 36 37  1  0  0  0  0
 37 34  2  0  0  0  0
 38 36  2  0  0  0  0
 38 35  1  0  0  0  0
 39 40  1  0  0  0  0
 39 41  1  0  0  0  0
 40 41  1  0  0  0  0
 40 38  1  0  0  0  0
 42 43  1  0  0  0  0
 43 44  1  0  0  0  0
 44 46  1  0  0  0  0
 45 50  1  0  0  0  0
 46 48  1  0  0  0  0
 47 46  2  0  0  0  0
 47 51  1  0  0  0  0
 48 45  2  0  0  0  0
 49 45  1  0  0  0  0
 51 53  1  6  0  0  0
 51 49  1  0  0  0  0
 52 53  1  0  0  0  0
M  END
>  <MODEL>
3

>  <REMARK>
 VINA RESULT:      -7.2      3.731      8.905
  Name = 
  21 active torsions:
  status: ('A' for Active; 'I' for Inactive)
    1  A    between atoms: N_6  and  C_13
    2  A    between atoms: N_6  and  C_44
    3  A    between atoms: C_11  and  C_13
    4  A    between atoms: C_11  and  N_27
    5  A    between atoms: C_11  and  C_42
    6  A    between atoms: C_12  and  C_41
    7  A    between atoms: C_14  and  C_26
    8  A    between atoms: C_14  and  O_40
    9  A    between atoms: O_20  and  C_32
   10  A    between atoms: O_20  and  N_34
   11  A    between atoms: C_21  and  C_32
   12  A    between atoms: N_22  and  C_25
   13  A    between atoms: N_28  and  N_34
   14  A    between atoms: N_28  and  C_38
   15  A    between atoms: C_32  and  O_45
   16  A    between atoms: C_36  and  C_41
   17  A    between atoms: C_36  and  O_45
   18  A    between atoms: C_37  and  O_43
   19  A    between atoms: O_40  and  C_48
   20  A    between atoms: C_44  and  C_48
   21  A    between atoms: C_49  and  C_52
                            x       y       z     vdW  Elec       q    Type
                         _______ _______ _______ _____ _____    ______ ____

>  <TORSDO>
F 21

$$$$
=
 OpenBabel10222417503D

 53 56  0  0  1  0  0  0  0  0999 V2000
  186.3640  178.1740  138.7020 C   0  0  1  0  0  3  0  0  0  0  0  0
  186.4200  176.9690  137.3880 Cl  0  0  0  0  0  0  0  0  0  0  0  0
  183.3660  179.1010  140.7190 F   0  0  0  0  0  0  0  0  0  0  0  0
  184.6380  178.7800  140.3650 C   0  0  0  0  0  0  0  0  0  0  0  0
  187.0870  178.5990  140.8120 C   0  0  2  0  0  3  0  0  0  0  0  0
  184.9300  178.5290  139.0790 C   0  0  0  0  0  0  0  0  0  0  0  0
  185.6900  178.7030  141.4380 C   0  0  1  0  0  3  0  0  0  0  0  0
  187.0600  177.6270  139.7990 O   0  0  0  0  0  0  0  0  0  0  0  0
  185.6120  179.8430  142.2400 O   0  0  0  0  0  1  0  0  0  0  0  0
  183.9210  178.7780  138.0910 N   0  0  0  0  0  0  0  0  0  0  0  0
  182.9950  177.9470  137.8370 N   0  0  0  0  0  0  0  0  0  0  0  0
  181.9960  178.2400  136.8200 C   0  0  1  0  0  3  0  0  0  0  0  0
  180.7920  177.0070  135.0160 O   0  0  0  0  0  0  0  0  0  0  0  0
  181.9360  177.1540  135.7890 C   0  0  0  0  0  0  0  0  0  0  0  0
  182.8980  176.3530  135.6410 O   0  0  0  0  0  1  0  0  0  0  0  0
  180.6310  178.4770  137.4580 C   0  0  0  0  0  2  0  0  0  0  0  0
  180.7630  179.0830  138.7730 N   0  0  0  0  0  2  0  0  0  0  0  0
  180.1750  180.4110  138.6930 C   0  0  1  0  0  3  0  0  0  0  0  0
  180.4170  181.1090  139.8630 F   0  0  0  0  0  0  0  0  0  0  0  0
  180.7500  181.1650  137.5070 C   0  0  0  0  0  2  0  0  0  0  0  0
  181.1820  182.4440  137.9010 O   0  0  0  0  0  0  0  0  0  0  0  0
  180.6030  183.4110  137.0490 C   0  0  2  0  0  3  0  0  0  0  0  0
  180.5730  182.9940  135.7110 O   0  0  0  0  0  1  0  0  0  0  0  0
  180.4070  185.6130  137.9860 F   0  0  0  0  0  0  0  0  0  0  0  0
  181.3650  185.3910  135.9540 F   0  0  0  0  0  0  0  0  0  0  0  0
  181.2140  184.8090  137.2000 C   0  0  0  0  0  0  0  0  0  0  0  0
  182.4550  184.6990  137.7980 F   0  0  0  0  0  0  0  0  0  0  0  0
  188.1340  178.2080  141.8680 C   0  0  1  0  0  3  0  0  0  0  0  0
  187.9900  176.8690  142.2650 O   0  0  0  0  0  0  0  0  0  0  0  0
  187.2110  176.9210  143.3700 N   0  0  0  0  0  2  0  0  0  0  0  0
  187.7460  177.9230  144.1890 N   0  0  0  0  0  2  0  0  0  0  0  0
  185.7650  178.7540  146.0650 C   0  0  0  0  0  1  0  0  0  0  0  0
  187.0650  178.1820  146.5190 C   0  0  0  0  0  0  0  0  0  0  0  0
  187.3070  178.0930  147.8530 N   0  0  0  0  0  0  0  0  0  0  0  0
  188.0350  177.7610  145.5900 C   0  0  0  0  0  0  0  0  0  0  0  0
  189.4600  177.1560  147.4650 C   0  0  0  0  0  3  0  0  0  0  0  0
  188.4730  177.5980  148.3390 C   0  0  0  0  0  3  0  0  0  0  0  0
  189.2510  177.2110  146.0770 C   0  0  0  0  0  0  0  0  0  0  0  0
  191.6710  176.7310  145.9080 C   0  0  0  0  0  2  0  0  0  0  0  0
  190.3470  176.7330  145.1610 C   0  0  0  0  0  3  0  0  0  0  0  0
  191.3890  177.8100  144.8910 C   0  0  0  0  0  2  0  0  0  0  0  0
  189.4590  178.4840  141.4670 O   0  0  0  0  0  0  0  0  0  0  0  0
  190.1600  177.2690  141.3600 C   0  0  0  0  0  2  0  0  0  0  0  0
  191.4730  177.4850  140.6220 C   0  0  0  0  0  2  0  0  0  0  0  0
  192.7630  175.8040  137.4840 C   0  0  0  0  0  0  0  0  0  0  0  0
  191.4600  176.8080  139.2910 C   0  0  0  0  0  0  0  0  0  0  0  0
  190.3100  176.3290  138.8050 C   0  0  0  0  0  3  0  0  0  0  0  0
  192.7170  176.6250  138.5380 C   0  0  0  0  0  3  0  0  0  0  0  0
  191.5670  174.9640  137.1180 C   0  0  0  0  0  2  0  0  0  0  0  0
  194.0320  175.6410  136.7300 C   0  0  0  0  0  1  0  0  0  0  0  0
  190.2610  175.7040  137.4340 C   0  0  1  0  0  3  0  0  0  0  0  0
  189.7340  173.6200  136.9050 C   0  0  0  0  0  1  0  0  0  0  0  0
  189.1820  174.8230  137.3480 O   0  0  0  0  0  0  0  0  0  0  0  0
  1  2  1  6  0  0  0
  1  6  1  0  0  0  0
  1  8  1  0  0  0  0
  4  3  1  0  0  0  0
  4  7  1  0  0  0  0
  5  7  1  0  0  0  0
  5 28  1  1  0  0  0
  6  4  2  0  0  0  0
  7  9  1  6  0  0  0
  8  5  1  0  0  0  0
 10  6  1  0  0  0  0
 11 10  2  0  0  0  0
 12 16  1  1  0  0  0
 12 11  1  0  0  0  0
 13 14  2  0  0  0  0
 14 12  1  0  0  0  0
 15 14  1  0  0  0  0
 16 17  1  0  0  0  0
 18 17  1  0  0  0  0
 18 19  1  1  0  0  0
 20 21  1  0  0  0  0
 20 18  1  0  0  0  0
 22 23  1  6  0  0  0
 22 26  1  0  0  0  0
 22 21  1  0  0  0  0
 25 26  1  0  0  0  0
 26 27  1  0  0  0  0
 26 24  1  0  0  0  0
 28 42  1  6  0  0  0
 28 29  1  0  0  0  0
 29 30  1  0  0  0  0
 30 31  1  0  0  0  0
 31 35  1  0  0  0  0
 32 33  1  0  0  0  0
 33 34  1  0  0  0  0
 34 37  2  0  0  0  0
 35 38  1  0  0  0  0
 35 33  2  0  0  0  0
 36 37  1  0  0  0  0
 38 36  2  0  0  0  0
 40 39  1  0  0  0  0
 40 38  1  0  0  0  0
 41 40  1  0  0  0  0
 41 39  1  0  0  0  0
 43 42  1  0  0  0  0
 44 43  1  0  0  0  0
 45 48  2  0  0  0  0
 46 44  1  0  0  0  0
 47 46  2  0  0  0  0
 48 46  1  0  0  0  0
 49 51  1  0  0  0  0
 49 45  1  0  0  0  0
 50 45  1  0  0  0  0
 51 53  1  1  0  0  0
 51 47  1  0  0  0  0
 52 53  1  0  0  0  0
M  END
>  <MODEL>
4

>  <REMARK>
 VINA RESULT:      -7.2      2.492      3.357
  Name = 
  21 active torsions:
  status: ('A' for Active; 'I' for Inactive)
    1  A    between atoms: N_6  and  C_13
    2  A    between atoms: N_6  and  C_44
    3  A    between atoms: C_11  and  C_13
    4  A    between atoms: C_11  and  N_27
    5  A    between atoms: C_11  and  C_42
    6  A    between atoms: C_12  and  C_41
    7  A    between atoms: C_14  and  C_26
    8  A    between atoms: C_14  and  O_40
    9  A    between atoms: O_20  and  C_32
   10  A    between atoms: O_20  and  N_34
   11  A    between atoms: C_21  and  C_32
   12  A    between atoms: N_22  and  C_25
   13  A    between atoms: N_28  and  N_34
   14  A    between atoms: N_28  and  C_38
   15  A    between atoms: C_32  and  O_45
   16  A    between atoms: C_36  and  C_41
   17  A    between atoms: C_36  and  O_45
   18  A    between atoms: C_37  and  O_43
   19  A    between atoms: O_40  and  C_48
   20  A    between atoms: C_44  and  C_48
   21  A    between atoms: C_49  and  C_52
                            x       y       z     vdW  Elec       q    Type
                         _______ _______ _______ _____ _____    ______ ____

>  <TORSDO>
F 21

$$$$
=
 OpenBabel10222417503D

 53 56  0  0  1  0  0  0  0  0999 V2000
  190.4840  176.7810  141.6970 C   0  0  1  0  0  3  0  0  0  0  0  0
  191.8870  176.9380  142.7880 Cl  0  0  0  0  0  0  0  0  0  0  0  0
  187.5180  179.0410  141.5800 F   0  0  0  0  0  0  0  0  0  0  0  0
  188.5560  178.2480  141.2050 C   0  0  0  0  0  0  0  0  0  0  0  0
  189.8450  176.9270  139.5240 C   0  0  2  0  0  3  0  0  0  0  0  0
  189.3260  177.6690  142.1390 C   0  0  0  0  0  0  0  0  0  0  0  0
  188.8220  178.0510  139.7370 C   0  0  1  0  0  3  0  0  0  0  0  0
  190.9230  177.1210  140.4030 O   0  0  0  0  0  0  0  0  0  0  0  0
  187.6260  177.7340  139.0920 O   0  0  0  0  0  1  0  0  0  0  0  0
  188.9200  177.7670  143.5110 N   0  0  0  0  0  0  0  0  0  0  0  0
  189.1090  176.8280  144.3460 N   0  0  0  0  0  0  0  0  0  0  0  0
  188.6740  176.9690  145.7280 C   0  0  1  0  0  3  0  0  0  0  0  0
  189.5970  177.5560  147.9700 O   0  0  0  0  0  1  0  0  0  0  0  0
  189.8320  177.2500  146.6360 C   0  0  0  0  0  0  0  0  0  0  0  0
  191.0130  177.2470  146.1940 O   0  0  0  0  0  0  0  0  0  0  0  0
  187.5990  178.0440  145.8480 C   0  0  0  0  0  2  0  0  0  0  0  0
  186.6950  177.7640  146.9520 N   0  0  0  0  0  2  0  0  0  0  0  0
  185.6770  178.8020  146.9460 C   0  0  1  0  0  3  0  0  0  0  0  0
  186.1600  179.9450  147.5570 F   0  0  0  0  0  0  0  0  0  0  0  0
  185.2570  179.1120  145.5190 C   0  0  0  0  0  2  0  0  0  0  0  0
  183.9510  178.6480  145.2800 O   0  0  0  0  0  0  0  0  0  0  0  0
  183.5090  179.1340  144.0290 C   0  0  2  0  0  3  0  0  0  0  0  0
  182.1560  178.8530  143.7960 O   0  0  0  0  0  1  0  0  0  0  0  0
  185.3150  177.7530  143.2570 F   0  0  0  0  0  0  0  0  0  0  0  0
  185.0640  179.8020  142.3470 F   0  0  0  0  0  0  0  0  0  0  0  0
  184.3940  178.7040  142.8540 C   0  0  0  0  0  0  0  0  0  0  0  0
  183.5990  178.1640  141.8610 F   0  0  0  0  0  0  0  0  0  0  0  0
  190.3600  176.9210  138.0750 C   0  0  1  0  0  3  0  0  0  0  0  0
  190.3300  175.6310  137.5230 O   0  0  0  0  0  0  0  0  0  0  0  0
  191.4940  175.0640  137.9170 N   0  0  0  0  0  2  0  0  0  0  0  0
  192.2330  174.8190  136.7540 N   0  0  0  0  0  2  0  0  0  0  0  0
  190.8360  172.7540  135.3700 C   0  0  0  0  0  1  0  0  0  0  0  0
  192.2490  172.5680  135.8080 C   0  0  0  0  0  0  0  0  0  0  0  0
  192.8550  171.3770  135.5650 N   0  0  0  0  0  0  0  0  0  0  0  0
  192.9400  173.5950  136.4800 C   0  0  0  0  0  0  0  0  0  0  0  0
  194.8650  172.1160  136.6050 C   0  0  0  0  0  3  0  0  0  0  0  0
  194.1330  171.1310  135.9490 C   0  0  0  0  0  3  0  0  0  0  0  0
  194.2890  173.3700  136.8640 C   0  0  0  0  0  0  0  0  0  0  0  0
  196.5160  173.8800  137.8110 C   0  0  0  0  0  2  0  0  0  0  0  0
  195.1080  174.4080  137.5860 C   0  0  0  0  0  3  0  0  0  0  0  0
  195.5480  173.9430  138.9680 C   0  0  0  0  0  2  0  0  0  0  0  0
  189.6950  177.8490  137.2440 O   0  0  0  0  0  0  0  0  0  0  0  0
  189.4180  177.2320  136.0110 C   0  0  0  0  0  2  0  0  0  0  0  0
  188.0970  177.7420  135.4550 C   0  0  0  0  0  2  0  0  0  0  0  0
  186.3000  174.6640  136.7330 C   0  0  0  0  0  0  0  0  0  0  0  0
  186.9740  176.8230  135.8090 C   0  0  0  0  0  0  0  0  0  0  0  0
  185.7220  177.2910  135.8400 C   0  0  0  0  0  3  0  0  0  0  0  0
  187.2500  175.4180  136.1700 C   0  0  0  0  0  3  0  0  0  0  0  0
  184.9730  175.2660  137.1150 C   0  0  0  0  0  2  0  0  0  0  0  0
  186.5900  173.2480  137.0780 C   0  0  0  0  0  1  0  0  0  0  0  0
  184.5670  176.3670  136.1260 C   0  0  1  0  0  3  0  0  0  0  0  0
  183.6490  177.0430  138.0240 C   0  0  0  0  0  1  0  0  0  0  0  0
  183.4890  177.0910  136.6380 O   0  0  0  0  0  0  0  0  0  0  0  0
  1  6  1  0  0  0  0
  1  2  1  1  0  0  0
  4  3  1  0  0  0  0
  4  6  2  0  0  0  0
  5 28  1  6  0  0  0
  5  7  1  0  0  0  0
  5  8  1  0  0  0  0
  6 10  1  0  0  0  0
  7  9  1  6  0  0  0
  7  4  1  0  0  0  0
  8  1  1  0  0  0  0
 10 11  2  0  0  0  0
 11 12  1  0  0  0  0
 12 16  1  6  0  0  0
 12 14  1  0  0  0  0
 14 13  1  0  0  0  0
 15 14  2  0  0  0  0
 16 17  1  0  0  0  0
 18 17  1  0  0  0  0
 18 19  1  6  0  0  0
 20 18  1  0  0  0  0
 21 20  1  0  0  0  0
 22 23  1  6  0  0  0
 22 21  1  0  0  0  0
 25 26  1  0  0  0  0
 26 24  1  0  0  0  0
 26 22  1  0  0  0  0
 27 26  1  0  0  0  0
 28 42  1  6  0  0  0
 29 30  1  0  0  0  0
 29 28  1  0  0  0  0
 31 30  1  0  0  0  0
 32 33  1  0  0  0  0
 33 35  1  0  0  0  0
 34 33  2  0  0  0  0
 34 37  1  0  0  0  0
 35 31  1  0  0  0  0
 35 38  2  0  0  0  0
 36 38  1  0  0  0  0
 37 36  2  0  0  0  0
 38 40  1  0  0  0  0
 39 41  1  0  0  0  0
 40 39  1  0  0  0  0
 40 41  1  0  0  0  0
 43 42  1  0  0  0  0
 44 46  1  0  0  0  0
 44 43  1  0  0  0  0
 45 50  1  0  0  0  0
 45 49  1  0  0  0  0
 46 47  2  0  0  0  0
 46 48  1  0  0  0  0
 47 51  1  0  0  0  0
 48 45  2  0  0  0  0
 51 53  1  1  0  0  0
 51 49  1  0  0  0  0
 53 52  1  0  0  0  0
M  END
>  <MODEL>
5

>  <REMARK>
 VINA RESULT:      -7.0      3.646      8.542
  Name = 
  21 active torsions:
  status: ('A' for Active; 'I' for Inactive)
    1  A    between atoms: N_6  and  C_13
    2  A    between atoms: N_6  and  C_44
    3  A    between atoms: C_11  and  C_13
    4  A    between atoms: C_11  and  N_27
    5  A    between atoms: C_11  and  C_42
    6  A    between atoms: C_12  and  C_41
    7  A    between atoms: C_14  and  C_26
    8  A    between atoms: C_14  and  O_40
    9  A    between atoms: O_20  and  C_32
   10  A    between atoms: O_20  and  N_34
   11  A    between atoms: C_21  and  C_32
   12  A    between atoms: N_22  and  C_25
   13  A    between atoms: N_28  and  N_34
   14  A    between atoms: N_28  and  C_38
   15  A    between atoms: C_32  and  O_45
   16  A    between atoms: C_36  and  C_41
   17  A    between atoms: C_36  and  O_45
   18  A    between atoms: C_37  and  O_43
   19  A    between atoms: O_40  and  C_48
   20  A    between atoms: C_44  and  C_48
   21  A    between atoms: C_49  and  C_52
                            x       y       z     vdW  Elec       q    Type
                         _______ _______ _______ _____ _____    ______ ____

>  <TORSDO>
F 21

$$$$
=
 OpenBabel10222417503D

 53 56  0  0  1  0  0  0  0  0999 V2000
  184.8840  178.6120  140.2240 C   0  0  1  0  0  3  0  0  0  0  0  0
  183.4140  177.9670  141.0020 Cl  0  0  0  0  0  0  0  0  0  0  0  0
  188.3650  178.3740  141.5470 F   0  0  0  0  0  0  0  0  0  0  0  0
  187.2960  178.3650  140.7070 C   0  0  0  0  0  0  0  0  0  0  0  0
  186.2590  178.3530  138.4360 C   0  0  2  0  0  3  0  0  0  0  0  0
  186.0700  178.6240  141.1840 C   0  0  0  0  0  0  0  0  0  0  0  0
  187.5230  178.0490  139.2520 C   0  0  1  0  0  3  0  0  0  0  0  0
  185.1470  177.8070  139.0980 O   0  0  0  0  0  0  0  0  0  0  0  0
  188.5900  178.8120  138.7770 O   0  0  0  0  0  1  0  0  0  0  0  0
  185.9480  179.0750  142.5400 N   0  0  0  0  0  0  0  0  0  0  0  0
  185.8970  178.2720  143.5230 N   0  0  0  0  0  0  0  0  0  0  0  0
  185.7670  178.7750  144.8830 C   0  0  1  0  0  3  0  0  0  0  0  0
  183.6020  179.8610  144.2860 O   0  0  0  0  0  0  0  0  0  0  0  0
  184.3440  179.1230  145.1990 C   0  0  0  0  0  0  0  0  0  0  0  0
  183.8270  178.7840  146.2970 O   0  0  0  0  0  1  0  0  0  0  0  0
  186.3300  177.7720  145.8850 C   0  0  0  0  0  2  0  0  0  0  0  0
  186.9210  178.4480  147.0300 N   0  0  0  0  0  2  0  0  0  0  0  0
  188.1240  177.7130  147.3850 C   0  0  1  0  0  3  0  0  0  0  0  0
  187.8040  176.6430  148.2020 F   0  0  0  0  0  0  0  0  0  0  0  0
  188.8240  177.2190  146.1300 C   0  0  0  0  0  2  0  0  0  0  0  0
  189.4960  178.2780  145.4950 O   0  0  0  0  0  0  0  0  0  0  0  0
  189.9560  177.8430  144.2310 C   0  0  2  0  0  3  0  0  0  0  0  0
  189.4710  176.5720  143.8960 O   0  0  0  0  0  1  0  0  0  0  0  0
  192.1260  177.2630  145.0780 F   0  0  0  0  0  0  0  0  0  0  0  0
  191.8640  179.2690  144.0780 F   0  0  0  0  0  0  0  0  0  0  0  0
  191.4760  177.9410  144.0620 C   0  0  0  0  0  0  0  0  0  0  0  0
  191.8340  177.3820  142.8490 F   0  0  0  0  0  0  0  0  0  0  0  0
  186.3600  177.7520  137.0250 C   0  0  1  0  0  3  0  0  0  0  0  0
  185.0930  177.4580  136.4980 O   0  0  0  0  0  0  0  0  0  0  0  0
  185.1600  176.1520  136.1530 N   0  0  0  0  0  2  0  0  0  0  0  0
  184.6860  175.4240  137.2510 N   0  0  0  0  0  2  0  0  0  0  0  0
  184.7930  172.6330  136.6730 C   0  0  0  0  0  1  0  0  0  0  0  0
  183.4970  173.3100  136.9690 C   0  0  0  0  0  0  0  0  0  0  0  0
  182.3540  172.5770  136.9260 N   0  0  0  0  0  0  0  0  0  0  0  0
  183.4510  174.6860  137.2670 C   0  0  0  0  0  0  0  0  0  0  0  0
  181.0380  174.4810  137.4810 C   0  0  0  0  0  3  0  0  0  0  0  0
  181.1390  173.1290  137.1700 C   0  0  0  0  0  3  0  0  0  0  0  0
  182.1920  175.2770  137.5550 C   0  0  0  0  0  0  0  0  0  0  0  0
  180.5940  177.1610  137.6890 C   0  0  0  0  0  2  0  0  0  0  0  0
  182.0420  176.7390  137.8840 C   0  0  0  0  0  3  0  0  0  0  0  0
  181.6350  177.5690  136.6730 C   0  0  0  0  0  2  0  0  0  0  0  0
  187.1130  178.5470  136.1340 O   0  0  0  0  0  0  0  0  0  0  0  0
  187.8450  177.7000  135.2820 C   0  0  0  0  0  2  0  0  0  0  0  0
  189.3230  177.7430  135.6410 C   0  0  0  0  0  2  0  0  0  0  0  0
  189.3480  174.1090  136.7030 C   0  0  0  0  0  0  0  0  0  0  0  0
  189.7430  176.4930  136.3410 C   0  0  0  0  0  0  0  0  0  0  0  0
  190.9280  176.4490  136.9590 C   0  0  0  0  0  3  0  0  0  0  0  0
  188.8770  175.2970  136.3100 C   0  0  0  0  0  3  0  0  0  0  0  0
  190.8000  173.9470  137.0710 C   0  0  0  0  0  2  0  0  0  0  0  0
  188.4600  172.9190  136.6780 C   0  0  0  0  0  1  0  0  0  0  0  0
  191.3430  175.2220  137.7290 C   0  0  1  0  0  3  0  0  0  0  0  0
  193.1520  176.4880  137.8870 C   0  0  0  0  0  1  0  0  0  0  0  0
  192.7350  175.1580  137.8140 O   0  0  0  0  0  0  0  0  0  0  0  0
  1  2  1  1  0  0  0
  1  6  1  0  0  0  0
  4  6  2  0  0  0  0
  4  3  1  0  0  0  0
  5 28  1  6  0  0  0
  5  8  1  0  0  0  0
  5  7  1  0  0  0  0
  6 10  1  0  0  0  0
  7  9  1  6  0  0  0
  7  4  1  0  0  0  0
  8  1  1  0  0  0  0
 10 11  2  0  0  0  0
 11 12  1  0  0  0  0
 12 14  1  0  0  0  0
 12 16  1  1  0  0  0
 13 14  2  0  0  0  0
 14 15  1  0  0  0  0
 16 17  1  0  0  0  0
 17 18  1  0  0  0  0
 18 19  1  1  0  0  0
 20 18  1  0  0  0  0
 21 20  1  0  0  0  0
 22 23  1  1  0  0  0
 22 21  1  0  0  0  0
 26 25  1  0  0  0  0
 26 22  1  0  0  0  0
 26 24  1  0  0  0  0
 27 26  1  0  0  0  0
 28 42  1  6  0  0  0
 29 28  1  0  0  0  0
 30 29  1  0  0  0  0
 30 31  1  0  0  0  0
 31 35  1  0  0  0  0
 32 33  1  0  0  0  0
 33 35  1  0  0  0  0
 34 33  2  0  0  0  0
 34 37  1  0  0  0  0
 35 38  2  0  0  0  0
 36 38  1  0  0  0  0
 37 36  2  0  0  0  0
 38 40  1  0  0  0  0
 39 40  1  0  0  0  0
 41 39  1  0  0  0  0
 41 40  1  0  0  0  0
 43 44  1  0  0  0  0
 43 42  1  0  0  0  0
 44 46  1  0  0  0  0
 45 49  1  0  0  0  0
 46 47  2  0  0  0  0
 47 51  1  0  0  0  0
 48 46  1  0  0  0  0
 48 45  2  0  0  0  0
 49 51  1  0  0  0  0
 50 45  1  0  0  0  0
 51 53  1  6  0  0  0
 53 52  1  0  0  0  0
M  END
>  <MODEL>
6

>  <REMARK>
 VINA RESULT:      -6.9      3.595      8.665
  Name = 
  21 active torsions:
  status: ('A' for Active; 'I' for Inactive)
    1  A    between atoms: N_6  and  C_13
    2  A    between atoms: N_6  and  C_44
    3  A    between atoms: C_11  and  C_13
    4  A    between atoms: C_11  and  N_27
    5  A    between atoms: C_11  and  C_42
    6  A    between atoms: C_12  and  C_41
    7  A    between atoms: C_14  and  C_26
    8  A    between atoms: C_14  and  O_40
    9  A    between atoms: O_20  and  C_32
   10  A    between atoms: O_20  and  N_34
   11  A    between atoms: C_21  and  C_32
   12  A    between atoms: N_22  and  C_25
   13  A    between atoms: N_28  and  N_34
   14  A    between atoms: N_28  and  C_38
   15  A    between atoms: C_32  and  O_45
   16  A    between atoms: C_36  and  C_41
   17  A    between atoms: C_36  and  O_45
   18  A    between atoms: C_37  and  O_43
   19  A    between atoms: O_40  and  C_48
   20  A    between atoms: C_44  and  C_48
   21  A    between atoms: C_49  and  C_52
                            x       y       z     vdW  Elec       q    Type
                         _______ _______ _______ _____ _____    ______ ____

>  <TORSDO>
F 21

$$$$
=
 OpenBabel10222417503D

 53 56  0  0  1  0  0  0  0  0999 V2000
  187.4870  177.9460  138.1900 C   0  0  1  0  0  3  0  0  0  0  0  0
  188.3960  178.4780  136.7510 Cl  0  0  0  0  0  0  0  0  0  0  0  0
  188.2180  178.8740  141.7290 F   0  0  0  0  0  0  0  0  0  0  0  0
  187.5580  178.6060  140.5720 C   0  0  0  0  0  0  0  0  0  0  0  0
  185.4900  178.1380  139.2540 C   0  0  2  0  0  3  0  0  0  0  0  0
  188.2470  178.2450  139.4790 C   0  0  0  0  0  0  0  0  0  0  0  0
  186.0580  178.7370  140.5480 C   0  0  1  0  0  3  0  0  0  0  0  0
  186.2440  178.6080  138.1660 O   0  0  0  0  0  0  0  0  0  0  0  0
  185.5210  178.0760  141.6530 O   0  0  0  0  0  1  0  0  0  0  0  0
  189.6500  177.9830  139.6150 N   0  0  0  0  0  0  0  0  0  0  0  0
  190.1050  176.8280  139.8820 N   0  0  0  0  0  0  0  0  0  0  0  0
  191.5380  176.6100  140.0170 C   0  0  1  0  0  3  0  0  0  0  0  0
  191.5430  176.4350  137.5280 O   0  0  0  0  0  0  0  0  0  0  0  0
  192.2330  176.7350  138.6960 C   0  0  0  0  0  0  0  0  0  0  0  0
  193.4450  177.0760  138.6350 O   0  0  0  0  0  1  0  0  0  0  0  0
  192.1330  177.5620  141.0500 C   0  0  0  0  0  2  0  0  0  0  0  0
  192.0380  177.0080  142.3920 N   0  0  0  0  0  2  0  0  0  0  0  0
  190.8960  177.6380  143.0350 C   0  0  1  0  0  3  0  0  0  0  0  0
  189.7720  176.8450  142.8910 F   0  0  0  0  0  0  0  0  0  0  0  0
  191.1880  177.8670  144.5090 C   0  0  0  0  0  2  0  0  0  0  0  0
  190.5220  176.9110  145.2950 O   0  0  0  0  0  0  0  0  0  0  0  0
  189.6360  177.5720  146.1750 C   0  0  2  0  0  3  0  0  0  0  0  0
  189.8700  177.2400  147.5160 O   0  0  0  0  0  1  0  0  0  0  0  0
  187.4070  177.0400  146.8940 F   0  0  0  0  0  0  0  0  0  0  0  0
  188.0300  176.4590  144.8040 F   0  0  0  0  0  0  0  0  0  0  0  0
  188.1600  177.4160  145.7950 C   0  0  0  0  0  0  0  0  0  0  0  0
  187.6840  178.6240  145.3180 F   0  0  0  0  0  0  0  0  0  0  0  0
  184.0170  178.5360  139.0660 C   0  0  1  0  0  3  0  0  0  0  0  0
  183.7270  179.7530  139.7020 O   0  0  0  0  0  0  0  0  0  0  0  0
  182.3980  179.7020  139.9490 N   0  0  0  0  0  2  0  0  0  0  0  0
  182.1870  178.5920  140.7770 N   0  0  0  0  0  2  0  0  0  0  0  0
  179.3630  178.5230  140.3840 C   0  0  0  0  0  1  0  0  0  0  0  0
  179.9500  178.5740  141.7540 C   0  0  0  0  0  0  0  0  0  0  0  0
  179.1100  178.6200  142.8210 N   0  0  0  0  0  0  0  0  0  0  0  0
  181.3450  178.5950  141.9440 C   0  0  0  0  0  0  0  0  0  0  0  0
  180.9410  178.6940  144.3390 C   0  0  0  0  0  3  0  0  0  0  0  0
  179.5720  178.6830  144.0950 C   0  0  0  0  0  3  0  0  0  0  0  0
  181.8500  178.6300  143.2710 C   0  0  0  0  0  0  0  0  0  0  0  0
  183.5390  178.9500  145.0500 C   0  0  0  0  0  2  0  0  0  0  0  0
  183.3250  178.6550  143.5740 C   0  0  0  0  0  3  0  0  0  0  0  0
  183.8040  180.0280  144.0270 C   0  0  0  0  0  2  0  0  0  0  0  0
  183.6140  178.5560  137.7140 O   0  0  0  0  0  0  0  0  0  0  0  0
  183.0680  177.3020  137.3870 C   0  0  0  0  0  2  0  0  0  0  0  0
  183.7630  176.7300  136.1610 C   0  0  0  0  0  2  0  0  0  0  0  0
  185.4740  173.4540  136.9790 C   0  0  0  0  0  0  0  0  0  0  0  0
  183.9740  175.2590  136.2990 C   0  0  0  0  0  0  0  0  0  0  0  0
  182.9310  174.4290  136.1920 C   0  0  0  0  0  3  0  0  0  0  0  0
  185.3190  174.7260  136.6000 C   0  0  0  0  0  3  0  0  0  0  0  0
  184.2740  172.5760  137.2180 C   0  0  0  0  0  2  0  0  0  0  0  0
  186.8340  172.9300  137.2650 C   0  0  0  0  0  1  0  0  0  0  0  0
  183.1320  172.9360  136.2590 C   0  0  1  0  0  3  0  0  0  0  0  0
  181.2170  173.3160  137.3030 C   0  0  0  0  0  1  0  0  0  0  0  0
  181.9520  172.3130  136.6690 O   0  0  0  0  0  0  0  0  0  0  0  0
  1  2  1  6  0  0  0
  1  6  1  0  0  0  0
  4  3  1  0  0  0  0
  5 28  1  6  0  0  0
  5  7  1  0  0  0  0
  6 10  1  0  0  0  0
  6  4  2  0  0  0  0
  7  4  1  0  0  0  0
  7  9  1  1  0  0  0
  8  1  1  0  0  0  0
  8  5  1  0  0  0  0
 10 11  2  0  0  0  0
 11 12  1  0  0  0  0
 12 16  1  1  0  0  0
 13 14  2  0  0  0  0
 14 12  1  0  0  0  0
 15 14  1  0  0  0  0
 16 17  1  0  0  0  0
 17 18  1  0  0  0  0
 18 19  1  1  0  0  0
 18 20  1  0  0  0  0
 20 21  1  0  0  0  0
 21 22  1  0  0  0  0
 22 23  1  1  0  0  0
 25 26  1  0  0  0  0
 26 22  1  0  0  0  0
 26 24  1  0  0  0  0
 27 26  1  0  0  0  0
 28 42  1  6  0  0  0
 28 29  1  0  0  0  0
 29 30  1  0  0  0  0
 30 31  1  0  0  0  0
 31 35  1  0  0  0  0
 32 33  1  0  0  0  0
 33 35  2  0  0  0  0
 33 34  1  0  0  0  0
 34 37  2  0  0  0  0
 35 38  1  0  0  0  0
 37 36  1  0  0  0  0
 38 40  1  0  0  0  0
 38 36  2  0  0  0  0
 40 41  1  0  0  0  0
 40 39  1  0  0  0  0
 41 39  1  0  0  0  0
 43 42  1  0  0  0  0
 44 46  1  0  0  0  0
 44 43  1  0  0  0  0
 45 49  1  0  0  0  0
 45 50  1  0  0  0  0
 46 48  1  0  0  0  0
 47 51  1  0  0  0  0
 47 46  2  0  0  0  0
 48 45  2  0  0  0  0
 51 53  1  1  0  0  0
 51 49  1  0  0  0  0
 53 52  1  0  0  0  0
M  END
>  <MODEL>
7

>  <REMARK>
 VINA RESULT:      -6.9      3.518      8.189
  Name = 
  21 active torsions:
  status: ('A' for Active; 'I' for Inactive)
    1  A    between atoms: N_6  and  C_13
    2  A    between atoms: N_6  and  C_44
    3  A    between atoms: C_11  and  C_13
    4  A    between atoms: C_11  and  N_27
    5  A    between atoms: C_11  and  C_42
    6  A    between atoms: C_12  and  C_41
    7  A    between atoms: C_14  and  C_26
    8  A    between atoms: C_14  and  O_40
    9  A    between atoms: O_20  and  C_32
   10  A    between atoms: O_20  and  N_34
   11  A    between atoms: C_21  and  C_32
   12  A    between atoms: N_22  and  C_25
   13  A    between atoms: N_28  and  N_34
   14  A    between atoms: N_28  and  C_38
   15  A    between atoms: C_32  and  O_45
   16  A    between atoms: C_36  and  C_41
   17  A    between atoms: C_36  and  O_45
   18  A    between atoms: C_37  and  O_43
   19  A    between atoms: O_40  and  C_48
   20  A    between atoms: C_44  and  C_48
   21  A    between atoms: C_49  and  C_52
                            x       y       z     vdW  Elec       q    Type
                         _______ _______ _______ _____ _____    ______ ____

>  <TORSDO>
F 21

$$$$
=
 OpenBabel10222417503D

 53 56  0  0  1  0  0  0  0  0999 V2000
  187.5830  177.6090  137.6610 C   0  0  1  0  0  3  0  0  0  0  0  0
  187.0610  176.4820  136.3810 Cl  0  0  0  0  0  0  0  0  0  0  0  0
  185.6110  178.5910  140.6720 F   0  0  0  0  0  0  0  0  0  0  0  0
  186.6370  178.2170  139.8630 C   0  0  0  0  0  0  0  0  0  0  0  0
  189.0580  177.8670  139.3670 C   0  0  2  0  0  3  0  0  0  0  0  0
  186.4170  178.0250  138.5530 C   0  0  0  0  0  0  0  0  0  0  0  0
  188.0000  178.0160  140.4690 C   0  0  1  0  0  3  0  0  0  0  0  0
  188.5870  176.9590  138.4040 O   0  0  0  0  0  0  0  0  0  0  0  0
  188.3080  179.1090  141.2800 O   0  0  0  0  0  1  0  0  0  0  0  0
  185.1390  178.3910  138.0160 N   0  0  0  0  0  0  0  0  0  0  0  0
  184.0980  177.6850  138.1940 N   0  0  0  0  0  0  0  0  0  0  0  0
  182.8220  178.0930  137.6240 C   0  0  1  0  0  3  0  0  0  0  0  0
  181.6300  176.0410  138.3950 O   0  0  0  0  0  1  0  0  0  0  0  0
  181.9440  176.9080  137.3560 C   0  0  0  0  0  0  0  0  0  0  0  0
  181.5170  176.6720  136.1940 O   0  0  0  0  0  0  0  0  0  0  0  0
  182.1280  179.1070  138.5260 C   0  0  0  0  0  2  0  0  0  0  0  0
  182.6070  179.0080  139.8960 N   0  0  0  0  0  2  0  0  0  0  0  0
  181.4370  179.0090  140.7600 C   0  0  1  0  0  3  0  0  0  0  0  0
  180.6350  177.9180  140.4740 F   0  0  0  0  0  0  0  0  0  0  0  0
  181.8650  178.9750  142.2170 C   0  0  0  0  0  2  0  0  0  0  0  0
  183.1260  178.3670  142.3440 O   0  0  0  0  0  0  0  0  0  0  0  0
  183.4990  178.3550  143.7070 C   0  0  2  0  0  3  0  0  0  0  0  0
  182.5050  178.8890  144.5370 O   0  0  0  0  0  1  0  0  0  0  0  0
  185.0180  180.1600  143.2560 F   0  0  0  0  0  0  0  0  0  0  0  0
  185.8710  178.1020  143.6170 F   0  0  0  0  0  0  0  0  0  0  0  0
  184.8700  178.9870  143.9750 C   0  0  0  0  0  0  0  0  0  0  0  0
  184.9820  179.2710  145.3230 F   0  0  0  0  0  0  0  0  0  0  0  0
  190.3860  177.3540  139.9480 C   0  0  1  0  0  3  0  0  0  0  0  0
  191.3590  177.1980  138.9500 O   0  0  0  0  0  0  0  0  0  0  0  0
  191.7090  175.8920  139.0130 N   0  0  0  0  0  2  0  0  0  0  0  0
  192.5770  175.6580  137.9410 N   0  0  0  0  0  2  0  0  0  0  0  0
  194.8630  173.9990  138.3350 C   0  0  0  0  0  1  0  0  0  0  0  0
  193.7800  173.6070  137.3870 C   0  0  0  0  0  0  0  0  0  0  0  0
  193.9170  172.4540  136.6830 N   0  0  0  0  0  0  0  0  0  0  0  0
  192.6480  174.4230  137.2050 C   0  0  0  0  0  0  0  0  0  0  0  0
  191.8370  172.8040  135.5820 C   0  0  0  0  0  3  0  0  0  0  0  0
  192.9810  172.0420  135.7910 C   0  0  0  0  0  3  0  0  0  0  0  0
  191.6400  173.9960  136.2980 C   0  0  0  0  0  0  0  0  0  0  0  0
  189.6230  174.1860  134.8790 C   0  0  0  0  0  2  0  0  0  0  0  0
  190.3940  174.8000  136.0370 C   0  0  0  0  0  3  0  0  0  0  0  0
  190.4040  175.4600  134.6640 C   0  0  0  0  0  2  0  0  0  0  0  0
  190.8680  178.1420  141.0160 O   0  0  0  0  0  0  0  0  0  0  0  0
  191.2240  177.2930  142.0790 C   0  0  0  0  0  2  0  0  0  0  0  0
  191.5470  178.1120  143.3190 C   0  0  0  0  0  2  0  0  0  0  0  0
  191.1500  176.5520  146.7460 C   0  0  0  0  0  0  0  0  0  0  0  0
  190.8820  177.5430  144.5280 C   0  0  0  0  0  0  0  0  0  0  0  0
  189.5670  177.7140  144.7020 C   0  0  0  0  0  3  0  0  0  0  0  0
  191.6790  176.8350  145.5520 C   0  0  0  0  0  3  0  0  0  0  0  0
  189.7760  177.0500  147.1110 C   0  0  0  0  0  2  0  0  0  0  0  0
  191.9610  175.8280  147.7590 C   0  0  0  0  0  1  0  0  0  0  0  0
  188.8630  177.0890  145.8790 C   0  0  1  0  0  3  0  0  0  0  0  0
  187.7450  178.0140  147.5510 C   0  0  0  0  0  1  0  0  0  0  0  0
  187.6980  177.8000  146.1720 O   0  0  0  0  0  0  0  0  0  0  0  0
  1  2  1  6  0  0  0
  1  8  1  0  0  0  0
  1  6  1  0  0  0  0
  4  7  1  0  0  0  0
  4  3  1  0  0  0  0
  5 28  1  1  0  0  0
  5  7  1  0  0  0  0
  6  4  2  0  0  0  0
  7  9  1  1  0  0  0
  8  5  1  0  0  0  0
 10 11  2  0  0  0  0
 10  6  1  0  0  0  0
 12 11  1  0  0  0  0
 12 16  1  1  0  0  0
 14 12  1  0  0  0  0
 14 13  1  0  0  0  0
 15 14  2  0  0  0  0
 16 17  1  0  0  0  0
 17 18  1  0  0  0  0
 18 19  1  6  0  0  0
 18 20  1  0  0  0  0
 20 21  1  0  0  0  0
 21 22  1  0  0  0  0
 22 26  1  0  0  0  0
 22 23  1  1  0  0  0
 24 26  1  0  0  0  0
 25 26  1  0  0  0  0
 26 27  1  0  0  0  0
 28 29  1  6  0  0  0
 28 42  1  0  0  0  0
 29 30  1  0  0  0  0
 31 30  1  0  0  0  0
 33 32  1  0  0  0  0
 34 33  2  0  0  0  0
 35 33  1  0  0  0  0
 35 31  1  0  0  0  0
 36 37  2  0  0  0  0
 36 38  1  0  0  0  0
 37 34  1  0  0  0  0
 38 35  2  0  0  0  0
 39 40  1  0  0  0  0
 40 38  1  0  0  0  0
 41 39  1  0  0  0  0
 41 40  1  0  0  0  0
 42 43  1  0  0  0  0
 43 44  1  0  0  0  0
 44 46  1  0  0  0  0
 45 49  1  0  0  0  0
 45 50  1  0  0  0  0
 46 47  2  0  0  0  0
 46 48  1  0  0  0  0
 47 51  1  0  0  0  0
 48 45  2  0  0  0  0
 51 53  1  1  0  0  0
 51 49  1  0  0  0  0
 53 52  1  0  0  0  0
M  END
>  <MODEL>
8

>  <REMARK>
 VINA RESULT:      -6.8      2.930      7.020
  Name = 
  21 active torsions:
  status: ('A' for Active; 'I' for Inactive)
    1  A    between atoms: N_6  and  C_13
    2  A    between atoms: N_6  and  C_44
    3  A    between atoms: C_11  and  C_13
    4  A    between atoms: C_11  and  N_27
    5  A    between atoms: C_11  and  C_42
    6  A    between atoms: C_12  and  C_41
    7  A    between atoms: C_14  and  C_26
    8  A    between atoms: C_14  and  O_40
    9  A    between atoms: O_20  and  C_32
   10  A    between atoms: O_20  and  N_34
   11  A    between atoms: C_21  and  C_32
   12  A    between atoms: N_22  and  C_25
   13  A    between atoms: N_28  and  N_34
   14  A    between atoms: N_28  and  C_38
   15  A    between atoms: C_32  and  O_45
   16  A    between atoms: C_36  and  C_41
   17  A    between atoms: C_36  and  O_45
   18  A    between atoms: C_37  and  O_43
   19  A    between atoms: O_40  and  C_48
   20  A    between atoms: C_44  and  C_48
   21  A    between atoms: C_49  and  C_52
                            x       y       z     vdW  Elec       q    Type
                         _______ _______ _______ _____ _____    ______ ____

>  <TORSDO>
F 21

$$$$
=
 OpenBabel10222417503D

 53 56  0  0  1  0  0  0  0  0999 V2000
  190.2220  176.2610  142.2710 C   0  0  1  0  0  3  0  0  0  0  0  0
  191.4990  176.0340  143.4950 Cl  0  0  0  0  0  0  0  0  0  0  0  0
  188.0940  179.2940  141.8390 F   0  0  0  0  0  0  0  0  0  0  0  0
  188.8770  178.2150  141.5760 C   0  0  0  0  0  0  0  0  0  0  0  0
  189.8610  176.5090  140.0430 C   0  0  2  0  0  3  0  0  0  0  0  0
  189.3470  177.4700  142.5870 C   0  0  0  0  0  0  0  0  0  0  0  0
  189.2070  177.8930  140.1430 C   0  0  1  0  0  3  0  0  0  0  0  0
  190.8610  176.4060  141.0240 O   0  0  0  0  0  0  0  0  0  0  0  0
  188.0360  177.9220  139.3840 O   0  0  0  0  0  1  0  0  0  0  0  0
  188.8630  177.7350  143.9110 N   0  0  0  0  0  0  0  0  0  0  0  0
  188.4730  176.8120  144.6910 N   0  0  0  0  0  0  0  0  0  0  0  0
  187.9820  177.1290  146.0250 C   0  0  1  0  0  3  0  0  0  0  0  0
  188.9450  178.2020  148.0610 O   0  0  0  0  0  1  0  0  0  0  0  0
  189.1140  177.3430  146.9830 C   0  0  0  0  0  0  0  0  0  0  0  0
  190.2270  176.7800  146.8010 O   0  0  0  0  0  0  0  0  0  0  0  0
  187.0520  178.3360  145.9840 C   0  0  0  0  0  2  0  0  0  0  0  0
  185.6570  177.9270  146.0290 N   0  0  0  0  0  2  0  0  0  0  0  0
  184.9430  178.7340  145.0510 C   0  0  1  0  0  3  0  0  0  0  0  0
  185.2800  180.0680  145.2000 F   0  0  0  0  0  0  0  0  0  0  0  0
  185.2760  178.2650  143.6450 C   0  0  0  0  0  2  0  0  0  0  0  0
  184.1750  178.4550  142.7920 O   0  0  0  0  0  0  0  0  0  0  0  0
  184.6240  178.4550  141.4510 C   0  0  2  0  0  3  0  0  0  0  0  0
  185.2830  179.6430  141.1090 O   0  0  0  0  0  1  0  0  0  0  0  0
  183.1150  176.7840  140.6150 F   0  0  0  0  0  0  0  0  0  0  0  0
  184.0190  178.2460  139.1520 F   0  0  0  0  0  0  0  0  0  0  0  0
  183.5330  178.0920  140.4380 C   0  0  0  0  0  0  0  0  0  0  0  0
  182.4510  178.9350  140.6140 F   0  0  0  0  0  0  0  0  0  0  0  0
  190.4840  176.2960  138.6530 C   0  0  1  0  0  3  0  0  0  0  0  0
  189.6070  176.6880  137.6300 O   0  0  0  0  0  0  0  0  0  0  0  0
  188.9310  175.5610  137.3080 N   0  0  0  0  0  2  0  0  0  0  0  0
  188.1810  175.8570  136.1640 N   0  0  0  0  0  2  0  0  0  0  0  0
  187.1120  178.5000  136.0630 C   0  0  0  0  0  1  0  0  0  0  0  0
  186.2170  177.3070  136.1070 C   0  0  0  0  0  0  0  0  0  0  0  0
  184.8730  177.5020  136.1320 N   0  0  0  0  0  0  0  0  0  0  0  0
  186.7490  176.0040  136.1440 C   0  0  0  0  0  0  0  0  0  0  0  0
  184.4710  175.1580  136.2130 C   0  0  0  0  0  3  0  0  0  0  0  0
  183.9990  176.4660  136.1870 C   0  0  0  0  0  3  0  0  0  0  0  0
  185.8510  174.9040  136.1710 C   0  0  0  0  0  0  0  0  0  0  0  0
  185.1520  172.5560  136.5140 C   0  0  0  0  0  2  0  0  0  0  0  0
  186.3250  173.4740  136.2120 C   0  0  0  0  0  3  0  0  0  0  0  0
  186.1690  172.8480  137.5910 C   0  0  0  0  0  2  0  0  0  0  0  0
  191.7470  176.9100  138.5090 O   0  0  0  0  0  0  0  0  0  0  0  0
  192.4180  176.3110  137.4270 C   0  0  0  0  0  2  0  0  0  0  0  0
  192.4810  174.8040  137.6180 C   0  0  0  0  0  2  0  0  0  0  0  0
  195.1560  172.5120  136.2290 C   0  0  0  0  0  0  0  0  0  0  0  0
  193.8390  174.2760  137.2890 C   0  0  0  0  0  0  0  0  0  0  0  0
  194.9070  175.0680  137.4290 C   0  0  0  0  0  3  0  0  0  0  0  0
  193.9960  172.9040  136.7660 C   0  0  0  0  0  3  0  0  0  0  0  0
  196.2810  173.4950  136.0410 C   0  0  0  0  0  2  0  0  0  0  0  0
  195.3010  171.1240  135.7190 C   0  0  0  0  0  1  0  0  0  0  0  0
  196.2930  174.5360  137.1680 C   0  0  1  0  0  3  0  0  0  0  0  0
  197.6490  175.2590  135.5750 C   0  0  0  0  0  1  0  0  0  0  0  0
  197.1540  175.5840  136.8400 O   0  0  0  0  0  0  0  0  0  0  0  0
  1  6  1  0  0  0  0
  1  2  1  1  0  0  0
  4  3  1  0  0  0  0
  4  6  2  0  0  0  0
  5 28  1  6  0  0  0
  5  7  1  0  0  0  0
  5  8  1  0  0  0  0
  6 10  1  0  0  0  0
  7  9  1  6  0  0  0
  7  4  1  0  0  0  0
  8  1  1  0  0  0  0
 10 11  2  0  0  0  0
 11 12  1  0  0  0  0
 12 16  1  6  0  0  0
 12 14  1  0  0  0  0
 14 13  1  0  0  0  0
 15 14  2  0  0  0  0
 16 17  1  0  0  0  0
 18 19  1  6  0  0  0
 18 17  1  0  0  0  0
 20 18  1  0  0  0  0
 21 20  1  0  0  0  0
 22 23  1  6  0  0  0
 22 21  1  0  0  0  0
 25 26  1  0  0  0  0
 26 27  1  0  0  0  0
 26 24  1  0  0  0  0
 26 22  1  0  0  0  0
 28 29  1  6  0  0  0
 30 29  1  0  0  0  0
 31 30  1  0  0  0  0
 32 33  1  0  0  0  0
 33 34  2  0  0  0  0
 33 35  1  0  0  0  0
 34 37  1  0  0  0  0
 35 31  1  0  0  0  0
 35 38  2  0  0  0  0
 37 36  2  0  0  0  0
 38 40  1  0  0  0  0
 38 36  1  0  0  0  0
 39 41  1  0  0  0  0
 40 39  1  0  0  0  0
 40 41  1  0  0  0  0
 42 28  1  0  0  0  0
 43 44  1  0  0  0  0
 43 42  1  0  0  0  0
 45 48  2  0  0  0  0
 46 47  2  0  0  0  0
 46 44  1  0  0  0  0
 48 46  1  0  0  0  0
 49 45  1  0  0  0  0
 49 51  1  0  0  0  0
 50 45  1  0  0  0  0
 51 53  1  6  0  0  0
 51 47  1  0  0  0  0
 52 53  1  0  0  0  0
M  END
>  <MODEL>
9

>  <REMARK>
 VINA RESULT:      -6.7      3.322      8.076
  Name = 
  21 active torsions:
  status: ('A' for Active; 'I' for Inactive)
    1  A    between atoms: N_6  and  C_13
    2  A    between atoms: N_6  and  C_44
    3  A    between atoms: C_11  and  C_13
    4  A    between atoms: C_11  and  N_27
    5  A    between atoms: C_11  and  C_42
    6  A    between atoms: C_12  and  C_41
    7  A    between atoms: C_14  and  C_26
    8  A    between atoms: C_14  and  O_40
    9  A    between atoms: O_20  and  C_32
   10  A    between atoms: O_20  and  N_34
   11  A    between atoms: C_21  and  C_32
   12  A    between atoms: N_22  and  C_25
   13  A    between atoms: N_28  and  N_34
   14  A    between atoms: N_28  and  C_38
   15  A    between atoms: C_32  and  O_45
   16  A    between atoms: C_36  and  C_41
   17  A    between atoms: C_36  and  O_45
   18  A    between atoms: C_37  and  O_43
   19  A    between atoms: O_40  and  C_48
   20  A    between atoms: C_44  and  C_48
   21  A    between atoms: C_49  and  C_52
                            x       y       z     vdW  Elec       q    Type
                         _______ _______ _______ _____ _____    ______ ____

>  <TORSDO>
F 21

$$$$
