=
 OpenBabel10222419523D

 50 54  0  0  1  0  0  0  0  0999 V2000
  190.3630  176.5690  137.8780 N   0  0  0  0  0  0  0  0  0  0  0  0
  189.5350  176.4300  141.5830 C   0  0  0  0  0  2  0  0  0  0  0  0
  189.1270  178.3410  139.8120 C   0  0  0  0  0  2  0  0  0  0  0  0
  189.1010  177.5260  142.5800 C   0  0  2  0  0  3  0  0  0  0  0  0
  190.2100  176.1740  139.2490 C   0  0  0  0  0  3  0  0  0  0  0  0
  187.9900  178.3750  142.0100 C   0  0  0  0  0  3  0  0  0  0  0  0
  187.9970  178.7480  140.7210 C   0  0  0  0  0  3  0  0  0  0  0  0
  189.6040  176.9430  140.1610 C   0  0  0  0  0  0  0  0  0  0  0  0
  190.3230  178.3550  142.9790 C   0  0  0  0  0  2  0  0  0  0  0  0
  190.4670  178.3730  144.4320 N   0  0  0  0  0  2  0  0  0  0  0  0
  190.2880  176.1490  145.4760 C   0  0  0  0  0  2  0  0  0  0  0  0
  190.4480  176.2670  146.9900 C   0  0  2  0  0  3  0  0  0  0  0  0
  188.9000  177.9780  146.2490 C   0  0  2  0  0  3  0  0  0  0  0  0
  189.5370  177.3920  145.0000 C   0  0  1  0  0  3  0  0  0  0  0  0
  189.2000  177.0240  147.4130 C   0  0  0  0  0  2  0  0  0  0  0  0
  187.4710  178.2850  146.0520 N   0  0  0  0  0  0  0  0  0  0  0  0
  186.8000  177.2310  145.2970 C   0  0  0  0  0  1  0  0  0  0  0  0
  186.8310  178.3680  147.3610 C   0  0  0  0  0  1  0  0  0  0  0  0
  192.4600  176.2290  147.9820 C   0  0  0  0  0  1  0  0  0  0  0  0
  191.5690  177.0600  147.2860 O   0  0  0  0  0  0  0  0  0  0  0  0
  188.7610  178.1000  136.7900 C   0  0  0  0  0  2  0  0  0  0  0  0
  187.7320  178.1560  135.6690 C   0  0  0  0  0  2  0  0  0  0  0  0
  186.7490  176.0730  136.6620 C   0  0  0  0  0  0  0  0  0  0  0  0
  189.2030  176.6500  136.9760 C   0  0  2  0  0  3  0  0  0  0  0  0
  188.0000  175.8170  137.4580 C   0  0  0  0  0  2  0  0  0  0  0  0
  186.6130  177.1770  135.8970 C   0  0  0  0  0  3  0  0  0  0  0  0
  183.1370  175.7670  136.3840 C   0  0  0  0  0  3  0  0  0  0  0  0
  185.6270  175.1410  136.8530 C   0  0  0  0  0  3  0  0  0  0  0  0
  184.3830  175.4620  136.6150 C   0  0  0  0  0  0  0  0  0  0  0  0
  182.1200  175.4850  137.4340 C   0  0  0  0  0  2  0  0  0  0  0  0
  182.5450  176.1270  138.7500 C   0  0  0  0  0  2  0  0  0  0  0  0
  180.6630  175.1340  139.8580 O   0  0  0  0  0  0  0  0  0  0  0  0
  181.1370  177.2840  140.5480 N   0  0  0  0  0  2  0  0  0  0  0  0
  181.4330  176.1290  139.7660 C   0  0  0  0  0  0  0  0  0  0  0  0
  185.0200  178.6690  138.7170 C   0  0  0  0  0  1  0  0  0  0  0  0
  181.9730  178.4670  140.7300 C   0  0  1  0  0  0  0  0  0  0  0  0
  183.4460  178.1290  140.5590 C   0  0  1  0  0  3  0  0  0  0  0  0
  181.6840  179.4450  139.6010 C   0  0  0  0  0  2  0  0  0  0  0  0
  183.9360  179.2160  139.6260 C   0  0  2  0  0  3  0  0  0  0  0  0
  182.8540  179.6540  138.8320 O   0  0  0  0  0  0  0  0  0  0  0  0
  184.2620  178.1680  141.8510 C   0  0  0  0  0  1  0  0  0  0  0  0
  181.6970  179.0770  141.9570 O   0  0  0  0  0  1  0  0  0  0  0  0
  192.9870  175.5050  135.5200 C   0  0  0  0  0  3  0  0  0  0  0  0
  194.1470  175.8990  136.1830 C   0  0  0  0  0  2  0  0  0  0  0  0
  191.6670  176.3550  137.2990 C   0  0  2  0  0  3  0  0  0  0  0  0
  191.7770  175.7360  136.0920 N   0  0  0  0  0  0  0  0  0  0  0  0
  192.8370  176.7590  137.9650 C   0  0  0  0  0  0  0  0  0  0  0  0
  194.0500  176.5170  137.3910 N   0  0  0  0  0  0  0  0  0  0  0  0
  193.5670  177.0980  140.2960 C   0  0  0  0  0  1  0  0  0  0  0  0
  192.7530  177.4280  139.1870 O   0  0  0  0  0  0  0  0  0  0  0  0
  1  5  1  0  0  0  0
  2  4  1  0  0  0  0
  3  8  1  0  0  0  0
  3  7  1  0  0  0  0
  4  9  1  6  0  0  0
  5  8  2  0  0  0  0
  6  4  1  0  0  0  0
  7  6  2  0  0  0  0
  8  2  1  0  0  0  0
  9 10  1  0  0  0  0
 11 12  1  0  0  0  0
 12 20  1  6  0  0  0
 12 15  1  0  0  0  0
 13 16  1  6  0  0  0
 13 15  1  0  0  0  0
 14 10  1  1  0  0  0
 14 11  1  0  0  0  0
 14 13  1  0  0  0  0
 16 18  1  0  0  0  0
 17 16  1  0  0  0  0
 20 19  1  0  0  0  0
 21 24  1  0  0  0  0
 22 26  1  0  0  0  0
 22 21  1  0  0  0  0
 23 28  1  0  0  0  0
 23 25  1  0  0  0  0
 24 25  1  0  0  0  0
 24  1  1  1  0  0  0
 26 23  2  0  0  0  0
 27 29  2  0  0  0  0
 27 30  1  0  0  0  0
 29 28  2  0  0  0  0
 30 31  1  0  0  0  0
 31 34  1  0  0  0  0
 33 36  1  0  0  0  0
 34 32  2  0  0  0  0
 34 33  1  0  0  0  0
 36 42  1  1  0  0  0
 37 36  1  0  0  0  0
 37 41  1  1  0  0  0
 38 36  1  0  0  0  0
 39 35  1  6  0  0  0
 39 37  1  0  0  0  0
 40 38  1  0  0  0  0
 40 39  1  0  0  0  0
 43 46  2  0  0  0  0
 43 44  1  0  0  0  0
 44 48  1  0  0  0  0
 45  1  1  1  0  0  0
 45 47  1  0  0  0  0
 46 45  1  0  0  0  0
 47 50  1  0  0  0  0
 48 47  2  0  0  0  0
 50 49  1  0  0  0  0
M  END
>  <MODEL>
1

>  <REMARK>
 VINA RESULT:      -7.2      0.000      0.000
  Name = 
  14 active torsions:
  status: ('A' for Active; 'I' for Inactive)
    1  A    between atoms: N_1  and  C_7
    2  A    between atoms: N_1  and  C_49
    3  A    between atoms: C_4  and  N_33
    4  A    between atoms: C_7  and  C_23
    5  A    between atoms: C_12  and  C_14
    6  A    between atoms: C_12  and  C_43
    7  A    between atoms: C_14  and  C_15
    8  A    between atoms: N_17  and  C_22
    9  A    between atoms: N_17  and  C_24
   10  A    between atoms: N_17  and  C_32
   11  A    between atoms: C_19  and  C_36
   12  A    between atoms: C_27  and  O_44
   13  A    between atoms: N_29  and  C_48
   14  A    between atoms: O_35  and  C_41
                            x       y       z     vdW  Elec       q    Type
                         _______ _______ _______ _____ _____    ______ ____

>  <TORSDO>
F 14

$$$$
=
 OpenBabel10222419523D

 50 54  0  0  1  0  0  0  0  0999 V2000
  187.5630  177.3060  144.8650 N   0  0  0  0  0  0  0  0  0  0  0  0
  190.4570  176.1700  142.6830 C   0  0  0  0  0  2  0  0  0  0  0  0
  189.8060  178.5780  143.5380 C   0  0  0  0  0  2  0  0  0  0  0  0
  191.4620  176.9600  141.8160 C   0  0  2  0  0  3  0  0  0  0  0  0
  188.4940  176.5380  144.0900 C   0  0  0  0  0  3  0  0  0  0  0  0
  192.0420  178.1270  142.5780 C   0  0  0  0  0  3  0  0  0  0  0  0
  191.2740  178.8760  143.3850 C   0  0  0  0  0  3  0  0  0  0  0  0
  189.5670  177.0800  143.5020 C   0  0  0  0  0  0  0  0  0  0  0  0
  190.7740  177.3920  140.5190 C   0  0  0  0  0  2  0  0  0  0  0  0
  190.6790  176.2620  139.6000 N   0  0  0  0  0  2  0  0  0  0  0  0
  191.0040  175.9140  137.1830 C   0  0  0  0  0  2  0  0  0  0  0  0
  189.9220  174.9850  136.6370 C   0  0  2  0  0  3  0  0  0  0  0  0
  188.8600  176.6570  138.0340 C   0  0  2  0  0  3  0  0  0  0  0  0
  190.3580  176.7780  138.2660 C   0  0  1  0  0  3  0  0  0  0  0  0
  188.6540  175.8130  136.7700 C   0  0  0  0  0  2  0  0  0  0  0  0
  188.1930  177.9720  138.0170 N   0  0  0  0  0  0  0  0  0  0  0  0
  188.9670  178.9510  137.2600 C   0  0  0  0  0  1  0  0  0  0  0  0
  186.8990  177.8260  137.3590 C   0  0  0  0  0  1  0  0  0  0  0  0
  188.9250  172.9820  136.8120 C   0  0  0  0  0  1  0  0  0  0  0  0
  189.8030  173.8580  137.4690 O   0  0  0  0  0  0  0  0  0  0  0  0
  185.2090  178.0490  144.8170 C   0  0  0  0  0  2  0  0  0  0  0  0
  184.3190  179.1700  144.3000 C   0  0  0  0  0  2  0  0  0  0  0  0
  185.3930  178.7980  142.0640 C   0  0  0  0  0  0  0  0  0  0  0  0
  186.6050  178.2180  144.2200 C   0  0  2  0  0  3  0  0  0  0  0  0
  186.5220  178.0290  142.6930 C   0  0  0  0  0  2  0  0  0  0  0  0
  184.3590  179.2600  142.7990 C   0  0  0  0  0  3  0  0  0  0  0  0
  183.2170  179.1850  139.1770 C   0  0  0  0  0  3  0  0  0  0  0  0
  185.3900  178.9120  140.5980 C   0  0  0  0  0  3  0  0  0  0  0  0
  184.2970  179.0490  139.8930 C   0  0  0  0  0  0  0  0  0  0  0  0
  183.0070  178.2800  138.0130 C   0  0  0  0  0  2  0  0  0  0  0  0
  183.3850  176.8530  138.3940 C   0  0  0  0  0  2  0  0  0  0  0  0
  181.1700  176.2270  139.0680 O   0  0  0  0  0  0  0  0  0  0  0  0
  182.2350  174.6560  137.7570 N   0  0  0  0  0  2  0  0  0  0  0  0
  182.1940  175.9300  138.3950 C   0  0  0  0  0  0  0  0  0  0  0  0
  183.5000  170.5570  136.3630 C   0  0  0  0  0  1  0  0  0  0  0  0
  183.2280  174.1780  136.7990 C   0  0  1  0  0  0  0  0  0  0  0  0
  183.8280  172.8540  137.2460 C   0  0  1  0  0  3  0  0  0  0  0  0
  182.5220  173.8430  135.4930 C   0  0  0  0  0  2  0  0  0  0  0  0
  183.7480  172.0070  135.9930 C   0  0  2  0  0  3  0  0  0  0  0  0
  182.6720  172.4650  135.2030 O   0  0  0  0  0  0  0  0  0  0  0  0
  185.2830  172.9380  137.7060 C   0  0  0  0  0  1  0  0  0  0  0  0
  184.1960  175.1590  136.5660 O   0  0  0  0  0  1  0  0  0  0  0  0
  187.4060  178.4950  148.3500 C   0  0  0  0  0  3  0  0  0  0  0  0
  188.6520  178.1140  148.8400 C   0  0  0  0  0  2  0  0  0  0  0  0
  187.9420  177.5680  146.2330 C   0  0  2  0  0  3  0  0  0  0  0  0
  187.0800  178.2190  147.0600 N   0  0  0  0  0  0  0  0  0  0  0  0
  189.1980  177.1770  146.7300 C   0  0  0  0  0  0  0  0  0  0  0  0
  189.5240  177.4640  148.0220 N   0  0  0  0  0  0  0  0  0  0  0  0
  191.4630  176.3460  146.2200 C   0  0  0  0  0  1  0  0  0  0  0  0
  190.0880  176.4760  145.9140 O   0  0  0  0  0  0  0  0  0  0  0  0
  2  8  1  0  0  0  0
  4  9  1  6  0  0  0
  4  6  1  0  0  0  0
  4  2  1  0  0  0  0
  5  1  1  0  0  0  0
  6  7  2  0  0  0  0
  7  3  1  0  0  0  0
  8  3  1  0  0  0  0
  8  5  2  0  0  0  0
 10  9  1  0  0  0  0
 11 14  1  0  0  0  0
 12 15  1  0  0  0  0
 12 11  1  0  0  0  0
 12 20  1  1  0  0  0
 13 16  1  6  0  0  0
 13 14  1  0  0  0  0
 14 10  1  1  0  0  0
 15 13  1  0  0  0  0
 17 16  1  0  0  0  0
 18 16  1  0  0  0  0
 19 20  1  0  0  0  0
 22 21  1  0  0  0  0
 23 25  1  0  0  0  0
 23 26  2  0  0  0  0
 24 21  1  0  0  0  0
 24  1  1  1  0  0  0
 25 24  1  0  0  0  0
 26 22  1  0  0  0  0
 27 29  2  0  0  0  0
 28 23  1  0  0  0  0
 29 28  2  0  0  0  0
 30 31  1  0  0  0  0
 30 27  1  0  0  0  0
 31 34  1  0  0  0  0
 33 34  1  0  0  0  0
 34 32  2  0  0  0  0
 36 42  1  6  0  0  0
 36 37  1  0  0  0  0
 36 33  1  0  0  0  0
 37 41  1  6  0  0  0
 38 36  1  0  0  0  0
 39 35  1  1  0  0  0
 39 37  1  0  0  0  0
 40 38  1  0  0  0  0
 40 39  1  0  0  0  0
 43 44  1  0  0  0  0
 45  1  1  6  0  0  0
 45 47  1  0  0  0  0
 45 46  1  0  0  0  0
 46 43  2  0  0  0  0
 47 48  2  0  0  0  0
 48 44  1  0  0  0  0
 50 49  1  0  0  0  0
 50 47  1  0  0  0  0
M  END
>  <MODEL>
2

>  <REMARK>
 VINA RESULT:      -7.1      2.273      7.662
  Name = 
  14 active torsions:
  status: ('A' for Active; 'I' for Inactive)
    1  A    between atoms: N_1  and  C_7
    2  A    between atoms: N_1  and  C_49
    3  A    between atoms: C_4  and  N_33
    4  A    between atoms: C_7  and  C_23
    5  A    between atoms: C_12  and  C_14
    6  A    between atoms: C_12  and  C_43
    7  A    between atoms: C_14  and  C_15
    8  A    between atoms: N_17  and  C_22
    9  A    between atoms: N_17  and  C_24
   10  A    between atoms: N_17  and  C_32
   11  A    between atoms: C_19  and  C_36
   12  A    between atoms: C_27  and  O_44
   13  A    between atoms: N_29  and  C_48
   14  A    between atoms: O_35  and  C_41
                            x       y       z     vdW  Elec       q    Type
                         _______ _______ _______ _____ _____    ______ ____

>  <TORSDO>
F 14

$$$$
=
 OpenBabel10222419523D

 50 54  0  0  1  0  0  0  0  0999 V2000
  190.1350  177.6420  146.0680 N   0  0  0  0  0  0  0  0  0  0  0  0
  190.5930  178.6240  142.4270 C   0  0  0  0  0  2  0  0  0  0  0  0
  188.9670  176.8640  143.5300 C   0  0  0  0  0  2  0  0  0  0  0  0
  190.0990  177.9720  141.1170 C   0  0  2  0  0  3  0  0  0  0  0  0
  190.5700  178.2440  144.8410 C   0  0  0  0  0  3  0  0  0  0  0  0
  188.6320  177.6250  141.1990 C   0  0  0  0  0  3  0  0  0  0  0  0
  188.1030  177.1170  142.3230 C   0  0  0  0  0  3  0  0  0  0  0  0
  190.0250  177.9460  143.6550 C   0  0  0  0  0  0  0  0  0  0  0  0
  190.9700  176.7540  140.8030 C   0  0  0  0  0  2  0  0  0  0  0  0
  190.4020  176.0040  139.6870 N   0  0  0  0  0  2  0  0  0  0  0  0
  191.9480  176.4560  137.8220 C   0  0  0  0  0  2  0  0  0  0  0  0
  191.6850  175.4820  136.6760 C   0  0  2  0  0  3  0  0  0  0  0  0
  189.5580  176.3620  137.4350 C   0  0  2  0  0  3  0  0  0  0  0  0
  190.5970  176.7830  138.4600 C   0  0  1  0  0  3  0  0  0  0  0  0
  190.3080  175.8920  136.1810 C   0  0  0  0  0  2  0  0  0  0  0  0
  188.5530  177.4160  137.1980 N   0  0  0  0  0  0  0  0  0  0  0  0
  189.0560  178.7280  137.5930 C   0  0  0  0  0  1  0  0  0  0  0  0
  188.2630  177.4660  135.7680 C   0  0  0  0  0  1  0  0  0  0  0  0
  191.5950  173.3270  136.0590 C   0  0  0  0  0  1  0  0  0  0  0  0
  191.6030  174.1720  137.1790 O   0  0  0  0  0  0  0  0  0  0  0  0
  188.6770  177.3060  148.0320 C   0  0  0  0  0  2  0  0  0  0  0  0
  187.5900  177.9930  148.8470 C   0  0  0  0  0  2  0  0  0  0  0  0
  186.4130  178.3970  146.6700 C   0  0  0  0  0  0  0  0  0  0  0  0
  188.9370  178.1290  146.7720 C   0  0  2  0  0  3  0  0  0  0  0  0
  187.6700  178.1140  145.8940 C   0  0  0  0  0  2  0  0  0  0  0  0
  186.3710  178.2770  148.0140 C   0  0  0  0  0  3  0  0  0  0  0  0
  184.9110  178.0690  143.3750 C   0  0  0  0  0  3  0  0  0  0  0  0
  185.1940  178.6810  145.8970 C   0  0  0  0  0  3  0  0  0  0  0  0
  185.0600  178.3700  144.6340 C   0  0  0  0  0  0  0  0  0  0  0  0
  184.4380  179.1210  142.4330 C   0  0  0  0  0  2  0  0  0  0  0  0
  183.7550  178.4720  141.2350 C   0  0  0  0  0  2  0  0  0  0  0  0
  185.5180  179.1890  139.7750 O   0  0  0  0  0  0  0  0  0  0  0  0
  183.4020  179.4290  138.8870 N   0  0  0  0  0  2  0  0  0  0  0  0
  184.2790  179.0030  139.9260 C   0  0  0  0  0  0  0  0  0  0  0  0
  179.7490  182.0620  138.6180 C   0  0  0  0  0  1  0  0  0  0  0  0
  181.9720  179.1610  138.7720 C   0  0  1  0  0  0  0  0  0  0  0  0
  181.1550  180.2160  139.5020 C   0  0  1  0  0  3  0  0  0  0  0  0
  181.5630  179.3180  137.3140 C   0  0  0  0  0  2  0  0  0  0  0  0
  180.1000  180.5930  138.4830 C   0  0  2  0  0  3  0  0  0  0  0  0
  180.6180  180.3660  137.1890 O   0  0  0  0  0  0  0  0  0  0  0  0
  180.4720  179.7230  140.7770 C   0  0  0  0  0  1  0  0  0  0  0  0
  181.6810  177.8620  139.1990 O   0  0  0  0  0  1  0  0  0  0  0  0
  192.4300  176.8100  148.8290 C   0  0  0  0  0  3  0  0  0  0  0  0
  193.1130  175.7120  148.3130 C   0  0  0  0  0  2  0  0  0  0  0  0
  191.1510  176.9640  146.8360 C   0  0  2  0  0  3  0  0  0  0  0  0
  191.4700  177.4140  148.0810 N   0  0  0  0  0  0  0  0  0  0  0  0
  191.8360  175.8510  146.3190 C   0  0  0  0  0  0  0  0  0  0  0  0
  192.8050  175.2540  147.0700 N   0  0  0  0  0  0  0  0  0  0  0  0
  192.3450  174.4600  144.3480 C   0  0  0  0  0  1  0  0  0  0  0  0
  191.5040  175.3460  145.0600 O   0  0  0  0  0  0  0  0  0  0  0  0
  2  8  1  0  0  0  0
  3  8  1  0  0  0  0
  4  9  1  1  0  0  0
  4  6  1  0  0  0  0
  4  2  1  0  0  0  0
  5  1  1  0  0  0  0
  6  7  2  0  0  0  0
  7  3  1  0  0  0  0
  8  5  2  0  0  0  0
 10  9  1  0  0  0  0
 11 14  1  0  0  0  0
 12 20  1  1  0  0  0
 12 11  1  0  0  0  0
 13 16  1  6  0  0  0
 13 14  1  0  0  0  0
 14 10  1  1  0  0  0
 15 12  1  0  0  0  0
 15 13  1  0  0  0  0
 16 17  1  0  0  0  0
 18 16  1  0  0  0  0
 19 20  1  0  0  0  0
 21 22  1  0  0  0  0
 23 26  2  0  0  0  0
 24  1  1  6  0  0  0
 24 21  1  0  0  0  0
 25 23  1  0  0  0  0
 25 24  1  0  0  0  0
 26 22  1  0  0  0  0
 27 29  2  0  0  0  0
 28 23  1  0  0  0  0
 29 28  2  0  0  0  0
 30 27  1  0  0  0  0
 31 30  1  0  0  0  0
 32 34  2  0  0  0  0
 33 34  1  0  0  0  0
 34 31  1  0  0  0  0
 36 33  1  0  0  0  0
 36 42  1  1  0  0  0
 36 37  1  0  0  0  0
 37 41  1  1  0  0  0
 38 36  1  0  0  0  0
 39 35  1  6  0  0  0
 39 37  1  0  0  0  0
 40 38  1  0  0  0  0
 40 39  1  0  0  0  0
 44 43  1  0  0  0  0
 45  1  1  6  0  0  0
 45 46  1  0  0  0  0
 46 43  2  0  0  0  0
 47 45  1  0  0  0  0
 47 48  2  0  0  0  0
 48 44  1  0  0  0  0
 49 50  1  0  0  0  0
 50 47  1  0  0  0  0
M  END
>  <MODEL>
3

>  <REMARK>
 VINA RESULT:      -7.0      2.254      7.934
  Name = 
  14 active torsions:
  status: ('A' for Active; 'I' for Inactive)
    1  A    between atoms: N_1  and  C_7
    2  A    between atoms: N_1  and  C_49
    3  A    between atoms: C_4  and  N_33
    4  A    between atoms: C_7  and  C_23
    5  A    between atoms: C_12  and  C_14
    6  A    between atoms: C_12  and  C_43
    7  A    between atoms: C_14  and  C_15
    8  A    between atoms: N_17  and  C_22
    9  A    between atoms: N_17  and  C_24
   10  A    between atoms: N_17  and  C_32
   11  A    between atoms: C_19  and  C_36
   12  A    between atoms: C_27  and  O_44
   13  A    between atoms: N_29  and  C_48
   14  A    between atoms: O_35  and  C_41
                            x       y       z     vdW  Elec       q    Type
                         _______ _______ _______ _____ _____    ______ ____

>  <TORSDO>
F 14

$$$$
=
 OpenBabel10222419523D

 50 54  0  0  1  0  0  0  0  0999 V2000
  181.8210  176.9470  137.6390 N   0  0  0  0  0  0  0  0  0  0  0  0
  185.1790  176.9010  135.8640 C   0  0  0  0  0  2  0  0  0  0  0  0
  184.1140  175.1730  137.5480 C   0  0  0  0  0  2  0  0  0  0  0  0
  186.4400  176.0350  136.0740 C   0  0  2  0  0  3  0  0  0  0  0  0
  182.9630  177.2590  136.8300 C   0  0  0  0  0  3  0  0  0  0  0  0
  186.0860  174.5710  136.1800 C   0  0  0  0  0  3  0  0  0  0  0  0
  185.0000  174.1700  136.8590 C   0  0  0  0  0  3  0  0  0  0  0  0
  184.0200  176.4450  136.7240 C   0  0  0  0  0  0  0  0  0  0  0  0
  187.2000  176.5430  137.3010 C   0  0  0  0  0  2  0  0  0  0  0  0
  188.3500  175.6850  137.5710 N   0  0  0  0  0  2  0  0  0  0  0  0
  189.2090  177.9470  138.0350 C   0  0  0  0  0  2  0  0  0  0  0  0
  189.5780  178.0740  139.5110 C   0  0  2  0  0  3  0  0  0  0  0  0
  190.4970  175.9950  138.6700 C   0  0  2  0  0  3  0  0  0  0  0  0
  189.5530  176.5220  137.6010 C   0  0  1  0  0  3  0  0  0  0  0  0
  190.7690  177.1410  139.6520 C   0  0  0  0  0  2  0  0  0  0  0  0
  191.7030  175.3760  138.0890 N   0  0  0  0  0  0  0  0  0  0  0  0
  191.4990  175.0290  136.6860 C   0  0  0  0  0  1  0  0  0  0  0  0
  192.7950  176.3420  138.1520 C   0  0  0  0  0  1  0  0  0  0  0  0
  188.2380  178.5850  141.2370 C   0  0  0  0  0  1  0  0  0  0  0  0
  188.5300  177.5770  140.3050 O   0  0  0  0  0  0  0  0  0  0  0  0
  180.7280  178.5410  139.1750 C   0  0  0  0  0  2  0  0  0  0  0  0
  180.4890  178.8040  140.6550 C   0  0  0  0  0  2  0  0  0  0  0  0
  182.9620  178.5160  140.9590 C   0  0  0  0  0  0  0  0  0  0  0  0
  181.7320  177.3990  139.0370 C   0  0  2  0  0  3  0  0  0  0  0  0
  183.0870  177.8500  139.6160 C   0  0  0  0  0  2  0  0  0  0  0  0
  181.7820  179.0050  141.3970 C   0  0  0  0  0  3  0  0  0  0  0  0
  184.4860  178.0690  144.2290 C   0  0  0  0  0  3  0  0  0  0  0  0
  184.2010  178.7330  141.7210 C   0  0  0  0  0  3  0  0  0  0  0  0
  184.3360  178.3970  142.9770 C   0  0  0  0  0  0  0  0  0  0  0  0
  185.0170  179.0850  145.1810 C   0  0  0  0  0  2  0  0  0  0  0  0
  185.3300  178.4240  146.5190 C   0  0  0  0  0  2  0  0  0  0  0  0
  185.9810  180.2760  147.8960 O   0  0  0  0  0  0  0  0  0  0  0  0
  187.7150  178.8590  147.3400 N   0  0  0  0  0  2  0  0  0  0  0  0
  186.3340  179.2110  147.3190 C   0  0  0  0  0  0  0  0  0  0  0  0
  191.0860  177.8440  144.5180 C   0  0  0  0  0  1  0  0  0  0  0  0
  188.3150  177.6050  146.8950 C   0  0  1  0  0  0  0  0  0  0  0  0
  188.7900  177.7050  145.4530 C   0  0  1  0  0  3  0  0  0  0  0  0
  189.5910  177.3670  147.6890 C   0  0  0  0  0  2  0  0  0  0  0  0
  190.1910  177.1370  145.5180 C   0  0  2  0  0  3  0  0  0  0  0  0
  190.7050  177.3450  146.8160 O   0  0  0  0  0  0  0  0  0  0  0  0
  187.9630  176.8970  144.4530 C   0  0  0  0  0  1  0  0  0  0  0  0
  187.4330  176.5410  147.1000 O   0  0  0  0  0  1  0  0  0  0  0  0
  180.1600  174.4300  135.5200 C   0  0  0  0  0  3  0  0  0  0  0  0
  179.6030  173.5770  136.4710 C   0  0  0  0  0  2  0  0  0  0  0  0
  181.0670  175.7800  137.2480 C   0  0  2  0  0  3  0  0  0  0  0  0
  180.8750  175.5110  135.9280 N   0  0  0  0  0  0  0  0  0  0  0  0
  180.5110  174.9150  138.2060 C   0  0  0  0  0  0  0  0  0  0  0  0
  179.7880  173.8360  137.7930 N   0  0  0  0  0  0  0  0  0  0  0  0
  179.8980  174.5920  140.5730 C   0  0  0  0  0  1  0  0  0  0  0  0
  180.7240  175.1450  139.5670 O   0  0  0  0  0  0  0  0  0  0  0  0
  2  4  1  0  0  0  0
  2  8  1  0  0  0  0
  4  6  1  0  0  0  0
  4  9  1  1  0  0  0
  5  1  1  0  0  0  0
  6  7  2  0  0  0  0
  7  3  1  0  0  0  0
  8  5  2  0  0  0  0
  8  3  1  0  0  0  0
  9 10  1  0  0  0  0
 11 12  1  0  0  0  0
 12 15  1  0  0  0  0
 12 20  1  1  0  0  0
 13 16  1  6  0  0  0
 13 15  1  0  0  0  0
 14 10  1  1  0  0  0
 14 11  1  0  0  0  0
 14 13  1  0  0  0  0
 16 18  1  0  0  0  0
 17 16  1  0  0  0  0
 20 19  1  0  0  0  0
 21 22  1  0  0  0  0
 22 26  1  0  0  0  0
 23 26  2  0  0  0  0
 23 28  1  0  0  0  0
 24  1  1  6  0  0  0
 24 21  1  0  0  0  0
 24 25  1  0  0  0  0
 25 23  1  0  0  0  0
 27 30  1  0  0  0  0
 28 29  2  0  0  0  0
 29 27  2  0  0  0  0
 30 31  1  0  0  0  0
 31 34  1  0  0  0  0
 34 33  1  0  0  0  0
 34 32  2  0  0  0  0
 36 42  1  1  0  0  0
 36 33  1  0  0  0  0
 36 38  1  0  0  0  0
 37 41  1  6  0  0  0
 37 39  1  0  0  0  0
 37 36  1  0  0  0  0
 39 35  1  6  0  0  0
 39 40  1  0  0  0  0
 40 38  1  0  0  0  0
 43 46  2  0  0  0  0
 43 44  1  0  0  0  0
 44 48  1  0  0  0  0
 45  1  1  1  0  0  0
 45 47  1  0  0  0  0
 46 45  1  0  0  0  0
 47 50  1  0  0  0  0
 48 47  2  0  0  0  0
 50 49  1  0  0  0  0
M  END
>  <MODEL>
4

>  <REMARK>
 VINA RESULT:      -7.0      2.128      9.133
  Name = 
  14 active torsions:
  status: ('A' for Active; 'I' for Inactive)
    1  A    between atoms: N_1  and  C_7
    2  A    between atoms: N_1  and  C_49
    3  A    between atoms: C_4  and  N_33
    4  A    between atoms: C_7  and  C_23
    5  A    between atoms: C_12  and  C_14
    6  A    between atoms: C_12  and  C_43
    7  A    between atoms: C_14  and  C_15
    8  A    between atoms: N_17  and  C_22
    9  A    between atoms: N_17  and  C_24
   10  A    between atoms: N_17  and  C_32
   11  A    between atoms: C_19  and  C_36
   12  A    between atoms: C_27  and  O_44
   13  A    between atoms: N_29  and  C_48
   14  A    between atoms: O_35  and  C_41
                            x       y       z     vdW  Elec       q    Type
                         _______ _______ _______ _____ _____    ______ ____

>  <TORSDO>
F 14

$$$$
=
 OpenBabel10222419523D

 50 54  0  0  1  0  0  0  0  0999 V2000
  190.1980  177.5680  146.1110 N   0  0  0  0  0  0  0  0  0  0  0  0
  190.5840  178.5070  142.4500 C   0  0  0  0  0  2  0  0  0  0  0  0
  188.9280  176.8160  143.6140 C   0  0  0  0  0  2  0  0  0  0  0  0
  190.0280  177.8650  141.1600 C   0  0  2  0  0  3  0  0  0  0  0  0
  190.6180  178.1440  144.8660 C   0  0  0  0  0  3  0  0  0  0  0  0
  188.5520  177.5730  141.2880 C   0  0  0  0  0  3  0  0  0  0  0  0
  188.0390  177.0920  142.4300 C   0  0  0  0  0  3  0  0  0  0  0  0
  190.0280  177.8590  143.6990 C   0  0  0  0  0  0  0  0  0  0  0  0
  190.8450  176.6140  140.8300 C   0  0  0  0  0  2  0  0  0  0  0  0
  190.3480  175.9990  139.6030 N   0  0  0  0  0  2  0  0  0  0  0  0
  191.9500  176.7350  137.8810 C   0  0  0  0  0  2  0  0  0  0  0  0
  191.7660  175.9120  136.6090 C   0  0  2  0  0  3  0  0  0  0  0  0
  189.5820  176.6230  137.3810 C   0  0  2  0  0  3  0  0  0  0  0  0
  190.5650  176.9360  138.4960 C   0  0  1  0  0  3  0  0  0  0  0  0
  190.3970  176.3420  136.1110 C   0  0  0  0  0  2  0  0  0  0  0  0
  188.5510  177.6680  137.2380 N   0  0  0  0  0  0  0  0  0  0  0  0
  189.0520  178.9700  137.6700 C   0  0  0  0  0  1  0  0  0  0  0  0
  188.1950  177.7780  135.8260 C   0  0  0  0  0  1  0  0  0  0  0  0
  193.0380  174.1420  137.1460 C   0  0  0  0  0  1  0  0  0  0  0  0
  191.7100  174.5460  136.9340 O   0  0  0  0  0  0  0  0  0  0  0  0
  188.6250  177.1290  147.9620 C   0  0  0  0  0  2  0  0  0  0  0  0
  187.5500  177.8020  148.8030 C   0  0  0  0  0  2  0  0  0  0  0  0
  186.5120  178.5280  146.6380 C   0  0  0  0  0  0  0  0  0  0  0  0
  189.0030  178.0630  146.8140 C   0  0  2  0  0  3  0  0  0  0  0  0
  187.7840  178.2380  145.8880 C   0  0  0  0  0  2  0  0  0  0  0  0
  186.3950  178.2650  147.9570 C   0  0  0  0  0  3  0  0  0  0  0  0
  184.8400  178.1530  143.4320 C   0  0  0  0  0  3  0  0  0  0  0  0
  185.3560  178.9840  145.8520 C   0  0  0  0  0  3  0  0  0  0  0  0
  185.1040  178.5620  144.6410 C   0  0  0  0  0  0  0  0  0  0  0  0
  184.5730  179.1640  142.3710 C   0  0  0  0  0  2  0  0  0  0  0  0
  183.6510  178.5710  141.3120 C   0  0  0  0  0  2  0  0  0  0  0  0
  185.2790  179.3750  139.7440 O   0  0  0  0  0  0  0  0  0  0  0  0
  183.4540  178.3550  138.7690 N   0  0  0  0  0  2  0  0  0  0  0  0
  184.1960  178.7530  139.9190 C   0  0  0  0  0  0  0  0  0  0  0  0
  182.0430  175.1480  135.9270 C   0  0  0  0  0  1  0  0  0  0  0  0
  182.2810  177.4860  138.7290 C   0  0  1  0  0  0  0  0  0  0  0  0
  181.8510  177.2100  137.2970 C   0  0  1  0  0  3  0  0  0  0  0  0
  182.6710  176.1180  139.2710 C   0  0  0  0  0  2  0  0  0  0  0  0
  181.6640  175.7070  137.2840 C   0  0  2  0  0  3  0  0  0  0  0  0
  182.5060  175.1370  138.2630 O   0  0  0  0  0  0  0  0  0  0  0  0
  180.5440  177.8850  136.8830 C   0  0  0  0  0  1  0  0  0  0  0  0
  181.2510  178.0200  139.5090 O   0  0  0  0  0  1  0  0  0  0  0  0
  192.4830  176.7770  148.8910 C   0  0  0  0  0  3  0  0  0  0  0  0
  193.2070  175.7060  148.3720 C   0  0  0  0  0  2  0  0  0  0  0  0
  191.2260  176.9130  146.8840 C   0  0  2  0  0  3  0  0  0  0  0  0
  191.5140  177.3580  148.1370 N   0  0  0  0  0  0  0  0  0  0  0  0
  191.9510  175.8280  146.3630 C   0  0  0  0  0  0  0  0  0  0  0  0
  192.9290  175.2530  147.1200 N   0  0  0  0  0  0  0  0  0  0  0  0
  192.2800  174.1780  144.5600 C   0  0  0  0  0  1  0  0  0  0  0  0
  191.6520  175.3270  145.0950 O   0  0  0  0  0  0  0  0  0  0  0  0
  2  8  1  0  0  0  0
  3  8  1  0  0  0  0
  4  9  1  1  0  0  0
  4  6  1  0  0  0  0
  4  2  1  0  0  0  0
  5  1  1  0  0  0  0
  6  7  2  0  0  0  0
  7  3  1  0  0  0  0
  8  5  2  0  0  0  0
 10  9  1  0  0  0  0
 11 14  1  0  0  0  0
 12 20  1  1  0  0  0
 12 11  1  0  0  0  0
 13 16  1  6  0  0  0
 13 14  1  0  0  0  0
 14 10  1  1  0  0  0
 15 12  1  0  0  0  0
 15 13  1  0  0  0  0
 16 17  1  0  0  0  0
 18 16  1  0  0  0  0
 20 19  1  0  0  0  0
 21 22  1  0  0  0  0
 23 26  2  0  0  0  0
 24  1  1  6  0  0  0
 24 21  1  0  0  0  0
 25 23  1  0  0  0  0
 25 24  1  0  0  0  0
 26 22  1  0  0  0  0
 27 29  2  0  0  0  0
 28 23  1  0  0  0  0
 29 28  2  0  0  0  0
 30 27  1  0  0  0  0
 31 30  1  0  0  0  0
 32 34  2  0  0  0  0
 33 34  1  0  0  0  0
 34 31  1  0  0  0  0
 36 33  1  0  0  0  0
 36 38  1  0  0  0  0
 36 42  1  1  0  0  0
 37 41  1  1  0  0  0
 37 36  1  0  0  0  0
 39 35  1  6  0  0  0
 39 37  1  0  0  0  0
 39 40  1  0  0  0  0
 40 38  1  0  0  0  0
 44 43  1  0  0  0  0
 45  1  1  6  0  0  0
 45 46  1  0  0  0  0
 46 43  2  0  0  0  0
 47 45  1  0  0  0  0
 47 48  2  0  0  0  0
 48 44  1  0  0  0  0
 49 50  1  0  0  0  0
 50 47  1  0  0  0  0
M  END
>  <MODEL>
5

>  <REMARK>
 VINA RESULT:      -7.0      1.955      7.955
  Name = 
  14 active torsions:
  status: ('A' for Active; 'I' for Inactive)
    1  A    between atoms: N_1  and  C_7
    2  A    between atoms: N_1  and  C_49
    3  A    between atoms: C_4  and  N_33
    4  A    between atoms: C_7  and  C_23
    5  A    between atoms: C_12  and  C_14
    6  A    between atoms: C_12  and  C_43
    7  A    between atoms: C_14  and  C_15
    8  A    between atoms: N_17  and  C_22
    9  A    between atoms: N_17  and  C_24
   10  A    between atoms: N_17  and  C_32
   11  A    between atoms: C_19  and  C_36
   12  A    between atoms: C_27  and  O_44
   13  A    between atoms: N_29  and  C_48
   14  A    between atoms: O_35  and  C_41
                            x       y       z     vdW  Elec       q    Type
                         _______ _______ _______ _____ _____    ______ ____

>  <TORSDO>
F 14

$$$$
=
 OpenBabel10222419523D

 50 54  0  0  1  0  0  0  0  0999 V2000
  182.9440  178.6610  139.6630 N   0  0  0  0  0  0  0  0  0  0  0  0
  182.7490  176.8580  136.3260 C   0  0  0  0  0  2  0  0  0  0  0  0
  182.4810  175.9370  138.7820 C   0  0  0  0  0  2  0  0  0  0  0  0
  182.7450  175.3550  135.9680 C   0  0  2  0  0  3  0  0  0  0  0  0
  182.9430  178.3270  138.2680 C   0  0  0  0  0  3  0  0  0  0  0  0
  181.7710  174.5900  136.8310 C   0  0  0  0  0  3  0  0  0  0  0  0
  181.6420  174.8650  138.1380 C   0  0  0  0  0  3  0  0  0  0  0  0
  182.6880  177.0920  137.8200 C   0  0  0  0  0  0  0  0  0  0  0  0
  184.1710  174.8110  136.0740 C   0  0  0  0  0  2  0  0  0  0  0  0
  185.1220  175.9120  136.2000 N   0  0  0  0  0  2  0  0  0  0  0  0
  186.9430  176.8790  134.8530 C   0  0  0  0  0  2  0  0  0  0  0  0
  188.1440  177.1920  135.7430 C   0  0  2  0  0  3  0  0  0  0  0  0
  187.3590  174.9620  136.2760 C   0  0  2  0  0  3  0  0  0  0  0  0
  186.3020  175.5990  135.3890 C   0  0  1  0  0  3  0  0  0  0  0  0
  188.6290  175.8170  136.1700 C   0  0  0  0  0  2  0  0  0  0  0  0
  187.5480  173.5300  135.9750 N   0  0  0  0  0  0  0  0  0  0  0  0
  187.9730  173.3300  134.5940 C   0  0  0  0  0  1  0  0  0  0  0  0
  188.6000  173.0100  136.8430 C   0  0  0  0  0  1  0  0  0  0  0  0
  188.5150  179.0350  136.9690 C   0  0  0  0  0  1  0  0  0  0  0  0
  187.7140  177.8850  136.8880 O   0  0  0  0  0  0  0  0  0  0  0  0
  183.8860  178.8670  141.9360 C   0  0  0  0  0  2  0  0  0  0  0  0
  184.9370  178.2610  142.8560 C   0  0  0  0  0  2  0  0  0  0  0  0
  186.5600  178.5740  140.9690 C   0  0  0  0  0  0  0  0  0  0  0  0
  184.0730  178.2930  140.5330 C   0  0  2  0  0  3  0  0  0  0  0  0
  185.4370  178.7500  139.9830 C   0  0  0  0  0  2  0  0  0  0  0  0
  186.3210  178.4140  142.2880 C   0  0  0  0  0  3  0  0  0  0  0  0
  189.7360  176.8350  140.6360 C   0  0  0  0  0  3  0  0  0  0  0  0
  187.9320  178.7140  140.4600 C   0  0  0  0  0  3  0  0  0  0  0  0
  188.8290  177.7680  140.5510 C   0  0  0  0  0  0  0  0  0  0  0  0
  191.0740  177.1800  141.1900 C   0  0  0  0  0  2  0  0  0  0  0  0
  190.9900  177.2990  142.7080 C   0  0  0  0  0  2  0  0  0  0  0  0
  190.3120  175.0020  142.8410 O   0  0  0  0  0  0  0  0  0  0  0  0
  189.2680  176.3830  144.3660 N   0  0  0  0  0  2  0  0  0  0  0  0
  190.2160  176.1630  143.3250 C   0  0  0  0  0  0  0  0  0  0  0  0
  187.9470  177.1200  148.6160 C   0  0  0  0  0  1  0  0  0  0  0  0
  189.1100  177.5850  145.1790 C   0  0  1  0  0  0  0  0  0  0  0  0
  187.9510  177.4400  146.1540 C   0  0  1  0  0  3  0  0  0  0  0  0
  190.3320  177.7290  146.0750 C   0  0  0  0  0  2  0  0  0  0  0  0
  188.5520  177.9010  147.4650 C   0  0  2  0  0  3  0  0  0  0  0  0
  189.9430  177.6610  147.4350 O   0  0  0  0  0  0  0  0  0  0  0  0
  186.7330  178.3040  145.8270 C   0  0  0  0  0  1  0  0  0  0  0  0
  188.9940  178.7150  144.3650 O   0  0  0  0  0  1  0  0  0  0  0  0
  179.8840  178.0120  141.6110 C   0  0  0  0  0  3  0  0  0  0  0  0
  179.1610  179.1850  141.4090 C   0  0  0  0  0  2  0  0  0  0  0  0
  181.6490  178.8560  140.2690 C   0  0  2  0  0  3  0  0  0  0  0  0
  181.1070  177.8710  141.0360 N   0  0  0  0  0  0  0  0  0  0  0  0
  180.9220  180.0420  140.0710 C   0  0  0  0  0  0  0  0  0  0  0  0
  179.6920  180.1760  140.6430 N   0  0  0  0  0  0  0  0  0  0  0  0
  180.8970  181.5320  138.1050 C   0  0  0  0  0  1  0  0  0  0  0  0
  181.4690  181.0840  139.3190 O   0  0  0  0  0  0  0  0  0  0  0  0
  2  8  1  0  0  0  0
  4  9  1  1  0  0  0
  4  2  1  0  0  0  0
  4  6  1  0  0  0  0
  5  1  1  0  0  0  0
  6  7  2  0  0  0  0
  7  3  1  0  0  0  0
  8  5  2  0  0  0  0
  8  3  1  0  0  0  0
  9 10  1  0  0  0  0
 11 14  1  0  0  0  0
 11 12  1  0  0  0  0
 12 15  1  0  0  0  0
 12 20  1  1  0  0  0
 13 16  1  6  0  0  0
 14 10  1  1  0  0  0
 14 13  1  0  0  0  0
 15 13  1  0  0  0  0
 16 18  1  0  0  0  0
 17 16  1  0  0  0  0
 20 19  1  0  0  0  0
 21 22  1  0  0  0  0
 23 26  2  0  0  0  0
 24  1  1  6  0  0  0
 24 21  1  0  0  0  0
 25 24  1  0  0  0  0
 25 23  1  0  0  0  0
 26 22  1  0  0  0  0
 27 30  1  0  0  0  0
 28 29  2  0  0  0  0
 28 23  1  0  0  0  0
 29 27  2  0  0  0  0
 30 31  1  0  0  0  0
 31 34  1  0  0  0  0
 32 34  2  0  0  0  0
 33 36  1  0  0  0  0
 34 33  1  0  0  0  0
 36 42  1  6  0  0  0
 36 38  1  0  0  0  0
 36 37  1  0  0  0  0
 37 41  1  6  0  0  0
 37 39  1  0  0  0  0
 38 40  1  0  0  0  0
 39 35  1  1  0  0  0
 40 39  1  0  0  0  0
 44 43  1  0  0  0  0
 45  1  1  6  0  0  0
 45 46  1  0  0  0  0
 46 43  2  0  0  0  0
 47 45  1  0  0  0  0
 47 48  2  0  0  0  0
 48 44  1  0  0  0  0
 49 50  1  0  0  0  0
 50 47  1  0  0  0  0
M  END
>  <MODEL>
6

>  <REMARK>
 VINA RESULT:      -6.9      2.573      9.928
  Name = 
  14 active torsions:
  status: ('A' for Active; 'I' for Inactive)
    1  A    between atoms: N_1  and  C_7
    2  A    between atoms: N_1  and  C_49
    3  A    between atoms: C_4  and  N_33
    4  A    between atoms: C_7  and  C_23
    5  A    between atoms: C_12  and  C_14
    6  A    between atoms: C_12  and  C_43
    7  A    between atoms: C_14  and  C_15
    8  A    between atoms: N_17  and  C_22
    9  A    between atoms: N_17  and  C_24
   10  A    between atoms: N_17  and  C_32
   11  A    between atoms: C_19  and  C_36
   12  A    between atoms: C_27  and  O_44
   13  A    between atoms: N_29  and  C_48
   14  A    between atoms: O_35  and  C_41
                            x       y       z     vdW  Elec       q    Type
                         _______ _______ _______ _____ _____    ______ ____

>  <TORSDO>
F 14

$$$$
=
 OpenBabel10222419523D

 50 54  0  0  1  0  0  0  0  0999 V2000
  190.0700  177.5860  146.1340 N   0  0  0  0  0  0  0  0  0  0  0  0
  190.3460  178.6210  142.4890 C   0  0  0  0  0  2  0  0  0  0  0  0
  188.7250  176.9010  143.6580 C   0  0  0  0  0  2  0  0  0  0  0  0
  189.7510  178.0130  141.2010 C   0  0  2  0  0  3  0  0  0  0  0  0
  190.4530  178.1960  144.8930 C   0  0  0  0  0  3  0  0  0  0  0  0
  188.2790  177.7180  141.3650 C   0  0  0  0  0  3  0  0  0  0  0  0
  187.8000  177.2080  142.5100 C   0  0  0  0  0  3  0  0  0  0  0  0
  189.8270  177.9410  143.7380 C   0  0  0  0  0  0  0  0  0  0  0  0
  190.5560  176.7710  140.8130 C   0  0  0  0  0  2  0  0  0  0  0  0
  191.2870  177.0130  139.5730 N   0  0  0  0  0  2  0  0  0  0  0  0
  189.5090  176.1280  138.1150 C   0  0  0  0  0  2  0  0  0  0  0  0
  189.5890  176.7800  136.7360 C   0  0  2  0  0  3  0  0  0  0  0  0
  191.8200  176.0900  137.3870 C   0  0  2  0  0  3  0  0  0  0  0  0
  190.9410  175.9540  138.6200 C   0  0  1  0  0  3  0  0  0  0  0  0
  190.8940  176.2410  136.1730 C   0  0  0  0  0  2  0  0  0  0  0  0
  192.8050  174.9970  137.2830 N   0  0  0  0  0  0  0  0  0  0  0  0
  192.2500  173.8470  136.5770 C   0  0  0  0  0  1  0  0  0  0  0  0
  193.9500  175.4780  136.5160 C   0  0  0  0  0  1  0  0  0  0  0  0
  188.4810  178.6200  137.3860 C   0  0  0  0  0  1  0  0  0  0  0  0
  189.7110  178.1720  136.8790 O   0  0  0  0  0  0  0  0  0  0  0  0
  188.5770  177.1250  148.0450 C   0  0  0  0  0  2  0  0  0  0  0  0
  187.5390  177.7870  148.9390 C   0  0  0  0  0  2  0  0  0  0  0  0
  186.4100  178.5370  146.8290 C   0  0  0  0  0  0  0  0  0  0  0  0
  188.9070  178.0720  146.8930 C   0  0  2  0  0  3  0  0  0  0  0  0
  187.6490  178.2580  146.0230 C   0  0  0  0  0  2  0  0  0  0  0  0
  186.3500  178.2600  148.1490 C   0  0  0  0  0  3  0  0  0  0  0  0
  184.6220  178.2270  143.6790 C   0  0  0  0  0  3  0  0  0  0  0  0
  185.2220  179.0020  146.0980 C   0  0  0  0  0  3  0  0  0  0  0  0
  184.9270  178.6090  144.8870 C   0  0  0  0  0  0  0  0  0  0  0  0
  184.3070  179.2620  142.6550 C   0  0  0  0  0  2  0  0  0  0  0  0
  183.5730  178.6210  141.4820 C   0  0  0  0  0  2  0  0  0  0  0  0
  185.3800  179.3750  140.0970 O   0  0  0  0  0  0  0  0  0  0  0  0
  183.3860  179.0910  138.9730 N   0  0  0  0  0  2  0  0  0  0  0  0
  184.1760  179.0050  140.1570 C   0  0  0  0  0  0  0  0  0  0  0  0
  180.0540  177.8770  141.7620 C   0  0  0  0  0  1  0  0  0  0  0  0
  182.0400  178.5640  138.7680 C   0  0  1  0  0  0  0  0  0  0  0  0
  181.6510  177.6030  139.8810 C   0  0  1  0  0  3  0  0  0  0  0  0
  181.0450  179.7080  138.9010 C   0  0  0  0  0  2  0  0  0  0  0  0
  180.2700  178.0830  140.2750 C   0  0  2  0  0  3  0  0  0  0  0  0
  180.1690  179.4610  139.9860 O   0  0  0  0  0  0  0  0  0  0  0  0
  181.5740  176.1360  139.4580 C   0  0  0  0  0  1  0  0  0  0  0  0
  181.9260  177.9930  137.4970 O   0  0  0  0  0  1  0  0  0  0  0  0
  192.5410  176.7740  148.7450 C   0  0  0  0  0  3  0  0  0  0  0  0
  193.1390  175.6270  148.2280 C   0  0  0  0  0  2  0  0  0  0  0  0
  191.1170  176.8990  146.8510 C   0  0  2  0  0  3  0  0  0  0  0  0
  191.5490  177.3860  148.0460 N   0  0  0  0  0  0  0  0  0  0  0  0
  191.7150  175.7380  146.3330 C   0  0  0  0  0  0  0  0  0  0  0  0
  192.7160  175.1320  147.0330 N   0  0  0  0  0  0  0  0  0  0  0  0
  192.0540  175.1910  143.9520 C   0  0  0  0  0  1  0  0  0  0  0  0
  191.2670  175.1950  145.1270 O   0  0  0  0  0  0  0  0  0  0  0  0
  2  8  1  0  0  0  0
  3  8  1  0  0  0  0
  4  9  1  1  0  0  0
  4  6  1  0  0  0  0
  4  2  1  0  0  0  0
  5  1  1  0  0  0  0
  6  7  2  0  0  0  0
  7  3  1  0  0  0  0
  8  5  2  0  0  0  0
 10  9  1  0  0  0  0
 11 14  1  0  0  0  0
 12 20  1  1  0  0  0
 12 11  1  0  0  0  0
 13 16  1  6  0  0  0
 13 14  1  0  0  0  0
 14 10  1  1  0  0  0
 15 12  1  0  0  0  0
 15 13  1  0  0  0  0
 17 16  1  0  0  0  0
 18 16  1  0  0  0  0
 20 19  1  0  0  0  0
 21 22  1  0  0  0  0
 23 26  2  0  0  0  0
 24  1  1  6  0  0  0
 24 21  1  0  0  0  0
 25 23  1  0  0  0  0
 25 24  1  0  0  0  0
 26 22  1  0  0  0  0
 27 29  2  0  0  0  0
 28 23  1  0  0  0  0
 29 28  2  0  0  0  0
 30 27  1  0  0  0  0
 31 30  1  0  0  0  0
 32 34  2  0  0  0  0
 33 34  1  0  0  0  0
 34 31  1  0  0  0  0
 36 42  1  6  0  0  0
 36 38  1  0  0  0  0
 36 33  1  0  0  0  0
 36 37  1  0  0  0  0
 37 41  1  6  0  0  0
 37 39  1  0  0  0  0
 38 40  1  0  0  0  0
 39 35  1  1  0  0  0
 40 39  1  0  0  0  0
 44 43  1  0  0  0  0
 45  1  1  6  0  0  0
 45 46  1  0  0  0  0
 46 43  2  0  0  0  0
 47 45  1  0  0  0  0
 47 48  2  0  0  0  0
 48 44  1  0  0  0  0
 49 50  1  0  0  0  0
 50 47  1  0  0  0  0
M  END
>  <MODEL>
7

>  <REMARK>
 VINA RESULT:      -6.8      2.009      8.097
  Name = 
  14 active torsions:
  status: ('A' for Active; 'I' for Inactive)
    1  A    between atoms: N_1  and  C_7
    2  A    between atoms: N_1  and  C_49
    3  A    between atoms: C_4  and  N_33
    4  A    between atoms: C_7  and  C_23
    5  A    between atoms: C_12  and  C_14
    6  A    between atoms: C_12  and  C_43
    7  A    between atoms: C_14  and  C_15
    8  A    between atoms: N_17  and  C_22
    9  A    between atoms: N_17  and  C_24
   10  A    between atoms: N_17  and  C_32
   11  A    between atoms: C_19  and  C_36
   12  A    between atoms: C_27  and  O_44
   13  A    between atoms: N_29  and  C_48
   14  A    between atoms: O_35  and  C_41
                            x       y       z     vdW  Elec       q    Type
                         _______ _______ _______ _____ _____    ______ ____

>  <TORSDO>
F 14

$$$$
=
 OpenBabel10222419523D

 50 54  0  0  1  0  0  0  0  0999 V2000
  188.5090  177.8770  142.0310 N   0  0  0  0  0  0  0  0  0  0  0  0
  189.0880  179.0160  138.4530 C   0  0  0  0  0  2  0  0  0  0  0  0
  188.0870  176.7620  139.3870 C   0  0  0  0  0  2  0  0  0  0  0  0
  189.0620  178.2480  137.1140 C   0  0  2  0  0  3  0  0  0  0  0  0
  188.8620  178.6170  140.8530 C   0  0  0  0  0  3  0  0  0  0  0  0
  187.8310  177.3810  137.0050 C   0  0  0  0  0  3  0  0  0  0  0  0
  187.3730  176.6960  138.0630 C   0  0  0  0  0  3  0  0  0  0  0  0
  188.6410  178.1570  139.6160 C   0  0  0  0  0  0  0  0  0  0  0  0
  190.3570  177.4460  136.9700 C   0  0  0  0  0  2  0  0  0  0  0  0
  190.1830  176.3840  135.9840 N   0  0  0  0  0  2  0  0  0  0  0  0
  189.9670  174.2590  137.2120 C   0  0  0  0  0  2  0  0  0  0  0  0
  189.5700  173.1380  136.2540 C   0  0  2  0  0  3  0  0  0  0  0  0
  191.3800  174.3990  135.2480 C   0  0  2  0  0  3  0  0  0  0  0  0
  190.9050  175.1970  136.4510 C   0  0  1  0  0  3  0  0  0  0  0  0
  190.7980  172.9840  135.3720 C   0  0  0  0  0  2  0  0  0  0  0  0
  192.8450  174.4550  135.0870 N   0  0  0  0  0  0  0  0  0  0  0  0
  193.2830  175.7870  134.6810 C   0  0  0  0  0  1  0  0  0  0  0  0
  193.4640  174.1590  136.3750 C   0  0  0  0  0  1  0  0  0  0  0  0
  187.3390  173.3770  136.2200 C   0  0  0  0  0  1  0  0  0  0  0  0
  188.4980  173.5620  135.4500 O   0  0  0  0  0  0  0  0  0  0  0  0
  187.2130  177.3390  144.0620 C   0  0  0  0  0  2  0  0  0  0  0  0
  186.1770  177.9250  145.0100 C   0  0  0  0  0  2  0  0  0  0  0  0
  184.8280  178.4720  142.9680 C   0  0  0  0  0  0  0  0  0  0  0  0
  187.3580  178.2700  142.8590 C   0  0  2  0  0  3  0  0  0  0  0  0
  186.0290  178.2910  142.0800 C   0  0  0  0  0  2  0  0  0  0  0  0
  184.8910  178.2420  144.2970 C   0  0  0  0  0  3  0  0  0  0  0  0
  181.3090  179.1190  143.6130 C   0  0  0  0  0  3  0  0  0  0  0  0
  183.5480  178.7830  142.3140 C   0  0  0  0  0  3  0  0  0  0  0  0
  182.4310  178.9510  142.9720 C   0  0  0  0  0  0  0  0  0  0  0  0
  180.1030  178.3690  143.1640 C   0  0  0  0  0  2  0  0  0  0  0  0
  179.9850  178.4420  141.6460 C   0  0  0  0  0  2  0  0  0  0  0  0
  179.3040  176.1430  141.7100 O   0  0  0  0  0  0  0  0  0  0  0  0
  180.2740  176.7840  139.7170 N   0  0  0  0  0  2  0  0  0  0  0  0
  179.7940  177.0820  141.0260 C   0  0  0  0  0  0  0  0  0  0  0  0
  184.2870  178.5080  138.5890 C   0  0  0  0  0  1  0  0  0  0  0  0
  180.7140  177.7330  138.6990 C   0  0  1  0  0  0  0  0  0  0  0  0
  181.8810  178.5710  139.1980 C   0  0  1  0  0  3  0  0  0  0  0  0
  181.2920  176.9540  137.5260 C   0  0  0  0  0  2  0  0  0  0  0  0
  182.8690  178.4920  138.0530 C   0  0  2  0  0  3  0  0  0  0  0  0
  182.6590  177.2820  137.3560 O   0  0  0  0  0  0  0  0  0  0  0  0
  181.5410  180.0370  139.4700 C   0  0  0  0  0  1  0  0  0  0  0  0
  179.6400  178.5100  138.2570 O   0  0  0  0  0  1  0  0  0  0  0  0
  190.5210  175.0280  143.2210 C   0  0  0  0  0  3  0  0  0  0  0  0
  191.5790  175.6710  143.8590 C   0  0  0  0  0  2  0  0  0  0  0  0
  189.5750  177.1290  142.6510 C   0  0  2  0  0  3  0  0  0  0  0  0
  189.5430  175.7680  142.6360 N   0  0  0  0  0  0  0  0  0  0  0  0
  190.6470  177.7770  143.2890 C   0  0  0  0  0  0  0  0  0  0  0  0
  191.6220  177.0300  143.8820 N   0  0  0  0  0  0  0  0  0  0  0  0
  191.3030  179.9040  144.3510 C   0  0  0  0  0  1  0  0  0  0  0  0
  190.7250  179.1710  143.2880 O   0  0  0  0  0  0  0  0  0  0  0  0
  2  8  1  0  0  0  0
  3  8  1  0  0  0  0
  4  9  1  1  0  0  0
  4  2  1  0  0  0  0
  5  1  1  0  0  0  0
  6  4  1  0  0  0  0
  6  7  2  0  0  0  0
  7  3  1  0  0  0  0
  8  5  2  0  0  0  0
 10  9  1  0  0  0  0
 12 20  1  6  0  0  0
 12 11  1  0  0  0  0
 13 16  1  1  0  0  0
 13 15  1  0  0  0  0
 13 14  1  0  0  0  0
 14 10  1  6  0  0  0
 14 11  1  0  0  0  0
 15 12  1  0  0  0  0
 16 18  1  0  0  0  0
 17 16  1  0  0  0  0
 20 19  1  0  0  0  0
 21 22  1  0  0  0  0
 23 26  2  0  0  0  0
 24  1  1  6  0  0  0
 24 21  1  0  0  0  0
 25 24  1  0  0  0  0
 25 23  1  0  0  0  0
 26 22  1  0  0  0  0
 28 23  1  0  0  0  0
 28 29  2  0  0  0  0
 29 27  2  0  0  0  0
 30 27  1  0  0  0  0
 31 30  1  0  0  0  0
 33 34  1  0  0  0  0
 34 31  1  0  0  0  0
 34 32  2  0  0  0  0
 36 42  1  6  0  0  0
 36 37  1  0  0  0  0
 36 33  1  0  0  0  0
 37 41  1  6  0  0  0
 38 36  1  0  0  0  0
 39 35  1  1  0  0  0
 39 37  1  0  0  0  0
 40 38  1  0  0  0  0
 40 39  1  0  0  0  0
 43 44  1  0  0  0  0
 44 48  1  0  0  0  0
 45  1  1  1  0  0  0
 45 47  1  0  0  0  0
 46 45  1  0  0  0  0
 46 43  2  0  0  0  0
 47 48  2  0  0  0  0
 50 47  1  0  0  0  0
 50 49  1  0  0  0  0
M  END
>  <MODEL>
8

>  <REMARK>
 VINA RESULT:      -6.8      2.384      7.298
  Name = 
  14 active torsions:
  status: ('A' for Active; 'I' for Inactive)
    1  A    between atoms: N_1  and  C_7
    2  A    between atoms: N_1  and  C_49
    3  A    between atoms: C_4  and  N_33
    4  A    between atoms: C_7  and  C_23
    5  A    between atoms: C_12  and  C_14
    6  A    between atoms: C_12  and  C_43
    7  A    between atoms: C_14  and  C_15
    8  A    between atoms: N_17  and  C_22
    9  A    between atoms: N_17  and  C_24
   10  A    between atoms: N_17  and  C_32
   11  A    between atoms: C_19  and  C_36
   12  A    between atoms: C_27  and  O_44
   13  A    between atoms: N_29  and  C_48
   14  A    between atoms: O_35  and  C_41
                            x       y       z     vdW  Elec       q    Type
                         _______ _______ _______ _____ _____    ______ ____

>  <TORSDO>
F 14

$$$$
=
 OpenBabel10222419523D

 50 54  0  0  1  0  0  0  0  0999 V2000
  182.7420  178.7710  139.5170 N   0  0  0  0  0  0  0  0  0  0  0  0
  183.0480  177.3720  135.9980 C   0  0  0  0  0  2  0  0  0  0  0  0
  183.4260  176.2120  138.3360 C   0  0  0  0  0  2  0  0  0  0  0  0
  183.6630  176.0600  135.4640 C   0  0  2  0  0  3  0  0  0  0  0  0
  182.7610  178.5970  138.0930 C   0  0  0  0  0  3  0  0  0  0  0  0
  183.1970  174.8710  136.2680 C   0  0  0  0  0  3  0  0  0  0  0  0
  183.0790  174.9430  137.6030 C   0  0  0  0  0  3  0  0  0  0  0  0
  183.0250  177.4210  137.5100 C   0  0  0  0  0  0  0  0  0  0  0  0
  185.1870  176.1920  135.4450 C   0  0  0  0  0  2  0  0  0  0  0  0
  185.8000  174.8920  135.1860 N   0  0  0  0  0  2  0  0  0  0  0  0
  186.4230  173.4230  137.0640 C   0  0  0  0  0  2  0  0  0  0  0  0
  187.2470  172.2430  136.5540 C   0  0  2  0  0  3  0  0  0  0  0  0
  188.1220  174.2730  135.5600 C   0  0  2  0  0  3  0  0  0  0  0  0
  186.8050  174.6420  136.2240 C   0  0  1  0  0  3  0  0  0  0  0  0
  188.5390  172.8960  136.0930 C   0  0  0  0  0  2  0  0  0  0  0  0
  189.1370  175.3320  135.7140 N   0  0  0  0  0  0  0  0  0  0  0  0
  188.7370  176.5560  135.0270 C   0  0  0  0  0  1  0  0  0  0  0  0
  189.2690  175.6440  137.1340 C   0  0  0  0  0  1  0  0  0  0  0  0
  185.2810  171.4580  135.8120 C   0  0  0  0  0  1  0  0  0  0  0  0
  186.6160  171.6740  135.4350 O   0  0  0  0  0  0  0  0  0  0  0  0
  183.7490  178.9090  141.7660 C   0  0  0  0  0  2  0  0  0  0  0  0
  184.8030  178.2530  142.6470 C   0  0  0  0  0  2  0  0  0  0  0  0
  186.3860  178.5420  140.7230 C   0  0  0  0  0  0  0  0  0  0  0  0
  183.8800  178.3510  140.3500 C   0  0  2  0  0  3  0  0  0  0  0  0
  185.2440  178.7720  139.7700 C   0  0  0  0  0  2  0  0  0  0  0  0
  186.1770  178.3690  142.0450 C   0  0  0  0  0  3  0  0  0  0  0  0
  189.6320  176.9060  140.6680 C   0  0  0  0  0  3  0  0  0  0  0  0
  187.7480  178.6450  140.1780 C   0  0  0  0  0  3  0  0  0  0  0  0
  188.6860  177.7690  140.4270 C   0  0  0  0  0  0  0  0  0  0  0  0
  190.9570  177.4000  141.1330 C   0  0  0  0  0  2  0  0  0  0  0  0
  190.9920  177.4270  142.6570 C   0  0  0  0  0  2  0  0  0  0  0  0
  190.5560  175.0740  142.8200 O   0  0  0  0  0  0  0  0  0  0  0  0
  189.2790  176.3700  144.2390 N   0  0  0  0  0  2  0  0  0  0  0  0
  190.3070  176.2290  143.2620 C   0  0  0  0  0  0  0  0  0  0  0  0
  187.9810  177.0830  148.5000 C   0  0  0  0  0  1  0  0  0  0  0  0
  188.9450  177.5670  145.0050 C   0  0  1  0  0  0  0  0  0  0  0  0
  187.8570  177.2780  146.0280 C   0  0  1  0  0  3  0  0  0  0  0  0
  190.1510  177.9580  145.8460 C   0  0  0  0  0  2  0  0  0  0  0  0
  188.4110  177.8960  147.2940 C   0  0  2  0  0  3  0  0  0  0  0  0
  189.8210  177.8920  147.2220 O   0  0  0  0  0  0  0  0  0  0  0  0
  186.5010  177.9070  145.7100 C   0  0  0  0  0  1  0  0  0  0  0  0
  188.6140  178.6200  144.1470 O   0  0  0  0  0  1  0  0  0  0  0  0
  179.6440  177.7550  141.2340 C   0  0  0  0  0  3  0  0  0  0  0  0
  178.9310  178.9500  141.2710 C   0  0  0  0  0  2  0  0  0  0  0  0
  181.4370  178.8460  140.1280 C   0  0  2  0  0  3  0  0  0  0  0  0
  180.8760  177.7270  140.6620 N   0  0  0  0  0  0  0  0  0  0  0  0
  180.7200  180.0540  140.1720 C   0  0  0  0  0  0  0  0  0  0  0  0
  179.4800  180.0750  140.7400 N   0  0  0  0  0  0  0  0  0  0  0  0
  180.8720  181.8070  138.4440 C   0  0  0  0  0  1  0  0  0  0  0  0
  181.2860  181.2250  139.6650 O   0  0  0  0  0  0  0  0  0  0  0  0
  2  8  1  0  0  0  0
  4  9  1  1  0  0  0
  4  2  1  0  0  0  0
  4  6  1  0  0  0  0
  5  1  1  0  0  0  0
  6  7  2  0  0  0  0
  7  3  1  0  0  0  0
  8  5  2  0  0  0  0
  8  3  1  0  0  0  0
 10  9  1  0  0  0  0
 12 20  1  6  0  0  0
 12 11  1  0  0  0  0
 13 16  1  1  0  0  0
 13 15  1  0  0  0  0
 13 14  1  0  0  0  0
 14 10  1  6  0  0  0
 14 11  1  0  0  0  0
 15 12  1  0  0  0  0
 16 18  1  0  0  0  0
 17 16  1  0  0  0  0
 20 19  1  0  0  0  0
 21 22  1  0  0  0  0
 23 26  2  0  0  0  0
 24  1  1  6  0  0  0
 24 21  1  0  0  0  0
 25 24  1  0  0  0  0
 25 23  1  0  0  0  0
 26 22  1  0  0  0  0
 27 30  1  0  0  0  0
 28 29  2  0  0  0  0
 28 23  1  0  0  0  0
 29 27  2  0  0  0  0
 30 31  1  0  0  0  0
 31 34  1  0  0  0  0
 32 34  2  0  0  0  0
 33 36  1  0  0  0  0
 34 33  1  0  0  0  0
 36 42  1  6  0  0  0
 36 38  1  0  0  0  0
 36 37  1  0  0  0  0
 37 41  1  6  0  0  0
 37 39  1  0  0  0  0
 38 40  1  0  0  0  0
 39 35  1  1  0  0  0
 40 39  1  0  0  0  0
 43 44  1  0  0  0  0
 45  1  1  6  0  0  0
 45 47  1  0  0  0  0
 45 46  1  0  0  0  0
 46 43  2  0  0  0  0
 47 48  2  0  0  0  0
 48 44  1  0  0  0  0
 49 50  1  0  0  0  0
 50 47  1  0  0  0  0
M  END
>  <MODEL>
9

>  <REMARK>
 VINA RESULT:      -6.6      2.466      9.970
  Name = 
  14 active torsions:
  status: ('A' for Active; 'I' for Inactive)
    1  A    between atoms: N_1  and  C_7
    2  A    between atoms: N_1  and  C_49
    3  A    between atoms: C_4  and  N_33
    4  A    between atoms: C_7  and  C_23
    5  A    between atoms: C_12  and  C_14
    6  A    between atoms: C_12  and  C_43
    7  A    between atoms: C_14  and  C_15
    8  A    between atoms: N_17  and  C_22
    9  A    between atoms: N_17  and  C_24
   10  A    between atoms: N_17  and  C_32
   11  A    between atoms: C_19  and  C_36
   12  A    between atoms: C_27  and  O_44
   13  A    between atoms: N_29  and  C_48
   14  A    between atoms: O_35  and  C_41
                            x       y       z     vdW  Elec       q    Type
                         _______ _______ _______ _____ _____    ______ ____

>  <TORSDO>
F 14

$$$$
