=
 OpenBabel10222416103D

 26 27  0  0  1  0  0  0  0  0999 V2000
  190.5650  177.5480  145.4340 C   0  0  0  0  0  0  0  0  0  0  0  0
  189.4350  177.1480  146.0390 C   0  0  0  0  0  3  0  0  0  0  0  0
  184.4050  178.3400  142.7330 C   0  0  0  0  0  3  0  0  0  0  0  0
  185.7240  177.9410  142.9700 C   0  0  0  0  0  3  0  0  0  0  0  0
  183.6040  178.7840  143.7960 C   0  0  0  0  0  0  0  0  0  0  0  0
  182.1990  179.1940  143.5400 C   0  0  0  0  0  1  0  0  0  0  0  0
  186.2420  177.9740  144.2710 C   0  0  0  0  0  0  0  0  0  0  0  0
  188.0480  177.5730  145.7680 C   0  0  0  0  0  0  0  0  0  0  0  0
  185.4280  178.4010  145.3400 C   0  0  0  0  0  0  0  0  0  0  0  0
  185.9550  178.4220  146.6330 C   0  0  0  0  0  3  0  0  0  0  0  0
  187.5210  177.5800  144.5100 N   0  0  0  0  0  0  0  0  0  0  0  0
  187.2700  178.0030  146.8480 C   0  0  0  0  0  3  0  0  0  0  0  0
  184.1140  178.8110  145.1000 C   0  0  0  0  0  3  0  0  0  0  0  0
  191.8300  177.0480  145.8830 N   0  0  0  0  0  2  0  0  0  0  0  0
  192.1010  175.4380  147.8570 N   0  0  0  0  0  0  0  0  0  0  0  0
  191.9790  176.1680  146.9670 C   0  0  0  0  0  0  0  0  0  0  0  0
  190.5770  178.7290  144.0760 S   0  0  0  0  0  0  0  0  0  0  0  0
  191.4650  177.6110  142.9380 C   0  0  0  0  0  2  0  0  0  0  0  0
  190.5550  176.6690  142.3070 N   0  0  0  0  0  2  0  0  0  0  0  0
  190.4960  176.9880  140.8960 C   0  0  0  0  0  2  0  0  0  0  0  0
  189.0950  177.4190  140.5400 C   0  0  0  0  0  2  0  0  0  0  0  0
  190.1500  176.8050  138.3850 C   0  0  0  0  0  1  0  0  0  0  0  0
  188.8500  177.1760  139.0670 C   0  0  2  0  0  3  0  0  0  0  0  0
  186.8780  178.5090  138.2780 O   0  0  0  0  0  1  0  0  0  0  0  0
  189.0180  179.2970  138.0110 O   0  0  0  0  0  0  0  0  0  0  0  0
  188.2580  178.3860  138.4300 C   0  0  0  0  0  0  0  0  0  0  0  0
  1 14  1  0  0  0  0
  1  2  2  0  0  0  0
  3  4  2  0  0  0  0
  3  5  1  0  0  0  0
  4  7  1  0  0  0  0
  5 13  2  0  0  0  0
  6  5  1  0  0  0  0
  7 11  2  0  0  0  0
  7  9  1  0  0  0  0
  8  2  1  0  0  0  0
  8 12  2  0  0  0  0
  9 10  2  0  0  0  0
 10 12  1  0  0  0  0
 11  8  1  0  0  0  0
 13  9  1  0  0  0  0
 14 16  1  0  0  0  0
 16 15  3  0  0  0  0
 17  1  1  0  0  0  0
 18 17  1  0  0  0  0
 19 18  1  0  0  0  0
 20 19  1  0  0  0  0
 21 20  1  0  0  0  0
 23 22  1  6  0  0  0
 23 21  1  0  0  0  0
 24 26  1  0  0  0  0
 25 26  2  0  0  0  0
 26 23  1  0  0  0  0
M  END
>  <MODEL>
1

>  <REMARK>
 VINA RESULT:      -8.2      0.000      0.000
  Name = 
  10 active torsions:
  status: ('A' for Active; 'I' for Inactive)
    1  A    between atoms: N_5  and  C_7
    2  A    between atoms: N_5  and  C_14
    3  A    between atoms: C_7  and  S_20
    4  A    between atoms: N_8  and  C_9
    5  A    between atoms: N_8  and  C_25
    6  A    between atoms: C_9  and  S_20
    7  A    between atoms: C_12  and  C_13
    8  A    between atoms: C_22  and  C_26
    9  A    between atoms: C_24  and  C_25
   10  A    between atoms: C_24  and  C_26
                            x       y       z     vdW  Elec       q    Type
                         _______ _______ _______ _____ _____    ______ ____

>  <TORSDO>
F 10

$$$$
=
 OpenBabel10222416103D

 26 27  0  0  1  0  0  0  0  0999 V2000
  190.7730  177.5100  145.2400 C   0  0  0  0  0  0  0  0  0  0  0  0
  189.5510  177.1150  145.6330 C   0  0  0  0  0  3  0  0  0  0  0  0
  183.7150  178.9910  145.3740 C   0  0  0  0  0  3  0  0  0  0  0  0
  184.9430  178.6890  145.9690 C   0  0  0  0  0  3  0  0  0  0  0  0
  183.5280  178.7780  144.0000 C   0  0  0  0  0  0  0  0  0  0  0  0
  182.2240  179.1130  143.3710 C   0  0  0  0  0  1  0  0  0  0  0  0
  185.9930  178.1850  145.1900 C   0  0  0  0  0  0  0  0  0  0  0  0
  188.2440  177.4320  145.0250 C   0  0  0  0  0  0  0  0  0  0  0  0
  185.8100  177.9920  143.8050 C   0  0  0  0  0  0  0  0  0  0  0  0
  186.8660  177.4970  143.0390 C   0  0  0  0  0  3  0  0  0  0  0  0
  187.1930  177.8970  145.7590 N   0  0  0  0  0  0  0  0  0  0  0  0
  188.0900  177.2180  143.6510 C   0  0  0  0  0  3  0  0  0  0  0  0
  184.5760  178.2830  143.2140 C   0  0  0  0  0  3  0  0  0  0  0  0
  191.9250  177.1310  146.0030 N   0  0  0  0  0  2  0  0  0  0  0  0
  191.9110  175.2710  147.7650 N   0  0  0  0  0  0  0  0  0  0  0  0
  191.9190  176.1100  146.9670 C   0  0  0  0  0  0  0  0  0  0  0  0
  191.0440  178.5400  143.7890 S   0  0  0  0  0  0  0  0  0  0  0  0
  191.6750  177.1650  142.7680 C   0  0  0  0  0  2  0  0  0  0  0  0
  191.6060  177.4860  141.3520 N   0  0  0  0  0  2  0  0  0  0  0  0
  190.4740  176.7770  140.7910 C   0  0  0  0  0  2  0  0  0  0  0  0
  189.4930  177.7740  140.2270 C   0  0  0  0  0  2  0  0  0  0  0  0
  190.3790  177.1750  137.9920 C   0  0  0  0  0  1  0  0  0  0  0  0
  189.1230  177.3750  138.8150 C   0  0  2  0  0  3  0  0  0  0  0  0
  186.8840  178.4390  138.4440 O   0  0  0  0  0  1  0  0  0  0  0  0
  188.7640  179.2560  137.4110 O   0  0  0  0  0  0  0  0  0  0  0  0
  188.2530  178.4100  138.1910 C   0  0  0  0  0  0  0  0  0  0  0  0
  1  2  2  0  0  0  0
  1 14  1  0  0  0  0
  3  4  1  0  0  0  0
  5  3  2  0  0  0  0
  6  5  1  0  0  0  0
  7 11  1  0  0  0  0
  7  4  2  0  0  0  0
  8  2  1  0  0  0  0
  8 11  2  0  0  0  0
  9  7  1  0  0  0  0
 10 12  2  0  0  0  0
 10  9  1  0  0  0  0
 12  8  1  0  0  0  0
 13  9  2  0  0  0  0
 13  5  1  0  0  0  0
 14 16  1  0  0  0  0
 16 15  3  0  0  0  0
 17  1  1  0  0  0  0
 18 17  1  0  0  0  0
 19 18  1  0  0  0  0
 20 19  1  0  0  0  0
 21 20  1  0  0  0  0
 23 22  1  6  0  0  0
 23 21  1  0  0  0  0
 25 26  2  0  0  0  0
 26 24  1  0  0  0  0
 26 23  1  0  0  0  0
M  END
>  <MODEL>
2

>  <REMARK>
 VINA RESULT:      -8.0      0.774      1.512
  Name = 
  10 active torsions:
  status: ('A' for Active; 'I' for Inactive)
    1  A    between atoms: N_5  and  C_7
    2  A    between atoms: N_5  and  C_14
    3  A    between atoms: C_7  and  S_20
    4  A    between atoms: N_8  and  C_9
    5  A    between atoms: N_8  and  C_25
    6  A    between atoms: C_9  and  S_20
    7  A    between atoms: C_12  and  C_13
    8  A    between atoms: C_22  and  C_26
    9  A    between atoms: C_24  and  C_25
   10  A    between atoms: C_24  and  C_26
                            x       y       z     vdW  Elec       q    Type
                         _______ _______ _______ _____ _____    ______ ____

>  <TORSDO>
F 10

$$$$
=
 OpenBabel10222416103D

 26 27  0  0  1  0  0  0  0  0999 V2000
  190.1530  177.4670  144.9280 C   0  0  0  0  0  0  0  0  0  0  0  0
  189.1240  177.4330  145.7890 C   0  0  0  0  0  3  0  0  0  0  0  0
  183.9990  178.5050  142.5890 C   0  0  0  0  0  3  0  0  0  0  0  0
  185.3390  178.1640  142.7950 C   0  0  0  0  0  3  0  0  0  0  0  0
  183.1910  178.8640  143.6780 C   0  0  0  0  0  0  0  0  0  0  0  0
  181.7630  179.2130  143.4540 C   0  0  0  0  0  1  0  0  0  0  0  0
  185.8720  178.1690  144.0900 C   0  0  0  0  0  0  0  0  0  0  0  0
  187.7140  177.7980  145.5500 C   0  0  0  0  0  0  0  0  0  0  0  0
  185.0510  178.5100  145.1860 C   0  0  0  0  0  0  0  0  0  0  0  0
  185.5920  178.5030  146.4720 C   0  0  0  0  0  3  0  0  0  0  0  0
  187.1720  177.8310  144.2990 N   0  0  0  0  0  0  0  0  0  0  0  0
  186.9290  178.1430  146.6560 C   0  0  0  0  0  3  0  0  0  0  0  0
  183.7150  178.8630  144.9760 C   0  0  0  0  0  3  0  0  0  0  0  0
  191.4690  177.1170  145.3740 N   0  0  0  0  0  2  0  0  0  0  0  0
  191.9920  176.3080  147.7480 N   0  0  0  0  0  0  0  0  0  0  0  0
  191.7570  176.6710  146.6730 C   0  0  0  0  0  0  0  0  0  0  0  0
  189.9700  177.9710  143.2090 S   0  0  0  0  0  0  0  0  0  0  0  0
  190.4210  176.3320  142.5430 C   0  0  0  0  0  2  0  0  0  0  0  0
  190.1220  176.2400  141.1240 N   0  0  0  0  0  2  0  0  0  0  0  0
  189.9850  177.5870  140.6110 C   0  0  0  0  0  2  0  0  0  0  0  0
  189.0030  177.5870  139.4660 C   0  0  0  0  0  2  0  0  0  0  0  0
  188.9130  178.8930  137.3630 C   0  0  0  0  0  1  0  0  0  0  0  0
  189.7290  177.9120  138.1780 C   0  0  2  0  0  3  0  0  0  0  0  0
  189.4340  175.4520  137.7900 O   0  0  0  0  0  1  0  0  0  0  0  0
  190.7150  176.7250  136.3730 O   0  0  0  0  0  0  0  0  0  0  0  0
  189.9820  176.6700  137.3940 C   0  0  0  0  0  0  0  0  0  0  0  0
  1 14  1  0  0  0  0
  1  2  2  0  0  0  0
  3  4  2  0  0  0  0
  3  5  1  0  0  0  0
  4  7  1  0  0  0  0
  5 13  2  0  0  0  0
  6  5  1  0  0  0  0
  7 11  2  0  0  0  0
  7  9  1  0  0  0  0
  8  2  1  0  0  0  0
  8 12  2  0  0  0  0
  9 10  2  0  0  0  0
 10 12  1  0  0  0  0
 11  8  1  0  0  0  0
 13  9  1  0  0  0  0
 14 16  1  0  0  0  0
 16 15  3  0  0  0  0
 17  1  1  0  0  0  0
 18 17  1  0  0  0  0
 19 18  1  0  0  0  0
 20 19  1  0  0  0  0
 21 20  1  0  0  0  0
 23 22  1  6  0  0  0
 23 21  1  0  0  0  0
 25 26  2  0  0  0  0
 26 24  1  0  0  0  0
 26 23  1  0  0  0  0
M  END
>  <MODEL>
3

>  <REMARK>
 VINA RESULT:      -7.4      1.298      1.480
  Name = 
  10 active torsions:
  status: ('A' for Active; 'I' for Inactive)
    1  A    between atoms: N_5  and  C_7
    2  A    between atoms: N_5  and  C_14
    3  A    between atoms: C_7  and  S_20
    4  A    between atoms: N_8  and  C_9
    5  A    between atoms: N_8  and  C_25
    6  A    between atoms: C_9  and  S_20
    7  A    between atoms: C_12  and  C_13
    8  A    between atoms: C_22  and  C_26
    9  A    between atoms: C_24  and  C_25
   10  A    between atoms: C_24  and  C_26
                            x       y       z     vdW  Elec       q    Type
                         _______ _______ _______ _____ _____    ______ ____

>  <TORSDO>
F 10

$$$$
=
 OpenBabel10222416103D

 26 27  0  0  1  0  0  0  0  0999 V2000
  189.7490  177.2480  140.0050 C   0  0  0  0  0  0  0  0  0  0  0  0
  190.4050  176.7290  141.0550 C   0  0  0  0  0  3  0  0  0  0  0  0
  187.1390  177.5800  146.1790 C   0  0  0  0  0  3  0  0  0  0  0  0
  187.3600  177.3860  144.8130 C   0  0  0  0  0  3  0  0  0  0  0  0
  188.2270  177.6770  147.0600 C   0  0  0  0  0  0  0  0  0  0  0  0
  187.9850  177.8700  148.5140 C   0  0  0  0  0  1  0  0  0  0  0  0
  188.6690  177.2770  144.3240 C   0  0  0  0  0  0  0  0  0  0  0  0
  190.1510  176.9420  142.4930 C   0  0  0  0  0  0  0  0  0  0  0  0
  189.7600  177.3540  145.2150 C   0  0  0  0  0  0  0  0  0  0  0  0
  191.0580  177.2360  144.7160 C   0  0  0  0  0  3  0  0  0  0  0  0
  188.8920  177.0800  142.9980 N   0  0  0  0  0  0  0  0  0  0  0  0
  191.2550  177.0260  143.3490 C   0  0  0  0  0  3  0  0  0  0  0  0
  189.5370  177.5600  146.5790 C   0  0  0  0  0  3  0  0  0  0  0  0
  190.1880  176.9530  138.6730 N   0  0  0  0  0  2  0  0  0  0  0  0
  191.0690  174.6620  137.9410 N   0  0  0  0  0  0  0  0  0  0  0  0
  190.6740  175.6980  138.2730 C   0  0  0  0  0  0  0  0  0  0  0  0
  188.3330  178.3440  140.1850 S   0  0  0  0  0  0  0  0  0  0  0  0
  187.5610  177.8210  138.6160 C   0  0  0  0  0  2  0  0  0  0  0  0
  186.5390  178.7630  138.1920 N   0  0  0  0  0  2  0  0  0  0  0  0
  185.2470  178.1820  138.4950 C   0  0  0  0  0  2  0  0  0  0  0  0
  184.5060  179.0870  139.4470 C   0  0  0  0  0  2  0  0  0  0  0  0
  182.4980  178.4520  140.7520 C   0  0  0  0  0  1  0  0  0  0  0  0
  183.9960  178.2780  140.6200 C   0  0  2  0  0  3  0  0  0  0  0  0
  185.6080  179.7320  141.8750 O   0  0  0  0  0  0  0  0  0  0  0  0
  184.4240  178.0840  142.9480 O   0  0  0  0  0  1  0  0  0  0  0  0
  184.6790  178.6930  141.8770 C   0  0  0  0  0  0  0  0  0  0  0  0
  1 17  1  0  0  0  0
  1  2  2  0  0  0  0
  2  8  1  0  0  0  0
  3  5  1  0  0  0  0
  4  3  2  0  0  0  0
  5  6  1  0  0  0  0
  7  4  1  0  0  0  0
  7  9  1  0  0  0  0
  8 11  1  0  0  0  0
  8 12  2  0  0  0  0
  9 13  1  0  0  0  0
 10  9  2  0  0  0  0
 11  7  2  0  0  0  0
 12 10  1  0  0  0  0
 13  5  2  0  0  0  0
 14  1  1  0  0  0  0
 15 16  3  0  0  0  0
 16 14  1  0  0  0  0
 18 17  1  0  0  0  0
 19 20  1  0  0  0  0
 19 18  1  0  0  0  0
 20 21  1  0  0  0  0
 21 23  1  0  0  0  0
 23 22  1  1  0  0  0
 23 26  1  0  0  0  0
 24 26  2  0  0  0  0
 26 25  1  0  0  0  0
M  END
>  <MODEL>
4

>  <REMARK>
 VINA RESULT:      -7.4      2.723      5.821
  Name = 
  10 active torsions:
  status: ('A' for Active; 'I' for Inactive)
    1  A    between atoms: N_5  and  C_7
    2  A    between atoms: N_5  and  C_14
    3  A    between atoms: C_7  and  S_20
    4  A    between atoms: N_8  and  C_9
    5  A    between atoms: N_8  and  C_25
    6  A    between atoms: C_9  and  S_20
    7  A    between atoms: C_12  and  C_13
    8  A    between atoms: C_22  and  C_26
    9  A    between atoms: C_24  and  C_25
   10  A    between atoms: C_24  and  C_26
                            x       y       z     vdW  Elec       q    Type
                         _______ _______ _______ _____ _____    ______ ____

>  <TORSDO>
F 10

$$$$
=
 OpenBabel10222416103D

 26 27  0  0  1  0  0  0  0  0999 V2000
  182.0230  178.6900  141.7210 C   0  0  0  0  0  0  0  0  0  0  0  0
  182.3340  179.0020  142.9890 C   0  0  0  0  0  3  0  0  0  0  0  0
  188.1650  177.2860  143.8290 C   0  0  0  0  0  3  0  0  0  0  0  0
  186.9880  177.5370  143.1180 C   0  0  0  0  0  3  0  0  0  0  0  0
  188.2020  177.4810  145.2180 C   0  0  0  0  0  0  0  0  0  0  0  0
  189.4600  177.2250  145.9670 C   0  0  0  0  0  1  0  0  0  0  0  0
  185.8480  177.9950  143.7900 C   0  0  0  0  0  0  0  0  0  0  0  0
  183.5840  178.7240  143.7230 C   0  0  0  0  0  0  0  0  0  0  0  0
  185.8940  178.2110  145.1840 C   0  0  0  0  0  0  0  0  0  0  0  0
  184.7540  178.6760  145.8400 C   0  0  0  0  0  3  0  0  0  0  0  0
  184.7030  178.2500  143.1040 N   0  0  0  0  0  0  0  0  0  0  0  0
  183.5940  178.9360  145.1060 C   0  0  0  0  0  3  0  0  0  0  0  0
  187.0680  177.9480  145.8950 C   0  0  0  0  0  3  0  0  0  0  0  0
  180.7250  179.0080  141.2060 N   0  0  0  0  0  2  0  0  0  0  0  0
  179.4330  181.1340  141.8200 N   0  0  0  0  0  0  0  0  0  0  0  0
  180.0190  180.1740  141.5400 C   0  0  0  0  0  0  0  0  0  0  0  0
  183.1680  177.8470  140.6160 S   0  0  0  0  0  0  0  0  0  0  0  0
  183.3300  179.2700  139.4840 C   0  0  0  0  0  2  0  0  0  0  0  0
  184.7010  179.7500  139.4340 N   0  0  0  0  0  2  0  0  0  0  0  0
  185.5760  178.6000  139.5250 C   0  0  0  0  0  2  0  0  0  0  0  0
  186.0790  178.2470  138.1470 C   0  0  0  0  0  2  0  0  0  0  0  0
  188.0750  178.1260  139.6090 C   0  0  0  0  0  1  0  0  0  0  0  0
  187.5260  177.8130  138.2330 C   0  0  2  0  0  3  0  0  0  0  0  0
  188.9430  179.7200  137.4330 O   0  0  0  0  0  1  0  0  0  0  0  0
  188.4610  177.9500  136.0540 O   0  0  0  0  0  0  0  0  0  0  0  0
  188.3380  178.4910  137.1840 C   0  0  0  0  0  0  0  0  0  0  0  0
  1  2  2  0  0  0  0
  2  8  1  0  0  0  0
  3  5  1  0  0  0  0
  4  7  1  0  0  0  0
  4  3  2  0  0  0  0
  5 13  2  0  0  0  0
  5  6  1  0  0  0  0
  7  9  1  0  0  0  0
  8 12  2  0  0  0  0
  9 10  2  0  0  0  0
  9 13  1  0  0  0  0
 11  8  1  0  0  0  0
 11  7  2  0  0  0  0
 12 10  1  0  0  0  0
 14 16  1  0  0  0  0
 14  1  1  0  0  0  0
 16 15  3  0  0  0  0
 17  1  1  0  0  0  0
 18 17  1  0  0  0  0
 19 18  1  0  0  0  0
 19 20  1  0  0  0  0
 21 23  1  0  0  0  0
 21 20  1  0  0  0  0
 23 22  1  1  0  0  0
 25 26  2  0  0  0  0
 26 24  1  0  0  0  0
 26 23  1  0  0  0  0
M  END
>  <MODEL>
5

>  <REMARK>
 VINA RESULT:      -7.4      3.505      6.677
  Name = 
  10 active torsions:
  status: ('A' for Active; 'I' for Inactive)
    1  A    between atoms: N_5  and  C_7
    2  A    between atoms: N_5  and  C_14
    3  A    between atoms: C_7  and  S_20
    4  A    between atoms: N_8  and  C_9
    5  A    between atoms: N_8  and  C_25
    6  A    between atoms: C_9  and  S_20
    7  A    between atoms: C_12  and  C_13
    8  A    between atoms: C_22  and  C_26
    9  A    between atoms: C_24  and  C_25
   10  A    between atoms: C_24  and  C_26
                            x       y       z     vdW  Elec       q    Type
                         _______ _______ _______ _____ _____    ______ ____

>  <TORSDO>
F 10

$$$$
=
 OpenBabel10222416103D

 26 27  0  0  1  0  0  0  0  0999 V2000
  183.7270  178.7430  143.9200 C   0  0  0  0  0  0  0  0  0  0  0  0
  184.2490  178.9550  145.1380 C   0  0  0  0  0  3  0  0  0  0  0  0
  189.9760  176.7570  144.9940 C   0  0  0  0  0  3  0  0  0  0  0  0
  188.7330  177.1420  144.4830 C   0  0  0  0  0  3  0  0  0  0  0  0
  190.2310  176.8560  146.3700 C   0  0  0  0  0  0  0  0  0  0  0  0
  191.5590  176.4580  146.9050 C   0  0  0  0  0  1  0  0  0  0  0  0
  187.7450  177.6380  145.3440 C   0  0  0  0  0  0  0  0  0  0  0  0
  185.5640  178.5350  145.6600 C   0  0  0  0  0  0  0  0  0  0  0  0
  188.0120  177.7560  146.7240 C   0  0  0  0  0  0  0  0  0  0  0  0
  187.0220  178.2590  147.5700 C   0  0  0  0  0  3  0  0  0  0  0  0
  186.5380  178.0220  144.8540 N   0  0  0  0  0  0  0  0  0  0  0  0
  185.7940  178.6530  147.0350 C   0  0  0  0  0  3  0  0  0  0  0  0
  189.2510  177.3590  147.2350 C   0  0  0  0  0  3  0  0  0  0  0  0
  182.3990  179.1920  143.6250 N   0  0  0  0  0  2  0  0  0  0  0  0
  181.2490  178.8450  141.3620 N   0  0  0  0  0  0  0  0  0  0  0  0
  181.7710  179.0040  142.3830 C   0  0  0  0  0  0  0  0  0  0  0  0
  184.6160  177.8770  142.6160 S   0  0  0  0  0  0  0  0  0  0  0  0
  185.3040  179.4050  141.8900 C   0  0  0  0  0  2  0  0  0  0  0  0
  186.2400  179.1040  140.8200 N   0  0  0  0  0  2  0  0  0  0  0  0
  187.1950  178.1380  141.3240 C   0  0  0  0  0  2  0  0  0  0  0  0
  188.5880  178.5660  140.9360 C   0  0  0  0  0  2  0  0  0  0  0  0
  190.5520  177.0860  140.6340 C   0  0  0  0  0  1  0  0  0  0  0  0
  189.2160  177.5060  140.0570 C   0  0  2  0  0  3  0  0  0  0  0  0
  190.2090  177.3480  137.7610 O   0  0  0  0  0  0  0  0  0  0  0  0
  188.7940  179.0670  138.3180 O   0  0  0  0  0  1  0  0  0  0  0  0
  189.3870  178.0130  138.6670 C   0  0  0  0  0  0  0  0  0  0  0  0
  1  2  2  0  0  0  0
  2  8  1  0  0  0  0
  3  5  1  0  0  0  0
  4  3  2  0  0  0  0
  4  7  1  0  0  0  0
  5  6  1  0  0  0  0
  5 13  2  0  0  0  0
  7  9  1  0  0  0  0
  8 12  2  0  0  0  0
  9 13  1  0  0  0  0
  9 10  2  0  0  0  0
 11  7  2  0  0  0  0
 11  8  1  0  0  0  0
 12 10  1  0  0  0  0
 14  1  1  0  0  0  0
 15 16  3  0  0  0  0
 16 14  1  0  0  0  0
 17  1  1  0  0  0  0
 18 17  1  0  0  0  0
 19 20  1  0  0  0  0
 19 18  1  0  0  0  0
 21 20  1  0  0  0  0
 23 22  1  1  0  0  0
 23 21  1  0  0  0  0
 24 26  2  0  0  0  0
 25 26  1  0  0  0  0
 26 23  1  0  0  0  0
M  END
>  <MODEL>
6

>  <REMARK>
 VINA RESULT:      -7.3      2.556      5.875
  Name = 
  10 active torsions:
  status: ('A' for Active; 'I' for Inactive)
    1  A    between atoms: N_5  and  C_7
    2  A    between atoms: N_5  and  C_14
    3  A    between atoms: C_7  and  S_20
    4  A    between atoms: N_8  and  C_9
    5  A    between atoms: N_8  and  C_25
    6  A    between atoms: C_9  and  S_20
    7  A    between atoms: C_12  and  C_13
    8  A    between atoms: C_22  and  C_26
    9  A    between atoms: C_24  and  C_25
   10  A    between atoms: C_24  and  C_26
                            x       y       z     vdW  Elec       q    Type
                         _______ _______ _______ _____ _____    ______ ____

>  <TORSDO>
F 10

$$$$
=
 OpenBabel10222416103D

 26 27  0  0  1  0  0  0  0  0999 V2000
  187.8820  177.9100  141.5690 C   0  0  0  0  0  0  0  0  0  0  0  0
  186.8170  178.6790  141.2930 C   0  0  0  0  0  3  0  0  0  0  0  0
  180.7260  178.5050  142.0110 C   0  0  0  0  0  3  0  0  0  0  0  0
  181.9410  178.4470  141.3240 C   0  0  0  0  0  3  0  0  0  0  0  0
  180.7080  178.7720  143.3880 C   0  0  0  0  0  0  0  0  0  0  0  0
  179.4140  178.8180  144.1160 C   0  0  0  0  0  1  0  0  0  0  0  0
  183.1450  178.6460  142.0130 C   0  0  0  0  0  0  0  0  0  0  0  0
  185.5230  178.7440  141.9990 C   0  0  0  0  0  0  0  0  0  0  0  0
  183.1260  178.8930  143.4020 C   0  0  0  0  0  0  0  0  0  0  0  0
  184.3330  179.0810  144.0780 C   0  0  0  0  0  3  0  0  0  0  0  0
  184.3320  178.5830  141.3540 N   0  0  0  0  0  0  0  0  0  0  0  0
  185.5370  179.0030  143.3740 C   0  0  0  0  0  3  0  0  0  0  0  0
  181.9090  178.9620  144.0850 C   0  0  0  0  0  3  0  0  0  0  0  0
  189.0370  177.9600  140.7230 N   0  0  0  0  0  2  0  0  0  0  0  0
  189.0400  179.0070  138.3850 N   0  0  0  0  0  0  0  0  0  0  0  0
  189.0400  178.5360  139.4430 C   0  0  0  0  0  0  0  0  0  0  0  0
  187.9250  176.7690  142.9610 S   0  0  0  0  0  0  0  0  0  0  0  0
  189.5540  177.3440  143.5500 C   0  0  0  0  0  2  0  0  0  0  0  0
  189.4160  178.2640  144.6670 N   0  0  0  0  0  2  0  0  0  0  0  0
  189.9710  177.6240  145.8410 C   0  0  0  0  0  2  0  0  0  0  0  0
  188.8510  177.0550  146.6750 C   0  0  0  0  0  2  0  0  0  0  0  0
  188.2140  178.0130  148.8680 C   0  0  0  0  0  1  0  0  0  0  0  0
  188.1140  178.1800  147.3670 C   0  0  2  0  0  3  0  0  0  0  0  0
  186.1540  177.1860  146.1580 O   0  0  0  0  0  0  0  0  0  0  0  0
  185.9600  179.1780  147.2840 O   0  0  0  0  0  1  0  0  0  0  0  0
  186.6860  178.2080  146.9420 C   0  0  0  0  0  0  0  0  0  0  0  0
  1 17  1  0  0  0  0
  2  1  2  0  0  0  0
  2  8  1  0  0  0  0
  3  5  1  0  0  0  0
  4  3  2  0  0  0  0
  4  7  1  0  0  0  0
  5 13  2  0  0  0  0
  5  6  1  0  0  0  0
  7  9  1  0  0  0  0
  8 12  2  0  0  0  0
  9 10  2  0  0  0  0
  9 13  1  0  0  0  0
 11  8  1  0  0  0  0
 11  7  2  0  0  0  0
 12 10  1  0  0  0  0
 14  1  1  0  0  0  0
 15 16  3  0  0  0  0
 16 14  1  0  0  0  0
 17 18  1  0  0  0  0
 18 19  1  0  0  0  0
 19 20  1  0  0  0  0
 20 21  1  0  0  0  0
 21 23  1  0  0  0  0
 23 22  1  1  0  0  0
 24 26  2  0  0  0  0
 26 25  1  0  0  0  0
 26 23  1  0  0  0  0
M  END
>  <MODEL>
7

>  <REMARK>
 VINA RESULT:      -7.2      3.176      5.974
  Name = 
  10 active torsions:
  status: ('A' for Active; 'I' for Inactive)
    1  A    between atoms: N_5  and  C_7
    2  A    between atoms: N_5  and  C_14
    3  A    between atoms: C_7  and  S_20
    4  A    between atoms: N_8  and  C_9
    5  A    between atoms: N_8  and  C_25
    6  A    between atoms: C_9  and  S_20
    7  A    between atoms: C_12  and  C_13
    8  A    between atoms: C_22  and  C_26
    9  A    between atoms: C_24  and  C_25
   10  A    between atoms: C_24  and  C_26
                            x       y       z     vdW  Elec       q    Type
                         _______ _______ _______ _____ _____    ______ ____

>  <TORSDO>
F 10

$$$$
=
 OpenBabel10222416103D

 26 27  0  0  1  0  0  0  0  0999 V2000
  189.6700  177.1570  144.8770 C   0  0  0  0  0  0  0  0  0  0  0  0
  188.8430  177.8980  145.6310 C   0  0  0  0  0  3  0  0  0  0  0  0
  183.5360  178.5770  142.6260 C   0  0  0  0  0  3  0  0  0  0  0  0
  184.9080  178.3570  142.7800 C   0  0  0  0  0  3  0  0  0  0  0  0
  182.7340  178.8250  143.7510 C   0  0  0  0  0  0  0  0  0  0  0  0
  181.2740  179.0440  143.5830 C   0  0  0  0  0  1  0  0  0  0  0  0
  185.4810  178.3750  144.0580 C   0  0  0  0  0  0  0  0  0  0  0  0
  187.3980  178.1350  145.4480 C   0  0  0  0  0  0  0  0  0  0  0  0
  184.6690  178.6030  145.1890 C   0  0  0  0  0  0  0  0  0  0  0  0
  185.2510  178.6100  146.4570 C   0  0  0  0  0  3  0  0  0  0  0  0
  186.8130  178.1540  144.2160 N   0  0  0  0  0  0  0  0  0  0  0  0
  186.6220  178.3720  146.5870 C   0  0  0  0  0  3  0  0  0  0  0  0
  183.3000  178.8340  145.0320 C   0  0  0  0  0  3  0  0  0  0  0  0
  191.0650  177.0940  145.1980 N   0  0  0  0  0  2  0  0  0  0  0  0
  191.9960  175.8390  147.2280 N   0  0  0  0  0  0  0  0  0  0  0  0
  191.5780  176.4070  146.3100 C   0  0  0  0  0  0  0  0  0  0  0  0
  189.1130  176.2410  143.4310 S   0  0  0  0  0  0  0  0  0  0  0  0
  189.8550  177.4100  142.2410 C   0  0  0  0  0  2  0  0  0  0  0  0
  188.8620  177.9060  141.3020 N   0  0  0  0  0  2  0  0  0  0  0  0
  189.4020  177.7560  139.9660 C   0  0  0  0  0  2  0  0  0  0  0  0
  190.6600  176.9250  140.0290 C   0  0  0  0  0  2  0  0  0  0  0  0
  190.8720  176.1680  137.6790 C   0  0  0  0  0  1  0  0  0  0  0  0
  191.4380  177.0890  138.7410 C   0  0  2  0  0  3  0  0  0  0  0  0
  193.6240  176.1030  138.0110 O   0  0  0  0  0  0  0  0  0  0  0  0
  193.4290  177.1750  140.0320 O   0  0  0  0  0  1  0  0  0  0  0  0
  192.8820  176.7990  138.9620 C   0  0  0  0  0  0  0  0  0  0  0  0
  1 14  1  0  0  0  0
  1  2  2  0  0  0  0
  3  4  2  0  0  0  0
  3  5  1  0  0  0  0
  4  7  1  0  0  0  0
  5 13  2  0  0  0  0
  6  5  1  0  0  0  0
  7 11  2  0  0  0  0
  7  9  1  0  0  0  0
  8  2  1  0  0  0  0
  8 12  2  0  0  0  0
  9 10  2  0  0  0  0
 10 12  1  0  0  0  0
 11  8  1  0  0  0  0
 13  9  1  0  0  0  0
 14 16  1  0  0  0  0
 16 15  3  0  0  0  0
 17  1  1  0  0  0  0
 18 17  1  0  0  0  0
 19 18  1  0  0  0  0
 20 21  1  0  0  0  0
 20 19  1  0  0  0  0
 23 22  1  6  0  0  0
 23 26  1  0  0  0  0
 23 21  1  0  0  0  0
 24 26  2  0  0  0  0
 26 25  1  0  0  0  0
M  END
>  <MODEL>
8

>  <REMARK>
 VINA RESULT:      -7.1      2.083      2.383
  Name = 
  10 active torsions:
  status: ('A' for Active; 'I' for Inactive)
    1  A    between atoms: N_5  and  C_7
    2  A    between atoms: N_5  and  C_14
    3  A    between atoms: C_7  and  S_20
    4  A    between atoms: N_8  and  C_9
    5  A    between atoms: N_8  and  C_25
    6  A    between atoms: C_9  and  S_20
    7  A    between atoms: C_12  and  C_13
    8  A    between atoms: C_22  and  C_26
    9  A    between atoms: C_24  and  C_25
   10  A    between atoms: C_24  and  C_26
                            x       y       z     vdW  Elec       q    Type
                         _______ _______ _______ _____ _____    ______ ____

>  <TORSDO>
F 10

$$$$
=
 OpenBabel10222416103D

 26 27  0  0  1  0  0  0  0  0999 V2000
  183.2010  178.8200  143.3680 C   0  0  0  0  0  0  0  0  0  0  0  0
  183.6220  178.9380  144.6380 C   0  0  0  0  0  3  0  0  0  0  0  0
  189.4680  177.0750  144.6980 C   0  0  0  0  0  3  0  0  0  0  0  0
  188.2280  177.4040  144.1410 C   0  0  0  0  0  3  0  0  0  0  0  0
  189.6560  177.1480  146.0860 C   0  0  0  0  0  0  0  0  0  0  0  0
  190.9790  176.8100  146.6710 C   0  0  0  0  0  1  0  0  0  0  0  0
  187.1760  177.8170  144.9680 C   0  0  0  0  0  0  0  0  0  0  0  0
  184.9350  178.5790  145.2070 C   0  0  0  0  0  0  0  0  0  0  0  0
  187.3740  177.9100  146.3620 C   0  0  0  0  0  0  0  0  0  0  0  0
  186.3210  178.3310  147.1740 C   0  0  0  0  0  3  0  0  0  0  0  0
  185.9710  178.1460  144.4330 N   0  0  0  0  0  0  0  0  0  0  0  0
  185.0960  178.6700  146.5940 C   0  0  0  0  0  3  0  0  0  0  0  0
  188.6110  177.5690  146.9180 C   0  0  0  0  0  3  0  0  0  0  0  0
  181.8580  179.1820  143.0250 N   0  0  0  0  0  2  0  0  0  0  0  0
  179.7810  178.0870  144.0510 N   0  0  0  0  0  0  0  0  0  0  0  0
  180.7210  178.5800  143.5870 C   0  0  0  0  0  0  0  0  0  0  0  0
  184.2500  178.1860  142.0490 S   0  0  0  0  0  0  0  0  0  0  0  0
  183.1470  178.7670  140.7150 C   0  0  0  0  0  2  0  0  0  0  0  0
  183.9080  179.3350  139.6140 N   0  0  0  0  0  2  0  0  0  0  0  0
  185.2400  178.7690  139.6560 C   0  0  0  0  0  2  0  0  0  0  0  0
  185.6820  178.4310  138.2540 C   0  0  0  0  0  2  0  0  0  0  0  0
  187.7290  178.1870  139.6270 C   0  0  0  0  0  1  0  0  0  0  0  0
  187.0920  177.8830  138.2870 C   0  0  2  0  0  3  0  0  0  0  0  0
  188.6610  179.6170  137.3830 O   0  0  0  0  0  1  0  0  0  0  0  0
  187.8890  177.9150  136.0500 O   0  0  0  0  0  0  0  0  0  0  0  0
  187.9040  178.4650  137.1820 C   0  0  0  0  0  0  0  0  0  0  0  0
  1  2  2  0  0  0  0
  2  8  1  0  0  0  0
  3  5  1  0  0  0  0
  4  3  2  0  0  0  0
  4  7  1  0  0  0  0
  5  6  1  0  0  0  0
  5 13  2  0  0  0  0
  7  9  1  0  0  0  0
  8 12  2  0  0  0  0
  9 13  1  0  0  0  0
  9 10  2  0  0  0  0
 11  7  2  0  0  0  0
 11  8  1  0  0  0  0
 12 10  1  0  0  0  0
 14  1  1  0  0  0  0
 14 16  1  0  0  0  0
 16 15  3  0  0  0  0
 17  1  1  0  0  0  0
 18 17  1  0  0  0  0
 19 20  1  0  0  0  0
 19 18  1  0  0  0  0
 21 23  1  0  0  0  0
 21 20  1  0  0  0  0
 23 22  1  1  0  0  0
 25 26  2  0  0  0  0
 26 24  1  0  0  0  0
 26 23  1  0  0  0  0
M  END
>  <MODEL>
9

>  <REMARK>
 VINA RESULT:      -7.1      2.997      6.238
  Name = 
  10 active torsions:
  status: ('A' for Active; 'I' for Inactive)
    1  A    between atoms: N_5  and  C_7
    2  A    between atoms: N_5  and  C_14
    3  A    between atoms: C_7  and  S_20
    4  A    between atoms: N_8  and  C_9
    5  A    between atoms: N_8  and  C_25
    6  A    between atoms: C_9  and  S_20
    7  A    between atoms: C_12  and  C_13
    8  A    between atoms: C_22  and  C_26
    9  A    between atoms: C_24  and  C_25
   10  A    between atoms: C_24  and  C_26
                            x       y       z     vdW  Elec       q    Type
                         _______ _______ _______ _____ _____    ______ ____

>  <TORSDO>
F 10

$$$$
