=
 OpenBabel10222416483D

 45 49  0  0  1  0  0  0  0  0999 V2000
  189.0270  176.7340  143.8320 C   0  0  1  0  0  3  0  0  0  0  0  0
  185.5470  177.8720  144.6740 N   0  0  0  0  0  0  0  0  0  0  0  0
  187.5140  177.7670  146.1430 C   0  0  0  0  0  2  0  0  0  0  0  0
  191.3280  177.6300  143.5290 C   0  0  1  0  0  3  0  0  0  0  0  0
  191.1930  176.7870  145.0780 S   0  0  0  0  0  0  0  0  0  0  0  0
  191.8130  175.4210  144.9810 O   0  0  0  0  0  0  0  0  0  0  0  0
  189.0140  177.8330  145.9490 C   0  0  0  0  0  2  0  0  0  0  0  0
  189.8920  177.7220  143.0220 C   0  0  1  0  0  3  0  0  0  0  0  0
  191.8060  177.5520  146.2210 O   0  0  0  0  0  0  0  0  0  0  0  0
  186.8030  177.5660  144.8340 C   0  0  0  0  0  0  0  0  0  0  0  0
  189.4790  176.6510  145.2290 N   0  0  1  0  0  0  0  0  0  0  0  0
  187.5150  176.9590  143.6550 C   0  0  0  0  0  2  0  0  0  0  0  0
  188.0420  177.6240  138.5860 C   0  0  0  0  0  2  0  0  0  0  0  0
  190.9350  176.6800  140.8840 C   0  0  0  0  0  2  0  0  0  0  0  0
  189.8200  177.4550  141.5470 C   0  0  0  0  0  0  0  0  0  0  0  0
  189.3450  177.8590  137.7900 C   0  0  1  0  0  3  0  0  0  0  0  0
  188.8470  177.9330  140.8150 C   0  0  0  0  0  0  0  0  0  0  0  0
  187.9970  178.3210  139.9130 C   0  0  0  0  0  3  0  0  0  0  0  0
  190.6620  177.6660  138.5670 C   0  0  0  0  0  2  0  0  0  0  0  0
  190.7100  176.3760  139.3900 C   0  0  0  0  0  2  0  0  0  0  0  0
  189.3600  176.9960  136.5400 C   0  0  0  0  0  2  0  0  0  0  0  0
  188.1360  175.3340  135.4250 C   0  0  0  0  0  2  0  0  0  0  0  0
  189.1600  174.5640  136.1230 C   0  0  2  0  0  3  0  0  0  0  0  0
  188.5760  175.7820  136.7560 N   0  0  0  0  0  0  0  0  0  0  0  0
  190.5150  174.7690  135.4430 C   0  0  0  0  0  2  0  0  0  0  0  0
  191.5740  173.9060  136.1080 C   0  0  0  0  0  2  0  0  0  0  0  0
  193.9130  174.3320  136.7060 C   0  0  1  0  0  0  0  0  0  0  0  0
  192.8030  175.9010  136.0170 C   0  0  0  0  0  2  0  0  0  0  0  0
  192.5060  174.7450  136.8610 N   0  0  0  0  0  0  0  0  0  0  0  0
  194.1050  173.0670  135.9990 N   0  0  0  0  0  1  0  0  0  0  0  0
  194.2590  175.5110  135.8320 C   0  0  0  0  0  2  0  0  0  0  0  0
  194.6650  174.3630  138.0320 C   0  0  0  0  0  2  0  0  0  0  0  0
  196.0160  174.8630  137.8370 N   0  0  0  0  0  2  0  0  0  0  0  0
  196.9160  173.8010  138.2470 C   0  0  0  0  0  1  0  0  0  0  0  0
  184.6150  178.4030  145.6340 C   0  0  0  0  0  0  0  0  0  0  0  0
  184.9620  178.4650  146.8420 O   0  0  0  0  0  0  0  0  0  0  0  0
  183.2810  178.9580  145.2530 C   0  0  0  0  0  2  0  0  0  0  0  0
  183.3860  179.7080  144.0090 N   0  0  0  0  0  2  0  0  0  0  0  0
  182.7920  178.8970  142.9560 C   0  0  0  0  0  2  0  0  0  0  0  0
  184.8500  179.5740  141.9630 F   0  0  0  0  0  0  0  0  0  0  0  0
  184.1530  177.4500  141.6470 F   0  0  0  0  0  0  0  0  0  0  0  0
  183.7430  178.7650  141.7760 C   0  0  0  0  0  0  0  0  0  0  0  0
  183.0910  179.1530  140.6220 F   0  0  0  0  0  0  0  0  0  0  0  0
  190.9970  179.9470  144.0760 F   0  0  0  0  0  0  0  0  0  0  0  0
  191.9430  179.0160  143.6750 C   0  0  0  0  0  2  0  0  0  0  0  0
  1 12  1  1  0  0  0
  1 11  1  0  0  0  0
  2 10  2  0  0  0  0
  2 35  1  0  0  0  0
  4 45  1  1  0  0  0
  4  5  1  0  0  0  0
  5 11  1  0  0  0  0
  5  9  2  0  0  0  0
  6  5  2  0  0  0  0
  7  3  1  0  0  0  0
  8 15  1  6  0  0  0
  8  4  1  0  0  0  0
  8  1  1  0  0  0  0
 10  3  1  0  0  0  0
 11  7  1  1  0  0  0
 12 10  1  0  0  0  0
 13 18  1  0  0  0  0
 14 15  1  0  0  0  0
 16 21  1  6  0  0  0
 16 19  1  0  0  0  0
 16 13  1  0  0  0  0
 17 15  2  0  0  0  0
 18 17  2  0  0  0  0
 19 20  1  0  0  0  0
 20 14  1  0  0  0  0
 21 24  1  0  0  0  0
 22 23  1  0  0  0  0
 22 24  1  0  0  0  0
 23 25  1  6  0  0  0
 23 24  1  0  0  0  0
 25 26  1  0  0  0  0
 26 29  1  0  0  0  0
 27 30  1  6  0  0  0
 27 29  1  0  0  0  0
 27 32  1  0  0  0  0
 28 29  1  0  0  0  0
 31 28  1  0  0  0  0
 31 27  1  0  0  0  0
 33 32  1  0  0  0  0
 33 34  1  0  0  0  0
 35 36  2  0  0  0  0
 37 35  1  0  0  0  0
 38 37  1  0  0  0  0
 39 38  1  0  0  0  0
 41 42  1  0  0  0  0
 42 40  1  0  0  0  0
 42 39  1  0  0  0  0
 43 42  1  0  0  0  0
 45 44  1  0  0  0  0
M  END
>  <MODEL>
1

>  <REMARK>
 VINA RESULT:      -7.8      0.000      0.000
  Name = 
  14 active torsions:
  status: ('A' for Active; 'I' for Inactive)
    1  A    between atoms: C_3  and  C_36
    2  A    between atoms: N_4  and  C_12
    3  A    between atoms: C_10  and  C_34
    4  A    between atoms: C_12  and  C_38
    5  A    between atoms: N_13  and  C_22
    6  A    between atoms: N_13  and  C_38
    7  A    between atoms: C_14  and  C_19
    8  A    between atoms: C_14  and  N_42
    9  A    between atoms: N_15  and  C_20
   10  A    between atoms: C_17  and  C_22
   11  A    between atoms: C_18  and  C_30
   12  A    between atoms: C_20  and  C_23
   13  A    between atoms: C_23  and  C_39
   14  A    between atoms: N_25  and  C_36
                            x       y       z     vdW  Elec       q    Type
                         _______ _______ _______ _____ _____    ______ ____

>  <TORSDO>
F 14

$$$$
=
 OpenBabel10222416483D

 45 49  0  0  1  0  0  0  0  0999 V2000
  182.2140  177.4730  139.4750 C   0  0  1  0  0  3  0  0  0  0  0  0
  185.2010  177.0620  137.2340 N   0  0  0  0  0  0  0  0  0  0  0  0
  182.8850  177.5880  136.6060 C   0  0  0  0  0  2  0  0  0  0  0  0
  180.6630  179.2250  140.3190 C   0  0  1  0  0  3  0  0  0  0  0  0
  179.8700  178.2440  139.0780 S   0  0  0  0  0  0  0  0  0  0  0  0
  178.9430  177.2480  139.7170 O   0  0  0  0  0  0  0  0  0  0  0  0
  181.7060  178.2580  137.2810 C   0  0  0  0  0  2  0  0  0  0  0  0
  182.1260  178.7970  140.2610 C   0  0  1  0  0  3  0  0  0  0  0  0
  179.1220  179.0680  138.0630 O   0  0  0  0  0  0  0  0  0  0  0  0
  183.9660  177.2590  137.5980 C   0  0  0  0  0  0  0  0  0  0  0  0
  181.2270  177.4320  138.3860 N   0  0  1  0  0  0  0  0  0  0  0  0
  183.6500  177.1030  139.0600 C   0  0  0  0  0  2  0  0  0  0  0  0
  185.4190  177.9390  143.6570 C   0  0  0  0  0  2  0  0  0  0  0  0
  181.8050  178.8410  142.8380 C   0  0  0  0  0  2  0  0  0  0  0  0
  182.7090  178.6750  141.6390 C   0  0  0  0  0  0  0  0  0  0  0  0
  184.9790  179.0130  144.6780 C   0  0  1  0  0  3  0  0  0  0  0  0
  183.9910  178.4920  141.8220 C   0  0  0  0  0  0  0  0  0  0  0  0
  185.2150  178.3320  142.2240 C   0  0  0  0  0  3  0  0  0  0  0  0
  183.5830  179.6290  144.4590 C   0  0  0  0  0  2  0  0  0  0  0  0
  182.4860  178.5950  144.1990 C   0  0  0  0  0  2  0  0  0  0  0  0
  185.0800  178.4670  146.0910 C   0  0  0  0  0  2  0  0  0  0  0  0
  186.1580  178.6550  148.1660 C   0  0  0  0  0  2  0  0  0  0  0  0
  187.2220  178.9780  147.2210 C   0  0  2  0  0  3  0  0  0  0  0  0
  185.8190  179.3970  146.9420 N   0  0  0  0  0  0  0  0  0  0  0  0
  187.6790  177.7060  146.5010 C   0  0  0  0  0  2  0  0  0  0  0  0
  188.6870  178.0500  145.4170 C   0  0  0  0  0  2  0  0  0  0  0  0
  190.8550  177.2440  144.6050 C   0  0  1  0  0  0  0  0  0  0  0  0
  190.1640  176.5000  146.3760 C   0  0  0  0  0  2  0  0  0  0  0  0
  189.5220  176.8860  145.1210 N   0  0  0  0  0  0  0  0  0  0  0  0
  191.0340  178.6630  144.3040 N   0  0  0  0  0  1  0  0  0  0  0  0
  191.5560  176.8580  145.8830 C   0  0  0  0  0  2  0  0  0  0  0  0
  191.2710  176.3580  143.4360 C   0  0  0  0  0  2  0  0  0  0  0  0
  190.1310  176.0860  142.5760 N   0  0  0  0  0  2  0  0  0  0  0  0
  190.4410  176.6610  141.2790 C   0  0  0  0  0  1  0  0  0  0  0  0
  185.7710  177.0840  135.9130 C   0  0  0  0  0  0  0  0  0  0  0  0
  185.3380  176.2720  135.0550 O   0  0  0  0  0  0  0  0  0  0  0  0
  186.8010  178.0810  135.4870 C   0  0  0  0  0  2  0  0  0  0  0  0
  187.2090  178.8970  136.6210 N   0  0  0  0  0  2  0  0  0  0  0  0
  188.6520  178.7650  136.7600 C   0  0  0  0  0  2  0  0  0  0  0  0
  189.3160  179.1570  139.0150 F   0  0  0  0  0  0  0  0  0  0  0  0
  187.9460  177.4150  138.5880 F   0  0  0  0  0  0  0  0  0  0  0  0
  189.0100  178.1580  138.1090 C   0  0  0  0  0  0  0  0  0  0  0  0
  190.1080  177.3340  137.9580 F   0  0  0  0  0  0  0  0  0  0  0  0
  179.2690  181.1800  140.4280 F   0  0  0  0  0  0  0  0  0  0  0  0
  180.5220  180.7190  140.0530 C   0  0  0  0  0  2  0  0  0  0  0  0
  1 12  1  6  0  0  0
  1  8  1  0  0  0  0
  2 10  2  0  0  0  0
  3  7  1  0  0  0  0
  3 10  1  0  0  0  0
  4 45  1  6  0  0  0
  5  6  2  0  0  0  0
  5  4  1  0  0  0  0
  8  4  1  0  0  0  0
  8 15  1  1  0  0  0
  9  5  2  0  0  0  0
 10 12  1  0  0  0  0
 11  7  1  6  0  0  0
 11  5  1  0  0  0  0
 11  1  1  0  0  0  0
 13 16  1  0  0  0  0
 14 20  1  0  0  0  0
 15 17  2  0  0  0  0
 15 14  1  0  0  0  0
 16 21  1  1  0  0  0
 17 18  2  0  0  0  0
 18 13  1  0  0  0  0
 19 16  1  0  0  0  0
 20 19  1  0  0  0  0
 21 24  1  0  0  0  0
 23 25  1  6  0  0  0
 23 22  1  0  0  0  0
 24 23  1  0  0  0  0
 24 22  1  0  0  0  0
 26 25  1  0  0  0  0
 27 30  1  6  0  0  0
 27 29  1  0  0  0  0
 27 31  1  0  0  0  0
 29 26  1  0  0  0  0
 29 28  1  0  0  0  0
 31 28  1  0  0  0  0
 32 27  1  0  0  0  0
 33 32  1  0  0  0  0
 34 33  1  0  0  0  0
 35  2  1  0  0  0  0
 36 35  2  0  0  0  0
 37 35  1  0  0  0  0
 37 38  1  0  0  0  0
 38 39  1  0  0  0  0
 39 42  1  0  0  0  0
 42 41  1  0  0  0  0
 42 40  1  0  0  0  0
 43 42  1  0  0  0  0
 45 44  1  0  0  0  0
M  END
>  <MODEL>
2

>  <REMARK>
 VINA RESULT:      -7.2      5.124      9.713
  Name = 
  14 active torsions:
  status: ('A' for Active; 'I' for Inactive)
    1  A    between atoms: C_3  and  C_36
    2  A    between atoms: N_4  and  C_12
    3  A    between atoms: C_10  and  C_34
    4  A    between atoms: C_12  and  C_38
    5  A    between atoms: N_13  and  C_22
    6  A    between atoms: N_13  and  C_38
    7  A    between atoms: C_14  and  C_19
    8  A    between atoms: C_14  and  N_42
    9  A    between atoms: N_15  and  C_20
   10  A    between atoms: C_17  and  C_22
   11  A    between atoms: C_18  and  C_30
   12  A    between atoms: C_20  and  C_23
   13  A    between atoms: C_23  and  C_39
   14  A    between atoms: N_25  and  C_36
                            x       y       z     vdW  Elec       q    Type
                         _______ _______ _______ _____ _____    ______ ____

>  <TORSDO>
F 14

$$$$
=
 OpenBabel10222416483D

 45 49  0  0  1  0  0  0  0  0999 V2000
  182.8030  178.8850  141.4870 C   0  0  1  0  0  3  0  0  0  0  0  0
  185.2120  178.3030  144.3100 N   0  0  0  0  0  0  0  0  0  0  0  0
  182.8690  179.0310  144.4310 C   0  0  0  0  0  2  0  0  0  0  0  0
  180.7480  177.9150  140.4740 C   0  0  1  0  0  3  0  0  0  0  0  0
  180.3520  179.3690  141.4010 S   0  0  0  0  0  0  0  0  0  0  0  0
  180.1450  180.5350  140.4750 O   0  0  0  0  0  0  0  0  0  0  0  0
  181.6360  178.8610  143.5680 C   0  0  0  0  0  2  0  0  0  0  0  0
  182.2030  177.6250  140.8290 C   0  0  1  0  0  3  0  0  0  0  0  0
  179.1470  179.1940  142.2870 O   0  0  0  0  0  0  0  0  0  0  0  0
  184.1140  178.6290  143.6910 C   0  0  0  0  0  0  0  0  0  0  0  0
  181.8040  179.5840  142.3100 N   0  0  1  0  0  0  0  0  0  0  0  0
  184.1490  178.6270  142.1870 C   0  0  0  0  0  2  0  0  0  0  0  0
  183.9210  174.6900  137.4310 C   0  0  0  0  0  2  0  0  0  0  0  0
  183.9130  178.1860  138.9550 C   0  0  0  0  0  2  0  0  0  0  0  0
  182.9810  177.1980  139.6180 C   0  0  0  0  0  0  0  0  0  0  0  0
  183.9540  175.6950  136.2570 C   0  0  1  0  0  3  0  0  0  0  0  0
  182.8190  176.0130  139.0880 C   0  0  0  0  0  0  0  0  0  0  0  0
  182.7980  174.9120  138.4000 C   0  0  0  0  0  3  0  0  0  0  0  0
  183.8240  177.1840  136.6320 C   0  0  0  0  0  2  0  0  0  0  0  0
  184.7350  177.6120  137.7850 C   0  0  0  0  0  2  0  0  0  0  0  0
  185.2060  175.4850  135.4220 C   0  0  0  0  0  2  0  0  0  0  0  0
  186.6620  173.7290  134.8770 C   0  0  0  0  0  2  0  0  0  0  0  0
  187.4900  174.5800  135.7260 C   0  0  2  0  0  3  0  0  0  0  0  0
  186.0330  174.4320  136.0060 N   0  0  0  0  0  0  0  0  0  0  0  0
  187.8810  175.8470  134.9620 C   0  0  0  0  0  2  0  0  0  0  0  0
  188.8970  176.6480  135.7590 C   0  0  0  0  0  2  0  0  0  0  0  0
  189.2250  177.5760  138.0050 C   0  0  1  0  0  0  0  0  0  0  0  0
  188.1100  178.6560  136.6800 C   0  0  0  0  0  2  0  0  0  0  0  0
  188.2630  177.2270  136.9440 N   0  0  0  0  0  0  0  0  0  0  0  0
  190.5910  177.1130  137.7690 N   0  0  0  0  0  1  0  0  0  0  0  0
  189.0960  179.0590  137.7630 C   0  0  0  0  0  2  0  0  0  0  0  0
  188.7200  177.1760  139.3860 C   0  0  0  0  0  2  0  0  0  0  0  0
  189.1180  178.1630  140.3770 N   0  0  0  0  0  2  0  0  0  0  0  0
  188.0030  178.3000  141.2980 C   0  0  0  0  0  1  0  0  0  0  0  0
  185.4810  178.2770  145.7240 C   0  0  0  0  0  0  0  0  0  0  0  0
  184.5440  178.5370  146.5220 O   0  0  0  0  0  0  0  0  0  0  0  0
  186.8050  177.8770  146.2930 C   0  0  0  0  0  2  0  0  0  0  0  0
  187.7050  177.4620  145.2270 N   0  0  0  0  0  2  0  0  0  0  0  0
  189.0040  177.1980  145.8280 C   0  0  0  0  0  2  0  0  0  0  0  0
  189.7170  176.4350  143.6860 F   0  0  0  0  0  0  0  0  0  0  0  0
  190.3400  178.5000  144.3520 F   0  0  0  0  0  0  0  0  0  0  0  0
  190.0990  177.2040  144.7710 C   0  0  0  0  0  0  0  0  0  0  0  0
  191.2550  176.6780  145.3130 F   0  0  0  0  0  0  0  0  0  0  0  0
  179.7480  175.8410  139.7830 F   0  0  0  0  0  0  0  0  0  0  0  0
  179.8540  176.7350  140.8380 C   0  0  0  0  0  2  0  0  0  0  0  0
  1 12  1  1  0  0  0
  1 11  1  0  0  0  0
  2 35  1  0  0  0  0
  4  8  1  0  0  0  0
  4 45  1  1  0  0  0
  4  5  1  0  0  0  0
  5  9  2  0  0  0  0
  5 11  1  0  0  0  0
  6  5  2  0  0  0  0
  7  3  1  0  0  0  0
  8 15  1  6  0  0  0
  8  1  1  0  0  0  0
 10  2  2  0  0  0  0
 10  3  1  0  0  0  0
 11  7  1  1  0  0  0
 12 10  1  0  0  0  0
 13 18  1  0  0  0  0
 14 15  1  0  0  0  0
 16 21  1  1  0  0  0
 16 19  1  0  0  0  0
 16 13  1  0  0  0  0
 17 15  2  0  0  0  0
 18 17  2  0  0  0  0
 19 20  1  0  0  0  0
 20 14  1  0  0  0  0
 21 24  1  0  0  0  0
 22 23  1  0  0  0  0
 22 24  1  0  0  0  0
 23 25  1  6  0  0  0
 23 24  1  0  0  0  0
 25 26  1  0  0  0  0
 26 29  1  0  0  0  0
 27 30  1  6  0  0  0
 27 32  1  0  0  0  0
 28 29  1  0  0  0  0
 28 31  1  0  0  0  0
 29 27  1  0  0  0  0
 31 27  1  0  0  0  0
 32 33  1  0  0  0  0
 33 34  1  0  0  0  0
 35 37  1  0  0  0  0
 35 36  2  0  0  0  0
 38 39  1  0  0  0  0
 38 37  1  0  0  0  0
 40 42  1  0  0  0  0
 41 42  1  0  0  0  0
 42 43  1  0  0  0  0
 42 39  1  0  0  0  0
 44 45  1  0  0  0  0
M  END
>  <MODEL>
3

>  <REMARK>
 VINA RESULT:      -7.1      3.950      7.227
  Name = 
  14 active torsions:
  status: ('A' for Active; 'I' for Inactive)
    1  A    between atoms: C_3  and  C_36
    2  A    between atoms: N_4  and  C_12
    3  A    between atoms: C_10  and  C_34
    4  A    between atoms: C_12  and  C_38
    5  A    between atoms: N_13  and  C_22
    6  A    between atoms: N_13  and  C_38
    7  A    between atoms: C_14  and  C_19
    8  A    between atoms: C_14  and  N_42
    9  A    between atoms: N_15  and  C_20
   10  A    between atoms: C_17  and  C_22
   11  A    between atoms: C_18  and  C_30
   12  A    between atoms: C_20  and  C_23
   13  A    between atoms: C_23  and  C_39
   14  A    between atoms: N_25  and  C_36
                            x       y       z     vdW  Elec       q    Type
                         _______ _______ _______ _____ _____    ______ ____

>  <TORSDO>
F 14

$$$$
=
 OpenBabel10222416483D

 45 49  0  0  1  0  0  0  0  0999 V2000
  181.9210  177.1040  139.6850 C   0  0  1  0  0  3  0  0  0  0  0  0
  183.9720  174.5440  137.8520 N   0  0  0  0  0  0  0  0  0  0  0  0
  181.9110  175.6600  137.1140 C   0  0  0  0  0  2  0  0  0  0  0  0
  181.3250  179.5180  139.5990 C   0  0  1  0  0  3  0  0  0  0  0  0
  179.9750  178.5280  139.0270 S   0  0  0  0  0  0  0  0  0  0  0  0
  178.9310  178.4040  140.1000 O   0  0  0  0  0  0  0  0  0  0  0  0
  181.2320  176.9820  137.4040 C   0  0  0  0  0  2  0  0  0  0  0  0
  182.4880  178.5390  139.7170 C   0  0  1  0  0  3  0  0  0  0  0  0
  179.3530  179.0530  137.7600 O   0  0  0  0  0  0  0  0  0  0  0  0
  183.0040  175.3780  138.1070 C   0  0  0  0  0  0  0  0  0  0  0  0
  180.7610  177.0090  138.7860 N   0  0  1  0  0  0  0  0  0  0  0  0
  182.9980  176.0270  139.4640 C   0  0  0  0  0  2  0  0  0  0  0  0
  183.3730  179.4210  144.3600 C   0  0  0  0  0  2  0  0  0  0  0  0
  184.7850  178.9880  140.8440 C   0  0  0  0  0  2  0  0  0  0  0  0
  183.2910  178.7990  140.9590 C   0  0  0  0  0  0  0  0  0  0  0  0
  184.6890  178.6220  144.4970 C   0  0  1  0  0  3  0  0  0  0  0  0
  182.7330  178.8010  142.1420 C   0  0  0  0  0  0  0  0  0  0  0  0
  182.3900  178.8270  143.3950 C   0  0  0  0  0  3  0  0  0  0  0  0
  185.3760  178.2110  143.1800 C   0  0  0  0  0  2  0  0  0  0  0  0
  185.4940  179.3500  142.1640 C   0  0  0  0  0  2  0  0  0  0  0  0
  185.6730  179.3780  145.3720 C   0  0  0  0  0  2  0  0  0  0  0  0
  185.8300  177.3450  146.5320 C   0  0  0  0  0  2  0  0  0  0  0  0
  186.9760  178.0920  147.0380 C   0  0  2  0  0  3  0  0  0  0  0  0
  185.7050  178.8000  146.7140 N   0  0  0  0  0  0  0  0  0  0  0  0
  188.0600  178.1720  145.9600 C   0  0  0  0  0  2  0  0  0  0  0  0
  189.4290  177.9240  146.5720 C   0  0  0  0  0  2  0  0  0  0  0  0
  191.2730  176.8220  145.3900 C   0  0  1  0  0  0  0  0  0  0  0  0
  190.7030  176.0560  147.1940 C   0  0  0  0  0  2  0  0  0  0  0  0
  189.9790  176.6620  146.0780 N   0  0  0  0  0  0  0  0  0  0  0  0
  191.6740  178.2080  145.1560 N   0  0  0  0  0  1  0  0  0  0  0  0
  192.0560  176.2030  146.5200 C   0  0  0  0  0  2  0  0  0  0  0  0
  191.3480  175.9860  144.1170 C   0  0  0  0  0  2  0  0  0  0  0  0
  191.5760  176.8400  142.9630 N   0  0  0  0  0  2  0  0  0  0  0  0
  190.5460  176.5130  141.9930 C   0  0  0  0  0  1  0  0  0  0  0  0
  184.1930  173.7450  136.6760 C   0  0  0  0  0  0  0  0  0  0  0  0
  183.5040  172.7050  136.5150 O   0  0  0  0  0  0  0  0  0  0  0  0
  185.1500  174.1350  135.5950 C   0  0  0  0  0  2  0  0  0  0  0  0
  185.6340  175.4900  135.8180 N   0  0  0  0  0  2  0  0  0  0  0  0
  186.8910  175.6300  135.0970 C   0  0  0  0  0  2  0  0  0  0  0  0
  186.7810  177.9920  134.7970 F   0  0  0  0  0  0  0  0  0  0  0  0
  187.5930  177.1940  136.7460 F   0  0  0  0  0  0  0  0  0  0  0  0
  187.5270  176.9830  135.3810 C   0  0  0  0  0  0  0  0  0  0  0  0
  188.8030  177.0040  134.8550 F   0  0  0  0  0  0  0  0  0  0  0  0
  183.0160  180.9450  138.6610 F   0  0  0  0  0  0  0  0  0  0  0  0
  181.6620  180.6500  138.6350 C   0  0  0  0  0  2  0  0  0  0  0  0
  1 12  1  6  0  0  0
  1  8  1  0  0  0  0
  2 10  2  0  0  0  0
  3  7  1  0  0  0  0
  3 10  1  0  0  0  0
  4 45  1  6  0  0  0
  4  8  1  0  0  0  0
  5  4  1  0  0  0  0
  5  6  2  0  0  0  0
  8 15  1  1  0  0  0
  9  5  2  0  0  0  0
 10 12  1  0  0  0  0
 11  7  1  6  0  0  0
 11  5  1  0  0  0  0
 11  1  1  0  0  0  0
 13 16  1  0  0  0  0
 14 15  1  0  0  0  0
 14 20  1  0  0  0  0
 15 17  2  0  0  0  0
 16 21  1  1  0  0  0
 17 18  2  0  0  0  0
 18 13  1  0  0  0  0
 19 16  1  0  0  0  0
 20 19  1  0  0  0  0
 21 24  1  0  0  0  0
 22 24  1  0  0  0  0
 22 23  1  0  0  0  0
 23 25  1  6  0  0  0
 24 23  1  0  0  0  0
 25 26  1  0  0  0  0
 27 30  1  6  0  0  0
 27 29  1  0  0  0  0
 27 31  1  0  0  0  0
 29 26  1  0  0  0  0
 29 28  1  0  0  0  0
 31 28  1  0  0  0  0
 32 27  1  0  0  0  0
 33 32  1  0  0  0  0
 34 33  1  0  0  0  0
 35  2  1  0  0  0  0
 36 35  2  0  0  0  0
 37 38  1  0  0  0  0
 37 35  1  0  0  0  0
 39 42  1  0  0  0  0
 39 38  1  0  0  0  0
 40 42  1  0  0  0  0
 42 41  1  0  0  0  0
 43 42  1  0  0  0  0
 45 44  1  0  0  0  0
M  END
>  <MODEL>
4

>  <REMARK>
 VINA RESULT:      -6.9      5.294      9.679
  Name = 
  14 active torsions:
  status: ('A' for Active; 'I' for Inactive)
    1  A    between atoms: C_3  and  C_36
    2  A    between atoms: N_4  and  C_12
    3  A    between atoms: C_10  and  C_34
    4  A    between atoms: C_12  and  C_38
    5  A    between atoms: N_13  and  C_22
    6  A    between atoms: N_13  and  C_38
    7  A    between atoms: C_14  and  C_19
    8  A    between atoms: C_14  and  N_42
    9  A    between atoms: N_15  and  C_20
   10  A    between atoms: C_17  and  C_22
   11  A    between atoms: C_18  and  C_30
   12  A    between atoms: C_20  and  C_23
   13  A    between atoms: C_23  and  C_39
   14  A    between atoms: N_25  and  C_36
                            x       y       z     vdW  Elec       q    Type
                         _______ _______ _______ _____ _____    ______ ____

>  <TORSDO>
F 14

$$$$
=
 OpenBabel10222416483D

 45 49  0  0  1  0  0  0  0  0999 V2000
  189.1070  178.3500  141.8900 C   0  0  1  0  0  3  0  0  0  0  0  0
  189.1330  176.5720  138.5800 N   0  0  0  0  0  0  0  0  0  0  0  0
  190.9690  176.8150  140.1950 C   0  0  0  0  0  2  0  0  0  0  0  0
  189.1920  177.8810  144.3310 C   0  0  1  0  0  3  0  0  0  0  0  0
  190.7510  178.4980  143.7660 S   0  0  0  0  0  0  0  0  0  0  0  0
  190.9000  179.9470  144.1340 O   0  0  0  0  0  0  0  0  0  0  0  0
  191.0740  177.0160  141.6920 C   0  0  0  0  0  2  0  0  0  0  0  0
  188.4030  177.6200  143.0520 C   0  0  1  0  0  3  0  0  0  0  0  0
  191.9230  177.7090  144.2900 O   0  0  0  0  0  0  0  0  0  0  0  0
  189.5670  177.0550  139.7090 C   0  0  0  0  0  0  0  0  0  0  0  0
  190.5680  178.3360  142.0570 N   0  0  1  0  0  0  0  0  0  0  0  0
  188.6120  177.9070  140.5010 C   0  0  0  0  0  2  0  0  0  0  0  0
  184.1480  178.3100  145.1800 C   0  0  0  0  0  2  0  0  0  0  0  0
  186.2260  178.5610  141.9930 C   0  0  0  0  0  2  0  0  0  0  0  0
  186.9720  178.0480  143.2030 C   0  0  0  0  0  0  0  0  0  0  0  0
  183.7620  179.6390  144.4930 C   0  0  1  0  0  3  0  0  0  0  0  0
  186.3800  178.0480  144.3690 C   0  0  0  0  0  0  0  0  0  0  0  0
  185.6190  178.1430  145.4170 C   0  0  0  0  0  3  0  0  0  0  0  0
  184.5760  180.0200  143.2420 C   0  0  0  0  0  2  0  0  0  0  0  0
  184.7380  178.8760  142.2380 C   0  0  0  0  0  2  0  0  0  0  0  0
  182.2800  179.6470  144.1590 C   0  0  0  0  0  2  0  0  0  0  0  0
  180.3870  178.2680  144.0240 C   0  0  0  0  0  2  0  0  0  0  0  0
  180.8760  178.2780  142.6490 C   0  0  2  0  0  3  0  0  0  0  0  0
  181.8390  178.3050  143.7870 N   0  0  0  0  0  0  0  0  0  0  0  0
  180.5880  179.6370  142.0060 C   0  0  0  0  0  2  0  0  0  0  0  0
  180.6570  179.5280  140.4930 C   0  0  0  0  0  2  0  0  0  0  0  0
  181.7750  177.8670  139.0770 C   0  0  1  0  0  0  0  0  0  0  0  0
  182.4820  179.7810  139.0410 C   0  0  0  0  0  2  0  0  0  0  0  0
  181.9280  178.9270  140.0900 N   0  0  0  0  0  0  0  0  0  0  0  0
  180.3920  177.4780  138.8030 N   0  0  0  0  0  1  0  0  0  0  0  0
  182.3390  178.7160  137.9670 C   0  0  0  0  0  2  0  0  0  0  0  0
  182.6550  176.6590  139.3770 C   0  0  0  0  0  2  0  0  0  0  0  0
  183.5690  176.4110  138.2740 N   0  0  0  0  0  2  0  0  0  0  0  0
  183.4750  174.9950  137.9660 C   0  0  0  0  0  1  0  0  0  0  0  0
  189.8380  175.7860  137.6020 C   0  0  0  0  0  0  0  0  0  0  0  0
  190.1260  174.5930  137.8790 O   0  0  0  0  0  0  0  0  0  0  0  0
  190.1750  176.2960  136.2370 C   0  0  0  0  0  2  0  0  0  0  0  0
  189.3820  177.4780  135.9330 N   0  0  0  0  0  2  0  0  0  0  0  0
  188.1360  177.0260  135.3300 C   0  0  0  0  0  2  0  0  0  0  0  0
  187.3530  178.7730  136.7500 F   0  0  0  0  0  0  0  0  0  0  0  0
  186.6830  178.7600  134.5940 F   0  0  0  0  0  0  0  0  0  0  0  0
  186.9930  177.9670  135.6840 C   0  0  0  0  0  0  0  0  0  0  0  0
  185.8850  177.2220  136.0350 F   0  0  0  0  0  0  0  0  0  0  0  0
  188.7350  176.7340  146.3930 F   0  0  0  0  0  0  0  0  0  0  0  0
  189.3380  176.6050  145.1510 C   0  0  0  0  0  2  0  0  0  0  0  0
  1 12  1  6  0  0  0
  1 11  1  0  0  0  0
  1  8  1  0  0  0  0
  2 10  2  0  0  0  0
  3  7  1  0  0  0  0
  4 45  1  6  0  0  0
  5  6  2  0  0  0  0
  5  9  2  0  0  0  0
  5  4  1  0  0  0  0
  8 15  1  1  0  0  0
  8  4  1  0  0  0  0
 10  3  1  0  0  0  0
 10 12  1  0  0  0  0
 11  7  1  1  0  0  0
 11  5  1  0  0  0  0
 13 18  1  0  0  0  0
 14 20  1  0  0  0  0
 14 15  1  0  0  0  0
 15 17  2  0  0  0  0
 16 21  1  6  0  0  0
 16 13  1  0  0  0  0
 17 18  2  0  0  0  0
 19 16  1  0  0  0  0
 20 19  1  0  0  0  0
 23 25  1  6  0  0  0
 23 24  1  0  0  0  0
 23 22  1  0  0  0  0
 24 22  1  0  0  0  0
 24 21  1  0  0  0  0
 26 25  1  0  0  0  0
 27 30  1  6  0  0  0
 27 32  1  0  0  0  0
 27 29  1  0  0  0  0
 28 29  1  0  0  0  0
 29 26  1  0  0  0  0
 31 28  1  0  0  0  0
 31 27  1  0  0  0  0
 33 32  1  0  0  0  0
 34 33  1  0  0  0  0
 35 36  2  0  0  0  0
 35  2  1  0  0  0  0
 37 35  1  0  0  0  0
 38 37  1  0  0  0  0
 39 42  1  0  0  0  0
 39 38  1  0  0  0  0
 41 42  1  0  0  0  0
 42 43  1  0  0  0  0
 42 40  1  0  0  0  0
 45 44  1  0  0  0  0
M  END
>  <MODEL>
5

>  <REMARK>
 VINA RESULT:      -6.9      3.361      8.760
  Name = 
  14 active torsions:
  status: ('A' for Active; 'I' for Inactive)
    1  A    between atoms: C_3  and  C_36
    2  A    between atoms: N_4  and  C_12
    3  A    between atoms: C_10  and  C_34
    4  A    between atoms: C_12  and  C_38
    5  A    between atoms: N_13  and  C_22
    6  A    between atoms: N_13  and  C_38
    7  A    between atoms: C_14  and  C_19
    8  A    between atoms: C_14  and  N_42
    9  A    between atoms: N_15  and  C_20
   10  A    between atoms: C_17  and  C_22
   11  A    between atoms: C_18  and  C_30
   12  A    between atoms: C_20  and  C_23
   13  A    between atoms: C_23  and  C_39
   14  A    between atoms: N_25  and  C_36
                            x       y       z     vdW  Elec       q    Type
                         _______ _______ _______ _____ _____    ______ ____

>  <TORSDO>
F 14

$$$$
=
 OpenBabel10222416483D

 45 49  0  0  1  0  0  0  0  0999 V2000
  181.8820  177.0810  139.5760 C   0  0  1  0  0  3  0  0  0  0  0  0
  183.8640  174.3620  137.9060 N   0  0  0  0  0  0  0  0  0  0  0  0
  181.8470  175.5000  137.0870 C   0  0  0  0  0  2  0  0  0  0  0  0
  181.3630  179.5040  139.3540 C   0  0  1  0  0  3  0  0  0  0  0  0
  179.9870  178.5270  138.8230 S   0  0  0  0  0  0  0  0  0  0  0  0
  178.9310  178.4950  139.8920 O   0  0  0  0  0  0  0  0  0  0  0  0
  181.2080  176.8570  137.2990 C   0  0  0  0  0  2  0  0  0  0  0  0
  182.4940  178.4960  139.5370 C   0  0  1  0  0  3  0  0  0  0  0  0
  179.3930  179.0020  137.5230 O   0  0  0  0  0  0  0  0  0  0  0  0
  182.9210  175.2380  138.1050 C   0  0  0  0  0  0  0  0  0  0  0  0
  180.7260  176.9740  138.6730 N   0  0  1  0  0  0  0  0  0  0  0  0
  182.9250  175.9590  139.4250 C   0  0  0  0  0  2  0  0  0  0  0  0
  183.3680  179.6090  144.1320 C   0  0  0  0  0  2  0  0  0  0  0  0
  184.7950  178.9280  140.6620 C   0  0  0  0  0  2  0  0  0  0  0  0
  183.2940  178.7980  140.7710 C   0  0  0  0  0  0  0  0  0  0  0  0
  184.6530  178.7740  144.3290 C   0  0  1  0  0  3  0  0  0  0  0  0
  182.7260  178.8870  141.9460 C   0  0  0  0  0  0  0  0  0  0  0  0
  182.3730  178.9970  143.1910 C   0  0  0  0  0  3  0  0  0  0  0  0
  185.3370  178.2650  143.0450 C   0  0  0  0  0  2  0  0  0  0  0  0
  185.5040  179.3390  141.9670 C   0  0  0  0  0  2  0  0  0  0  0  0
  185.6560  179.5430  145.1700 C   0  0  0  0  0  2  0  0  0  0  0  0
  184.9700  177.9090  146.7070 C   0  0  0  0  0  2  0  0  0  0  0  0
  186.2940  178.2740  147.1980 C   0  0  2  0  0  3  0  0  0  0  0  0
  185.4080  179.3090  146.5910 N   0  0  0  0  0  0  0  0  0  0  0  0
  187.3670  177.7060  146.2650 C   0  0  0  0  0  2  0  0  0  0  0  0
  188.7260  177.7460  146.9410 C   0  0  0  0  0  2  0  0  0  0  0  0
  190.4380  177.1460  145.2910 C   0  0  1  0  0  0  0  0  0  0  0  0
  190.7830  176.6580  147.2430 C   0  0  0  0  0  2  0  0  0  0  0  0
  189.5860  176.6910  146.4040 N   0  0  0  0  0  0  0  0  0  0  0  0
  190.1400  178.4910  144.8020 N   0  0  0  0  0  1  0  0  0  0  0  0
  191.6950  177.1270  146.1230 C   0  0  0  0  0  2  0  0  0  0  0  0
  190.4870  176.1270  144.1580 C   0  0  0  0  0  2  0  0  0  0  0  0
  189.8330  176.6560  142.9720 N   0  0  0  0  0  2  0  0  0  0  0  0
  188.4200  176.3520  143.1050 C   0  0  0  0  0  1  0  0  0  0  0  0
  184.0690  173.4930  136.7770 C   0  0  0  0  0  0  0  0  0  0  0  0
  184.4510  173.9970  135.6890 O   0  0  0  0  0  0  0  0  0  0  0  0
  183.9260  172.0070  136.8560 C   0  0  0  0  0  2  0  0  0  0  0  0
  183.2950  171.4990  135.6470 N   0  0  0  0  0  2  0  0  0  0  0  0
  182.1890  170.6440  136.0560 C   0  0  0  0  0  2  0  0  0  0  0  0
  180.6060  171.6660  137.5140 F   0  0  0  0  0  0  0  0  0  0  0  0
  181.0450  172.6640  135.5380 F   0  0  0  0  0  0  0  0  0  0  0  0
  180.9030  171.4480  136.1810 C   0  0  0  0  0  0  0  0  0  0  0  0
  179.8690  170.7430  135.5970 F   0  0  0  0  0  0  0  0  0  0  0  0
  181.7910  181.8280  138.9160 F   0  0  0  0  0  0  0  0  0  0  0  0
  181.7440  180.5700  138.3340 C   0  0  0  0  0  2  0  0  0  0  0  0
  1 12  1  6  0  0  0
  2 10  2  0  0  0  0
  3  7  1  0  0  0  0
  3 10  1  0  0  0  0
  4 45  1  6  0  0  0
  4  8  1  0  0  0  0
  5  4  1  0  0  0  0
  5  6  2  0  0  0  0
  8  1  1  0  0  0  0
  8 15  1  1  0  0  0
  9  5  2  0  0  0  0
 10 12  1  0  0  0  0
 11  7  1  6  0  0  0
 11  5  1  0  0  0  0
 11  1  1  0  0  0  0
 13 16  1  0  0  0  0
 14 15  1  0  0  0  0
 14 20  1  0  0  0  0
 15 17  2  0  0  0  0
 16 21  1  6  0  0  0
 17 18  2  0  0  0  0
 18 13  1  0  0  0  0
 19 16  1  0  0  0  0
 20 19  1  0  0  0  0
 21 24  1  0  0  0  0
 22 23  1  0  0  0  0
 23 25  1  6  0  0  0
 24 22  1  0  0  0  0
 24 23  1  0  0  0  0
 25 26  1  0  0  0  0
 27 30  1  6  0  0  0
 27 31  1  0  0  0  0
 27 29  1  0  0  0  0
 29 26  1  0  0  0  0
 29 28  1  0  0  0  0
 31 28  1  0  0  0  0
 32 27  1  0  0  0  0
 33 34  1  0  0  0  0
 33 32  1  0  0  0  0
 35 37  1  0  0  0  0
 35  2  1  0  0  0  0
 36 35  2  0  0  0  0
 38 39  1  0  0  0  0
 38 37  1  0  0  0  0
 39 42  1  0  0  0  0
 41 42  1  0  0  0  0
 42 40  1  0  0  0  0
 43 42  1  0  0  0  0
 45 44  1  0  0  0  0
M  END
>  <MODEL>
6

>  <REMARK>
 VINA RESULT:      -6.8      6.156     10.105
  Name = 
  14 active torsions:
  status: ('A' for Active; 'I' for Inactive)
    1  A    between atoms: C_3  and  C_36
    2  A    between atoms: N_4  and  C_12
    3  A    between atoms: C_10  and  C_34
    4  A    between atoms: C_12  and  C_38
    5  A    between atoms: N_13  and  C_22
    6  A    between atoms: N_13  and  C_38
    7  A    between atoms: C_14  and  C_19
    8  A    between atoms: C_14  and  N_42
    9  A    between atoms: N_15  and  C_20
   10  A    between atoms: C_17  and  C_22
   11  A    between atoms: C_18  and  C_30
   12  A    between atoms: C_20  and  C_23
   13  A    between atoms: C_23  and  C_39
   14  A    between atoms: N_25  and  C_36
                            x       y       z     vdW  Elec       q    Type
                         _______ _______ _______ _____ _____    ______ ____

>  <TORSDO>
F 14

$$$$
=
 OpenBabel10222416483D

 45 49  0  0  1  0  0  0  0  0999 V2000
  189.1260  178.2960  141.8010 C   0  0  1  0  0  3  0  0  0  0  0  0
  189.1020  176.4790  138.5130 N   0  0  0  0  0  0  0  0  0  0  0  0
  190.9630  176.7450  140.0940 C   0  0  0  0  0  2  0  0  0  0  0  0
  189.2530  177.8570  144.2470 C   0  0  1  0  0  3  0  0  0  0  0  0
  190.8000  178.4690  143.6480 S   0  0  0  0  0  0  0  0  0  0  0  0
  190.9530  179.9240  143.9970 O   0  0  0  0  0  0  0  0  0  0  0  0
  191.0920  176.9630  141.5870 C   0  0  0  0  0  2  0  0  0  0  0  0
  188.4430  177.5790  142.9840 C   0  0  1  0  0  3  0  0  0  0  0  0
  191.9820  177.6890  144.1620 O   0  0  0  0  0  0  0  0  0  0  0  0
  189.5520  176.9760  139.6290 C   0  0  0  0  0  0  0  0  0  0  0  0
  190.5900  178.2870  141.9450 N   0  0  1  0  0  0  0  0  0  0  0  0
  188.6090  177.8350  140.4260 C   0  0  0  0  0  2  0  0  0  0  0  0
  184.2110  178.2560  145.1620 C   0  0  0  0  0  2  0  0  0  0  0  0
  186.2550  178.5270  141.9540 C   0  0  0  0  0  2  0  0  0  0  0  0
  187.0140  178.0070  143.1520 C   0  0  0  0  0  0  0  0  0  0  0  0
  183.8180  179.5900  144.4880 C   0  0  1  0  0  3  0  0  0  0  0  0
  186.4340  177.9990  144.3250 C   0  0  0  0  0  0  0  0  0  0  0  0
  185.6850  178.0880  145.3820 C   0  0  0  0  0  3  0  0  0  0  0  0
  184.6190  179.9790  143.2310 C   0  0  0  0  0  2  0  0  0  0  0  0
  184.7690  178.8410  142.2180 C   0  0  0  0  0  2  0  0  0  0  0  0
  182.3330  179.6000  144.1710 C   0  0  0  0  0  2  0  0  0  0  0  0
  180.4330  178.2450  143.9310 C   0  0  0  0  0  2  0  0  0  0  0  0
  180.9840  178.2670  142.5800 C   0  0  2  0  0  3  0  0  0  0  0  0
  181.8940  178.2690  143.7610 N   0  0  0  0  0  0  0  0  0  0  0  0
  180.7400  179.6370  141.9430 C   0  0  0  0  0  2  0  0  0  0  0  0
  180.5660  179.4950  140.4410 C   0  0  0  0  0  2  0  0  0  0  0  0
  181.9590  178.2270  138.8710 C   0  0  1  0  0  0  0  0  0  0  0  0
  181.8440  180.2500  138.6240 C   0  0  0  0  0  2  0  0  0  0  0  0
  181.8730  179.3740  139.7940 N   0  0  0  0  0  0  0  0  0  0  0  0
  180.8130  177.3200  138.9130 N   0  0  0  0  0  1  0  0  0  0  0  0
  181.9310  179.0960  137.6400 C   0  0  0  0  0  2  0  0  0  0  0  0
  183.2800  177.4800  139.0140 C   0  0  0  0  0  2  0  0  0  0  0  0
  184.1200  177.7080  137.8480 N   0  0  0  0  0  2  0  0  0  0  0  0
  185.3740  178.2490  138.3390 C   0  0  0  0  0  1  0  0  0  0  0  0
  189.7910  175.6820  137.5330 C   0  0  0  0  0  0  0  0  0  0  0  0
  189.7780  174.4300  137.6540 O   0  0  0  0  0  0  0  0  0  0  0  0
  190.4580  176.2690  136.3300 C   0  0  0  0  0  2  0  0  0  0  0  0
  191.7370  175.6130  136.0960 N   0  0  0  0  0  2  0  0  0  0  0  0
  192.7460  176.3340  136.8580 C   0  0  0  0  0  2  0  0  0  0  0  0
  193.9020  175.9710  138.9100 F   0  0  0  0  0  0  0  0  0  0  0  0
  192.8410  174.2240  137.9530 F   0  0  0  0  0  0  0  0  0  0  0  0
  193.5670  175.3750  137.7070 C   0  0  0  0  0  0  0  0  0  0  0  0
  194.7250  175.0470  137.0290 F   0  0  0  0  0  0  0  0  0  0  0  0
  188.8960  176.7580  146.3540 F   0  0  0  0  0  0  0  0  0  0  0  0
  189.4130  176.5900  145.0790 C   0  0  0  0  0  2  0  0  0  0  0  0
  1 12  1  6  0  0  0
  1 11  1  0  0  0  0
  1  8  1  0  0  0  0
  2 10  2  0  0  0  0
  3  7  1  0  0  0  0
  4 45  1  6  0  0  0
  5  6  2  0  0  0  0
  5  9  2  0  0  0  0
  5  4  1  0  0  0  0
  8 15  1  1  0  0  0
  8  4  1  0  0  0  0
 10  3  1  0  0  0  0
 10 12  1  0  0  0  0
 11  7  1  1  0  0  0
 11  5  1  0  0  0  0
 13 18  1  0  0  0  0
 14 20  1  0  0  0  0
 14 15  1  0  0  0  0
 15 17  2  0  0  0  0
 16 21  1  6  0  0  0
 16 13  1  0  0  0  0
 17 18  2  0  0  0  0
 19 16  1  0  0  0  0
 20 19  1  0  0  0  0
 23 25  1  1  0  0  0
 23 24  1  0  0  0  0
 23 22  1  0  0  0  0
 24 22  1  0  0  0  0
 24 21  1  0  0  0  0
 26 25  1  0  0  0  0
 27 30  1  1  0  0  0
 27 32  1  0  0  0  0
 27 29  1  0  0  0  0
 28 29  1  0  0  0  0
 29 26  1  0  0  0  0
 31 28  1  0  0  0  0
 31 27  1  0  0  0  0
 33 34  1  0  0  0  0
 33 32  1  0  0  0  0
 35 36  2  0  0  0  0
 35  2  1  0  0  0  0
 37 35  1  0  0  0  0
 38 37  1  0  0  0  0
 38 39  1  0  0  0  0
 39 42  1  0  0  0  0
 42 41  1  0  0  0  0
 42 40  1  0  0  0  0
 43 42  1  0  0  0  0
 45 44  1  0  0  0  0
M  END
>  <MODEL>
7

>  <REMARK>
 VINA RESULT:      -6.8      3.494      9.226
  Name = 
  14 active torsions:
  status: ('A' for Active; 'I' for Inactive)
    1  A    between atoms: C_3  and  C_36
    2  A    between atoms: N_4  and  C_12
    3  A    between atoms: C_10  and  C_34
    4  A    between atoms: C_12  and  C_38
    5  A    between atoms: N_13  and  C_22
    6  A    between atoms: N_13  and  C_38
    7  A    between atoms: C_14  and  C_19
    8  A    between atoms: C_14  and  N_42
    9  A    between atoms: N_15  and  C_20
   10  A    between atoms: C_17  and  C_22
   11  A    between atoms: C_18  and  C_30
   12  A    between atoms: C_20  and  C_23
   13  A    between atoms: C_23  and  C_39
   14  A    between atoms: N_25  and  C_36
                            x       y       z     vdW  Elec       q    Type
                         _______ _______ _______ _____ _____    ______ ____

>  <TORSDO>
F 14

$$$$
=
 OpenBabel10222416483D

 45 49  0  0  1  0  0  0  0  0999 V2000
  189.1240  178.2640  141.7640 C   0  0  1  0  0  3  0  0  0  0  0  0
  189.0930  176.4420  138.4780 N   0  0  0  0  0  0  0  0  0  0  0  0
  190.9440  176.6700  140.0780 C   0  0  0  0  0  2  0  0  0  0  0  0
  189.2170  177.8250  144.2110 C   0  0  1  0  0  3  0  0  0  0  0  0
  190.7840  178.4030  143.6280 S   0  0  0  0  0  0  0  0  0  0  0  0
  190.9640  179.8540  143.9760 O   0  0  0  0  0  0  0  0  0  0  0  0
  191.0630  176.8880  141.5720 C   0  0  0  0  0  2  0  0  0  0  0  0
  188.4140  177.5630  142.9410 C   0  0  1  0  0  3  0  0  0  0  0  0
  191.9430  177.5970  144.1540 O   0  0  0  0  0  0  0  0  0  0  0  0
  189.5430  176.9320  139.5980 C   0  0  0  0  0  0  0  0  0  0  0  0
  190.5860  178.2220  141.9230 N   0  0  1  0  0  0  0  0  0  0  0  0
  188.6110  177.8120  140.3850 C   0  0  0  0  0  2  0  0  0  0  0  0
  184.1470  178.2560  145.0460 C   0  0  0  0  0  2  0  0  0  0  0  0
  186.2790  178.6180  141.9040 C   0  0  0  0  0  2  0  0  0  0  0  0
  186.9930  178.0220  143.0950 C   0  0  0  0  0  0  0  0  0  0  0  0
  183.8070  179.6300  144.4260 C   0  0  1  0  0  3  0  0  0  0  0  0
  186.3840  177.9760  144.2520 C   0  0  0  0  0  0  0  0  0  0  0  0
  185.6100  178.0370  145.2930 C   0  0  0  0  0  3  0  0  0  0  0  0
  184.6500  180.0540  143.2080 C   0  0  0  0  0  2  0  0  0  0  0  0
  184.7960  178.9600  142.1460 C   0  0  0  0  0  2  0  0  0  0  0  0
  182.3310  179.6960  144.0730 C   0  0  0  0  0  2  0  0  0  0  0  0
  180.3380  178.4640  143.9640 C   0  0  0  0  0  2  0  0  0  0  0  0
  180.9350  178.2250  142.6540 C   0  0  2  0  0  3  0  0  0  0  0  0
  181.8020  178.3510  143.8610 N   0  0  0  0  0  0  0  0  0  0  0  0
  180.8240  179.4880  141.7960 C   0  0  0  0  0  2  0  0  0  0  0  0
  181.3100  179.2090  140.3840 C   0  0  0  0  0  2  0  0  0  0  0  0
  181.4910  180.8050  138.5320 C   0  0  1  0  0  0  0  0  0  0  0  0
  180.2480  179.2040  138.2930 C   0  0  0  0  0  2  0  0  0  0  0  0
  180.5940  180.0550  139.4300 N   0  0  0  0  0  0  0  0  0  0  0  0
  182.9100  180.7220  138.8760 N   0  0  0  0  0  1  0  0  0  0  0  0
  181.1620  179.9500  137.3360 C   0  0  0  0  0  2  0  0  0  0  0  0
  181.0350  182.2480  138.3470 C   0  0  0  0  0  2  0  0  0  0  0  0
  180.7190  182.5040  136.9510 N   0  0  0  0  0  2  0  0  0  0  0  0
  181.1800  183.8490  136.6600 C   0  0  0  0  0  1  0  0  0  0  0  0
  189.7750  175.6300  137.5060 C   0  0  0  0  0  0  0  0  0  0  0  0
  189.7000  174.3780  137.6070 O   0  0  0  0  0  0  0  0  0  0  0  0
  190.5040  176.2030  136.3330 C   0  0  0  0  0  2  0  0  0  0  0  0
  191.9120  176.3790  136.6560 N   0  0  0  0  0  2  0  0  0  0  0  0
  192.6550  175.3390  135.9590 C   0  0  0  0  0  2  0  0  0  0  0  0
  192.8990  174.4640  138.1620 F   0  0  0  0  0  0  0  0  0  0  0  0
  193.7490  173.2820  136.4380 F   0  0  0  0  0  0  0  0  0  0  0  0
  193.5240  174.5540  136.9310 C   0  0  0  0  0  0  0  0  0  0  0  0
  194.7330  175.2030  137.0860 F   0  0  0  0  0  0  0  0  0  0  0  0
  189.8230  176.8360  146.3170 F   0  0  0  0  0  0  0  0  0  0  0  0
  189.3420  176.5560  145.0470 C   0  0  0  0  0  2  0  0  0  0  0  0
  1 12  1  6  0  0  0
  1 11  1  0  0  0  0
  1  8  1  0  0  0  0
  2 10  2  0  0  0  0
  3  7  1  0  0  0  0
  4 45  1  6  0  0  0
  5  6  2  0  0  0  0
  5  9  2  0  0  0  0
  5  4  1  0  0  0  0
  8 15  1  1  0  0  0
  8  4  1  0  0  0  0
 10  3  1  0  0  0  0
 10 12  1  0  0  0  0
 11  7  1  1  0  0  0
 11  5  1  0  0  0  0
 13 18  1  0  0  0  0
 14 20  1  0  0  0  0
 14 15  1  0  0  0  0
 15 17  2  0  0  0  0
 16 21  1  6  0  0  0
 16 13  1  0  0  0  0
 17 18  2  0  0  0  0
 19 16  1  0  0  0  0
 20 19  1  0  0  0  0
 23 25  1  6  0  0  0
 23 24  1  0  0  0  0
 23 22  1  0  0  0  0
 24 22  1  0  0  0  0
 24 21  1  0  0  0  0
 26 25  1  0  0  0  0
 27 30  1  1  0  0  0
 27 29  1  0  0  0  0
 28 29  1  0  0  0  0
 29 26  1  0  0  0  0
 31 28  1  0  0  0  0
 31 27  1  0  0  0  0
 32 27  1  0  0  0  0
 33 32  1  0  0  0  0
 34 33  1  0  0  0  0
 35 36  2  0  0  0  0
 35  2  1  0  0  0  0
 37 38  1  0  0  0  0
 37 35  1  0  0  0  0
 39 38  1  0  0  0  0
 39 42  1  0  0  0  0
 41 42  1  0  0  0  0
 42 43  1  0  0  0  0
 42 40  1  0  0  0  0
 45 44  1  0  0  0  0
M  END
>  <MODEL>
8

>  <REMARK>
 VINA RESULT:      -6.4      4.024      9.917
  Name = 
  14 active torsions:
  status: ('A' for Active; 'I' for Inactive)
    1  A    between atoms: C_3  and  C_36
    2  A    between atoms: N_4  and  C_12
    3  A    between atoms: C_10  and  C_34
    4  A    between atoms: C_12  and  C_38
    5  A    between atoms: N_13  and  C_22
    6  A    between atoms: N_13  and  C_38
    7  A    between atoms: C_14  and  C_19
    8  A    between atoms: C_14  and  N_42
    9  A    between atoms: N_15  and  C_20
   10  A    between atoms: C_17  and  C_22
   11  A    between atoms: C_18  and  C_30
   12  A    between atoms: C_20  and  C_23
   13  A    between atoms: C_23  and  C_39
   14  A    between atoms: N_25  and  C_36
                            x       y       z     vdW  Elec       q    Type
                         _______ _______ _______ _____ _____    ______ ____

>  <TORSDO>
F 14

$$$$
=
 OpenBabel10222416483D

 45 49  0  0  1  0  0  0  0  0999 V2000
  189.1620  178.2780  141.9490 C   0  0  1  0  0  3  0  0  0  0  0  0
  189.2450  176.5800  138.5990 N   0  0  0  0  0  0  0  0  0  0  0  0
  191.0440  176.7590  140.2620 C   0  0  0  0  0  2  0  0  0  0  0  0
  189.1820  177.7490  144.3800 C   0  0  1  0  0  3  0  0  0  0  0  0
  190.7620  178.3580  143.8670 S   0  0  0  0  0  0  0  0  0  0  0  0
  190.9220  179.7960  144.2740 O   0  0  0  0  0  0  0  0  0  0  0  0
  191.1160  176.9210  141.7660 C   0  0  0  0  0  2  0  0  0  0  0  0
  188.4210  177.5300  143.0770 C   0  0  1  0  0  3  0  0  0  0  0  0
  191.9100  177.5400  144.3990 O   0  0  0  0  0  0  0  0  0  0  0  0
  189.6570  177.0300  139.7500 C   0  0  0  0  0  0  0  0  0  0  0  0
  190.6190  178.2390  142.1510 N   0  0  1  0  0  0  0  0  0  0  0  0
  188.6950  177.8750  140.5390 C   0  0  0  0  0  2  0  0  0  0  0  0
  184.2130  178.4900  145.1940 C   0  0  0  0  0  2  0  0  0  0  0  0
  186.2180  178.3270  141.9540 C   0  0  0  0  0  2  0  0  0  0  0  0
  186.9920  177.9750  143.2030 C   0  0  0  0  0  0  0  0  0  0  0  0
  183.8080  179.7200  144.3500 C   0  0  1  0  0  3  0  0  0  0  0  0
  186.4270  178.1260  144.3730 C   0  0  0  0  0  0  0  0  0  0  0  0
  185.6900  178.3550  145.4170 C   0  0  0  0  0  3  0  0  0  0  0  0
  184.5930  179.9360  143.0420 C   0  0  0  0  0  2  0  0  0  0  0  0
  184.7350  178.6720  142.1910 C   0  0  0  0  0  2  0  0  0  0  0  0
  182.3190  179.6860  144.0520 C   0  0  0  0  0  2  0  0  0  0  0  0
  180.3980  178.3430  143.9550 C   0  0  0  0  0  2  0  0  0  0  0  0
  181.0420  178.0730  142.6750 C   0  0  2  0  0  3  0  0  0  0  0  0
  181.8680  178.3050  143.8950 N   0  0  0  0  0  0  0  0  0  0  0  0
  180.8880  179.2850  141.7520 C   0  0  0  0  0  2  0  0  0  0  0  0
  181.0530  178.8660  140.3010 C   0  0  0  0  0  2  0  0  0  0  0  0
  181.0810  180.5490  138.5190 C   0  0  1  0  0  0  0  0  0  0  0  0
  179.8630  178.9290  138.2810 C   0  0  0  0  0  2  0  0  0  0  0  0
  180.2590  179.7360  139.4330 N   0  0  0  0  0  0  0  0  0  0  0  0
  182.5200  180.4870  138.7700 N   0  0  0  0  0  1  0  0  0  0  0  0
  180.6970  179.7410  137.3050 C   0  0  0  0  0  2  0  0  0  0  0  0
  180.5820  181.9860  138.4300 C   0  0  0  0  0  2  0  0  0  0  0  0
  181.1400  182.6460  137.2600 N   0  0  0  0  0  2  0  0  0  0  0  0
  180.0360  183.3090  136.5900 C   0  0  0  0  0  1  0  0  0  0  0  0
  189.9620  175.8080  137.6190 C   0  0  0  0  0  0  0  0  0  0  0  0
  190.4890  174.7210  137.9730 O   0  0  0  0  0  0  0  0  0  0  0  0
  190.0450  176.1960  136.1770 C   0  0  0  0  0  2  0  0  0  0  0  0
  189.4210  177.4960  135.9720 N   0  0  0  0  0  2  0  0  0  0  0  0
  188.2250  177.2860  135.1680 C   0  0  0  0  0  2  0  0  0  0  0  0
  187.2350  179.0470  136.4310 F   0  0  0  0  0  0  0  0  0  0  0  0
  185.9250  177.8730  135.0180 F   0  0  0  0  0  0  0  0  0  0  0  0
  186.9900  177.7950  135.8960 C   0  0  0  0  0  0  0  0  0  0  0  0
  186.6740  176.9220  136.9190 F   0  0  0  0  0  0  0  0  0  0  0  0
  189.3840  176.7000  146.5330 F   0  0  0  0  0  0  0  0  0  0  0  0
  189.2900  176.4520  145.1720 C   0  0  0  0  0  2  0  0  0  0  0  0
  1 12  1  6  0  0  0
  1 11  1  0  0  0  0
  1  8  1  0  0  0  0
  2 10  2  0  0  0  0
  3  7  1  0  0  0  0
  4 45  1  6  0  0  0
  5  6  2  0  0  0  0
  5  4  1  0  0  0  0
  5  9  2  0  0  0  0
  8 15  1  1  0  0  0
  8  4  1  0  0  0  0
 10  3  1  0  0  0  0
 10 12  1  0  0  0  0
 11  7  1  1  0  0  0
 11  5  1  0  0  0  0
 13 18  1  0  0  0  0
 14 20  1  0  0  0  0
 14 15  1  0  0  0  0
 15 17  2  0  0  0  0
 16 21  1  6  0  0  0
 16 13  1  0  0  0  0
 17 18  2  0  0  0  0
 19 16  1  0  0  0  0
 20 19  1  0  0  0  0
 23 25  1  6  0  0  0
 23 24  1  0  0  0  0
 23 22  1  0  0  0  0
 24 22  1  0  0  0  0
 24 21  1  0  0  0  0
 26 25  1  0  0  0  0
 27 30  1  1  0  0  0
 27 29  1  0  0  0  0
 28 29  1  0  0  0  0
 29 26  1  0  0  0  0
 31 28  1  0  0  0  0
 31 27  1  0  0  0  0
 32 27  1  0  0  0  0
 33 32  1  0  0  0  0
 34 33  1  0  0  0  0
 35 36  2  0  0  0  0
 35  2  1  0  0  0  0
 37 35  1  0  0  0  0
 38 37  1  0  0  0  0
 39 42  1  0  0  0  0
 39 38  1  0  0  0  0
 41 42  1  0  0  0  0
 42 40  1  0  0  0  0
 42 43  1  0  0  0  0
 45 44  1  0  0  0  0
M  END
>  <MODEL>
9

>  <REMARK>
 VINA RESULT:      -6.3      3.578      9.414
  Name = 
  14 active torsions:
  status: ('A' for Active; 'I' for Inactive)
    1  A    between atoms: C_3  and  C_36
    2  A    between atoms: N_4  and  C_12
    3  A    between atoms: C_10  and  C_34
    4  A    between atoms: C_12  and  C_38
    5  A    between atoms: N_13  and  C_22
    6  A    between atoms: N_13  and  C_38
    7  A    between atoms: C_14  and  C_19
    8  A    between atoms: C_14  and  N_42
    9  A    between atoms: N_15  and  C_20
   10  A    between atoms: C_17  and  C_22
   11  A    between atoms: C_18  and  C_30
   12  A    between atoms: C_20  and  C_23
   13  A    between atoms: C_23  and  C_39
   14  A    between atoms: N_25  and  C_36
                            x       y       z     vdW  Elec       q    Type
                         _______ _______ _______ _____ _____    ______ ____

>  <TORSDO>
F 14

$$$$
