=
 OpenBabel10222418483D

 29 31  0  0  1  0  0  0  0  0999 V2000
  187.4320  178.6680  141.6700 N   0  0  0  0  0  0  0  0  0  0  0  0
  186.0190  178.9650  141.4750 C   0  0  0  0  0  2  0  0  0  0  0  0
  185.2200  178.5370  142.6970 C   0  0  2  0  0  3  0  0  0  0  0  0
  184.0290  177.9260  142.3000 O   0  0  0  0  0  1  0  0  0  0  0  0
  184.9350  179.7090  143.6380 C   0  0  0  0  0  2  0  0  0  0  0  0
  184.7630  179.2770  145.0600 C   0  0  0  0  0  0  0  0  0  0  0  0
  183.4950  179.0090  145.5570 O   0  0  0  0  0  0  0  0  0  0  0  0
  185.7660  179.1750  145.8120 O   0  0  0  0  0  1  0  0  0  0  0  0
  187.5240  177.4090  142.4000 C   0  0  0  0  0  2  0  0  0  0  0  0
  190.3850  177.0690  146.0440 C   0  0  0  0  0  0  0  0  0  0  0  0
  189.8460  176.5990  142.8360 C   0  0  2  0  0  3  0  0  0  0  0  0
  192.0240  177.9310  142.8540 C   0  0  0  0  0  2  0  0  0  0  0  0
  190.6320  175.8390  143.9110 C   0  0  0  0  0  2  0  0  0  0  0  0
  190.7990  177.4980  142.0360 C   0  0  0  0  0  2  0  0  0  0  0  0
  188.2060  177.0530  144.7810 C   0  0  0  0  0  2  0  0  0  0  0  0
  188.6860  177.4510  143.3820 C   0  0  2  0  0  3  0  0  0  0  0  0
  190.8340  176.9150  147.2340 N   0  0  0  0  0  2  0  0  0  0  0  0
  189.0520  177.7390  145.8510 C   0  0  0  0  0  2  0  0  0  0  0  0
  191.3050  176.8240  144.8860 C   0  0  1  0  0  3  0  0  0  0  0  0
  191.6660  178.1100  144.2620 N   0  0  0  0  0  2  0  0  0  0  0  0
  188.0740  178.5180  140.3620 C   0  0  0  0  0  2  0  0  0  0  0  0
  187.1350  178.5340  139.3190 O   0  0  0  0  0  0  0  0  0  0  0  0
  189.7630  176.7670  136.6150 C   0  0  0  0  0  2  0  0  0  0  0  0
  189.7850  176.4470  138.0880 C   0  0  0  0  0  0  0  0  0  0  0  0
  190.8210  175.6290  138.6190 N   0  0  0  0  0  1  0  0  0  0  0  0
  188.1760  178.5790  137.1780 C   0  0  0  0  0  3  0  0  0  0  0  0
  189.1480  178.1250  136.3720 C   0  0  0  0  0  3  0  0  0  0  0  0
  187.6910  177.7270  138.3250 C   0  0  1  0  0  3  0  0  0  0  0  0
  188.8180  176.9010  138.8910 C   0  0  0  0  0  3  0  0  0  0  0  0
  1  9  1  0  0  0  0
  2  1  1  0  0  0  0
  2  3  1  0  0  0  0
  3  4  1  6  0  0  0
  3  5  1  0  0  0  0
  5  6  1  0  0  0  0
  6  7  2  0  0  0  0
  6  8  1  0  0  0  0
 10 17  2  0  0  0  0
 11 14  1  1  0  0  0
 11 16  1  0  0  0  0
 11 13  1  0  0  0  0
 12 20  1  0  0  0  0
 14 12  1  0  0  0  0
 15 18  1  0  0  0  0
 16  9  1  6  0  0  0
 16 15  1  0  0  0  0
 18 10  1  0  0  0  0
 19 13  1  6  0  0  0
 19 10  1  0  0  0  0
 20 19  1  0  0  0  0
 21  1  1  0  0  0  0
 22 21  1  0  0  0  0
 23 24  1  0  0  0  0
 24 25  1  0  0  0  0
 24 29  2  0  0  0  0
 26 28  1  0  0  0  0
 27 23  1  0  0  0  0
 27 26  2  0  0  0  0
 28 29  1  0  0  0  0
 28 22  1  1  0  0  0
M  END
>  <MODEL>
1

>  <REMARK>
 VINA RESULT:      -7.7      0.000      0.000
  Name = 
  9 active torsions:
  status: ('A' for Active; 'I' for Inactive)
    1  A    between atoms: C_4  and  C_7
    2  A    between atoms: C_4  and  C_15
    3  A    between atoms: C_6  and  C_15
    4  A    between atoms: C_7  and  N_18
    5  A    between atoms: C_10  and  C_12
    6  A    between atoms: C_12  and  N_18
    7  A    between atoms: N_18  and  C_29
    8  A    between atoms: C_26  and  O_28
    9  A    between atoms: O_28  and  C_29
                            x       y       z     vdW  Elec       q    Type
                         _______ _______ _______ _____ _____    ______ ____

>  <TORSDO>
F 9

$$$$
=
 OpenBabel10222418483D

 29 31  0  0  1  0  0  0  0  0999 V2000
  186.5900  178.3780  142.8310 N   0  0  0  0  0  0  0  0  0  0  0  0
  185.1420  178.2230  142.8620 C   0  0  0  0  0  2  0  0  0  0  0  0
  184.5940  178.6860  144.2050 C   0  0  2  0  0  3  0  0  0  0  0  0
  183.6250  179.6710  144.0110 O   0  0  0  0  0  1  0  0  0  0  0  0
  185.6990  179.1930  145.1340 C   0  0  0  0  0  2  0  0  0  0  0  0
  185.5500  178.6890  146.5330 C   0  0  0  0  0  0  0  0  0  0  0  0
  186.6580  178.6100  147.3660 O   0  0  0  0  0  1  0  0  0  0  0  0
  184.4230  178.3160  146.9520 O   0  0  0  0  0  0  0  0  0  0  0  0
  187.1810  177.0520  142.9630 C   0  0  0  0  0  2  0  0  0  0  0  0
  191.0830  176.9910  145.4840 C   0  0  0  0  0  0  0  0  0  0  0  0
  189.5210  176.2190  142.6960 C   0  0  2  0  0  3  0  0  0  0  0  0
  191.5790  177.4790  141.8610 C   0  0  0  0  0  2  0  0  0  0  0  0
  190.6200  175.5470  143.5290 C   0  0  0  0  0  2  0  0  0  0  0  0
  190.1540  177.0040  141.5390 C   0  0  0  0  0  2  0  0  0  0  0  0
  188.6100  176.9160  145.0130 C   0  0  0  0  0  2  0  0  0  0  0  0
  188.6010  177.1560  143.5000 C   0  0  2  0  0  3  0  0  0  0  0  0
  191.8980  176.9440  146.4710 N   0  0  0  0  0  2  0  0  0  0  0  0
  189.7580  177.6780  145.6690 C   0  0  0  0  0  2  0  0  0  0  0  0
  191.5720  176.6030  144.1210 C   0  0  1  0  0  3  0  0  0  0  0  0
  191.7030  177.8090  143.2820 N   0  0  0  0  0  2  0  0  0  0  0  0
  186.9810  178.9580  141.5430 C   0  0  0  0  0  2  0  0  0  0  0  0
  185.9090  178.9810  140.6390 O   0  0  0  0  0  0  0  0  0  0  0  0
  187.2930  177.3970  137.0470 C   0  0  0  0  0  2  0  0  0  0  0  0
  188.2260  177.9180  138.1100 C   0  0  0  0  0  0  0  0  0  0  0  0
  189.6190  178.0160  137.8440 N   0  0  0  0  0  1  0  0  0  0  0  0
  185.4530  178.3660  138.3850 C   0  0  0  0  0  3  0  0  0  0  0  0
  185.9280  178.0270  137.1760 C   0  0  0  0  0  3  0  0  0  0  0  0
  186.2830  178.1070  139.6170 C   0  0  1  0  0  3  0  0  0  0  0  0
  187.7530  178.2570  139.3140 C   0  0  0  0  0  3  0  0  0  0  0  0
  1  2  1  0  0  0  0
  1  9  1  0  0  0  0
  2  3  1  0  0  0  0
  3  4  1  6  0  0  0
  3  5  1  0  0  0  0
  5  6  1  0  0  0  0
  6  8  2  0  0  0  0
  6  7  1  0  0  0  0
 10 18  1  0  0  0  0
 10 17  2  0  0  0  0
 11 14  1  6  0  0  0
 11 16  1  0  0  0  0
 11 13  1  0  0  0  0
 12 20  1  0  0  0  0
 14 12  1  0  0  0  0
 15 18  1  0  0  0  0
 16  9  1  6  0  0  0
 16 15  1  0  0  0  0
 19 13  1  6  0  0  0
 19 10  1  0  0  0  0
 20 19  1  0  0  0  0
 21  1  1  0  0  0  0
 22 21  1  0  0  0  0
 23 27  1  0  0  0  0
 23 24  1  0  0  0  0
 24 29  2  0  0  0  0
 25 24  1  0  0  0  0
 26 28  1  0  0  0  0
 27 26  2  0  0  0  0
 28 22  1  1  0  0  0
 29 28  1  0  0  0  0
M  END
>  <MODEL>
2

>  <REMARK>
 VINA RESULT:      -7.4      1.397      1.842
  Name = 
  9 active torsions:
  status: ('A' for Active; 'I' for Inactive)
    1  A    between atoms: C_4  and  C_7
    2  A    between atoms: C_4  and  C_15
    3  A    between atoms: C_6  and  C_15
    4  A    between atoms: C_7  and  N_18
    5  A    between atoms: C_10  and  C_12
    6  A    between atoms: C_12  and  N_18
    7  A    between atoms: N_18  and  C_29
    8  A    between atoms: C_26  and  O_28
    9  A    between atoms: O_28  and  C_29
                            x       y       z     vdW  Elec       q    Type
                         _______ _______ _______ _____ _____    ______ ____

>  <TORSDO>
F 9

$$$$
=
 OpenBabel10222418483D

 29 31  0  0  1  0  0  0  0  0999 V2000
  186.4340  178.3590  144.3550 N   0  0  0  0  0  0  0  0  0  0  0  0
  186.1560  179.2120  145.5030 C   0  0  0  0  0  2  0  0  0  0  0  0
  185.9520  178.3640  146.7500 C   0  0  2  0  0  3  0  0  0  0  0  0
  184.5900  178.2670  147.0440 O   0  0  0  0  0  1  0  0  0  0  0  0
  186.7240  178.9110  147.9520 C   0  0  0  0  0  2  0  0  0  0  0  0
  187.9390  178.1000  148.2720 C   0  0  0  0  0  0  0  0  0  0  0  0
  187.8660  176.7140  148.2880 O   0  0  0  0  0  0  0  0  0  0  0  0
  189.0240  178.6740  148.5480 O   0  0  0  0  0  1  0  0  0  0  0  0
  187.1830  177.2030  144.8330 C   0  0  0  0  0  2  0  0  0  0  0  0
  190.7290  177.3620  141.8360 C   0  0  0  0  0  0  0  0  0  0  0  0
  189.5730  177.9300  144.8600 C   0  0  2  0  0  3  0  0  0  0  0  0
  191.6620  176.5330  145.3080 C   0  0  0  0  0  2  0  0  0  0  0  0
  190.5850  178.6380  143.9510 C   0  0  0  0  0  2  0  0  0  0  0  0
  190.3130  177.0240  145.8530 C   0  0  0  0  0  2  0  0  0  0  0  0
  188.3430  177.4770  142.6320 C   0  0  0  0  0  2  0  0  0  0  0  0
  188.5170  177.1010  144.1070 C   0  0  2  0  0  3  0  0  0  0  0  0
  191.4140  177.4710  140.7580 N   0  0  0  0  0  2  0  0  0  0  0  0
  189.3630  176.7380  141.7690 C   0  0  0  0  0  2  0  0  0  0  0  0
  191.4060  177.6090  143.1520 C   0  0  1  0  0  3  0  0  0  0  0  0
  191.5890  176.3290  143.8600 N   0  0  0  0  0  2  0  0  0  0  0  0
  185.1650  177.9090  143.7760 C   0  0  0  0  0  2  0  0  0  0  0  0
  184.5560  178.9190  143.0150 O   0  0  0  0  0  0  0  0  0  0  0  0
  183.3840  178.2070  139.0850 C   0  0  0  0  0  2  0  0  0  0  0  0
  184.7750  178.6670  139.4410 C   0  0  0  0  0  0  0  0  0  0  0  0
  185.6910  179.0160  138.4090 N   0  0  0  0  0  1  0  0  0  0  0  0
  182.7890  178.6440  141.4450 C   0  0  0  0  0  3  0  0  0  0  0  0
  182.4000  178.5950  140.1610 C   0  0  0  0  0  3  0  0  0  0  0  0
  184.2110  178.3010  141.8130 C   0  0  1  0  0  3  0  0  0  0  0  0
  185.1620  178.7180  140.7190 C   0  0  0  0  0  3  0  0  0  0  0  0
  1  9  1  0  0  0  0
  1  2  1  0  0  0  0
  2  3  1  0  0  0  0
  3  4  1  1  0  0  0
  3  5  1  0  0  0  0
  5  6  1  0  0  0  0
  6  7  2  0  0  0  0
  6  8  1  0  0  0  0
 10 19  1  0  0  0  0
 11 13  1  6  0  0  0
 11 14  1  0  0  0  0
 12 14  1  0  0  0  0
 15 16  1  0  0  0  0
 16  9  1  1  0  0  0
 16 11  1  0  0  0  0
 17 10  2  0  0  0  0
 18 10  1  0  0  0  0
 18 15  1  0  0  0  0
 19 20  1  0  0  0  0
 19 13  1  1  0  0  0
 20 12  1  0  0  0  0
 21  1  1  0  0  0  0
 22 21  1  0  0  0  0
 23 24  1  0  0  0  0
 23 27  1  0  0  0  0
 24 29  2  0  0  0  0
 25 24  1  0  0  0  0
 26 28  1  0  0  0  0
 27 26  2  0  0  0  0
 28 22  1  1  0  0  0
 29 28  1  0  0  0  0
M  END
>  <MODEL>
3

>  <REMARK>
 VINA RESULT:      -7.3      2.569      4.564
  Name = 
  9 active torsions:
  status: ('A' for Active; 'I' for Inactive)
    1  A    between atoms: C_4  and  C_7
    2  A    between atoms: C_4  and  C_15
    3  A    between atoms: C_6  and  C_15
    4  A    between atoms: C_7  and  N_18
    5  A    between atoms: C_10  and  C_12
    6  A    between atoms: C_12  and  N_18
    7  A    between atoms: N_18  and  C_29
    8  A    between atoms: C_26  and  O_28
    9  A    between atoms: O_28  and  C_29
                            x       y       z     vdW  Elec       q    Type
                         _______ _______ _______ _____ _____    ______ ____

>  <TORSDO>
F 9

$$$$
=
 OpenBabel10222418483D

 29 31  0  0  1  0  0  0  0  0999 V2000
  187.0620  177.9210  141.6200 N   0  0  0  0  0  0  0  0  0  0  0  0
  186.1760  179.0400  141.9110 C   0  0  0  0  0  2  0  0  0  0  0  0
  184.9820  178.5650  142.7270 C   0  0  2  0  0  3  0  0  0  0  0  0
  183.9310  178.2160  141.8770 O   0  0  0  0  0  1  0  0  0  0  0  0
  184.5250  179.6130  143.7440 C   0  0  0  0  0  2  0  0  0  0  0  0
  183.6570  179.0350  144.8150 C   0  0  0  0  0  0  0  0  0  0  0  0
  182.3500  178.6670  144.5280 O   0  0  0  0  0  0  0  0  0  0  0  0
  184.1040  178.9010  145.9830 O   0  0  0  0  0  1  0  0  0  0  0  0
  188.1910  178.4370  140.8550 C   0  0  0  0  0  2  0  0  0  0  0  0
  187.7610  176.8920  136.4950 C   0  0  0  0  0  0  0  0  0  0  0  0
  189.7040  177.9420  138.9300 C   0  0  2  0  0  3  0  0  0  0  0  0
  190.7750  175.7200  138.2720 C   0  0  0  0  0  2  0  0  0  0  0  0
  189.7300  178.0840  137.4040 C   0  0  0  0  0  2  0  0  0  0  0  0
  190.6260  176.7930  139.3600 C   0  0  0  0  0  2  0  0  0  0  0  0
  187.1460  178.1260  138.6030 C   0  0  0  0  0  2  0  0  0  0  0  0
  188.3000  177.7130  139.5210 C   0  0  2  0  0  3  0  0  0  0  0  0
  187.3050  176.6620  135.3200 N   0  0  0  0  0  2  0  0  0  0  0  0
  186.7950  176.9920  137.6430 C   0  0  0  0  0  2  0  0  0  0  0  0
  189.2390  176.7880  136.7320 C   0  0  1  0  0  3  0  0  0  0  0  0
  189.5290  175.5750  137.5180 N   0  0  0  0  0  2  0  0  0  0  0  0
  187.5480  177.3560  142.8820 C   0  0  0  0  0  2  0  0  0  0  0  0
  188.9140  177.6160  143.0740 O   0  0  0  0  0  0  0  0  0  0  0  0
  189.0540  177.6110  147.2340 C   0  0  0  0  0  2  0  0  0  0  0  0
  190.2070  177.1350  146.3880 C   0  0  0  0  0  0  0  0  0  0  0  0
  191.3340  176.5250  147.0060 N   0  0  0  0  0  1  0  0  0  0  0  0
  187.7380  177.6950  145.1420 C   0  0  0  0  0  3  0  0  0  0  0  0
  187.7550  177.5140  146.4710 C   0  0  0  0  0  3  0  0  0  0  0  0
  189.0200  178.0040  144.4090 C   0  0  1  0  0  3  0  0  0  0  0  0
  190.1900  177.3130  145.0640 C   0  0  0  0  0  3  0  0  0  0  0  0
  1  2  1  0  0  0  0
  1 21  1  0  0  0  0
  2  3  1  0  0  0  0
  3  4  1  6  0  0  0
  3  5  1  0  0  0  0
  5  6  1  0  0  0  0
  6  8  1  0  0  0  0
  7  6  2  0  0  0  0
  9  1  1  0  0  0  0
 10 19  1  0  0  0  0
 10 18  1  0  0  0  0
 11 13  1  6  0  0  0
 11 14  1  0  0  0  0
 11 16  1  0  0  0  0
 12 14  1  0  0  0  0
 15 16  1  0  0  0  0
 16  9  1  1  0  0  0
 17 10  2  0  0  0  0
 18 15  1  0  0  0  0
 19 13  1  1  0  0  0
 19 20  1  0  0  0  0
 20 12  1  0  0  0  0
 21 22  1  0  0  0  0
 24 25  1  0  0  0  0
 24 23  1  0  0  0  0
 26 27  2  0  0  0  0
 27 23  1  0  0  0  0
 28 22  1  6  0  0  0
 28 29  1  0  0  0  0
 28 26  1  0  0  0  0
 29 24  2  0  0  0  0
M  END
>  <MODEL>
4

>  <REMARK>
 VINA RESULT:      -7.3      1.618      6.296
  Name = 
  9 active torsions:
  status: ('A' for Active; 'I' for Inactive)
    1  A    between atoms: C_4  and  C_7
    2  A    between atoms: C_4  and  C_15
    3  A    between atoms: C_6  and  C_15
    4  A    between atoms: C_7  and  N_18
    5  A    between atoms: C_10  and  C_12
    6  A    between atoms: C_12  and  N_18
    7  A    between atoms: N_18  and  C_29
    8  A    between atoms: C_26  and  O_28
    9  A    between atoms: O_28  and  C_29
                            x       y       z     vdW  Elec       q    Type
                         _______ _______ _______ _____ _____    ______ ____

>  <TORSDO>
F 9

$$$$
=
 OpenBabel10222418483D

 29 31  0  0  1  0  0  0  0  0999 V2000
  188.2600  177.8010  140.4470 N   0  0  0  0  0  0  0  0  0  0  0  0
  189.2440  178.6210  139.7540 C   0  0  0  0  0  2  0  0  0  0  0  0
  189.1400  178.4050  138.2500 C   0  0  2  0  0  3  0  0  0  0  0  0
  189.0470  179.6350  137.5970 O   0  0  0  0  0  1  0  0  0  0  0  0
  187.9590  177.5080  137.8770 C   0  0  0  0  0  2  0  0  0  0  0  0
  186.8700  178.2530  137.1740 C   0  0  0  0  0  0  0  0  0  0  0  0
  185.9120  178.9400  137.9050 O   0  0  0  0  0  1  0  0  0  0  0  0
  186.8100  178.2410  135.9170 O   0  0  0  0  0  0  0  0  0  0  0  0
  188.9780  176.7400  141.1430 C   0  0  0  0  0  2  0  0  0  0  0  0
  189.0500  177.1280  145.7710 C   0  0  0  0  0  0  0  0  0  0  0  0
  190.7050  176.9200  142.9390 C   0  0  2  0  0  3  0  0  0  0  0  0
  191.6810  179.0220  144.0100 C   0  0  0  0  0  2  0  0  0  0  0  0
  190.9580  176.4180  144.3650 C   0  0  0  0  0  2  0  0  0  0  0  0
  191.4630  178.2340  142.7100 C   0  0  0  0  0  2  0  0  0  0  0  0
  188.2420  176.3790  143.5070 C   0  0  0  0  0  2  0  0  0  0  0  0
  189.2180  177.1270  142.5950 C   0  0  2  0  0  3  0  0  0  0  0  0
  188.7490  177.0150  147.0120 N   0  0  0  0  0  2  0  0  0  0  0  0
  187.9420  177.2010  144.7580 C   0  0  0  0  0  2  0  0  0  0  0  0
  190.4670  177.4500  145.3970 C   0  0  1  0  0  3  0  0  0  0  0  0
  190.5460  178.8410  144.9170 N   0  0  0  0  0  2  0  0  0  0  0  0
  187.5510  178.6290  141.4260 C   0  0  0  0  0  2  0  0  0  0  0  0
  186.2950  179.0340  140.9490 O   0  0  0  0  0  0  0  0  0  0  0  0
  183.1370  178.6450  143.6340 C   0  0  0  0  0  2  0  0  0  0  0  0
  182.9320  178.6290  142.1410 C   0  0  0  0  0  0  0  0  0  0  0  0
  181.6140  178.6290  141.6080 N   0  0  0  0  0  1  0  0  0  0  0  0
  185.4710  179.3170  143.1650 C   0  0  0  0  0  3  0  0  0  0  0  0
  184.4150  179.3650  143.9920 C   0  0  0  0  0  3  0  0  0  0  0  0
  185.3820  178.5330  141.8790 C   0  0  1  0  0  3  0  0  0  0  0  0
  183.9840  178.5840  141.3170 C   0  0  0  0  0  3  0  0  0  0  0  0
  1  9  1  0  0  0  0
  1 21  1  0  0  0  0
  2  1  1  0  0  0  0
  3  4  1  6  0  0  0
  3  2  1  0  0  0  0
  5  3  1  0  0  0  0
  6  5  1  0  0  0  0
  6  7  1  0  0  0  0
  8  6  2  0  0  0  0
 10 17  2  0  0  0  0
 11 14  1  1  0  0  0
 11 13  1  0  0  0  0
 12 20  1  0  0  0  0
 14 12  1  0  0  0  0
 15 18  1  0  0  0  0
 16  9  1  6  0  0  0
 16 11  1  0  0  0  0
 16 15  1  0  0  0  0
 18 10  1  0  0  0  0
 19 13  1  6  0  0  0
 19 10  1  0  0  0  0
 20 19  1  0  0  0  0
 22 21  1  0  0  0  0
 23 27  1  0  0  0  0
 24 23  1  0  0  0  0
 25 24  1  0  0  0  0
 26 27  2  0  0  0  0
 28 22  1  6  0  0  0
 28 26  1  0  0  0  0
 29 28  1  0  0  0  0
 29 24  2  0  0  0  0
M  END
>  <MODEL>
5

>  <REMARK>
 VINA RESULT:      -7.2      2.026      5.431
  Name = 
  9 active torsions:
  status: ('A' for Active; 'I' for Inactive)
    1  A    between atoms: C_4  and  C_7
    2  A    between atoms: C_4  and  C_15
    3  A    between atoms: C_6  and  C_15
    4  A    between atoms: C_7  and  N_18
    5  A    between atoms: C_10  and  C_12
    6  A    between atoms: C_12  and  N_18
    7  A    between atoms: N_18  and  C_29
    8  A    between atoms: C_26  and  O_28
    9  A    between atoms: O_28  and  C_29
                            x       y       z     vdW  Elec       q    Type
                         _______ _______ _______ _____ _____    ______ ____

>  <TORSDO>
F 9

$$$$
=
 OpenBabel10222418483D

 29 31  0  0  1  0  0  0  0  0999 V2000
  187.4140  177.9700  141.5500 N   0  0  0  0  0  0  0  0  0  0  0  0
  186.4100  179.0200  141.6660 C   0  0  0  0  0  2  0  0  0  0  0  0
  185.1940  178.6790  140.8170 C   0  0  2  0  0  3  0  0  0  0  0  0
  184.8780  179.7520  139.9820 O   0  0  0  0  0  1  0  0  0  0  0  0
  183.9870  178.2880  141.6700 C   0  0  0  0  0  2  0  0  0  0  0  0
  182.7460  178.0940  140.8580 C   0  0  0  0  0  0  0  0  0  0  0  0
  181.7030  179.0040  140.9530 O   0  0  0  0  0  1  0  0  0  0  0  0
  182.6390  177.0930  140.1020 O   0  0  0  0  0  0  0  0  0  0  0  0
  188.6980  178.6110  141.2930 C   0  0  0  0  0  2  0  0  0  0  0  0
  191.1010  175.9860  138.3070 C   0  0  0  0  0  0  0  0  0  0  0  0
  188.2940  177.5070  139.0890 C   0  0  2  0  0  3  0  0  0  0  0  0
  188.7830  178.3940  136.7450 C   0  0  0  0  0  2  0  0  0  0  0  0
  188.6370  176.2020  138.3600 C   0  0  0  0  0  2  0  0  0  0  0  0
  188.0300  178.6190  138.0650 C   0  0  0  0  0  2  0  0  0  0  0  0
  190.3460  176.8870  140.5340 C   0  0  0  0  0  2  0  0  0  0  0  0
  189.3710  177.9790  140.0830 C   0  0  2  0  0  3  0  0  0  0  0  0
  191.9250  175.1350  137.8170 N   0  0  0  0  0  2  0  0  0  0  0  0
  191.4960  176.7530  139.5390 C   0  0  0  0  0  2  0  0  0  0  0  0
  189.9010  176.3800  137.4980 C   0  0  1  0  0  3  0  0  0  0  0  0
  190.0760  177.7540  136.9930 N   0  0  0  0  0  2  0  0  0  0  0  0
  187.4840  177.2340  142.8150 C   0  0  0  0  0  2  0  0  0  0  0  0
  188.5340  177.6930  143.6250 O   0  0  0  0  0  0  0  0  0  0  0  0
  187.5590  177.6960  147.6720 C   0  0  0  0  0  2  0  0  0  0  0  0
  186.5710  178.0920  146.6040 C   0  0  0  0  0  0  0  0  0  0  0  0
  185.3050  178.6260  146.9730 N   0  0  0  0  0  1  0  0  0  0  0  0
  189.2720  177.6970  145.8880 C   0  0  0  0  0  3  0  0  0  0  0  0
  188.9760  177.8790  147.1840 C   0  0  0  0  0  3  0  0  0  0  0  0
  188.1870  177.3010  144.9180 C   0  0  1  0  0  3  0  0  0  0  0  0
  186.8670  177.9130  145.3130 C   0  0  0  0  0  3  0  0  0  0  0  0
  1  2  1  0  0  0  0
  1 21  1  0  0  0  0
  3  4  1  1  0  0  0
  3  2  1  0  0  0  0
  3  5  1  0  0  0  0
  6  7  1  0  0  0  0
  6  5  1  0  0  0  0
  8  6  2  0  0  0  0
  9  1  1  0  0  0  0
 10 18  1  0  0  0  0
 11 14  1  6  0  0  0
 11 16  1  0  0  0  0
 12 20  1  0  0  0  0
 12 14  1  0  0  0  0
 13 11  1  0  0  0  0
 16 15  1  0  0  0  0
 16  9  1  1  0  0  0
 17 10  2  0  0  0  0
 18 15  1  0  0  0  0
 19 10  1  0  0  0  0
 19 13  1  1  0  0  0
 20 19  1  0  0  0  0
 21 22  1  0  0  0  0
 24 25  1  0  0  0  0
 24 23  1  0  0  0  0
 26 27  2  0  0  0  0
 27 23  1  0  0  0  0
 28 22  1  6  0  0  0
 28 29  1  0  0  0  0
 28 26  1  0  0  0  0
 29 24  2  0  0  0  0
M  END
>  <MODEL>
6

>  <REMARK>
 VINA RESULT:      -7.0      2.440      6.508
  Name = 
  9 active torsions:
  status: ('A' for Active; 'I' for Inactive)
    1  A    between atoms: C_4  and  C_7
    2  A    between atoms: C_4  and  C_15
    3  A    between atoms: C_6  and  C_15
    4  A    between atoms: C_7  and  N_18
    5  A    between atoms: C_10  and  C_12
    6  A    between atoms: C_12  and  N_18
    7  A    between atoms: N_18  and  C_29
    8  A    between atoms: C_26  and  O_28
    9  A    between atoms: O_28  and  C_29
                            x       y       z     vdW  Elec       q    Type
                         _______ _______ _______ _____ _____    ______ ____

>  <TORSDO>
F 9

$$$$
=
 OpenBabel10222418483D

 29 31  0  0  1  0  0  0  0  0999 V2000
  187.4790  177.9710  141.5060 N   0  0  0  0  0  0  0  0  0  0  0  0
  186.3780  178.9180  141.6260 C   0  0  0  0  0  2  0  0  0  0  0  0
  185.3730  178.4240  142.6580 C   0  0  2  0  0  3  0  0  0  0  0  0
  184.2580  177.8810  142.0170 O   0  0  0  0  0  1  0  0  0  0  0  0
  184.9500  179.5320  143.6250 C   0  0  0  0  0  2  0  0  0  0  0  0
  184.5560  179.0030  144.9670 C   0  0  0  0  0  0  0  0  0  0  0  0
  183.2270  179.0360  145.3660 O   0  0  0  0  0  0  0  0  0  0  0  0
  185.4330  178.5470  145.7460 O   0  0  0  0  0  1  0  0  0  0  0  0
  188.6200  178.6880  140.9510 C   0  0  0  0  0  2  0  0  0  0  0  0
  190.6610  175.6690  138.0690 C   0  0  0  0  0  0  0  0  0  0  0  0
  188.0570  177.5340  138.8080 C   0  0  2  0  0  3  0  0  0  0  0  0
  188.6030  178.2480  136.4190 C   0  0  0  0  0  2  0  0  0  0  0  0
  188.2380  176.1660  138.1400 C   0  0  0  0  0  2  0  0  0  0  0  0
  187.9030  178.6190  137.7340 C   0  0  0  0  0  2  0  0  0  0  0  0
  190.0500  176.7550  140.2580 C   0  0  0  0  0  2  0  0  0  0  0  0
  189.1970  177.9270  139.7650 C   0  0  2  0  0  3  0  0  0  0  0  0
  191.3750  174.7080  137.6120 N   0  0  0  0  0  2  0  0  0  0  0  0
  191.1600  176.4440  139.2570 C   0  0  0  0  0  2  0  0  0  0  0  0
  189.4990  176.1580  137.2560 C   0  0  1  0  0  3  0  0  0  0  0  0
  189.8190  177.4780  136.6830 N   0  0  0  0  0  2  0  0  0  0  0  0
  187.8230  177.4670  142.8370 C   0  0  0  0  0  2  0  0  0  0  0  0
  189.0160  178.0320  143.3130 O   0  0  0  0  0  0  0  0  0  0  0  0
  190.4410  176.7470  147.0080 C   0  0  0  0  0  2  0  0  0  0  0  0
  189.1230  177.4630  146.8570 C   0  0  0  0  0  0  0  0  0  0  0  0
  188.3930  177.8540  148.0130 N   0  0  0  0  0  1  0  0  0  0  0  0
  190.8590  177.3130  144.6370 C   0  0  0  0  0  3  0  0  0  0  0  0
  191.3630  177.0730  145.8570 C   0  0  0  0  0  3  0  0  0  0  0  0
  189.3690  177.2490  144.4130 C   0  0  1  0  0  3  0  0  0  0  0  0
  188.6230  177.7050  145.6410 C   0  0  0  0  0  3  0  0  0  0  0  0
  1  2  1  0  0  0  0
  1 21  1  0  0  0  0
  2  3  1  0  0  0  0
  3  4  1  6  0  0  0
  3  5  1  0  0  0  0
  5  6  1  0  0  0  0
  6  7  2  0  0  0  0
  6  8  1  0  0  0  0
  9  1  1  0  0  0  0
 10 18  1  0  0  0  0
 11 14  1  6  0  0  0
 11 16  1  0  0  0  0
 12 20  1  0  0  0  0
 12 14  1  0  0  0  0
 13 11  1  0  0  0  0
 16 15  1  0  0  0  0
 16  9  1  1  0  0  0
 17 10  2  0  0  0  0
 18 15  1  0  0  0  0
 19 10  1  0  0  0  0
 19 13  1  1  0  0  0
 20 19  1  0  0  0  0
 21 22  1  0  0  0  0
 24 23  1  0  0  0  0
 24 25  1  0  0  0  0
 26 27  2  0  0  0  0
 27 23  1  0  0  0  0
 28 22  1  6  0  0  0
 28 26  1  0  0  0  0
 28 29  1  0  0  0  0
 29 24  2  0  0  0  0
M  END
>  <MODEL>
7

>  <REMARK>
 VINA RESULT:      -7.0      1.619      6.105
  Name = 
  9 active torsions:
  status: ('A' for Active; 'I' for Inactive)
    1  A    between atoms: C_4  and  C_7
    2  A    between atoms: C_4  and  C_15
    3  A    between atoms: C_6  and  C_15
    4  A    between atoms: C_7  and  N_18
    5  A    between atoms: C_10  and  C_12
    6  A    between atoms: C_12  and  N_18
    7  A    between atoms: N_18  and  C_29
    8  A    between atoms: C_26  and  O_28
    9  A    between atoms: O_28  and  C_29
                            x       y       z     vdW  Elec       q    Type
                         _______ _______ _______ _____ _____    ______ ____

>  <TORSDO>
F 9

$$$$
=
 OpenBabel10222418483D

 29 31  0  0  1  0  0  0  0  0999 V2000
  186.3460  178.4250  142.8560 N   0  0  0  0  0  0  0  0  0  0  0  0
  185.1210  177.8640  143.4100 C   0  0  0  0  0  2  0  0  0  0  0  0
  184.6120  178.7390  144.5470 C   0  0  2  0  0  3  0  0  0  0  0  0
  183.8980  179.8220  144.0330 O   0  0  0  0  0  1  0  0  0  0  0  0
  185.7460  179.2240  145.4530 C   0  0  0  0  0  2  0  0  0  0  0  0
  185.6720  178.6410  146.8280 C   0  0  0  0  0  0  0  0  0  0  0  0
  186.8260  178.5030  147.5890 O   0  0  0  0  0  1  0  0  0  0  0  0
  184.5670  178.2550  147.2900 O   0  0  0  0  0  0  0  0  0  0  0  0
  187.1690  177.3160  142.3880 C   0  0  0  0  0  2  0  0  0  0  0  0
  190.8920  177.1980  145.1640 C   0  0  0  0  0  0  0  0  0  0  0  0
  189.4840  176.3800  142.3090 C   0  0  2  0  0  3  0  0  0  0  0  0
  191.6430  177.5210  141.5670 C   0  0  0  0  0  2  0  0  0  0  0  0
  190.4960  175.6980  143.2370 C   0  0  0  0  0  2  0  0  0  0  0  0
  190.2240  177.0920  141.1690 C   0  0  0  0  0  2  0  0  0  0  0  0
  188.4540  177.2040  144.5320 C   0  0  0  0  0  2  0  0  0  0  0  0
  188.5540  177.3850  143.0150 C   0  0  2  0  0  3  0  0  0  0  0  0
  191.6390  177.1580  146.2050 N   0  0  0  0  0  2  0  0  0  0  0  0
  189.5890  177.9450  145.2350 C   0  0  0  0  0  2  0  0  0  0  0  0
  191.4520  176.7370  143.8520 C   0  0  1  0  0  3  0  0  0  0  0  0
  191.6890  177.9020  142.9800 N   0  0  0  0  0  2  0  0  0  0  0  0
  186.0060  179.2890  141.7220 C   0  0  0  0  0  2  0  0  0  0  0  0
  186.3090  178.6780  140.4960 O   0  0  0  0  0  0  0  0  0  0  0  0
  182.7690  178.5560  138.3080 C   0  0  0  0  0  2  0  0  0  0  0  0
  182.7880  178.7810  139.7980 C   0  0  0  0  0  0  0  0  0  0  0  0
  181.5660  178.8110  140.5260 N   0  0  0  0  0  1  0  0  0  0  0  0
  185.1810  178.0460  138.4970 C   0  0  0  0  0  3  0  0  0  0  0  0
  184.0190  177.8390  137.8590 C   0  0  0  0  0  3  0  0  0  0  0  0
  185.2400  179.0040  139.6600 C   0  0  1  0  0  3  0  0  0  0  0  0
  183.9460  178.9850  140.4340 C   0  0  0  0  0  3  0  0  0  0  0  0
  1  2  1  0  0  0  0
  2  3  1  0  0  0  0
  3  4  1  6  0  0  0
  3  5  1  0  0  0  0
  5  6  1  0  0  0  0
  6  8  2  0  0  0  0
  6  7  1  0  0  0  0
  9  1  1  0  0  0  0
 10 18  1  0  0  0  0
 10 17  2  0  0  0  0
 11 14  1  6  0  0  0
 11 16  1  0  0  0  0
 11 13  1  0  0  0  0
 12 20  1  0  0  0  0
 14 12  1  0  0  0  0
 15 18  1  0  0  0  0
 16  9  1  6  0  0  0
 16 15  1  0  0  0  0
 19 13  1  6  0  0  0
 19 10  1  0  0  0  0
 20 19  1  0  0  0  0
 21  1  1  0  0  0  0
 22 21  1  0  0  0  0
 23 24  1  0  0  0  0
 24 29  2  0  0  0  0
 24 25  1  0  0  0  0
 26 28  1  0  0  0  0
 27 23  1  0  0  0  0
 27 26  2  0  0  0  0
 28 29  1  0  0  0  0
 28 22  1  1  0  0  0
M  END
>  <MODEL>
8

>  <REMARK>
 VINA RESULT:      -7.0      2.195      3.515
  Name = 
  9 active torsions:
  status: ('A' for Active; 'I' for Inactive)
    1  A    between atoms: C_4  and  C_7
    2  A    between atoms: C_4  and  C_15
    3  A    between atoms: C_6  and  C_15
    4  A    between atoms: C_7  and  N_18
    5  A    between atoms: C_10  and  C_12
    6  A    between atoms: C_12  and  N_18
    7  A    between atoms: N_18  and  C_29
    8  A    between atoms: C_26  and  O_28
    9  A    between atoms: O_28  and  C_29
                            x       y       z     vdW  Elec       q    Type
                         _______ _______ _______ _____ _____    ______ ____

>  <TORSDO>
F 9

$$$$
=
 OpenBabel10222418483D

 29 31  0  0  1  0  0  0  0  0999 V2000
  187.3320  178.6350  141.5770 N   0  0  0  0  0  0  0  0  0  0  0  0
  186.0050  179.1970  141.7910 C   0  0  0  0  0  2  0  0  0  0  0  0
  185.0480  178.7060  140.7140 C   0  0  2  0  0  3  0  0  0  0  0  0
  184.6890  179.7640  139.8760 O   0  0  0  0  0  1  0  0  0  0  0  0
  183.8040  178.0440  141.3070 C   0  0  0  0  0  2  0  0  0  0  0  0
  182.8230  177.6200  140.2610 C   0  0  0  0  0  0  0  0  0  0  0  0
  182.9820  176.4030  139.6110 O   0  0  0  0  0  0  0  0  0  0  0  0
  181.8650  178.3740  139.9530 O   0  0  0  0  0  1  0  0  0  0  0  0
  187.4530  177.4510  142.4180 C   0  0  0  0  0  2  0  0  0  0  0  0
  190.9850  177.1060  145.4170 C   0  0  0  0  0  0  0  0  0  0  0  0
  189.7260  176.4150  142.4600 C   0  0  2  0  0  3  0  0  0  0  0  0
  191.9750  177.4770  141.8830 C   0  0  0  0  0  2  0  0  0  0  0  0
  190.6480  175.6680  143.4320 C   0  0  0  0  0  2  0  0  0  0  0  0
  190.5670  177.1200  141.3860 C   0  0  0  0  0  2  0  0  0  0  0  0
  188.5940  177.2340  144.6350 C   0  0  0  0  0  2  0  0  0  0  0  0
  188.7980  177.4440  143.1320 C   0  0  2  0  0  3  0  0  0  0  0  0
  191.6620  177.0090  146.5000 N   0  0  0  0  0  2  0  0  0  0  0  0
  189.7130  177.9080  145.4250 C   0  0  0  0  0  2  0  0  0  0  0  0
  191.6070  176.6510  144.1310 C   0  0  1  0  0  3  0  0  0  0  0  0
  191.9470  177.8230  143.3040 N   0  0  0  0  0  2  0  0  0  0  0  0
  187.4660  178.2470  140.1700 C   0  0  0  0  0  2  0  0  0  0  0  0
  188.4510  179.0020  139.5160 O   0  0  0  0  0  0  0  0  0  0  0  0
  188.6190  176.5180  136.1790 C   0  0  0  0  0  2  0  0  0  0  0  0
  187.3850  176.6340  137.0370 C   0  0  0  0  0  0  0  0  0  0  0  0
  186.2790  175.7690  136.8060 N   0  0  0  0  0  1  0  0  0  0  0  0
  189.7790  177.8400  137.9180 C   0  0  0  0  0  3  0  0  0  0  0  0
  189.8520  176.9030  136.9610 C   0  0  0  0  0  3  0  0  0  0  0  0
  188.4630  178.5170  138.2070 C   0  0  1  0  0  3  0  0  0  0  0  0
  187.3130  177.5660  137.9920 C   0  0  0  0  0  3  0  0  0  0  0  0
  1  2  1  0  0  0  0
  1  9  1  0  0  0  0
  3  4  1  1  0  0  0
  3  5  1  0  0  0  0
  3  2  1  0  0  0  0
  6  5  1  0  0  0  0
  7  6  2  0  0  0  0
  8  6  1  0  0  0  0
 10 18  1  0  0  0  0
 10 17  2  0  0  0  0
 11 14  1  6  0  0  0
 11 16  1  0  0  0  0
 11 13  1  0  0  0  0
 12 20  1  0  0  0  0
 14 12  1  0  0  0  0
 15 18  1  0  0  0  0
 16  9  1  6  0  0  0
 16 15  1  0  0  0  0
 19 13  1  6  0  0  0
 19 10  1  0  0  0  0
 20 19  1  0  0  0  0
 21  1  1  0  0  0  0
 22 21  1  0  0  0  0
 23 27  1  0  0  0  0
 23 24  1  0  0  0  0
 24 29  2  0  0  0  0
 25 24  1  0  0  0  0
 26 28  1  0  0  0  0
 27 26  2  0  0  0  0
 28 22  1  1  0  0  0
 29 28  1  0  0  0  0
M  END
>  <MODEL>
9

>  <REMARK>
 VINA RESULT:      -6.9      2.205      2.613
  Name = 
  9 active torsions:
  status: ('A' for Active; 'I' for Inactive)
    1  A    between atoms: C_4  and  C_7
    2  A    between atoms: C_4  and  C_15
    3  A    between atoms: C_6  and  C_15
    4  A    between atoms: C_7  and  N_18
    5  A    between atoms: C_10  and  C_12
    6  A    between atoms: C_12  and  N_18
    7  A    between atoms: N_18  and  C_29
    8  A    between atoms: C_26  and  O_28
    9  A    between atoms: O_28  and  C_29
                            x       y       z     vdW  Elec       q    Type
                         _______ _______ _______ _____ _____    ______ ____

>  <TORSDO>
F 9

$$$$
