=
 OpenBabel10222419083D

 48 51  0  0  1  0  0  0  0  0999 V2000
  181.9350  178.6960  139.4200 C   0  0  0  0  0  0  0  0  0  0  0  0
  184.6410  178.1900  139.9000 C   0  0  0  0  0  3  0  0  0  0  0  0
  183.7850  178.4490  140.9850 C   0  0  0  0  0  0  0  0  0  0  0  0
  184.1510  178.1810  138.5910 C   0  0  0  0  0  0  0  0  0  0  0  0
  182.8000  178.4440  138.3510 C   0  0  0  0  0  3  0  0  0  0  0  0
  182.4270  178.6980  140.7300 C   0  0  0  0  0  3  0  0  0  0  0  0
  184.3120  178.4660  142.3710 C   0  0  0  0  0  0  0  0  0  0  0  0
  185.3020  178.4660  145.0170 C   0  0  0  0  0  0  0  0  0  0  0  0
  183.5000  178.8770  143.4380 C   0  0  0  0  0  3  0  0  0  0  0  0
  185.6280  178.0620  142.6410 C   0  0  0  0  0  3  0  0  0  0  0  0
  183.9920  178.8810  144.7450 C   0  0  0  0  0  3  0  0  0  0  0  0
  186.1180  178.0660  143.9490 C   0  0  0  0  0  3  0  0  0  0  0  0
  185.8060  178.5030  146.4110 C   0  0  0  0  0  0  0  0  0  0  0  0
  185.0220  178.8880  147.3210 O   0  0  0  0  0  0  0  0  0  0  0  0
  187.1850  178.1100  146.7900 C   0  0  0  0  0  0  0  0  0  0  0  0
  187.6430  178.3550  148.0940 C   0  0  0  0  0  3  0  0  0  0  0  0
  188.0390  177.4580  145.8850 C   0  0  0  0  0  3  0  0  0  0  0  0
  189.3270  177.0750  146.2710 C   0  0  0  0  0  3  0  0  0  0  0  0
  189.7730  177.3350  147.5690 C   0  0  0  0  0  3  0  0  0  0  0  0
  188.9300  177.9720  148.4810 C   0  0  0  0  0  3  0  0  0  0  0  0
  185.0770  177.9350  137.4530 C   0  0  0  0  0  2  0  0  0  0  0  0
  186.2740  178.7430  137.6120 N   0  0  0  0  0  2  0  0  0  0  0  0
  187.4110  177.8400  137.5520 C   0  0  1  0  0  3  0  0  0  0  0  0
  188.0270  177.9440  136.3180 F   0  0  0  0  0  0  0  0  0  0  0  0
  188.9670  179.2930  138.6110 O   0  0  0  0  0  0  0  0  0  0  0  0
  188.3770  178.1790  138.6340 C   0  0  0  0  0  0  0  0  0  0  0  0
  188.6560  177.2310  139.6660 N   0  0  0  0  0  2  0  0  0  0  0  0
  190.9950  177.0840  140.3410 C   0  0  0  0  0  2  0  0  0  0  0  0
  189.1340  176.7730  142.0290 C   0  0  0  0  0  2  0  0  0  0  0  0
  191.4370  177.4040  142.8510 C   0  0  0  0  0  2  0  0  0  0  0  0
  192.0210  177.4260  141.4310 C   0  0  0  0  0  2  0  0  0  0  0  0
  189.5850  177.5020  140.7520 C   0  0  0  0  0  3  0  0  0  0  0  0
  190.2950  176.4000  142.9620 C   0  0  0  0  0  2  0  0  0  0  0  0
  180.4970  178.9750  139.1570 C   0  0  0  0  0  2  0  0  0  0  0  0
  179.6410  177.8150  139.6290 C   0  0  0  0  0  2  0  0  0  0  0  0
  180.3360  175.5100  138.8880 C   0  0  0  0  0  0  0  0  0  0  0  0
  179.6770  176.7510  138.6400 N   0  0  0  0  0  2  0  0  0  0  0  0
  180.9560  175.3210  139.9680 O   0  0  0  0  0  0  0  0  0  0  0  0
  179.0600  174.5720  136.9760 C   0  0  0  0  0  1  0  0  0  0  0  0
  180.3060  174.4490  137.8350 C   0  0  1  0  0  3  0  0  0  0  0  0
  182.3120  175.4090  137.0150 O   0  0  0  0  0  0  0  0  0  0  0  0
  181.5510  174.4540  136.9980 C   0  0  0  0  0  0  0  0  0  0  0  0
  181.8480  173.2800  136.1240 C   0  0  0  0  0  2  0  0  0  0  0  0
  183.2400  173.3120  135.7070 N   0  0  0  0  0  2  0  0  0  0  0  0
  183.1460  171.0910  137.1970 O   0  0  0  0  0  1  0  0  0  0  0  0
  184.8710  172.9020  137.9710 O   0  0  0  0  0  1  0  0  0  0  0  0
  185.2740  171.3780  135.7090 O   0  0  0  0  0  0  0  0  0  0  0  0
  184.1070  172.1320  136.6720 P   0  0  0  0  0  0  0  0  0  0  0  0
  1  6  1  0  0  0  0
  2  3  1  0  0  0  0
  3  7  1  0  0  0  0
  4  2  2  0  0  0  0
  5  4  1  0  0  0  0
  5  1  2  0  0  0  0
  6  3  2  0  0  0  0
  7 10  2  0  0  0  0
  7  9  1  0  0  0  0
  8 13  1  0  0  0  0
  9 11  2  0  0  0  0
 10 12  1  0  0  0  0
 11  8  1  0  0  0  0
 12  8  2  0  0  0  0
 13 15  1  0  0  0  0
 13 14  2  0  0  0  0
 15 16  1  0  0  0  0
 16 20  2  0  0  0  0
 17 18  1  0  0  0  0
 17 15  2  0  0  0  0
 18 19  2  0  0  0  0
 19 20  1  0  0  0  0
 21 22  1  0  0  0  0
 21  4  1  0  0  0  0
 23 24  1  6  0  0  0
 23 22  1  0  0  0  0
 23 26  1  0  0  0  0
 25 26  2  0  0  0  0
 26 27  1  0  0  0  0
 27 32  1  0  0  0  0
 28 32  1  0  0  0  0
 28 31  1  0  0  0  0
 29 33  1  0  0  0  0
 30 33  1  0  0  0  0
 31 30  1  0  0  0  0
 32 29  1  0  0  0  0
 34  1  1  0  0  0  0
 34 35  1  0  0  0  0
 36 38  2  0  0  0  0
 37 36  1  0  0  0  0
 37 35  1  0  0  0  0
 40 39  1  6  0  0  0
 40 36  1  0  0  0  0
 42 41  2  0  0  0  0
 42 40  1  0  0  0  0
 43 42  1  0  0  0  0
 44 43  1  0  0  0  0
 44 48  1  0  0  0  0
 47 48  2  0  0  0  0
 48 45  1  0  0  0  0
 48 46  1  0  0  0  0
M  END
>  <MODEL>
1

>  <REMARK>
 VINA RESULT:      -9.0      0.000      0.000
  Name = 
  16 active torsions:
  status: ('A' for Active; 'I' for Inactive)
    1  A    between atoms: N_1  and  C_8
    2  A    between atoms: N_1  and  C_16
    3  A    between atoms: C_2  and  C_30
    4  A    between atoms: C_3  and  C_31
    5  A    between atoms: C_5  and  C_6
    6  A    between atoms: C_6  and  C_25
    7  A    between atoms: C_8  and  C_43
    8  A    between atoms: C_9  and  C_13
    9  A    between atoms: C_13  and  C_22
   10  A    between atoms: C_16  and  C_32
   11  A    between atoms: N_19  and  C_22
   12  A    between atoms: C_28  and  C_35
   13  A    between atoms: C_28  and  N_41
   14  A    between atoms: C_30  and  C_35
   15  A    between atoms: C_33  and  N_48
   16  A    between atoms: P_39  and  N_41
                            x       y       z     vdW  Elec       q    Type
                         _______ _______ _______ _____ _____    ______ ____

>  <TORSDO>
F 16

$$$$
=
 OpenBabel10222419083D

 48 51  0  0  1  0  0  0  0  0999 V2000
  182.1220  178.8100  142.2160 C   0  0  0  0  0  0  0  0  0  0  0  0
  184.7610  178.7830  143.1350 C   0  0  0  0  0  3  0  0  0  0  0  0
  184.5110  178.6790  141.7560 C   0  0  0  0  0  0  0  0  0  0  0  0
  183.7070  178.9030  144.0450 C   0  0  0  0  0  0  0  0  0  0  0  0
  182.3870  178.9050  143.5850 C   0  0  0  0  0  3  0  0  0  0  0  0
  183.1810  178.6980  141.3070 C   0  0  0  0  0  3  0  0  0  0  0  0
  185.6330  178.5450  140.7960 C   0  0  0  0  0  0  0  0  0  0  0  0
  187.7710  178.2560  138.9720 C   0  0  0  0  0  0  0  0  0  0  0  0
  186.9610  178.5350  141.2460 C   0  0  0  0  0  3  0  0  0  0  0  0
  185.3860  178.4170  139.4210 C   0  0  0  0  0  3  0  0  0  0  0  0
  188.0170  178.3970  140.3440 C   0  0  0  0  0  3  0  0  0  0  0  0
  186.4440  178.2780  138.5190 C   0  0  0  0  0  3  0  0  0  0  0  0
  188.9120  178.1360  138.0330 C   0  0  0  0  0  0  0  0  0  0  0  0
  189.2350  179.1460  137.3510 O   0  0  0  0  0  0  0  0  0  0  0  0
  189.6940  176.8880  137.8560 C   0  0  0  0  0  0  0  0  0  0  0  0
  189.0610  175.7370  137.3620 C   0  0  0  0  0  3  0  0  0  0  0  0
  191.0700  176.8360  138.1340 C   0  0  0  0  0  3  0  0  0  0  0  0
  191.7930  175.6560  137.9380 C   0  0  0  0  0  3  0  0  0  0  0  0
  191.1480  174.5150  137.4560 C   0  0  0  0  0  3  0  0  0  0  0  0
  189.7820  174.5560  137.1660 C   0  0  0  0  0  3  0  0  0  0  0  0
  183.9880  178.9810  145.5040 C   0  0  0  0  0  2  0  0  0  0  0  0
  185.3470  179.4490  145.7150 N   0  0  0  0  0  2  0  0  0  0  0  0
  185.8420  178.7970  146.9160 C   0  0  1  0  0  3  0  0  0  0  0  0
  184.8650  177.9680  147.4360 F   0  0  0  0  0  0  0  0  0  0  0  0
  187.6720  177.4010  147.5110 O   0  0  0  0  0  0  0  0  0  0  0  0
  187.0610  178.0060  146.5890 C   0  0  0  0  0  0  0  0  0  0  0  0
  187.5490  177.9670  145.2470 N   0  0  0  0  0  2  0  0  0  0  0  0
  189.8950  178.1660  144.6080 C   0  0  0  0  0  2  0  0  0  0  0  0
  188.4290  176.3520  143.6220 C   0  0  0  0  0  2  0  0  0  0  0  0
  190.9360  176.0540  143.5800 C   0  0  0  0  0  2  0  0  0  0  0  0
  191.1850  177.4010  144.2750 C   0  0  0  0  0  2  0  0  0  0  0  0
  188.7310  177.2100  144.8620 C   0  0  0  0  0  3  0  0  0  0  0  0
  189.6620  176.0910  142.7450 C   0  0  0  0  0  2  0  0  0  0  0  0
  180.7140  178.8150  141.7330 C   0  0  0  0  0  2  0  0  0  0  0  0
  180.6020  179.6090  140.4450 C   0  0  0  0  0  2  0  0  0  0  0  0
  181.2660  178.7730  138.1640 C   0  0  0  0  0  0  0  0  0  0  0  0
  180.4410  178.6980  139.3260 N   0  0  0  0  0  2  0  0  0  0  0  0
  182.1360  179.6790  138.0560 O   0  0  0  0  0  0  0  0  0  0  0  0
  181.6570  178.2900  135.7610 C   0  0  0  0  0  1  0  0  0  0  0  0
  181.0620  177.7830  137.0620 C   0  0  1  0  0  3  0  0  0  0  0  0
  180.8510  175.5360  137.7860 O   0  0  0  0  0  0  0  0  0  0  0  0
  181.6000  176.4290  137.4190 C   0  0  0  0  0  0  0  0  0  0  0  0
  183.0700  176.1820  137.3390 C   0  0  0  0  0  2  0  0  0  0  0  0
  183.4270  175.0360  138.1590 N   0  0  0  0  0  2  0  0  0  0  0  0
  185.0820  172.9350  138.0620 O   0  0  0  0  0  1  0  0  0  0  0  0
  185.6420  174.8950  136.4180 O   0  0  0  0  0  1  0  0  0  0  0  0
  183.4850  173.2250  136.0150 O   0  0  0  0  0  0  0  0  0  0  0  0
  184.4380  173.9850  137.1860 P   0  0  0  0  0  0  0  0  0  0  0  0
  1  5  1  0  0  0  0
  2  4  1  0  0  0  0
  3  2  2  0  0  0  0
  4 21  1  0  0  0  0
  5  4  2  0  0  0  0
  6  3  1  0  0  0  0
  6  1  2  0  0  0  0
  7  9  1  0  0  0  0
  7  3  1  0  0  0  0
  8 11  1  0  0  0  0
 10  7  2  0  0  0  0
 11  9  2  0  0  0  0
 12  8  2  0  0  0  0
 12 10  1  0  0  0  0
 13  8  1  0  0  0  0
 14 13  2  0  0  0  0
 15 13  1  0  0  0  0
 15 17  1  0  0  0  0
 16 15  2  0  0  0  0
 18 17  2  0  0  0  0
 19 18  1  0  0  0  0
 20 16  1  0  0  0  0
 20 19  2  0  0  0  0
 21 22  1  0  0  0  0
 22 23  1  0  0  0  0
 23 24  1  6  0  0  0
 26 23  1  0  0  0  0
 26 25  2  0  0  0  0
 27 26  1  0  0  0  0
 28 32  1  0  0  0  0
 29 32  1  0  0  0  0
 30 31  1  0  0  0  0
 31 28  1  0  0  0  0
 32 27  1  0  0  0  0
 33 30  1  0  0  0  0
 33 29  1  0  0  0  0
 34  1  1  0  0  0  0
 35 34  1  0  0  0  0
 36 37  1  0  0  0  0
 37 35  1  0  0  0  0
 38 36  2  0  0  0  0
 40 39  1  6  0  0  0
 40 42  1  0  0  0  0
 40 36  1  0  0  0  0
 42 41  2  0  0  0  0
 43 42  1  0  0  0  0
 43 44  1  0  0  0  0
 46 48  1  0  0  0  0
 47 48  2  0  0  0  0
 48 45  1  0  0  0  0
 48 44  1  0  0  0  0
M  END
>  <MODEL>
2

>  <REMARK>
 VINA RESULT:      -8.9      2.892      6.058
  Name = 
  16 active torsions:
  status: ('A' for Active; 'I' for Inactive)
    1  A    between atoms: N_1  and  C_8
    2  A    between atoms: N_1  and  C_16
    3  A    between atoms: C_2  and  C_30
    4  A    between atoms: C_3  and  C_31
    5  A    between atoms: C_5  and  C_6
    6  A    between atoms: C_6  and  C_25
    7  A    between atoms: C_8  and  C_43
    8  A    between atoms: C_9  and  C_13
    9  A    between atoms: C_13  and  C_22
   10  A    between atoms: C_16  and  C_32
   11  A    between atoms: N_19  and  C_22
   12  A    between atoms: C_28  and  C_35
   13  A    between atoms: C_28  and  N_41
   14  A    between atoms: C_30  and  C_35
   15  A    between atoms: C_33  and  N_48
   16  A    between atoms: P_39  and  N_41
                            x       y       z     vdW  Elec       q    Type
                         _______ _______ _______ _____ _____    ______ ____

>  <TORSDO>
F 16

$$$$
=
 OpenBabel10222419083D

 48 51  0  0  1  0  0  0  0  0999 V2000
  181.7380  178.7930  141.2380 C   0  0  0  0  0  0  0  0  0  0  0  0
  184.4500  178.2490  140.8360 C   0  0  0  0  0  3  0  0  0  0  0  0
  183.9640  178.4020  142.1460 C   0  0  0  0  0  0  0  0  0  0  0  0
  183.5910  178.3630  139.7380 C   0  0  0  0  0  0  0  0  0  0  0  0
  182.2370  178.6460  139.9400 C   0  0  0  0  0  3  0  0  0  0  0  0
  182.5990  178.6700  142.3340 C   0  0  0  0  0  3  0  0  0  0  0  0
  184.8810  178.2870  143.3060 C   0  0  0  0  0  0  0  0  0  0  0  0
  186.6430  178.0960  145.5060 C   0  0  0  0  0  0  0  0  0  0  0  0
  186.1200  177.6440  143.1750 C   0  0  0  0  0  3  0  0  0  0  0  0
  184.5290  178.8270  144.5520 C   0  0  0  0  0  3  0  0  0  0  0  0
  186.9890  177.5470  144.2640 C   0  0  0  0  0  3  0  0  0  0  0  0
  185.4000  178.7290  145.6400 C   0  0  0  0  0  3  0  0  0  0  0  0
  187.5740  177.9570  146.6510 C   0  0  0  0  0  0  0  0  0  0  0  0
  187.1420  178.2140  147.8080 O   0  0  0  0  0  0  0  0  0  0  0  0
  188.9870  177.5300  146.5070 C   0  0  0  0  0  0  0  0  0  0  0  0
  189.7450  177.9960  145.4210 C   0  0  0  0  0  3  0  0  0  0  0  0
  189.6050  176.6970  147.4540 C   0  0  0  0  0  3  0  0  0  0  0  0
  190.9450  176.3250  147.3100 C   0  0  0  0  0  3  0  0  0  0  0  0
  191.6840  176.7880  146.2190 C   0  0  0  0  0  3  0  0  0  0  0  0
  191.0850  177.6260  145.2760 C   0  0  0  0  0  3  0  0  0  0  0  0
  184.1270  178.2300  138.3570 C   0  0  0  0  0  2  0  0  0  0  0  0
  185.3860  178.9480  138.2490 N   0  0  0  0  0  2  0  0  0  0  0  0
  186.3390  178.0480  137.6230 C   0  0  1  0  0  3  0  0  0  0  0  0
  186.3550  178.2610  136.2560 F   0  0  0  0  0  0  0  0  0  0  0  0
  188.4460  179.1480  137.6670 O   0  0  0  0  0  0  0  0  0  0  0  0
  187.6960  178.2820  138.1910 C   0  0  0  0  0  0  0  0  0  0  0  0
  188.1510  177.5000  139.2970 N   0  0  0  0  0  2  0  0  0  0  0  0
  190.4890  176.8190  139.1720 C   0  0  0  0  0  2  0  0  0  0  0  0
  189.4070  177.3420  141.4000 C   0  0  0  0  0  2  0  0  0  0  0  0
  191.9240  177.4300  141.2130 C   0  0  0  0  0  2  0  0  0  0  0  0
  191.9040  177.0400  139.7280 C   0  0  0  0  0  2  0  0  0  0  0  0
  189.4620  177.6820  139.9010 C   0  0  0  0  0  3  0  0  0  0  0  0
  190.7400  176.8240  141.9580 C   0  0  0  0  0  2  0  0  0  0  0  0
  180.2940  179.0920  141.4450 C   0  0  0  0  0  2  0  0  0  0  0  0
  179.5030  177.8040  141.5690 C   0  0  0  0  0  2  0  0  0  0  0  0
  179.4680  175.9610  139.8520 C   0  0  0  0  0  0  0  0  0  0  0  0
  179.1810  177.3020  140.2440 N   0  0  0  0  0  2  0  0  0  0  0  0
  180.0640  175.1790  140.6420 O   0  0  0  0  0  0  0  0  0  0  0  0
  179.2330  176.6300  137.4730 C   0  0  0  0  0  1  0  0  0  0  0  0
  179.0820  175.5050  138.4820 C   0  0  1  0  0  3  0  0  0  0  0  0
  179.3280  173.1790  138.1030 O   0  0  0  0  0  0  0  0  0  0  0  0
  179.8450  174.2850  138.0600 C   0  0  0  0  0  0  0  0  0  0  0  0
  181.2580  174.4300  137.6000 C   0  0  0  0  0  2  0  0  0  0  0  0
  181.6290  173.2950  136.7710 N   0  0  0  0  0  2  0  0  0  0  0  0
  183.8850  173.5750  135.3590 O   0  0  0  0  0  0  0  0  0  0  0  0
  183.8920  171.6530  137.1370 O   0  0  0  0  0  1  0  0  0  0  0  0
  184.0070  174.3110  137.8620 O   0  0  0  0  0  1  0  0  0  0  0  0
  183.3800  173.2160  136.7370 P   0  0  0  0  0  0  0  0  0  0  0  0
  1 34  1  0  0  0  0
  1  6  1  0  0  0  0
  2  3  1  0  0  0  0
  3  6  2  0  0  0  0
  3  7  1  0  0  0  0
  4  5  1  0  0  0  0
  4  2  2  0  0  0  0
  5  1  2  0  0  0  0
  7 10  1  0  0  0  0
  8 12  1  0  0  0  0
  8 13  1  0  0  0  0
  9  7  2  0  0  0  0
  9 11  1  0  0  0  0
 10 12  2  0  0  0  0
 11  8  2  0  0  0  0
 13 14  2  0  0  0  0
 15 13  1  0  0  0  0
 15 17  1  0  0  0  0
 16 15  2  0  0  0  0
 18 17  2  0  0  0  0
 19 18  1  0  0  0  0
 20 16  1  0  0  0  0
 20 19  2  0  0  0  0
 21  4  1  0  0  0  0
 22 21  1  0  0  0  0
 23 24  1  6  0  0  0
 23 26  1  0  0  0  0
 23 22  1  0  0  0  0
 25 26  2  0  0  0  0
 26 27  1  0  0  0  0
 27 32  1  0  0  0  0
 28 31  1  0  0  0  0
 28 32  1  0  0  0  0
 29 33  1  0  0  0  0
 30 33  1  0  0  0  0
 31 30  1  0  0  0  0
 32 29  1  0  0  0  0
 34 35  1  0  0  0  0
 36 37  1  0  0  0  0
 36 38  2  0  0  0  0
 37 35  1  0  0  0  0
 40 39  1  6  0  0  0
 40 36  1  0  0  0  0
 42 41  2  0  0  0  0
 42 40  1  0  0  0  0
 43 42  1  0  0  0  0
 44 43  1  0  0  0  0
 45 48  2  0  0  0  0
 48 44  1  0  0  0  0
 48 46  1  0  0  0  0
 48 47  1  0  0  0  0
M  END
>  <MODEL>
3

>  <REMARK>
 VINA RESULT:      -8.8      1.392      2.036
  Name = 
  16 active torsions:
  status: ('A' for Active; 'I' for Inactive)
    1  A    between atoms: N_1  and  C_8
    2  A    between atoms: N_1  and  C_16
    3  A    between atoms: C_2  and  C_30
    4  A    between atoms: C_3  and  C_31
    5  A    between atoms: C_5  and  C_6
    6  A    between atoms: C_6  and  C_25
    7  A    between atoms: C_8  and  C_43
    8  A    between atoms: C_9  and  C_13
    9  A    between atoms: C_13  and  C_22
   10  A    between atoms: C_16  and  C_32
   11  A    between atoms: N_19  and  C_22
   12  A    between atoms: C_28  and  C_35
   13  A    between atoms: C_28  and  N_41
   14  A    between atoms: C_30  and  C_35
   15  A    between atoms: C_33  and  N_48
   16  A    between atoms: P_39  and  N_41
                            x       y       z     vdW  Elec       q    Type
                         _______ _______ _______ _____ _____    ______ ____

>  <TORSDO>
F 16

$$$$
=
 OpenBabel10222419083D

 48 51  0  0  1  0  0  0  0  0999 V2000
  185.0430  178.6680  144.8360 C   0  0  0  0  0  0  0  0  0  0  0  0
  183.4370  178.7530  142.5490 C   0  0  0  0  0  3  0  0  0  0  0  0
  184.8300  178.6320  142.4090 C   0  0  0  0  0  0  0  0  0  0  0  0
  182.8510  178.8270  143.8170 C   0  0  0  0  0  0  0  0  0  0  0  0
  183.6560  178.7960  144.9590 C   0  0  0  0  0  3  0  0  0  0  0  0
  185.6250  178.5860  143.5650 C   0  0  0  0  0  3  0  0  0  0  0  0
  185.4470  178.5610  141.0620 C   0  0  0  0  0  0  0  0  0  0  0  0
  186.6260  178.4590  138.4960 C   0  0  0  0  0  0  0  0  0  0  0  0
  184.6660  178.7270  139.9100 C   0  0  0  0  0  3  0  0  0  0  0  0
  186.8240  178.3340  140.9170 C   0  0  0  0  0  3  0  0  0  0  0  0
  185.2490  178.6730  138.6420 C   0  0  0  0  0  3  0  0  0  0  0  0
  187.4050  178.2810  139.6480 C   0  0  0  0  0  3  0  0  0  0  0  0
  187.2140  178.3810  137.1370 C   0  0  0  0  0  0  0  0  0  0  0  0
  187.6740  179.4370  136.6230 O   0  0  0  0  0  0  0  0  0  0  0  0
  187.2910  177.1250  136.3530 C   0  0  0  0  0  0  0  0  0  0  0  0
  186.1490  176.6510  135.6880 C   0  0  0  0  0  3  0  0  0  0  0  0
  188.4930  176.4110  136.2240 C   0  0  0  0  0  3  0  0  0  0  0  0
  188.5490  175.2400  135.4610 C   0  0  0  0  0  3  0  0  0  0  0  0
  187.4020  174.7760  134.8130 C   0  0  0  0  0  3  0  0  0  0  0  0
  186.2030  175.4820  134.9240 C   0  0  0  0  0  3  0  0  0  0  0  0
  181.3780  178.9860  143.9470 C   0  0  0  0  0  2  0  0  0  0  0  0
  180.9030  179.9580  142.9770 N   0  0  0  0  0  2  0  0  0  0  0  0
  179.6260  179.4760  142.4780 C   0  0  1  0  0  3  0  0  0  0  0  0
  178.9320  180.5150  141.8860 F   0  0  0  0  0  0  0  0  0  0  0  0
  179.3200  177.2610  141.6720 O   0  0  0  0  0  0  0  0  0  0  0  0
  179.8550  178.3870  141.4880 C   0  0  0  0  0  0  0  0  0  0  0  0
  180.7050  178.6120  140.3620 N   0  0  0  0  0  2  0  0  0  0  0  0
  182.1050  176.6880  139.8240 C   0  0  0  0  0  2  0  0  0  0  0  0
  181.2900  178.2500  138.0060 C   0  0  0  0  0  2  0  0  0  0  0  0
  182.0180  175.9150  137.3760 C   0  0  0  0  0  2  0  0  0  0  0  0
  182.3600  175.5480  138.8270 C   0  0  0  0  0  2  0  0  0  0  0  0
  180.9660  177.5920  139.3580 C   0  0  0  0  0  3  0  0  0  0  0  0
  182.2190  177.4050  137.1220 C   0  0  0  0  0  2  0  0  0  0  0  0
  185.8940  178.6330  146.0560 C   0  0  0  0  0  2  0  0  0  0  0  0
  186.7670  177.3930  146.0530 C   0  0  0  0  0  2  0  0  0  0  0  0
  189.0920  177.1980  147.0020 C   0  0  0  0  0  0  0  0  0  0  0  0
  188.1650  177.7840  146.0890 N   0  0  0  0  0  2  0  0  0  0  0  0
  188.7030  176.3500  147.8500 O   0  0  0  0  0  0  0  0  0  0  0  0
  191.1260  177.6400  148.3550 C   0  0  0  0  0  1  0  0  0  0  0  0
  190.5230  177.6280  146.9610 C   0  0  1  0  0  3  0  0  0  0  0  0
  191.8010  175.7170  146.3830 O   0  0  0  0  0  0  0  0  0  0  0  0
  191.3350  176.7870  146.0210 C   0  0  0  0  0  0  0  0  0  0  0  0
  191.5860  177.2780  144.6330 C   0  0  0  0  0  2  0  0  0  0  0  0
  191.2740  176.2320  143.6730 N   0  0  0  0  0  2  0  0  0  0  0  0
  190.1810  176.5170  141.2470 O   0  0  0  0  0  0  0  0  0  0  0  0
  189.6870  178.4480  142.9460 O   0  0  0  0  0  1  0  0  0  0  0  0
  188.5230  175.9600  143.1870 O   0  0  0  0  0  1  0  0  0  0  0  0
  189.9170  176.7870  142.7110 P   0  0  0  0  0  0  0  0  0  0  0  0
  1  5  1  0  0  0  0
  1 34  1  0  0  0  0
  2  4  1  0  0  0  0
  3  2  2  0  0  0  0
  3  6  1  0  0  0  0
  4 21  1  0  0  0  0
  4  5  2  0  0  0  0
  6  1  2  0  0  0  0
  7  3  1  0  0  0  0
  8 11  2  0  0  0  0
  8 12  1  0  0  0  0
  9  7  2  0  0  0  0
 10  7  1  0  0  0  0
 11  9  1  0  0  0  0
 12 10  2  0  0  0  0
 13  8  1  0  0  0  0
 14 13  2  0  0  0  0
 15 13  1  0  0  0  0
 16 15  2  0  0  0  0
 17 15  1  0  0  0  0
 18 17  2  0  0  0  0
 19 20  2  0  0  0  0
 19 18  1  0  0  0  0
 20 16  1  0  0  0  0
 22 21  1  0  0  0  0
 23 24  1  6  0  0  0
 23 22  1  0  0  0  0
 26 25  2  0  0  0  0
 26 23  1  0  0  0  0
 27 26  1  0  0  0  0
 29 32  1  0  0  0  0
 30 31  1  0  0  0  0
 31 28  1  0  0  0  0
 32 28  1  0  0  0  0
 32 27  1  0  0  0  0
 33 30  1  0  0  0  0
 33 29  1  0  0  0  0
 35 34  1  0  0  0  0
 35 37  1  0  0  0  0
 36 38  2  0  0  0  0
 37 36  1  0  0  0  0
 40 36  1  0  0  0  0
 40 39  1  1  0  0  0
 42 41  2  0  0  0  0
 42 40  1  0  0  0  0
 43 42  1  0  0  0  0
 44 43  1  0  0  0  0
 45 48  2  0  0  0  0
 48 46  1  0  0  0  0
 48 47  1  0  0  0  0
 48 44  1  0  0  0  0
M  END
>  <MODEL>
4

>  <REMARK>
 VINA RESULT:      -8.4      3.868      9.740
  Name = 
  16 active torsions:
  status: ('A' for Active; 'I' for Inactive)
    1  A    between atoms: N_1  and  C_8
    2  A    between atoms: N_1  and  C_16
    3  A    between atoms: C_2  and  C_30
    4  A    between atoms: C_3  and  C_31
    5  A    between atoms: C_5  and  C_6
    6  A    between atoms: C_6  and  C_25
    7  A    between atoms: C_8  and  C_43
    8  A    between atoms: C_9  and  C_13
    9  A    between atoms: C_13  and  C_22
   10  A    between atoms: C_16  and  C_32
   11  A    between atoms: N_19  and  C_22
   12  A    between atoms: C_28  and  C_35
   13  A    between atoms: C_28  and  N_41
   14  A    between atoms: C_30  and  C_35
   15  A    between atoms: C_33  and  N_48
   16  A    between atoms: P_39  and  N_41
                            x       y       z     vdW  Elec       q    Type
                         _______ _______ _______ _____ _____    ______ ____

>  <TORSDO>
F 16

$$$$
=
 OpenBabel10222419083D

 48 51  0  0  1  0  0  0  0  0999 V2000
  184.3410  178.5130  145.2080 C   0  0  0  0  0  0  0  0  0  0  0  0
  183.5100  178.9640  142.5780 C   0  0  0  0  0  3  0  0  0  0  0  0
  184.8550  178.6430  142.8310 C   0  0  0  0  0  0  0  0  0  0  0  0
  182.5890  179.0560  143.6270 C   0  0  0  0  0  0  0  0  0  0  0  0
  183.0080  178.8400  144.9420 C   0  0  0  0  0  3  0  0  0  0  0  0
  185.2590  178.4150  144.1560 C   0  0  0  0  0  3  0  0  0  0  0  0
  185.8290  178.5550  141.7160 C   0  0  0  0  0  0  0  0  0  0  0  0
  187.6820  178.3540  139.5930 C   0  0  0  0  0  0  0  0  0  0  0  0
  187.1960  178.3820  141.9740 C   0  0  0  0  0  3  0  0  0  0  0  0
  185.3990  178.6360  140.3830 C   0  0  0  0  0  3  0  0  0  0  0  0
  188.1120  178.2870  140.9250 C   0  0  0  0  0  3  0  0  0  0  0  0
  186.3170  178.5400  139.3340 C   0  0  0  0  0  3  0  0  0  0  0  0
  188.6790  178.2750  138.4980 C   0  0  0  0  0  0  0  0  0  0  0  0
  188.9840  179.3360  137.8880 O   0  0  0  0  0  0  0  0  0  0  0  0
  189.3370  177.0120  138.0850 C   0  0  0  0  0  0  0  0  0  0  0  0
  190.6860  176.7940  138.4070 C   0  0  0  0  0  3  0  0  0  0  0  0
  188.6320  176.0020  137.4100 C   0  0  0  0  0  3  0  0  0  0  0  0
  189.2660  174.8080  137.0500 C   0  0  0  0  0  3  0  0  0  0  0  0
  190.6120  174.6100  137.3680 C   0  0  0  0  0  3  0  0  0  0  0  0
  191.3210  175.6020  138.0480 C   0  0  0  0  0  3  0  0  0  0  0  0
  181.1770  179.4260  143.3450 C   0  0  0  0  0  2  0  0  0  0  0  0
  180.4800  178.2930  142.7610 N   0  0  0  0  0  2  0  0  0  0  0  0
  179.9730  178.7220  141.4690 C   0  0  1  0  0  3  0  0  0  0  0  0
  180.4270  179.9970  141.1870 F   0  0  0  0  0  0  0  0  0  0  0  0
  179.8190  176.6810  140.2590 O   0  0  0  0  0  0  0  0  0  0  0  0
  180.4280  177.7740  140.4140 C   0  0  0  0  0  0  0  0  0  0  0  0
  181.5680  178.0910  139.6130 N   0  0  0  0  0  2  0  0  0  0  0  0
  182.9260  176.1120  139.1770 C   0  0  0  0  0  2  0  0  0  0  0  0
  182.8410  178.0210  137.5160 C   0  0  0  0  0  2  0  0  0  0  0  0
  183.5640  175.7380  136.7160 C   0  0  0  0  0  2  0  0  0  0  0  0
  183.4030  175.1140  138.1100 C   0  0  0  0  0  2  0  0  0  0  0  0
  182.0600  177.2100  138.5640 C   0  0  0  0  0  3  0  0  0  0  0  0
  183.9390  177.2120  136.8120 C   0  0  0  0  0  2  0  0  0  0  0  0
  184.7800  178.2830  146.6120 C   0  0  0  0  0  2  0  0  0  0  0  0
  186.1040  178.9760  146.8690 C   0  0  0  0  0  2  0  0  0  0  0  0
  188.3670  178.2370  147.6920 C   0  0  0  0  0  0  0  0  0  0  0  0
  187.1590  177.9840  146.9760 N   0  0  0  0  0  2  0  0  0  0  0  0
  188.5750  179.3660  148.2140 O   0  0  0  0  0  0  0  0  0  0  0  0
  188.7450  175.7860  147.7920 C   0  0  0  0  0  1  0  0  0  0  0  0
  189.3970  177.1580  147.7860 C   0  0  1  0  0  3  0  0  0  0  0  0
  191.5830  176.9240  146.9010 O   0  0  0  0  0  0  0  0  0  0  0  0
  190.4280  177.2690  146.7030 C   0  0  0  0  0  0  0  0  0  0  0  0
  190.0340  177.8250  145.3740 C   0  0  0  0  0  2  0  0  0  0  0  0
  189.6340  176.7480  144.4840 N   0  0  0  0  0  2  0  0  0  0  0  0
  191.7330  177.7470  143.1580 O   0  0  0  0  0  1  0  0  0  0  0  0
  190.3480  175.9280  141.8810 O   0  0  0  0  0  0  0  0  0  0  0  0
  191.9840  175.2900  144.0070 O   0  0  0  0  0  1  0  0  0  0  0  0
  190.9560  176.4680  143.3660 P   0  0  0  0  0  0  0  0  0  0  0  0
  1 34  1  0  0  0  0
  2  3  2  0  0  0  0
  2  4  1  0  0  0  0
  3  6  1  0  0  0  0
  4  5  2  0  0  0  0
  5  1  1  0  0  0  0
  6  1  2  0  0  0  0
  7  9  1  0  0  0  0
  7  3  1  0  0  0  0
  8 11  1  0  0  0  0
 10  7  2  0  0  0  0
 11  9  2  0  0  0  0
 12  8  2  0  0  0  0
 12 10  1  0  0  0  0
 13  8  1  0  0  0  0
 14 13  2  0  0  0  0
 15 16  1  0  0  0  0
 15 13  1  0  0  0  0
 17 15  2  0  0  0  0
 18 19  2  0  0  0  0
 18 17  1  0  0  0  0
 19 20  1  0  0  0  0
 20 16  2  0  0  0  0
 21  4  1  0  0  0  0
 22 21  1  0  0  0  0
 23 24  1  6  0  0  0
 23 22  1  0  0  0  0
 25 26  2  0  0  0  0
 26 23  1  0  0  0  0
 27 26  1  0  0  0  0
 29 32  1  0  0  0  0
 30 33  1  0  0  0  0
 30 31  1  0  0  0  0
 31 28  1  0  0  0  0
 32 28  1  0  0  0  0
 32 27  1  0  0  0  0
 33 29  1  0  0  0  0
 34 35  1  0  0  0  0
 35 37  1  0  0  0  0
 36 40  1  0  0  0  0
 36 38  2  0  0  0  0
 37 36  1  0  0  0  0
 40 39  1  6  0  0  0
 42 41  2  0  0  0  0
 42 40  1  0  0  0  0
 43 42  1  0  0  0  0
 44 43  1  0  0  0  0
 45 48  1  0  0  0  0
 46 48  2  0  0  0  0
 48 47  1  0  0  0  0
 48 44  1  0  0  0  0
M  END
>  <MODEL>
5

>  <REMARK>
 VINA RESULT:      -8.4      3.629      9.206
  Name = 
  16 active torsions:
  status: ('A' for Active; 'I' for Inactive)
    1  A    between atoms: N_1  and  C_8
    2  A    between atoms: N_1  and  C_16
    3  A    between atoms: C_2  and  C_30
    4  A    between atoms: C_3  and  C_31
    5  A    between atoms: C_5  and  C_6
    6  A    between atoms: C_6  and  C_25
    7  A    between atoms: C_8  and  C_43
    8  A    between atoms: C_9  and  C_13
    9  A    between atoms: C_13  and  C_22
   10  A    between atoms: C_16  and  C_32
   11  A    between atoms: N_19  and  C_22
   12  A    between atoms: C_28  and  C_35
   13  A    between atoms: C_28  and  N_41
   14  A    between atoms: C_30  and  C_35
   15  A    between atoms: C_33  and  N_48
   16  A    between atoms: P_39  and  N_41
                            x       y       z     vdW  Elec       q    Type
                         _______ _______ _______ _____ _____    ______ ____

>  <TORSDO>
F 16

$$$$
=
 OpenBabel10222419083D

 48 51  0  0  1  0  0  0  0  0999 V2000
  186.2750  177.8050  142.9080 C   0  0  0  0  0  0  0  0  0  0  0  0
  183.7680  178.9410  143.3930 C   0  0  0  0  0  3  0  0  0  0  0  0
  184.1590  178.6740  142.0700 C   0  0  0  0  0  0  0  0  0  0  0  0
  184.6170  178.6420  144.4630 C   0  0  0  0  0  0  0  0  0  0  0  0
  185.8750  178.0840  144.2180 C   0  0  0  0  0  3  0  0  0  0  0  0
  185.4190  178.0990  141.8400 C   0  0  0  0  0  3  0  0  0  0  0  0
  183.2570  179.0000  140.9390 C   0  0  0  0  0  0  0  0  0  0  0  0
  181.5410  179.5890  138.7730 C   0  0  0  0  0  0  0  0  0  0  0  0
  183.7810  179.3730  139.6930 C   0  0  0  0  0  3  0  0  0  0  0  0
  181.8650  178.9330  141.0920 C   0  0  0  0  0  3  0  0  0  0  0  0
  182.9320  179.6680  138.6240 C   0  0  0  0  0  3  0  0  0  0  0  0
  181.0170  179.2280  140.0220 C   0  0  0  0  0  3  0  0  0  0  0  0
  180.6630  179.9320  137.6280 C   0  0  0  0  0  0  0  0  0  0  0  0
  179.8400  179.0650  137.2250 O   0  0  0  0  0  0  0  0  0  0  0  0
  180.7010  181.2420  136.9350 C   0  0  0  0  0  0  0  0  0  0  0  0
  180.8490  182.4200  137.6850 C   0  0  0  0  0  3  0  0  0  0  0  0
  180.6340  181.3360  135.5360 C   0  0  0  0  0  3  0  0  0  0  0  0
  180.6950  182.5810  134.9010 C   0  0  0  0  0  3  0  0  0  0  0  0
  180.8320  183.7450  135.6610 C   0  0  0  0  0  3  0  0  0  0  0  0
  180.9110  183.6640  137.0530 C   0  0  0  0  0  3  0  0  0  0  0  0
  184.2010  178.9610  145.8550 C   0  0  0  0  0  2  0  0  0  0  0  0
  185.0320  178.2280  146.7940 N   0  0  0  0  0  2  0  0  0  0  0  0
  186.2360  179.0140  147.0030 C   0  0  1  0  0  3  0  0  0  0  0  0
  186.0510  179.8820  148.0650 F   0  0  0  0  0  0  0  0  0  0  0  0
  187.4980  177.5850  148.4230 O   0  0  0  0  0  0  0  0  0  0  0  0
  187.3840  178.1070  147.2820 C   0  0  0  0  0  0  0  0  0  0  0  0
  188.3640  177.8650  146.2710 N   0  0  0  0  0  2  0  0  0  0  0  0
  190.4220  177.5760  147.5480 C   0  0  0  0  0  2  0  0  0  0  0  0
  190.2570  176.7730  145.1530 C   0  0  0  0  0  2  0  0  0  0  0  0
  192.0280  175.7800  146.6550 C   0  0  0  0  0  2  0  0  0  0  0  0
  191.6020  176.6400  147.8530 C   0  0  0  0  0  2  0  0  0  0  0  0
  189.5060  176.9870  146.4780 C   0  0  0  0  0  3  0  0  0  0  0  0
  191.7560  176.4970  145.3380 C   0  0  0  0  0  2  0  0  0  0  0  0
  187.6150  177.2090  142.6550 C   0  0  0  0  0  2  0  0  0  0  0  0
  188.5940  178.2820  142.2150 C   0  0  0  0  0  2  0  0  0  0  0  0
  189.0350  178.0560  139.7460 C   0  0  0  0  0  0  0  0  0  0  0  0
  189.3860  177.7890  141.1020 N   0  0  0  0  0  2  0  0  0  0  0  0
  187.9820  178.6940  139.4730 O   0  0  0  0  0  0  0  0  0  0  0  0
  190.6310  176.2750  139.0820 C   0  0  0  0  0  1  0  0  0  0  0  0
  189.9150  177.5430  138.6520 C   0  0  1  0  0  3  0  0  0  0  0  0
  189.2160  178.1630  136.4740 O   0  0  0  0  0  0  0  0  0  0  0  0
  189.1590  177.3380  137.3730 C   0  0  0  0  0  0  0  0  0  0  0  0
  188.3150  176.1170  137.2110 C   0  0  0  0  0  2  0  0  0  0  0  0
  187.5580  176.1970  135.9730 N   0  0  0  0  0  2  0  0  0  0  0  0
  185.6190  177.5000  137.2780 O   0  0  0  0  0  1  0  0  0  0  0  0
  185.3890  174.8920  137.2170 O   0  0  0  0  0  1  0  0  0  0  0  0
  184.9430  176.4490  134.9850 O   0  0  0  0  0  0  0  0  0  0  0  0
  185.8600  176.2960  136.3970 P   0  0  0  0  0  0  0  0  0  0  0  0
  1  5  1  0  0  0  0
  2  4  1  0  0  0  0
  3  2  2  0  0  0  0
  4 21  1  0  0  0  0
  5  4  2  0  0  0  0
  6  3  1  0  0  0  0
  6  1  2  0  0  0  0
  7 10  1  0  0  0  0
  7  3  1  0  0  0  0
  8 12  1  0  0  0  0
  9  7  2  0  0  0  0
 11  8  2  0  0  0  0
 11  9  1  0  0  0  0
 12 10  2  0  0  0  0
 13  8  1  0  0  0  0
 14 13  2  0  0  0  0
 15 13  1  0  0  0  0
 15 16  1  0  0  0  0
 17 15  2  0  0  0  0
 18 17  1  0  0  0  0
 18 19  2  0  0  0  0
 19 20  1  0  0  0  0
 20 16  2  0  0  0  0
 21 22  1  0  0  0  0
 22 23  1  0  0  0  0
 23 26  1  0  0  0  0
 23 24  1  1  0  0  0
 26 25  2  0  0  0  0
 27 32  1  0  0  0  0
 27 26  1  0  0  0  0
 28 31  1  0  0  0  0
 29 33  1  0  0  0  0
 29 32  1  0  0  0  0
 30 31  1  0  0  0  0
 32 28  1  0  0  0  0
 33 30  1  0  0  0  0
 34  1  1  0  0  0  0
 35 34  1  0  0  0  0
 36 37  1  0  0  0  0
 37 35  1  0  0  0  0
 38 36  2  0  0  0  0
 40 39  1  1  0  0  0
 40 36  1  0  0  0  0
 41 42  2  0  0  0  0
 42 40  1  0  0  0  0
 43 42  1  0  0  0  0
 44 48  1  0  0  0  0
 44 43  1  0  0  0  0
 47 48  2  0  0  0  0
 48 46  1  0  0  0  0
 48 45  1  0  0  0  0
M  END
>  <MODEL>
6

>  <REMARK>
 VINA RESULT:      -8.4      3.467      8.522
  Name = 
  16 active torsions:
  status: ('A' for Active; 'I' for Inactive)
    1  A    between atoms: N_1  and  C_8
    2  A    between atoms: N_1  and  C_16
    3  A    between atoms: C_2  and  C_30
    4  A    between atoms: C_3  and  C_31
    5  A    between atoms: C_5  and  C_6
    6  A    between atoms: C_6  and  C_25
    7  A    between atoms: C_8  and  C_43
    8  A    between atoms: C_9  and  C_13
    9  A    between atoms: C_13  and  C_22
   10  A    between atoms: C_16  and  C_32
   11  A    between atoms: N_19  and  C_22
   12  A    between atoms: C_28  and  C_35
   13  A    between atoms: C_28  and  N_41
   14  A    between atoms: C_30  and  C_35
   15  A    between atoms: C_33  and  N_48
   16  A    between atoms: P_39  and  N_41
                            x       y       z     vdW  Elec       q    Type
                         _______ _______ _______ _____ _____    ______ ____

>  <TORSDO>
F 16

$$$$
=
 OpenBabel10222419083D

 48 51  0  0  1  0  0  0  0  0999 V2000
  182.4700  178.6680  139.2260 C   0  0  0  0  0  0  0  0  0  0  0  0
  185.1800  178.5010  139.8890 C   0  0  0  0  0  3  0  0  0  0  0  0
  184.2200  178.5430  140.9150 C   0  0  0  0  0  0  0  0  0  0  0  0
  184.7910  178.5400  138.5460 C   0  0  0  0  0  0  0  0  0  0  0  0
  183.4360  178.6340  138.2160 C   0  0  0  0  0  3  0  0  0  0  0  0
  182.8620  178.6220  140.5680 C   0  0  0  0  0  3  0  0  0  0  0  0
  184.6390  178.5100  142.3380 C   0  0  0  0  0  0  0  0  0  0  0  0
  185.4200  178.4170  145.0510 C   0  0  0  0  0  0  0  0  0  0  0  0
  183.7880  178.9890  143.3430 C   0  0  0  0  0  3  0  0  0  0  0  0
  185.8900  177.9910  142.7030 C   0  0  0  0  0  3  0  0  0  0  0  0
  184.1770  178.9470  144.6840 C   0  0  0  0  0  3  0  0  0  0  0  0
  186.2770  177.9480  144.0450 C   0  0  0  0  0  3  0  0  0  0  0  0
  185.8180  178.4070  146.4790 C   0  0  0  0  0  0  0  0  0  0  0  0
  184.9330  178.6380  147.3480 O   0  0  0  0  0  0  0  0  0  0  0  0
  187.2020  178.1370  146.9380 C   0  0  0  0  0  0  0  0  0  0  0  0
  187.5880  178.5090  148.2360 C   0  0  0  0  0  3  0  0  0  0  0  0
  188.1340  177.4790  146.1190 C   0  0  0  0  0  3  0  0  0  0  0  0
  189.4270  177.2140  146.5800 C   0  0  0  0  0  3  0  0  0  0  0  0
  189.8000  177.5990  147.8690 C   0  0  0  0  0  3  0  0  0  0  0  0
  188.8800  178.2440  148.6990 C   0  0  0  0  0  3  0  0  0  0  0  0
  185.8210  178.5260  137.4730 C   0  0  0  0  0  2  0  0  0  0  0  0
  186.6150  177.3130  137.5720 N   0  0  0  0  0  2  0  0  0  0  0  0
  187.9950  177.6830  137.3120 C   0  0  1  0  0  3  0  0  0  0  0  0
  188.0390  178.7240  136.4020 F   0  0  0  0  0  0  0  0  0  0  0  0
  188.8260  179.3170  138.8260 O   0  0  0  0  0  0  0  0  0  0  0  0
  188.6510  178.0930  138.5860 C   0  0  0  0  0  0  0  0  0  0  0  0
  189.1100  177.0990  139.5040 N   0  0  0  0  0  2  0  0  0  0  0  0
  191.2480  177.1280  140.6790 C   0  0  0  0  0  2  0  0  0  0  0  0
  189.0910  176.6620  141.9200 C   0  0  0  0  0  2  0  0  0  0  0  0
  191.1010  177.4630  143.2210 C   0  0  0  0  0  2  0  0  0  0  0  0
  191.9800  177.5400  141.9650 C   0  0  0  0  0  2  0  0  0  0  0  0
  189.7550  177.4330  140.7660 C   0  0  0  0  0  3  0  0  0  0  0  0
  190.0440  176.3730  143.0880 C   0  0  0  0  0  2  0  0  0  0  0  0
  181.0290  178.7670  138.8670 C   0  0  0  0  0  2  0  0  0  0  0  0
  180.4110  177.3840  138.7850 C   0  0  0  0  0  2  0  0  0  0  0  0
  180.9070  176.1090  136.6710 C   0  0  0  0  0  0  0  0  0  0  0  0
  181.2630  176.5180  137.9910 N   0  0  0  0  0  2  0  0  0  0  0  0
  179.8020  176.4540  136.1720 O   0  0  0  0  0  0  0  0  0  0  0  0
  181.1460  174.5940  134.7190 C   0  0  0  0  0  1  0  0  0  0  0  0
  181.8490  175.2400  135.9000 C   0  0  1  0  0  3  0  0  0  0  0  0
  182.9800  177.0540  134.8780 O   0  0  0  0  0  0  0  0  0  0  0  0
  183.0740  175.9870  135.4660 C   0  0  0  0  0  0  0  0  0  0  0  0
  184.4210  175.4070  135.7450 C   0  0  0  0  0  2  0  0  0  0  0  0
  184.4960  174.0520  135.2240 N   0  0  0  0  0  2  0  0  0  0  0  0
  186.0740  173.7220  137.3600 O   0  0  0  0  0  1  0  0  0  0  0  0
  185.6800  171.5830  135.9010 O   0  0  0  0  0  0  0  0  0  0  0  0
  183.7040  172.6330  137.5130 O   0  0  0  0  0  1  0  0  0  0  0  0
  185.0280  173.0120  136.5320 P   0  0  0  0  0  0  0  0  0  0  0  0
  1  6  1  0  0  0  0
  2  3  1  0  0  0  0
  3  7  1  0  0  0  0
  4  2  2  0  0  0  0
  5  4  1  0  0  0  0
  5  1  2  0  0  0  0
  6  3  2  0  0  0  0
  7 10  2  0  0  0  0
  7  9  1  0  0  0  0
  8 13  1  0  0  0  0
  9 11  2  0  0  0  0
 10 12  1  0  0  0  0
 11  8  1  0  0  0  0
 12  8  2  0  0  0  0
 13 15  1  0  0  0  0
 13 14  2  0  0  0  0
 15 16  1  0  0  0  0
 16 20  2  0  0  0  0
 17 18  1  0  0  0  0
 17 15  2  0  0  0  0
 18 19  2  0  0  0  0
 19 20  1  0  0  0  0
 21 22  1  0  0  0  0
 21  4  1  0  0  0  0
 23 24  1  6  0  0  0
 23 22  1  0  0  0  0
 23 26  1  0  0  0  0
 26 25  2  0  0  0  0
 26 27  1  0  0  0  0
 27 32  1  0  0  0  0
 28 32  1  0  0  0  0
 28 31  1  0  0  0  0
 29 33  1  0  0  0  0
 31 30  1  0  0  0  0
 32 29  1  0  0  0  0
 33 30  1  0  0  0  0
 34  1  1  0  0  0  0
 35 34  1  0  0  0  0
 36 37  1  0  0  0  0
 37 35  1  0  0  0  0
 38 36  2  0  0  0  0
 40 39  1  6  0  0  0
 40 36  1  0  0  0  0
 41 42  2  0  0  0  0
 42 43  1  0  0  0  0
 42 40  1  0  0  0  0
 44 43  1  0  0  0  0
 44 48  1  0  0  0  0
 46 48  2  0  0  0  0
 48 45  1  0  0  0  0
 48 47  1  0  0  0  0
M  END
>  <MODEL>
7

>  <REMARK>
 VINA RESULT:      -8.2      1.177      1.526
  Name = 
  16 active torsions:
  status: ('A' for Active; 'I' for Inactive)
    1  A    between atoms: N_1  and  C_8
    2  A    between atoms: N_1  and  C_16
    3  A    between atoms: C_2  and  C_30
    4  A    between atoms: C_3  and  C_31
    5  A    between atoms: C_5  and  C_6
    6  A    between atoms: C_6  and  C_25
    7  A    between atoms: C_8  and  C_43
    8  A    between atoms: C_9  and  C_13
    9  A    between atoms: C_13  and  C_22
   10  A    between atoms: C_16  and  C_32
   11  A    between atoms: N_19  and  C_22
   12  A    between atoms: C_28  and  C_35
   13  A    between atoms: C_28  and  N_41
   14  A    between atoms: C_30  and  C_35
   15  A    between atoms: C_33  and  N_48
   16  A    between atoms: P_39  and  N_41
                            x       y       z     vdW  Elec       q    Type
                         _______ _______ _______ _____ _____    ______ ____

>  <TORSDO>
F 16

$$$$
=
 OpenBabel10222419083D

 48 51  0  0  1  0  0  0  0  0999 V2000
  184.6760  178.5020  138.5110 C   0  0  0  0  0  0  0  0  0  0  0  0
  182.7530  178.4660  140.5400 C   0  0  0  0  0  3  0  0  0  0  0  0
  184.1170  178.4720  140.8820 C   0  0  0  0  0  0  0  0  0  0  0  0
  182.3540  178.4800  139.2000 C   0  0  0  0  0  0  0  0  0  0  0  0
  183.3160  178.4870  138.1860 C   0  0  0  0  0  3  0  0  0  0  0  0
  185.0720  178.4950  139.8540 C   0  0  0  0  0  3  0  0  0  0  0  0
  184.5350  178.4490  142.3050 C   0  0  0  0  0  0  0  0  0  0  0  0
  185.3440  178.4350  145.0120 C   0  0  0  0  0  0  0  0  0  0  0  0
  185.8220  178.0250  142.6640 C   0  0  0  0  0  3  0  0  0  0  0  0
  183.6530  178.8580  143.3160 C   0  0  0  0  0  3  0  0  0  0  0  0
  186.2200  178.0150  144.0020 C   0  0  0  0  0  3  0  0  0  0  0  0
  184.0530  178.8470  144.6550 C   0  0  0  0  0  3  0  0  0  0  0  0
  185.7840  178.3910  146.4270 C   0  0  0  0  0  0  0  0  0  0  0  0
  184.9370  178.6480  147.3250 O   0  0  0  0  0  0  0  0  0  0  0  0
  187.1690  178.0570  146.8400 C   0  0  0  0  0  0  0  0  0  0  0  0
  187.6000  178.3690  148.1390 C   0  0  0  0  0  3  0  0  0  0  0  0
  188.0560  177.3970  145.9740 C   0  0  0  0  0  3  0  0  0  0  0  0
  189.3500  177.0710  146.3910 C   0  0  0  0  0  3  0  0  0  0  0  0
  189.7690  177.3970  147.6840 C   0  0  0  0  0  3  0  0  0  0  0  0
  188.8930  178.0440  148.5580 C   0  0  0  0  0  3  0  0  0  0  0  0
  180.9080  178.4420  138.8550 C   0  0  0  0  0  2  0  0  0  0  0  0
  180.7470  178.0640  137.4610 N   0  0  0  0  0  2  0  0  0  0  0  0
  180.2610  176.6950  137.4420 C   0  0  1  0  0  3  0  0  0  0  0  0
  179.0670  176.6310  136.7470 F   0  0  0  0  0  0  0  0  0  0  0  0
  181.8150  176.1770  135.7200 O   0  0  0  0  0  0  0  0  0  0  0  0
  181.2730  175.8130  136.7980 C   0  0  0  0  0  0  0  0  0  0  0  0
  181.5950  174.5500  137.3830 N   0  0  0  0  0  2  0  0  0  0  0  0
  182.1100  172.2010  136.9730 C   0  0  0  0  0  2  0  0  0  0  0  0
  183.9520  173.8680  137.4590 C   0  0  0  0  0  2  0  0  0  0  0  0
  184.5360  171.7110  136.2840 C   0  0  0  0  0  2  0  0  0  0  0  0
  183.0820  171.2150  136.3070 C   0  0  0  0  0  2  0  0  0  0  0  0
  182.5780  173.6440  136.8050 C   0  0  0  0  0  3  0  0  0  0  0  0
  184.8310  172.6100  137.4780 C   0  0  0  0  0  2  0  0  0  0  0  0
  185.6950  178.5110  137.4270 C   0  0  0  0  0  2  0  0  0  0  0  0
  186.0770  177.0920  137.0510 C   0  0  0  0  0  2  0  0  0  0  0  0
  188.1950  175.7300  137.0910 C   0  0  0  0  0  0  0  0  0  0  0  0
  187.5230  176.9830  136.9710 N   0  0  0  0  0  2  0  0  0  0  0  0
  187.5440  174.6760  137.3240 O   0  0  0  0  0  0  0  0  0  0  0  0
  190.1750  176.7320  135.9800 C   0  0  0  0  0  1  0  0  0  0  0  0
  189.6850  175.6890  136.9680 C   0  0  1  0  0  3  0  0  0  0  0  0
  191.4150  175.2600  138.5290 O   0  0  0  0  0  0  0  0  0  0  0  0
  190.3610  175.8340  138.2980 C   0  0  0  0  0  0  0  0  0  0  0  0
  189.7260  176.6780  139.3540 C   0  0  0  0  0  2  0  0  0  0  0  0
  190.7360  177.4780  140.0260 N   0  0  0  0  0  2  0  0  0  0  0  0
  190.1220  175.7890  142.0090 O   0  0  0  0  0  0  0  0  0  0  0  0
  189.4090  178.2810  142.3810 O   0  0  0  0  0  1  0  0  0  0  0  0
  192.0460  177.4840  142.5080 O   0  0  0  0  0  1  0  0  0  0  0  0
  190.5600  177.2120  141.7500 P   0  0  0  0  0  0  0  0  0  0  0  0
  1  6  1  0  0  0  0
  2  3  1  0  0  0  0
  3  7  1  0  0  0  0
  4  2  2  0  0  0  0
  5  1  2  0  0  0  0
  5  4  1  0  0  0  0
  6  3  2  0  0  0  0
  7  9  2  0  0  0  0
  7 10  1  0  0  0  0
  8 13  1  0  0  0  0
  9 11  1  0  0  0  0
 10 12  2  0  0  0  0
 11  8  2  0  0  0  0
 12  8  1  0  0  0  0
 13 15  1  0  0  0  0
 13 14  2  0  0  0  0
 15 16  1  0  0  0  0
 16 20  2  0  0  0  0
 17 18  1  0  0  0  0
 17 15  2  0  0  0  0
 18 19  2  0  0  0  0
 19 20  1  0  0  0  0
 21  4  1  0  0  0  0
 22 21  1  0  0  0  0
 23 24  1  6  0  0  0
 23 22  1  0  0  0  0
 25 26  2  0  0  0  0
 26 27  1  0  0  0  0
 26 23  1  0  0  0  0
 29 33  1  0  0  0  0
 30 31  1  0  0  0  0
 30 33  1  0  0  0  0
 31 28  1  0  0  0  0
 32 28  1  0  0  0  0
 32 27  1  0  0  0  0
 32 29  1  0  0  0  0
 34  1  1  0  0  0  0
 35 34  1  0  0  0  0
 36 38  2  0  0  0  0
 37 35  1  0  0  0  0
 37 36  1  0  0  0  0
 40 39  1  6  0  0  0
 40 36  1  0  0  0  0
 40 42  1  0  0  0  0
 42 41  2  0  0  0  0
 42 43  1  0  0  0  0
 43 44  1  0  0  0  0
 44 48  1  0  0  0  0
 48 45  2  0  0  0  0
 48 46  1  0  0  0  0
 48 47  1  0  0  0  0
M  END
>  <MODEL>
8

>  <REMARK>
 VINA RESULT:      -8.2      2.823      6.805
  Name = 
  16 active torsions:
  status: ('A' for Active; 'I' for Inactive)
    1  A    between atoms: N_1  and  C_8
    2  A    between atoms: N_1  and  C_16
    3  A    between atoms: C_2  and  C_30
    4  A    between atoms: C_3  and  C_31
    5  A    between atoms: C_5  and  C_6
    6  A    between atoms: C_6  and  C_25
    7  A    between atoms: C_8  and  C_43
    8  A    between atoms: C_9  and  C_13
    9  A    between atoms: C_13  and  C_22
   10  A    between atoms: C_16  and  C_32
   11  A    between atoms: N_19  and  C_22
   12  A    between atoms: C_28  and  C_35
   13  A    between atoms: C_28  and  N_41
   14  A    between atoms: C_30  and  C_35
   15  A    between atoms: C_33  and  N_48
   16  A    between atoms: P_39  and  N_41
                            x       y       z     vdW  Elec       q    Type
                         _______ _______ _______ _____ _____    ______ ____

>  <TORSDO>
F 16

$$$$
=
 OpenBabel10222419083D

 48 51  0  0  1  0  0  0  0  0999 V2000
  186.3510  177.7820  143.0670 C   0  0  0  0  0  0  0  0  0  0  0  0
  183.8540  178.9650  143.4890 C   0  0  0  0  0  3  0  0  0  0  0  0
  184.2710  178.6830  142.1760 C   0  0  0  0  0  0  0  0  0  0  0  0
  184.6730  178.6570  144.5790 C   0  0  0  0  0  0  0  0  0  0  0  0
  185.9260  178.0750  144.3660 C   0  0  0  0  0  3  0  0  0  0  0  0
  185.5250  178.0850  141.9780 C   0  0  0  0  0  3  0  0  0  0  0  0
  183.4010  179.0190  141.0230 C   0  0  0  0  0  0  0  0  0  0  0  0
  181.7430  179.6910  138.8360 C   0  0  0  0  0  0  0  0  0  0  0  0
  182.0050  179.0030  141.1530 C   0  0  0  0  0  3  0  0  0  0  0  0
  183.9590  179.3670  139.7840 C   0  0  0  0  0  3  0  0  0  0  0  0
  181.1860  179.3310  140.0710 C   0  0  0  0  0  3  0  0  0  0  0  0
  183.1380  179.6960  138.7020 C   0  0  0  0  0  3  0  0  0  0  0  0
  180.8500  180.0110  137.6970 C   0  0  0  0  0  0  0  0  0  0  0  0
  180.0860  179.1060  137.2630 O   0  0  0  0  0  0  0  0  0  0  0  0
  180.8070  181.3420  137.0430 C   0  0  0  0  0  0  0  0  0  0  0  0
  181.0690  182.4950  137.7990 C   0  0  0  0  0  3  0  0  0  0  0  0
  180.5500  181.4790  135.6690 C   0  0  0  0  0  3  0  0  0  0  0  0
  180.5380  182.7410  135.0680 C   0  0  0  0  0  3  0  0  0  0  0  0
  180.7900  183.8810  135.8350 C   0  0  0  0  0  3  0  0  0  0  0  0
  181.0580  183.7580  137.2000 C   0  0  0  0  0  3  0  0  0  0  0  0
  184.2310  178.9900  145.9590 C   0  0  0  0  0  2  0  0  0  0  0  0
  185.0390  178.2620  146.9220 N   0  0  0  0  0  2  0  0  0  0  0  0
  186.2400  179.0460  147.1530 C   0  0  1  0  0  3  0  0  0  0  0  0
  186.0540  179.8790  148.2410 F   0  0  0  0  0  0  0  0  0  0  0  0
  187.5320  177.6070  148.5360 O   0  0  0  0  0  0  0  0  0  0  0  0
  187.3920  178.1350  147.4000 C   0  0  0  0  0  0  0  0  0  0  0  0
  188.3480  177.8960  146.3650 N   0  0  0  0  0  2  0  0  0  0  0  0
  190.4650  177.6270  147.5450 C   0  0  0  0  0  2  0  0  0  0  0  0
  190.1740  176.7550  145.1860 C   0  0  0  0  0  2  0  0  0  0  0  0
  192.0110  175.7920  146.6270 C   0  0  0  0  0  2  0  0  0  0  0  0
  191.6520  176.6910  147.8200 C   0  0  0  0  0  2  0  0  0  0  0  0
  189.4930  177.0140  146.5410 C   0  0  0  0  0  3  0  0  0  0  0  0
  191.6790  176.4730  145.3040 C   0  0  0  0  0  2  0  0  0  0  0  0
  187.6850  177.1600  142.8480 C   0  0  0  0  0  2  0  0  0  0  0  0
  188.5070  178.0030  141.8920 C   0  0  0  0  0  2  0  0  0  0  0  0
  188.3080  177.6160  139.4110 C   0  0  0  0  0  0  0  0  0  0  0  0
  188.7990  177.2340  140.6950 N   0  0  0  0  0  2  0  0  0  0  0  0
  187.5540  178.6180  139.2890 O   0  0  0  0  0  0  0  0  0  0  0  0
  187.5970  176.8750  137.1510 C   0  0  0  0  0  1  0  0  0  0  0  0
  188.6740  176.7930  138.2180 C   0  0  1  0  0  3  0  0  0  0  0  0
  190.1140  177.7940  136.6240 O   0  0  0  0  0  0  0  0  0  0  0  0
  190.0180  177.1680  137.6690 C   0  0  0  0  0  0  0  0  0  0  0  0
  191.2500  176.7520  138.4040 C   0  0  0  0  0  2  0  0  0  0  0  0
  191.5320  175.3500  138.1470 N   0  0  0  0  0  2  0  0  0  0  0  0
  193.7430  176.6110  137.3200 O   0  0  0  0  0  1  0  0  0  0  0  0
  192.7660  174.8340  135.6630 O   0  0  0  0  0  0  0  0  0  0  0  0
  194.0440  174.1060  137.9960 O   0  0  0  0  0  1  0  0  0  0  0  0
  193.0510  175.2680  137.2740 P   0  0  0  0  0  0  0  0  0  0  0  0
  1  5  1  0  0  0  0
  2  4  1  0  0  0  0
  3  2  2  0  0  0  0
  4 21  1  0  0  0  0
  5  4  2  0  0  0  0
  6  3  1  0  0  0  0
  6  1  2  0  0  0  0
  7  9  1  0  0  0  0
  7  3  1  0  0  0  0
  8 11  1  0  0  0  0
 10  7  2  0  0  0  0
 11  9  2  0  0  0  0
 12  8  2  0  0  0  0
 12 10  1  0  0  0  0
 13  8  1  0  0  0  0
 14 13  2  0  0  0  0
 15 13  1  0  0  0  0
 15 16  1  0  0  0  0
 17 15  2  0  0  0  0
 18 17  1  0  0  0  0
 18 19  2  0  0  0  0
 19 20  1  0  0  0  0
 20 16  2  0  0  0  0
 21 22  1  0  0  0  0
 22 23  1  0  0  0  0
 23 26  1  0  0  0  0
 23 24  1  1  0  0  0
 26 25  2  0  0  0  0
 27 32  1  0  0  0  0
 27 26  1  0  0  0  0
 28 31  1  0  0  0  0
 29 33  1  0  0  0  0
 29 32  1  0  0  0  0
 30 31  1  0  0  0  0
 32 28  1  0  0  0  0
 33 30  1  0  0  0  0
 34  1  1  0  0  0  0
 35 34  1  0  0  0  0
 36 37  1  0  0  0  0
 37 35  1  0  0  0  0
 38 36  2  0  0  0  0
 40 39  1  6  0  0  0
 40 36  1  0  0  0  0
 41 42  2  0  0  0  0
 42 40  1  0  0  0  0
 42 43  1  0  0  0  0
 44 43  1  0  0  0  0
 46 48  2  0  0  0  0
 48 45  1  0  0  0  0
 48 47  1  0  0  0  0
 48 44  1  0  0  0  0
M  END
>  <MODEL>
9

>  <REMARK>
 VINA RESULT:      -8.2      4.272      8.854
  Name = 
  16 active torsions:
  status: ('A' for Active; 'I' for Inactive)
    1  A    between atoms: N_1  and  C_8
    2  A    between atoms: N_1  and  C_16
    3  A    between atoms: C_2  and  C_30
    4  A    between atoms: C_3  and  C_31
    5  A    between atoms: C_5  and  C_6
    6  A    between atoms: C_6  and  C_25
    7  A    between atoms: C_8  and  C_43
    8  A    between atoms: C_9  and  C_13
    9  A    between atoms: C_13  and  C_22
   10  A    between atoms: C_16  and  C_32
   11  A    between atoms: N_19  and  C_22
   12  A    between atoms: C_28  and  C_35
   13  A    between atoms: C_28  and  N_41
   14  A    between atoms: C_30  and  C_35
   15  A    between atoms: C_33  and  N_48
   16  A    between atoms: P_39  and  N_41
                            x       y       z     vdW  Elec       q    Type
                         _______ _______ _______ _____ _____    ______ ____

>  <TORSDO>
F 16

$$$$
