=
 OpenBabel10222421213D

 39 42  0  0  1  0  0  0  0  0999 V2000
  189.5940  177.1170  143.5960 N   0  0  0  0  0  0  0  0  0  0  0  0
  188.1550  177.3200  143.3690 C   0  0  2  0  0  3  0  0  0  0  0  0
  187.4990  176.1080  143.4820 F   0  0  0  0  0  0  0  0  0  0  0  0
  190.0680  177.1770  141.2340 C   0  0  0  0  0  0  0  0  0  0  0  0
  187.8700  177.9260  142.0110 C   0  0  0  0  0  0  0  0  0  0  0  0
  188.7540  177.8010  141.0190 C   0  0  0  0  0  3  0  0  0  0  0  0
  190.4640  176.8830  142.4760 C   0  0  0  0  0  3  0  0  0  0  0  0
  190.1060  177.0140  144.9390 C   0  0  0  0  0  0  0  0  0  0  0  0
  191.4550  176.7010  145.1730 C   0  0  0  0  0  3  0  0  0  0  0  0
  191.1220  176.7850  147.5230 C   0  0  0  0  0  3  0  0  0  0  0  0
  189.2690  177.2100  146.0480 C   0  0  0  0  0  3  0  0  0  0  0  0
  191.9280  176.5960  146.4440 N   0  0  0  0  0  0  0  0  0  0  0  0
  189.7750  177.0970  147.3430 C   0  0  0  0  0  3  0  0  0  0  0  0
  190.9750  176.9640  140.0600 C   0  0  2  0  0  3  0  0  0  0  0  0
  192.3670  177.4930  140.3550 C   0  0  0  0  0  1  0  0  0  0  0  0
  190.4430  177.6120  138.8690 N   0  0  0  0  0  2  0  0  0  0  0  0
  190.2710  176.5850  137.8520 C   0  0  2  0  0  3  0  0  0  0  0  0
  185.5500  176.0770  136.8020 N   0  0  0  0  0  1  0  0  0  0  0  0
  186.9110  176.4920  136.7700 C   0  0  0  0  0  0  0  0  0  0  0  0
  187.3980  177.3500  135.8580 N   0  0  0  0  0  0  0  0  0  0  0  0
  188.6810  177.4950  136.1400 N   0  0  0  0  0  0  0  0  0  0  0  0
  188.9280  176.7230  137.2170 C   0  0  0  0  0  0  0  0  0  0  0  0
  187.8350  176.0650  137.6500 N   0  0  0  0  0  2  0  0  0  0  0  0
  190.4010  175.2660  138.4540 N   0  0  0  0  0  2  0  0  0  0  0  0
  192.2210  174.5540  137.5000 C   0  0  0  0  0  1  0  0  0  0  0  0
  190.8330  174.4270  137.4830 O   0  0  0  0  0  0  0  0  0  0  0  0
  186.5770  178.6280  141.7020 C   0  0  0  0  0  2  0  0  0  0  0  0
  185.5080  178.4680  142.7790 C   0  0  0  0  0  2  0  0  0  0  0  0
  182.9930  178.8010  142.9710 C   0  0  0  0  0  0  0  0  0  0  0  0
  184.1790  178.5790  142.1950 N   0  0  0  0  0  2  0  0  0  0  0  0
  183.0540  178.8360  144.4600 C   0  0  0  0  0  1  0  0  0  0  0  0
  181.8440  178.9600  142.3920 N   0  0  0  0  0  0  0  0  0  0  0  0
  180.6030  179.7810  140.5840 O   0  0  0  0  0  1  0  0  0  0  0  0
  181.6650  178.9490  140.9390 C   0  0  2  0  0  3  0  0  0  0  0  0
  181.0110  177.5840  139.0300 O   0  0  0  0  0  0  0  0  0  0  0  0
  182.3560  177.2290  139.2550 C   0  0  1  0  0  3  0  0  0  0  0  0
  181.4330  177.5400  140.3720 C   0  0  1  0  0  3  0  0  0  0  0  0
  182.2180  175.1810  138.0100 N   0  0  0  0  0  2  0  0  0  0  0  0
  182.5000  175.7530  139.1200 C   0  0  0  0  0  3  0  0  0  0  0  0
  1  8  1  0  0  0  0
  2  3  1  6  0  0  0
  2  1  1  0  0  0  0
  4  7  2  0  0  0  0
  5  2  1  0  0  0  0
  6  4  1  0  0  0  0
  6  5  2  0  0  0  0
  7  1  1  0  0  0  0
  8  9  2  0  0  0  0
  8 11  1  0  0  0  0
  9 12  1  0  0  0  0
 11 13  2  0  0  0  0
 12 10  2  0  0  0  0
 13 10  1  0  0  0  0
 14 15  1  1  0  0  0
 14  4  1  0  0  0  0
 16 14  1  0  0  0  0
 17 24  1  1  0  0  0
 17 16  1  0  0  0  0
 19 18  1  0  0  0  0
 19 23  1  0  0  0  0
 20 21  1  0  0  0  0
 20 19  2  0  0  0  0
 21 22  2  0  0  0  0
 22 23  1  0  0  0  0
 22 17  1  0  0  0  0
 26 25  1  0  0  0  0
 26 24  1  0  0  0  0
 27  5  1  0  0  0  0
 27 28  1  0  0  0  0
 29 31  1  0  0  0  0
 30 28  1  0  0  0  0
 30 29  1  0  0  0  0
 32 29  2  0  0  0  0
 34 33  1  1  0  0  0
 34 32  1  0  0  0  0
 35 36  1  0  0  0  0
 35 37  1  0  0  0  0
 36 39  1  1  0  0  0
 36 37  1  0  0  0  0
 37 34  1  6  0  0  0
 38 39  2  0  0  0  0
M  END
>  <MODEL>
1

>  <REMARK>
 VINA RESULT:      -7.8      0.000      0.000
  Name = 
  13 active torsions:
  status: ('A' for Active; 'I' for Inactive)
    1  A    between atoms: C_1  and  C_16
    2  A    between atoms: C_1  and  N_21
    3  A    between atoms: N_2  and  C_5
    4  A    between atoms: C_9  and  C_20
    5  A    between atoms: N_10  and  C_30
    6  A    between atoms: N_10  and  O_35
    7  A    between atoms: N_17  and  C_39
    8  A    between atoms: C_18  and  C_24
    9  A    between atoms: C_18  and  N_29
   10  A    between atoms: N_21  and  C_30
   11  A    between atoms: C_23  and  C_32
   12  A    between atoms: C_28  and  C_30
   13  A    between atoms: C_32  and  C_39
                            x       y       z     vdW  Elec       q    Type
                         _______ _______ _______ _____ _____    ______ ____

>  <TORSDO>
F 13

$$$$
=
 OpenBabel10222421213D

 39 42  0  0  1  0  0  0  0  0999 V2000
  183.6330  178.7480  143.2720 N   0  0  0  0  0  0  0  0  0  0  0  0
  184.1660  179.2410  144.5510 C   0  0  2  0  0  3  0  0  0  0  0  0
  184.1690  180.6250  144.5420 F   0  0  0  0  0  0  0  0  0  0  0  0
  185.8400  178.2680  142.4330 C   0  0  0  0  0  0  0  0  0  0  0  0
  185.5670  178.7340  144.8210 C   0  0  0  0  0  0  0  0  0  0  0  0
  186.3440  178.3350  143.8120 C   0  0  0  0  0  3  0  0  0  0  0  0
  184.5360  178.4410  142.1970 C   0  0  0  0  0  3  0  0  0  0  0  0
  182.2100  178.7060  143.0500 C   0  0  0  0  0  0  0  0  0  0  0  0
  181.6820  178.7390  141.7500 C   0  0  0  0  0  3  0  0  0  0  0  0
  179.4630  178.6490  142.5890 C   0  0  0  0  0  3  0  0  0  0  0  0
  181.3130  178.6450  144.1280 C   0  0  0  0  0  3  0  0  0  0  0  0
  180.3370  178.7090  141.5500 N   0  0  0  0  0  0  0  0  0  0  0  0
  179.9370  178.6150  143.9000 C   0  0  0  0  0  3  0  0  0  0  0  0
  186.7890  177.9200  141.3260 C   0  0  2  0  0  3  0  0  0  0  0  0
  188.2110  177.8240  141.8490 C   0  0  0  0  0  1  0  0  0  0  0  0
  186.7220  178.9050  140.2550 N   0  0  0  0  0  2  0  0  0  0  0  0
  186.4230  178.1910  139.0230 C   0  0  2  0  0  3  0  0  0  0  0  0
  190.6190  176.7590  137.0250 N   0  0  0  0  0  1  0  0  0  0  0  0
  189.4440  177.5020  137.3290 C   0  0  0  0  0  0  0  0  0  0  0  0
  189.1240  178.6560  136.7200 N   0  0  0  0  0  0  0  0  0  0  0  0
  187.9810  179.0500  137.2560 N   0  0  0  0  0  0  0  0  0  0  0  0
  187.6460  178.1180  138.1710 C   0  0  0  0  0  0  0  0  0  0  0  0
  188.5460  177.1190  138.2540 N   0  0  0  0  0  2  0  0  0  0  0  0
  185.3580  178.8720  138.3020 N   0  0  0  0  0  2  0  0  0  0  0  0
  183.5030  179.8800  138.8290 C   0  0  0  0  0  1  0  0  0  0  0  0
  184.8630  179.8230  139.1300 O   0  0  0  0  0  0  0  0  0  0  0  0
  186.1590  178.7150  146.2030 C   0  0  0  0  0  2  0  0  0  0  0  0
  186.4570  177.3160  146.7350 C   0  0  0  0  0  2  0  0  0  0  0  0
  188.7650  177.5790  147.7720 C   0  0  0  0  0  0  0  0  0  0  0  0
  187.8920  177.0740  146.7520 N   0  0  0  0  0  2  0  0  0  0  0  0
  188.2440  178.4770  148.8420 C   0  0  0  0  0  1  0  0  0  0  0  0
  190.0260  177.2750  147.7740 N   0  0  0  0  0  0  0  0  0  0  0  0
  191.4310  175.4380  147.4130 O   0  0  0  0  0  1  0  0  0  0  0  0
  190.6460  176.4000  146.7780 C   0  0  2  0  0  3  0  0  0  0  0  0
  191.8490  176.3470  144.6600 O   0  0  0  0  0  0  0  0  0  0  0  0
  190.8100  177.2730  144.4360 C   0  0  1  0  0  3  0  0  0  0  0  0
  191.4910  177.1650  145.7490 C   0  0  1  0  0  3  0  0  0  0  0  0
  190.9800  179.6260  143.9940 N   0  0  0  0  0  2  0  0  0  0  0  0
  191.3510  178.4400  143.6860 C   0  0  0  0  0  3  0  0  0  0  0  0
  1  2  1  0  0  0  0
  2  3  1  6  0  0  0
  2  5  1  0  0  0  0
  4  6  1  0  0  0  0
  5 27  1  0  0  0  0
  6  5  2  0  0  0  0
  7  4  2  0  0  0  0
  7  1  1  0  0  0  0
  8  1  1  0  0  0  0
  8 11  1  0  0  0  0
  9  8  2  0  0  0  0
 10 13  1  0  0  0  0
 12  9  1  0  0  0  0
 12 10  2  0  0  0  0
 13 11  2  0  0  0  0
 14 15  1  1  0  0  0
 14  4  1  0  0  0  0
 16 14  1  0  0  0  0
 17 24  1  6  0  0  0
 17 16  1  0  0  0  0
 18 19  1  0  0  0  0
 19 23  1  0  0  0  0
 20 21  1  0  0  0  0
 20 19  2  0  0  0  0
 21 22  2  0  0  0  0
 22 23  1  0  0  0  0
 22 17  1  0  0  0  0
 24 26  1  0  0  0  0
 25 26  1  0  0  0  0
 27 28  1  0  0  0  0
 28 30  1  0  0  0  0
 29 32  2  0  0  0  0
 29 31  1  0  0  0  0
 30 29  1  0  0  0  0
 34 33  1  1  0  0  0
 34 32  1  0  0  0  0
 35 37  1  0  0  0  0
 36 39  1  6  0  0  0
 36 35  1  0  0  0  0
 36 37  1  0  0  0  0
 37 34  1  1  0  0  0
 39 38  2  0  0  0  0
M  END
>  <MODEL>
2

>  <REMARK>
 VINA RESULT:      -7.6      3.045      7.849
  Name = 
  13 active torsions:
  status: ('A' for Active; 'I' for Inactive)
    1  A    between atoms: C_1  and  C_16
    2  A    between atoms: C_1  and  N_21
    3  A    between atoms: N_2  and  C_5
    4  A    between atoms: C_9  and  C_20
    5  A    between atoms: N_10  and  C_30
    6  A    between atoms: N_10  and  O_35
    7  A    between atoms: N_17  and  C_39
    8  A    between atoms: C_18  and  C_24
    9  A    between atoms: C_18  and  N_29
   10  A    between atoms: N_21  and  C_30
   11  A    between atoms: C_23  and  C_32
   12  A    between atoms: C_28  and  C_30
   13  A    between atoms: C_32  and  C_39
                            x       y       z     vdW  Elec       q    Type
                         _______ _______ _______ _____ _____    ______ ____

>  <TORSDO>
F 13

$$$$
=
 OpenBabel10222421213D

 39 42  0  0  1  0  0  0  0  0999 V2000
  189.5500  177.0640  139.4730 N   0  0  0  0  0  0  0  0  0  0  0  0
  188.5420  178.1290  139.5840 C   0  0  2  0  0  3  0  0  0  0  0  0
  189.0780  179.3160  139.1190 F   0  0  0  0  0  0  0  0  0  0  0  0
  190.0810  177.1960  141.8200 C   0  0  0  0  0  0  0  0  0  0  0  0
  188.0600  178.3140  141.0080 C   0  0  0  0  0  0  0  0  0  0  0  0
  188.8180  177.9180  142.0320 C   0  0  0  0  0  3  0  0  0  0  0  0
  190.4010  176.7710  140.5940 C   0  0  0  0  0  3  0  0  0  0  0  0
  189.7790  176.4140  138.2070 C   0  0  0  0  0  0  0  0  0  0  0  0
  191.0780  176.2770  137.6920 C   0  0  0  0  0  3  0  0  0  0  0  0
  190.2520  175.1840  135.7530 C   0  0  0  0  0  3  0  0  0  0  0  0
  188.7090  175.9140  137.4490 C   0  0  0  0  0  3  0  0  0  0  0  0
  191.2840  175.6710  136.4920 N   0  0  0  0  0  0  0  0  0  0  0  0
  188.9420  175.2970  136.2200 C   0  0  0  0  0  3  0  0  0  0  0  0
  190.9440  176.8740  143.0020 C   0  0  2  0  0  3  0  0  0  0  0  0
  190.7770  175.4220  143.4090 C   0  0  0  0  0  1  0  0  0  0  0  0
  190.6270  177.7420  144.1280 N   0  0  0  0  0  2  0  0  0  0  0  0
  190.5170  176.9010  145.3110 C   0  0  2  0  0  3  0  0  0  0  0  0
  185.9490  178.0810  146.4900 N   0  0  0  0  0  1  0  0  0  0  0  0
  187.3370  177.7790  146.5720 C   0  0  0  0  0  0  0  0  0  0  0  0
  188.0260  177.7830  147.7260 N   0  0  0  0  0  0  0  0  0  0  0  0
  189.2680  177.4590  147.4130 N   0  0  0  0  0  0  0  0  0  0  0  0
  189.2900  177.2660  146.0790 C   0  0  0  0  0  0  0  0  0  0  0  0
  188.0890  177.4610  145.5030 N   0  0  0  0  0  2  0  0  0  0  0  0
  191.6940  177.0690  146.1500 N   0  0  0  0  0  2  0  0  0  0  0  0
  192.3510  175.7920  147.7840 C   0  0  0  0  0  1  0  0  0  0  0  0
  192.1830  175.8310  146.4000 O   0  0  0  0  0  0  0  0  0  0  0  0
  186.7600  178.9960  141.3310 C   0  0  0  0  0  2  0  0  0  0  0  0
  185.8560  178.2040  142.2700 C   0  0  0  0  0  2  0  0  0  0  0  0
  183.3770  178.6740  142.6000 C   0  0  0  0  0  0  0  0  0  0  0  0
  184.4800  178.2320  141.7960 N   0  0  0  0  0  2  0  0  0  0  0  0
  183.5800  179.0460  144.0300 C   0  0  0  0  0  1  0  0  0  0  0  0
  182.1820  178.7430  142.1030 N   0  0  0  0  0  0  0  0  0  0  0  0
  181.8590  179.5630  139.9340 O   0  0  0  0  0  1  0  0  0  0  0  0
  181.8650  178.4060  140.7140 C   0  0  2  0  0  3  0  0  0  0  0  0
  180.2680  177.3300  139.2220 O   0  0  0  0  0  0  0  0  0  0  0  0
  180.7030  176.2860  140.0610 C   0  0  1  0  0  3  0  0  0  0  0  0
  180.5260  177.6700  140.5640 C   0  0  1  0  0  3  0  0  0  0  0  0
  179.5710  174.1840  140.3180 N   0  0  0  0  0  2  0  0  0  0  0  0
  179.5310  175.4570  140.4550 C   0  0  0  0  0  3  0  0  0  0  0  0
  1  2  1  0  0  0  0
  1  7  1  0  0  0  0
  2  3  1  1  0  0  0
  2  5  1  0  0  0  0
  4  6  1  0  0  0  0
  4 14  1  0  0  0  0
  5 27  1  0  0  0  0
  5  6  2  0  0  0  0
  7  4  2  0  0  0  0
  8  1  1  0  0  0  0
  9  8  1  0  0  0  0
 10 13  2  0  0  0  0
 10 12  1  0  0  0  0
 11  8  2  0  0  0  0
 12  9  2  0  0  0  0
 13 11  1  0  0  0  0
 14 15  1  1  0  0  0
 14 16  1  0  0  0  0
 17 16  1  6  0  0  0
 17 22  1  0  0  0  0
 17 24  1  0  0  0  0
 18 19  1  0  0  0  0
 19 20  2  0  0  0  0
 21 20  1  0  0  0  0
 22 21  2  0  0  0  0
 23 22  1  0  0  0  0
 23 19  1  0  0  0  0
 24 26  1  0  0  0  0
 26 25  1  0  0  0  0
 27 28  1  0  0  0  0
 29 31  1  0  0  0  0
 30 28  1  0  0  0  0
 30 29  1  0  0  0  0
 32 29  2  0  0  0  0
 34 33  1  6  0  0  0
 34 32  1  0  0  0  0
 35 36  1  0  0  0  0
 35 37  1  0  0  0  0
 36 39  1  1  0  0  0
 36 37  1  0  0  0  0
 37 34  1  6  0  0  0
 38 39  2  0  0  0  0
M  END
>  <MODEL>
3

>  <REMARK>
 VINA RESULT:      -7.6      2.459      6.451
  Name = 
  13 active torsions:
  status: ('A' for Active; 'I' for Inactive)
    1  A    between atoms: C_1  and  C_16
    2  A    between atoms: C_1  and  N_21
    3  A    between atoms: N_2  and  C_5
    4  A    between atoms: C_9  and  C_20
    5  A    between atoms: N_10  and  C_30
    6  A    between atoms: N_10  and  O_35
    7  A    between atoms: N_17  and  C_39
    8  A    between atoms: C_18  and  C_24
    9  A    between atoms: C_18  and  N_29
   10  A    between atoms: N_21  and  C_30
   11  A    between atoms: C_23  and  C_32
   12  A    between atoms: C_28  and  C_30
   13  A    between atoms: C_32  and  C_39
                            x       y       z     vdW  Elec       q    Type
                         _______ _______ _______ _____ _____    ______ ____

>  <TORSDO>
F 13

$$$$
=
 OpenBabel10222421213D

 39 42  0  0  1  0  0  0  0  0999 V2000
  189.5220  177.1510  143.6140 N   0  0  0  0  0  0  0  0  0  0  0  0
  188.0860  177.3600  143.3760 C   0  0  2  0  0  3  0  0  0  0  0  0
  187.4170  176.1600  143.5380 F   0  0  0  0  0  0  0  0  0  0  0  0
  189.9990  177.1070  141.2520 C   0  0  0  0  0  0  0  0  0  0  0  0
  187.8080  177.9120  141.9940 C   0  0  0  0  0  0  0  0  0  0  0  0
  188.6920  177.7360  141.0100 C   0  0  0  0  0  3  0  0  0  0  0  0
  190.3900  176.8610  142.5050 C   0  0  0  0  0  3  0  0  0  0  0  0
  190.0330  177.0980  144.9600 C   0  0  0  0  0  0  0  0  0  0  0  0
  191.3930  176.8530  145.2060 C   0  0  0  0  0  3  0  0  0  0  0  0
  191.0450  176.9660  147.5520 C   0  0  0  0  0  3  0  0  0  0  0  0
  189.1820  177.2760  146.0620 C   0  0  0  0  0  3  0  0  0  0  0  0
  191.8640  176.7950  146.4800 N   0  0  0  0  0  0  0  0  0  0  0  0
  189.6860  177.2110  147.3610 C   0  0  0  0  0  3  0  0  0  0  0  0
  190.9040  176.8360  140.0880 C   0  0  2  0  0  3  0  0  0  0  0  0
  192.2490  177.5130  140.2860 C   0  0  0  0  0  1  0  0  0  0  0  0
  190.3010  177.2920  138.8440 N   0  0  0  0  0  2  0  0  0  0  0  0
  189.8870  176.1110  138.1010 C   0  0  2  0  0  3  0  0  0  0  0  0
  193.2990  173.0010  136.5720 N   0  0  0  0  0  1  0  0  0  0  0  0
  192.5240  174.1790  136.7640 C   0  0  0  0  0  0  0  0  0  0  0  0
  192.8090  175.3530  136.1770 N   0  0  0  0  0  0  0  0  0  0  0  0
  191.8830  176.2030  136.5850 N   0  0  0  0  0  0  0  0  0  0  0  0
  191.0640  175.5130  137.4050 C   0  0  0  0  0  0  0  0  0  0  0  0
  191.4330  174.2260  137.5500 N   0  0  0  0  0  2  0  0  0  0  0  0
  188.8670  176.4700  137.1270 N   0  0  0  0  0  2  0  0  0  0  0  0
  187.0780  177.6960  137.3010 C   0  0  0  0  0  1  0  0  0  0  0  0
  187.6900  176.5440  137.7930 O   0  0  0  0  0  0  0  0  0  0  0  0
  186.5240  178.6150  141.6550 C   0  0  0  0  0  2  0  0  0  0  0  0
  185.5450  178.7220  142.8210 C   0  0  0  0  0  2  0  0  0  0  0  0
  183.0330  178.8890  143.1910 C   0  0  0  0  0  0  0  0  0  0  0  0
  184.1740  178.7580  142.3320 N   0  0  0  0  0  2  0  0  0  0  0  0
  183.1950  178.9030  144.6730 C   0  0  0  0  0  1  0  0  0  0  0  0
  181.8390  178.9840  142.6940 N   0  0  0  0  0  0  0  0  0  0  0  0
  180.5880  179.9410  140.9620 O   0  0  0  0  0  1  0  0  0  0  0  0
  181.5610  178.9860  141.2580 C   0  0  2  0  0  3  0  0  0  0  0  0
  180.5110  177.7160  139.4620 O   0  0  0  0  0  0  0  0  0  0  0  0
  181.8360  177.2360  139.4860 C   0  0  1  0  0  3  0  0  0  0  0  0
  181.1190  177.6130  140.7280 C   0  0  1  0  0  3  0  0  0  0  0  0
  182.1460  175.2280  138.2090 N   0  0  0  0  0  2  0  0  0  0  0  0
  181.8200  175.7560  139.3290 C   0  0  0  0  0  3  0  0  0  0  0  0
  1  8  1  0  0  0  0
  2  3  1  6  0  0  0
  2  1  1  0  0  0  0
  4  7  2  0  0  0  0
  5  2  1  0  0  0  0
  6  4  1  0  0  0  0
  6  5  2  0  0  0  0
  7  1  1  0  0  0  0
  8  9  2  0  0  0  0
  8 11  1  0  0  0  0
  9 12  1  0  0  0  0
 11 13  2  0  0  0  0
 12 10  2  0  0  0  0
 13 10  1  0  0  0  0
 14 15  1  1  0  0  0
 14  4  1  0  0  0  0
 16 14  1  0  0  0  0
 17 24  1  6  0  0  0
 17 16  1  0  0  0  0
 18 19  1  0  0  0  0
 19 23  1  0  0  0  0
 20 21  1  0  0  0  0
 20 19  2  0  0  0  0
 21 22  2  0  0  0  0
 22 23  1  0  0  0  0
 22 17  1  0  0  0  0
 24 26  1  0  0  0  0
 25 26  1  0  0  0  0
 27  5  1  0  0  0  0
 27 28  1  0  0  0  0
 29 31  1  0  0  0  0
 30 28  1  0  0  0  0
 30 29  1  0  0  0  0
 32 29  2  0  0  0  0
 34 33  1  1  0  0  0
 34 32  1  0  0  0  0
 35 36  1  0  0  0  0
 35 37  1  0  0  0  0
 36 39  1  1  0  0  0
 36 37  1  0  0  0  0
 37 34  1  6  0  0  0
 38 39  2  0  0  0  0
M  END
>  <MODEL>
4

>  <REMARK>
 VINA RESULT:      -7.5      1.251      2.448
  Name = 
  13 active torsions:
  status: ('A' for Active; 'I' for Inactive)
    1  A    between atoms: C_1  and  C_16
    2  A    between atoms: C_1  and  N_21
    3  A    between atoms: N_2  and  C_5
    4  A    between atoms: C_9  and  C_20
    5  A    between atoms: N_10  and  C_30
    6  A    between atoms: N_10  and  O_35
    7  A    between atoms: N_17  and  C_39
    8  A    between atoms: C_18  and  C_24
    9  A    between atoms: C_18  and  N_29
   10  A    between atoms: N_21  and  C_30
   11  A    between atoms: C_23  and  C_32
   12  A    between atoms: C_28  and  C_30
   13  A    between atoms: C_32  and  C_39
                            x       y       z     vdW  Elec       q    Type
                         _______ _______ _______ _____ _____    ______ ____

>  <TORSDO>
F 13

$$$$
=
 OpenBabel10222421213D

 39 42  0  0  1  0  0  0  0  0999 V2000
  189.2420  177.4030  143.3750 N   0  0  0  0  0  0  0  0  0  0  0  0
  187.7880  177.5680  143.2330 C   0  0  2  0  0  3  0  0  0  0  0  0
  187.1770  176.3300  143.3190 F   0  0  0  0  0  0  0  0  0  0  0  0
  189.5870  177.5920  140.9970 C   0  0  0  0  0  0  0  0  0  0  0  0
  187.4110  178.2290  141.9240 C   0  0  0  0  0  0  0  0  0  0  0  0
  188.2450  178.1810  140.8830 C   0  0  0  0  0  3  0  0  0  0  0  0
  190.0580  177.2520  142.2010 C   0  0  0  0  0  3  0  0  0  0  0  0
  189.8290  177.2520  144.6830 C   0  0  0  0  0  0  0  0  0  0  0  0
  191.2090  177.0450  144.8330 C   0  0  0  0  0  3  0  0  0  0  0  0
  190.9900  176.9340  147.1950 C   0  0  0  0  0  3  0  0  0  0  0  0
  189.0350  177.2940  145.8390 C   0  0  0  0  0  3  0  0  0  0  0  0
  191.7530  176.8940  146.0710 N   0  0  0  0  0  0  0  0  0  0  0  0
  189.6130  177.1360  147.0990 C   0  0  0  0  0  3  0  0  0  0  0  0
  190.4360  177.4670  139.7690 C   0  0  2  0  0  3  0  0  0  0  0  0
  189.8020  178.2020  138.6020 C   0  0  0  0  0  1  0  0  0  0  0  0
  190.6400  176.0680  139.4190 N   0  0  0  0  0  2  0  0  0  0  0  0
  190.8180  176.0000  137.9760 C   0  0  2  0  0  3  0  0  0  0  0  0
  186.9740  173.8610  135.9020 N   0  0  0  0  0  1  0  0  0  0  0  0
  188.2370  174.0780  136.5200 C   0  0  0  0  0  0  0  0  0  0  0  0
  189.0970  173.0860  136.8070 N   0  0  0  0  0  0  0  0  0  0  0  0
  190.1470  173.6610  137.3680 N   0  0  0  0  0  0  0  0  0  0  0  0
  189.8880  174.9840  137.4000 C   0  0  0  0  0  0  0  0  0  0  0  0
  188.6870  175.2950  136.8760 N   0  0  0  0  0  2  0  0  0  0  0  0
  192.1940  175.6450  137.6620 N   0  0  0  0  0  2  0  0  0  0  0  0
  193.6310  175.4810  136.0370 C   0  0  0  0  0  1  0  0  0  0  0  0
  192.4540  176.1220  136.4220 O   0  0  0  0  0  0  0  0  0  0  0  0
  186.0830  178.9010  141.7180 C   0  0  0  0  0  2  0  0  0  0  0  0
  185.3220  179.1860  143.0100 C   0  0  0  0  0  2  0  0  0  0  0  0
  182.9160  178.9880  143.8130 C   0  0  0  0  0  0  0  0  0  0  0  0
  183.8860  179.1570  142.7700 N   0  0  0  0  0  2  0  0  0  0  0  0
  183.3460  178.7350  145.2180 C   0  0  0  0  0  1  0  0  0  0  0  0
  181.6470  179.0370  143.5500 N   0  0  0  0  0  0  0  0  0  0  0  0
  180.2590  180.3890  142.2350 O   0  0  0  0  0  1  0  0  0  0  0  0
  181.1100  179.2830  142.2110 C   0  0  2  0  0  3  0  0  0  0  0  0
  179.7500  178.3810  140.4020 O   0  0  0  0  0  0  0  0  0  0  0  0
  180.9450  177.6370  140.3310 C   0  0  1  0  0  3  0  0  0  0  0  0
  180.3700  178.0700  141.6280 C   0  0  1  0  0  3  0  0  0  0  0  0
  181.1200  175.5910  139.0880 N   0  0  0  0  0  2  0  0  0  0  0  0
  180.6130  176.2050  140.0910 C   0  0  0  0  0  3  0  0  0  0  0  0
  1  8  1  0  0  0  0
  2  3  1  6  0  0  0
  2  1  1  0  0  0  0
  4  7  2  0  0  0  0
  5  2  1  0  0  0  0
  6  4  1  0  0  0  0
  6  5  2  0  0  0  0
  7  1  1  0  0  0  0
  8  9  2  0  0  0  0
  8 11  1  0  0  0  0
  9 12  1  0  0  0  0
 11 13  2  0  0  0  0
 12 10  2  0  0  0  0
 13 10  1  0  0  0  0
 14 15  1  6  0  0  0
 14  4  1  0  0  0  0
 16 14  1  0  0  0  0
 17 24  1  1  0  0  0
 17 16  1  0  0  0  0
 18 19  1  0  0  0  0
 19 20  2  0  0  0  0
 19 23  1  0  0  0  0
 20 21  1  0  0  0  0
 21 22  2  0  0  0  0
 22 17  1  0  0  0  0
 23 22  1  0  0  0  0
 25 26  1  0  0  0  0
 26 24  1  0  0  0  0
 27  5  1  0  0  0  0
 27 28  1  0  0  0  0
 29 31  1  0  0  0  0
 30 28  1  0  0  0  0
 30 29  1  0  0  0  0
 32 29  2  0  0  0  0
 34 33  1  1  0  0  0
 34 32  1  0  0  0  0
 35 37  1  0  0  0  0
 36 39  1  1  0  0  0
 36 35  1  0  0  0  0
 36 37  1  0  0  0  0
 37 34  1  6  0  0  0
 38 39  2  0  0  0  0
M  END
>  <MODEL>
5

>  <REMARK>
 VINA RESULT:      -7.5      1.445      1.769
  Name = 
  13 active torsions:
  status: ('A' for Active; 'I' for Inactive)
    1  A    between atoms: C_1  and  C_16
    2  A    between atoms: C_1  and  N_21
    3  A    between atoms: N_2  and  C_5
    4  A    between atoms: C_9  and  C_20
    5  A    between atoms: N_10  and  C_30
    6  A    between atoms: N_10  and  O_35
    7  A    between atoms: N_17  and  C_39
    8  A    between atoms: C_18  and  C_24
    9  A    between atoms: C_18  and  N_29
   10  A    between atoms: N_21  and  C_30
   11  A    between atoms: C_23  and  C_32
   12  A    between atoms: C_28  and  C_30
   13  A    between atoms: C_32  and  C_39
                            x       y       z     vdW  Elec       q    Type
                         _______ _______ _______ _____ _____    ______ ____

>  <TORSDO>
F 13

$$$$
=
 OpenBabel10222421213D

 39 42  0  0  1  0  0  0  0  0999 V2000
  188.3150  177.9030  144.0990 N   0  0  0  0  0  0  0  0  0  0  0  0
  189.5400  177.6830  143.3150 C   0  0  2  0  0  3  0  0  0  0  0  0
  190.3590  178.7920  143.4260 F   0  0  0  0  0  0  0  0  0  0  0  0
  187.0430  178.4550  142.1280 C   0  0  0  0  0  0  0  0  0  0  0  0
  189.2440  177.4160  141.8540 C   0  0  0  0  0  0  0  0  0  0  0  0
  188.0970  177.8320  141.3130 C   0  0  0  0  0  3  0  0  0  0  0  0
  187.1520  178.4550  143.4590 C   0  0  0  0  0  3  0  0  0  0  0  0
  188.3230  177.6990  145.5250 C   0  0  0  0  0  0  0  0  0  0  0  0
  187.1580  177.8870  146.2860 C   0  0  0  0  0  3  0  0  0  0  0  0
  188.3120  177.3370  148.2880 C   0  0  0  0  0  3  0  0  0  0  0  0
  189.4980  177.3230  146.1940 C   0  0  0  0  0  3  0  0  0  0  0  0
  187.1780  177.7020  147.6340 N   0  0  0  0  0  0  0  0  0  0  0  0
  189.4960  177.1400  147.5770 C   0  0  0  0  0  3  0  0  0  0  0  0
  185.8240  179.0010  141.4480 C   0  0  2  0  0  3  0  0  0  0  0  0
  184.5750  178.2920  141.9390 C   0  0  0  0  0  1  0  0  0  0  0  0
  185.9320  178.8670  140.0020 N   0  0  0  0  0  2  0  0  0  0  0  0
  184.5790  178.7960  139.4680 C   0  0  2  0  0  3  0  0  0  0  0  0
  183.3330  175.2370  136.3980 N   0  0  0  0  0  1  0  0  0  0  0  0
  184.0080  176.3340  137.0010 C   0  0  0  0  0  0  0  0  0  0  0  0
  185.1010  176.9090  136.4710 N   0  0  0  0  0  0  0  0  0  0  0  0
  185.4440  177.8800  137.2990 N   0  0  0  0  0  0  0  0  0  0  0  0
  184.5440  177.8640  138.3030 C   0  0  0  0  0  0  0  0  0  0  0  0
  183.6160  176.8980  138.1580 N   0  0  0  0  0  2  0  0  0  0  0  0
  184.1410  180.1210  139.0540 N   0  0  0  0  0  2  0  0  0  0  0  0
  182.3080  181.2430  138.7160 C   0  0  0  0  0  1  0  0  0  0  0  0
  182.8900  179.9870  138.5540 O   0  0  0  0  0  0  0  0  0  0  0  0
  190.2350  176.7420  140.9470 C   0  0  0  0  0  2  0  0  0  0  0  0
  190.5590  177.5300  139.6810 C   0  0  0  0  0  2  0  0  0  0  0  0
  189.3160  177.5240  137.4610 C   0  0  0  0  0  0  0  0  0  0  0  0
  190.0270  176.8500  138.5090 N   0  0  0  0  0  2  0  0  0  0  0  0
  188.9980  178.9760  137.5700 C   0  0  0  0  0  1  0  0  0  0  0  0
  188.9230  176.8780  136.4070 N   0  0  0  0  0  0  0  0  0  0  0  0
  190.1130  175.2900  135.1640 O   0  0  0  0  0  1  0  0  0  0  0  0
  189.1820  175.4540  136.1910 C   0  0  2  0  0  3  0  0  0  0  0  0
  188.2110  173.3260  135.5080 O   0  0  0  0  0  0  0  0  0  0  0  0
  187.7150  173.5220  136.8120 C   0  0  1  0  0  3  0  0  0  0  0  0
  187.9110  174.6530  135.8730 C   0  0  1  0  0  3  0  0  0  0  0  0
  185.6760  173.0060  137.9700 N   0  0  0  0  0  2  0  0  0  0  0  0
  186.2750  173.1450  136.8470 C   0  0  0  0  0  3  0  0  0  0  0  0
  1  8  1  0  0  0  0
  2  3  1  6  0  0  0
  2  1  1  0  0  0  0
  4  7  2  0  0  0  0
  5  2  1  0  0  0  0
  6  5  2  0  0  0  0
  6  4  1  0  0  0  0
  7  1  1  0  0  0  0
  8 11  2  0  0  0  0
  8  9  1  0  0  0  0
  9 12  2  0  0  0  0
 11 13  1  0  0  0  0
 12 10  1  0  0  0  0
 13 10  2  0  0  0  0
 14 15  1  1  0  0  0
 14  4  1  0  0  0  0
 16 14  1  0  0  0  0
 17 24  1  6  0  0  0
 17 16  1  0  0  0  0
 18 19  1  0  0  0  0
 19 23  1  0  0  0  0
 20 19  2  0  0  0  0
 20 21  1  0  0  0  0
 21 22  2  0  0  0  0
 22 17  1  0  0  0  0
 23 22  1  0  0  0  0
 26 25  1  0  0  0  0
 26 24  1  0  0  0  0
 27  5  1  0  0  0  0
 28 27  1  0  0  0  0
 29 31  1  0  0  0  0
 29 30  1  0  0  0  0
 30 28  1  0  0  0  0
 32 29  2  0  0  0  0
 34 33  1  6  0  0  0
 34 32  1  0  0  0  0
 35 37  1  0  0  0  0
 35 36  1  0  0  0  0
 36 39  1  6  0  0  0
 37 34  1  1  0  0  0
 37 36  1  0  0  0  0
 39 38  2  0  0  0  0
M  END
>  <MODEL>
6

>  <REMARK>
 VINA RESULT:      -7.3      2.263      6.135
  Name = 
  13 active torsions:
  status: ('A' for Active; 'I' for Inactive)
    1  A    between atoms: C_1  and  C_16
    2  A    between atoms: C_1  and  N_21
    3  A    between atoms: N_2  and  C_5
    4  A    between atoms: C_9  and  C_20
    5  A    between atoms: N_10  and  C_30
    6  A    between atoms: N_10  and  O_35
    7  A    between atoms: N_17  and  C_39
    8  A    between atoms: C_18  and  C_24
    9  A    between atoms: C_18  and  N_29
   10  A    between atoms: N_21  and  C_30
   11  A    between atoms: C_23  and  C_32
   12  A    between atoms: C_28  and  C_30
   13  A    between atoms: C_32  and  C_39
                            x       y       z     vdW  Elec       q    Type
                         _______ _______ _______ _____ _____    ______ ____

>  <TORSDO>
F 13

$$$$
=
 OpenBabel10222421213D

 39 42  0  0  1  0  0  0  0  0999 V2000
  188.0910  177.9000  144.2530 N   0  0  0  0  0  0  0  0  0  0  0  0
  189.2930  177.6820  143.4340 C   0  0  2  0  0  3  0  0  0  0  0  0
  190.0520  178.8390  143.4200 F   0  0  0  0  0  0  0  0  0  0  0  0
  186.7110  178.2180  142.3030 C   0  0  0  0  0  0  0  0  0  0  0  0
  188.9550  177.2800  142.0140 C   0  0  0  0  0  0  0  0  0  0  0  0
  187.7650  177.5870  141.4940 C   0  0  0  0  0  3  0  0  0  0  0  0
  186.8730  178.3340  143.6240 C   0  0  0  0  0  3  0  0  0  0  0  0
  188.1680  177.8150  145.6890 C   0  0  0  0  0  0  0  0  0  0  0  0
  187.0400  178.0610  146.4870 C   0  0  0  0  0  3  0  0  0  0  0  0
  188.2920  177.6830  148.4690 C   0  0  0  0  0  3  0  0  0  0  0  0
  189.3770  177.5000  146.3290 C   0  0  0  0  0  3  0  0  0  0  0  0
  187.1250  177.9890  147.8430 N   0  0  0  0  0  0  0  0  0  0  0  0
  189.4420  177.4320  147.7210 C   0  0  0  0  0  3  0  0  0  0  0  0
  185.4360  178.6400  141.6370 C   0  0  2  0  0  3  0  0  0  0  0  0
  184.3180  178.7730  142.6560 C   0  0  0  0  0  1  0  0  0  0  0  0
  185.0510  177.6900  140.6030 N   0  0  0  0  0  2  0  0  0  0  0  0
  184.7450  178.4520  139.4010 C   0  0  2  0  0  3  0  0  0  0  0  0
  188.6810  178.3110  136.5490 N   0  0  0  0  0  1  0  0  0  0  0  0
  187.3960  178.0530  137.1020 C   0  0  0  0  0  0  0  0  0  0  0  0
  186.5300  177.1720  136.5740 N   0  0  0  0  0  0  0  0  0  0  0  0
  185.4580  177.2020  137.3470 N   0  0  0  0  0  0  0  0  0  0  0  0
  185.7120  178.1000  138.3200 C   0  0  0  0  0  0  0  0  0  0  0  0
  186.9280  178.6670  138.2040 N   0  0  0  0  0  2  0  0  0  0  0  0
  184.8190  179.8770  139.6860 N   0  0  0  0  0  2  0  0  0  0  0  0
  182.7320  179.9930  139.0850 C   0  0  0  0  0  1  0  0  0  0  0  0
  184.0000  180.5010  138.8070 O   0  0  0  0  0  0  0  0  0  0  0  0
  189.9440  176.5870  141.1200 C   0  0  0  0  0  2  0  0  0  0  0  0
  190.2350  177.3280  139.8180 C   0  0  0  0  0  2  0  0  0  0  0  0
  191.2200  175.8110  138.0290 C   0  0  0  0  0  0  0  0  0  0  0  0
  191.3640  176.7200  139.1290 N   0  0  0  0  0  2  0  0  0  0  0  0
  189.8690  175.3600  137.5870 C   0  0  0  0  0  1  0  0  0  0  0  0
  192.2620  175.3520  137.4090 N   0  0  0  0  0  0  0  0  0  0  0  0
  193.9280  176.9890  137.2330 O   0  0  0  0  0  1  0  0  0  0  0  0
  193.6350  175.7280  137.7530 C   0  0  2  0  0  3  0  0  0  0  0  0
  195.9110  174.8770  137.9230 O   0  0  0  0  0  0  0  0  0  0  0  0
  195.1130  173.7960  138.3500 C   0  0  1  0  0  3  0  0  0  0  0  0
  194.6770  174.7100  137.2660 C   0  0  1  0  0  3  0  0  0  0  0  0
  195.4350  171.4170  138.3460 N   0  0  0  0  0  2  0  0  0  0  0  0
  195.6430  172.5360  137.7590 C   0  0  0  0  0  3  0  0  0  0  0  0
  1  8  1  0  0  0  0
  2  3  1  6  0  0  0
  2  1  1  0  0  0  0
  4  7  2  0  0  0  0
  5  2  1  0  0  0  0
  6  5  2  0  0  0  0
  6  4  1  0  0  0  0
  7  1  1  0  0  0  0
  8 11  2  0  0  0  0
  8  9  1  0  0  0  0
  9 12  2  0  0  0  0
 11 13  1  0  0  0  0
 12 10  1  0  0  0  0
 13 10  2  0  0  0  0
 14  4  1  0  0  0  0
 14 15  1  1  0  0  0
 16 14  1  0  0  0  0
 17 24  1  1  0  0  0
 17 16  1  0  0  0  0
 18 19  1  0  0  0  0
 19 23  1  0  0  0  0
 20 19  2  0  0  0  0
 20 21  1  0  0  0  0
 21 22  2  0  0  0  0
 22 17  1  0  0  0  0
 23 22  1  0  0  0  0
 26 25  1  0  0  0  0
 26 24  1  0  0  0  0
 27  5  1  0  0  0  0
 28 27  1  0  0  0  0
 29 30  1  0  0  0  0
 30 28  1  0  0  0  0
 31 29  1  0  0  0  0
 32 34  1  0  0  0  0
 32 29  2  0  0  0  0
 34 33  1  6  0  0  0
 35 36  1  0  0  0  0
 36 39  1  6  0  0  0
 37 34  1  1  0  0  0
 37 35  1  0  0  0  0
 37 36  1  0  0  0  0
 39 38  2  0  0  0  0
M  END
>  <MODEL>
7

>  <REMARK>
 VINA RESULT:      -7.2      2.544      7.854
  Name = 
  13 active torsions:
  status: ('A' for Active; 'I' for Inactive)
    1  A    between atoms: C_1  and  C_16
    2  A    between atoms: C_1  and  N_21
    3  A    between atoms: N_2  and  C_5
    4  A    between atoms: C_9  and  C_20
    5  A    between atoms: N_10  and  C_30
    6  A    between atoms: N_10  and  O_35
    7  A    between atoms: N_17  and  C_39
    8  A    between atoms: C_18  and  C_24
    9  A    between atoms: C_18  and  N_29
   10  A    between atoms: N_21  and  C_30
   11  A    between atoms: C_23  and  C_32
   12  A    between atoms: C_28  and  C_30
   13  A    between atoms: C_32  and  C_39
                            x       y       z     vdW  Elec       q    Type
                         _______ _______ _______ _____ _____    ______ ____

>  <TORSDO>
F 13

$$$$
=
 OpenBabel10222421213D

 39 42  0  0  1  0  0  0  0  0999 V2000
  189.0250  177.3050  143.7110 N   0  0  0  0  0  0  0  0  0  0  0  0
  187.5550  177.3070  143.7480 C   0  0  2  0  0  3  0  0  0  0  0  0
  187.0980  176.0020  143.7900 F   0  0  0  0  0  0  0  0  0  0  0  0
  189.0580  177.7150  141.3370 C   0  0  0  0  0  0  0  0  0  0  0  0
  186.9540  178.0160  142.5520 C   0  0  0  0  0  0  0  0  0  0  0  0
  187.6560  178.1470  141.4250 C   0  0  0  0  0  3  0  0  0  0  0  0
  189.7050  177.3420  142.4450 C   0  0  0  0  0  3  0  0  0  0  0  0
  189.7780  177.1270  144.9270 C   0  0  0  0  0  0  0  0  0  0  0  0
  191.1490  176.8250  144.8880 C   0  0  0  0  0  3  0  0  0  0  0  0
  191.2560  176.7520  147.2590 C   0  0  0  0  0  3  0  0  0  0  0  0
  189.1590  177.2340  146.1820 C   0  0  0  0  0  3  0  0  0  0  0  0
  191.8500  176.6480  146.0400 N   0  0  0  0  0  0  0  0  0  0  0  0
  189.8960  177.0480  147.3520 C   0  0  0  0  0  3  0  0  0  0  0  0
  189.7610  177.7860  140.0150 C   0  0  2  0  0  3  0  0  0  0  0  0
  189.0560  178.7550  139.0840 C   0  0  0  0  0  1  0  0  0  0  0  0
  189.8340  176.4700  139.3950 N   0  0  0  0  0  2  0  0  0  0  0  0
  189.9800  176.6700  137.9610 C   0  0  2  0  0  3  0  0  0  0  0  0
  185.7960  174.5840  136.6230 N   0  0  0  0  0  1  0  0  0  0  0  0
  187.1640  174.9720  136.6720 C   0  0  0  0  0  0  0  0  0  0  0  0
  188.0870  174.5320  135.8010 N   0  0  0  0  0  0  0  0  0  0  0  0
  189.2270  175.0980  136.1570 N   0  0  0  0  0  0  0  0  0  0  0  0
  188.9560  175.8660  137.2320 C   0  0  0  0  0  0  0  0  0  0  0  0
  187.6600  175.8150  137.5970 N   0  0  0  0  0  2  0  0  0  0  0  0
  191.3140  176.2720  137.5380 N   0  0  0  0  0  2  0  0  0  0  0  0
  192.5820  174.5040  137.5680 C   0  0  0  0  0  1  0  0  0  0  0  0
  191.6980  175.2530  138.3430 O   0  0  0  0  0  0  0  0  0  0  0  0
  185.5450  178.5400  142.5570 C   0  0  0  0  0  2  0  0  0  0  0  0
  185.0800  179.0920  141.2130 C   0  0  0  0  0  2  0  0  0  0  0  0
  183.6590  177.9410  139.4440 C   0  0  0  0  0  0  0  0  0  0  0  0
  183.8630  178.4200  140.7810 N   0  0  0  0  0  2  0  0  0  0  0  0
  184.6720  178.1970  138.3820 C   0  0  0  0  0  1  0  0  0  0  0  0
  182.5820  177.2890  139.1330 N   0  0  0  0  0  0  0  0  0  0  0  0
  181.0150  175.7010  139.8440 O   0  0  0  0  0  1  0  0  0  0  0  0
  181.5230  176.9760  140.0930 C   0  0  2  0  0  3  0  0  0  0  0  0
  179.3300  177.6190  140.9400 O   0  0  0  0  0  0  0  0  0  0  0  0
  180.1850  178.6360  141.4090 C   0  0  1  0  0  3  0  0  0  0  0  0
  180.3790  178.0020  140.0830 C   0  0  1  0  0  3  0  0  0  0  0  0
  179.6810  180.8740  142.1150 N   0  0  0  0  0  2  0  0  0  0  0  0
  179.5130  179.9540  141.2410 C   0  0  0  0  0  3  0  0  0  0  0  0
  1  2  1  0  0  0  0
  1  8  1  0  0  0  0
  2  3  1  6  0  0  0
  4  6  1  0  0  0  0
  4  7  2  0  0  0  0
  5 27  1  0  0  0  0
  5  2  1  0  0  0  0
  6  5  2  0  0  0  0
  7  1  1  0  0  0  0
  8 11  1  0  0  0  0
  9  8  2  0  0  0  0
  9 12  1  0  0  0  0
 10 13  1  0  0  0  0
 11 13  2  0  0  0  0
 12 10  2  0  0  0  0
 14 15  1  6  0  0  0
 14  4  1  0  0  0  0
 16 14  1  0  0  0  0
 17 24  1  6  0  0  0
 17 16  1  0  0  0  0
 18 19  1  0  0  0  0
 19 23  1  0  0  0  0
 20 21  1  0  0  0  0
 20 19  2  0  0  0  0
 21 22  2  0  0  0  0
 22 23  1  0  0  0  0
 22 17  1  0  0  0  0
 24 26  1  0  0  0  0
 25 26  1  0  0  0  0
 28 27  1  0  0  0  0
 29 30  1  0  0  0  0
 30 28  1  0  0  0  0
 31 29  1  0  0  0  0
 32 29  2  0  0  0  0
 32 34  1  0  0  0  0
 34 33  1  6  0  0  0
 35 36  1  0  0  0  0
 36 39  1  6  0  0  0
 37 34  1  1  0  0  0
 37 35  1  0  0  0  0
 37 36  1  0  0  0  0
 39 38  2  0  0  0  0
M  END
>  <MODEL>
8

>  <REMARK>
 VINA RESULT:      -7.2      1.510      2.544
  Name = 
  13 active torsions:
  status: ('A' for Active; 'I' for Inactive)
    1  A    between atoms: C_1  and  C_16
    2  A    between atoms: C_1  and  N_21
    3  A    between atoms: N_2  and  C_5
    4  A    between atoms: C_9  and  C_20
    5  A    between atoms: N_10  and  C_30
    6  A    between atoms: N_10  and  O_35
    7  A    between atoms: N_17  and  C_39
    8  A    between atoms: C_18  and  C_24
    9  A    between atoms: C_18  and  N_29
   10  A    between atoms: N_21  and  C_30
   11  A    between atoms: C_23  and  C_32
   12  A    between atoms: C_28  and  C_30
   13  A    between atoms: C_32  and  C_39
                            x       y       z     vdW  Elec       q    Type
                         _______ _______ _______ _____ _____    ______ ____

>  <TORSDO>
F 13

$$$$
=
 OpenBabel10222421213D

 39 42  0  0  1  0  0  0  0  0999 V2000
  187.6800  177.8250  144.1170 N   0  0  0  0  0  0  0  0  0  0  0  0
  186.3590  178.1290  143.5460 C   0  0  2  0  0  3  0  0  0  0  0  0
  185.5580  177.0040  143.6260 F   0  0  0  0  0  0  0  0  0  0  0  0
  188.6610  177.5490  141.9330 C   0  0  0  0  0  0  0  0  0  0  0  0
  186.4490  178.5850  142.1050 C   0  0  0  0  0  0  0  0  0  0  0  0
  187.5080  178.2580  141.3610 C   0  0  0  0  0  3  0  0  0  0  0  0
  188.7400  177.3760  143.2560 C   0  0  0  0  0  3  0  0  0  0  0  0
  187.8720  177.8430  145.5450 C   0  0  0  0  0  0  0  0  0  0  0  0
  186.8250  178.2050  146.4080 C   0  0  0  0  0  3  0  0  0  0  0  0
  188.2180  177.9100  148.3090 C   0  0  0  0  0  3  0  0  0  0  0  0
  189.1130  177.5140  146.1100 C   0  0  0  0  0  3  0  0  0  0  0  0
  187.0180  178.2290  147.7540 N   0  0  0  0  0  0  0  0  0  0  0  0
  189.2900  177.5450  147.4940 C   0  0  0  0  0  3  0  0  0  0  0  0
  189.7710  177.1110  141.0260 C   0  0  2  0  0  3  0  0  0  0  0  0
  191.1130  177.2240  141.7270 C   0  0  0  0  0  1  0  0  0  0  0  0
  189.7850  177.9030  139.8030 N   0  0  0  0  0  2  0  0  0  0  0  0
  189.4950  177.0020  138.6970 C   0  0  2  0  0  3  0  0  0  0  0  0
  194.0900  175.7690  137.6960 N   0  0  0  0  0  1  0  0  0  0  0  0
  192.6850  175.7100  137.9080 C   0  0  0  0  0  0  0  0  0  0  0  0
  191.9650  174.5830  137.7700 N   0  0  0  0  0  0  0  0  0  0  0  0
  190.7150  174.9110  138.0440 N   0  0  0  0  0  0  0  0  0  0  0  0
  190.7190  176.2260  138.3430 C   0  0  0  0  0  0  0  0  0  0  0  0
  191.9460  176.7750  138.2670 N   0  0  0  0  0  2  0  0  0  0  0  0
  189.0420  177.7660  137.5430 N   0  0  0  0  0  2  0  0  0  0  0  0
  188.5570  177.0280  135.5550 C   0  0  0  0  0  1  0  0  0  0  0  0
  188.1430  176.9960  136.8860 O   0  0  0  0  0  0  0  0  0  0  0  0
  185.3450  179.3580  141.4390 C   0  0  0  0  0  2  0  0  0  0  0  0
  185.1890  179.0660  139.9500 C   0  0  0  0  0  2  0  0  0  0  0  0
  183.0590  178.8700  138.5730 C   0  0  0  0  0  0  0  0  0  0  0  0
  183.9240  179.5930  139.4580 N   0  0  0  0  0  2  0  0  0  0  0  0
  183.4670  177.5450  138.0250 C   0  0  0  0  0  1  0  0  0  0  0  0
  181.9110  179.3610  138.2210 N   0  0  0  0  0  0  0  0  0  0  0  0
  180.5380  180.4500  139.7740 O   0  0  0  0  0  1  0  0  0  0  0  0
  181.4050  180.6490  138.6990 C   0  0  2  0  0  3  0  0  0  0  0  0
  179.7940  182.3930  138.1510 O   0  0  0  0  0  0  0  0  0  0  0  0
  181.0210  182.9070  137.6860 C   0  0  1  0  0  3  0  0  0  0  0  0
  180.6980  181.4620  137.6040 C   0  0  1  0  0  3  0  0  0  0  0  0
  181.3080  184.6970  136.1120 N   0  0  0  0  0  2  0  0  0  0  0  0
  180.8100  183.5420  136.3560 C   0  0  0  0  0  3  0  0  0  0  0  0
  1  8  1  0  0  0  0
  2  3  1  6  0  0  0
  2  1  1  0  0  0  0
  4  7  2  0  0  0  0
  5  2  1  0  0  0  0
  6  4  1  0  0  0  0
  6  5  2  0  0  0  0
  7  1  1  0  0  0  0
  8 11  2  0  0  0  0
  8  9  1  0  0  0  0
  9 12  2  0  0  0  0
 11 13  1  0  0  0  0
 12 10  1  0  0  0  0
 13 10  2  0  0  0  0
 14 15  1  1  0  0  0
 14  4  1  0  0  0  0
 16 14  1  0  0  0  0
 17 24  1  6  0  0  0
 17 16  1  0  0  0  0
 18 19  1  0  0  0  0
 19 23  1  0  0  0  0
 20 19  2  0  0  0  0
 20 21  1  0  0  0  0
 21 22  2  0  0  0  0
 22 17  1  0  0  0  0
 23 22  1  0  0  0  0
 25 26  1  0  0  0  0
 26 24  1  0  0  0  0
 27  5  1  0  0  0  0
 28 27  1  0  0  0  0
 29 30  1  0  0  0  0
 30 28  1  0  0  0  0
 31 29  1  0  0  0  0
 32 29  2  0  0  0  0
 32 34  1  0  0  0  0
 34 33  1  1  0  0  0
 36 39  1  6  0  0  0
 36 35  1  0  0  0  0
 37 36  1  0  0  0  0
 37 35  1  0  0  0  0
 37 34  1  1  0  0  0
 38 39  2  0  0  0  0
M  END
>  <MODEL>
9

>  <REMARK>
 VINA RESULT:      -7.2      2.874      4.200
  Name = 
  13 active torsions:
  status: ('A' for Active; 'I' for Inactive)
    1  A    between atoms: C_1  and  C_16
    2  A    between atoms: C_1  and  N_21
    3  A    between atoms: N_2  and  C_5
    4  A    between atoms: C_9  and  C_20
    5  A    between atoms: N_10  and  C_30
    6  A    between atoms: N_10  and  O_35
    7  A    between atoms: N_17  and  C_39
    8  A    between atoms: C_18  and  C_24
    9  A    between atoms: C_18  and  N_29
   10  A    between atoms: N_21  and  C_30
   11  A    between atoms: C_23  and  C_32
   12  A    between atoms: C_28  and  C_30
   13  A    between atoms: C_32  and  C_39
                            x       y       z     vdW  Elec       q    Type
                         _______ _______ _______ _____ _____    ______ ____

>  <TORSDO>
F 13

$$$$
