=
 OpenBabel10222416083D

 26 27  0  0  1  0  0  0  0  0999 V2000
  187.9670  177.3970  142.7200 N   0  0  0  0  0  2  0  0  0  0  0  0
  190.3160  176.4980  142.3310 C   0  0  1  0  0  3  0  0  0  0  0  0
  191.1590  178.2180  144.4780 C   0  0  0  0  0  2  0  0  0  0  0  0
  189.3580  177.4070  143.0640 C   0  0  0  0  0  0  0  0  0  0  0  0
  191.8360  175.4840  143.9710 N   0  0  0  0  0  2  0  0  0  0  0  0
  191.6850  175.9710  145.2790 N   0  0  0  0  0  0  0  0  0  0  0  0
  190.6910  175.2340  143.1080 C   0  0  0  0  0  2  0  0  0  0  0  0
  191.3630  177.2020  145.5550 C   0  0  0  0  0  0  0  0  0  0  0  0
  189.7770  178.1810  144.0200 N   0  0  0  0  0  0  0  0  0  0  0  0
  184.8340  179.4030  142.8160 C   0  0  0  0  0  2  0  0  0  0  0  0
  185.6300  178.1100  142.6620 C   0  0  0  0  0  2  0  0  0  0  0  0
  184.2380  179.5940  144.2130 C   0  0  2  0  0  3  0  0  0  0  0  0
  185.5970  178.1330  145.4380 N   0  0  0  0  0  0  0  0  0  0  0  0
  186.9800  178.2540  143.3600 C   0  0  1  0  0  3  0  0  0  0  0  0
  186.9200  177.9210  144.8550 C   0  0  0  0  0  2  0  0  0  0  0  0
  185.7310  177.9060  146.8660 C   0  0  0  0  0  1  0  0  0  0  0  0
  185.2490  179.4870  145.2750 N   0  0  0  0  0  2  0  0  0  0  0  0
  183.0270  178.6890  144.4460 C   0  0  0  0  0  2  0  0  0  0  0  0
  181.8660  179.0590  143.5330 C   0  0  0  0  0  2  0  0  0  0  0  0
  180.5940  178.3280  143.9310 C   0  0  0  0  0  2  0  0  0  0  0  0
  179.4140  179.2800  143.9530 C   0  0  0  0  0  1  0  0  0  0  0  0
  191.1930  177.6060  146.8810 O   0  0  0  0  0  0  0  0  0  0  0  0
  189.9940  177.3610  147.6020 C   0  0  0  0  0  1  0  0  0  0  0  0
  189.9820  176.2800  140.9730 O   0  0  0  0  0  0  0  0  0  0  0  0
  190.5870  177.2680  140.1770 C   0  0  0  0  0  2  0  0  0  0  0  0
  189.5320  177.9530  139.3340 C   0  0  0  0  0  1  0  0  0  0  0  0
  1  4  1  0  0  0  0
  2 24  1  6  0  0  0
  2  4  1  0  0  0  0
  2  7  1  0  0  0  0
  3  8  1  0  0  0  0
  4  9  2  0  0  0  0
  5  6  1  0  0  0  0
  6  8  2  0  0  0  0
  7  5  1  0  0  0  0
  8 22  1  0  0  0  0
  9  3  1  0  0  0  0
 10 12  1  0  0  0  0
 11 10  1  0  0  0  0
 11 14  1  0  0  0  0
 12 18  1  1  0  0  0
 12 17  1  0  0  0  0
 13 16  1  0  0  0  0
 14  1  1  6  0  0  0
 14 15  1  0  0  0  0
 15 13  1  0  0  0  0
 17 13  1  0  0  0  0
 19 20  1  0  0  0  0
 19 18  1  0  0  0  0
 20 21  1  0  0  0  0
 22 23  1  0  0  0  0
 25 24  1  0  0  0  0
 26 25  1  0  0  0  0
M  END
>  <MODEL>
1

>  <REMARK>
 VINA RESULT:      -6.9      0.000      0.000
  Name = 
  7 active torsions:
  status: ('A' for Active; 'I' for Inactive)
    1  A    between atoms: N_1  and  C_11
    2  A    between atoms: O_2  and  C_7
    3  A    between atoms: O_2  and  C_13
    4  A    between atoms: O_5  and  C_23
    5  A    between atoms: C_6  and  C_12
    6  A    between atoms: C_6  and  C_22
    7  A    between atoms: C_8  and  C_12
                            x       y       z     vdW  Elec       q    Type
                         _______ _______ _______ _____ _____    ______ ____

>  <TORSDO>
F 7

$$$$
=
 OpenBabel10222416083D

 26 27  0  0  1  0  0  0  0  0999 V2000
  183.7720  178.1900  142.9010 N   0  0  0  0  0  2  0  0  0  0  0  0
  182.3200  178.3380  140.8160 C   0  0  1  0  0  3  0  0  0  0  0  0
  184.5510  179.6410  139.5480 C   0  0  0  0  0  2  0  0  0  0  0  0
  183.6140  178.6180  141.5430 C   0  0  0  0  0  0  0  0  0  0  0  0
  182.8530  177.5660  138.5470 N   0  0  0  0  0  2  0  0  0  0  0  0
  184.2180  177.6150  138.2240 N   0  0  0  0  0  0  0  0  0  0  0  0
  182.3890  177.1450  139.8610 C   0  0  0  0  0  2  0  0  0  0  0  0
  185.0300  178.5310  138.6690 C   0  0  0  0  0  0  0  0  0  0  0  0
  184.5960  179.2210  140.9410 N   0  0  0  0  0  0  0  0  0  0  0  0
  185.6280  179.1430  145.9830 C   0  0  0  0  0  2  0  0  0  0  0  0
  184.6800  178.2670  145.1690 C   0  0  0  0  0  2  0  0  0  0  0  0
  187.0520  178.5890  146.0700 C   0  0  2  0  0  3  0  0  0  0  0  0
  187.0370  177.1360  144.2340 N   0  0  0  0  0  0  0  0  0  0  0  0
  184.9760  178.4370  143.6810 C   0  0  1  0  0  3  0  0  0  0  0  0
  186.0940  177.5140  143.1840 C   0  0  0  0  0  2  0  0  0  0  0  0
  188.0970  176.3820  143.5890 C   0  0  0  0  0  1  0  0  0  0  0  0
  187.6270  178.3060  144.7470 N   0  0  0  0  0  2  0  0  0  0  0  0
  187.1460  177.4010  147.0290 C   0  0  0  0  0  2  0  0  0  0  0  0
  187.8910  177.7690  148.3060 C   0  0  0  0  0  2  0  0  0  0  0  0
  189.3660  178.0180  148.0330 C   0  0  0  0  0  2  0  0  0  0  0  0
  189.9830  176.8350  147.3100 C   0  0  0  0  0  1  0  0  0  0  0  0
  186.3850  178.4940  138.3360 O   0  0  0  0  0  0  0  0  0  0  0  0
  186.9760  177.3850  137.6730 C   0  0  0  0  0  1  0  0  0  0  0  0
  181.1740  178.3670  141.6450 O   0  0  0  0  0  0  0  0  0  0  0  0
  180.4720  179.5670  141.4340 C   0  0  0  0  0  2  0  0  0  0  0  0
  180.0090  180.1220  142.7640 C   0  0  0  0  0  1  0  0  0  0  0  0
  2  4  1  0  0  0  0
  2 24  1  1  0  0  0
  3  9  1  0  0  0  0
  4  1  1  0  0  0  0
  5  7  1  0  0  0  0
  6  5  1  0  0  0  0
  6  8  2  0  0  0  0
  7  2  1  0  0  0  0
  8  3  1  0  0  0  0
  9  4  2  0  0  0  0
 10 12  1  0  0  0  0
 11 10  1  0  0  0  0
 12 18  1  1  0  0  0
 13 17  1  0  0  0  0
 14  1  1  6  0  0  0
 14 11  1  0  0  0  0
 15 14  1  0  0  0  0
 15 13  1  0  0  0  0
 16 13  1  0  0  0  0
 17 12  1  0  0  0  0
 18 19  1  0  0  0  0
 20 19  1  0  0  0  0
 21 20  1  0  0  0  0
 22  8  1  0  0  0  0
 23 22  1  0  0  0  0
 25 24  1  0  0  0  0
 25 26  1  0  0  0  0
M  END
>  <MODEL>
2

>  <REMARK>
 VINA RESULT:      -6.5      3.491      7.616
  Name = 
  7 active torsions:
  status: ('A' for Active; 'I' for Inactive)
    1  A    between atoms: N_1  and  C_11
    2  A    between atoms: O_2  and  C_7
    3  A    between atoms: O_2  and  C_13
    4  A    between atoms: O_5  and  C_23
    5  A    between atoms: C_6  and  C_12
    6  A    between atoms: C_6  and  C_22
    7  A    between atoms: C_8  and  C_12
                            x       y       z     vdW  Elec       q    Type
                         _______ _______ _______ _____ _____    ______ ____

>  <TORSDO>
F 7

$$$$
=
 OpenBabel10222416083D

 26 27  0  0  1  0  0  0  0  0999 V2000
  187.7610  178.1110  144.8910 N   0  0  0  0  0  2  0  0  0  0  0  0
  190.2440  177.5870  145.0910 C   0  0  1  0  0  3  0  0  0  0  0  0
  189.8690  175.7450  142.9120 C   0  0  0  0  0  2  0  0  0  0  0  0
  188.8970  177.3610  144.4450 C   0  0  0  0  0  0  0  0  0  0  0  0
  191.9500  177.6650  143.3270 N   0  0  0  0  0  2  0  0  0  0  0  0
  191.4680  177.3740  142.0410 N   0  0  0  0  0  0  0  0  0  0  0  0
  191.1860  178.4700  144.2700 C   0  0  0  0  0  2  0  0  0  0  0  0
  190.5130  176.5210  141.8080 C   0  0  0  0  0  0  0  0  0  0  0  0
  188.7630  176.5100  143.4710 N   0  0  0  0  0  0  0  0  0  0  0  0
  184.0440  178.0780  145.0690 C   0  0  0  0  0  2  0  0  0  0  0  0
  185.4150  178.7430  145.1550 C   0  0  0  0  0  2  0  0  0  0  0  0
  183.3360  178.3030  143.7300 C   0  0  2  0  0  3  0  0  0  0  0  0
  185.1700  178.8800  142.3930 N   0  0  0  0  0  0  0  0  0  0  0  0
  186.4250  177.9410  144.3390 C   0  0  1  0  0  3  0  0  0  0  0  0
  186.4410  178.3300  142.8560 C   0  0  0  0  0  2  0  0  0  0  0  0
  185.2980  179.0730  140.9600 C   0  0  0  0  0  1  0  0  0  0  0  0
  184.1670  177.9110  142.5830 N   0  0  0  0  0  2  0  0  0  0  0  0
  182.7800  179.7230  143.6080 C   0  0  0  0  0  2  0  0  0  0  0  0
  181.3160  179.7180  143.1890 C   0  0  0  0  0  2  0  0  0  0  0  0
  180.5510  178.5940  143.8690 C   0  0  0  0  0  2  0  0  0  0  0  0
  179.1780  179.0700  144.3050 C   0  0  0  0  0  1  0  0  0  0  0  0
  190.0580  176.3100  140.5040 O   0  0  0  0  0  0  0  0  0  0  0  0
  190.7780  176.7590  139.3650 C   0  0  0  0  0  1  0  0  0  0  0  0
  190.1770  177.9120  146.4670 O   0  0  0  0  0  0  0  0  0  0  0  0
  190.2650  176.7360  147.2310 C   0  0  0  0  0  2  0  0  0  0  0  0
  191.6920  176.2330  147.2220 C   0  0  0  0  0  1  0  0  0  0  0  0
  2 24  1  1  0  0  0
  3  9  1  0  0  0  0
  4  1  1  0  0  0  0
  4  2  1  0  0  0  0
  5  7  1  0  0  0  0
  6  5  1  0  0  0  0
  7  2  1  0  0  0  0
  8  6  2  0  0  0  0
  8  3  1  0  0  0  0
  9  4  2  0  0  0  0
 10 11  1  0  0  0  0
 12 18  1  6  0  0  0
 12 10  1  0  0  0  0
 13 17  1  0  0  0  0
 13 15  1  0  0  0  0
 14  1  1  1  0  0  0
 14 11  1  0  0  0  0
 15 14  1  0  0  0  0
 16 13  1  0  0  0  0
 17 12  1  0  0  0  0
 19 18  1  0  0  0  0
 19 20  1  0  0  0  0
 20 21  1  0  0  0  0
 22  8  1  0  0  0  0
 23 22  1  0  0  0  0
 24 25  1  0  0  0  0
 26 25  1  0  0  0  0
M  END
>  <MODEL>
3

>  <REMARK>
 VINA RESULT:      -6.5      1.559      4.037
  Name = 
  7 active torsions:
  status: ('A' for Active; 'I' for Inactive)
    1  A    between atoms: N_1  and  C_11
    2  A    between atoms: O_2  and  C_7
    3  A    between atoms: O_2  and  C_13
    4  A    between atoms: O_5  and  C_23
    5  A    between atoms: C_6  and  C_12
    6  A    between atoms: C_6  and  C_22
    7  A    between atoms: C_8  and  C_12
                            x       y       z     vdW  Elec       q    Type
                         _______ _______ _______ _____ _____    ______ ____

>  <TORSDO>
F 7

$$$$
=
 OpenBabel10222416083D

 26 27  0  0  1  0  0  0  0  0999 V2000
  190.6940  176.4670  140.3330 N   0  0  0  0  0  2  0  0  0  0  0  0
  190.6530  175.6480  137.9240 C   0  0  1  0  0  3  0  0  0  0  0  0
  187.9090  176.5130  137.8440 C   0  0  0  0  0  2  0  0  0  0  0  0
  189.9630  176.2620  139.1190 C   0  0  0  0  0  0  0  0  0  0  0  0
  189.9890  176.8960  135.9160 N   0  0  0  0  0  2  0  0  0  0  0  0
  189.0090  177.8760  136.1410 N   0  0  0  0  0  0  0  0  0  0  0  0
  191.0730  176.6640  136.8600 C   0  0  0  0  0  2  0  0  0  0  0  0
  188.0550  177.7500  137.0170 C   0  0  0  0  0  0  0  0  0  0  0  0
  188.7170  176.6290  139.0500 N   0  0  0  0  0  0  0  0  0  0  0  0
  188.5220  176.3810  143.3540 C   0  0  0  0  0  2  0  0  0  0  0  0
  189.6930  175.9150  142.4940 C   0  0  0  0  0  2  0  0  0  0  0  0
  188.9250  177.3580  144.4610 C   0  0  2  0  0  3  0  0  0  0  0  0
  190.9780  178.1050  143.6180 N   0  0  0  0  0  0  0  0  0  0  0  0
  190.1020  177.0320  141.5370 C   0  0  1  0  0  3  0  0  0  0  0  0
  191.0880  178.0250  142.1630 C   0  0  0  0  0  2  0  0  0  0  0  0
  191.8690  179.1680  144.0440 C   0  0  0  0  0  1  0  0  0  0  0  0
  189.6730  178.5140  143.9460 N   0  0  0  0  0  2  0  0  0  0  0  0
  189.6390  176.6520  145.6160 C   0  0  0  0  0  2  0  0  0  0  0  0
  189.5610  177.4630  146.9020 C   0  0  0  0  0  2  0  0  0  0  0  0
  188.1430  177.4950  147.4510 C   0  0  0  0  0  2  0  0  0  0  0  0
  188.1250  178.0740  148.8520 C   0  0  0  0  0  1  0  0  0  0  0  0
  187.1360  178.7830  137.2130 O   0  0  0  0  0  0  0  0  0  0  0  0
  185.8780  178.5740  137.8390 C   0  0  0  0  0  1  0  0  0  0  0  0
  191.6440  174.6940  138.2560 O   0  0  0  0  0  0  0  0  0  0  0  0
  192.4060  174.3920  137.1140 C   0  0  0  0  0  2  0  0  0  0  0  0
  193.8380  174.1190  137.5210 C   0  0  0  0  0  1  0  0  0  0  0  0
  2 24  1  1  0  0  0
  2  4  1  0  0  0  0
  3  9  1  0  0  0  0
  4  1  1  0  0  0  0
  5  6  1  0  0  0  0
  5  7  1  0  0  0  0
  6  8  2  0  0  0  0
  7  2  1  0  0  0  0
  8 22  1  0  0  0  0
  8  3  1  0  0  0  0
  9  4  2  0  0  0  0
 10 12  1  0  0  0  0
 11 10  1  0  0  0  0
 12 18  1  1  0  0  0
 13 17  1  0  0  0  0
 13 16  1  0  0  0  0
 14  1  1  6  0  0  0
 14 15  1  0  0  0  0
 14 11  1  0  0  0  0
 15 13  1  0  0  0  0
 17 12  1  0  0  0  0
 18 19  1  0  0  0  0
 19 20  1  0  0  0  0
 20 21  1  0  0  0  0
 22 23  1  0  0  0  0
 25 26  1  0  0  0  0
 25 24  1  0  0  0  0
M  END
>  <MODEL>
4

>  <REMARK>
 VINA RESULT:      -6.5      4.306      6.874
  Name = 
  7 active torsions:
  status: ('A' for Active; 'I' for Inactive)
    1  A    between atoms: N_1  and  C_11
    2  A    between atoms: O_2  and  C_7
    3  A    between atoms: O_2  and  C_13
    4  A    between atoms: O_5  and  C_23
    5  A    between atoms: C_6  and  C_12
    6  A    between atoms: C_6  and  C_22
    7  A    between atoms: C_8  and  C_12
                            x       y       z     vdW  Elec       q    Type
                         _______ _______ _______ _____ _____    ______ ____

>  <TORSDO>
F 7

$$$$
=
 OpenBabel10222416083D

 26 27  0  0  1  0  0  0  0  0999 V2000
  189.7790  176.3890  139.6750 N   0  0  0  0  0  2  0  0  0  0  0  0
  190.4550  175.6200  137.3450 C   0  0  1  0  0  3  0  0  0  0  0  0
  193.0770  176.6490  137.9390 C   0  0  0  0  0  2  0  0  0  0  0  0
  190.7840  176.2900  138.6590 C   0  0  0  0  0  0  0  0  0  0  0  0
  192.3340  174.1680  136.7200 N   0  0  0  0  0  2  0  0  0  0  0  0
  193.4470  174.2620  137.5710 N   0  0  0  0  0  0  0  0  0  0  0  0
  190.9720  174.1840  137.2330 C   0  0  0  0  0  2  0  0  0  0  0  0
  193.8110  175.3650  138.1580 C   0  0  0  0  0  0  0  0  0  0  0  0
  191.9760  176.7550  138.8870 N   0  0  0  0  0  0  0  0  0  0  0  0
  188.8200  178.5500  142.5490 C   0  0  0  0  0  2  0  0  0  0  0  0
  188.6690  177.3370  141.6350 C   0  0  0  0  0  2  0  0  0  0  0  0
  189.5600  178.2460  143.8550 C   0  0  2  0  0  3  0  0  0  0  0  0
  190.6640  176.2730  143.2460 N   0  0  0  0  0  0  0  0  0  0  0  0
  190.0040  177.0360  140.9590 C   0  0  1  0  0  3  0  0  0  0  0  0
  190.9210  176.1520  141.8130 C   0  0  0  0  0  2  0  0  0  0  0  0
  191.6850  175.4900  143.9180 C   0  0  0  0  0  1  0  0  0  0  0  0
  190.8670  177.6130  143.6260 N   0  0  0  0  0  2  0  0  0  0  0  0
  188.6850  177.4700  144.8410 C   0  0  0  0  0  2  0  0  0  0  0  0
  189.1600  177.6540  146.2760 C   0  0  0  0  0  2  0  0  0  0  0  0
  187.9930  177.6500  147.2500 C   0  0  0  0  0  2  0  0  0  0  0  0
  188.4060  178.2440  148.5830 C   0  0  0  0  0  1  0  0  0  0  0  0
  194.9080  175.3750  139.0220 O   0  0  0  0  0  0  0  0  0  0  0  0
  195.8080  174.2800  139.1220 C   0  0  0  0  0  1  0  0  0  0  0  0
  189.1170  175.8030  136.9220 O   0  0  0  0  0  0  0  0  0  0  0  0
  189.0880  176.6700  135.8160 C   0  0  0  0  0  2  0  0  0  0  0  0
  188.8040  178.0800  136.2880 C   0  0  0  0  0  1  0  0  0  0  0  0
  2 24  1  1  0  0  0
  2  4  1  0  0  0  0
  3  8  1  0  0  0  0
  3  9  1  0  0  0  0
  4  9  2  0  0  0  0
  4  1  1  0  0  0  0
  5  7  1  0  0  0  0
  5  6  1  0  0  0  0
  6  8  2  0  0  0  0
  7  2  1  0  0  0  0
  8 22  1  0  0  0  0
 10 12  1  0  0  0  0
 11 10  1  0  0  0  0
 12 18  1  1  0  0  0
 13 17  1  0  0  0  0
 13 16  1  0  0  0  0
 14  1  1  6  0  0  0
 14 11  1  0  0  0  0
 14 15  1  0  0  0  0
 15 13  1  0  0  0  0
 17 12  1  0  0  0  0
 18 19  1  0  0  0  0
 19 20  1  0  0  0  0
 20 21  1  0  0  0  0
 22 23  1  0  0  0  0
 25 26  1  0  0  0  0
 25 24  1  0  0  0  0
M  END
>  <MODEL>
5

>  <REMARK>
 VINA RESULT:      -6.3      4.411      6.500
  Name = 
  7 active torsions:
  status: ('A' for Active; 'I' for Inactive)
    1  A    between atoms: N_1  and  C_11
    2  A    between atoms: O_2  and  C_7
    3  A    between atoms: O_2  and  C_13
    4  A    between atoms: O_5  and  C_23
    5  A    between atoms: C_6  and  C_12
    6  A    between atoms: C_6  and  C_22
    7  A    between atoms: C_8  and  C_12
                            x       y       z     vdW  Elec       q    Type
                         _______ _______ _______ _____ _____    ______ ____

>  <TORSDO>
F 7

$$$$
=
 OpenBabel10222416083D

 26 27  0  0  1  0  0  0  0  0999 V2000
  191.1910  176.7560  138.9750 N   0  0  0  0  0  2  0  0  0  0  0  0
  192.0280  175.9660  136.7060 C   0  0  1  0  0  3  0  0  0  0  0  0
  190.3050  173.6860  137.0400 C   0  0  0  0  0  2  0  0  0  0  0  0
  191.1810  175.7660  137.9400 C   0  0  0  0  0  0  0  0  0  0  0  0
  190.6980  175.3410  134.7390 N   0  0  0  0  0  2  0  0  0  0  0  0
  189.4420  174.7910  135.0410 N   0  0  0  0  0  0  0  0  0  0  0  0
  191.2450  176.4630  135.4890 C   0  0  0  0  0  2  0  0  0  0  0  0
  189.2150  174.0470  136.0830 C   0  0  0  0  0  0  0  0  0  0  0  0
  190.4240  174.7160  138.0630 N   0  0  0  0  0  0  0  0  0  0  0  0
  190.8010  176.3210  142.6510 C   0  0  0  0  0  2  0  0  0  0  0  0
  191.2730  177.0560  141.4000 C   0  0  0  0  0  2  0  0  0  0  0  0
  189.4910  176.8670  143.2260 C   0  0  2  0  0  3  0  0  0  0  0  0
  188.6580  177.9860  141.3460 N   0  0  0  0  0  0  0  0  0  0  0  0
  190.4220  176.6330  140.2050 C   0  0  1  0  0  3  0  0  0  0  0  0
  189.1290  177.4450  140.0730 C   0  0  0  0  0  2  0  0  0  0  0  0
  187.3730  178.6080  141.0820 C   0  0  0  0  0  1  0  0  0  0  0  0
  188.4150  176.9150  142.2250 N   0  0  0  0  0  2  0  0  0  0  0  0
  189.6950  178.1990  143.9490 C   0  0  0  0  0  2  0  0  0  0  0  0
  189.7910  178.0090  145.4570 C   0  0  0  0  0  2  0  0  0  0  0  0
  188.5230  177.3850  146.0170 C   0  0  0  0  0  2  0  0  0  0  0  0
  188.6640  177.1310  147.5050 C   0  0  0  0  0  1  0  0  0  0  0  0
  187.9290  173.5650  136.3410 O   0  0  0  0  0  0  0  0  0  0  0  0
  187.6970  172.3470  137.0330 C   0  0  0  0  0  1  0  0  0  0  0  0
  193.2460  176.6470  136.9440 O   0  0  0  0  0  0  0  0  0  0  0  0
  194.2590  176.0920  136.1450 C   0  0  0  0  0  2  0  0  0  0  0  0
  194.5730  174.6920  136.6270 C   0  0  0  0  0  1  0  0  0  0  0  0
  2 24  1  1  0  0  0
  2  4  1  0  0  0  0
  3  9  1  0  0  0  0
  4  9  2  0  0  0  0
  4  1  1  0  0  0  0
  5  6  1  0  0  0  0
  5  7  1  0  0  0  0
  6  8  2  0  0  0  0
  7  2  1  0  0  0  0
  8 22  1  0  0  0  0
  8  3  1  0  0  0  0
 10 12  1  0  0  0  0
 11 10  1  0  0  0  0
 12 18  1  6  0  0  0
 13 17  1  0  0  0  0
 14  1  1  6  0  0  0
 14 11  1  0  0  0  0
 15 14  1  0  0  0  0
 15 13  1  0  0  0  0
 16 13  1  0  0  0  0
 17 12  1  0  0  0  0
 18 19  1  0  0  0  0
 19 20  1  0  0  0  0
 20 21  1  0  0  0  0
 22 23  1  0  0  0  0
 25 26  1  0  0  0  0
 25 24  1  0  0  0  0
M  END
>  <MODEL>
6

>  <REMARK>
 VINA RESULT:      -6.2      4.319      7.596
  Name = 
  7 active torsions:
  status: ('A' for Active; 'I' for Inactive)
    1  A    between atoms: N_1  and  C_11
    2  A    between atoms: O_2  and  C_7
    3  A    between atoms: O_2  and  C_13
    4  A    between atoms: O_5  and  C_23
    5  A    between atoms: C_6  and  C_12
    6  A    between atoms: C_6  and  C_22
    7  A    between atoms: C_8  and  C_12
                            x       y       z     vdW  Elec       q    Type
                         _______ _______ _______ _____ _____    ______ ____

>  <TORSDO>
F 7

$$$$
=
 OpenBabel10222416083D

 26 27  0  0  1  0  0  0  0  0999 V2000
  185.5200  178.2250  141.8310 N   0  0  0  0  0  2  0  0  0  0  0  0
  185.6220  179.0870  139.4390 C   0  0  1  0  0  3  0  0  0  0  0  0
  188.4510  178.5700  139.5410 C   0  0  0  0  0  2  0  0  0  0  0  0
  186.3010  178.5420  140.6730 C   0  0  0  0  0  0  0  0  0  0  0  0
  186.5710  177.9680  137.4700 N   0  0  0  0  0  2  0  0  0  0  0  0
  187.6480  177.1130  137.7530 N   0  0  0  0  0  0  0  0  0  0  0  0
  185.4050  178.0460  138.3390 C   0  0  0  0  0  2  0  0  0  0  0  0
  188.5180  177.3400  138.6940 C   0  0  0  0  0  0  0  0  0  0  0  0
  187.5850  178.3330  140.6870 N   0  0  0  0  0  0  0  0  0  0  0  0
  188.2220  176.7060  143.8910 C   0  0  0  0  0  2  0  0  0  0  0  0
  187.6180  177.7950  143.0090 C   0  0  0  0  0  2  0  0  0  0  0  0
  188.1350  177.0110  145.3890 C   0  0  2  0  0  3  0  0  0  0  0  0
  186.4230  178.6090  145.3790 N   0  0  0  0  0  0  0  0  0  0  0  0
  186.0950  177.7160  143.0680 C   0  0  1  0  0  3  0  0  0  0  0  0
  185.5010  178.4870  144.2530 C   0  0  0  0  0  2  0  0  0  0  0  0
  185.6810  179.2370  146.4570 C   0  0  0  0  0  1  0  0  0  0  0  0
  186.7630  177.3170  145.8210 N   0  0  0  0  0  2  0  0  0  0  0  0
  189.1470  178.0760  145.8160 C   0  0  0  0  0  2  0  0  0  0  0  0
  190.5530  177.5000  145.9220 C   0  0  0  0  0  2  0  0  0  0  0  0
  190.7480  176.7520  147.2310 C   0  0  0  0  0  2  0  0  0  0  0  0
  192.0510  175.9760  147.2150 C   0  0  0  0  0  1  0  0  0  0  0  0
  189.5430  176.4250  138.9440 O   0  0  0  0  0  0  0  0  0  0  0  0
  190.6860  176.7570  139.7200 C   0  0  0  0  0  1  0  0  0  0  0  0
  184.4990  179.9040  139.7100 O   0  0  0  0  0  0  0  0  0  0  0  0
  183.3780  179.4060  139.0250 C   0  0  0  0  0  2  0  0  0  0  0  0
  182.2660  179.1250  140.0120 C   0  0  0  0  0  1  0  0  0  0  0  0
  2 24  1  1  0  0  0
  2  4  1  0  0  0  0
  3  9  1  0  0  0  0
  4  9  2  0  0  0  0
  4  1  1  0  0  0  0
  5  6  1  0  0  0  0
  5  7  1  0  0  0  0
  6  8  2  0  0  0  0
  7  2  1  0  0  0  0
  8 22  1  0  0  0  0
  8  3  1  0  0  0  0
 10 12  1  0  0  0  0
 11 14  1  0  0  0  0
 11 10  1  0  0  0  0
 12 18  1  6  0  0  0
 12 17  1  0  0  0  0
 13 17  1  0  0  0  0
 13 16  1  0  0  0  0
 14  1  1  6  0  0  0
 14 15  1  0  0  0  0
 15 13  1  0  0  0  0
 18 19  1  0  0  0  0
 19 20  1  0  0  0  0
 21 20  1  0  0  0  0
 22 23  1  0  0  0  0
 25 24  1  0  0  0  0
 25 26  1  0  0  0  0
M  END
>  <MODEL>
7

>  <REMARK>
 VINA RESULT:      -6.1      3.101      6.629
  Name = 
  7 active torsions:
  status: ('A' for Active; 'I' for Inactive)
    1  A    between atoms: N_1  and  C_11
    2  A    between atoms: O_2  and  C_7
    3  A    between atoms: O_2  and  C_13
    4  A    between atoms: O_5  and  C_23
    5  A    between atoms: C_6  and  C_12
    6  A    between atoms: C_6  and  C_22
    7  A    between atoms: C_8  and  C_12
                            x       y       z     vdW  Elec       q    Type
                         _______ _______ _______ _____ _____    ______ ____

>  <TORSDO>
F 7

$$$$
=
 OpenBabel10222416083D

 26 27  0  0  1  0  0  0  0  0999 V2000
  186.9370  178.4940  142.1510 N   0  0  0  0  0  2  0  0  0  0  0  0
  184.6110  178.1230  143.1140 C   0  0  1  0  0  3  0  0  0  0  0  0
  185.9200  177.2710  145.5310 C   0  0  0  0  0  2  0  0  0  0  0  0
  186.1150  178.0700  143.2440 C   0  0  0  0  0  0  0  0  0  0  0  0
  183.6790  179.0210  145.2000 N   0  0  0  0  0  2  0  0  0  0  0  0
  184.6260  179.2270  146.2160 N   0  0  0  0  0  0  0  0  0  0  0  0
  183.9690  179.3260  143.8060 C   0  0  0  0  0  2  0  0  0  0  0  0
  185.6670  178.4660  146.3930 C   0  0  0  0  0  0  0  0  0  0  0  0
  186.6710  177.6670  144.3480 N   0  0  0  0  0  0  0  0  0  0  0  0
  190.2470  178.4390  143.8510 C   0  0  0  0  0  2  0  0  0  0  0  0
  188.8710  177.8740  143.5110 C   0  0  0  0  0  2  0  0  0  0  0  0
  191.3820  177.8280  143.0240 C   0  0  2  0  0  3  0  0  0  0  0  0
  190.1570  176.9710  141.2220 N   0  0  0  0  0  0  0  0  0  0  0  0
  188.3920  178.4560  142.1840 C   0  0  1  0  0  3  0  0  0  0  0  0
  188.9020  177.6740  140.9680 C   0  0  0  0  0  2  0  0  0  0  0  0
  190.5740  176.3950  139.9570 C   0  0  0  0  0  1  0  0  0  0  0  0
  191.1350  177.9180  141.5780 N   0  0  0  0  0  2  0  0  0  0  0  0
  191.7260  176.4100  143.4850 C   0  0  0  0  0  2  0  0  0  0  0  0
  191.0350  176.0650  144.7980 C   0  0  0  0  0  2  0  0  0  0  0  0
  192.0200  176.0620  145.9560 C   0  0  0  0  0  2  0  0  0  0  0  0
  191.3710  176.6140  147.2110 C   0  0  0  0  0  1  0  0  0  0  0  0
  186.5890  178.7550  147.4010 O   0  0  0  0  0  0  0  0  0  0  0  0
  187.6530  177.8750  147.7350 C   0  0  0  0  0  1  0  0  0  0  0  0
  184.1350  177.8700  141.8050 O   0  0  0  0  0  0  0  0  0  0  0  0
  183.2080  178.8620  141.4420 C   0  0  0  0  0  2  0  0  0  0  0  0
  181.9370  178.2070  140.9430 C   0  0  0  0  0  1  0  0  0  0  0  0
  1  4  1  0  0  0  0
  2 24  1  6  0  0  0
  2  4  1  0  0  0  0
  2  7  1  0  0  0  0
  3  8  1  0  0  0  0
  4  9  2  0  0  0  0
  5  6  1  0  0  0  0
  6  8  2  0  0  0  0
  7  5  1  0  0  0  0
  8 22  1  0  0  0  0
  9  3  1  0  0  0  0
 11 10  1  0  0  0  0
 12 18  1  1  0  0  0
 12 10  1  0  0  0  0
 13 17  1  0  0  0  0
 14  1  1  1  0  0  0
 14 11  1  0  0  0  0
 15 13  1  0  0  0  0
 15 14  1  0  0  0  0
 16 13  1  0  0  0  0
 17 12  1  0  0  0  0
 18 19  1  0  0  0  0
 19 20  1  0  0  0  0
 20 21  1  0  0  0  0
 22 23  1  0  0  0  0
 25 24  1  0  0  0  0
 26 25  1  0  0  0  0
M  END
>  <MODEL>
8

>  <REMARK>
 VINA RESULT:      -6.1      2.483      7.001
  Name = 
  7 active torsions:
  status: ('A' for Active; 'I' for Inactive)
    1  A    between atoms: N_1  and  C_11
    2  A    between atoms: O_2  and  C_7
    3  A    between atoms: O_2  and  C_13
    4  A    between atoms: O_5  and  C_23
    5  A    between atoms: C_6  and  C_12
    6  A    between atoms: C_6  and  C_22
    7  A    between atoms: C_8  and  C_12
                            x       y       z     vdW  Elec       q    Type
                         _______ _______ _______ _____ _____    ______ ____

>  <TORSDO>
F 7

$$$$
=
 OpenBabel10222416083D

 26 27  0  0  1  0  0  0  0  0999 V2000
  190.9040  176.7470  140.2660 N   0  0  0  0  0  2  0  0  0  0  0  0
  190.7150  175.7670  137.9250 C   0  0  1  0  0  3  0  0  0  0  0  0
  187.9630  176.6060  137.9680 C   0  0  0  0  0  2  0  0  0  0  0  0
  190.0970  176.4550  139.1200 C   0  0  0  0  0  0  0  0  0  0  0  0
  189.9080  176.8720  135.8870 N   0  0  0  0  0  2  0  0  0  0  0  0
  188.9340  177.8580  136.1090 N   0  0  0  0  0  0  0  0  0  0  0  0
  191.0540  176.7120  136.7710 C   0  0  0  0  0  2  0  0  0  0  0  0
  188.0400  177.7850  137.0530 C   0  0  0  0  0  0  0  0  0  0  0  0
  188.8460  176.8080  139.1080 N   0  0  0  0  0  0  0  0  0  0  0  0
  188.1950  178.0170  142.4790 C   0  0  0  0  0  2  0  0  0  0  0  0
  188.9550  176.9260  141.7300 C   0  0  0  0  0  2  0  0  0  0  0  0
  188.5720  178.1200  143.9600 C   0  0  2  0  0  3  0  0  0  0  0  0
  190.6490  177.0380  143.9270 N   0  0  0  0  0  0  0  0  0  0  0  0
  190.3860  177.3870  141.4660 C   0  0  1  0  0  3  0  0  0  0  0  0
  191.3330  177.1010  142.6370 C   0  0  0  0  0  2  0  0  0  0  0  0
  191.6800  176.8950  144.9370 C   0  0  0  0  0  1  0  0  0  0  0  0
  190.0200  178.2750  144.1610 N   0  0  0  0  0  2  0  0  0  0  0  0
  187.9730  176.9790  144.7840 C   0  0  0  0  0  2  0  0  0  0  0  0
  187.2150  177.5020  145.9970 C   0  0  0  0  0  2  0  0  0  0  0  0
  186.0310  178.3590  145.5810 C   0  0  0  0  0  2  0  0  0  0  0  0
  184.9310  178.2940  146.6240 C   0  0  0  0  0  1  0  0  0  0  0  0
  187.1250  178.8230  137.2390 O   0  0  0  0  0  0  0  0  0  0  0  0
  185.8740  178.6270  137.8840 C   0  0  0  0  0  1  0  0  0  0  0  0
  191.7360  174.8450  138.2540 O   0  0  0  0  0  0  0  0  0  0  0  0
  192.8560  175.0710  137.4350 C   0  0  0  0  0  2  0  0  0  0  0  0
  193.3540  173.7510  136.8850 C   0  0  0  0  0  1  0  0  0  0  0  0
  2 24  1  1  0  0  0
  2  4  1  0  0  0  0
  3  9  1  0  0  0  0
  4  1  1  0  0  0  0
  5  6  1  0  0  0  0
  5  7  1  0  0  0  0
  6  8  2  0  0  0  0
  7  2  1  0  0  0  0
  8 22  1  0  0  0  0
  8  3  1  0  0  0  0
  9  4  2  0  0  0  0
 10 12  1  0  0  0  0
 11 10  1  0  0  0  0
 12 17  1  0  0  0  0
 12 18  1  1  0  0  0
 13 17  1  0  0  0  0
 13 16  1  0  0  0  0
 14  1  1  6  0  0  0
 14 11  1  0  0  0  0
 14 15  1  0  0  0  0
 15 13  1  0  0  0  0
 18 19  1  0  0  0  0
 20 19  1  0  0  0  0
 20 21  1  0  0  0  0
 22 23  1  0  0  0  0
 25 24  1  0  0  0  0
 26 25  1  0  0  0  0
M  END
>  <MODEL>
9

>  <REMARK>
 VINA RESULT:      -6.0      3.409      6.317
  Name = 
  7 active torsions:
  status: ('A' for Active; 'I' for Inactive)
    1  A    between atoms: N_1  and  C_11
    2  A    between atoms: O_2  and  C_7
    3  A    between atoms: O_2  and  C_13
    4  A    between atoms: O_5  and  C_23
    5  A    between atoms: C_6  and  C_12
    6  A    between atoms: C_6  and  C_22
    7  A    between atoms: C_8  and  C_12
                            x       y       z     vdW  Elec       q    Type
                         _______ _______ _______ _____ _____    ______ ____

>  <TORSDO>
F 7

$$$$
