=
 OpenBabel10222418283D

 28 32  0  0  1  0  0  0  0  0999 V2000
  191.0250  177.3080  143.3440 C   0  0  2  0  0  3  0  0  0  0  0  0
  187.2490  177.8100  142.5710 C   0  0  0  0  0  1  0  0  0  0  0  0
  189.6330  177.1900  145.4380 C   0  0  0  0  0  0  0  0  0  0  0  0
  191.9760  176.5330  147.9690 O   0  0  0  0  0  0  0  0  0  0  0  0
  188.5420  177.5920  143.2970 C   0  0  0  0  0  0  0  0  0  0  0  0
  191.3040  176.7310  146.9240 C   0  0  0  0  0  0  0  0  0  0  0  0
  189.7010  177.3900  142.6070 C   0  0  0  0  0  0  0  0  0  0  0  0
  188.5180  177.5680  144.7970 C   0  0  0  0  0  0  0  0  0  0  0  0
  191.8630  176.6450  145.6200 N   0  0  0  0  0  2  0  0  0  0  0  0
  190.8240  176.8990  144.7260 N   0  0  0  0  0  0  0  0  0  0  0  0
  189.8520  177.0940  146.9170 C   0  0  0  0  0  2  0  0  0  0  0  0
  191.6800  178.6060  143.3130 N   0  0  0  0  0  1  0  0  0  0  0  0
  190.8710  176.2470  137.9510 C   0  0  0  0  0  3  0  0  0  0  0  0
  189.0610  178.2530  135.4530 F   0  0  0  0  0  0  0  0  0  0  0  0
  188.9170  178.3080  137.8370 C   0  0  0  0  0  3  0  0  0  0  0  0
  189.7320  177.3050  141.1660 N   0  0  0  0  0  0  0  0  0  0  0  0
  190.5390  176.5030  140.4240 C   0  0  0  0  0  3  0  0  0  0  0  0
  190.4360  176.7530  136.7120 C   0  0  0  0  0  3  0  0  0  0  0  0
  189.4660  177.7770  136.6540 C   0  0  0  0  0  0  0  0  0  0  0  0
  190.3050  176.7900  139.1010 C   0  0  0  0  0  0  0  0  0  0  0  0
  189.3650  177.7820  139.0460 C   0  0  0  0  0  0  0  0  0  0  0  0
  189.0180  178.1080  140.3360 C   0  0  0  0  0  3  0  0  0  0  0  0
  186.2100  178.6280  147.6110 C   0  0  0  0  0  3  0  0  0  0  0  0
  187.3670  178.2890  146.9060 C   0  0  0  0  0  3  0  0  0  0  0  0
  184.9690  178.6100  146.9680 C   0  0  0  0  0  3  0  0  0  0  0  0
  184.8860  178.2530  145.6200 C   0  0  0  0  0  3  0  0  0  0  0  0
  187.2940  177.9300  145.5500 C   0  0  0  0  0  0  0  0  0  0  0  0
  186.0440  177.9140  144.9140 C   0  0  0  0  0  3  0  0  0  0  0  0
  1 12  1  1  0  0  0
  1 10  1  0  0  0  0
  2  5  1  0  0  0  0
  3 11  1  0  0  0  0
  5  8  1  0  0  0  0
  6  4  2  0  0  0  0
  7  5  2  0  0  0  0
  7  1  1  0  0  0  0
  8  3  2  0  0  0  0
  8 27  1  0  0  0  0
  9  6  1  0  0  0  0
 10  3  1  0  0  0  0
 10  9  1  0  0  0  0
 11  6  1  0  0  0  0
 13 20  1  0  0  0  0
 14 19  1  0  0  0  0
 15 21  1  0  0  0  0
 16  7  1  0  0  0  0
 17 16  1  0  0  0  0
 18 13  2  0  0  0  0
 19 18  1  0  0  0  0
 19 15  2  0  0  0  0
 20 17  2  0  0  0  0
 21 20  1  0  0  0  0
 21 22  2  0  0  0  0
 22 16  1  0  0  0  0
 24 23  2  0  0  0  0
 25 23  1  0  0  0  0
 26 25  2  0  0  0  0
 27 24  1  0  0  0  0
 28 27  2  0  0  0  0
 28 26  1  0  0  0  0
M  END
>  <MODEL>
1

>  <REMARK>
 VINA RESULT:     -10.7      0.000      0.000
  Name = 
  2 active torsions:
  status: ('A' for Active; 'I' for Inactive)
    1  A    between atoms: N_8  and  C_16
    2  A    between atoms: C_18  and  C_25
                            x       y       z     vdW  Elec       q    Type
                         _______ _______ _______ _____ _____    ______ ____

>  <TORSDO>
F 2

$$$$
=
 OpenBabel10222418283D

 28 32  0  0  1  0  0  0  0  0999 V2000
  187.5910  178.2310  141.4010 C   0  0  2  0  0  3  0  0  0  0  0  0
  186.8240  177.4750  145.1360 C   0  0  0  0  0  1  0  0  0  0  0  0
  189.6020  177.2810  142.5810 C   0  0  0  0  0  0  0  0  0  0  0  0
  192.0420  177.0930  140.0630 O   0  0  0  0  0  0  0  0  0  0  0  0
  187.5340  177.6150  143.8230 C   0  0  0  0  0  0  0  0  0  0  0  0
  191.0290  177.2090  140.8010 C   0  0  0  0  0  0  0  0  0  0  0  0
  186.8470  177.9550  142.6950 C   0  0  0  0  0  0  0  0  0  0  0  0
  189.0070  177.3370  143.7810 C   0  0  0  0  0  0  0  0  0  0  0  0
  189.7430  177.5440  140.2960 N   0  0  0  0  0  2  0  0  0  0  0  0
  188.8800  177.5550  141.3920 N   0  0  0  0  0  0  0  0  0  0  0  0
  191.0490  177.0270  142.2850 C   0  0  0  0  0  2  0  0  0  0  0  0
  187.7930  179.6630  141.2510 N   0  0  0  0  0  1  0  0  0  0  0  0
  182.1430  178.4980  141.3050 C   0  0  0  0  0  3  0  0  0  0  0  0
  179.8780  179.3040  144.0900 F   0  0  0  0  0  0  0  0  0  0  0  0
  182.2310  178.8980  144.1170 C   0  0  0  0  0  3  0  0  0  0  0  0
  185.4130  178.1260  142.6910 N   0  0  0  0  0  0  0  0  0  0  0  0
  184.6050  178.1180  141.5990 C   0  0  0  0  0  3  0  0  0  0  0  0
  180.9720  178.8060  142.0200 C   0  0  0  0  0  3  0  0  0  0  0  0
  181.0140  179.0060  143.4170 C   0  0  0  0  0  0  0  0  0  0  0  0
  183.3280  178.3940  142.0270 C   0  0  0  0  0  0  0  0  0  0  0  0
  183.3710  178.5870  143.3800 C   0  0  0  0  0  0  0  0  0  0  0  0
  184.6740  178.4300  143.7890 C   0  0  0  0  0  3  0  0  0  0  0  0
  191.7940  176.3380  146.1490 C   0  0  0  0  0  3  0  0  0  0  0  0
  191.0680  176.5510  144.9740 C   0  0  0  0  0  3  0  0  0  0  0  0
  191.2380  176.6810  147.3850 C   0  0  0  0  0  3  0  0  0  0  0  0
  189.9570  177.2360  147.4440 C   0  0  0  0  0  3  0  0  0  0  0  0
  189.7810  177.1090  145.0240 C   0  0  0  0  0  0  0  0  0  0  0  0
  189.2320  177.4500  146.2690 C   0  0  0  0  0  3  0  0  0  0  0  0
  1 12  1  1  0  0  0
  1  7  1  0  0  0  0
  3  8  2  0  0  0  0
  4  6  2  0  0  0  0
  5  2  1  0  0  0  0
  6 11  1  0  0  0  0
  7  5  2  0  0  0  0
  8  5  1  0  0  0  0
  8 27  1  0  0  0  0
  9  6  1  0  0  0  0
  9 10  1  0  0  0  0
 10  1  1  0  0  0  0
 10  3  1  0  0  0  0
 11  3  1  0  0  0  0
 13 18  2  0  0  0  0
 13 20  1  0  0  0  0
 16  7  1  0  0  0  0
 16 22  1  0  0  0  0
 17 20  2  0  0  0  0
 17 16  1  0  0  0  0
 18 19  1  0  0  0  0
 19 14  1  0  0  0  0
 19 15  2  0  0  0  0
 20 21  1  0  0  0  0
 21 22  2  0  0  0  0
 21 15  1  0  0  0  0
 23 25  1  0  0  0  0
 24 27  1  0  0  0  0
 24 23  2  0  0  0  0
 25 26  2  0  0  0  0
 27 28  2  0  0  0  0
 28 26  1  0  0  0  0
M  END
>  <MODEL>
2

>  <REMARK>
 VINA RESULT:     -10.2      3.714      6.469
  Name = 
  2 active torsions:
  status: ('A' for Active; 'I' for Inactive)
    1  A    between atoms: N_8  and  C_16
    2  A    between atoms: C_18  and  C_25
                            x       y       z     vdW  Elec       q    Type
                         _______ _______ _______ _____ _____    ______ ____

>  <TORSDO>
F 2

$$$$
=
 OpenBabel10222418283D

 28 32  0  0  1  0  0  0  0  0999 V2000
  189.9320  177.5390  144.3600 C   0  0  2  0  0  3  0  0  0  0  0  0
  187.2760  177.8410  141.5390 C   0  0  0  0  0  1  0  0  0  0  0  0
  187.5970  177.6150  145.2970 C   0  0  0  0  0  0  0  0  0  0  0  0
  188.0730  177.3130  148.7630 O   0  0  0  0  0  0  0  0  0  0  0  0
  187.9230  177.7440  142.8870 C   0  0  0  0  0  0  0  0  0  0  0  0
  188.1170  177.3740  147.5070 C   0  0  0  0  0  0  0  0  0  0  0  0
  189.2610  177.4990  143.0000 C   0  0  0  0  0  0  0  0  0  0  0  0
  187.0550  177.8860  144.1010 C   0  0  0  0  0  0  0  0  0  0  0  0
  189.3120  177.1590  146.7670 N   0  0  0  0  0  2  0  0  0  0  0  0
  188.9690  177.2810  145.4210 N   0  0  0  0  0  0  0  0  0  0  0  0
  186.9390  177.6910  146.6410 C   0  0  0  0  0  2  0  0  0  0  0  0
  190.5400  178.8440  144.5640 N   0  0  0  0  0  1  0  0  0  0  0  0
  193.0770  177.2570  139.8800 C   0  0  0  0  0  3  0  0  0  0  0  0
  192.1300  176.1760  136.4920 F   0  0  0  0  0  0  0  0  0  0  0  0
  190.7650  176.4590  138.4320 C   0  0  0  0  0  3  0  0  0  0  0  0
  190.0960  177.2550  141.8480 N   0  0  0  0  0  0  0  0  0  0  0  0
  191.4330  177.4810  141.7620 C   0  0  0  0  0  3  0  0  0  0  0  0
  193.1690  176.9050  138.5210 C   0  0  0  0  0  3  0  0  0  0  0  0
  192.0220  176.5090  137.8000 C   0  0  0  0  0  0  0  0  0  0  0  0
  191.8200  177.1920  140.4750 C   0  0  0  0  0  0  0  0  0  0  0  0
  190.7070  176.8080  139.7780 C   0  0  0  0  0  0  0  0  0  0  0  0
  189.6330  176.8590  140.6350 C   0  0  0  0  0  3  0  0  0  0  0  0
  183.5830  179.1160  144.9980 C   0  0  0  0  0  3  0  0  0  0  0  0
  184.9220  178.7340  145.1130 C   0  0  0  0  0  3  0  0  0  0  0  0
  182.9440  179.0600  143.7560 C   0  0  0  0  0  3  0  0  0  0  0  0
  183.6450  178.6220  142.6300 C   0  0  0  0  0  3  0  0  0  0  0  0
  185.6350  178.2930  143.9860 C   0  0  0  0  0  0  0  0  0  0  0  0
  184.9850  178.2400  142.7440 C   0  0  0  0  0  3  0  0  0  0  0  0
  1 12  1  1  0  0  0
  1 10  1  0  0  0  0
  2  5  1  0  0  0  0
  3 10  1  0  0  0  0
  3 11  1  0  0  0  0
  5  7  2  0  0  0  0
  5  8  1  0  0  0  0
  6  4  2  0  0  0  0
  7  1  1  0  0  0  0
  8  3  2  0  0  0  0
  9  6  1  0  0  0  0
 10  9  1  0  0  0  0
 11  6  1  0  0  0  0
 13 20  1  0  0  0  0
 14 19  1  0  0  0  0
 15 21  1  0  0  0  0
 16  7  1  0  0  0  0
 17 16  1  0  0  0  0
 18 13  2  0  0  0  0
 19 15  2  0  0  0  0
 19 18  1  0  0  0  0
 20 17  2  0  0  0  0
 21 20  1  0  0  0  0
 21 22  2  0  0  0  0
 22 16  1  0  0  0  0
 23 24  1  0  0  0  0
 25 23  2  0  0  0  0
 26 28  2  0  0  0  0
 26 25  1  0  0  0  0
 27  8  1  0  0  0  0
 27 24  2  0  0  0  0
 28 27  1  0  0  0  0
M  END
>  <MODEL>
3

>  <REMARK>
 VINA RESULT:     -10.1      1.916      2.593
  Name = 
  2 active torsions:
  status: ('A' for Active; 'I' for Inactive)
    1  A    between atoms: N_8  and  C_16
    2  A    between atoms: C_18  and  C_25
                            x       y       z     vdW  Elec       q    Type
                         _______ _______ _______ _____ _____    ______ ____

>  <TORSDO>
F 2

$$$$
=
 OpenBabel10222418283D

 28 32  0  0  1  0  0  0  0  0999 V2000
  190.5610  176.9820  142.2380 C   0  0  2  0  0  3  0  0  0  0  0  0
  187.0980  178.1790  140.9420 C   0  0  0  0  0  1  0  0  0  0  0  0
  190.6060  177.4210  139.7590 C   0  0  0  0  0  0  0  0  0  0  0  0
  193.9310  176.7530  138.8480 O   0  0  0  0  0  0  0  0  0  0  0  0
  188.5350  177.7570  140.9960 C   0  0  0  0  0  0  0  0  0  0  0  0
  192.8120  176.9730  139.3810 C   0  0  0  0  0  0  0  0  0  0  0  0
  189.1510  177.5420  142.1940 C   0  0  0  0  0  0  0  0  0  0  0  0
  189.2810  177.6150  139.7030 C   0  0  0  0  0  0  0  0  0  0  0  0
  192.6170  176.9710  140.7900 N   0  0  0  0  0  2  0  0  0  0  0  0
  191.2730  177.2740  141.0020 N   0  0  0  0  0  0  0  0  0  0  0  0
  191.5570  177.2460  138.6150 C   0  0  0  0  0  2  0  0  0  0  0  0
  190.5080  175.5430  142.4380 N   0  0  0  0  0  1  0  0  0  0  0  0
  188.1540  178.1230  146.9920 C   0  0  0  0  0  3  0  0  0  0  0  0
  184.5560  178.3700  147.7190 F   0  0  0  0  0  0  0  0  0  0  0  0
  185.6650  178.1130  145.6190 C   0  0  0  0  0  3  0  0  0  0  0  0
  188.4840  177.7730  143.4530 N   0  0  0  0  0  0  0  0  0  0  0  0
  189.0740  177.8490  144.6740 C   0  0  0  0  0  3  0  0  0  0  0  0
  186.9460  178.2520  147.7000 C   0  0  0  0  0  3  0  0  0  0  0  0
  185.7090  178.2470  147.0200 C   0  0  0  0  0  0  0  0  0  0  0  0
  188.0760  177.9970  145.6080 C   0  0  0  0  0  0  0  0  0  0  0  0
  186.8790  177.9920  144.9470 C   0  0  0  0  0  0  0  0  0  0  0  0
  187.1360  177.8410  143.6050 C   0  0  0  0  0  3  0  0  0  0  0  0
  187.8770  179.0020  136.4660 C   0  0  0  0  0  3  0  0  0  0  0  0
  188.5370  178.9210  137.6940 C   0  0  0  0  0  3  0  0  0  0  0  0
  187.2540  177.8710  135.9310 C   0  0  0  0  0  3  0  0  0  0  0  0
  187.2920  176.6590  136.6260 C   0  0  0  0  0  3  0  0  0  0  0  0
  188.5820  177.7070  138.3990 C   0  0  0  0  0  0  0  0  0  0  0  0
  187.9530  176.5780  137.8550 C   0  0  0  0  0  3  0  0  0  0  0  0
  1 12  1  6  0  0  0
  2  5  1  0  0  0  0
  3 10  1  0  0  0  0
  4  6  2  0  0  0  0
  5  7  2  0  0  0  0
  6  9  1  0  0  0  0
  7  1  1  0  0  0  0
  7 16  1  0  0  0  0
  8  3  2  0  0  0  0
  8  5  1  0  0  0  0
  9 10  1  0  0  0  0
 10  1  1  0  0  0  0
 11  6  1  0  0  0  0
 11  3  1  0  0  0  0
 13 18  2  0  0  0  0
 15 19  2  0  0  0  0
 16 22  1  0  0  0  0
 16 17  1  0  0  0  0
 17 20  2  0  0  0  0
 19 18  1  0  0  0  0
 19 14  1  0  0  0  0
 20 13  1  0  0  0  0
 21 20  1  0  0  0  0
 21 15  1  0  0  0  0
 22 21  2  0  0  0  0
 23 24  1  0  0  0  0
 24 27  2  0  0  0  0
 25 23  2  0  0  0  0
 25 26  1  0  0  0  0
 26 28  2  0  0  0  0
 27  8  1  0  0  0  0
 28 27  1  0  0  0  0
M  END
>  <MODEL>
4

>  <REMARK>
 VINA RESULT:     -10.0      3.421      7.562
  Name = 
  2 active torsions:
  status: ('A' for Active; 'I' for Inactive)
    1  A    between atoms: N_8  and  C_16
    2  A    between atoms: C_18  and  C_25
                            x       y       z     vdW  Elec       q    Type
                         _______ _______ _______ _____ _____    ______ ____

>  <TORSDO>
F 2

$$$$
=
 OpenBabel10222418283D

 28 32  0  0  1  0  0  0  0  0999 V2000
  187.6250  178.3330  140.8720 C   0  0  2  0  0  3  0  0  0  0  0  0
  190.8000  176.3600  141.9350 C   0  0  0  0  0  1  0  0  0  0  0  0
  188.7960  177.3310  138.8820 C   0  0  0  0  0  0  0  0  0  0  0  0
  186.7720  178.2530  136.1650 O   0  0  0  0  0  0  0  0  0  0  0  0
  189.7210  176.9920  141.1090 C   0  0  0  0  0  0  0  0  0  0  0  0
  187.3340  178.0010  137.2620 C   0  0  0  0  0  0  0  0  0  0  0  0
  188.6410  177.5750  141.7060 C   0  0  0  0  0  0  0  0  0  0  0  0
  189.8450  176.9340  139.6160 C   0  0  0  0  0  0  0  0  0  0  0  0
  186.7420  178.3080  138.5180 N   0  0  0  0  0  2  0  0  0  0  0  0
  187.6340  177.8660  139.4940 N   0  0  0  0  0  0  0  0  0  0  0  0
  188.6840  177.3700  137.3880 C   0  0  0  0  0  2  0  0  0  0  0  0
  187.9300  179.7540  140.9050 N   0  0  0  0  0  1  0  0  0  0  0  0
  186.6450  177.5030  146.2180 C   0  0  0  0  0  3  0  0  0  0  0  0
  189.1070  177.9560  148.9150 F   0  0  0  0  0  0  0  0  0  0  0  0
  189.4430  177.8690  146.5520 C   0  0  0  0  0  3  0  0  0  0  0  0
  188.4490  177.5520  143.1370 N   0  0  0  0  0  0  0  0  0  0  0  0
  187.2610  177.4520  143.7870 C   0  0  0  0  0  3  0  0  0  0  0  0
  187.2000  177.6410  147.5030 C   0  0  0  0  0  3  0  0  0  0  0  0
  188.5900  177.8230  147.6710 C   0  0  0  0  0  0  0  0  0  0  0  0
  187.5160  177.5480  145.1340 C   0  0  0  0  0  0  0  0  0  0  0  0
  188.8630  177.7250  145.2950 C   0  0  0  0  0  0  0  0  0  0  0  0
  189.4400  177.7370  144.0460 C   0  0  0  0  0  3  0  0  0  0  0  0
  193.4530  176.6500  138.4870 C   0  0  0  0  0  3  0  0  0  0  0  0
  192.2920  177.1280  139.1010 C   0  0  0  0  0  3  0  0  0  0  0  0
  193.4120  175.4740  137.7330 C   0  0  0  0  0  3  0  0  0  0  0  0
  192.2090  174.7760  137.5940 C   0  0  0  0  0  3  0  0  0  0  0  0
  191.0800  176.4320  138.9670 C   0  0  0  0  0  0  0  0  0  0  0  0
  191.0480  175.2530  138.2090 C   0  0  0  0  0  3  0  0  0  0  0  0
  1 12  1  6  0  0  0
  1  7  1  0  0  0  0
  3 10  1  0  0  0  0
  3  8  2  0  0  0  0
  4  6  2  0  0  0  0
  5  7  2  0  0  0  0
  5  2  1  0  0  0  0
  6 11  1  0  0  0  0
  6  9  1  0  0  0  0
  7 16  1  0  0  0  0
  8  5  1  0  0  0  0
  9 10  1  0  0  0  0
 10  1  1  0  0  0  0
 11  3  1  0  0  0  0
 13 18  2  0  0  0  0
 15 19  2  0  0  0  0
 16 17  1  0  0  0  0
 16 22  1  0  0  0  0
 17 20  2  0  0  0  0
 18 19  1  0  0  0  0
 19 14  1  0  0  0  0
 20 21  1  0  0  0  0
 20 13  1  0  0  0  0
 21 15  1  0  0  0  0
 22 21  2  0  0  0  0
 23 24  1  0  0  0  0
 25 23  2  0  0  0  0
 26 25  1  0  0  0  0
 26 28  2  0  0  0  0
 27 24  2  0  0  0  0
 27  8  1  0  0  0  0
 28 27  1  0  0  0  0
M  END
>  <MODEL>
5

>  <REMARK>
 VINA RESULT:      -9.9      3.947      8.469
  Name = 
  2 active torsions:
  status: ('A' for Active; 'I' for Inactive)
    1  A    between atoms: N_8  and  C_16
    2  A    between atoms: C_18  and  C_25
                            x       y       z     vdW  Elec       q    Type
                         _______ _______ _______ _____ _____    ______ ____

>  <TORSDO>
F 2

$$$$
=
 OpenBabel10222418283D

 28 32  0  0  1  0  0  0  0  0999 V2000
  187.9130  177.6780  141.8050 C   0  0  2  0  0  3  0  0  0  0  0  0
  185.5030  178.5790  144.7180 C   0  0  0  0  0  1  0  0  0  0  0  0
  188.8820  177.0290  144.0360 C   0  0  0  0  0  0  0  0  0  0  0  0
  191.9560  175.5430  143.2170 O   0  0  0  0  0  0  0  0  0  0  0  0
  186.6920  178.0920  143.9470 C   0  0  0  0  0  0  0  0  0  0  0  0
  190.8160  176.0720  143.2940 C   0  0  0  0  0  0  0  0  0  0  0  0
  186.6610  178.0390  142.5840 C   0  0  0  0  0  0  0  0  0  0  0  0
  187.8960  177.6350  144.7140 C   0  0  0  0  0  0  0  0  0  0  0  0
  190.0130  176.3390  142.1520 N   0  0  0  0  0  2  0  0  0  0  0  0
  188.8260  176.8960  142.6260 N   0  0  0  0  0  0  0  0  0  0  0  0
  190.1740  176.4960  144.5760 C   0  0  0  0  0  2  0  0  0  0  0  0
  188.5780  178.8930  141.3630 N   0  0  0  0  0  1  0  0  0  0  0  0
  182.0200  178.3440  140.9350 C   0  0  0  0  0  3  0  0  0  0  0  0
  181.7200  180.1220  137.7280 F   0  0  0  0  0  0  0  0  0  0  0  0
  183.6660  179.6750  139.0390 C   0  0  0  0  0  3  0  0  0  0  0  0
  185.4770  178.3750  141.8290 N   0  0  0  0  0  0  0  0  0  0  0  0
  184.2050  178.0000  142.1190 C   0  0  0  0  0  3  0  0  0  0  0  0
  181.4600  178.9170  139.7790 C   0  0  0  0  0  3  0  0  0  0  0  0
  182.2760  179.5780  138.8360 C   0  0  0  0  0  0  0  0  0  0  0  0
  183.3960  178.4610  141.1080 C   0  0  0  0  0  0  0  0  0  0  0  0
  184.1880  179.1020  140.1950 C   0  0  0  0  0  0  0  0  0  0  0  0
  185.4870  179.0370  140.6430 C   0  0  0  0  0  3  0  0  0  0  0  0
  186.9320  178.2570  148.3270 C   0  0  0  0  0  3  0  0  0  0  0  0
  186.8380  178.0780  146.9450 C   0  0  0  0  0  3  0  0  0  0  0  0
  188.1770  178.1840  148.9590 C   0  0  0  0  0  3  0  0  0  0  0  0
  189.3280  177.9340  148.2060 C   0  0  0  0  0  3  0  0  0  0  0  0
  187.9890  177.8250  146.1810 C   0  0  0  0  0  0  0  0  0  0  0  0
  189.2340  177.7540  146.8230 C   0  0  0  0  0  3  0  0  0  0  0  0
  1 12  1  1  0  0  0
  1  7  1  0  0  0  0
  1 10  1  0  0  0  0
  3 11  1  0  0  0  0
  3  8  2  0  0  0  0
  4  6  2  0  0  0  0
  5  8  1  0  0  0  0
  5  2  1  0  0  0  0
  6 11  1  0  0  0  0
  7  5  2  0  0  0  0
  8 27  1  0  0  0  0
  9 10  1  0  0  0  0
  9  6  1  0  0  0  0
 10  3  1  0  0  0  0
 13 20  1  0  0  0  0
 14 19  1  0  0  0  0
 15 21  1  0  0  0  0
 16 17  1  0  0  0  0
 16  7  1  0  0  0  0
 18 13  2  0  0  0  0
 19 15  2  0  0  0  0
 19 18  1  0  0  0  0
 20 17  2  0  0  0  0
 21 22  2  0  0  0  0
 21 20  1  0  0  0  0
 22 16  1  0  0  0  0
 23 25  1  0  0  0  0
 24 23  2  0  0  0  0
 26 25  2  0  0  0  0
 27 28  2  0  0  0  0
 27 24  1  0  0  0  0
 28 26  1  0  0  0  0
M  END
>  <MODEL>
6

>  <REMARK>
 VINA RESULT:      -9.6      3.427      4.919
  Name = 
  2 active torsions:
  status: ('A' for Active; 'I' for Inactive)
    1  A    between atoms: N_8  and  C_16
    2  A    between atoms: C_18  and  C_25
                            x       y       z     vdW  Elec       q    Type
                         _______ _______ _______ _____ _____    ______ ____

>  <TORSDO>
F 2

$$$$
=
 OpenBabel10222418283D

 28 32  0  0  1  0  0  0  0  0999 V2000
  182.7520  180.0900  139.4010 C   0  0  2  0  0  3  0  0  0  0  0  0
  182.6010  176.2340  139.8680 C   0  0  0  0  0  1  0  0  0  0  0  0
  181.4200  178.9910  137.5690 C   0  0  0  0  0  0  0  0  0  0  0  0
  180.3390  181.6810  135.5880 O   0  0  0  0  0  0  0  0  0  0  0  0
  182.4160  177.6140  139.3140 C   0  0  0  0  0  0  0  0  0  0  0  0
  180.7930  180.8720  136.4390 C   0  0  0  0  0  0  0  0  0  0  0  0
  182.8140  178.7080  140.0260 C   0  0  0  0  0  0  0  0  0  0  0  0
  181.7520  177.7580  137.9780 C   0  0  0  0  0  0  0  0  0  0  0  0
  181.4090  181.2930  137.6490 N   0  0  0  0  0  2  0  0  0  0  0  0
  181.7580  180.1330  138.3380 N   0  0  0  0  0  0  0  0  0  0  0  0
  180.7600  179.3850  136.2830 C   0  0  0  0  0  2  0  0  0  0  0  0
  184.0550  180.4400  138.8610 N   0  0  0  0  0  1  0  0  0  0  0  0
  183.4540  178.8980  144.9150 C   0  0  0  0  0  3  0  0  0  0  0  0
  186.8790  178.0740  145.9760 F   0  0  0  0  0  0  0  0  0  0  0  0
  185.9430  178.1300  143.7790 C   0  0  0  0  0  3  0  0  0  0  0  0
  183.3610  178.6000  141.3580 N   0  0  0  0  0  0  0  0  0  0  0  0
  182.7160  178.8890  142.5170 C   0  0  0  0  0  3  0  0  0  0  0  0
  184.5740  178.6690  145.7350 C   0  0  0  0  0  3  0  0  0  0  0  0
  185.8110  178.2880  145.1720 C   0  0  0  0  0  0  0  0  0  0  0  0
  183.6170  178.7290  143.5430 C   0  0  0  0  0  0  0  0  0  0  0  0
  184.8150  178.3590  142.9970 C   0  0  0  0  0  0  0  0  0  0  0  0
  184.6540  178.2910  141.6330 C   0  0  0  0  0  3  0  0  0  0  0  0
  179.9280  174.8060  136.4490 C   0  0  0  0  0  3  0  0  0  0  0  0
  180.2080  175.9230  137.2410 C   0  0  0  0  0  3  0  0  0  0  0  0
  180.8860  174.3300  135.5490 C   0  0  0  0  0  3  0  0  0  0  0  0
  182.1240  174.9700  135.4430 C   0  0  0  0  0  3  0  0  0  0  0  0
  181.4490  176.5740  137.1390 C   0  0  0  0  0  0  0  0  0  0  0  0
  182.4040  176.0880  136.2340 C   0  0  0  0  0  3  0  0  0  0  0  0
  1 12  1  6  0  0  0
  1  7  1  0  0  0  0
  3  8  2  0  0  0  0
  3 10  1  0  0  0  0
  4  6  2  0  0  0  0
  5  2  1  0  0  0  0
  5  7  2  0  0  0  0
  6  9  1  0  0  0  0
  7 16  1  0  0  0  0
  8  5  1  0  0  0  0
  9 10  1  0  0  0  0
 10  1  1  0  0  0  0
 11  6  1  0  0  0  0
 11  3  1  0  0  0  0
 13 18  2  0  0  0  0
 15 19  2  0  0  0  0
 16 22  1  0  0  0  0
 16 17  1  0  0  0  0
 17 20  2  0  0  0  0
 19 18  1  0  0  0  0
 19 14  1  0  0  0  0
 20 13  1  0  0  0  0
 21 20  1  0  0  0  0
 21 15  1  0  0  0  0
 22 21  2  0  0  0  0
 23 24  1  0  0  0  0
 25 23  2  0  0  0  0
 26 25  1  0  0  0  0
 26 28  2  0  0  0  0
 27 24  2  0  0  0  0
 27  8  1  0  0  0  0
 28 27  1  0  0  0  0
M  END
>  <MODEL>
7

>  <REMARK>
 VINA RESULT:      -9.6      7.444     10.607
  Name = 
  2 active torsions:
  status: ('A' for Active; 'I' for Inactive)
    1  A    between atoms: N_8  and  C_16
    2  A    between atoms: C_18  and  C_25
                            x       y       z     vdW  Elec       q    Type
                         _______ _______ _______ _____ _____    ______ ____

>  <TORSDO>
F 2

$$$$
=
 OpenBabel10222418283D

 28 32  0  0  1  0  0  0  0  0999 V2000
  189.8820  177.3480  142.0570 C   0  0  2  0  0  3  0  0  0  0  0  0
  186.8700  177.7700  139.6380 C   0  0  0  0  0  1  0  0  0  0  0  0
  190.6300  177.3860  139.6540 C   0  0  0  0  0  0  0  0  0  0  0  0
  194.1240  177.1030  139.8560 O   0  0  0  0  0  0  0  0  0  0  0  0
  188.2590  177.5900  140.1720 C   0  0  0  0  0  0  0  0  0  0  0  0
  192.8800  177.2300  140.0020 C   0  0  0  0  0  0  0  0  0  0  0  0
  188.5030  177.6670  141.5130 C   0  0  0  0  0  0  0  0  0  0  0  0
  189.3710  177.3600  139.1940 C   0  0  0  0  0  0  0  0  0  0  0  0
  192.2690  177.4230  141.2720 N   0  0  0  0  0  2  0  0  0  0  0  0
  190.9010  177.5450  141.0360 N   0  0  0  0  0  0  0  0  0  0  0  0
  191.8950  177.1790  138.8780 C   0  0  0  0  0  2  0  0  0  0  0  0
  189.9160  175.9690  142.5170 N   0  0  0  0  0  1  0  0  0  0  0  0
  185.8100  178.0870  145.6270 C   0  0  0  0  0  3  0  0  0  0  0  0
  182.4580  179.4900  145.0450 F   0  0  0  0  0  0  0  0  0  0  0  0
  184.2190  179.0710  143.4870 C   0  0  0  0  0  3  0  0  0  0  0  0
  187.4660  177.9910  142.4640 N   0  0  0  0  0  0  0  0  0  0  0  0
  187.4920  177.7390  143.7990 C   0  0  0  0  0  3  0  0  0  0  0  0
  184.5050  178.5550  145.8620 C   0  0  0  0  0  3  0  0  0  0  0  0
  183.7130  179.0450  144.8000 C   0  0  0  0  0  0  0  0  0  0  0  0
  186.2820  178.1310  144.3180 C   0  0  0  0  0  0  0  0  0  0  0  0
  185.5160  178.6050  143.2880 C   0  0  0  0  0  0  0  0  0  0  0  0
  186.2540  178.5060  142.1320 C   0  0  0  0  0  3  0  0  0  0  0  0
  188.4980  175.6450  135.9270 C   0  0  0  0  0  3  0  0  0  0  0  0
  188.7590  175.8530  137.2840 C   0  0  0  0  0  3  0  0  0  0  0  0
  188.5700  176.7140  135.0290 C   0  0  0  0  0  3  0  0  0  0  0  0
  188.9030  177.9910  135.4890 C   0  0  0  0  0  3  0  0  0  0  0  0
  189.0930  177.1330  137.7550 C   0  0  0  0  0  0  0  0  0  0  0  0
  189.1640  178.1990  136.8470 C   0  0  0  0  0  3  0  0  0  0  0  0
  1 12  1  6  0  0  0
  2  5  1  0  0  0  0
  3 10  1  0  0  0  0
  4  6  2  0  0  0  0
  5  7  2  0  0  0  0
  6  9  1  0  0  0  0
  7  1  1  0  0  0  0
  7 16  1  0  0  0  0
  8  3  2  0  0  0  0
  8  5  1  0  0  0  0
 10  9  1  0  0  0  0
 10  1  1  0  0  0  0
 11  3  1  0  0  0  0
 11  6  1  0  0  0  0
 13 18  2  0  0  0  0
 15 19  2  0  0  0  0
 16 17  1  0  0  0  0
 17 20  2  0  0  0  0
 19 14  1  0  0  0  0
 19 18  1  0  0  0  0
 20 13  1  0  0  0  0
 21 15  1  0  0  0  0
 21 20  1  0  0  0  0
 22 16  1  0  0  0  0
 22 21  2  0  0  0  0
 23 24  1  0  0  0  0
 24 27  2  0  0  0  0
 25 26  1  0  0  0  0
 25 23  2  0  0  0  0
 26 28  2  0  0  0  0
 27  8  1  0  0  0  0
 28 27  1  0  0  0  0
M  END
>  <MODEL>
8

>  <REMARK>
 VINA RESULT:      -9.5      3.359      7.597
  Name = 
  2 active torsions:
  status: ('A' for Active; 'I' for Inactive)
    1  A    between atoms: N_8  and  C_16
    2  A    between atoms: C_18  and  C_25
                            x       y       z     vdW  Elec       q    Type
                         _______ _______ _______ _____ _____    ______ ____

>  <TORSDO>
F 2

$$$$
=
 OpenBabel10222418283D

 28 32  0  0  1  0  0  0  0  0999 V2000
  185.5940  178.1680  145.9900 C   0  0  2  0  0  3  0  0  0  0  0  0
  186.8390  177.9050  142.3180 C   0  0  0  0  0  1  0  0  0  0  0  0
  188.1060  178.0360  145.8760 C   0  0  0  0  0  0  0  0  0  0  0  0
  189.1120  178.2530  149.2330 O   0  0  0  0  0  0  0  0  0  0  0  0
  186.8100  177.9750  143.8150 C   0  0  0  0  0  0  0  0  0  0  0  0
  188.5510  178.2260  148.1070 C   0  0  0  0  0  0  0  0  0  0  0  0
  185.6440  178.2350  144.4750 C   0  0  0  0  0  0  0  0  0  0  0  0
  188.0980  177.7890  144.5590 C   0  0  0  0  0  0  0  0  0  0  0  0
  187.1630  178.4770  147.9310 N   0  0  0  0  0  2  0  0  0  0  0  0
  186.9150  178.3850  146.5630 N   0  0  0  0  0  0  0  0  0  0  0  0
  189.2590  177.9160  146.8260 C   0  0  0  0  0  2  0  0  0  0  0  0
  185.0940  176.8670  146.4040 N   0  0  0  0  0  1  0  0  0  0  0  0
  180.9680  179.3780  143.3890 C   0  0  0  0  0  3  0  0  0  0  0  0
  180.1440  178.9420  139.8300 F   0  0  0  0  0  0  0  0  0  0  0  0
  182.2180  178.5890  140.9620 C   0  0  0  0  0  3  0  0  0  0  0  0
  184.4130  178.5210  143.7770 N   0  0  0  0  0  0  0  0  0  0  0  0
  183.2460  178.9290  144.3400 C   0  0  0  0  0  3  0  0  0  0  0  0
  180.2410  179.3540  142.1850 C   0  0  0  0  0  3  0  0  0  0  0  0
  180.8600  178.9620  140.9790 C   0  0  0  0  0  0  0  0  0  0  0  0
  182.3090  179.0080  143.3370 C   0  0  0  0  0  0  0  0  0  0  0  0
  182.9100  178.6280  142.1690 C   0  0  0  0  0  0  0  0  0  0  0  0
  184.2190  178.3150  142.4500 C   0  0  0  0  0  3  0  0  0  0  0  0
  190.6990  175.6280  142.8430 C   0  0  0  0  0  3  0  0  0  0  0  0
  189.5310  176.0210  143.5030 C   0  0  0  0  0  3  0  0  0  0  0  0
  191.6790  176.5740  142.5340 C   0  0  0  0  0  3  0  0  0  0  0  0
  191.4920  177.9140  142.8850 C   0  0  0  0  0  3  0  0  0  0  0  0
  189.3340  177.3650  143.8580 C   0  0  0  0  0  0  0  0  0  0  0  0
  190.3240  178.3080  143.5440 C   0  0  0  0  0  3  0  0  0  0  0  0
  1 12  1  6  0  0  0
  1 10  1  0  0  0  0
  2  5  1  0  0  0  0
  3 10  1  0  0  0  0
  3 11  1  0  0  0  0
  5  7  2  0  0  0  0
  5  8  1  0  0  0  0
  6  4  2  0  0  0  0
  7  1  1  0  0  0  0
  8  3  2  0  0  0  0
  9  6  1  0  0  0  0
 10  9  1  0  0  0  0
 11  6  1  0  0  0  0
 14 19  1  0  0  0  0
 15 19  2  0  0  0  0
 15 21  1  0  0  0  0
 16 17  1  0  0  0  0
 16  7  1  0  0  0  0
 18 13  2  0  0  0  0
 19 18  1  0  0  0  0
 20 13  1  0  0  0  0
 20 17  2  0  0  0  0
 21 22  2  0  0  0  0
 21 20  1  0  0  0  0
 22 16  1  0  0  0  0
 23 24  1  0  0  0  0
 24 27  2  0  0  0  0
 25 23  2  0  0  0  0
 25 26  1  0  0  0  0
 26 28  2  0  0  0  0
 27  8  1  0  0  0  0
 28 27  1  0  0  0  0
M  END
>  <MODEL>
9

>  <REMARK>
 VINA RESULT:      -9.4      3.867      6.607
  Name = 
  2 active torsions:
  status: ('A' for Active; 'I' for Inactive)
    1  A    between atoms: N_8  and  C_16
    2  A    between atoms: C_18  and  C_25
                            x       y       z     vdW  Elec       q    Type
                         _______ _______ _______ _____ _____    ______ ____

>  <TORSDO>
F 2

$$$$
