=
 OpenBabel10222416103D

 26 29  0  0  1  0  0  0  0  0999 V2000
  182.6330  178.4550  138.6380 C   0  0  1  0  0  3  0  0  0  0  0  0
  186.8190  178.1560  138.8930 S   0  0  0  0  0  0  0  0  0  0  0  0
  181.7780  177.5590  139.1670 C   0  0  1  0  0  3  0  0  0  0  0  0
  185.3410  176.6520  136.9280 C   0  0  2  0  0  3  0  0  0  0  0  0
  183.2020  179.6310  139.4360 C   0  0  1  0  0  3  0  0  0  0  0  0
  182.0650  176.1260  138.9490 C   0  0  0  0  0  0  0  0  0  0  0  0
  186.2040  177.9130  137.1690 C   0  0  0  0  0  2  0  0  0  0  0  0
  183.5070  178.0280  137.5900 N   0  0  0  0  0  2  0  0  0  0  0  0
  180.0870  179.2600  139.9910 C   0  0  0  0  0  1  0  0  0  0  0  0
  185.2440  176.4020  135.4360 C   0  0  0  0  0  1  0  0  0  0  0  0
  185.2520  178.5780  141.2020 C   0  0  0  0  0  2  0  0  0  0  0  0
  180.6370  177.9130  139.9750 N   0  0  0  0  0  0  0  0  0  0  0  0
  182.9500  179.6110  140.9640 C   0  0  0  0  0  2  0  0  0  0  0  0
  181.2800  175.2170  139.5270 C   0  0  0  0  0  3  0  0  0  0  0  0
  179.8300  176.8590  140.5150 C   0  0  0  0  0  3  0  0  0  0  0  0
  183.3670  175.7060  138.3190 C   0  0  0  0  0  2  0  0  0  0  0  0
  180.1340  175.6110  140.3020 N   0  0  0  0  0  0  0  0  0  0  0  0
  185.2230  178.5700  139.6870 C   0  0  1  0  0  3  0  0  0  0  0  0
  183.9610  176.8170  137.4920 C   0  0  2  0  0  3  0  0  0  0  0  0
  184.6070  179.7510  139.1990 O   0  0  0  0  0  0  0  0  0  0  0  0
  183.7980  178.5420  141.6690 C   0  0  2  0  0  3  0  0  0  0  0  0
  183.6740  178.8790  144.3130 C   0  0  0  0  0  0  0  0  0  0  0  0
  183.7300  178.7270  143.1190 C   0  0  0  0  0  0  0  0  0  0  0  0
  183.6060  179.0550  145.7020 N   0  0  0  0  0  2  0  0  0  0  0  0
  184.4900  178.4360  146.5200 O   0  0  0  0  0  0  0  0  0  0  0  0
  185.7220  179.0290  146.2360 C   0  0  0  0  0  1  0  0  0  0  0  0
  1  8  1  1  0  0  0
  1  3  1  0  0  0  0
  1  5  1  0  0  0  0
  2 18  1  0  0  0  0
  3  6  1  1  0  0  0
  3 12  1  0  0  0  0
  4 10  1  6  0  0  0
  4  7  1  0  0  0  0
  4 19  1  0  0  0  0
  5 13  1  1  0  0  0
  6 14  2  0  0  0  0
  7  2  1  0  0  0  0
 11 21  1  0  0  0  0
 12  9  1  0  0  0  0
 12 15  1  0  0  0  0
 13 21  1  0  0  0  0
 14 17  1  0  0  0  0
 16  6  1  0  0  0  0
 17 15  2  0  0  0  0
 18 11  1  1  0  0  0
 19  8  1  0  0  0  0
 19 16  1  1  0  0  0
 20  5  1  0  0  0  0
 20 18  1  0  0  0  0
 21 23  1  1  0  0  0
 22 24  1  0  0  0  0
 23 22  3  0  0  0  0
 24 25  1  0  0  0  0
 26 25  1  0  0  0  0
M  END
>  <MODEL>
1

>  <REMARK>
 VINA RESULT:      -5.8      0.000      0.000
  Name = 
  3 active torsions:
  status: ('A' for Active; 'I' for Inactive)
    1  A    between atoms: C_7  and  N_9
    2  A    between atoms: N_9  and  O_14
    3  A    between atoms: C_12  and  C_26
                            x       y       z     vdW  Elec       q    Type
                         _______ _______ _______ _____ _____    ______ ____

>  <TORSDO>
F 3

$$$$
=
 OpenBabel10222416103D

 26 29  0  0  1  0  0  0  0  0999 V2000
  188.5770  176.0090  135.8200 C   0  0  1  0  0  3  0  0  0  0  0  0
  192.2520  176.3100  137.8420 S   0  0  0  0  0  0  0  0  0  0  0  0
  187.5390  175.2650  136.2470 C   0  0  1  0  0  3  0  0  0  0  0  0
  191.6670  174.0460  136.1560 C   0  0  2  0  0  3  0  0  0  0  0  0
  188.8130  177.4490  136.2830 C   0  0  1  0  0  3  0  0  0  0  0  0
  187.8250  173.8920  136.7110 C   0  0  0  0  0  0  0  0  0  0  0  0
  192.4070  175.4030  136.2410 C   0  0  0  0  0  2  0  0  0  0  0  0
  189.7910  175.3440  135.4560 N   0  0  0  0  0  2  0  0  0  0  0  0
  185.7390  176.9380  135.6200 C   0  0  0  0  0  1  0  0  0  0  0  0
  192.1940  173.2750  134.9620 C   0  0  0  0  0  1  0  0  0  0  0  0
  189.8820  177.3360  138.9800 C   0  0  0  0  0  2  0  0  0  0  0  0
  186.1830  175.7460  136.3290 N   0  0  0  0  0  0  0  0  0  0  0  0
  187.9420  177.9410  137.4650 C   0  0  0  0  0  2  0  0  0  0  0  0
  186.8290  173.1610  137.2120 C   0  0  0  0  0  3  0  0  0  0  0  0
  185.1760  174.8650  136.8420 C   0  0  0  0  0  3  0  0  0  0  0  0
  189.2500  173.4300  136.8680 C   0  0  0  0  0  2  0  0  0  0  0  0
  185.4830  173.6670  137.2490 N   0  0  0  0  0  0  0  0  0  0  0  0
  190.4910  176.7890  137.7050 C   0  0  1  0  0  3  0  0  0  0  0  0
  190.1870  174.2380  136.0070 C   0  0  2  0  0  3  0  0  0  0  0  0
  190.1920  177.6410  136.6110 O   0  0  0  0  0  0  0  0  0  0  0  0
  188.3660  177.2980  138.7940 C   0  0  2  0  0  3  0  0  0  0  0  0
  187.1600  178.5320  140.8300 C   0  0  0  0  0  0  0  0  0  0  0  0
  187.7050  177.9750  139.9100 C   0  0  0  0  0  0  0  0  0  0  0  0
  186.5290  179.1800  141.9010 N   0  0  0  0  0  2  0  0  0  0  0  0
  185.2510  179.6150  141.7880 O   0  0  0  0  0  0  0  0  0  0  0  0
  184.4640  178.4980  142.0720 C   0  0  0  0  0  1  0  0  0  0  0  0
  1  8  1  1  0  0  0
  1  3  1  0  0  0  0
  1  5  1  0  0  0  0
  3 12  1  0  0  0  0
  3  6  1  1  0  0  0
  4 10  1  6  0  0  0
  4  7  1  0  0  0  0
  5 20  1  0  0  0  0
  5 13  1  1  0  0  0
  6 16  1  0  0  0  0
  6 14  2  0  0  0  0
  7  2  1  0  0  0  0
  8 19  1  0  0  0  0
  9 12  1  0  0  0  0
 12 15  1  0  0  0  0
 13 21  1  0  0  0  0
 14 17  1  0  0  0  0
 15 17  2  0  0  0  0
 18  2  1  0  0  0  0
 18 11  1  1  0  0  0
 19  4  1  0  0  0  0
 19 16  1  1  0  0  0
 20 18  1  0  0  0  0
 21 11  1  0  0  0  0
 21 23  1  1  0  0  0
 22 24  1  0  0  0  0
 23 22  3  0  0  0  0
 25 24  1  0  0  0  0
 25 26  1  0  0  0  0
M  END
>  <MODEL>
2

>  <REMARK>
 VINA RESULT:      -5.1      4.458      6.320
  Name = 
  3 active torsions:
  status: ('A' for Active; 'I' for Inactive)
    1  A    between atoms: C_7  and  N_9
    2  A    between atoms: N_9  and  O_14
    3  A    between atoms: C_12  and  C_26
                            x       y       z     vdW  Elec       q    Type
                         _______ _______ _______ _____ _____    ______ ____

>  <TORSDO>
F 3

$$$$
=
 OpenBabel10222416103D

 26 29  0  0  1  0  0  0  0  0999 V2000
  189.0020  176.9740  136.1740 C   0  0  1  0  0  3  0  0  0  0  0  0
  191.0370  177.1370  139.8490 S   0  0  0  0  0  0  0  0  0  0  0  0
  187.9770  176.1400  135.9140 C   0  0  1  0  0  3  0  0  0  0  0  0
  191.6510  175.1010  137.9020 C   0  0  2  0  0  3  0  0  0  0  0  0
  188.8130  178.3460  136.8260 C   0  0  1  0  0  3  0  0  0  0  0  0
  188.1200  174.7290  136.3260 C   0  0  0  0  0  0  0  0  0  0  0  0
  192.0940  176.4600  138.4950 C   0  0  0  0  0  2  0  0  0  0  0  0
  190.2890  176.4100  136.4440 N   0  0  0  0  0  2  0  0  0  0  0  0
  186.6030  177.8140  134.5930 C   0  0  0  0  0  1  0  0  0  0  0  0
  192.7970  174.5190  137.1000 C   0  0  0  0  0  1  0  0  0  0  0  0
  188.3300  177.9100  139.6550 C   0  0  0  0  0  2  0  0  0  0  0  0
  186.7340  176.5560  135.3120 N   0  0  0  0  0  0  0  0  0  0  0  0
  187.4100  178.6410  137.4100 C   0  0  0  0  0  2  0  0  0  0  0  0
  187.0900  173.9000  136.1520 C   0  0  0  0  0  3  0  0  0  0  0  0
  185.7040  175.5760  135.1300 C   0  0  0  0  0  3  0  0  0  0  0  0
  189.2950  174.3050  137.1670 C   0  0  0  0  0  2  0  0  0  0  0  0
  185.8770  174.3460  135.5210 N   0  0  0  0  0  0  0  0  0  0  0  0
  189.5660  177.5630  138.8490 C   0  0  1  0  0  3  0  0  0  0  0  0
  190.4530  175.2560  137.0130 C   0  0  2  0  0  3  0  0  0  0  0  0
  189.7930  178.5430  137.8490 O   0  0  0  0  0  0  0  0  0  0  0  0
  187.1450  177.8410  138.6930 C   0  0  2  0  0  3  0  0  0  0  0  0
  184.9370  178.7420  139.8910 C   0  0  0  0  0  0  0  0  0  0  0  0
  185.9350  178.3350  139.3500 C   0  0  0  0  0  0  0  0  0  0  0  0
  183.7770  179.2130  140.5210 N   0  0  0  0  0  2  0  0  0  0  0  0
  183.1900  178.4970  141.5100 O   0  0  0  0  0  0  0  0  0  0  0  0
  184.0410  178.6340  142.6080 C   0  0  0  0  0  1  0  0  0  0  0  0
  1  8  1  1  0  0  0
  1  5  1  0  0  0  0
  3  1  1  0  0  0  0
  3  6  1  1  0  0  0
  4 10  1  6  0  0  0
  4  7  1  0  0  0  0
  5 13  1  1  0  0  0
  5 20  1  0  0  0  0
  6 16  1  0  0  0  0
  7  2  1  0  0  0  0
  8 19  1  0  0  0  0
  9 12  1  0  0  0  0
 12  3  1  0  0  0  0
 13 21  1  0  0  0  0
 14  6  2  0  0  0  0
 15 12  1  0  0  0  0
 15 17  2  0  0  0  0
 17 14  1  0  0  0  0
 18 11  1  1  0  0  0
 18  2  1  0  0  0  0
 19 16  1  1  0  0  0
 19  4  1  0  0  0  0
 20 18  1  0  0  0  0
 21 23  1  1  0  0  0
 21 11  1  0  0  0  0
 22 24  1  0  0  0  0
 23 22  3  0  0  0  0
 24 25  1  0  0  0  0
 25 26  1  0  0  0  0
M  END
>  <MODEL>
3

>  <REMARK>
 VINA RESULT:      -5.0      4.024      6.247
  Name = 
  3 active torsions:
  status: ('A' for Active; 'I' for Inactive)
    1  A    between atoms: C_7  and  N_9
    2  A    between atoms: N_9  and  O_14
    3  A    between atoms: C_12  and  C_26
                            x       y       z     vdW  Elec       q    Type
                         _______ _______ _______ _____ _____    ______ ____

>  <TORSDO>
F 3

$$$$
=
 OpenBabel10222416103D

 26 29  0  0  1  0  0  0  0  0999 V2000
  187.8420  175.3050  135.2280 C   0  0  1  0  0  3  0  0  0  0  0  0
  191.2770  176.5270  137.3220 S   0  0  0  0  0  0  0  0  0  0  0  0
  186.8600  174.5530  135.7610 C   0  0  1  0  0  3  0  0  0  0  0  0
  191.0900  173.8810  136.1930 C   0  0  2  0  0  3  0  0  0  0  0  0
  187.8780  176.8310  135.3470 C   0  0  1  0  0  3  0  0  0  0  0  0
  187.2560  173.3710  136.5540 C   0  0  0  0  0  0  0  0  0  0  0  0
  191.6660  175.3040  135.9950 C   0  0  0  0  0  2  0  0  0  0  0  0
  189.1480  174.7340  135.1010 N   0  0  0  0  0  2  0  0  0  0  0  0
  184.9450  175.7950  134.6540 C   0  0  0  0  0  1  0  0  0  0  0  0
  191.7980  172.9300  135.2490 C   0  0  0  0  0  1  0  0  0  0  0  0
  188.7210  177.4770  138.0490 C   0  0  0  0  0  2  0  0  0  0  0  0
  185.4570  174.8640  135.6490 N   0  0  0  0  0  0  0  0  0  0  0  0
  186.8610  177.4660  136.3270 C   0  0  0  0  0  2  0  0  0  0  0  0
  186.3080  172.6540  137.1570 C   0  0  0  0  0  3  0  0  0  0  0  0
  184.5140  174.0030  136.3010 C   0  0  0  0  0  3  0  0  0  0  0  0
  188.7050  173.1430  136.8950 C   0  0  0  0  0  2  0  0  0  0  0  0
  184.9170  172.9790  136.9980 N   0  0  0  0  0  0  0  0  0  0  0  0
  189.4920  176.7340  136.9770 C   0  0  1  0  0  3  0  0  0  0  0  0
  189.6160  173.8440  135.9200 C   0  0  2  0  0  3  0  0  0  0  0  0
  189.1940  177.2670  135.6960 O   0  0  0  0  0  0  0  0  0  0  0  0
  187.2400  177.2050  137.7920 C   0  0  2  0  0  3  0  0  0  0  0  0
  185.7370  178.7090  139.4050 C   0  0  0  0  0  0  0  0  0  0  0  0
  186.4160  178.0300  138.6770 C   0  0  0  0  0  0  0  0  0  0  0  0
  184.9470  179.4970  140.2540 N   0  0  0  0  0  2  0  0  0  0  0  0
  185.2590  179.6230  141.5660 O   0  0  0  0  0  0  0  0  0  0  0  0
  184.6250  178.5480  142.1920 C   0  0  0  0  0  1  0  0  0  0  0  0
  1  8  1  1  0  0  0
  1  5  1  0  0  0  0
  1  3  1  0  0  0  0
  3  6  1  1  0  0  0
  4 10  1  6  0  0  0
  5 20  1  0  0  0  0
  5 13  1  1  0  0  0
  6 16  1  0  0  0  0
  6 14  2  0  0  0  0
  7  4  1  0  0  0  0
  7  2  1  0  0  0  0
  8 19  1  0  0  0  0
  9 12  1  0  0  0  0
 12  3  1  0  0  0  0
 12 15  1  0  0  0  0
 13 21  1  0  0  0  0
 15 17  2  0  0  0  0
 17 14  1  0  0  0  0
 18  2  1  0  0  0  0
 18 11  1  1  0  0  0
 19  4  1  0  0  0  0
 19 16  1  1  0  0  0
 20 18  1  0  0  0  0
 21 11  1  0  0  0  0
 21 23  1  1  0  0  0
 22 24  1  0  0  0  0
 23 22  3  0  0  0  0
 24 25  1  0  0  0  0
 25 26  1  0  0  0  0
M  END
>  <MODEL>
4

>  <REMARK>
 VINA RESULT:      -4.8      4.147      6.218
  Name = 
  3 active torsions:
  status: ('A' for Active; 'I' for Inactive)
    1  A    between atoms: C_7  and  N_9
    2  A    between atoms: N_9  and  O_14
    3  A    between atoms: C_12  and  C_26
                            x       y       z     vdW  Elec       q    Type
                         _______ _______ _______ _____ _____    ______ ____

>  <TORSDO>
F 3

$$$$
=
 OpenBabel10222416103D

 26 29  0  0  1  0  0  0  0  0999 V2000
  181.1330  177.7950  139.3500 C   0  0  1  0  0  3  0  0  0  0  0  0
  183.0880  178.9580  142.8860 S   0  0  0  0  0  0  0  0  0  0  0  0
  180.9930  178.5850  138.2690 C   0  0  1  0  0  3  0  0  0  0  0  0
  180.3670  179.7530  142.3640 C   0  0  2  0  0  3  0  0  0  0  0  0
  182.3680  176.9210  139.5870 C   0  0  1  0  0  3  0  0  0  0  0  0
  180.5650  179.9810  138.4910 C   0  0  0  0  0  0  0  0  0  0  0  0
  181.2690  178.7540  143.1280 C   0  0  0  0  0  2  0  0  0  0  0  0
  180.4950  178.1860  140.5700 N   0  0  0  0  0  2  0  0  0  0  0  0
  181.4060  176.7630  136.5530 C   0  0  0  0  0  1  0  0  0  0  0  0
  178.9710  179.7010  142.9520 C   0  0  0  0  0  1  0  0  0  0  0  0
  184.5150  178.6650  140.4690 C   0  0  0  0  0  2  0  0  0  0  0  0
  181.2890  178.1670  136.9210 N   0  0  0  0  0  0  0  0  0  0  0  0
  183.5750  177.1710  138.6500 C   0  0  0  0  0  2  0  0  0  0  0  0
  180.4940  180.8080  137.4470 C   0  0  0  0  0  3  0  0  0  0  0  0
  181.1390  179.1210  135.8620 C   0  0  0  0  0  3  0  0  0  0  0  0
  180.4760  180.5280  139.8920 C   0  0  0  0  0  2  0  0  0  0  0  0
  180.7690  180.3440  136.1140 N   0  0  0  0  0  0  0  0  0  0  0  0
  183.1890  178.3890  141.1500 C   0  0  1  0  0  3  0  0  0  0  0  0
  180.3000  179.4240  140.9030 C   0  0  2  0  0  3  0  0  0  0  0  0
  182.8010  177.0400  140.9440 O   0  0  0  0  0  0  0  0  0  0  0  0
  184.2810  178.4970  138.9680 C   0  0  2  0  0  3  0  0  0  0  0  0
  186.6000  178.6340  137.6560 C   0  0  0  0  0  0  0  0  0  0  0  0
  185.5530  178.5720  138.2490 C   0  0  0  0  0  0  0  0  0  0  0  0
  187.8190  178.7090  136.9660 N   0  0  0  0  0  2  0  0  0  0  0  0
  188.8840  179.3390  137.5150 O   0  0  0  0  0  0  0  0  0  0  0  0
  189.1810  178.6100  138.6680 C   0  0  0  0  0  1  0  0  0  0  0  0
  1  5  1  0  0  0  0
  1  8  1  1  0  0  0
  2  7  1  0  0  0  0
  3  6  1  1  0  0  0
  3  1  1  0  0  0  0
  4 10  1  1  0  0  0
  4  7  1  0  0  0  0
  5 13  1  6  0  0  0
  5 20  1  0  0  0  0
  6 16  1  0  0  0  0
  8 19  1  0  0  0  0
  9 12  1  0  0  0  0
 12  3  1  0  0  0  0
 13 21  1  0  0  0  0
 14  6  2  0  0  0  0
 15 17  2  0  0  0  0
 15 12  1  0  0  0  0
 17 14  1  0  0  0  0
 18 11  1  1  0  0  0
 18  2  1  0  0  0  0
 19 16  1  6  0  0  0
 19  4  1  0  0  0  0
 20 18  1  0  0  0  0
 21 23  1  6  0  0  0
 21 11  1  0  0  0  0
 22 23  3  0  0  0  0
 24 25  1  0  0  0  0
 24 22  1  0  0  0  0
 25 26  1  0  0  0  0
M  END
>  <MODEL>
5

>  <REMARK>
 VINA RESULT:      -4.8      2.861      5.872
  Name = 
  3 active torsions:
  status: ('A' for Active; 'I' for Inactive)
    1  A    between atoms: C_7  and  N_9
    2  A    between atoms: N_9  and  O_14
    3  A    between atoms: C_12  and  C_26
                            x       y       z     vdW  Elec       q    Type
                         _______ _______ _______ _____ _____    ______ ____

>  <TORSDO>
F 3

$$$$
=
 OpenBabel10222416103D

 26 29  0  0  1  0  0  0  0  0999 V2000
  189.1620  176.0670  136.1020 C   0  0  1  0  0  3  0  0  0  0  0  0
  192.7800  175.0200  137.9710 S   0  0  0  0  0  0  0  0  0  0  0  0
  187.9630  175.5510  136.4340 C   0  0  1  0  0  3  0  0  0  0  0  0
  191.6240  173.3430  135.9320 C   0  0  2  0  0  3  0  0  0  0  0  0
  189.7680  177.2830  136.8070 C   0  0  1  0  0  3  0  0  0  0  0  0
  187.8760  174.0890  136.6280 C   0  0  0  0  0  0  0  0  0  0  0  0
  192.6950  174.4200  136.2270 C   0  0  0  0  0  2  0  0  0  0  0  0
  190.1580  175.1900  135.5670 N   0  0  0  0  0  2  0  0  0  0  0  0
  186.6690  177.7210  136.2060 C   0  0  0  0  0  1  0  0  0  0  0  0
  191.9320  172.6990  134.5950 C   0  0  0  0  0  1  0  0  0  0  0  0
  190.7610  176.3940  139.3860 C   0  0  0  0  0  2  0  0  0  0  0  0
  186.7810  176.3440  136.6650 N   0  0  0  0  0  0  0  0  0  0  0  0
  189.0540  177.7540  138.0980 C   0  0  0  0  0  2  0  0  0  0  0  0
  186.7200  173.5610  137.0330 C   0  0  0  0  0  3  0  0  0  0  0  0
  185.5760  175.6740  137.0570 C   0  0  0  0  0  3  0  0  0  0  0  0
  189.1280  173.2530  136.6310 C   0  0  0  0  0  2  0  0  0  0  0  0
  185.5560  174.3830  137.2250 N   0  0  0  0  0  0  0  0  0  0  0  0
  191.2080  175.9560  138.0050 C   0  0  1  0  0  3  0  0  0  0  0  0
  190.2470  173.9370  135.8890 C   0  0  2  0  0  3  0  0  0  0  0  0
  191.1470  177.0460  137.0990 O   0  0  0  0  0  0  0  0  0  0  0  0
  189.2890  176.7860  139.2660 C   0  0  2  0  0  3  0  0  0  0  0  0
  188.4460  177.8870  141.5470 C   0  0  0  0  0  0  0  0  0  0  0  0
  188.8270  177.3900  140.5170 C   0  0  0  0  0  0  0  0  0  0  0  0
  188.0050  178.4650  142.7450 N   0  0  0  0  0  2  0  0  0  0  0  0
  187.4250  177.7060  143.7050 O   0  0  0  0  0  0  0  0  0  0  0  0
  188.4700  176.9630  144.2580 C   0  0  0  0  0  1  0  0  0  0  0  0
  1  8  1  1  0  0  0
  1  3  1  0  0  0  0
  1  5  1  0  0  0  0
  2 18  1  0  0  0  0
  3  6  1  1  0  0  0
  3 12  1  0  0  0  0
  4 10  1  6  0  0  0
  4  7  1  0  0  0  0
  5 20  1  0  0  0  0
  5 13  1  1  0  0  0
  6 16  1  0  0  0  0
  6 14  2  0  0  0  0
  7  2  1  0  0  0  0
  8 19  1  0  0  0  0
  9 12  1  0  0  0  0
 12 15  1  0  0  0  0
 13 21  1  0  0  0  0
 14 17  1  0  0  0  0
 15 17  2  0  0  0  0
 18 11  1  1  0  0  0
 19  4  1  0  0  0  0
 19 16  1  1  0  0  0
 20 18  1  0  0  0  0
 21 11  1  0  0  0  0
 21 23  1  1  0  0  0
 22 24  1  0  0  0  0
 23 22  3  0  0  0  0
 24 25  1  0  0  0  0
 25 26  1  0  0  0  0
M  END
>  <MODEL>
6

>  <REMARK>
 VINA RESULT:      -4.8      4.966      6.663
  Name = 
  3 active torsions:
  status: ('A' for Active; 'I' for Inactive)
    1  A    between atoms: C_7  and  N_9
    2  A    between atoms: N_9  and  O_14
    3  A    between atoms: C_12  and  C_26
                            x       y       z     vdW  Elec       q    Type
                         _______ _______ _______ _____ _____    ______ ____

>  <TORSDO>
F 3

$$$$
=
 OpenBabel10222416103D

 26 29  0  0  1  0  0  0  0  0999 V2000
  181.9960  176.9640  138.8960 C   0  0  1  0  0  3  0  0  0  0  0  0
  179.7630  176.7640  135.3380 S   0  0  0  0  0  0  0  0  0  0  0  0
  183.2210  177.5140  138.9890 C   0  0  1  0  0  3  0  0  0  0  0  0
  181.8590  174.8610  135.8850 C   0  0  2  0  0  3  0  0  0  0  0  0
  180.7060  177.7800  139.0300 C   0  0  1  0  0  3  0  0  0  0  0  0
  184.2080  177.1680  137.9460 C   0  0  0  0  0  0  0  0  0  0  0  0
  180.3300  175.1000  135.9030 C   0  0  0  0  0  2  0  0  0  0  0  0
  181.8280  175.8030  138.0770 N   0  0  0  0  0  2  0  0  0  0  0  0
  182.8430  178.6260  141.2370 C   0  0  0  0  0  1  0  0  0  0  0  0
  182.1240  173.3730  136.0020 C   0  0  0  0  0  1  0  0  0  0  0  0
  180.3390  179.2460  136.5520 C   0  0  0  0  0  2  0  0  0  0  0  0
  183.6050  178.4580  140.0080 N   0  0  0  0  0  0  0  0  0  0  0  0
  180.8660  179.3200  139.0300 C   0  0  0  0  0  2  0  0  0  0  0  0
  185.4040  177.7580  137.9690 C   0  0  0  0  0  3  0  0  0  0  0  0
  184.9310  179.0030  139.9690 C   0  0  0  0  0  3  0  0  0  0  0  0
  183.7820  176.3780  136.7360 C   0  0  0  0  0  2  0  0  0  0  0  0
  185.7590  178.6730  139.0200 N   0  0  0  0  0  0  0  0  0  0  0  0
  180.3680  177.7450  136.7590 C   0  0  1  0  0  3  0  0  0  0  0  0
  182.5380  175.5750  137.0150 C   0  0  2  0  0  3  0  0  0  0  0  0
  179.7810  177.4080  138.0060 O   0  0  0  0  0  0  0  0  0  0  0  0
  181.2240  179.8570  137.6360 C   0  0  2  0  0  3  0  0  0  0  0  0
  181.0140  182.5170  137.6020 C   0  0  0  0  0  0  0  0  0  0  0  0
  181.1090  181.3160  137.6180 C   0  0  0  0  0  0  0  0  0  0  0  0
  180.9010  183.9140  137.5820 N   0  0  0  0  0  2  0  0  0  0  0  0
  181.5840  184.6480  136.6710 O   0  0  0  0  0  0  0  0  0  0  0  0
  180.8050  184.6010  135.5130 C   0  0  0  0  0  1  0  0  0  0  0  0
  1  8  1  6  0  0  0
  1  3  1  0  0  0  0
  1  5  1  0  0  0  0
  2  7  1  0  0  0  0
  2 18  1  0  0  0  0
  3  6  1  6  0  0  0
  3 12  1  0  0  0  0
  4  7  1  0  0  0  0
  4 10  1  1  0  0  0
  4 19  1  0  0  0  0
  5 13  1  6  0  0  0
  6 14  2  0  0  0  0
 11 21  1  0  0  0  0
 12  9  1  0  0  0  0
 14 17  1  0  0  0  0
 15 12  1  0  0  0  0
 16  6  1  0  0  0  0
 17 15  2  0  0  0  0
 18 11  1  6  0  0  0
 18 20  1  0  0  0  0
 19 16  1  6  0  0  0
 19  8  1  0  0  0  0
 20  5  1  0  0  0  0
 21 23  1  1  0  0  0
 21 13  1  0  0  0  0
 22 23  3  0  0  0  0
 24 22  1  0  0  0  0
 25 24  1  0  0  0  0
 26 25  1  0  0  0  0
M  END
>  <MODEL>
7

>  <REMARK>
 VINA RESULT:      -4.7      3.607      6.079
  Name = 
  3 active torsions:
  status: ('A' for Active; 'I' for Inactive)
    1  A    between atoms: C_7  and  N_9
    2  A    between atoms: N_9  and  O_14
    3  A    between atoms: C_12  and  C_26
                            x       y       z     vdW  Elec       q    Type
                         _______ _______ _______ _____ _____    ______ ____

>  <TORSDO>
F 3

$$$$
=
 OpenBabel10222416103D

 26 29  0  0  1  0  0  0  0  0999 V2000
  186.0950  175.6410  135.2480 C   0  0  1  0  0  3  0  0  0  0  0  0
  189.0550  178.2600  136.6810 S   0  0  0  0  0  0  0  0  0  0  0  0
  185.5530  174.6440  135.9730 C   0  0  1  0  0  3  0  0  0  0  0  0
  189.7380  175.6230  135.7350 C   0  0  2  0  0  3  0  0  0  0  0  0
  185.5640  177.0770  135.2820 C   0  0  1  0  0  3  0  0  0  0  0  0
  186.4690  173.7850  136.7500 C   0  0  0  0  0  0  0  0  0  0  0  0
  189.6980  177.1270  135.3720 C   0  0  0  0  0  2  0  0  0  0  0  0
  187.4900  175.5790  134.9370 N   0  0  0  0  0  2  0  0  0  0  0  0
  183.1800  174.9670  135.1360 C   0  0  0  0  0  1  0  0  0  0  0  0
  190.6200  174.9010  134.7370 C   0  0  0  0  0  1  0  0  0  0  0  0
  186.4520  178.2780  137.7700 C   0  0  0  0  0  2  0  0  0  0  0  0
  184.1350  174.4040  136.0800 N   0  0  0  0  0  0  0  0  0  0  0  0
  184.5230  177.3980  136.3820 C   0  0  0  0  0  2  0  0  0  0  0  0
  185.9550  172.8400  137.5370 C   0  0  0  0  0  3  0  0  0  0  0  0
  183.6850  173.3340  136.9210 C   0  0  0  0  0  3  0  0  0  0  0  0
  187.9280  174.1430  136.8580 C   0  0  0  0  0  2  0  0  0  0  0  0
  184.5360  172.6130  137.5930 N   0  0  0  0  0  0  0  0  0  0  0  0
  187.2970  177.7580  136.6250 C   0  0  1  0  0  3  0  0  0  0  0  0
  188.3660  175.0180  135.7120 C   0  0  2  0  0  3  0  0  0  0  0  0
  186.6510  178.0000  135.3860 O   0  0  0  0  0  0  0  0  0  0  0  0
  185.1650  177.4560  137.7760 C   0  0  2  0  0  3  0  0  0  0  0  0
  183.4340  178.4700  139.5360 C   0  0  0  0  0  0  0  0  0  0  0  0
  184.2160  178.0130  138.7410 C   0  0  0  0  0  0  0  0  0  0  0  0
  182.5250  179.0020  140.4620 N   0  0  0  0  0  2  0  0  0  0  0  0
  182.4580  178.5100  141.7220 O   0  0  0  0  0  0  0  0  0  0  0  0
  183.7550  178.6280  142.2250 C   0  0  0  0  0  1  0  0  0  0  0  0
  1  8  1  1  0  0  0
  1  5  1  0  0  0  0
  1  3  1  0  0  0  0
  3 12  1  0  0  0  0
  3  6  1  1  0  0  0
  4 10  1  6  0  0  0
  5 20  1  0  0  0  0
  5 13  1  1  0  0  0
  6 16  1  0  0  0  0
  6 14  2  0  0  0  0
  7  4  1  0  0  0  0
  7  2  1  0  0  0  0
  8 19  1  0  0  0  0
  9 12  1  0  0  0  0
 11 21  1  0  0  0  0
 12 15  1  0  0  0  0
 13 21  1  0  0  0  0
 14 17  1  0  0  0  0
 15 17  2  0  0  0  0
 18  2  1  0  0  0  0
 18 11  1  1  0  0  0
 19  4  1  0  0  0  0
 19 16  1  1  0  0  0
 20 18  1  0  0  0  0
 21 23  1  1  0  0  0
 22 24  1  0  0  0  0
 23 22  3  0  0  0  0
 24 25  1  0  0  0  0
 25 26  1  0  0  0  0
M  END
>  <MODEL>
8

>  <REMARK>
 VINA RESULT:      -4.5      3.221      5.176
  Name = 
  3 active torsions:
  status: ('A' for Active; 'I' for Inactive)
    1  A    between atoms: C_7  and  N_9
    2  A    between atoms: N_9  and  O_14
    3  A    between atoms: C_12  and  C_26
                            x       y       z     vdW  Elec       q    Type
                         _______ _______ _______ _____ _____    ______ ____

>  <TORSDO>
F 3

$$$$
=
 OpenBabel10222416103D

 26 29  0  0  1  0  0  0  0  0999 V2000
  182.4340  179.1090  140.1550 C   0  0  1  0  0  3  0  0  0  0  0  0
  179.1120  176.6300  140.8580 S   0  0  0  0  0  0  0  0  0  0  0  0
  183.6600  178.8930  140.6680 C   0  0  1  0  0  3  0  0  0  0  0  0
  179.9300  178.6000  142.7970 C   0  0  2  0  0  3  0  0  0  0  0  0
  181.9570  178.4740  138.8450 C   0  0  1  0  0  3  0  0  0  0  0  0
  183.7510  178.5410  142.1000 C   0  0  0  0  0  0  0  0  0  0  0  0
  178.9310  178.2840  141.6580 C   0  0  0  0  0  2  0  0  0  0  0  0
  181.3560  179.3870  141.0530 N   0  0  0  0  0  2  0  0  0  0  0  0
  184.9420  179.5590  138.5830 C   0  0  0  0  0  1  0  0  0  0  0  0
  179.4190  179.7930  143.5790 C   0  0  0  0  0  1  0  0  0  0  0  0
  181.3370  175.6920  139.3990 C   0  0  0  0  0  2  0  0  0  0  0  0
  184.8760  178.9290  139.8930 N   0  0  0  0  0  0  0  0  0  0  0  0
  182.8600  177.3640  138.2530 C   0  0  0  0  0  2  0  0  0  0  0  0
  184.9450  178.2450  142.6160 C   0  0  0  0  0  3  0  0  0  0  0  0
  186.1140  178.6370  140.5540 C   0  0  0  0  0  3  0  0  0  0  0  0
  182.4990  178.2590  142.8880 C   0  0  0  0  0  2  0  0  0  0  0  0
  186.1380  178.3220  141.8170 N   0  0  0  0  0  0  0  0  0  0  0  0
  180.6860  176.9320  139.9770 C   0  0  1  0  0  3  0  0  0  0  0  0
  181.2950  178.9090  142.2580 C   0  0  2  0  0  3  0  0  0  0  0  0
  180.6320  177.9610  139.0020 O   0  0  0  0  0  0  0  0  0  0  0  0
  182.7820  176.0670  139.0710 C   0  0  2  0  0  3  0  0  0  0  0  0
  183.9680  174.0780  137.7450 C   0  0  0  0  0  0  0  0  0  0  0  0
  183.4320  174.9760  138.3430 C   0  0  0  0  0  0  0  0  0  0  0  0
  184.5900  173.0310  137.0490 N   0  0  0  0  0  2  0  0  0  0  0  0
  185.8160  172.5900  137.4190 O   0  0  0  0  0  0  0  0  0  0  0  0
  186.6830  173.6420  137.1170 C   0  0  0  0  0  1  0  0  0  0  0  0
  1  3  1  0  0  0  0
  1  8  1  1  0  0  0
  2  7  1  0  0  0  0
  3  6  1  6  0  0  0
  4 10  1  6  0  0  0
  5 13  1  1  0  0  0
  5 20  1  0  0  0  0
  5  1  1  0  0  0  0
  6 14  2  0  0  0  0
  6 16  1  0  0  0  0
  7  4  1  0  0  0  0
  8 19  1  0  0  0  0
  9 12  1  0  0  0  0
 12 15  1  0  0  0  0
 12  3  1  0  0  0  0
 13 21  1  0  0  0  0
 15 17  2  0  0  0  0
 17 14  1  0  0  0  0
 18 11  1  6  0  0  0
 18  2  1  0  0  0  0
 19  4  1  0  0  0  0
 19 16  1  6  0  0  0
 20 18  1  0  0  0  0
 21 23  1  6  0  0  0
 21 11  1  0  0  0  0
 22 23  3  0  0  0  0
 24 25  1  0  0  0  0
 24 22  1  0  0  0  0
 26 25  1  0  0  0  0
M  END
>  <MODEL>
9

>  <REMARK>
 VINA RESULT:      -4.4      3.217      6.619
  Name = 
  3 active torsions:
  status: ('A' for Active; 'I' for Inactive)
    1  A    between atoms: C_7  and  N_9
    2  A    between atoms: N_9  and  O_14
    3  A    between atoms: C_12  and  C_26
                            x       y       z     vdW  Elec       q    Type
                         _______ _______ _______ _____ _____    ______ ____

>  <TORSDO>
F 3

$$$$
