=
 OpenBabel10222416573D

 28 30  0  0  1  0  0  0  0  0999 V2000
  189.1780  177.3400  145.7340 C   0  0  0  0  0  0  0  0  0  0  0  0
  189.1060  176.8200  147.0300 C   0  0  0  0  0  3  0  0  0  0  0  0
  191.4540  176.6180  147.1190 C   0  0  0  0  0  0  0  0  0  0  0  0
  192.6270  176.2410  147.8290 N   0  0  0  0  0  1  0  0  0  0  0  0
  190.4550  177.5020  145.1550 C   0  0  0  0  0  0  0  0  0  0  0  0
  190.2360  176.4750  147.6980 N   0  0  0  0  0  0  0  0  0  0  0  0
  191.5530  177.1200  145.8620 N   0  0  0  0  0  0  0  0  0  0  0  0
  185.2140  178.7990  146.9590 N   0  0  0  0  0  2  0  0  0  0  0  0
  186.5210  178.3490  146.7590 N   0  0  0  0  0  0  0  0  0  0  0  0
  184.6080  178.8220  145.6800 C   0  0  0  0  0  0  0  0  0  0  0  0
  183.4180  179.1810  145.4820 O   0  0  0  0  0  0  0  0  0  0  0  0
  186.7330  178.1060  145.5040 C   0  0  0  0  0  0  0  0  0  0  0  0
  187.9870  177.6430  144.9890 N   0  0  0  0  0  2  0  0  0  0  0  0
  185.5510  178.3730  144.6280 C   0  0  0  0  0  2  0  0  0  0  0  0
  190.7860  179.2900  143.6600 O   0  0  0  0  0  0  0  0  0  0  0  0
  190.6650  178.0390  143.7890 C   0  0  0  0  0  0  0  0  0  0  0  0
  192.0110  177.1910  142.0130 O   0  0  0  0  0  1  0  0  0  0  0  0
  190.7190  177.1640  142.5470 C   0  0  1  0  0  0  0  0  0  0  0  0
  190.4050  175.7260  142.9300 C   0  0  0  0  0  1  0  0  0  0  0  0
  189.7140  177.6120  141.5020 C   0  0  0  0  0  0  0  0  0  0  0  0
  188.5140  177.8120  141.8350 O   0  0  0  0  0  0  0  0  0  0  0  0
  190.0540  177.7720  140.1530 O   0  0  0  0  0  0  0  0  0  0  0  0
  189.0870  178.5200  138.0920 C   0  0  2  0  0  3  0  0  0  0  0  0
  190.0250  177.3640  137.7950 C   0  0  0  0  0  2  0  0  0  0  0  0
  189.2200  177.3710  139.0760 C   0  0  1  0  0  3  0  0  0  0  0  0
  187.8560  177.8760  136.1510 O   0  0  0  0  0  0  0  0  0  0  0  0
  186.6170  178.8100  137.8360 O   0  0  0  0  0  1  0  0  0  0  0  0
  187.8240  178.3690  137.3100 C   0  0  0  0  0  0  0  0  0  0  0  0
  1  2  2  0  0  0  0
  2  6  1  0  0  0  0
  3  6  2  0  0  0  0
  3  4  1  0  0  0  0
  5  1  1  0  0  0  0
  5  7  2  0  0  0  0
  7  3  1  0  0  0  0
  9  8  1  0  0  0  0
 10  8  1  0  0  0  0
 11 10  2  0  0  0  0
 12  9  2  0  0  0  0
 13 12  1  0  0  0  0
 13  1  1  0  0  0  0
 14 12  1  0  0  0  0
 14 10  1  0  0  0  0
 15 16  2  0  0  0  0
 16  5  1  0  0  0  0
 17 18  1  0  0  0  0
 18 19  1  1  0  0  0
 18 16  1  0  0  0  0
 20 21  2  0  0  0  0
 20 18  1  0  0  0  0
 22 20  1  0  0  0  0
 23 28  1  6  0  0  0
 23 25  1  0  0  0  0
 24 23  1  0  0  0  0
 24 25  1  0  0  0  0
 25 22  1  1  0  0  0
 26 28  2  0  0  0  0
 28 27  1  0  0  0  0
M  END
>  <MODEL>
1

>  <REMARK>
 VINA RESULT:      -8.8      0.000      0.000
  Name = 
  7 active torsions:
  status: ('A' for Active; 'I' for Inactive)
    1  A    between atoms: O_1  and  C_17
    2  A    between atoms: O_1  and  C_20
    3  A    between atoms: C_2  and  C_22
    4  A    between atoms: C_3  and  N_27
    5  A    between atoms: C_10  and  C_17
    6  A    between atoms: C_10  and  C_26
    7  A    between atoms: C_18  and  C_26
                            x       y       z     vdW  Elec       q    Type
                         _______ _______ _______ _____ _____    ______ ____

>  <TORSDO>
F 7

$$$$
=
 OpenBabel10222416573D

 28 30  0  0  1  0  0  0  0  0999 V2000
  189.2190  177.3450  145.7600 C   0  0  0  0  0  0  0  0  0  0  0  0
  189.1330  176.8060  147.0470 C   0  0  0  0  0  3  0  0  0  0  0  0
  191.4800  176.6120  147.1650 C   0  0  0  0  0  0  0  0  0  0  0  0
  192.6450  176.2290  147.8840 N   0  0  0  0  0  1  0  0  0  0  0  0
  190.5030  177.5200  145.2000 C   0  0  0  0  0  0  0  0  0  0  0  0
  190.2540  176.4560  147.7250 N   0  0  0  0  0  0  0  0  0  0  0  0
  191.5940  177.1320  145.9160 N   0  0  0  0  0  0  0  0  0  0  0  0
  185.2390  178.7860  146.9520 N   0  0  0  0  0  2  0  0  0  0  0  0
  186.5480  178.3400  146.7630 N   0  0  0  0  0  0  0  0  0  0  0  0
  184.6480  178.8210  145.6660 C   0  0  0  0  0  0  0  0  0  0  0  0
  183.4610  179.1810  145.4570 O   0  0  0  0  0  0  0  0  0  0  0  0
  186.7760  178.1100  145.5080 C   0  0  0  0  0  0  0  0  0  0  0  0
  188.0370  177.6540  145.0040 N   0  0  0  0  0  2  0  0  0  0  0  0
  185.6040  178.3850  144.6200 C   0  0  0  0  0  2  0  0  0  0  0  0
  190.9080  179.3250  143.7440 O   0  0  0  0  0  0  0  0  0  0  0  0
  190.7290  178.0790  143.8460 C   0  0  0  0  0  0  0  0  0  0  0  0
  191.9830  177.3220  141.9640 O   0  0  0  0  0  1  0  0  0  0  0  0
  190.7330  177.2300  142.5840 C   0  0  1  0  0  0  0  0  0  0  0  0
  190.5040  175.7740  142.9560 C   0  0  0  0  0  1  0  0  0  0  0  0
  189.6410  177.6560  141.6190 C   0  0  0  0  0  0  0  0  0  0  0  0
  188.8390  178.5720  141.9490 O   0  0  0  0  0  0  0  0  0  0  0  0
  189.4530  177.0380  140.3770 O   0  0  0  0  0  0  0  0  0  0  0  0
  190.9920  176.0750  138.8120 C   0  0  2  0  0  3  0  0  0  0  0  0
  189.7390  176.4940  138.0650 C   0  0  0  0  0  2  0  0  0  0  0  0
  190.2350  177.3250  139.2260 C   0  0  1  0  0  3  0  0  0  0  0  0
  192.1850  176.4190  136.7730 O   0  0  0  0  0  0  0  0  0  0  0  0
  193.3770  176.8150  138.6880 O   0  0  0  0  0  1  0  0  0  0  0  0
  192.2060  176.4580  138.0320 C   0  0  0  0  0  0  0  0  0  0  0  0
  1  2  2  0  0  0  0
  2  6  1  0  0  0  0
  3  6  2  0  0  0  0
  3  4  1  0  0  0  0
  5  1  1  0  0  0  0
  5  7  2  0  0  0  0
  7  3  1  0  0  0  0
  9  8  1  0  0  0  0
 10  8  1  0  0  0  0
 11 10  2  0  0  0  0
 12  9  2  0  0  0  0
 13 12  1  0  0  0  0
 13  1  1  0  0  0  0
 14 12  1  0  0  0  0
 14 10  1  0  0  0  0
 15 16  2  0  0  0  0
 16  5  1  0  0  0  0
 17 18  1  0  0  0  0
 18 19  1  1  0  0  0
 18 16  1  0  0  0  0
 20 21  2  0  0  0  0
 20 18  1  0  0  0  0
 22 20  1  0  0  0  0
 23 28  1  6  0  0  0
 23 25  1  0  0  0  0
 24 23  1  0  0  0  0
 24 25  1  0  0  0  0
 25 22  1  1  0  0  0
 26 28  2  0  0  0  0
 28 27  1  0  0  0  0
M  END
>  <MODEL>
2

>  <REMARK>
 VINA RESULT:      -8.6      1.392      1.972
  Name = 
  7 active torsions:
  status: ('A' for Active; 'I' for Inactive)
    1  A    between atoms: O_1  and  C_17
    2  A    between atoms: O_1  and  C_20
    3  A    between atoms: C_2  and  C_22
    4  A    between atoms: C_3  and  N_27
    5  A    between atoms: C_10  and  C_17
    6  A    between atoms: C_10  and  C_26
    7  A    between atoms: C_18  and  C_26
                            x       y       z     vdW  Elec       q    Type
                         _______ _______ _______ _____ _____    ______ ____

>  <TORSDO>
F 7

$$$$
=
 OpenBabel10222416573D

 28 30  0  0  1  0  0  0  0  0999 V2000
  189.1020  177.0910  145.5370 C   0  0  0  0  0  0  0  0  0  0  0  0
  189.1660  177.1820  146.9310 C   0  0  0  0  0  3  0  0  0  0  0  0
  191.4090  176.4560  146.9160 C   0  0  0  0  0  0  0  0  0  0  0  0
  192.5950  176.1230  147.6240 N   0  0  0  0  0  1  0  0  0  0  0  0
  190.2620  176.6780  144.8480 C   0  0  0  0  0  0  0  0  0  0  0  0
  190.3090  176.8710  147.5920 N   0  0  0  0  0  0  0  0  0  0  0  0
  191.3760  176.3580  145.5620 N   0  0  0  0  0  0  0  0  0  0  0  0
  185.3030  178.9260  146.7780 N   0  0  0  0  0  2  0  0  0  0  0  0
  186.5710  178.3800  146.5660 N   0  0  0  0  0  0  0  0  0  0  0  0
  184.6120  178.7990  145.5500 C   0  0  0  0  0  0  0  0  0  0  0  0
  183.4290  179.1910  145.3750 O   0  0  0  0  0  0  0  0  0  0  0  0
  186.6850  177.9490  145.3500 C   0  0  0  0  0  0  0  0  0  0  0  0
  187.8780  177.3500  144.8310 N   0  0  0  0  0  2  0  0  0  0  0  0
  185.4580  178.1530  144.5180 C   0  0  0  0  0  2  0  0  0  0  0  0
  190.1120  175.3960  142.8790 O   0  0  0  0  0  0  0  0  0  0  0  0
  190.3240  176.5390  143.3730 C   0  0  0  0  0  0  0  0  0  0  0  0
  190.7300  178.8800  143.1760 O   0  0  0  0  0  1  0  0  0  0  0  0
  190.6500  177.6940  142.4390 C   0  0  1  0  0  0  0  0  0  0  0  0
  192.0060  177.4540  141.7950 C   0  0  0  0  0  1  0  0  0  0  0  0
  189.6140  177.8340  141.3390 C   0  0  0  0  0  0  0  0  0  0  0  0
  188.3930  177.9300  141.6400 O   0  0  0  0  0  0  0  0  0  0  0  0
  189.9540  177.8150  139.9800 O   0  0  0  0  0  0  0  0  0  0  0  0
  189.0160  178.4710  137.8750 C   0  0  2  0  0  3  0  0  0  0  0  0
  189.8440  177.2160  137.6670 C   0  0  0  0  0  2  0  0  0  0  0  0
  189.0680  177.4000  138.9510 C   0  0  1  0  0  3  0  0  0  0  0  0
  187.7160  177.8720  135.9650 O   0  0  0  0  0  0  0  0  0  0  0  0
  186.5530  178.8530  137.6780 O   0  0  0  0  0  1  0  0  0  0  0  0
  187.7310  178.3660  137.1230 C   0  0  0  0  0  0  0  0  0  0  0  0
  1  2  2  0  0  0  0
  2  6  1  0  0  0  0
  3  6  2  0  0  0  0
  3  4  1  0  0  0  0
  5  1  1  0  0  0  0
  5  7  2  0  0  0  0
  7  3  1  0  0  0  0
  9  8  1  0  0  0  0
 10  8  1  0  0  0  0
 11 10  2  0  0  0  0
 12  9  2  0  0  0  0
 13 12  1  0  0  0  0
 13  1  1  0  0  0  0
 14 12  1  0  0  0  0
 14 10  1  0  0  0  0
 15 16  2  0  0  0  0
 16  5  1  0  0  0  0
 18 19  1  6  0  0  0
 18 17  1  0  0  0  0
 18 16  1  0  0  0  0
 20 21  2  0  0  0  0
 20 18  1  0  0  0  0
 22 20  1  0  0  0  0
 23 28  1  6  0  0  0
 23 25  1  0  0  0  0
 24 23  1  0  0  0  0
 24 25  1  0  0  0  0
 25 22  1  1  0  0  0
 26 28  2  0  0  0  0
 28 27  1  0  0  0  0
M  END
>  <MODEL>
3

>  <REMARK>
 VINA RESULT:      -8.5      0.716      1.113
  Name = 
  7 active torsions:
  status: ('A' for Active; 'I' for Inactive)
    1  A    between atoms: O_1  and  C_17
    2  A    between atoms: O_1  and  C_20
    3  A    between atoms: C_2  and  C_22
    4  A    between atoms: C_3  and  N_27
    5  A    between atoms: C_10  and  C_17
    6  A    between atoms: C_10  and  C_26
    7  A    between atoms: C_18  and  C_26
                            x       y       z     vdW  Elec       q    Type
                         _______ _______ _______ _____ _____    ______ ____

>  <TORSDO>
F 7

$$$$
=
 OpenBabel10222416573D

 28 30  0  0  1  0  0  0  0  0999 V2000
  189.3670  177.8130  140.4970 C   0  0  0  0  0  0  0  0  0  0  0  0
  188.3900  178.4730  139.7440 C   0  0  0  0  0  3  0  0  0  0  0  0
  186.8330  178.2540  141.5000 C   0  0  0  0  0  0  0  0  0  0  0  0
  185.5270  178.4750  142.0170 N   0  0  0  0  0  1  0  0  0  0  0  0
  189.0240  177.3900  141.7990 C   0  0  0  0  0  0  0  0  0  0  0  0
  187.1520  178.6860  140.2550 N   0  0  0  0  0  0  0  0  0  0  0  0
  187.7610  177.6110  142.2540 N   0  0  0  0  0  0  0  0  0  0  0  0
  190.7670  174.6600  137.7690 N   0  0  0  0  0  2  0  0  0  0  0  0
  190.1450  175.5820  138.6140 N   0  0  0  0  0  0  0  0  0  0  0  0
  192.1320  175.0320  137.7210 C   0  0  0  0  0  0  0  0  0  0  0  0
  192.9970  174.4150  137.0460 O   0  0  0  0  0  0  0  0  0  0  0  0
  191.0040  176.4420  139.0620 C   0  0  0  0  0  0  0  0  0  0  0  0
  190.6590  177.5190  139.9420 N   0  0  0  0  0  2  0  0  0  0  0  0
  192.3960  176.2260  138.5600 C   0  0  0  0  0  2  0  0  0  0  0  0
  190.1390  175.4420  142.5100 O   0  0  0  0  0  0  0  0  0  0  0  0
  189.9670  176.6790  142.6960 C   0  0  0  0  0  0  0  0  0  0  0  0
  192.0480  176.9470  143.8280 O   0  0  0  0  0  1  0  0  0  0  0  0
  190.7130  177.3610  143.8320 C   0  0  1  0  0  0  0  0  0  0  0  0
  190.6920  178.8670  143.6150 C   0  0  0  0  0  1  0  0  0  0  0  0
  190.0780  177.0620  145.1770 C   0  0  0  0  0  0  0  0  0  0  0  0
  190.8130  176.8150  146.1730 O   0  0  0  0  0  0  0  0  0  0  0  0
  188.6900  177.0010  145.3570 O   0  0  0  0  0  0  0  0  0  0  0  0
  186.5330  177.5420  146.2470 C   0  0  2  0  0  3  0  0  0  0  0  0
  187.5680  177.7260  147.3410 C   0  0  0  0  0  2  0  0  0  0  0  0
  187.9200  178.0590  145.9090 C   0  0  1  0  0  3  0  0  0  0  0  0
  185.5930  179.5190  147.2000 O   0  0  0  0  0  1  0  0  0  0  0  0
  184.5960  178.7870  145.2720 O   0  0  0  0  0  0  0  0  0  0  0  0
  185.5630  178.6770  146.2630 C   0  0  0  0  0  0  0  0  0  0  0  0
  1  5  1  0  0  0  0
  2  6  1  0  0  0  0
  2  1  2  0  0  0  0
  3  4  1  0  0  0  0
  3  7  1  0  0  0  0
  5  7  2  0  0  0  0
  5 16  1  0  0  0  0
  6  3  2  0  0  0  0
  8  9  1  0  0  0  0
  9 12  2  0  0  0  0
 10  8  1  0  0  0  0
 10 14  1  0  0  0  0
 11 10  2  0  0  0  0
 12 13  1  0  0  0  0
 13  1  1  0  0  0  0
 14 12  1  0  0  0  0
 15 16  2  0  0  0  0
 16 18  1  0  0  0  0
 17 18  1  0  0  0  0
 18 19  1  6  0  0  0
 18 20  1  0  0  0  0
 20 22  1  0  0  0  0
 20 21  2  0  0  0  0
 23 28  1  1  0  0  0
 23 24  1  0  0  0  0
 25 22  1  6  0  0  0
 25 23  1  0  0  0  0
 25 24  1  0  0  0  0
 27 28  2  0  0  0  0
 28 26  1  0  0  0  0
M  END
>  <MODEL>
4

>  <REMARK>
 VINA RESULT:      -8.5      3.413      7.703
  Name = 
  7 active torsions:
  status: ('A' for Active; 'I' for Inactive)
    1  A    between atoms: O_1  and  C_17
    2  A    between atoms: O_1  and  C_20
    3  A    between atoms: C_2  and  C_22
    4  A    between atoms: C_3  and  N_27
    5  A    between atoms: C_10  and  C_17
    6  A    between atoms: C_10  and  C_26
    7  A    between atoms: C_18  and  C_26
                            x       y       z     vdW  Elec       q    Type
                         _______ _______ _______ _____ _____    ______ ____

>  <TORSDO>
F 7

$$$$
=
 OpenBabel10222416573D

 28 30  0  0  1  0  0  0  0  0999 V2000
  189.6810  177.5580  140.4630 C   0  0  0  0  0  0  0  0  0  0  0  0
  189.6730  177.4510  139.0690 C   0  0  0  0  0  3  0  0  0  0  0  0
  191.9910  177.0230  139.0490 C   0  0  0  0  0  0  0  0  0  0  0  0
  193.1830  176.7520  138.3220 N   0  0  0  0  0  1  0  0  0  0  0  0
  190.9080  177.3680  141.1340 C   0  0  0  0  0  0  0  0  0  0  0  0
  190.8160  177.1820  138.3910 N   0  0  0  0  0  0  0  0  0  0  0  0
  192.0290  177.1210  140.4020 N   0  0  0  0  0  0  0  0  0  0  0  0
  185.6820  178.8270  139.1450 N   0  0  0  0  0  2  0  0  0  0  0  0
  186.9950  178.4090  139.3740 N   0  0  0  0  0  0  0  0  0  0  0  0
  185.0990  179.0030  140.4230 C   0  0  0  0  0  0  0  0  0  0  0  0
  183.9110  179.3770  140.5990 O   0  0  0  0  0  0  0  0  0  0  0  0
  187.2330  178.3290  140.6450 C   0  0  0  0  0  0  0  0  0  0  0  0
  188.4920  177.9120  141.1880 N   0  0  0  0  0  2  0  0  0  0  0  0
  186.0640  178.6890  141.5040 C   0  0  0  0  0  2  0  0  0  0  0  0
  191.4610  178.5470  143.0950 O   0  0  0  0  0  0  0  0  0  0  0  0
  191.0510  177.4570  142.6070 C   0  0  0  0  0  0  0  0  0  0  0  0
  190.0650  175.3000  142.8480 O   0  0  0  0  0  1  0  0  0  0  0  0
  190.7490  176.3000  143.5460 C   0  0  1  0  0  0  0  0  0  0  0  0
  192.0550  175.7050  144.0480 C   0  0  0  0  0  1  0  0  0  0  0  0
  189.9340  176.7490  144.7450 C   0  0  0  0  0  0  0  0  0  0  0  0
  190.5090  176.9530  145.8490 O   0  0  0  0  0  0  0  0  0  0  0  0
  188.5430  176.9060  144.6910 O   0  0  0  0  0  0  0  0  0  0  0  0
  186.4220  177.4980  145.6350 C   0  0  2  0  0  3  0  0  0  0  0  0
  187.4620  177.5030  146.7400 C   0  0  0  0  0  2  0  0  0  0  0  0
  187.8420  177.9520  145.3470 C   0  0  1  0  0  3  0  0  0  0  0  0
  184.8730  179.0960  144.7720 O   0  0  0  0  0  0  0  0  0  0  0  0
  185.4540  179.3780  146.9690 O   0  0  0  0  0  1  0  0  0  0  0  0
  185.5300  178.6880  145.7650 C   0  0  0  0  0  0  0  0  0  0  0  0
  1  5  1  0  0  0  0
  1 13  1  0  0  0  0
  2  1  2  0  0  0  0
  3  7  1  0  0  0  0
  4  3  1  0  0  0  0
  5 16  1  0  0  0  0
  6  3  2  0  0  0  0
  6  2  1  0  0  0  0
  7  5  2  0  0  0  0
  8  9  1  0  0  0  0
  8 10  1  0  0  0  0
  9 12  2  0  0  0  0
 10 11  2  0  0  0  0
 10 14  1  0  0  0  0
 12 13  1  0  0  0  0
 12 14  1  0  0  0  0
 16 15  2  0  0  0  0
 16 18  1  0  0  0  0
 17 18  1  0  0  0  0
 18 19  1  1  0  0  0
 18 20  1  0  0  0  0
 20 21  2  0  0  0  0
 22 20  1  0  0  0  0
 23 28  1  1  0  0  0
 23 24  1  0  0  0  0
 25 22  1  6  0  0  0
 25 23  1  0  0  0  0
 25 24  1  0  0  0  0
 26 28  2  0  0  0  0
 28 27  1  0  0  0  0
M  END
>  <MODEL>
5

>  <REMARK>
 VINA RESULT:      -8.1      3.492      6.302
  Name = 
  7 active torsions:
  status: ('A' for Active; 'I' for Inactive)
    1  A    between atoms: O_1  and  C_17
    2  A    between atoms: O_1  and  C_20
    3  A    between atoms: C_2  and  C_22
    4  A    between atoms: C_3  and  N_27
    5  A    between atoms: C_10  and  C_17
    6  A    between atoms: C_10  and  C_26
    7  A    between atoms: C_18  and  C_26
                            x       y       z     vdW  Elec       q    Type
                         _______ _______ _______ _____ _____    ______ ____

>  <TORSDO>
F 7

$$$$
=
 OpenBabel10222416573D

 28 30  0  0  1  0  0  0  0  0999 V2000
  188.4630  178.1390  141.0650 C   0  0  0  0  0  0  0  0  0  0  0  0
  188.4870  178.6190  139.7520 C   0  0  0  0  0  3  0  0  0  0  0  0
  190.3120  177.2200  139.2320 C   0  0  0  0  0  0  0  0  0  0  0  0
  191.2690  176.7500  138.2920 N   0  0  0  0  0  1  0  0  0  0  0  0
  189.4060  177.1530  141.4260 C   0  0  0  0  0  0  0  0  0  0  0  0
  189.3990  178.1520  138.8630 N   0  0  0  0  0  0  0  0  0  0  0  0
  190.3130  176.7350  140.5010 N   0  0  0  0  0  0  0  0  0  0  0  0
  184.0800  177.9880  141.3980 N   0  0  0  0  0  2  0  0  0  0  0  0
  185.4500  177.9260  141.1310 N   0  0  0  0  0  0  0  0  0  0  0  0
  183.9460  178.7490  142.5830 C   0  0  0  0  0  0  0  0  0  0  0  0
  182.8370  179.0070  143.1200 O   0  0  0  0  0  0  0  0  0  0  0  0
  186.1190  178.5720  142.0330 C   0  0  0  0  0  0  0  0  0  0  0  0
  187.5480  178.6740  142.0350 N   0  0  0  0  0  2  0  0  0  0  0  0
  185.2650  179.1900  143.0950 C   0  0  0  0  0  2  0  0  0  0  0  0
  188.6890  175.6280  143.0700 O   0  0  0  0  0  0  0  0  0  0  0  0
  189.4860  176.5650  142.7850 C   0  0  0  0  0  0  0  0  0  0  0  0
  191.6420  176.3080  143.7690 O   0  0  0  0  0  1  0  0  0  0  0  0
  190.4600  177.0490  143.8480 C   0  0  1  0  0  0  0  0  0  0  0  0
  190.8070  178.5070  143.5860 C   0  0  0  0  0  1  0  0  0  0  0  0
  189.8690  176.9390  145.2410 C   0  0  0  0  0  0  0  0  0  0  0  0
  190.6310  176.7710  146.2310 O   0  0  0  0  0  0  0  0  0  0  0  0
  188.4880  176.9720  145.4760 O   0  0  0  0  0  0  0  0  0  0  0  0
  186.5040  177.5880  146.6690 C   0  0  2  0  0  3  0  0  0  0  0  0
  187.7030  177.8340  147.5650 C   0  0  0  0  0  2  0  0  0  0  0  0
  187.8160  178.0700  146.0760 C   0  0  1  0  0  3  0  0  0  0  0  0
  185.8790  179.7790  147.3810 O   0  0  0  0  0  1  0  0  0  0  0  0
  184.2730  178.6270  146.2240 O   0  0  0  0  0  0  0  0  0  0  0  0
  185.5470  178.7300  146.7680 C   0  0  0  0  0  0  0  0  0  0  0  0
  1  5  1  0  0  0  0
  1 13  1  0  0  0  0
  2  1  2  0  0  0  0
  3  7  1  0  0  0  0
  4  3  1  0  0  0  0
  5 16  1  0  0  0  0
  6  3  2  0  0  0  0
  6  2  1  0  0  0  0
  7  5  2  0  0  0  0
  8 10  1  0  0  0  0
  9  8  1  0  0  0  0
  9 12  2  0  0  0  0
 10 14  1  0  0  0  0
 10 11  2  0  0  0  0
 12 13  1  0  0  0  0
 12 14  1  0  0  0  0
 16 15  2  0  0  0  0
 16 18  1  0  0  0  0
 17 18  1  0  0  0  0
 18 19  1  6  0  0  0
 18 20  1  0  0  0  0
 20 22  1  0  0  0  0
 20 21  2  0  0  0  0
 23 28  1  1  0  0  0
 23 24  1  0  0  0  0
 25 22  1  6  0  0  0
 25 23  1  0  0  0  0
 25 24  1  0  0  0  0
 27 28  2  0  0  0  0
 28 26  1  0  0  0  0
M  END
>  <MODEL>
6

>  <REMARK>
 VINA RESULT:      -7.9      3.603      6.315
  Name = 
  7 active torsions:
  status: ('A' for Active; 'I' for Inactive)
    1  A    between atoms: O_1  and  C_17
    2  A    between atoms: O_1  and  C_20
    3  A    between atoms: C_2  and  C_22
    4  A    between atoms: C_3  and  N_27
    5  A    between atoms: C_10  and  C_17
    6  A    between atoms: C_10  and  C_26
    7  A    between atoms: C_18  and  C_26
                            x       y       z     vdW  Elec       q    Type
                         _______ _______ _______ _____ _____    ______ ____

>  <TORSDO>
F 7

$$$$
=
 OpenBabel10222416573D

 28 30  0  0  1  0  0  0  0  0999 V2000
  186.4770  178.1700  144.9360 C   0  0  0  0  0  0  0  0  0  0  0  0
  185.8740  178.7230  146.0690 C   0  0  0  0  0  3  0  0  0  0  0  0
  187.6360  177.9520  147.4320 C   0  0  0  0  0  0  0  0  0  0  0  0
  188.2320  177.8330  148.7170 N   0  0  0  0  0  1  0  0  0  0  0  0
  187.7120  177.5060  145.1010 C   0  0  0  0  0  0  0  0  0  0  0  0
  186.4600  178.6110  147.2870 N   0  0  0  0  0  0  0  0  0  0  0  0
  188.2450  177.4040  146.3490 N   0  0  0  0  0  0  0  0  0  0  0  0
  182.3280  179.0020  143.7390 N   0  0  0  0  0  2  0  0  0  0  0  0
  183.5850  178.7700  144.3020 N   0  0  0  0  0  0  0  0  0  0  0  0
  182.4900  178.8450  142.3420 C   0  0  0  0  0  0  0  0  0  0  0  0
  181.5520  178.9840  141.5150 O   0  0  0  0  0  0  0  0  0  0  0  0
  184.4530  178.4920  143.3820 C   0  0  0  0  0  0  0  0  0  0  0  0
  185.8330  178.2210  143.6530 N   0  0  0  0  0  2  0  0  0  0  0  0
  183.8900  178.5020  141.9960 C   0  0  0  0  0  2  0  0  0  0  0  0
  187.9240  175.8780  143.4130 O   0  0  0  0  0  0  0  0  0  0  0  0
  188.4510  176.8760  143.9810 C   0  0  0  0  0  0  0  0  0  0  0  0
  189.9200  178.7350  143.7210 O   0  0  0  0  0  1  0  0  0  0  0  0
  189.8120  177.3590  143.5030 C   0  0  1  0  0  0  0  0  0  0  0  0
  190.9020  176.6730  144.3120 C   0  0  0  0  0  1  0  0  0  0  0  0
  190.0330  177.0450  142.0350 C   0  0  0  0  0  0  0  0  0  0  0  0
  190.6950  176.0220  141.7080 O   0  0  0  0  0  0  0  0  0  0  0  0
  189.5680  177.8780  141.0100 O   0  0  0  0  0  0  0  0  0  0  0  0
  189.0550  178.5430  138.7660 C   0  0  2  0  0  3  0  0  0  0  0  0
  190.1720  177.5170  138.7230 C   0  0  0  0  0  2  0  0  0  0  0  0
  189.0820  177.3990  139.7640 C   0  0  1  0  0  3  0  0  0  0  0  0
  186.8560  178.6140  137.8420 O   0  0  0  0  0  1  0  0  0  0  0  0
  188.4270  177.5520  136.5580 O   0  0  0  0  0  0  0  0  0  0  0  0
  188.0540  178.2550  137.6970 C   0  0  0  0  0  0  0  0  0  0  0  0
  1  5  1  0  0  0  0
  1  2  2  0  0  0  0
  2  6  1  0  0  0  0
  3  4  1  0  0  0  0
  5  7  2  0  0  0  0
  6  3  2  0  0  0  0
  7  3  1  0  0  0  0
  8  9  1  0  0  0  0
 10  8  1  0  0  0  0
 11 10  2  0  0  0  0
 12 13  1  0  0  0  0
 12  9  2  0  0  0  0
 13  1  1  0  0  0  0
 14 10  1  0  0  0  0
 14 12  1  0  0  0  0
 15 16  2  0  0  0  0
 16  5  1  0  0  0  0
 18 17  1  0  0  0  0
 18 16  1  0  0  0  0
 18 19  1  1  0  0  0
 20 18  1  0  0  0  0
 21 20  2  0  0  0  0
 22 20  1  0  0  0  0
 23 28  1  6  0  0  0
 23 25  1  0  0  0  0
 24 23  1  0  0  0  0
 24 25  1  0  0  0  0
 25 22  1  1  0  0  0
 27 28  2  0  0  0  0
 28 26  1  0  0  0  0
M  END
>  <MODEL>
7

>  <REMARK>
 VINA RESULT:      -7.7      2.069      3.039
  Name = 
  7 active torsions:
  status: ('A' for Active; 'I' for Inactive)
    1  A    between atoms: O_1  and  C_17
    2  A    between atoms: O_1  and  C_20
    3  A    between atoms: C_2  and  C_22
    4  A    between atoms: C_3  and  N_27
    5  A    between atoms: C_10  and  C_17
    6  A    between atoms: C_10  and  C_26
    7  A    between atoms: C_18  and  C_26
                            x       y       z     vdW  Elec       q    Type
                         _______ _______ _______ _____ _____    ______ ____

>  <TORSDO>
F 7

$$$$
=
 OpenBabel10222416573D

 28 30  0  0  1  0  0  0  0  0999 V2000
  186.3540  178.1040  144.5900 C   0  0  0  0  0  0  0  0  0  0  0  0
  185.7700  178.6480  145.7390 C   0  0  0  0  0  3  0  0  0  0  0  0
  187.5330  177.8240  147.0710 C   0  0  0  0  0  0  0  0  0  0  0  0
  188.1390  177.6730  148.3480 N   0  0  0  0  0  1  0  0  0  0  0  0
  187.5790  177.4180  144.7320 C   0  0  0  0  0  0  0  0  0  0  0  0
  186.3670  178.5050  146.9490 N   0  0  0  0  0  0  0  0  0  0  0  0
  188.1220  177.2860  145.9720 N   0  0  0  0  0  0  0  0  0  0  0  0
  182.2020  179.0040  143.4510 N   0  0  0  0  0  2  0  0  0  0  0  0
  183.4620  178.7480  143.9970 N   0  0  0  0  0  0  0  0  0  0  0  0
  182.3490  178.8740  142.0500 C   0  0  0  0  0  0  0  0  0  0  0  0
  181.4050  179.0390  141.2340 O   0  0  0  0  0  0  0  0  0  0  0  0
  184.3180  178.4800  143.0630 C   0  0  0  0  0  0  0  0  0  0  0  0
  185.6980  178.1880  143.3150 N   0  0  0  0  0  2  0  0  0  0  0  0
  183.7420  178.5230  141.6830 C   0  0  0  0  0  2  0  0  0  0  0  0
  187.9290  175.6460  143.2220 O   0  0  0  0  0  0  0  0  0  0  0  0
  188.2970  176.7960  143.5930 C   0  0  0  0  0  0  0  0  0  0  0  0
  189.8710  178.5860  143.5980 O   0  0  0  0  0  1  0  0  0  0  0  0
  189.4580  177.4640  142.8740 C   0  0  1  0  0  0  0  0  0  0  0  0
  190.6310  176.4980  142.8050 C   0  0  0  0  0  1  0  0  0  0  0  0
  189.0840  177.8660  141.4590 C   0  0  0  0  0  0  0  0  0  0  0  0
  188.3470  178.8720  141.2710 O   0  0  0  0  0  0  0  0  0  0  0  0
  189.4890  177.1310  140.3380 O   0  0  0  0  0  0  0  0  0  0  0  0
  191.3570  176.3160  139.0780 C   0  0  2  0  0  3  0  0  0  0  0  0
  190.3380  176.8930  138.1140 C   0  0  0  0  0  2  0  0  0  0  0  0
  190.5380  177.5330  139.4690 C   0  0  1  0  0  3  0  0  0  0  0  0
  193.5490  177.1280  139.5620 O   0  0  0  0  0  1  0  0  0  0  0  0
  193.1060  176.7540  137.3460 O   0  0  0  0  0  0  0  0  0  0  0  0
  192.7330  176.7410  138.6840 C   0  0  0  0  0  0  0  0  0  0  0  0
  1  5  1  0  0  0  0
  1  2  2  0  0  0  0
  2  6  1  0  0  0  0
  3  4  1  0  0  0  0
  5  7  2  0  0  0  0
  6  3  2  0  0  0  0
  7  3  1  0  0  0  0
  8  9  1  0  0  0  0
 10  8  1  0  0  0  0
 11 10  2  0  0  0  0
 12 13  1  0  0  0  0
 12  9  2  0  0  0  0
 13  1  1  0  0  0  0
 14 10  1  0  0  0  0
 14 12  1  0  0  0  0
 15 16  2  0  0  0  0
 16  5  1  0  0  0  0
 18 19  1  6  0  0  0
 18 16  1  0  0  0  0
 18 17  1  0  0  0  0
 20 18  1  0  0  0  0
 21 20  2  0  0  0  0
 22 20  1  0  0  0  0
 23 28  1  6  0  0  0
 23 25  1  0  0  0  0
 24 23  1  0  0  0  0
 24 25  1  0  0  0  0
 25 22  1  1  0  0  0
 27 28  2  0  0  0  0
 28 26  1  0  0  0  0
M  END
>  <MODEL>
8

>  <REMARK>
 VINA RESULT:      -7.5      2.475      3.744
  Name = 
  7 active torsions:
  status: ('A' for Active; 'I' for Inactive)
    1  A    between atoms: O_1  and  C_17
    2  A    between atoms: O_1  and  C_20
    3  A    between atoms: C_2  and  C_22
    4  A    between atoms: C_3  and  N_27
    5  A    between atoms: C_10  and  C_17
    6  A    between atoms: C_10  and  C_26
    7  A    between atoms: C_18  and  C_26
                            x       y       z     vdW  Elec       q    Type
                         _______ _______ _______ _____ _____    ______ ____

>  <TORSDO>
F 7

$$$$
=
 OpenBabel10222416573D

 28 30  0  0  1  0  0  0  0  0999 V2000
  185.8560  178.1050  142.2280 C   0  0  0  0  0  0  0  0  0  0  0  0
  184.4580  178.1540  142.2660 C   0  0  0  0  0  3  0  0  0  0  0  0
  184.3970  179.1950  140.1510 C   0  0  0  0  0  0  0  0  0  0  0  0
  183.6490  179.7610  139.0840 N   0  0  0  0  0  1  0  0  0  0  0  0
  186.5040  178.6180  141.0840 C   0  0  0  0  0  0  0  0  0  0  0  0
  183.7580  178.6880  141.2340 N   0  0  0  0  0  0  0  0  0  0  0  0
  185.7530  179.1620  140.0870 N   0  0  0  0  0  0  0  0  0  0  0  0
  185.7770  179.0630  146.5190 N   0  0  0  0  0  2  0  0  0  0  0  0
  185.6560  178.8880  145.1390 N   0  0  0  0  0  0  0  0  0  0  0  0
  186.8080  178.1860  146.9360 C   0  0  0  0  0  0  0  0  0  0  0  0
  187.1870  178.0790  148.1310 O   0  0  0  0  0  0  0  0  0  0  0  0
  186.5080  178.0080  144.7140 C   0  0  0  0  0  0  0  0  0  0  0  0
  186.6120  177.6070  143.3430 N   0  0  0  0  0  2  0  0  0  0  0  0
  187.3660  177.4260  145.7920 C   0  0  0  0  0  2  0  0  0  0  0  0
  188.6550  179.3280  141.7260 O   0  0  0  0  0  0  0  0  0  0  0  0
  187.9780  178.6280  140.9220 C   0  0  0  0  0  0  0  0  0  0  0  0
  187.8500  176.8810  139.3040 O   0  0  0  0  0  1  0  0  0  0  0  0
  188.7020  177.8580  139.8290 C   0  0  1  0  0  0  0  0  0  0  0  0
  189.0690  178.8090  138.7010 C   0  0  0  0  0  1  0  0  0  0  0  0
  189.9740  177.2130  140.3470 C   0  0  0  0  0  0  0  0  0  0  0  0
  190.5220  176.2910  139.6840 O   0  0  0  0  0  0  0  0  0  0  0  0
  190.5530  177.5720  141.5710 O   0  0  0  0  0  0  0  0  0  0  0  0
  190.5600  176.9910  143.8960 C   0  0  2  0  0  3  0  0  0  0  0  0
  189.9140  175.8610  143.1160 C   0  0  0  0  0  2  0  0  0  0  0  0
  191.0630  176.6340  142.5080 C   0  0  1  0  0  3  0  0  0  0  0  0
  191.7910  177.1230  145.9370 O   0  0  0  0  0  1  0  0  0  0  0  0
  192.0610  175.1830  144.7500 O   0  0  0  0  0  0  0  0  0  0  0  0
  191.4900  176.4370  144.9250 C   0  0  0  0  0  0  0  0  0  0  0  0
  1  2  2  0  0  0  0
  1 13  1  0  0  0  0
  3  6  2  0  0  0  0
  4  3  1  0  0  0  0
  5  1  1  0  0  0  0
  6  2  1  0  0  0  0
  7  3  1  0  0  0  0
  7  5  2  0  0  0  0
  8 10  1  0  0  0  0
  9  8  1  0  0  0  0
 10 11  2  0  0  0  0
 12  9  2  0  0  0  0
 12 14  1  0  0  0  0
 13 12  1  0  0  0  0
 14 10  1  0  0  0  0
 16  5  1  0  0  0  0
 16 15  2  0  0  0  0
 17 18  1  0  0  0  0
 18 19  1  6  0  0  0
 18 20  1  0  0  0  0
 18 16  1  0  0  0  0
 20 22  1  0  0  0  0
 21 20  2  0  0  0  0
 23 28  1  1  0  0  0
 24 23  1  0  0  0  0
 25 22  1  6  0  0  0
 25 24  1  0  0  0  0
 25 23  1  0  0  0  0
 27 28  2  0  0  0  0
 28 26  1  0  0  0  0
M  END
>  <MODEL>
9

>  <REMARK>
 VINA RESULT:      -7.2      2.987      6.120
  Name = 
  7 active torsions:
  status: ('A' for Active; 'I' for Inactive)
    1  A    between atoms: O_1  and  C_17
    2  A    between atoms: O_1  and  C_20
    3  A    between atoms: C_2  and  C_22
    4  A    between atoms: C_3  and  N_27
    5  A    between atoms: C_10  and  C_17
    6  A    between atoms: C_10  and  C_26
    7  A    between atoms: C_18  and  C_26
                            x       y       z     vdW  Elec       q    Type
                         _______ _______ _______ _____ _____    ______ ____

>  <TORSDO>
F 7

$$$$
