=
 OpenBabel10222416103D

 26 29  0  0  0  0  0  0  0  0999 V2000
  191.4930  178.2040  143.5820 C   0  0  0  0  0  3  0  0  0  0  0  0
  189.2900  177.8820  144.5730 C   0  0  0  0  0  0  0  0  0  0  0  0
  187.9450  177.8640  147.9000 C   0  0  0  0  0  0  0  0  0  0  0  0
  189.1850  176.8440  140.9090 C   0  0  0  0  0  1  0  0  0  0  0  0
  184.0610  179.2590  144.0730 C   0  0  0  0  0  3  0  0  0  0  0  0
  188.4800  177.8750  145.7610 N   0  0  0  0  0  0  0  0  0  0  0  0
  188.0660  177.7820  149.2810 O   0  0  0  0  0  1  0  0  0  0  0  0
  189.6840  177.3420  142.2280 C   0  0  0  0  0  0  0  0  0  0  0  0
  191.8890  177.6810  141.2720 O   0  0  0  0  0  1  0  0  0  0  0  0
  184.2250  178.7010  142.8060 C   0  0  0  0  0  0  0  0  0  0  0  0
  190.6380  178.2650  144.6800 C   0  0  0  0  0  3  0  0  0  0  0  0
  185.3780  177.9560  142.5280 C   0  0  0  0  0  3  0  0  0  0  0  0
  187.1470  178.0810  145.8840 C   0  0  0  0  0  0  0  0  0  0  0  0
  191.0210  177.7420  142.3560 C   0  0  0  0  0  0  0  0  0  0  0  0
  188.8070  177.4250  143.3270 C   0  0  0  0  0  0  0  0  0  0  0  0
  185.0370  179.0690  145.0520 C   0  0  0  0  0  3  0  0  0  0  0  0
  188.9810  177.7460  147.0070 C   0  0  0  0  0  3  0  0  0  0  0  0
  186.2020  178.3350  144.7790 C   0  0  0  0  0  0  0  0  0  0  0  0
  186.3720  177.7780  143.4960 C   0  0  0  0  0  0  0  0  0  0  0  0
  187.4840  177.0170  143.1410 O   0  0  0  0  0  0  0  0  0  0  0  0
  186.7690  178.0850  147.2200 C   0  0  0  0  0  3  0  0  0  0  0  0
  183.2110  178.8970  141.8180 N   0  0  0  0  0  2  0  0  0  0  0  0
  183.2870  178.3220  140.4820 C   0  0  0  0  0  2  0  0  0  0  0  0
  183.4660  179.4250  139.4560 C   0  0  0  0  0  2  0  0  0  0  0  0
  184.8240  179.6890  139.2740 O   0  0  0  0  0  0  0  0  0  0  0  0
  185.3390  178.5130  138.7300 C   0  0  0  0  0  1  0  0  0  0  0  0
  1 11  1  0  0  0  0
  2 11  2  0  0  0  0
  2  6  1  0  0  0  0
  3  7  1  0  0  0  0
  4  8  1  0  0  0  0
  5 16  1  0  0  0  0
  6 13  1  0  0  0  0
  6 17  1  0  0  0  0
  8 14  1  0  0  0  0
  8 15  2  0  0  0  0
  9 14  1  0  0  0  0
 10  5  2  0  0  0  0
 12 10  1  0  0  0  0
 12 19  2  0  0  0  0
 13 21  2  0  0  0  0
 14  1  2  0  0  0  0
 15  2  1  0  0  0  0
 17  3  2  0  0  0  0
 18 16  2  0  0  0  0
 18 13  1  0  0  0  0
 19 18  1  0  0  0  0
 20 15  1  0  0  0  0
 20 19  1  0  0  0  0
 21  3  1  0  0  0  0
 22 10  1  0  0  0  0
 23 22  1  0  0  0  0
 24 23  1  0  0  0  0
 25 24  1  0  0  0  0
 26 25  1  0  0  0  0
M  END
>  <MODEL>
1

>  <REMARK>
 VINA RESULT:      -8.9      0.000      0.000
  Name = 
  4 active torsions:
  status: ('A' for Active; 'I' for Inactive)
    1  A    between atoms: C_8  and  O_12
    2  A    between atoms: C_8  and  C_18
    3  A    between atoms: C_11  and  N_20
    4  A    between atoms: C_18  and  N_20
                            x       y       z     vdW  Elec       q    Type
                         _______ _______ _______ _____ _____    ______ ____

>  <TORSDO>
F 4

$$$$
=
 OpenBabel10222416103D

 26 29  0  0  0  0  0  0  0  0999 V2000
  186.6020  179.0810  147.9640 C   0  0  0  0  0  3  0  0  0  0  0  0
  185.8820  178.4870  145.7130 C   0  0  0  0  0  0  0  0  0  0  0  0
  182.8720  178.8560  143.7940 C   0  0  0  0  0  0  0  0  0  0  0  0
  189.1640  176.7190  146.4910 C   0  0  0  0  0  1  0  0  0  0  0  0
  187.4290  178.5290  140.5080 C   0  0  0  0  0  3  0  0  0  0  0  0
  184.8530  178.5440  144.7090 N   0  0  0  0  0  0  0  0  0  0  0  0
  181.5090  179.0900  143.6670 O   0  0  0  0  0  1  0  0  0  0  0  0
  187.9480  177.5760  146.6330 C   0  0  0  0  0  0  0  0  0  0  0  0
  188.6380  178.1940  148.8770 O   0  0  0  0  0  1  0  0  0  0  0  0
  188.4880  177.7720  141.0070 C   0  0  0  0  0  0  0  0  0  0  0  0
  185.6820  179.1750  146.9220 C   0  0  0  0  0  3  0  0  0  0  0  0
  188.4130  177.2620  142.3090 C   0  0  0  0  0  3  0  0  0  0  0  0
  184.9720  178.4690  143.3620 C   0  0  0  0  0  0  0  0  0  0  0  0
  187.7330  178.2820  147.8250 C   0  0  0  0  0  0  0  0  0  0  0  0
  187.0360  177.6870  145.5650 C   0  0  0  0  0  0  0  0  0  0  0  0
  186.3060  178.7680  141.3000 C   0  0  0  0  0  3  0  0  0  0  0  0
  183.5550  178.7910  144.9830 C   0  0  0  0  0  3  0  0  0  0  0  0
  186.2260  178.2720  142.6110 C   0  0  0  0  0  0  0  0  0  0  0  0
  187.3010  177.5150  143.1200 C   0  0  0  0  0  0  0  0  0  0  0  0
  187.3020  176.9640  144.4000 O   0  0  0  0  0  0  0  0  0  0  0  0
  183.7430  178.6650  142.7460 C   0  0  0  0  0  3  0  0  0  0  0  0
  189.6260  177.5280  140.1780 N   0  0  0  0  0  2  0  0  0  0  0  0
  190.7350  176.6790  140.5880 C   0  0  0  0  0  2  0  0  0  0  0  0
  191.7540  177.4980  141.3580 C   0  0  0  0  0  2  0  0  0  0  0  0
  191.8810  177.0000  142.6560 O   0  0  0  0  0  0  0  0  0  0  0  0
  191.7010  178.1130  143.4760 C   0  0  0  0  0  1  0  0  0  0  0  0
  2 11  1  0  0  0  0
  3 17  2  0  0  0  0
  4  8  1  0  0  0  0
  5 10  2  0  0  0  0
  5 16  1  0  0  0  0
  6 17  1  0  0  0  0
  6  2  1  0  0  0  0
  7  3  1  0  0  0  0
  8 14  2  0  0  0  0
 10 12  1  0  0  0  0
 11  1  2  0  0  0  0
 12 19  2  0  0  0  0
 13  6  1  0  0  0  0
 14  1  1  0  0  0  0
 14  9  1  0  0  0  0
 15  2  2  0  0  0  0
 15  8  1  0  0  0  0
 16 18  2  0  0  0  0
 18 19  1  0  0  0  0
 18 13  1  0  0  0  0
 19 20  1  0  0  0  0
 20 15  1  0  0  0  0
 21 13  2  0  0  0  0
 21  3  1  0  0  0  0
 22 23  1  0  0  0  0
 22 10  1  0  0  0  0
 23 24  1  0  0  0  0
 24 25  1  0  0  0  0
 25 26  1  0  0  0  0
M  END
>  <MODEL>
2

>  <REMARK>
 VINA RESULT:      -8.8      2.048      5.752
  Name = 
  4 active torsions:
  status: ('A' for Active; 'I' for Inactive)
    1  A    between atoms: C_8  and  O_12
    2  A    between atoms: C_8  and  C_18
    3  A    between atoms: C_11  and  N_20
    4  A    between atoms: C_18  and  N_20
                            x       y       z     vdW  Elec       q    Type
                         _______ _______ _______ _____ _____    ______ ____

>  <TORSDO>
F 4

$$$$
=
 OpenBabel10222416103D

 26 29  0  0  0  0  0  0  0  0999 V2000
  191.8380  177.6560  141.8780 C   0  0  0  0  0  3  0  0  0  0  0  0
  190.6410  177.1070  143.9280 C   0  0  0  0  0  0  0  0  0  0  0  0
  191.5580  176.1940  147.2750 C   0  0  0  0  0  0  0  0  0  0  0  0
  188.1940  177.1190  141.0090 C   0  0  0  0  0  1  0  0  0  0  0  0
  186.4970  178.6470  147.0810 C   0  0  0  0  0  3  0  0  0  0  0  0
  190.7090  176.7850  145.3280 N   0  0  0  0  0  0  0  0  0  0  0  0
  192.4580  175.7340  148.2280 O   0  0  0  0  0  1  0  0  0  0  0  0
  189.4580  177.2270  141.7990 C   0  0  0  0  0  0  0  0  0  0  0  0
  190.6820  177.7830  139.7770 O   0  0  0  0  0  1  0  0  0  0  0  0
  185.7710  178.4570  145.9060 C   0  0  0  0  0  0  0  0  0  0  0  0
  191.8310  177.4250  143.2510 C   0  0  0  0  0  3  0  0  0  0  0  0
  186.3740  177.7990  144.8260 C   0  0  0  0  0  3  0  0  0  0  0  0
  189.7750  176.9700  146.2910 C   0  0  0  0  0  0  0  0  0  0  0  0
  190.6560  177.5560  141.1480 C   0  0  0  0  0  0  0  0  0  0  0  0
  189.4390  177.0180  143.1920 C   0  0  0  0  0  0  0  0  0  0  0  0
  187.8080  178.1810  147.1760 C   0  0  0  0  0  3  0  0  0  0  0  0
  191.8190  176.3110  145.9330 C   0  0  0  0  0  3  0  0  0  0  0  0
  188.4250  177.5320  146.0960 C   0  0  0  0  0  0  0  0  0  0  0  0
  187.6960  177.3480  144.9040 C   0  0  0  0  0  0  0  0  0  0  0  0
  188.2180  176.6960  143.7880 O   0  0  0  0  0  0  0  0  0  0  0  0
  190.2730  176.6120  147.5370 C   0  0  0  0  0  3  0  0  0  0  0  0
  184.4260  178.9320  145.8290 N   0  0  0  0  0  2  0  0  0  0  0  0
  183.8840  179.5840  144.6450 C   0  0  0  0  0  2  0  0  0  0  0  0
  182.8980  178.6610  143.9540 C   0  0  0  0  0  2  0  0  0  0  0  0
  182.8420  178.9590  142.5920 O   0  0  0  0  0  0  0  0  0  0  0  0
  183.9380  178.2930  142.0440 C   0  0  0  0  0  1  0  0  0  0  0  0
  1 11  1  0  0  0  0
  2  6  1  0  0  0  0
  3 21  1  0  0  0  0
  3  7  1  0  0  0  0
  4  8  1  0  0  0  0
  5 16  1  0  0  0  0
  6 17  1  0  0  0  0
  6 13  1  0  0  0  0
  8 15  2  0  0  0  0
  9 14  1  0  0  0  0
 10  5  2  0  0  0  0
 11  2  2  0  0  0  0
 12 19  2  0  0  0  0
 12 10  1  0  0  0  0
 13 21  2  0  0  0  0
 14  8  1  0  0  0  0
 14  1  2  0  0  0  0
 15 20  1  0  0  0  0
 15  2  1  0  0  0  0
 17  3  2  0  0  0  0
 18 13  1  0  0  0  0
 18 16  2  0  0  0  0
 19 18  1  0  0  0  0
 20 19  1  0  0  0  0
 22 10  1  0  0  0  0
 23 22  1  0  0  0  0
 24 23  1  0  0  0  0
 25 24  1  0  0  0  0
 26 25  1  0  0  0  0
M  END
>  <MODEL>
3

>  <REMARK>
 VINA RESULT:      -8.7      2.079      3.065
  Name = 
  4 active torsions:
  status: ('A' for Active; 'I' for Inactive)
    1  A    between atoms: C_8  and  O_12
    2  A    between atoms: C_8  and  C_18
    3  A    between atoms: C_11  and  N_20
    4  A    between atoms: C_18  and  N_20
                            x       y       z     vdW  Elec       q    Type
                         _______ _______ _______ _____ _____    ______ ____

>  <TORSDO>
F 4

$$$$
=
 OpenBabel10222416103D

 26 29  0  0  0  0  0  0  0  0999 V2000
  186.9120  178.9930  147.9660 C   0  0  0  0  0  3  0  0  0  0  0  0
  186.1650  178.4050  145.7230 C   0  0  0  0  0  0  0  0  0  0  0  0
  183.1380  178.7950  143.8340 C   0  0  0  0  0  0  0  0  0  0  0  0
  189.4420  176.6120  146.4680 C   0  0  0  0  0  1  0  0  0  0  0  0
  187.6590  178.4330  140.5020 C   0  0  0  0  0  3  0  0  0  0  0  0
  185.1270  178.4690  144.7300 N   0  0  0  0  0  0  0  0  0  0  0  0
  181.7760  179.0390  143.7210 O   0  0  0  0  0  1  0  0  0  0  0  0
  188.2340  177.4780  146.6220 C   0  0  0  0  0  0  0  0  0  0  0  0
  188.9500  178.0920  148.8580 O   0  0  0  0  0  1  0  0  0  0  0  0
  188.7180  177.6690  140.9910 C   0  0  0  0  0  0  0  0  0  0  0  0
  185.9820  179.0930  146.9340 C   0  0  0  0  0  3  0  0  0  0  0  0
  188.6520  177.1600  142.2940 C   0  0  0  0  0  3  0  0  0  0  0  0
  185.2320  178.3920  143.3810 C   0  0  0  0  0  0  0  0  0  0  0  0
  188.0360  178.1860  147.8160 C   0  0  0  0  0  0  0  0  0  0  0  0
  187.3120  177.5950  145.5640 C   0  0  0  0  0  0  0  0  0  0  0  0
  186.5460  178.6810  141.3060 C   0  0  0  0  0  3  0  0  0  0  0  0
  183.8330  178.7250  145.0170 C   0  0  0  0  0  3  0  0  0  0  0  0
  186.4770  178.1860  142.6180 C   0  0  0  0  0  0  0  0  0  0  0  0
  187.5500  177.4210  143.1150 C   0  0  0  0  0  0  0  0  0  0  0  0
  187.5600  176.8710  144.3960 O   0  0  0  0  0  0  0  0  0  0  0  0
  183.9980  178.5970  142.7780 C   0  0  0  0  0  3  0  0  0  0  0  0
  189.8460  177.4170  140.1510 N   0  0  0  0  0  2  0  0  0  0  0  0
  189.8370  177.6740  138.7170 C   0  0  0  0  0  2  0  0  0  0  0  0
  189.9690  176.3660  137.9590 C   0  0  0  0  0  2  0  0  0  0  0  0
  190.7410  175.4660  138.6960 O   0  0  0  0  0  0  0  0  0  0  0  0
  191.8280  175.1820  137.8710 C   0  0  0  0  0  1  0  0  0  0  0  0
  2 11  1  0  0  0  0
  3 17  2  0  0  0  0
  4  8  1  0  0  0  0
  5 10  2  0  0  0  0
  5 16  1  0  0  0  0
  6 17  1  0  0  0  0
  6  2  1  0  0  0  0
  7  3  1  0  0  0  0
  8 14  2  0  0  0  0
 10 12  1  0  0  0  0
 11  1  2  0  0  0  0
 12 19  2  0  0  0  0
 13  6  1  0  0  0  0
 14  1  1  0  0  0  0
 14  9  1  0  0  0  0
 15  2  2  0  0  0  0
 15  8  1  0  0  0  0
 16 18  2  0  0  0  0
 18 19  1  0  0  0  0
 18 13  1  0  0  0  0
 19 20  1  0  0  0  0
 20 15  1  0  0  0  0
 21 13  2  0  0  0  0
 21  3  1  0  0  0  0
 22 10  1  0  0  0  0
 23 22  1  0  0  0  0
 24 25  1  0  0  0  0
 24 23  1  0  0  0  0
 26 25  1  0  0  0  0
M  END
>  <MODEL>
4

>  <REMARK>
 VINA RESULT:      -8.7      2.392      5.485
  Name = 
  4 active torsions:
  status: ('A' for Active; 'I' for Inactive)
    1  A    between atoms: C_8  and  O_12
    2  A    between atoms: C_8  and  C_18
    3  A    between atoms: C_11  and  N_20
    4  A    between atoms: C_18  and  N_20
                            x       y       z     vdW  Elec       q    Type
                         _______ _______ _______ _____ _____    ______ ____

>  <TORSDO>
F 4

$$$$
=
 OpenBabel10222416103D

 26 29  0  0  0  0  0  0  0  0999 V2000
  191.3910  178.2600  143.5740 C   0  0  0  0  0  3  0  0  0  0  0  0
  189.2190  177.9000  144.6170 C   0  0  0  0  0  0  0  0  0  0  0  0
  187.9510  177.8760  147.9750 C   0  0  0  0  0  0  0  0  0  0  0  0
  189.0500  176.8360  140.9640 C   0  0  0  0  0  1  0  0  0  0  0  0
  183.9520  179.1670  144.2310 C   0  0  0  0  0  3  0  0  0  0  0  0
  188.4360  177.8840  145.8240 N   0  0  0  0  0  0  0  0  0  0  0  0
  188.1060  177.8060  149.3530 O   0  0  0  0  0  1  0  0  0  0  0  0
  189.5680  177.3520  142.2670 C   0  0  0  0  0  0  0  0  0  0  0  0
  191.7440  177.7300  141.2590 O   0  0  0  0  0  1  0  0  0  0  0  0
  184.0980  178.6040  142.9640 C   0  0  0  0  0  0  0  0  0  0  0  0
  190.5600  178.3110  144.6910 C   0  0  0  0  0  3  0  0  0  0  0  0
  185.2590  177.8800  142.6640 C   0  0  0  0  0  3  0  0  0  0  0  0
  187.1020  178.0650  145.9770 C   0  0  0  0  0  0  0  0  0  0  0  0
  190.9000  177.7800  142.3620 C   0  0  0  0  0  0  0  0  0  0  0  0
  188.7160  177.4250  143.3860 C   0  0  0  0  0  0  0  0  0  0  0  0
  184.9540  179.0040  145.1880 C   0  0  0  0  0  3  0  0  0  0  0  0
  188.9690  177.7740  147.0600 C   0  0  0  0  0  3  0  0  0  0  0  0
  186.1270  178.2910  144.8930 C   0  0  0  0  0  0  0  0  0  0  0  0
  186.2790  177.7300  143.6100 C   0  0  0  0  0  0  0  0  0  0  0  0
  187.3980  176.9890  143.2340 O   0  0  0  0  0  0  0  0  0  0  0  0
  186.7550  178.0700  147.3210 C   0  0  0  0  0  3  0  0  0  0  0  0
  183.0580  178.7730  141.9990 N   0  0  0  0  0  2  0  0  0  0  0  0
  181.6870  179.1030  142.3630 C   0  0  0  0  0  2  0  0  0  0  0  0
  180.7260  178.1720  141.6490 C   0  0  0  0  0  2  0  0  0  0  0  0
  179.6710  177.8360  142.4980 O   0  0  0  0  0  0  0  0  0  0  0  0
  180.0430  178.3530  143.7390 C   0  0  0  0  0  1  0  0  0  0  0  0
  1 11  1  0  0  0  0
  2 11  2  0  0  0  0
  2  6  1  0  0  0  0
  3  7  1  0  0  0  0
  4  8  1  0  0  0  0
  5 16  1  0  0  0  0
  6 13  1  0  0  0  0
  6 17  1  0  0  0  0
  8 14  1  0  0  0  0
  8 15  2  0  0  0  0
  9 14  1  0  0  0  0
 10  5  2  0  0  0  0
 12 10  1  0  0  0  0
 12 19  2  0  0  0  0
 13 21  2  0  0  0  0
 14  1  2  0  0  0  0
 15  2  1  0  0  0  0
 17  3  2  0  0  0  0
 18 16  2  0  0  0  0
 18 13  1  0  0  0  0
 19 18  1  0  0  0  0
 20 15  1  0  0  0  0
 20 19  1  0  0  0  0
 21  3  1  0  0  0  0
 22 23  1  0  0  0  0
 22 10  1  0  0  0  0
 24 23  1  0  0  0  0
 24 25  1  0  0  0  0
 25 26  1  0  0  0  0
M  END
>  <MODEL>
5

>  <REMARK>
 VINA RESULT:      -8.5      1.671      2.099
  Name = 
  4 active torsions:
  status: ('A' for Active; 'I' for Inactive)
    1  A    between atoms: C_8  and  O_12
    2  A    between atoms: C_8  and  C_18
    3  A    between atoms: C_11  and  N_20
    4  A    between atoms: C_18  and  N_20
                            x       y       z     vdW  Elec       q    Type
                         _______ _______ _______ _____ _____    ______ ____

>  <TORSDO>
F 4

$$$$
=
 OpenBabel10222416103D

 26 29  0  0  0  0  0  0  0  0999 V2000
  189.7630  178.0610  148.0360 C   0  0  0  0  0  3  0  0  0  0  0  0
  188.2680  177.7900  146.1310 C   0  0  0  0  0  0  0  0  0  0  0  0
  184.8220  178.5190  145.4420 C   0  0  0  0  0  0  0  0  0  0  0  0
  191.4620  175.8090  145.5140 C   0  0  0  0  0  1  0  0  0  0  0  0
  187.9290  178.4380  140.7500 C   0  0  0  0  0  3  0  0  0  0  0  0
  186.9650  178.0150  145.5640 N   0  0  0  0  0  0  0  0  0  0  0  0
  183.5220  178.8200  145.8270 O   0  0  0  0  0  1  0  0  0  0  0  0
  190.4430  176.6880  146.1640 C   0  0  0  0  0  0  0  0  0  0  0  0
  191.9090  176.9860  148.0750 O   0  0  0  0  0  1  0  0  0  0  0  0
  189.0300  177.5820  140.7620 C   0  0  0  0  0  0  0  0  0  0  0  0
  188.5520  178.3240  147.3990 C   0  0  0  0  0  3  0  0  0  0  0  0
  189.3660  176.9130  141.9450 C   0  0  0  0  0  3  0  0  0  0  0  0
  186.6070  178.1090  144.2610 C   0  0  0  0  0  0  0  0  0  0  0  0
  190.7090  177.2430  147.4230 C   0  0  0  0  0  0  0  0  0  0  0  0
  189.2320  176.9700  145.5030 C   0  0  0  0  0  0  0  0  0  0  0  0
  187.1700  178.6170  141.9070 C   0  0  0  0  0  3  0  0  0  0  0  0
  185.8640  178.2750  146.3010 C   0  0  0  0  0  3  0  0  0  0  0  0
  187.5060  177.9600  143.1010 C   0  0  0  0  0  0  0  0  0  0  0  0
  188.6240  177.1030  143.1170 C   0  0  0  0  0  0  0  0  0  0  0  0
  189.0210  176.3930  144.2480 O   0  0  0  0  0  0  0  0  0  0  0  0
  185.2610  178.4290  144.1400 C   0  0  0  0  0  3  0  0  0  0  0  0
  189.7900  177.4030  139.5650 N   0  0  0  0  0  2  0  0  0  0  0  0
  191.2120  177.0910  139.5720 C   0  0  0  0  0  2  0  0  0  0  0  0
  191.5540  176.2180  138.3790 C   0  0  0  0  0  2  0  0  0  0  0  0
  190.8950  174.9920  138.4850 O   0  0  0  0  0  0  0  0  0  0  0  0
  190.5750  174.6530  137.1710 C   0  0  0  0  0  1  0  0  0  0  0  0
  2 11  1  0  0  0  0
  3  7  1  0  0  0  0
  3 17  2  0  0  0  0
  4  8  1  0  0  0  0
  5 10  2  0  0  0  0
  5 16  1  0  0  0  0
  6  2  1  0  0  0  0
  6 17  1  0  0  0  0
  8 14  2  0  0  0  0
 10 12  1  0  0  0  0
 11  1  2  0  0  0  0
 12 19  2  0  0  0  0
 13  6  1  0  0  0  0
 14  1  1  0  0  0  0
 14  9  1  0  0  0  0
 15  2  2  0  0  0  0
 15  8  1  0  0  0  0
 16 18  2  0  0  0  0
 18 19  1  0  0  0  0
 18 13  1  0  0  0  0
 19 20  1  0  0  0  0
 20 15  1  0  0  0  0
 21 13  2  0  0  0  0
 21  3  1  0  0  0  0
 22 23  1  0  0  0  0
 22 10  1  0  0  0  0
 24 25  1  0  0  0  0
 24 23  1  0  0  0  0
 26 25  1  0  0  0  0
M  END
>  <MODEL>
6

>  <REMARK>
 VINA RESULT:      -8.3      2.744      4.945
  Name = 
  4 active torsions:
  status: ('A' for Active; 'I' for Inactive)
    1  A    between atoms: C_8  and  O_12
    2  A    between atoms: C_8  and  C_18
    3  A    between atoms: C_11  and  N_20
    4  A    between atoms: C_18  and  N_20
                            x       y       z     vdW  Elec       q    Type
                         _______ _______ _______ _____ _____    ______ ____

>  <TORSDO>
F 4

$$$$
=
 OpenBabel10222416103D

 26 29  0  0  0  0  0  0  0  0999 V2000
  182.2480  178.5960  141.5800 C   0  0  0  0  0  3  0  0  0  0  0  0
  184.3840  178.6150  142.7510 C   0  0  0  0  0  0  0  0  0  0  0  0
  185.4360  178.7010  146.1810 C   0  0  0  0  0  0  0  0  0  0  0  0
  184.9750  179.2780  139.0470 C   0  0  0  0  0  1  0  0  0  0  0  0
  189.2960  176.3010  142.8620 C   0  0  0  0  0  3  0  0  0  0  0  0
  185.0840  178.5890  144.0080 N   0  0  0  0  0  0  0  0  0  0  0  0
  185.2210  178.9290  147.5340 O   0  0  0  0  0  1  0  0  0  0  0  0
  184.2880  178.9990  140.3450 C   0  0  0  0  0  0  0  0  0  0  0  0
  182.1420  178.9670  139.2100 O   0  0  0  0  0  1  0  0  0  0  0  0
  189.3400  176.7610  141.5470 C   0  0  0  0  0  0  0  0  0  0  0  0
  182.9850  178.4870  142.7560 C   0  0  0  0  0  3  0  0  0  0  0  0
  188.3700  177.6680  141.1040 C   0  0  0  0  0  3  0  0  0  0  0  0
  186.3420  178.1630  144.2730 C   0  0  0  0  0  0  0  0  0  0  0  0
  182.8940  178.8540  140.3740 C   0  0  0  0  0  0  0  0  0  0  0  0
  185.0430  178.8640  141.5270 C   0  0  0  0  0  0  0  0  0  0  0  0
  188.2950  176.7480  143.7250 C   0  0  0  0  0  3  0  0  0  0  0  0
  184.5150  178.9170  145.1870 C   0  0  0  0  0  3  0  0  0  0  0  0
  187.3110  177.6480  143.2880 C   0  0  0  0  0  0  0  0  0  0  0  0
  187.3490  178.1050  141.9560 C   0  0  0  0  0  0  0  0  0  0  0  0
  186.4290  179.0150  141.4390 O   0  0  0  0  0  0  0  0  0  0  0  0
  186.6030  178.2150  145.6360 C   0  0  0  0  0  3  0  0  0  0  0  0
  190.3780  176.3000  140.6790 N   0  0  0  0  0  2  0  0  0  0  0  0
  191.1010  177.1820  139.7740 C   0  0  0  0  0  2  0  0  0  0  0  0
  191.0810  176.6080  138.3690 C   0  0  0  0  0  2  0  0  0  0  0  0
  190.9450  175.2200  138.4250 O   0  0  0  0  0  0  0  0  0  0  0  0
  192.0000  174.7350  137.6540 C   0  0  0  0  0  1  0  0  0  0  0  0
  1 11  1  0  0  0  0
  2 11  2  0  0  0  0
  2  6  1  0  0  0  0
  3  7  1  0  0  0  0
  4  8  1  0  0  0  0
  5 16  1  0  0  0  0
  6 13  1  0  0  0  0
  6 17  1  0  0  0  0
  8 14  1  0  0  0  0
  8 15  2  0  0  0  0
  9 14  1  0  0  0  0
 10  5  2  0  0  0  0
 12 10  1  0  0  0  0
 12 19  2  0  0  0  0
 13 21  2  0  0  0  0
 14  1  2  0  0  0  0
 15  2  1  0  0  0  0
 17  3  2  0  0  0  0
 18 16  2  0  0  0  0
 18 13  1  0  0  0  0
 19 18  1  0  0  0  0
 20 15  1  0  0  0  0
 20 19  1  0  0  0  0
 21  3  1  0  0  0  0
 22 10  1  0  0  0  0
 23 22  1  0  0  0  0
 24 25  1  0  0  0  0
 24 23  1  0  0  0  0
 26 25  1  0  0  0  0
M  END
>  <MODEL>
7

>  <REMARK>
 VINA RESULT:      -7.9      2.332      5.957
  Name = 
  4 active torsions:
  status: ('A' for Active; 'I' for Inactive)
    1  A    between atoms: C_8  and  O_12
    2  A    between atoms: C_8  and  C_18
    3  A    between atoms: C_11  and  N_20
    4  A    between atoms: C_18  and  N_20
                            x       y       z     vdW  Elec       q    Type
                         _______ _______ _______ _____ _____    ______ ____

>  <TORSDO>
F 4

$$$$
=
 OpenBabel10222416103D

 26 29  0  0  0  0  0  0  0  0999 V2000
  183.1290  178.4570  144.1310 C   0  0  0  0  0  3  0  0  0  0  0  0
  185.5320  178.3640  144.5230 C   0  0  0  0  0  0  0  0  0  0  0  0
  187.6620  178.1850  147.4060 C   0  0  0  0  0  0  0  0  0  0  0  0
  184.8870  179.2900  140.8850 C   0  0  0  0  0  1  0  0  0  0  0  0
  190.1170  175.9880  142.8430 C   0  0  0  0  0  3  0  0  0  0  0  0
  186.6060  178.2370  145.4710 N   0  0  0  0  0  0  0  0  0  0  0  0
  187.9140  178.3150  148.7650 O   0  0  0  0  0  1  0  0  0  0  0  0
  184.6590  178.9250  142.3170 C   0  0  0  0  0  0  0  0  0  0  0  0
  182.2590  179.0030  141.9600 O   0  0  0  0  0  1  0  0  0  0  0  0
  189.7400  176.5420  141.6210 C   0  0  0  0  0  0  0  0  0  0  0  0
  184.2090  178.2530  144.9850 C   0  0  0  0  0  3  0  0  0  0  0  0
  188.7110  177.4920  141.5860 C   0  0  0  0  0  3  0  0  0  0  0  0
  187.8650  177.7770  145.2750 C   0  0  0  0  0  0  0  0  0  0  0  0
  183.3490  178.7950  142.7980 C   0  0  0  0  0  0  0  0  0  0  0  0
  185.7570  178.6940  143.1680 C   0  0  0  0  0  0  0  0  0  0  0  0
  189.4750  176.3820  144.0170 C   0  0  0  0  0  3  0  0  0  0  0  0
  186.4720  178.4850  146.7910 C   0  0  0  0  0  3  0  0  0  0  0  0
  188.4340  177.3240  143.9920 C   0  0  0  0  0  0  0  0  0  0  0  0
  188.0470  177.8780  142.7560 C   0  0  0  0  0  0  0  0  0  0  0  0
  187.0400  178.8340  142.6350 O   0  0  0  0  0  0  0  0  0  0  0  0
  188.5640  177.7260  146.4740 C   0  0  0  0  0  3  0  0  0  0  0  0
  190.4150  176.1340  140.4290 N   0  0  0  0  0  2  0  0  0  0  0  0
  190.9990  177.0790  139.4890 C   0  0  0  0  0  2  0  0  0  0  0  0
  191.1240  176.4340  138.1210 C   0  0  0  0  0  2  0  0  0  0  0  0
  191.1780  175.0460  138.2540 O   0  0  0  0  0  0  0  0  0  0  0  0
  192.3490  174.6770  137.5930 C   0  0  0  0  0  1  0  0  0  0  0  0
  1 11  1  0  0  0  0
  2 11  2  0  0  0  0
  2  6  1  0  0  0  0
  3  7  1  0  0  0  0
  4  8  1  0  0  0  0
  5 16  1  0  0  0  0
  6 17  1  0  0  0  0
  8 14  1  0  0  0  0
  8 15  2  0  0  0  0
  9 14  1  0  0  0  0
 10  5  2  0  0  0  0
 12 10  1  0  0  0  0
 12 19  2  0  0  0  0
 13  6  1  0  0  0  0
 13 21  2  0  0  0  0
 14  1  2  0  0  0  0
 15  2  1  0  0  0  0
 17  3  2  0  0  0  0
 18 16  2  0  0  0  0
 18 13  1  0  0  0  0
 19 18  1  0  0  0  0
 20 19  1  0  0  0  0
 20 15  1  0  0  0  0
 21  3  1  0  0  0  0
 22 10  1  0  0  0  0
 23 22  1  0  0  0  0
 24 25  1  0  0  0  0
 24 23  1  0  0  0  0
 26 25  1  0  0  0  0
M  END
>  <MODEL>
8

>  <REMARK>
 VINA RESULT:      -7.8      2.293      5.620
  Name = 
  4 active torsions:
  status: ('A' for Active; 'I' for Inactive)
    1  A    between atoms: C_8  and  O_12
    2  A    between atoms: C_8  and  C_18
    3  A    between atoms: C_11  and  N_20
    4  A    between atoms: C_18  and  N_20
                            x       y       z     vdW  Elec       q    Type
                         _______ _______ _______ _____ _____    ______ ____

>  <TORSDO>
F 4

$$$$
=
 OpenBabel10222416103D

 26 29  0  0  0  0  0  0  0  0999 V2000
  189.8070  176.6820  138.4940 C   0  0  0  0  0  3  0  0  0  0  0  0
  188.4460  177.6830  140.2490 C   0  0  0  0  0  0  0  0  0  0  0  0
  185.1190  179.0080  140.4810 C   0  0  0  0  0  0  0  0  0  0  0  0
  192.0630  177.4820  141.4250 C   0  0  0  0  0  1  0  0  0  0  0  0
  186.9880  177.1450  145.4520 C   0  0  0  0  0  3  0  0  0  0  0  0
  187.1690  178.2140  140.6450 N   0  0  0  0  0  0  0  0  0  0  0  0
  183.9470  179.5100  139.9290 O   0  0  0  0  0  1  0  0  0  0  0  0
  190.8400  177.3600  140.5730 C   0  0  0  0  0  0  0  0  0  0  0  0
  192.1650  176.3530  138.8060 O   0  0  0  0  0  1  0  0  0  0  0  0
  188.3640  177.2270  145.6560 C   0  0  0  0  0  0  0  0  0  0  0  0
  188.5750  177.1280  138.9640 C   0  0  0  0  0  3  0  0  0  0  0  0
  189.1920  177.6310  144.6000 C   0  0  0  0  0  3  0  0  0  0  0  0
  186.6260  178.2920  141.8830 C   0  0  0  0  0  0  0  0  0  0  0  0
  190.9420  176.7980  139.2930 C   0  0  0  0  0  0  0  0  0  0  0  0
  189.5930  177.7890  141.0660 C   0  0  0  0  0  0  0  0  0  0  0  0
  186.4450  177.4690  144.2090 C   0  0  0  0  0  3  0  0  0  0  0  0
  186.2370  178.6500  139.7710 C   0  0  0  0  0  3  0  0  0  0  0  0
  187.2660  177.8630  143.1410 C   0  0  0  0  0  0  0  0  0  0  0  0
  188.6590  177.9370  143.3430 C   0  0  0  0  0  0  0  0  0  0  0  0
  189.5490  178.3380  142.3490 O   0  0  0  0  0  0  0  0  0  0  0  0
  185.3290  178.7860  141.8230 C   0  0  0  0  0  3  0  0  0  0  0  0
  188.9030  176.9010  146.9380 N   0  0  0  0  0  2  0  0  0  0  0  0
  189.9920  177.6490  147.5520 C   0  0  0  0  0  2  0  0  0  0  0  0
  191.2040  176.7510  147.7170 C   0  0  0  0  0  2  0  0  0  0  0  0
  192.0530  176.8930  146.6180 O   0  0  0  0  0  0  0  0  0  0  0  0
  192.0500  175.6380  146.0110 C   0  0  0  0  0  1  0  0  0  0  0  0
  1 11  2  0  0  0  0
  1 14  1  0  0  0  0
  2  6  1  0  0  0  0
  2 15  2  0  0  0  0
  3 21  1  0  0  0  0
  5 10  1  0  0  0  0
  6 13  1  0  0  0  0
  7  3  1  0  0  0  0
  8 15  1  0  0  0  0
  8  4  1  0  0  0  0
  9 14  1  0  0  0  0
 10 22  1  0  0  0  0
 11  2  1  0  0  0  0
 12 10  2  0  0  0  0
 13 18  1  0  0  0  0
 14  8  2  0  0  0  0
 15 20  1  0  0  0  0
 16  5  2  0  0  0  0
 17  3  2  0  0  0  0
 17  6  1  0  0  0  0
 18 19  2  0  0  0  0
 18 16  1  0  0  0  0
 19 12  1  0  0  0  0
 20 19  1  0  0  0  0
 21 13  2  0  0  0  0
 22 23  1  0  0  0  0
 23 24  1  0  0  0  0
 25 24  1  0  0  0  0
 26 25  1  0  0  0  0
M  END
>  <MODEL>
9

>  <REMARK>
 VINA RESULT:      -7.7      2.111      6.295
  Name = 
  4 active torsions:
  status: ('A' for Active; 'I' for Inactive)
    1  A    between atoms: C_8  and  O_12
    2  A    between atoms: C_8  and  C_18
    3  A    between atoms: C_11  and  N_20
    4  A    between atoms: C_18  and  N_20
                            x       y       z     vdW  Elec       q    Type
                         _______ _______ _______ _____ _____    ______ ____

>  <TORSDO>
F 4

$$$$
