=
 OpenBabel10222416103D

 26 27  0  0  1  0  0  0  0  0999 V2000
  188.0800  177.5730  144.9970 C   0  0  0  0  0  0  0  0  0  0  0  0
  189.9820  176.9210  146.3150 N   0  0  0  0  0  0  0  0  0  0  0  0
  187.4980  177.7460  143.7380 C   0  0  0  0  0  3  0  0  0  0  0  0
  190.1380  176.8200  143.9200 C   0  0  0  0  0  0  0  0  0  0  0  0
  191.4540  176.3530  144.0470 C   0  0  0  0  0  3  0  0  0  0  0  0
  188.2220  177.4660  142.5790 C   0  0  0  0  0  3  0  0  0  0  0  0
  189.4030  177.1050  145.0950 C   0  0  0  0  0  0  0  0  0  0  0  0
  189.5450  177.0060  142.6550 C   0  0  0  0  0  0  0  0  0  0  0  0
  192.0160  176.1760  145.3110 C   0  0  0  0  0  3  0  0  0  0  0  0
  191.2570  176.4690  146.4450 C   0  0  0  0  0  0  0  0  0  0  0  0
  191.8440  176.2850  147.7970 C   0  0  0  0  0  1  0  0  0  0  0  0
  191.4050  177.5400  141.2680 O   0  0  0  0  0  1  0  0  0  0  0  0
  190.2970  176.6990  141.3920 C   0  0  2  0  0  3  0  0  0  0  0  0
  189.3900  176.8450  140.1820 C   0  0  0  0  0  2  0  0  0  0  0  0
  189.9040  177.8150  139.3180 O   0  0  0  0  0  0  0  0  0  0  0  0
  188.9850  179.6640  137.4610 O   0  0  0  0  0  1  0  0  0  0  0  0
  188.3350  177.1310  137.3220 O   0  0  0  0  0  0  0  0  0  0  0  0
  188.6140  178.2460  138.3050 P   0  0  0  0  0  0  0  0  0  0  0  0
  187.2360  178.5090  139.2500 O   0  0  0  0  0  1  0  0  0  0  0  0
  187.2680  177.8680  146.2160 C   0  0  0  0  0  2  0  0  0  0  0  0
  185.8180  177.8560  145.8800 C   0  0  0  0  0  3  0  0  0  0  0  0
  185.1380  178.9910  145.8450 C   0  0  0  0  0  3  0  0  0  0  0  0
  183.7470  178.9790  145.5240 N   0  0  0  0  0  2  0  0  0  0  0  0
  183.2510  178.9410  144.1810 C   0  0  0  0  0  0  0  0  0  0  0  0
  184.0670  179.0160  143.1360 C   0  0  0  0  0  2  0  0  0  0  0  0
  181.7880  178.8160  143.9510 C   0  0  0  0  0  1  0  0  0  0  0  0
  1  7  1  0  0  0  0
  1 20  1  0  0  0  0
  2 10  1  0  0  0  0
  3  1  2  0  0  0  0
  4  5  2  0  0  0  0
  4  7  1  0  0  0  0
  5  9  1  0  0  0  0
  6  8  2  0  0  0  0
  6  3  1  0  0  0  0
  7  2  2  0  0  0  0
  8  4  1  0  0  0  0
  9 10  2  0  0  0  0
 10 11  1  0  0  0  0
 13 12  1  6  0  0  0
 13  8  1  0  0  0  0
 14 13  1  0  0  0  0
 15 14  1  0  0  0  0
 16 18  1  0  0  0  0
 17 18  2  0  0  0  0
 18 19  1  0  0  0  0
 18 15  1  0  0  0  0
 21 20  1  0  0  0  0
 22 21  2  0  0  0  0
 23 22  1  0  0  0  0
 24 23  1  0  0  0  0
 25 24  2  0  0  0  0
 26 24  1  0  0  0  0
M  END
>  <MODEL>
1

>  <REMARK>
 VINA RESULT:      -8.5      0.000      0.000
  Name = 
  8 active torsions:
  status: ('A' for Active; 'I' for Inactive)
    1  A    between atoms: C_1  and  C_13
    2  A    between atoms: N_4  and  C_7
    3  A    between atoms: N_4  and  C_17
    4  A    between atoms: C_8  and  C_13
    5  A    between atoms: O_9  and  C_11
    6  A    between atoms: O_9  and  P_23
    7  A    between atoms: C_11  and  C_20
    8  A    between atoms: C_19  and  C_20
                            x       y       z     vdW  Elec       q    Type
                         _______ _______ _______ _____ _____    ______ ____

>  <TORSDO>
F 8

$$$$
=
 OpenBabel10222416103D

 26 27  0  0  1  0  0  0  0  0999 V2000
  185.7920  178.3270  144.6980 C   0  0  0  0  0  0  0  0  0  0  0  0
  186.9920  178.0700  146.7650 N   0  0  0  0  0  0  0  0  0  0  0  0
  185.7820  178.2570  143.3020 C   0  0  0  0  0  3  0  0  0  0  0  0
  188.1370  177.6460  144.6960 C   0  0  0  0  0  0  0  0  0  0  0  0
  189.2950  177.3420  145.4240 C   0  0  0  0  0  3  0  0  0  0  0  0
  186.9330  177.8920  142.6040 C   0  0  0  0  0  3  0  0  0  0  0  0
  186.9680  178.0170  145.4030 C   0  0  0  0  0  0  0  0  0  0  0  0
  188.1190  177.5880  143.2880 C   0  0  0  0  0  0  0  0  0  0  0  0
  189.2850  177.4050  146.8180 C   0  0  0  0  0  3  0  0  0  0  0  0
  188.1120  177.7760  147.4770 C   0  0  0  0  0  0  0  0  0  0  0  0
  188.0870  177.8480  148.9600 C   0  0  0  0  0  1  0  0  0  0  0  0
  190.3550  178.1300  142.6740 O   0  0  0  0  0  1  0  0  0  0  0  0
  189.3410  177.1850  142.5120 C   0  0  2  0  0  3  0  0  0  0  0  0
  189.0070  177.0210  141.0390 C   0  0  0  0  0  2  0  0  0  0  0  0
  189.4670  178.1290  140.3230 O   0  0  0  0  0  0  0  0  0  0  0  0
  186.9240  178.4650  139.2560 O   0  0  0  0  0  1  0  0  0  0  0  0
  189.0730  179.2290  137.9680 O   0  0  0  0  0  0  0  0  0  0  0  0
  188.5480  178.1580  138.8970 P   0  0  0  0  0  0  0  0  0  0  0  0
  188.6710  176.6540  138.1330 O   0  0  0  0  0  1  0  0  0  0  0  0
  184.5350  178.7050  145.4110 C   0  0  0  0  0  2  0  0  0  0  0  0
  183.5750  179.3320  144.4610 C   0  0  0  0  0  3  0  0  0  0  0  0
  182.4320  178.7280  144.1820 C   0  0  0  0  0  3  0  0  0  0  0  0
  181.5120  179.3290  143.2700 N   0  0  0  0  0  2  0  0  0  0  0  0
  181.3090  178.8570  141.9340 C   0  0  0  0  0  0  0  0  0  0  0  0
  180.0950  178.7630  141.4050 C   0  0  0  0  0  2  0  0  0  0  0  0
  182.4870  178.4630  141.1170 C   0  0  0  0  0  1  0  0  0  0  0  0
  1  7  1  0  0  0  0
  1 20  1  0  0  0  0
  2 10  1  0  0  0  0
  3  1  2  0  0  0  0
  4  7  1  0  0  0  0
  4  5  2  0  0  0  0
  5  9  1  0  0  0  0
  6  8  2  0  0  0  0
  6  3  1  0  0  0  0
  7  2  2  0  0  0  0
  8  4  1  0  0  0  0
  9 10  2  0  0  0  0
 10 11  1  0  0  0  0
 13 12  1  6  0  0  0
 13  8  1  0  0  0  0
 14 13  1  0  0  0  0
 15 14  1  0  0  0  0
 17 18  2  0  0  0  0
 18 16  1  0  0  0  0
 18 15  1  0  0  0  0
 19 18  1  0  0  0  0
 21 20  1  0  0  0  0
 22 21  2  0  0  0  0
 23 22  1  0  0  0  0
 24 23  1  0  0  0  0
 25 24  2  0  0  0  0
 26 24  1  0  0  0  0
M  END
>  <MODEL>
2

>  <REMARK>
 VINA RESULT:      -8.3      1.665      2.703
  Name = 
  8 active torsions:
  status: ('A' for Active; 'I' for Inactive)
    1  A    between atoms: C_1  and  C_13
    2  A    between atoms: N_4  and  C_7
    3  A    between atoms: N_4  and  C_17
    4  A    between atoms: C_8  and  C_13
    5  A    between atoms: O_9  and  C_11
    6  A    between atoms: O_9  and  P_23
    7  A    between atoms: C_11  and  C_20
    8  A    between atoms: C_19  and  C_20
                            x       y       z     vdW  Elec       q    Type
                         _______ _______ _______ _____ _____    ______ ____

>  <TORSDO>
F 8

$$$$
=
 OpenBabel10222416103D

 26 27  0  0  1  0  0  0  0  0999 V2000
  185.7870  178.2900  144.6130 C   0  0  0  0  0  0  0  0  0  0  0  0
  186.9640  178.0310  146.6920 N   0  0  0  0  0  0  0  0  0  0  0  0
  185.7940  178.2290  143.2160 C   0  0  0  0  0  3  0  0  0  0  0  0
  188.1380  177.6320  144.6340 C   0  0  0  0  0  0  0  0  0  0  0  0
  189.2900  177.3340  145.3750 C   0  0  0  0  0  3  0  0  0  0  0  0
  186.9570  177.8790  142.5300 C   0  0  0  0  0  3  0  0  0  0  0  0
  186.9580  177.9870  145.3300 C   0  0  0  0  0  0  0  0  0  0  0  0
  188.1370  177.5830  143.2260 C   0  0  0  0  0  0  0  0  0  0  0  0
  189.2630  177.3890  146.7680 C   0  0  0  0  0  3  0  0  0  0  0  0
  188.0790  177.7440  147.4160 C   0  0  0  0  0  0  0  0  0  0  0  0
  188.0360  177.8070  148.8990 C   0  0  0  0  0  1  0  0  0  0  0  0
  190.3660  178.1640  142.6190 O   0  0  0  0  0  1  0  0  0  0  0  0
  189.3720  177.1960  142.4620 C   0  0  2  0  0  3  0  0  0  0  0  0
  189.0510  177.0090  140.9890 C   0  0  0  0  0  2  0  0  0  0  0  0
  189.4360  178.1440  140.2720 O   0  0  0  0  0  0  0  0  0  0  0  0
  188.5440  176.6260  138.1240 O   0  0  0  0  0  1  0  0  0  0  0  0
  187.0430  178.4650  139.2310 O   0  0  0  0  0  1  0  0  0  0  0  0
  188.4760  178.1410  138.8730 P   0  0  0  0  0  0  0  0  0  0  0  0
  189.0590  179.3140  137.8040 O   0  0  0  0  0  0  0  0  0  0  0  0
  184.5180  178.6520  145.3140 C   0  0  0  0  0  2  0  0  0  0  0  0
  183.5890  179.3340  144.3720 C   0  0  0  0  0  3  0  0  0  0  0  0
  182.4240  178.7800  144.0740 C   0  0  0  0  0  3  0  0  0  0  0  0
  181.5340  179.4340  143.1700 N   0  0  0  0  0  0  0  0  0  0  0  0
  180.1150  179.4760  143.3570 C   0  0  0  0  0  0  0  0  0  0  0  0
  179.5160  178.7530  144.2970 C   0  0  0  0  0  1  0  0  0  0  0  0
  179.2930  180.3480  142.4800 C   0  0  0  0  0  1  0  0  0  0  0  0
  1 20  1  0  0  0  0
  1  7  1  0  0  0  0
  2 10  1  0  0  0  0
  3  1  2  0  0  0  0
  4  7  1  0  0  0  0
  4  5  2  0  0  0  0
  5  9  1  0  0  0  0
  6  3  1  0  0  0  0
  6  8  2  0  0  0  0
  7  2  2  0  0  0  0
  8  4  1  0  0  0  0
  9 10  2  0  0  0  0
 10 11  1  0  0  0  0
 13 12  1  6  0  0  0
 13  8  1  0  0  0  0
 14 13  1  0  0  0  0
 15 14  1  0  0  0  0
 16 18  1  0  0  0  0
 18 17  1  0  0  0  0
 18 15  1  0  0  0  0
 19 18  2  0  0  0  0
 21 20  1  0  0  0  0
 22 21  2  0  0  0  0
 23 24  2  0  0  0  0
 23 22  1  0  0  0  0
 24 25  1  0  0  0  0
 26 24  1  0  0  0  0
M  END
>  <MODEL>
3

>  <REMARK>
 VINA RESULT:      -8.3      1.649      2.771
  Name = 
  8 active torsions:
  status: ('A' for Active; 'I' for Inactive)
    1  A    between atoms: C_1  and  C_13
    2  A    between atoms: N_4  and  C_7
    3  A    between atoms: N_4  and  C_17
    4  A    between atoms: C_8  and  C_13
    5  A    between atoms: O_9  and  C_11
    6  A    between atoms: O_9  and  P_23
    7  A    between atoms: C_11  and  C_20
    8  A    between atoms: C_19  and  C_20
                            x       y       z     vdW  Elec       q    Type
                         _______ _______ _______ _____ _____    ______ ____

>  <TORSDO>
F 8

$$$$
=
 OpenBabel10222416103D

 26 27  0  0  1  0  0  0  0  0999 V2000
  187.1610  178.0600  143.0490 C   0  0  0  0  0  0  0  0  0  0  0  0
  184.8620  178.6200  143.4710 N   0  0  0  0  0  0  0  0  0  0  0  0
  188.4100  177.6750  143.5440 C   0  0  0  0  0  3  0  0  0  0  0  0
  186.2830  178.0700  145.3280 C   0  0  0  0  0  0  0  0  0  0  0  0
  185.1970  178.2710  146.1910 C   0  0  0  0  0  3  0  0  0  0  0  0
  188.6030  177.4930  144.9140 C   0  0  0  0  0  3  0  0  0  0  0  0
  186.0890  178.2550  143.9380 C   0  0  0  0  0  0  0  0  0  0  0  0
  187.5490  177.6920  145.8180 C   0  0  0  0  0  0  0  0  0  0  0  0
  183.9540  178.6440  145.6800 C   0  0  0  0  0  3  0  0  0  0  0  0
  183.8040  178.8160  144.3030 C   0  0  0  0  0  0  0  0  0  0  0  0
  182.4860  179.2140  143.7450 C   0  0  0  0  0  1  0  0  0  0  0  0
  187.9360  178.6990  147.9410 O   0  0  0  0  0  1  0  0  0  0  0  0
  187.7810  177.4760  147.2860 C   0  0  2  0  0  3  0  0  0  0  0  0
  189.0030  176.6020  147.5100 C   0  0  0  0  0  2  0  0  0  0  0  0
  190.0620  177.3810  147.9840 O   0  0  0  0  0  0  0  0  0  0  0  0
  192.7340  176.8920  148.5630 O   0  0  0  0  0  1  0  0  0  0  0  0
  191.2210  175.0930  147.4090 O   0  0  0  0  0  1  0  0  0  0  0  0
  191.4710  176.5820  147.4810 P   0  0  0  0  0  0  0  0  0  0  0  0
  191.9050  177.1450  145.9470 O   0  0  0  0  0  0  0  0  0  0  0  0
  186.9890  178.2290  141.5750 C   0  0  0  0  0  2  0  0  0  0  0  0
  188.3180  178.2970  140.9080 C   0  0  0  0  0  3  0  0  0  0  0  0
  188.4270  178.0080  139.6210 C   0  0  0  0  0  3  0  0  0  0  0  0
  189.7020  178.0720  138.9820 N   0  0  0  0  0  2  0  0  0  0  0  0
  190.7460  177.1210  139.2150 C   0  0  0  0  0  0  0  0  0  0  0  0
  190.8770  176.0330  138.4650 C   0  0  0  0  0  2  0  0  0  0  0  0
  191.7080  177.3570  140.3230 C   0  0  0  0  0  1  0  0  0  0  0  0
  1  3  2  0  0  0  0
  1  7  1  0  0  0  0
  2  7  2  0  0  0  0
  2 10  1  0  0  0  0
  3  6  1  0  0  0  0
  4  8  1  0  0  0  0
  4  5  2  0  0  0  0
  6  8  2  0  0  0  0
  7  4  1  0  0  0  0
  8 13  1  0  0  0  0
  9  5  1  0  0  0  0
 10  9  2  0  0  0  0
 11 10  1  0  0  0  0
 13 14  1  0  0  0  0
 13 12  1  1  0  0  0
 14 15  1  0  0  0  0
 17 18  1  0  0  0  0
 18 15  1  0  0  0  0
 18 16  1  0  0  0  0
 19 18  2  0  0  0  0
 20  1  1  0  0  0  0
 21 20  1  0  0  0  0
 22 21  2  0  0  0  0
 23 24  1  0  0  0  0
 23 22  1  0  0  0  0
 24 26  1  0  0  0  0
 25 24  2  0  0  0  0
M  END
>  <MODEL>
4

>  <REMARK>
 VINA RESULT:      -8.0      4.423      7.598
  Name = 
  8 active torsions:
  status: ('A' for Active; 'I' for Inactive)
    1  A    between atoms: C_1  and  C_13
    2  A    between atoms: N_4  and  C_7
    3  A    between atoms: N_4  and  C_17
    4  A    between atoms: C_8  and  C_13
    5  A    between atoms: O_9  and  C_11
    6  A    between atoms: O_9  and  P_23
    7  A    between atoms: C_11  and  C_20
    8  A    between atoms: C_19  and  C_20
                            x       y       z     vdW  Elec       q    Type
                         _______ _______ _______ _____ _____    ______ ____

>  <TORSDO>
F 8

$$$$
=
 OpenBabel10222416103D

 26 27  0  0  1  0  0  0  0  0999 V2000
  187.7460  177.3850  143.9780 C   0  0  0  0  0  0  0  0  0  0  0  0
  188.1960  177.6820  146.3210 N   0  0  0  0  0  0  0  0  0  0  0  0
  186.8860  177.5670  142.8910 C   0  0  0  0  0  3  0  0  0  0  0  0
  186.1100  178.4740  145.4280 C   0  0  0  0  0  0  0  0  0  0  0  0
  185.7560  178.9200  146.7090 C   0  0  0  0  0  3  0  0  0  0  0  0
  185.6500  178.1890  143.0630 C   0  0  0  0  0  3  0  0  0  0  0  0
  187.3640  177.8420  145.2520 C   0  0  0  0  0  0  0  0  0  0  0  0
  185.2470  178.6430  144.3270 C   0  0  0  0  0  0  0  0  0  0  0  0
  186.6300  178.7410  147.7810 C   0  0  0  0  0  3  0  0  0  0  0  0
  187.8580  178.1130  147.5650 C   0  0  0  0  0  0  0  0  0  0  0  0
  188.7980  177.9160  148.6980 C   0  0  0  0  0  1  0  0  0  0  0  0
  183.3450  179.0000  145.7150 O   0  0  0  0  0  1  0  0  0  0  0  0
  183.9150  179.3210  144.4820 C   0  0  2  0  0  3  0  0  0  0  0  0
  182.9800  178.9240  143.3530 C   0  0  0  0  0  2  0  0  0  0  0  0
  181.7100  178.6480  143.8640 O   0  0  0  0  0  0  0  0  0  0  0  0
  181.3820  178.9200  141.1190 O   0  0  0  0  0  0  0  0  0  0  0  0
  179.4190  178.1490  142.6730 O   0  0  0  0  0  1  0  0  0  0  0  0
  180.6260  179.0600  142.6260 P   0  0  0  0  0  0  0  0  0  0  0  0
  180.1210  180.6590  142.8460 O   0  0  0  0  0  1  0  0  0  0  0  0
  189.0690  176.7300  143.7510 C   0  0  0  0  0  2  0  0  0  0  0  0
  189.2070  176.3340  142.3230 C   0  0  0  0  0  3  0  0  0  0  0  0
  190.2170  176.7950  141.6030 C   0  0  0  0  0  3  0  0  0  0  0  0
  190.3480  176.4150  140.2340 N   0  0  0  0  0  2  0  0  0  0  0  0
  189.9510  177.2550  139.1440 C   0  0  0  0  0  0  0  0  0  0  0  0
  190.4290  177.0780  137.9180 C   0  0  0  0  0  2  0  0  0  0  0  0
  188.9790  178.3520  139.3910 C   0  0  0  0  0  1  0  0  0  0  0  0
  1  7  1  0  0  0  0
  2 10  1  0  0  0  0
  3  6  1  0  0  0  0
  3  1  2  0  0  0  0
  4  5  2  0  0  0  0
  5  9  1  0  0  0  0
  6  8  2  0  0  0  0
  7  4  1  0  0  0  0
  7  2  2  0  0  0  0
  8 13  1  0  0  0  0
  8  4  1  0  0  0  0
 10  9  2  0  0  0  0
 10 11  1  0  0  0  0
 13 12  1  1  0  0  0
 14 15  1  0  0  0  0
 14 13  1  0  0  0  0
 16 18  2  0  0  0  0
 18 17  1  0  0  0  0
 18 19  1  0  0  0  0
 18 15  1  0  0  0  0
 20  1  1  0  0  0  0
 21 20  1  0  0  0  0
 22 21  2  0  0  0  0
 23 22  1  0  0  0  0
 24 26  1  0  0  0  0
 24 23  1  0  0  0  0
 25 24  2  0  0  0  0
M  END
>  <MODEL>
5

>  <REMARK>
 VINA RESULT:      -7.9      4.410      6.739
  Name = 
  8 active torsions:
  status: ('A' for Active; 'I' for Inactive)
    1  A    between atoms: C_1  and  C_13
    2  A    between atoms: N_4  and  C_7
    3  A    between atoms: N_4  and  C_17
    4  A    between atoms: C_8  and  C_13
    5  A    between atoms: O_9  and  C_11
    6  A    between atoms: O_9  and  P_23
    7  A    between atoms: C_11  and  C_20
    8  A    between atoms: C_19  and  C_20
                            x       y       z     vdW  Elec       q    Type
                         _______ _______ _______ _____ _____    ______ ____

>  <TORSDO>
F 8

$$$$
=
 OpenBabel10222416103D

 26 27  0  0  1  0  0  0  0  0999 V2000
  184.0250  178.8190  143.8110 C   0  0  0  0  0  0  0  0  0  0  0  0
  181.6300  178.9050  143.9960 N   0  0  0  0  0  0  0  0  0  0  0  0
  185.1610  178.7040  143.0050 C   0  0  0  0  0  3  0  0  0  0  0  0
  182.6190  178.6240  141.8240 C   0  0  0  0  0  0  0  0  0  0  0  0
  181.3330  178.5950  141.2670 C   0  0  0  0  0  3  0  0  0  0  0  0
  185.0360  178.5460  141.6250 C   0  0  0  0  0  3  0  0  0  0  0  0
  182.7480  178.7840  143.2250 C   0  0  0  0  0  0  0  0  0  0  0  0
  183.7710  178.5000  141.0220 C   0  0  0  0  0  0  0  0  0  0  0  0
  180.2110  178.7210  142.0850 C   0  0  0  0  0  3  0  0  0  0  0  0
  180.3810  178.8770  143.4610 C   0  0  0  0  0  0  0  0  0  0  0  0
  179.1930  179.0130  144.3430 C   0  0  0  0  0  1  0  0  0  0  0  0
  183.4070  177.0120  139.1990 O   0  0  0  0  0  1  0  0  0  0  0  0
  183.6640  178.3430  139.5310 C   0  0  2  0  0  3  0  0  0  0  0  0
  184.9380  178.8170  138.8530 C   0  0  0  0  0  2  0  0  0  0  0  0
  185.4200  177.8190  138.0020 O   0  0  0  0  0  0  0  0  0  0  0  0
  187.8870  176.6760  137.4340 O   0  0  0  0  0  1  0  0  0  0  0  0
  187.3560  179.1720  136.8460 O   0  0  0  0  0  0  0  0  0  0  0  0
  187.0890  178.1000  137.8780 P   0  0  0  0  0  0  0  0  0  0  0  0
  187.6730  178.6170  139.3780 O   0  0  0  0  0  1  0  0  0  0  0  0
  184.2000  179.0030  145.2840 C   0  0  0  0  0  2  0  0  0  0  0  0
  185.6440  178.9390  145.6410 C   0  0  0  0  0  3  0  0  0  0  0  0
  186.1360  177.8490  146.2070 C   0  0  0  0  0  3  0  0  0  0  0  0
  187.5210  177.7870  146.5500 N   0  0  0  0  0  2  0  0  0  0  0  0
  188.5400  177.3760  145.6320 C   0  0  0  0  0  0  0  0  0  0  0  0
  189.8300  177.5010  145.9220 C   0  0  0  0  0  2  0  0  0  0  0  0
  188.1450  176.7950  144.3220 C   0  0  0  0  0  1  0  0  0  0  0  0
  1 20  1  0  0  0  0
  3  1  2  0  0  0  0
  4  7  1  0  0  0  0
  5  4  2  0  0  0  0
  5  9  1  0  0  0  0
  6  3  1  0  0  0  0
  7  1  1  0  0  0  0
  7  2  2  0  0  0  0
  8  6  2  0  0  0  0
  8  4  1  0  0  0  0
  9 10  2  0  0  0  0
 10  2  1  0  0  0  0
 10 11  1  0  0  0  0
 13 12  1  1  0  0  0
 13  8  1  0  0  0  0
 14 13  1  0  0  0  0
 15 14  1  0  0  0  0
 16 18  1  0  0  0  0
 17 18  2  0  0  0  0
 18 15  1  0  0  0  0
 18 19  1  0  0  0  0
 20 21  1  0  0  0  0
 21 22  2  0  0  0  0
 22 23  1  0  0  0  0
 24 25  2  0  0  0  0
 24 23  1  0  0  0  0
 26 24  1  0  0  0  0
M  END
>  <MODEL>
6

>  <REMARK>
 VINA RESULT:      -7.5      2.178      6.768
  Name = 
  8 active torsions:
  status: ('A' for Active; 'I' for Inactive)
    1  A    between atoms: C_1  and  C_13
    2  A    between atoms: N_4  and  C_7
    3  A    between atoms: N_4  and  C_17
    4  A    between atoms: C_8  and  C_13
    5  A    between atoms: O_9  and  C_11
    6  A    between atoms: O_9  and  P_23
    7  A    between atoms: C_11  and  C_20
    8  A    between atoms: C_19  and  C_20
                            x       y       z     vdW  Elec       q    Type
                         _______ _______ _______ _____ _____    ______ ____

>  <TORSDO>
F 8

$$$$
=
 OpenBabel10222416103D

 26 27  0  0  1  0  0  0  0  0999 V2000
  188.5340  177.0670  144.1120 C   0  0  0  0  0  0  0  0  0  0  0  0
  188.3370  177.5410  146.4610 N   0  0  0  0  0  0  0  0  0  0  0  0
  187.9860  177.1290  142.8280 C   0  0  0  0  0  3  0  0  0  0  0  0
  186.5330  178.1550  144.9960 C   0  0  0  0  0  0  0  0  0  0  0  0
  185.8380  178.6630  146.1010 C   0  0  0  0  0  3  0  0  0  0  0  0
  186.7260  177.6910  142.6220 C   0  0  0  0  0  3  0  0  0  0  0  0
  187.8120  177.5840  145.2030 C   0  0  0  0  0  0  0  0  0  0  0  0
  185.9860  178.2030  143.6980 C   0  0  0  0  0  0  0  0  0  0  0  0
  186.4030  178.6030  147.3750 C   0  0  0  0  0  3  0  0  0  0  0  0
  187.6660  178.0330  147.5360 C   0  0  0  0  0  0  0  0  0  0  0  0
  188.2800  177.9630  148.8870 C   0  0  0  0  0  1  0  0  0  0  0  0
  183.6920  178.2900  144.3310 O   0  0  0  0  0  1  0  0  0  0  0  0
  184.6370  178.8140  143.4480 C   0  0  2  0  0  3  0  0  0  0  0  0
  184.2020  178.5740  142.0120 C   0  0  0  0  0  2  0  0  0  0  0  0
  184.6570  179.6160  141.1990 O   0  0  0  0  0  0  0  0  0  0  0  0
  183.5680  177.6540  139.5620 O   0  0  0  0  0  1  0  0  0  0  0  0
  183.9840  180.0920  138.7020 O   0  0  0  0  0  0  0  0  0  0  0  0
  184.5540  179.0270  139.6120 P   0  0  0  0  0  0  0  0  0  0  0  0
  186.1040  178.6140  139.0760 O   0  0  0  0  0  1  0  0  0  0  0  0
  189.8930  176.4740  144.2900 C   0  0  0  0  0  2  0  0  0  0  0  0
  190.6030  176.4180  142.9830 C   0  0  0  0  0  3  0  0  0  0  0  0
  191.1330  177.5170  142.4710 C   0  0  0  0  0  3  0  0  0  0  0  0
  191.8130  177.4630  141.2170 N   0  0  0  0  0  2  0  0  0  0  0  0
  191.1540  177.1810  139.9780 C   0  0  0  0  0  0  0  0  0  0  0  0
  189.8920  177.5360  139.7630 C   0  0  0  0  0  2  0  0  0  0  0  0
  191.8990  176.4730  138.9040 C   0  0  0  0  0  1  0  0  0  0  0  0
  1 20  1  0  0  0  0
  1  7  1  0  0  0  0
  2 10  1  0  0  0  0
  3  1  2  0  0  0  0
  4  7  1  0  0  0  0
  4  5  2  0  0  0  0
  5  9  1  0  0  0  0
  6  3  1  0  0  0  0
  6  8  2  0  0  0  0
  7  2  2  0  0  0  0
  8  4  1  0  0  0  0
  9 10  2  0  0  0  0
 10 11  1  0  0  0  0
 13  8  1  0  0  0  0
 13 12  1  1  0  0  0
 14 13  1  0  0  0  0
 15 14  1  0  0  0  0
 16 18  1  0  0  0  0
 17 18  2  0  0  0  0
 18 15  1  0  0  0  0
 19 18  1  0  0  0  0
 21 20  1  0  0  0  0
 22 21  2  0  0  0  0
 23 22  1  0  0  0  0
 24 23  1  0  0  0  0
 25 24  2  0  0  0  0
 26 24  1  0  0  0  0
M  END
>  <MODEL>
7

>  <REMARK>
 VINA RESULT:      -7.5      2.567      5.779
  Name = 
  8 active torsions:
  status: ('A' for Active; 'I' for Inactive)
    1  A    between atoms: C_1  and  C_13
    2  A    between atoms: N_4  and  C_7
    3  A    between atoms: N_4  and  C_17
    4  A    between atoms: C_8  and  C_13
    5  A    between atoms: O_9  and  C_11
    6  A    between atoms: O_9  and  P_23
    7  A    between atoms: C_11  and  C_20
    8  A    between atoms: C_19  and  C_20
                            x       y       z     vdW  Elec       q    Type
                         _______ _______ _______ _____ _____    ______ ____

>  <TORSDO>
F 8

$$$$
=
 OpenBabel10222416103D

 26 27  0  0  1  0  0  0  0  0999 V2000
  187.7750  177.4420  143.4890 C   0  0  0  0  0  0  0  0  0  0  0  0
  187.3630  177.8830  141.1620 N   0  0  0  0  0  0  0  0  0  0  0  0
  187.3390  177.5040  144.8160 C   0  0  0  0  0  3  0  0  0  0  0  0
  185.7030  178.5210  142.7780 C   0  0  0  0  0  0  0  0  0  0  0  0
  184.9090  179.0150  141.7340 C   0  0  0  0  0  3  0  0  0  0  0  0
  186.1040  178.0710  145.1280 C   0  0  0  0  0  3  0  0  0  0  0  0
  186.9580  177.9460  142.4620 C   0  0  0  0  0  0  0  0  0  0  0  0
  185.2770  178.5880  144.1190 C   0  0  0  0  0  0  0  0  0  0  0  0
  185.3540  178.9350  140.4140 C   0  0  0  0  0  3  0  0  0  0  0  0
  186.5970  178.3600  140.1460 C   0  0  0  0  0  0  0  0  0  0  0  0
  187.0830  178.2690  138.7450 C   0  0  0  0  0  1  0  0  0  0  0  0
  183.6870  179.0050  145.8430 O   0  0  0  0  0  1  0  0  0  0  0  0
  183.9460  179.1810  144.4820 C   0  0  2  0  0  3  0  0  0  0  0  0
  182.8390  178.5540  143.6520 C   0  0  0  0  0  2  0  0  0  0  0  0
  181.5960  179.0130  144.0950 O   0  0  0  0  0  0  0  0  0  0  0  0
  180.0400  180.6670  142.4950 O   0  0  0  0  0  1  0  0  0  0  0  0
  181.4260  178.6840  141.4920 O   0  0  0  0  0  0  0  0  0  0  0  0
  180.6240  179.0940  142.7070 P   0  0  0  0  0  0  0  0  0  0  0  0
  179.3170  178.0370  142.8880 O   0  0  0  0  0  1  0  0  0  0  0  0
  189.0970  176.8120  143.1920 C   0  0  0  0  0  2  0  0  0  0  0  0
  189.9140  176.7250  144.4330 C   0  0  0  0  0  3  0  0  0  0  0  0
  190.9490  177.5320  144.6000 C   0  0  0  0  0  3  0  0  0  0  0  0
  191.7330  177.4480  145.7900 N   0  0  0  0  0  2  0  0  0  0  0  0
  191.3300  176.7050  146.9450 C   0  0  0  0  0  0  0  0  0  0  0  0
  192.0140  175.6460  147.3660 C   0  0  0  0  0  2  0  0  0  0  0  0
  190.1180  177.1270  147.6940 C   0  0  0  0  0  1  0  0  0  0  0  0
  1  3  1  0  0  0  0
  2  7  1  0  0  0  0
  3  6  2  0  0  0  0
  4  8  2  0  0  0  0
  5  4  1  0  0  0  0
  7  4  1  0  0  0  0
  7  1  2  0  0  0  0
  8 13  1  0  0  0  0
  8  6  1  0  0  0  0
  9  5  2  0  0  0  0
 10  9  1  0  0  0  0
 10  2  2  0  0  0  0
 11 10  1  0  0  0  0
 13 12  1  1  0  0  0
 14 15  1  0  0  0  0
 14 13  1  0  0  0  0
 16 18  1  0  0  0  0
 17 18  2  0  0  0  0
 18 19  1  0  0  0  0
 18 15  1  0  0  0  0
 20  1  1  0  0  0  0
 20 21  1  0  0  0  0
 21 22  2  0  0  0  0
 22 23  1  0  0  0  0
 23 24  1  0  0  0  0
 24 25  2  0  0  0  0
 24 26  1  0  0  0  0
M  END
>  <MODEL>
8

>  <REMARK>
 VINA RESULT:      -7.4      4.359      7.422
  Name = 
  8 active torsions:
  status: ('A' for Active; 'I' for Inactive)
    1  A    between atoms: C_1  and  C_13
    2  A    between atoms: N_4  and  C_7
    3  A    between atoms: N_4  and  C_17
    4  A    between atoms: C_8  and  C_13
    5  A    between atoms: O_9  and  C_11
    6  A    between atoms: O_9  and  P_23
    7  A    between atoms: C_11  and  C_20
    8  A    between atoms: C_19  and  C_20
                            x       y       z     vdW  Elec       q    Type
                         _______ _______ _______ _____ _____    ______ ____

>  <TORSDO>
F 8

$$$$
=
 OpenBabel10222416103D

 26 27  0  0  1  0  0  0  0  0999 V2000
  186.8800  178.2220  142.2930 C   0  0  0  0  0  0  0  0  0  0  0  0
  187.7690  178.3670  140.0650 N   0  0  0  0  0  0  0  0  0  0  0  0
  187.0830  177.9520  143.6490 C   0  0  0  0  0  3  0  0  0  0  0  0
  189.2220  177.6890  141.8540 C   0  0  0  0  0  0  0  0  0  0  0  0
  190.2700  177.5730  140.9310 C   0  0  0  0  0  3  0  0  0  0  0  0
  188.3380  177.5500  144.1090 C   0  0  0  0  0  3  0  0  0  0  0  0
  187.9490  178.0970  141.3890 C   0  0  0  0  0  0  0  0  0  0  0  0
  189.4150  177.4100  143.2220 C   0  0  0  0  0  0  0  0  0  0  0  0
  190.0520  177.8580  139.5830 C   0  0  0  0  0  3  0  0  0  0  0  0
  188.7820  178.2560  139.1640 C   0  0  0  0  0  0  0  0  0  0  0  0
  188.5360  178.5620  137.7320 C   0  0  0  0  0  1  0  0  0  0  0  0
  190.8770  175.5970  143.7180 O   0  0  0  0  0  1  0  0  0  0  0  0
  190.7580  176.9870  143.7460 C   0  0  2  0  0  3  0  0  0  0  0  0
  190.9640  177.5040  145.1600 C   0  0  0  0  0  2  0  0  0  0  0  0
  192.0350  176.8340  145.7570 O   0  0  0  0  0  0  0  0  0  0  0  0
  189.8680  176.8460  147.4950 O   0  0  0  0  0  1  0  0  0  0  0  0
  191.5940  174.8760  147.4550 O   0  0  0  0  0  0  0  0  0  0  0  0
  191.4800  176.3750  147.2930 P   0  0  0  0  0  0  0  0  0  0  0  0
  192.4290  177.1320  148.4700 O   0  0  0  0  0  1  0  0  0  0  0  0
  185.5270  178.6670  141.8410 C   0  0  0  0  0  2  0  0  0  0  0  0
  184.5510  178.5580  142.9590 C   0  0  0  0  0  3  0  0  0  0  0  0
  183.2730  178.8310  142.7500 C   0  0  0  0  0  3  0  0  0  0  0  0
  182.3370  178.7270  143.8230 N   0  0  0  0  0  2  0  0  0  0  0  0
  180.9190  178.8070  143.6390 C   0  0  0  0  0  0  0  0  0  0  0  0
  180.0820  178.0540  144.3430 C   0  0  0  0  0  2  0  0  0  0  0  0
  180.3710  179.7580  142.6360 C   0  0  0  0  0  1  0  0  0  0  0  0
  1  3  1  0  0  0  0
  2  7  1  0  0  0  0
  3  6  2  0  0  0  0
  4  8  2  0  0  0  0
  5  4  1  0  0  0  0
  7  4  1  0  0  0  0
  7  1  2  0  0  0  0
  8 13  1  0  0  0  0
  8  6  1  0  0  0  0
  9  5  2  0  0  0  0
 10  9  1  0  0  0  0
 10  2  2  0  0  0  0
 11 10  1  0  0  0  0
 13 12  1  1  0  0  0
 13 14  1  0  0  0  0
 14 15  1  0  0  0  0
 15 18  1  0  0  0  0
 18 17  2  0  0  0  0
 18 16  1  0  0  0  0
 18 19  1  0  0  0  0
 20  1  1  0  0  0  0
 20 21  1  0  0  0  0
 22 21  2  0  0  0  0
 22 23  1  0  0  0  0
 24 23  1  0  0  0  0
 24 25  2  0  0  0  0
 26 24  1  0  0  0  0
M  END
>  <MODEL>
9

>  <REMARK>
 VINA RESULT:      -7.2      3.816      5.941
  Name = 
  8 active torsions:
  status: ('A' for Active; 'I' for Inactive)
    1  A    between atoms: C_1  and  C_13
    2  A    between atoms: N_4  and  C_7
    3  A    between atoms: N_4  and  C_17
    4  A    between atoms: C_8  and  C_13
    5  A    between atoms: O_9  and  C_11
    6  A    between atoms: O_9  and  P_23
    7  A    between atoms: C_11  and  C_20
    8  A    between atoms: C_19  and  C_20
                            x       y       z     vdW  Elec       q    Type
                         _______ _______ _______ _____ _____    ______ ____

>  <TORSDO>
F 8

$$$$
