=
 OpenBabel10222420543D

 48 54  0  0  1  0  0  0  0  0999 V2000
  188.2050  176.1680  143.5700 C   0  0  0  0  0  2  0  0  0  0  0  0
  185.9260  177.9440  144.2990 C   0  0  0  0  0  0  0  0  0  0  0  0
  185.4850  178.4920  146.9870 C   0  0  0  0  0  3  0  0  0  0  0  0
  185.9120  177.8630  142.8330 C   0  0  0  0  0  0  0  0  0  0  0  0
  186.8860  177.5250  145.2350 C   0  0  0  0  0  0  0  0  0  0  0  0
  186.6630  177.8290  146.5870 C   0  0  0  0  0  3  0  0  0  0  0  0
  188.0660  176.8110  144.8610 N   0  0  0  0  0  2  0  0  0  0  0  0
  187.0280  177.8460  142.0800 C   0  0  2  0  0  3  0  0  0  0  0  0
  188.2140  177.1720  142.5200 N   0  0  0  0  0  2  0  0  0  0  0  0
  184.5710  178.3610  142.4290 C   0  0  0  0  0  0  0  0  0  0  0  0
  184.7800  178.6000  144.6960 C   0  0  1  0  0  3  0  0  0  0  0  0
  183.9440  178.8320  143.5170 C   0  0  0  0  0  0  0  0  0  0  0  0
  184.5240  178.8710  146.0370 C   0  0  0  0  0  3  0  0  0  0  0  0
  183.9850  178.7460  139.9960 C   0  0  0  0  0  0  0  0  0  0  0  0
  184.1590  179.5590  138.8680 C   0  0  2  0  0  0  0  0  0  0  0  0
  183.3830  180.7160  138.8090 O   0  0  0  0  0  1  0  0  0  0  0  0
  182.7810  177.2070  138.4020 C   0  0  0  0  0  3  0  0  0  0  0  0
  183.8810  178.0370  141.1530 C   0  0  0  0  0  0  0  0  0  0  0  0
  183.1550  176.8200  140.9060 C   0  0  0  0  0  3  0  0  0  0  0  0
  183.4640  178.3530  138.6840 C   0  0  0  0  0  0  0  0  0  0  0  0
  181.9370  175.2140  139.4990 O   0  0  0  0  0  1  0  0  0  0  0  0
  182.6180  176.4220  139.5990 C   0  0  0  0  0  0  0  0  0  0  0  0
  185.4840  179.6050  138.2770 N   0  0  0  0  0  0  0  0  0  0  0  0
  185.8460  178.6760  137.4840 N   0  0  0  0  0  0  0  0  0  0  0  0
  187.1240  178.6990  136.9100 N   0  0  0  0  0  2  0  0  0  0  0  0
  186.1430  177.3960  135.1180 C   0  0  0  0  0  1  0  0  0  0  0  0
  187.3230  178.2440  135.5450 C   0  0  2  0  0  3  0  0  0  0  0  0
  188.5480  177.4640  135.4510 N   0  0  0  0  0  2  0  0  0  0  0  0
  189.1750  177.4940  136.7610 C   0  0  0  0  0  2  0  0  0  0  0  0
  189.2670  176.0890  137.3240 C   0  0  0  0  0  2  0  0  0  0  0  0
  190.4820  176.0050  138.2220 C   0  0  0  0  0  2  0  0  0  0  0  0
  191.1780  174.7460  137.9940 N   0  0  0  0  0  2  0  0  0  0  0  0
  193.0770  176.3610  138.2600 C   0  0  0  0  0  2  0  0  0  0  0  0
  192.7760  176.2080  136.7670 C   0  0  0  0  0  2  0  0  0  0  0  0
  193.5770  173.9150  137.5740 C   0  0  0  0  0  1  0  0  0  0  0  0
  192.5770  175.0460  137.7110 C   0  0  0  0  0  0  0  0  0  0  0  0
  187.0500  178.5400  140.7820 C   0  0  0  0  0  3  0  0  0  0  0  0
  188.1380  178.5970  140.0240 C   0  0  0  0  0  2  0  0  0  0  0  0
  182.6690  179.4000  143.5050 O   0  0  0  0  0  0  0  0  0  0  0  0
  181.5930  178.8910  144.2740 C   0  0  0  0  0  2  0  0  0  0  0  0
  180.3510  178.8010  143.4070 C   0  0  0  0  0  2  0  0  0  0  0  0
  180.6100  179.3470  142.0080 C   0  0  0  0  0  2  0  0  0  0  0  0
  179.2890  179.6710  141.2880 C   0  0  1  0  0  3  0  0  0  0  0  0
  179.8610  179.1880  139.0690 C   0  0  0  0  0  2  0  0  0  0  0  0
  179.8150  180.7020  138.9820 C   0  0  0  0  0  2  0  0  0  0  0  0
  179.2660  177.3800  140.4800 C   0  0  0  0  0  1  0  0  0  0  0  0
  179.3740  181.3570  140.6210 S   0  0  0  0  0  0  0  0  0  0  0  0
  178.9970  178.7770  140.1620 N   0  0  0  0  0  0  0  0  0  0  0  0
  1  7  1  0  0  0  0
  2 11  1  0  0  0  0
  2  5  1  0  0  0  0
  4  2  2  0  0  0  0
  5  6  2  0  0  0  0
  6  3  1  0  0  0  0
  7  5  1  0  0  0  0
  8 37  1  1  0  0  0
  8  9  1  0  0  0  0
  8  4  1  0  0  0  0
  9  1  1  0  0  0  0
 10  4  1  0  0  0  0
 10 12  2  0  0  0  0
 11 13  1  1  0  0  0
 12 11  1  0  0  0  0
 13  3  2  0  0  0  0
 14 18  1  0  0  0  0
 15 16  1  6  0  0  0
 15 14  1  0  0  0  0
 17 20  1  0  0  0  0
 17 22  2  0  0  0  0
 18 10  1  0  0  0  0
 19 18  2  0  0  0  0
 20 15  1  0  0  0  0
 20 14  2  0  0  0  0
 21 22  1  0  0  0  0
 22 19  1  0  0  0  0
 23 15  1  0  0  0  0
 24 23  2  0  0  0  0
 25 24  1  0  0  0  0
 27 26  1  1  0  0  0
 27 25  1  0  0  0  0
 28 27  1  0  0  0  0
 28 29  1  0  0  0  0
 29 30  1  0  0  0  0
 30 31  1  0  0  0  0
 32 31  1  0  0  0  0
 34 36  1  0  0  0  0
 34 33  1  0  0  0  0
 35 36  1  0  0  0  0
 36 32  1  0  0  0  0
 36 33  1  0  0  0  0
 38 37  2  0  0  0  0
 39 12  1  0  0  0  0
 39 40  1  0  0  0  0
 41 40  1  0  0  0  0
 42 41  1  0  0  0  0
 43 42  1  6  0  0  0
 44 48  1  0  0  0  0
 45 44  1  0  0  0  0
 45 47  1  0  0  0  0
 47 43  1  0  0  0  0
 48 46  1  0  0  0  0
 48 43  1  0  0  0  0
M  END
>  <MODEL>
1

>  <REMARK>
 VINA RESULT:      -7.2      0.000      0.000
  Name = 
  16 active torsions:
  status: ('A' for Active; 'I' for Inactive)
    1  A    between atoms: C_6  and  C_13
    2  A    between atoms: C_6  and  C_16
    3  A    between atoms: N_7  and  C_41
    4  A    between atoms: N_7  and  N_44
    5  A    between atoms: C_9  and  C_33
    6  A    between atoms: C_9  and  C_35
    7  A    between atoms: C_12  and  N_28
    8  A    between atoms: C_16  and  C_36
    9  A    between atoms: C_20  and  C_34
   10  A    between atoms: N_22  and  C_24
   11  A    between atoms: N_22  and  C_35
   12  A    between atoms: C_25  and  C_27
   13  A    between atoms: C_33  and  N_40
   14  A    between atoms: C_36  and  O_42
   15  A    between atoms: C_39  and  O_42
   16  A    between atoms: N_40  and  C_41
                            x       y       z     vdW  Elec       q    Type
                         _______ _______ _______ _____ _____    ______ ____

>  <TORSDO>
F 16

$$$$
=
 OpenBabel10222420543D

 48 54  0  0  1  0  0  0  0  0999 V2000
  188.4250  176.1130  143.5730 C   0  0  0  0  0  2  0  0  0  0  0  0
  186.2440  177.9940  144.3350 C   0  0  0  0  0  0  0  0  0  0  0  0
  185.8840  178.5790  147.0270 C   0  0  0  0  0  3  0  0  0  0  0  0
  186.1950  177.9040  142.8700 C   0  0  0  0  0  0  0  0  0  0  0  0
  187.2030  177.5390  145.2540 C   0  0  0  0  0  0  0  0  0  0  0  0
  187.0230  177.8610  146.6090 C   0  0  0  0  0  3  0  0  0  0  0  0
  188.3430  176.7710  144.8620 N   0  0  0  0  0  2  0  0  0  0  0  0
  187.2930  177.8320  142.0940 C   0  0  2  0  0  3  0  0  0  0  0  0
  188.4570  177.1090  142.5150 N   0  0  0  0  0  2  0  0  0  0  0  0
  184.8700  178.4580  142.4910 C   0  0  0  0  0  0  0  0  0  0  0  0
  185.1370  178.7030  144.7500 C   0  0  1  0  0  3  0  0  0  0  0  0
  184.2870  178.9630  143.5870 C   0  0  0  0  0  0  0  0  0  0  0  0
  184.9210  178.9940  146.0940 C   0  0  0  0  0  3  0  0  0  0  0  0
  184.3110  178.8000  140.0440 C   0  0  0  0  0  0  0  0  0  0  0  0
  184.5640  179.5390  138.8820 C   0  0  2  0  0  0  0  0  0  0  0  0
  183.9180  180.7710  138.7740 O   0  0  0  0  0  1  0  0  0  0  0  0
  182.9350  177.3330  138.5220 C   0  0  0  0  0  3  0  0  0  0  0  0
  184.1390  178.1570  141.2320 C   0  0  0  0  0  0  0  0  0  0  0  0
  183.2840  177.0160  141.0400 C   0  0  0  0  0  3  0  0  0  0  0  0
  183.7410  178.4100  138.7520 C   0  0  0  0  0  0  0  0  0  0  0  0
  181.8880  175.4930  139.7070 O   0  0  0  0  0  1  0  0  0  0  0  0
  182.6970  176.6230  139.7520 C   0  0  0  0  0  0  0  0  0  0  0  0
  185.8820  179.4150  138.2850 N   0  0  0  0  0  0  0  0  0  0  0  0
  186.0780  178.5390  137.3820 N   0  0  0  0  0  0  0  0  0  0  0  0
  187.3450  178.3990  136.8010 N   0  0  0  0  0  2  0  0  0  0  0  0
  186.1130  177.5760  134.8840 C   0  0  0  0  0  1  0  0  0  0  0  0
  187.4760  177.9590  135.4230 C   0  0  2  0  0  3  0  0  0  0  0  0
  188.3750  176.8180  135.3440 N   0  0  0  0  0  2  0  0  0  0  0  0
  188.4190  176.2180  136.6670 C   0  0  0  0  0  2  0  0  0  0  0  0
  188.1780  174.7230  136.5670 C   0  0  0  0  0  2  0  0  0  0  0  0
  186.7480  174.4360  136.9660 C   0  0  0  0  0  2  0  0  0  0  0  0
  186.3490  173.1270  136.4660 N   0  0  0  0  0  2  0  0  0  0  0  0
  184.1090  174.2230  136.2070 C   0  0  0  0  0  2  0  0  0  0  0  0
  184.3210  173.8950  137.6870 C   0  0  0  0  0  2  0  0  0  0  0  0
  184.2420  171.6490  136.4610 C   0  0  0  0  0  1  0  0  0  0  0  0
  184.9040  173.0050  136.6150 C   0  0  0  0  0  0  0  0  0  0  0  0
  187.3180  178.5150  140.7910 C   0  0  0  0  0  3  0  0  0  0  0  0
  188.3310  178.3890  139.9420 C   0  0  0  0  0  2  0  0  0  0  0  0
  183.0380  179.5880  143.5970 O   0  0  0  0  0  0  0  0  0  0  0  0
  181.8530  178.9320  144.0150 C   0  0  0  0  0  2  0  0  0  0  0  0
  180.6630  179.5280  143.2870 C   0  0  0  0  0  2  0  0  0  0  0  0
  180.0030  178.5060  142.3700 C   0  0  0  0  0  2  0  0  0  0  0  0
  178.9310  179.1660  141.4870 C   0  0  1  0  0  3  0  0  0  0  0  0
  180.0650  179.3170  139.4440 C   0  0  0  0  0  2  0  0  0  0  0  0
  180.0740  180.7830  139.8330 C   0  0  0  0  0  2  0  0  0  0  0  0
  179.0770  177.2400  140.0150 C   0  0  0  0  0  1  0  0  0  0  0  0
  179.2250  180.9570  141.4330 S   0  0  0  0  0  0  0  0  0  0  0  0
  178.9310  178.6870  140.1000 N   0  0  0  0  0  0  0  0  0  0  0  0
  1  7  1  0  0  0  0
  2 11  1  0  0  0  0
  2  5  1  0  0  0  0
  4  2  2  0  0  0  0
  5  6  2  0  0  0  0
  6  3  1  0  0  0  0
  7  5  1  0  0  0  0
  8 37  1  1  0  0  0
  8  9  1  0  0  0  0
  8  4  1  0  0  0  0
  9  1  1  0  0  0  0
 10  4  1  0  0  0  0
 10 12  2  0  0  0  0
 11 13  1  1  0  0  0
 12 39  1  0  0  0  0
 12 11  1  0  0  0  0
 13  3  2  0  0  0  0
 14 18  1  0  0  0  0
 15 16  1  6  0  0  0
 15 14  1  0  0  0  0
 17 20  1  0  0  0  0
 17 22  2  0  0  0  0
 18 10  1  0  0  0  0
 19 18  2  0  0  0  0
 20 15  1  0  0  0  0
 20 14  2  0  0  0  0
 21 22  1  0  0  0  0
 22 19  1  0  0  0  0
 23 15  1  0  0  0  0
 24 23  2  0  0  0  0
 25 24  1  0  0  0  0
 27 26  1  1  0  0  0
 27 25  1  0  0  0  0
 28 27  1  0  0  0  0
 28 29  1  0  0  0  0
 30 29  1  0  0  0  0
 30 31  1  0  0  0  0
 32 36  1  0  0  0  0
 32 31  1  0  0  0  0
 33 36  1  0  0  0  0
 33 34  1  0  0  0  0
 35 36  1  0  0  0  0
 36 34  1  0  0  0  0
 38 37  2  0  0  0  0
 39 40  1  0  0  0  0
 41 40  1  0  0  0  0
 42 41  1  0  0  0  0
 43 42  1  1  0  0  0
 44 45  1  0  0  0  0
 44 48  1  0  0  0  0
 45 47  1  0  0  0  0
 46 48  1  0  0  0  0
 47 43  1  0  0  0  0
 48 43  1  0  0  0  0
M  END
>  <MODEL>
2

>  <REMARK>
 VINA RESULT:      -7.2      1.669      2.833
  Name = 
  16 active torsions:
  status: ('A' for Active; 'I' for Inactive)
    1  A    between atoms: C_6  and  C_13
    2  A    between atoms: C_6  and  C_16
    3  A    between atoms: N_7  and  C_41
    4  A    between atoms: N_7  and  N_44
    5  A    between atoms: C_9  and  C_33
    6  A    between atoms: C_9  and  C_35
    7  A    between atoms: C_12  and  N_28
    8  A    between atoms: C_16  and  C_36
    9  A    between atoms: C_20  and  C_34
   10  A    between atoms: N_22  and  C_24
   11  A    between atoms: N_22  and  C_35
   12  A    between atoms: C_25  and  C_27
   13  A    between atoms: C_33  and  N_40
   14  A    between atoms: C_36  and  O_42
   15  A    between atoms: C_39  and  O_42
   16  A    between atoms: N_40  and  C_41
                            x       y       z     vdW  Elec       q    Type
                         _______ _______ _______ _____ _____    ______ ____

>  <TORSDO>
F 16

$$$$
=
 OpenBabel10222420543D

 48 54  0  0  1  0  0  0  0  0999 V2000
  184.6720  176.2840  137.3760 C   0  0  0  0  0  2  0  0  0  0  0  0
  186.9040  174.4160  136.7360 C   0  0  0  0  0  0  0  0  0  0  0  0
  186.2780  171.8170  135.9810 C   0  0  0  0  0  3  0  0  0  0  0  0
  187.5420  175.6950  137.0740 C   0  0  0  0  0  0  0  0  0  0  0  0
  185.5590  174.0940  136.4980 C   0  0  0  0  0  0  0  0  0  0  0  0
  185.2580  172.7830  136.0940 C   0  0  0  0  0  3  0  0  0  0  0  0
  184.5000  175.0420  136.6490 N   0  0  0  0  0  2  0  0  0  0  0  0
  187.0420  176.8920  136.7140 C   0  0  2  0  0  3  0  0  0  0  0  0
  185.6290  177.1300  136.6830 N   0  0  0  0  0  2  0  0  0  0  0  0
  188.9690  175.3640  137.3230 C   0  0  0  0  0  0  0  0  0  0  0  0
  187.8990  173.4690  136.6160 C   0  0  0  0  0  0  0  0  0  0  0  0
  189.1720  174.0780  137.0050 C   0  0  0  0  0  0  0  0  0  0  0  0
  187.6120  172.1550  136.2580 C   0  0  0  0  0  2  0  0  0  0  0  0
  189.5580  176.9810  139.1820 C   0  0  0  0  0  0  0  0  0  0  0  0
  189.0780  177.7920  140.2180 C   0  0  2  0  0  0  0  0  0  0  0  0
  188.5820  179.0430  139.8500 O   0  0  0  0  0  1  0  0  0  0  0  0
  191.8320  177.5540  140.1100 C   0  0  0  0  0  3  0  0  0  0  0  0
  189.9090  176.1690  138.1470 C   0  0  0  0  0  0  0  0  0  0  0  0
  191.3420  176.0570  138.0900 C   0  0  0  0  0  3  0  0  0  0  0  0
  190.4710  177.6410  140.1190 C   0  0  0  0  0  0  0  0  0  0  0  0
  193.6330  176.5260  138.8500 O   0  0  0  0  0  1  0  0  0  0  0  0
  192.2660  176.7230  139.0170 C   0  0  0  0  0  0  0  0  0  0  0  0
  188.4640  177.1300  141.3540 N   0  0  0  0  0  0  0  0  0  0  0  0
  187.7680  177.8140  142.1740 N   0  0  0  0  0  0  0  0  0  0  0  0
  187.1750  177.1940  143.2800 N   0  0  0  0  0  2  0  0  0  0  0  0
  185.4490  178.8720  143.0000 C   0  0  0  0  0  1  0  0  0  0  0  0
  185.9670  177.7450  143.8700 C   0  0  2  0  0  3  0  0  0  0  0  0
  186.2450  178.2450  145.2080 N   0  0  0  0  0  2  0  0  0  0  0  0
  187.0720  177.2510  145.8710 C   0  0  0  0  0  2  0  0  0  0  0  0
  187.7760  177.8730  147.0620 C   0  0  0  0  0  2  0  0  0  0  0  0
  189.2700  177.7670  146.8520 C   0  0  0  0  0  2  0  0  0  0  0  0
  189.5820  177.9170  145.4370 N   0  0  0  0  0  2  0  0  0  0  0  0
  191.6780  177.8760  144.0620 C   0  0  0  0  0  2  0  0  0  0  0  0
  190.9400  176.5500  143.8620 C   0  0  0  0  0  2  0  0  0  0  0  0
  191.6210  176.6250  146.3290 C   0  0  0  0  0  1  0  0  0  0  0  0
  190.8660  177.2740  145.1850 C   0  0  0  0  0  0  0  0  0  0  0  0
  187.9500  177.9840  136.3300 C   0  0  0  0  0  3  0  0  0  0  0  0
  187.6900  179.2570  136.6040 C   0  0  0  0  0  2  0  0  0  0  0  0
  190.4060  173.4310  137.0930 O   0  0  0  0  0  0  0  0  0  0  0  0
  191.0840  172.9090  135.9630 C   0  0  0  0  0  2  0  0  0  0  0  0
  192.3670  173.6880  135.7400 C   0  0  0  0  0  2  0  0  0  0  0  0
  193.4140  173.3470  136.7920 C   0  0  0  0  0  2  0  0  0  0  0  0
  194.7650  173.0090  136.1390 C   0  0  1  0  0  3  0  0  0  0  0  0
  195.8320  171.8690  137.8840 C   0  0  0  0  0  2  0  0  0  0  0  0
  196.6270  173.1600  137.9190 C   0  0  0  0  0  2  0  0  0  0  0  0
  194.2840  170.6650  136.5540 C   0  0  0  0  0  1  0  0  0  0  0  0
  195.9870  174.2620  136.6200 S   0  0  0  0  0  0  0  0  0  0  0  0
  195.3050  171.7050  136.5400 N   0  0  0  0  0  0  0  0  0  0  0  0
  2  4  1  0  0  0  0
  3  6  2  0  0  0  0
  3 13  1  0  0  0  0
  4 10  2  0  0  0  0
  5  7  1  0  0  0  0
  5  2  2  0  0  0  0
  6  5  1  0  0  0  0
  7  1  1  0  0  0  0
  8 37  1  6  0  0  0
  8  4  1  0  0  0  0
  9  8  1  0  0  0  0
  9  1  1  0  0  0  0
 10 18  1  0  0  0  0
 11  2  1  0  0  0  0
 11 12  2  0  0  0  0
 12 39  1  0  0  0  0
 12 10  1  0  0  0  0
 13 11  1  0  0  0  0
 14 20  1  0  0  0  0
 14 15  1  0  0  0  0
 15 16  1  6  0  0  0
 15 23  1  0  0  0  0
 17 20  2  0  0  0  0
 18 14  2  0  0  0  0
 19 18  1  0  0  0  0
 19 22  2  0  0  0  0
 20 15  1  0  0  0  0
 21 22  1  0  0  0  0
 22 17  1  0  0  0  0
 23 24  2  0  0  0  0
 24 25  1  0  0  0  0
 25 27  1  0  0  0  0
 27 26  1  6  0  0  0
 27 28  1  0  0  0  0
 28 29  1  0  0  0  0
 29 30  1  0  0  0  0
 31 30  1  0  0  0  0
 32 31  1  0  0  0  0
 33 36  1  0  0  0  0
 34 33  1  0  0  0  0
 34 36  1  0  0  0  0
 36 32  1  0  0  0  0
 36 35  1  0  0  0  0
 37 38  2  0  0  0  0
 40 39  1  0  0  0  0
 41 40  1  0  0  0  0
 41 42  1  0  0  0  0
 43 48  1  0  0  0  0
 43 47  1  0  0  0  0
 43 42  1  1  0  0  0
 44 45  1  0  0  0  0
 47 45  1  0  0  0  0
 48 46  1  0  0  0  0
 48 44  1  0  0  0  0
M  END
>  <MODEL>
3

>  <REMARK>
 VINA RESULT:      -7.1      4.440     10.553
  Name = 
  16 active torsions:
  status: ('A' for Active; 'I' for Inactive)
    1  A    between atoms: C_6  and  C_13
    2  A    between atoms: C_6  and  C_16
    3  A    between atoms: N_7  and  C_41
    4  A    between atoms: N_7  and  N_44
    5  A    between atoms: C_9  and  C_33
    6  A    between atoms: C_9  and  C_35
    7  A    between atoms: C_12  and  N_28
    8  A    between atoms: C_16  and  C_36
    9  A    between atoms: C_20  and  C_34
   10  A    between atoms: N_22  and  C_24
   11  A    between atoms: N_22  and  C_35
   12  A    between atoms: C_25  and  C_27
   13  A    between atoms: C_33  and  N_40
   14  A    between atoms: C_36  and  O_42
   15  A    between atoms: C_39  and  O_42
   16  A    between atoms: N_40  and  C_41
                            x       y       z     vdW  Elec       q    Type
                         _______ _______ _______ _____ _____    ______ ____

>  <TORSDO>
F 16

$$$$
=
 OpenBabel10222420543D

 48 54  0  0  1  0  0  0  0  0999 V2000
  181.3380  179.1800  143.6990 C   0  0  0  0  0  2  0  0  0  0  0  0
  183.6530  178.7480  141.8740 C   0  0  0  0  0  0  0  0  0  0  0  0
  186.1720  178.4030  142.9930 C   0  0  0  0  0  3  0  0  0  0  0  0
  182.4780  178.8730  141.0010 C   0  0  0  0  0  0  0  0  0  0  0  0
  183.7530  178.6030  143.2670 C   0  0  0  0  0  0  0  0  0  0  0  0
  185.0290  178.4060  143.8180 C   0  0  0  0  0  3  0  0  0  0  0  0
  182.6150  178.6480  144.1310 N   0  0  0  0  0  2  0  0  0  0  0  0
  181.2710  178.3580  141.3030 C   0  0  2  0  0  3  0  0  0  0  0  0
  180.7850  178.3380  142.6510 N   0  0  0  0  0  2  0  0  0  0  0  0
  183.0280  179.1210  139.6430 C   0  0  0  0  0  0  0  0  0  0  0  0
  184.7740  178.7350  141.0710 C   0  0  1  0  0  3  0  0  0  0  0  0
  184.3610  178.9890  139.6900 C   0  0  0  0  0  0  0  0  0  0  0  0
  186.0500  178.5830  141.6060 C   0  0  0  0  0  3  0  0  0  0  0  0
  181.7910  179.1610  137.4330 C   0  0  0  0  0  0  0  0  0  0  0  0
  181.3170  178.4140  136.3470 C   0  0  2  0  0  0  0  0  0  0  0  0
  182.2440  178.1100  135.3500 O   0  0  0  0  0  1  0  0  0  0  0  0
  180.4800  181.0500  136.3950 C   0  0  0  0  0  3  0  0  0  0  0  0
  182.3020  179.7860  138.5290 C   0  0  0  0  0  0  0  0  0  0  0  0
  181.8710  181.1580  138.5430 C   0  0  0  0  0  3  0  0  0  0  0  0
  180.9210  179.7590  136.4160 C   0  0  0  0  0  0  0  0  0  0  0  0
  180.6660  183.1110  137.6610 O   0  0  0  0  0  1  0  0  0  0  0  0
  181.0100  181.7710  137.5240 C   0  0  0  0  0  0  0  0  0  0  0  0
  180.2670  177.4460  136.6100 N   0  0  0  0  0  0  0  0  0  0  0  0
  180.5820  176.2560  136.9350 N   0  0  0  0  0  0  0  0  0  0  0  0
  179.5820  175.3070  137.1830 N   0  0  0  0  0  2  0  0  0  0  0  0
  179.6360  174.0290  139.2410 C   0  0  0  0  0  1  0  0  0  0  0  0
  179.9220  174.0150  137.7540 C   0  0  2  0  0  3  0  0  0  0  0  0
  181.3290  173.7210  137.5260 N   0  0  0  0  0  2  0  0  0  0  0  0
  181.3880  172.6620  136.5320 C   0  0  0  0  0  2  0  0  0  0  0  0
  182.3020  171.5510  137.0120 C   0  0  0  0  0  2  0  0  0  0  0  0
  183.4330  171.3920  136.0210 C   0  0  0  0  0  2  0  0  0  0  0  0
  184.0350  172.6900  135.7470 N   0  0  0  0  0  2  0  0  0  0  0  0
  185.3510  173.0020  137.8580 C   0  0  0  0  0  2  0  0  0  0  0  0
  185.7660  174.0890  136.8630 C   0  0  0  0  0  2  0  0  0  0  0  0
  186.4700  171.8580  135.8210 C   0  0  0  0  0  1  0  0  0  0  0  0
  185.3510  172.7210  136.3740 C   0  0  0  0  0  0  0  0  0  0  0  0
  180.4290  177.7880  140.2400 C   0  0  0  0  0  3  0  0  0  0  0  0
  179.1910  178.2100  140.0100 C   0  0  0  0  0  2  0  0  0  0  0  0
  185.2050  179.1300  138.5860 O   0  0  0  0  0  0  0  0  0  0  0  0
  185.5460  178.0500  137.7350 C   0  0  0  0  0  2  0  0  0  0  0  0
  186.9010  177.4990  138.1400 C   0  0  0  0  0  2  0  0  0  0  0  0
  187.8380  177.3950  136.9440 C   0  0  0  0  0  2  0  0  0  0  0  0
  189.2390  177.9290  137.2900 C   0  0  1  0  0  3  0  0  0  0  0  0
  190.3350  175.9500  137.8950 C   0  0  0  0  0  2  0  0  0  0  0  0
  190.1940  176.5770  139.2690 C   0  0  0  0  0  2  0  0  0  0  0  0
  190.1330  176.4470  135.5870 C   0  0  0  0  0  1  0  0  0  0  0  0
  189.3520  178.1790  139.0840 S   0  0  0  0  0  0  0  0  0  0  0  0
  190.3280  177.0200  136.9120 N   0  0  0  0  0  0  0  0  0  0  0  0
  1  7  1  0  0  0  0
  2  5  1  0  0  0  0
  3  6  1  0  0  0  0
  4  8  1  0  0  0  0
  4  2  2  0  0  0  0
  5  6  2  0  0  0  0
  5  7  1  0  0  0  0
  8 37  1  1  0  0  0
  8  9  1  0  0  0  0
  9  1  1  0  0  0  0
 10 12  2  0  0  0  0
 10  4  1  0  0  0  0
 11 13  1  1  0  0  0
 11  2  1  0  0  0  0
 12 11  1  0  0  0  0
 13  3  2  0  0  0  0
 14 18  1  0  0  0  0
 15 16  1  6  0  0  0
 15 20  1  0  0  0  0
 15 23  1  0  0  0  0
 15 14  1  0  0  0  0
 17 20  1  0  0  0  0
 17 22  2  0  0  0  0
 18 19  2  0  0  0  0
 18 10  1  0  0  0  0
 20 14  2  0  0  0  0
 22 21  1  0  0  0  0
 22 19  1  0  0  0  0
 23 24  2  0  0  0  0
 24 25  1  0  0  0  0
 25 27  1  0  0  0  0
 27 26  1  1  0  0  0
 28 27  1  0  0  0  0
 29 30  1  0  0  0  0
 29 28  1  0  0  0  0
 31 30  1  0  0  0  0
 32 31  1  0  0  0  0
 32 36  1  0  0  0  0
 34 33  1  0  0  0  0
 35 36  1  0  0  0  0
 36 34  1  0  0  0  0
 36 33  1  0  0  0  0
 38 37  2  0  0  0  0
 39 12  1  0  0  0  0
 40 41  1  0  0  0  0
 40 39  1  0  0  0  0
 42 41  1  0  0  0  0
 43 42  1  1  0  0  0
 43 47  1  0  0  0  0
 44 45  1  0  0  0  0
 46 48  1  0  0  0  0
 47 45  1  0  0  0  0
 48 43  1  0  0  0  0
 48 44  1  0  0  0  0
M  END
>  <MODEL>
4

>  <REMARK>
 VINA RESULT:      -6.9      3.593      7.295
  Name = 
  16 active torsions:
  status: ('A' for Active; 'I' for Inactive)
    1  A    between atoms: C_6  and  C_13
    2  A    between atoms: C_6  and  C_16
    3  A    between atoms: N_7  and  C_41
    4  A    between atoms: N_7  and  N_44
    5  A    between atoms: C_9  and  C_33
    6  A    between atoms: C_9  and  C_35
    7  A    between atoms: C_12  and  N_28
    8  A    between atoms: C_16  and  C_36
    9  A    between atoms: C_20  and  C_34
   10  A    between atoms: N_22  and  C_24
   11  A    between atoms: N_22  and  C_35
   12  A    between atoms: C_25  and  C_27
   13  A    between atoms: C_33  and  N_40
   14  A    between atoms: C_36  and  O_42
   15  A    between atoms: C_39  and  O_42
   16  A    between atoms: N_40  and  C_41
                            x       y       z     vdW  Elec       q    Type
                         _______ _______ _______ _____ _____    ______ ____

>  <TORSDO>
F 16

$$$$
=
 OpenBabel10222420543D

 48 54  0  0  1  0  0  0  0  0999 V2000
  179.5910  178.7530  143.3320 C   0  0  0  0  0  2  0  0  0  0  0  0
  182.4510  178.7930  142.5000 C   0  0  0  0  0  0  0  0  0  0  0  0
  184.3860  179.2620  144.4370 C   0  0  0  0  0  3  0  0  0  0  0  0
  181.6870  178.5050  141.2790 C   0  0  0  0  0  0  0  0  0  0  0  0
  182.0580  178.8190  143.8470 C   0  0  0  0  0  0  0  0  0  0  0  0
  183.0480  179.0340  144.8180 C   0  0  0  0  0  3  0  0  0  0  0  0
  180.7010  178.6370  144.2570 N   0  0  0  0  0  2  0  0  0  0  0  0
  180.5990  177.7120  141.2530 C   0  0  2  0  0  3  0  0  0  0  0  0
  179.6650  177.6940  142.3400 N   0  0  0  0  0  2  0  0  0  0  0  0
  182.6320  178.7590  140.1600 C   0  0  0  0  0  0  0  0  0  0  0  0
  183.7630  179.0080  142.1340 C   0  0  1  0  0  3  0  0  0  0  0  0
  183.8470  179.0010  140.6720 C   0  0  0  0  0  0  0  0  0  0  0  0
  184.7500  179.2640  143.0820 C   0  0  0  0  0  3  0  0  0  0  0  0
  182.4460  178.2910  137.6780 C   0  0  0  0  0  0  0  0  0  0  0  0
  182.7160  177.3940  136.6360 C   0  0  2  0  0  0  0  0  0  0  0  0
  184.0080  177.4180  136.1140 O   0  0  0  0  0  1  0  0  0  0  0  0
  181.1330  179.5500  135.9310 C   0  0  0  0  0  3  0  0  0  0  0  0
  182.2440  179.0880  138.7630 C   0  0  0  0  0  0  0  0  0  0  0  0
  181.4290  180.2110  138.3880 C   0  0  0  0  0  3  0  0  0  0  0  0
  181.9170  178.5070  136.3280 C   0  0  0  0  0  0  0  0  0  0  0  0
  180.1240  181.5730  136.8110 O   0  0  0  0  0  1  0  0  0  0  0  0
  180.9040  180.4440  137.0360 C   0  0  0  0  0  0  0  0  0  0  0  0
  182.0190  176.1200  136.6550 N   0  0  0  0  0  0  0  0  0  0  0  0
  182.6860  175.0420  136.5310 N   0  0  0  0  0  0  0  0  0  0  0  0
  182.0310  173.8050  136.5380 N   0  0  0  0  0  2  0  0  0  0  0  0
  182.4000  171.4440  136.9420 C   0  0  0  0  0  1  0  0  0  0  0  0
  182.6980  172.6180  136.0320 C   0  0  2  0  0  3  0  0  0  0  0  0
  184.1340  172.8390  135.9670 N   0  0  0  0  0  2  0  0  0  0  0  0
  184.6380  172.7660  137.3290 C   0  0  0  0  0  2  0  0  0  0  0  0
  186.1450  172.9370  137.3340 C   0  0  0  0  0  2  0  0  0  0  0  0
  186.4670  174.4060  137.1690 C   0  0  0  0  0  2  0  0  0  0  0  0
  187.8800  174.5700  136.8570 N   0  0  0  0  0  2  0  0  0  0  0  0
  189.3760  176.5360  136.4290 C   0  0  0  0  0  2  0  0  0  0  0  0
  188.1060  177.0340  137.1250 C   0  0  0  0  0  2  0  0  0  0  0  0
  187.3630  176.1050  134.8580 C   0  0  0  0  0  1  0  0  0  0  0  0
  188.0510  175.8530  136.1860 C   0  0  0  0  0  0  0  0  0  0  0  0
  180.3580  176.8320  140.0990 C   0  0  0  0  0  3  0  0  0  0  0  0
  180.9170  175.6320  139.9900 C   0  0  0  0  0  2  0  0  0  0  0  0
  184.9860  179.2590  139.9070 O   0  0  0  0  0  0  0  0  0  0  0  0
  186.0820  178.3630  139.8330 C   0  0  0  0  0  2  0  0  0  0  0  0
  187.0430  178.6470  140.9730 C   0  0  0  0  0  2  0  0  0  0  0  0
  188.3700  177.9270  140.7740 C   0  0  0  0  0  2  0  0  0  0  0  0
  189.3290  178.2000  141.9460 C   0  0  1  0  0  3  0  0  0  0  0  0
  190.2040  176.0590  142.3140 C   0  0  0  0  0  2  0  0  0  0  0  0
  189.3160  176.1700  143.5390 C   0  0  0  0  0  2  0  0  0  0  0  0
  191.1320  177.3520  140.5580 C   0  0  0  0  0  1  0  0  0  0  0  0
  188.4920  177.7920  143.5040 S   0  0  0  0  0  0  0  0  0  0  0  0
  190.5610  177.4050  141.8980 N   0  0  0  0  0  0  0  0  0  0  0  0
  1  7  1  0  0  0  0
  2  5  1  0  0  0  0
  3  6  1  0  0  0  0
  4  2  2  0  0  0  0
  5  7  1  0  0  0  0
  5  6  2  0  0  0  0
  8 37  1  1  0  0  0
  8  4  1  0  0  0  0
  8  9  1  0  0  0  0
  9  1  1  0  0  0  0
 10 12  2  0  0  0  0
 10  4  1  0  0  0  0
 11  2  1  0  0  0  0
 11 13  1  6  0  0  0
 12 11  1  0  0  0  0
 13  3  2  0  0  0  0
 14 18  1  0  0  0  0
 15 16  1  6  0  0  0
 15 23  1  0  0  0  0
 15 14  1  0  0  0  0
 17 20  1  0  0  0  0
 17 22  2  0  0  0  0
 18 10  1  0  0  0  0
 19 18  2  0  0  0  0
 20 15  1  0  0  0  0
 20 14  2  0  0  0  0
 21 22  1  0  0  0  0
 22 19  1  0  0  0  0
 24 25  1  0  0  0  0
 24 23  2  0  0  0  0
 27 25  1  0  0  0  0
 27 26  1  1  0  0  0
 28 27  1  0  0  0  0
 28 29  1  0  0  0  0
 29 30  1  0  0  0  0
 31 30  1  0  0  0  0
 32 31  1  0  0  0  0
 33 34  1  0  0  0  0
 35 36  1  0  0  0  0
 36 33  1  0  0  0  0
 36 32  1  0  0  0  0
 36 34  1  0  0  0  0
 38 37  2  0  0  0  0
 39 12  1  0  0  0  0
 40 39  1  0  0  0  0
 40 41  1  0  0  0  0
 42 41  1  0  0  0  0
 43 42  1  6  0  0  0
 43 47  1  0  0  0  0
 44 45  1  0  0  0  0
 46 48  1  0  0  0  0
 47 45  1  0  0  0  0
 48 43  1  0  0  0  0
 48 44  1  0  0  0  0
M  END
>  <MODEL>
5

>  <REMARK>
 VINA RESULT:      -6.7      3.259      6.504
  Name = 
  16 active torsions:
  status: ('A' for Active; 'I' for Inactive)
    1  A    between atoms: C_6  and  C_13
    2  A    between atoms: C_6  and  C_16
    3  A    between atoms: N_7  and  C_41
    4  A    between atoms: N_7  and  N_44
    5  A    between atoms: C_9  and  C_33
    6  A    between atoms: C_9  and  C_35
    7  A    between atoms: C_12  and  N_28
    8  A    between atoms: C_16  and  C_36
    9  A    between atoms: C_20  and  C_34
   10  A    between atoms: N_22  and  C_24
   11  A    between atoms: N_22  and  C_35
   12  A    between atoms: C_25  and  C_27
   13  A    between atoms: C_33  and  N_40
   14  A    between atoms: C_36  and  O_42
   15  A    between atoms: C_39  and  O_42
   16  A    between atoms: N_40  and  C_41
                            x       y       z     vdW  Elec       q    Type
                         _______ _______ _______ _____ _____    ______ ____

>  <TORSDO>
F 16

$$$$
=
 OpenBabel10222420543D

 48 54  0  0  1  0  0  0  0  0999 V2000
  181.1810  176.2080  139.3750 C   0  0  0  0  0  2  0  0  0  0  0  0
  183.7870  177.5860  138.9390 C   0  0  0  0  0  0  0  0  0  0  0  0
  184.9040  177.5270  136.3960 C   0  0  0  0  0  3  0  0  0  0  0  0
  183.4530  177.8090  140.3520 C   0  0  0  0  0  0  0  0  0  0  0  0
  183.0200  177.0710  137.8820 C   0  0  0  0  0  0  0  0  0  0  0  0
  183.5870  177.0670  136.5980 C   0  0  0  0  0  3  0  0  0  0  0  0
  181.6990  176.5570  138.0670 N   0  0  0  0  0  2  0  0  0  0  0  0
  182.2020  178.0470  140.7900 C   0  0  2  0  0  3  0  0  0  0  0  0
  181.0680  177.4040  140.1930 N   0  0  0  0  0  2  0  0  0  0  0  0
  184.7200  178.2570  140.9850 C   0  0  0  0  0  0  0  0  0  0  0  0
  185.0720  178.0420  138.7340 C   0  0  0  0  0  0  0  0  0  0  0  0
  185.6380  178.4360  140.0250 C   0  0  0  0  0  0  0  0  0  0  0  0
  185.6640  178.0070  137.4740 C   0  0  0  0  0  2  0  0  0  0  0  0
  186.2120  177.6580  142.9420 C   0  0  0  0  0  0  0  0  0  0  0  0
  187.4430  177.1300  143.3510 C   0  0  2  0  0  0  0  0  0  0  0  0
  187.5440  175.7390  143.3830 O   0  0  0  0  0  1  0  0  0  0  0  0
  185.9210  178.2350  145.3800 C   0  0  0  0  0  3  0  0  0  0  0  0
  185.0480  178.1440  142.4300 C   0  0  0  0  0  0  0  0  0  0  0  0
  184.2570  178.7080  143.4910 C   0  0  0  0  0  3  0  0  0  0  0  0
  186.6320  177.7010  144.3450 C   0  0  0  0  0  0  0  0  0  0  0  0
  183.8000  179.3250  145.8270 O   0  0  0  0  0  1  0  0  0  0  0  0
  184.6630  178.7460  144.9020 C   0  0  0  0  0  0  0  0  0  0  0  0
  188.6380  177.8850  143.0190 N   0  0  0  0  0  0  0  0  0  0  0  0
  189.3490  178.3730  143.9570 N   0  0  0  0  0  0  0  0  0  0  0  0
  190.5000  179.1120  143.6550 N   0  0  0  0  0  2  0  0  0  0  0  0
  191.8590  177.4430  142.5410 C   0  0  0  0  0  1  0  0  0  0  0  0
  191.8040  178.4700  143.6530 C   0  0  2  0  0  3  0  0  0  0  0  0
  192.0460  177.8240  144.9330 N   0  0  0  0  0  2  0  0  0  0  0  0
  191.6230  176.4400  144.7990 C   0  0  0  0  0  2  0  0  0  0  0  0
  192.0520  175.6450  146.0180 C   0  0  0  0  0  2  0  0  0  0  0  0
  191.5850  176.3730  147.2590 C   0  0  0  0  0  2  0  0  0  0  0  0
  190.1380  176.2620  147.3800 N   0  0  0  0  0  2  0  0  0  0  0  0
  188.1710  177.4640  148.3660 C   0  0  0  0  0  2  0  0  0  0  0  0
  188.6910  178.2780  147.1790 C   0  0  0  0  0  2  0  0  0  0  0  0
  190.5660  178.2770  148.9220 C   0  0  0  0  0  1  0  0  0  0  0  0
  189.6430  177.4700  148.0290 C   0  0  0  0  0  0  0  0  0  0  0  0
  181.9780  178.9920  141.8950 C   0  0  0  0  0  3  0  0  0  0  0  0
  180.8720  178.9780  142.6300 C   0  0  0  0  0  2  0  0  0  0  0  0
  186.9420  178.8790  140.2560 O   0  0  0  0  0  0  0  0  0  0  0  0
  188.0160  178.6060  139.3720 C   0  0  0  0  0  2  0  0  0  0  0  0
  188.6650  177.2900  139.7570 C   0  0  0  0  0  2  0  0  0  0  0  0
  189.0910  176.4990  138.5270 C   0  0  0  0  0  2  0  0  0  0  0  0
  190.2710  177.1810  137.8130 C   0  0  1  0  0  3  0  0  0  0  0  0
  190.6050  175.7230  136.0110 C   0  0  0  0  0  2  0  0  0  0  0  0
  191.8280  175.3700  136.8350 C   0  0  0  0  0  2  0  0  0  0  0  0
  188.8750  177.3320  135.8320 C   0  0  0  0  0  1  0  0  0  0  0  0
  191.8200  176.3930  138.3400 S   0  0  0  0  0  0  0  0  0  0  0  0
  190.2130  177.0810  136.3500 N   0  0  0  0  0  0  0  0  0  0  0  0
  1  9  1  0  0  0  0
  2  4  1  0  0  0  0
  3  6  2  0  0  0  0
  3 13  1  0  0  0  0
  4  8  1  0  0  0  0
  4 10  2  0  0  0  0
  5  7  1  0  0  0  0
  5  2  2  0  0  0  0
  6  5  1  0  0  0  0
  7  1  1  0  0  0  0
  8 37  1  6  0  0  0
  9  8  1  0  0  0  0
 10 18  1  0  0  0  0
 11  2  1  0  0  0  0
 11 12  2  0  0  0  0
 12 39  1  0  0  0  0
 12 10  1  0  0  0  0
 13 11  1  0  0  0  0
 14 15  1  0  0  0  0
 14 20  1  0  0  0  0
 15 16  1  1  0  0  0
 15 20  1  0  0  0  0
 18 14  2  0  0  0  0
 18 19  1  0  0  0  0
 19 22  2  0  0  0  0
 20 17  2  0  0  0  0
 22 17  1  0  0  0  0
 22 21  1  0  0  0  0
 23 15  1  0  0  0  0
 23 24  2  0  0  0  0
 25 24  1  0  0  0  0
 27 26  1  6  0  0  0
 27 25  1  0  0  0  0
 27 28  1  0  0  0  0
 29 28  1  0  0  0  0
 29 30  1  0  0  0  0
 30 31  1  0  0  0  0
 31 32  1  0  0  0  0
 32 36  1  0  0  0  0
 34 36  1  0  0  0  0
 34 33  1  0  0  0  0
 36 33  1  0  0  0  0
 36 35  1  0  0  0  0
 37 38  2  0  0  0  0
 40 41  1  0  0  0  0
 40 39  1  0  0  0  0
 42 41  1  0  0  0  0
 43 47  1  0  0  0  0
 43 42  1  1  0  0  0
 44 48  1  0  0  0  0
 44 45  1  0  0  0  0
 45 47  1  0  0  0  0
 46 48  1  0  0  0  0
 48 43  1  0  0  0  0
M  END
>  <MODEL>
6

>  <REMARK>
 VINA RESULT:      -6.6      3.219      8.626
  Name = 
  16 active torsions:
  status: ('A' for Active; 'I' for Inactive)
    1  A    between atoms: C_6  and  C_13
    2  A    between atoms: C_6  and  C_16
    3  A    between atoms: N_7  and  C_41
    4  A    between atoms: N_7  and  N_44
    5  A    between atoms: C_9  and  C_33
    6  A    between atoms: C_9  and  C_35
    7  A    between atoms: C_12  and  N_28
    8  A    between atoms: C_16  and  C_36
    9  A    between atoms: C_20  and  C_34
   10  A    between atoms: N_22  and  C_24
   11  A    between atoms: N_22  and  C_35
   12  A    between atoms: C_25  and  C_27
   13  A    between atoms: C_33  and  N_40
   14  A    between atoms: C_36  and  O_42
   15  A    between atoms: C_39  and  O_42
   16  A    between atoms: N_40  and  C_41
                            x       y       z     vdW  Elec       q    Type
                         _______ _______ _______ _____ _____    ______ ____

>  <TORSDO>
F 16

$$$$
=
 OpenBabel10222420543D

 48 54  0  0  1  0  0  0  0  0999 V2000
  180.9010  180.5410  134.7520 C   0  0  0  0  0  2  0  0  0  0  0  0
  181.0800  179.6360  137.5850 C   0  0  0  0  0  0  0  0  0  0  0  0
  180.1330  181.3270  139.5760 C   0  0  0  0  0  3  0  0  0  0  0  0
  181.6310  178.5370  136.7830 C   0  0  0  0  0  0  0  0  0  0  0  0
  180.3770  180.7910  137.2050 C   0  0  0  0  0  0  0  0  0  0  0  0
  179.8840  181.6250  138.2200 C   0  0  0  0  0  3  0  0  0  0  0  0
  180.1500  181.1400  135.8380 N   0  0  0  0  0  2  0  0  0  0  0  0
  181.1260  178.1600  135.5930 C   0  0  2  0  0  3  0  0  0  0  0  0
  180.5980  179.1220  134.6700 N   0  0  0  0  0  2  0  0  0  0  0  0
  182.3680  177.6810  137.7490 C   0  0  0  0  0  0  0  0  0  0  0  0
  181.3130  179.3460  138.9130 C   0  0  0  0  0  0  0  0  0  0  0  0
  182.1330  178.1350  138.9880 C   0  0  0  0  0  0  0  0  0  0  0  0
  180.8670  180.1850  139.9300 C   0  0  0  0  0  2  0  0  0  0  0  0
  184.7610  177.1180  137.1420 C   0  0  0  0  0  0  0  0  0  0  0  0
  186.0450  177.6130  136.8770 C   0  0  2  0  0  0  0  0  0  0  0  0
  186.2700  178.1020  135.5910 O   0  0  0  0  0  1  0  0  0  0  0  0
  185.8770  174.8580  137.0630 C   0  0  0  0  0  3  0  0  0  0  0  0
  183.4770  176.7530  137.4060 C   0  0  0  0  0  0  0  0  0  0  0  0
  183.3950  175.3200  137.4930 C   0  0  0  0  0  3  0  0  0  0  0  0
  185.9070  176.2190  136.9790 C   0  0  0  0  0  0  0  0  0  0  0  0
  184.3140  173.0400  137.4320 O   0  0  0  0  0  1  0  0  0  0  0  0
  184.5340  174.4080  137.3200 C   0  0  0  0  0  0  0  0  0  0  0  0
  186.7560  178.2450  137.9730 N   0  0  0  0  0  0  0  0  0  0  0  0
  187.9860  177.9720  138.1600 N   0  0  0  0  0  0  0  0  0  0  0  0
  188.6860  178.5670  139.2170 N   0  0  0  0  0  2  0  0  0  0  0  0
  189.8360  176.4430  139.4130 C   0  0  0  0  0  1  0  0  0  0  0  0
  189.8500  177.9110  139.7870 C   0  0  2  0  0  3  0  0  0  0  0  0
  189.8460  178.0500  141.2350 N   0  0  0  0  0  2  0  0  0  0  0  0
  190.9070  177.2000  141.7480 C   0  0  0  0  0  2  0  0  0  0  0  0
  191.8090  177.9960  142.6730 C   0  0  0  0  0  2  0  0  0  0  0  0
  191.0100  178.4120  143.8880 C   0  0  0  0  0  2  0  0  0  0  0  0
  191.7490  178.0850  145.1000 N   0  0  0  0  0  2  0  0  0  0  0  0
  189.6230  176.7660  145.2720 C   0  0  0  0  0  2  0  0  0  0  0  0
  189.7470  177.6530  146.5140 C   0  0  0  0  0  2  0  0  0  0  0  0
  191.7030  176.0040  146.6140 C   0  0  0  0  0  1  0  0  0  0  0  0
  190.9810  177.0950  145.8460 C   0  0  0  0  0  0  0  0  0  0  0  0
  181.0970  176.7370  135.2230 C   0  0  0  0  0  3  0  0  0  0  0  0
  180.1060  175.9280  135.5810 C   0  0  0  0  0  2  0  0  0  0  0  0
  182.6480  177.5550  140.1490 O   0  0  0  0  0  0  0  0  0  0  0  0
  184.0000  177.7030  140.5490 C   0  0  0  0  0  2  0  0  0  0  0  0
  184.2860  179.1670  140.8290 C   0  0  0  0  0  2  0  0  0  0  0  0
  185.0170  179.3470  142.1520 C   0  0  0  0  0  2  0  0  0  0  0  0
  184.9060  178.0830  143.0230 C   0  0  1  0  0  3  0  0  0  0  0  0
  184.8220  179.0220  145.1660 C   0  0  0  0  0  2  0  0  0  0  0  0
  186.2240  178.4440  145.2120 C   0  0  0  0  0  2  0  0  0  0  0  0
  182.8220  178.9710  143.8970 C   0  0  0  0  0  1  0  0  0  0  0  0
  186.5580  177.6260  143.6210 S   0  0  0  0  0  0  0  0  0  0  0  0
  184.0520  178.2530  144.2040 N   0  0  0  0  0  0  0  0  0  0  0  0
  1  7  1  0  0  0  0
  2 11  1  0  0  0  0
  3 13  1  0  0  0  0
  4  2  1  0  0  0  0
  4 10  2  0  0  0  0
  5  2  2  0  0  0  0
  5  6  1  0  0  0  0
  6  3  2  0  0  0  0
  7  5  1  0  0  0  0
  8 37  1  1  0  0  0
  8  4  1  0  0  0  0
  9  1  1  0  0  0  0
  9  8  1  0  0  0  0
 10 12  1  0  0  0  0
 11 12  2  0  0  0  0
 11 13  1  0  0  0  0
 12 39  1  0  0  0  0
 14 18  1  0  0  0  0
 15 16  1  6  0  0  0
 15 20  1  0  0  0  0
 15 14  1  0  0  0  0
 15 23  1  0  0  0  0
 17 22  2  0  0  0  0
 18 19  2  0  0  0  0
 18 10  1  0  0  0  0
 20 17  1  0  0  0  0
 20 14  2  0  0  0  0
 22 21  1  0  0  0  0
 22 19  1  0  0  0  0
 23 24  2  0  0  0  0
 24 25  1  0  0  0  0
 25 27  1  0  0  0  0
 27 26  1  1  0  0  0
 27 28  1  0  0  0  0
 28 29  1  0  0  0  0
 29 30  1  0  0  0  0
 30 31  1  0  0  0  0
 31 32  1  0  0  0  0
 32 36  1  0  0  0  0
 33 36  1  0  0  0  0
 33 34  1  0  0  0  0
 36 34  1  0  0  0  0
 36 35  1  0  0  0  0
 37 38  2  0  0  0  0
 39 40  1  0  0  0  0
 40 41  1  0  0  0  0
 41 42  1  0  0  0  0
 43 42  1  1  0  0  0
 43 47  1  0  0  0  0
 43 48  1  0  0  0  0
 44 45  1  0  0  0  0
 46 48  1  0  0  0  0
 47 45  1  0  0  0  0
 48 44  1  0  0  0  0
M  END
>  <MODEL>
7

>  <REMARK>
 VINA RESULT:      -6.5      3.093      7.127
  Name = 
  16 active torsions:
  status: ('A' for Active; 'I' for Inactive)
    1  A    between atoms: C_6  and  C_13
    2  A    between atoms: C_6  and  C_16
    3  A    between atoms: N_7  and  C_41
    4  A    between atoms: N_7  and  N_44
    5  A    between atoms: C_9  and  C_33
    6  A    between atoms: C_9  and  C_35
    7  A    between atoms: C_12  and  N_28
    8  A    between atoms: C_16  and  C_36
    9  A    between atoms: C_20  and  C_34
   10  A    between atoms: N_22  and  C_24
   11  A    between atoms: N_22  and  C_35
   12  A    between atoms: C_25  and  C_27
   13  A    between atoms: C_33  and  N_40
   14  A    between atoms: C_36  and  O_42
   15  A    between atoms: C_39  and  O_42
   16  A    between atoms: N_40  and  C_41
                            x       y       z     vdW  Elec       q    Type
                         _______ _______ _______ _____ _____    ______ ____

>  <TORSDO>
F 16

$$$$
=
 OpenBabel10222420543D

 48 54  0  0  1  0  0  0  0  0999 V2000
  190.8430  178.5950  144.7470 C   0  0  0  0  0  2  0  0  0  0  0  0
  189.8850  177.7340  142.0600 C   0  0  0  0  0  0  0  0  0  0  0  0
  191.7660  177.3030  140.0620 C   0  0  0  0  0  3  0  0  0  0  0  0
  188.6790  177.8570  142.8900 C   0  0  2  0  0  3  0  0  0  0  0  0
  191.2460  177.7530  142.4050 C   0  0  0  0  0  0  0  0  0  0  0  0
  192.1860  177.5110  141.3910 C   0  0  0  0  0  3  0  0  0  0  0  0
  191.6990  178.0060  143.7370 N   0  0  0  0  0  2  0  0  0  0  0  0
  188.6300  177.4940  144.1850 C   0  0  2  0  0  3  0  0  0  0  0  0
  189.7520  177.6850  145.0560 N   0  0  0  0  0  2  0  0  0  0  0  0
  187.5470  177.8860  141.9280 C   0  0  0  0  0  0  0  0  0  0  0  0
  189.4800  177.5220  140.7590 C   0  0  0  0  0  0  0  0  0  0  0  0
  188.0230  177.6400  140.6990 C   0  0  0  0  0  0  0  0  0  0  0  0
  190.4010  177.3220  139.7350 C   0  0  0  0  0  3  0  0  0  0  0  0
  185.2550  178.7280  141.2530 C   0  0  0  0  0  0  0  0  0  0  0  0
  184.3600  178.9570  140.2010 C   0  0  2  0  0  0  0  0  0  0  0  0
  184.5500  180.1270  139.4660 O   0  0  0  0  0  1  0  0  0  0  0  0
  183.3000  179.3290  142.7290 C   0  0  0  0  0  3  0  0  0  0  0  0
  186.2070  178.4730  142.1930 C   0  0  0  0  0  0  0  0  0  0  0  0
  185.6530  178.6770  143.5040 C   0  0  0  0  0  3  0  0  0  0  0  0
  183.8700  179.1340  141.5050 C   0  0  0  0  0  0  0  0  0  0  0  0
  183.8620  179.2530  145.0880 O   0  0  0  0  0  1  0  0  0  0  0  0
  184.2700  179.0950  143.7680 C   0  0  0  0  0  0  0  0  0  0  0  0
  183.8430  177.7960  139.4990 N   0  0  0  0  0  0  0  0  0  0  0  0
  183.0580  176.9980  140.1060 N   0  0  0  0  0  0  0  0  0  0  0  0
  182.5560  175.8690  139.4470 N   0  0  0  0  0  2  0  0  0  0  0  0
  180.7550  174.7720  138.2540 C   0  0  0  0  0  1  0  0  0  0  0  0
  181.1360  175.5670  139.4860 C   0  0  2  0  0  3  0  0  0  0  0  0
  180.3630  176.7990  139.5340 N   0  0  0  0  0  2  0  0  0  0  0  0
  179.5800  176.7630  140.7580 C   0  0  0  0  0  2  0  0  0  0  0  0
  179.6410  178.1110  141.4520 C   0  0  0  0  0  2  0  0  0  0  0  0
  179.3250  179.1910  140.4400 C   0  0  0  0  0  2  0  0  0  0  0  0
  180.3790  180.1960  140.4460 N   0  0  0  0  0  2  0  0  0  0  0  0
  180.7350  180.1610  137.9640 C   0  0  0  0  0  2  0  0  0  0  0  0
  181.6550  181.2230  138.5720 C   0  0  0  0  0  2  0  0  0  0  0  0
  179.2610  182.0160  139.0100 C   0  0  0  0  0  1  0  0  0  0  0  0
  180.3080  180.9330  139.1900 C   0  0  0  0  0  0  0  0  0  0  0  0
  187.4100  176.8770  144.7300 C   0  0  0  0  0  3  0  0  0  0  0  0
  186.9780  177.1220  145.9610 C   0  0  0  0  0  2  0  0  0  0  0  0
  187.2330  177.5690  139.5500 O   0  0  0  0  0  0  0  0  0  0  0  0
  187.4860  178.3470  138.3920 C   0  0  0  0  0  2  0  0  0  0  0  0
  187.0310  177.5830  137.1630 C   0  0  0  0  0  2  0  0  0  0  0  0
  187.2990  176.0910  137.3050 C   0  0  0  0  0  2  0  0  0  0  0  0
  188.0450  175.5420  136.0760 C   0  0  1  0  0  3  0  0  0  0  0  0
  188.6040  173.3920  136.8160 C   0  0  0  0  0  2  0  0  0  0  0  0
  189.9800  174.0290  136.8670 C   0  0  0  0  0  2  0  0  0  0  0  0
  186.4110  173.7470  135.9910 C   0  0  0  0  0  1  0  0  0  0  0  0
  189.8300  175.7590  136.3200 S   0  0  0  0  0  0  0  0  0  0  0  0
  187.8130  174.1140  135.8340 N   0  0  0  0  0  0  0  0  0  0  0  0
  1  9  1  0  0  0  0
  2  5  1  0  0  0  0
  2  4  1  0  0  0  0
  3  6  1  0  0  0  0
  4 10  1  6  0  0  0
  4  8  1  0  0  0  0
  5  7  1  0  0  0  0
  6  5  2  0  0  0  0
  7  1  1  0  0  0  0
  8 37  1  6  0  0  0
  8  9  1  0  0  0  0
 10 18  1  0  0  0  0
 11  2  2  0  0  0  0
 12 11  1  0  0  0  0
 12 10  2  0  0  0  0
 13  3  2  0  0  0  0
 13 11  1  0  0  0  0
 14 20  2  0  0  0  0
 14 18  1  0  0  0  0
 15 16  1  6  0  0  0
 15 14  1  0  0  0  0
 15 20  1  0  0  0  0
 17 22  2  0  0  0  0
 18 19  2  0  0  0  0
 19 22  1  0  0  0  0
 20 17  1  0  0  0  0
 22 21  1  0  0  0  0
 23 24  2  0  0  0  0
 23 15  1  0  0  0  0
 25 27  1  0  0  0  0
 25 24  1  0  0  0  0
 27 26  1  6  0  0  0
 27 28  1  0  0  0  0
 28 29  1  0  0  0  0
 29 30  1  0  0  0  0
 31 32  1  0  0  0  0
 31 30  1  0  0  0  0
 33 34  1  0  0  0  0
 33 36  1  0  0  0  0
 34 36  1  0  0  0  0
 35 36  1  0  0  0  0
 36 32  1  0  0  0  0
 37 38  2  0  0  0  0
 39 12  1  0  0  0  0
 40 39  1  0  0  0  0
 41 42  1  0  0  0  0
 41 40  1  0  0  0  0
 43 47  1  0  0  0  0
 43 42  1  1  0  0  0
 44 45  1  0  0  0  0
 47 45  1  0  0  0  0
 48 46  1  0  0  0  0
 48 43  1  0  0  0  0
 48 44  1  0  0  0  0
M  END
>  <MODEL>
8

>  <REMARK>
 VINA RESULT:      -6.4      2.941      8.119
  Name = 
  16 active torsions:
  status: ('A' for Active; 'I' for Inactive)
    1  A    between atoms: C_6  and  C_13
    2  A    between atoms: C_6  and  C_16
    3  A    between atoms: N_7  and  C_41
    4  A    between atoms: N_7  and  N_44
    5  A    between atoms: C_9  and  C_33
    6  A    between atoms: C_9  and  C_35
    7  A    between atoms: C_12  and  N_28
    8  A    between atoms: C_16  and  C_36
    9  A    between atoms: C_20  and  C_34
   10  A    between atoms: N_22  and  C_24
   11  A    between atoms: N_22  and  C_35
   12  A    between atoms: C_25  and  C_27
   13  A    between atoms: C_33  and  N_40
   14  A    between atoms: C_36  and  O_42
   15  A    between atoms: C_39  and  O_42
   16  A    between atoms: N_40  and  C_41
                            x       y       z     vdW  Elec       q    Type
                         _______ _______ _______ _____ _____    ______ ____

>  <TORSDO>
F 16

$$$$
=
 OpenBabel10222420543D

 48 54  0  0  1  0  0  0  0  0999 V2000
  180.5630  178.7370  141.1740 C   0  0  0  0  0  2  0  0  0  0  0  0
  183.5170  178.5610  141.5180 C   0  0  0  0  0  0  0  0  0  0  0  0
  184.6360  179.5440  143.8630 C   0  0  0  0  0  3  0  0  0  0  0  0
  183.2340  177.9520  140.2120 C   0  0  0  0  0  0  0  0  0  0  0  0
  182.6580  178.9490  142.5590 C   0  0  0  0  0  0  0  0  0  0  0  0
  183.2360  179.4220  143.7480 C   0  0  0  0  0  3  0  0  0  0  0  0
  181.2350  178.8780  142.4500 N   0  0  0  0  0  2  0  0  0  0  0  0
  182.1590  177.1770  139.9720 C   0  0  2  0  0  3  0  0  0  0  0  0
  180.8920  177.4490  140.5860 N   0  0  0  0  0  2  0  0  0  0  0  0
  184.5450  177.8980  139.5150 C   0  0  0  0  0  0  0  0  0  0  0  0
  184.8860  178.6750  141.6410 C   0  0  1  0  0  3  0  0  0  0  0  0
  185.5020  178.2750  140.3750 C   0  0  0  0  0  0  0  0  0  0  0  0
  185.4730  179.1820  142.7970 C   0  0  0  0  0  3  0  0  0  0  0  0
  185.9090  178.0510  137.3860 C   0  0  0  0  0  0  0  0  0  0  0  0
  187.1650  178.3050  136.8220 C   0  0  2  0  0  0  0  0  0  0  0  0
  187.5120  179.6440  136.6490 O   0  0  0  0  0  1  0  0  0  0  0  0
  185.2660  177.3540  135.0500 C   0  0  0  0  0  3  0  0  0  0  0  0
  184.7350  177.8360  138.0420 C   0  0  0  0  0  0  0  0  0  0  0  0
  183.7500  177.3510  137.1140 C   0  0  0  0  0  3  0  0  0  0  0  0
  186.1650  177.8220  135.9620 C   0  0  0  0  0  0  0  0  0  0  0  0
  182.9480  176.6530  134.8970 O   0  0  0  0  0  1  0  0  0  0  0  0
  183.9920  177.1280  135.6830 C   0  0  0  0  0  0  0  0  0  0  0  0
  188.2320  177.3650  137.1180 N   0  0  0  0  0  0  0  0  0  0  0  0
  189.2720  177.3500  136.3830 N   0  0  0  0  0  0  0  0  0  0  0  0
  190.3080  176.4450  136.6490 N   0  0  0  0  0  2  0  0  0  0  0  0
  191.3760  176.2180  138.8120 C   0  0  0  0  0  1  0  0  0  0  0  0
  190.3120  175.6750  137.8800 C   0  0  2  0  0  3  0  0  0  0  0  0
  190.5770  174.2730  137.5950 N   0  0  0  0  0  2  0  0  0  0  0  0
  189.7320  173.9000  136.4730 C   0  0  0  0  0  2  0  0  0  0  0  0
  188.6140  172.9900  136.9460 C   0  0  0  0  0  2  0  0  0  0  0  0
  187.7820  172.5820  135.7510 C   0  0  0  0  0  2  0  0  0  0  0  0
  186.5110  172.0290  136.1990 N   0  0  0  0  0  2  0  0  0  0  0  0
  184.4500  172.8250  135.0140 C   0  0  0  0  0  2  0  0  0  0  0  0
  185.5680  173.8460  134.7840 C   0  0  0  0  0  2  0  0  0  0  0  0
  185.0860  173.8680  137.2980 C   0  0  0  0  0  1  0  0  0  0  0  0
  185.4960  173.0680  136.0760 C   0  0  0  0  0  0  0  0  0  0  0  0
  182.2740  176.0170  139.0750 C   0  0  0  0  0  3  0  0  0  0  0  0
  181.2280  175.5000  138.4420 C   0  0  0  0  0  2  0  0  0  0  0  0
  186.8630  178.3200  140.0660 O   0  0  0  0  0  0  0  0  0  0  0  0
  187.8560  178.6820  141.0110 C   0  0  0  0  0  2  0  0  0  0  0  0
  188.6490  177.4500  141.4040 C   0  0  0  0  0  2  0  0  0  0  0  0
  188.3900  177.0600  142.8530 C   0  0  0  0  0  2  0  0  0  0  0  0
  189.6900  176.6220  143.5500 C   0  0  1  0  0  3  0  0  0  0  0  0
  190.2450  178.5700  144.7260 C   0  0  0  0  0  2  0  0  0  0  0  0
  191.3120  178.6260  143.6500 C   0  0  0  0  0  2  0  0  0  0  0  0
  188.6220  177.1250  145.6730 C   0  0  0  0  0  1  0  0  0  0  0  0
  191.1080  177.1790  142.5650 S   0  0  0  0  0  0  0  0  0  0  0  0
  189.8550  177.1810  144.8970 N   0  0  0  0  0  0  0  0  0  0  0  0
  1  7  1  0  0  0  0
  2 11  1  0  0  0  0
  2  5  1  0  0  0  0
  4  2  2  0  0  0  0
  5  6  2  0  0  0  0
  6  3  1  0  0  0  0
  7  5  1  0  0  0  0
  8 37  1  1  0  0  0
  8  4  1  0  0  0  0
  8  9  1  0  0  0  0
  9  1  1  0  0  0  0
 10  4  1  0  0  0  0
 10 12  2  0  0  0  0
 11 13  1  6  0  0  0
 12 11  1  0  0  0  0
 13  3  2  0  0  0  0
 14 18  1  0  0  0  0
 15 16  1  6  0  0  0
 15 23  1  0  0  0  0
 15 14  1  0  0  0  0
 17 22  2  0  0  0  0
 17 20  1  0  0  0  0
 18 10  1  0  0  0  0
 19 18  2  0  0  0  0
 20 15  1  0  0  0  0
 20 14  2  0  0  0  0
 21 22  1  0  0  0  0
 22 19  1  0  0  0  0
 24 25  1  0  0  0  0
 24 23  2  0  0  0  0
 25 27  1  0  0  0  0
 27 26  1  1  0  0  0
 28 27  1  0  0  0  0
 29 30  1  0  0  0  0
 29 28  1  0  0  0  0
 31 32  1  0  0  0  0
 31 30  1  0  0  0  0
 33 36  1  0  0  0  0
 34 33  1  0  0  0  0
 34 36  1  0  0  0  0
 36 32  1  0  0  0  0
 36 35  1  0  0  0  0
 38 37  2  0  0  0  0
 39 12  1  0  0  0  0
 39 40  1  0  0  0  0
 40 41  1  0  0  0  0
 41 42  1  0  0  0  0
 43 42  1  6  0  0  0
 43 48  1  0  0  0  0
 44 48  1  0  0  0  0
 45 44  1  0  0  0  0
 47 43  1  0  0  0  0
 47 45  1  0  0  0  0
 48 46  1  0  0  0  0
M  END
>  <MODEL>
9

>  <REMARK>
 VINA RESULT:      -6.4      3.138      6.676
  Name = 
  16 active torsions:
  status: ('A' for Active; 'I' for Inactive)
    1  A    between atoms: C_6  and  C_13
    2  A    between atoms: C_6  and  C_16
    3  A    between atoms: N_7  and  C_41
    4  A    between atoms: N_7  and  N_44
    5  A    between atoms: C_9  and  C_33
    6  A    between atoms: C_9  and  C_35
    7  A    between atoms: C_12  and  N_28
    8  A    between atoms: C_16  and  C_36
    9  A    between atoms: C_20  and  C_34
   10  A    between atoms: N_22  and  C_24
   11  A    between atoms: N_22  and  C_35
   12  A    between atoms: C_25  and  C_27
   13  A    between atoms: C_33  and  N_40
   14  A    between atoms: C_36  and  O_42
   15  A    between atoms: C_39  and  O_42
   16  A    between atoms: N_40  and  C_41
                            x       y       z     vdW  Elec       q    Type
                         _______ _______ _______ _____ _____    ______ ____

>  <TORSDO>
F 16

$$$$
