=
 OpenBabel10222420123D

 27 28  0  0  0  0  0  0  0  0999 V2000
  187.9900  177.2960  145.7770 C   0  0  0  0  0  0  0  0  0  0  0  0
  189.6720  177.1210  147.4740 C   0  0  0  0  0  3  0  0  0  0  0  0
  186.9350  177.3840  143.8770 C   0  0  0  0  0  3  0  0  0  0  0  0
  188.3190  177.2920  147.1330 C   0  0  0  0  0  3  0  0  0  0  0  0
  188.2850  177.1880  143.5950 C   0  0  0  0  0  0  0  0  0  0  0  0
  190.6580  176.9610  146.4750 C   0  0  0  0  0  0  0  0  0  0  0  0
  190.2890  176.9700  145.1120 C   0  0  0  0  0  3  0  0  0  0  0  0
  186.7750  177.4480  145.2200 N   0  0  0  0  0  0  0  0  0  0  0  0
  188.9410  177.1390  144.8060 C   0  0  0  0  0  0  0  0  0  0  0  0
  192.4700  175.6990  147.7170 C   0  0  0  0  0  1  0  0  0  0  0  0
  192.0220  176.7920  146.8680 N   0  0  0  0  0  2  0  0  0  0  0  0
  185.5060  177.6080  145.9160 C   0  0  0  0  0  2  0  0  0  0  0  0
  185.4130  179.9890  145.9230 O   0  0  0  0  0  0  0  0  0  0  0  0
  184.8810  178.9120  145.5520 C   0  0  0  0  0  0  0  0  0  0  0  0
  182.6990  178.9610  144.0640 C   0  0  0  0  0  3  0  0  0  0  0  0
  183.6940  178.9400  144.7440 C   0  0  0  0  0  0  0  0  0  0  0  0
  188.8960  177.1060  142.2350 C   0  0  0  0  0  2  0  0  0  0  0  0
  188.2680  178.1200  141.2880 C   0  0  0  0  0  2  0  0  0  0  0  0
  189.7770  176.9880  139.6090 N   0  0  0  0  0  2  0  0  0  0  0  0
  188.7030  179.0050  139.1220 O   0  0  0  0  0  0  0  0  0  0  0  0
  188.9250  178.0830  139.9500 C   0  0  0  0  0  0  0  0  0  0  0  0
  190.4070  176.8920  138.3350 C   0  0  0  0  0  3  0  0  0  0  0  0
  191.6590  176.5420  138.2520 C   0  0  0  0  0  0  0  0  0  0  0  0
  192.9150  176.1890  138.1680 C   0  0  0  0  0  3  0  0  0  0  0  0
  193.6230  175.9990  136.8600 C   0  0  0  0  0  2  0  0  0  0  0  0
  194.9160  174.5870  137.9610 C   0  0  0  0  0  1  0  0  0  0  0  0
  194.9600  175.6340  137.0410 O   0  0  0  0  0  0  0  0  0  0  0  0
  1  4  1  0  0  0  0
  3  8  1  0  0  0  0
  4  2  2  0  0  0  0
  5  3  2  0  0  0  0
  5  9  1  0  0  0  0
  6 11  1  0  0  0  0
  6  2  1  0  0  0  0
  7  6  2  0  0  0  0
  8  1  1  0  0  0  0
  8 12  1  0  0  0  0
  9  7  1  0  0  0  0
  9  1  2  0  0  0  0
 11 10  1  0  0  0  0
 14 12  1  0  0  0  0
 14 13  2  0  0  0  0
 15 16  3  0  0  0  0
 16 14  1  0  0  0  0
 17  5  1  0  0  0  0
 18 17  1  0  0  0  0
 19 21  1  0  0  0  0
 20 21  2  0  0  0  0
 21 18  1  0  0  0  0
 22 19  1  0  0  0  0
 23 22  2  0  0  0  0
 24 23  2  0  0  0  0
 25 27  1  0  0  0  0
 25 24  1  0  0  0  0
 27 26  1  0  0  0  0
M  END
>  <MODEL>
1

>  <REMARK>
 VINA RESULT:      -7.7      0.000      0.000
  Name = 
  10 active torsions:
  status: ('A' for Active; 'I' for Inactive)
    1  A    between atoms: N_1  and  C_5
    2  A    between atoms: C_6  and  C_7
    3  A    between atoms: C_6  and  C_14
    4  A    between atoms: C_7  and  N_25
    5  A    between atoms: C_10  and  C_24
    6  A    between atoms: C_17  and  C_20
    7  A    between atoms: N_18  and  C_19
    8  A    between atoms: C_20  and  C_23
    9  A    between atoms: C_21  and  C_23
   10  A    between atoms: C_24  and  O_27
                            x       y       z     vdW  Elec       q    Type
                         _______ _______ _______ _____ _____    ______ ____

>  <TORSDO>
F 10

$$$$
=
 OpenBabel10222420123D

 27 28  0  0  0  0  0  0  0  0999 V2000
  187.6210  177.7710  146.1130 C   0  0  0  0  0  0  0  0  0  0  0  0
  185.5500  178.6320  146.9550 C   0  0  0  0  0  3  0  0  0  0  0  0
  189.2050  177.0090  144.8310 C   0  0  0  0  0  3  0  0  0  0  0  0
  186.8670  178.2060  147.2040 C   0  0  0  0  0  3  0  0  0  0  0  0
  188.1060  177.2800  144.0190 C   0  0  0  0  0  0  0  0  0  0  0  0
  185.0160  178.6160  145.6470 C   0  0  0  0  0  0  0  0  0  0  0  0
  185.8080  178.1700  144.5670 C   0  0  0  0  0  3  0  0  0  0  0  0
  188.8880  177.3170  146.1110 N   0  0  0  0  0  0  0  0  0  0  0  0
  187.1090  177.7560  144.8450 C   0  0  0  0  0  0  0  0  0  0  0  0
  182.9940  178.9560  144.1600 C   0  0  0  0  0  1  0  0  0  0  0  0
  183.6720  179.0580  145.4420 N   0  0  0  0  0  2  0  0  0  0  0  0
  189.7830  177.2110  147.2540 C   0  0  0  0  0  2  0  0  0  0  0  0
  191.6120  177.5460  145.7640 O   0  0  0  0  0  0  0  0  0  0  0  0
  191.1800  176.9680  146.7940 C   0  0  0  0  0  0  0  0  0  0  0  0
  192.7760  175.3850  148.1800 C   0  0  0  0  0  3  0  0  0  0  0  0
  192.0470  176.1070  147.5490 C   0  0  0  0  0  0  0  0  0  0  0  0
  188.0180  177.0400  142.5480 C   0  0  0  0  0  2  0  0  0  0  0  0
  188.0950  178.3490  141.7730 C   0  0  0  0  0  2  0  0  0  0  0  0
  189.7540  177.4660  140.0860 N   0  0  0  0  0  2  0  0  0  0  0  0
  187.7480  178.4630  139.4210 O   0  0  0  0  0  0  0  0  0  0  0  0
  188.5100  178.1120  140.3610 C   0  0  0  0  0  0  0  0  0  0  0  0
  190.1840  177.1940  138.7560 C   0  0  0  0  0  3  0  0  0  0  0  0
  191.4090  176.8070  138.5330 C   0  0  0  0  0  0  0  0  0  0  0  0
  192.6360  176.4190  138.3100 C   0  0  0  0  0  3  0  0  0  0  0  0
  193.1380  176.0470  136.9470 C   0  0  0  0  0  2  0  0  0  0  0  0
  194.7690  176.1480  135.4620 C   0  0  0  0  0  1  0  0  0  0  0  0
  194.2540  176.8040  136.5790 O   0  0  0  0  0  0  0  0  0  0  0  0
  1  4  1  0  0  0  0
  2  4  2  0  0  0  0
  3  8  1  0  0  0  0
  5  3  2  0  0  0  0
  5  9  1  0  0  0  0
  6  2  1  0  0  0  0
  7  9  1  0  0  0  0
  7  6  2  0  0  0  0
  8  1  1  0  0  0  0
  8 12  1  0  0  0  0
  9  1  2  0  0  0  0
 10 11  1  0  0  0  0
 11  6  1  0  0  0  0
 13 14  2  0  0  0  0
 14 12  1  0  0  0  0
 14 16  1  0  0  0  0
 16 15  3  0  0  0  0
 17  5  1  0  0  0  0
 18 17  1  0  0  0  0
 19 21  1  0  0  0  0
 20 21  2  0  0  0  0
 21 18  1  0  0  0  0
 22 19  1  0  0  0  0
 23 22  2  0  0  0  0
 24 23  2  0  0  0  0
 25 24  1  0  0  0  0
 26 27  1  0  0  0  0
 27 25  1  0  0  0  0
M  END
>  <MODEL>
2

>  <REMARK>
 VINA RESULT:      -7.7      1.745      4.819
  Name = 
  10 active torsions:
  status: ('A' for Active; 'I' for Inactive)
    1  A    between atoms: N_1  and  C_5
    2  A    between atoms: C_6  and  C_7
    3  A    between atoms: C_6  and  C_14
    4  A    between atoms: C_7  and  N_25
    5  A    between atoms: C_10  and  C_24
    6  A    between atoms: C_17  and  C_20
    7  A    between atoms: N_18  and  C_19
    8  A    between atoms: C_20  and  C_23
    9  A    between atoms: C_21  and  C_23
   10  A    between atoms: C_24  and  O_27
                            x       y       z     vdW  Elec       q    Type
                         _______ _______ _______ _____ _____    ______ ____

>  <TORSDO>
F 10

$$$$
=
 OpenBabel10222420123D

 27 28  0  0  0  0  0  0  0  0999 V2000
  187.6770  177.7290  146.2120 C   0  0  0  0  0  0  0  0  0  0  0  0
  185.6320  178.6390  147.0650 C   0  0  0  0  0  3  0  0  0  0  0  0
  189.2300  176.9190  144.9220 C   0  0  0  0  0  3  0  0  0  0  0  0
  186.9450  178.1960  147.3040 C   0  0  0  0  0  3  0  0  0  0  0  0
  188.1250  177.1930  144.1200 C   0  0  0  0  0  0  0  0  0  0  0  0
  185.0800  178.6090  145.7650 C   0  0  0  0  0  0  0  0  0  0  0  0
  185.8500  178.1300  144.6830 C   0  0  0  0  0  3  0  0  0  0  0  0
  188.9360  177.2550  146.2000 N   0  0  0  0  0  0  0  0  0  0  0  0
  187.1480  177.7000  144.9510 C   0  0  0  0  0  0  0  0  0  0  0  0
  183.0460  178.9630  144.2970 C   0  0  0  0  0  1  0  0  0  0  0  0
  183.7400  179.0690  145.5700 N   0  0  0  0  0  2  0  0  0  0  0  0
  189.8440  177.1540  147.3340 C   0  0  0  0  0  2  0  0  0  0  0  0
  191.6470  177.4840  145.8100 O   0  0  0  0  0  0  0  0  0  0  0  0
  191.2380  176.9210  146.8570 C   0  0  0  0  0  0  0  0  0  0  0  0
  192.8740  175.3880  148.2540 C   0  0  0  0  0  3  0  0  0  0  0  0
  192.1280  176.0860  147.6160 C   0  0  0  0  0  0  0  0  0  0  0  0
  188.0140  176.9290  142.6550 C   0  0  0  0  0  2  0  0  0  0  0  0
  188.3740  178.1670  141.8450 C   0  0  0  0  0  2  0  0  0  0  0  0
  185.9890  178.8060  141.3190 N   0  0  0  0  0  2  0  0  0  0  0  0
  187.5750  178.5120  139.6290 O   0  0  0  0  0  0  0  0  0  0  0  0
  187.3040  178.4920  140.8590 C   0  0  0  0  0  0  0  0  0  0  0  0
  184.9380  179.1500  140.4200 C   0  0  0  0  0  3  0  0  0  0  0  0
  183.7390  178.6730  140.6050 C   0  0  0  0  0  0  0  0  0  0  0  0
  182.5370  178.1960  140.7920 C   0  0  0  0  0  3  0  0  0  0  0  0
  181.3690  178.5700  139.9290 C   0  0  0  0  0  2  0  0  0  0  0  0
  180.3770  180.5340  139.7450 C   0  0  0  0  0  1  0  0  0  0  0  0
  180.4880  179.4300  140.5900 O   0  0  0  0  0  0  0  0  0  0  0  0
  1  4  1  0  0  0  0
  2  4  2  0  0  0  0
  3  8  1  0  0  0  0
  5  3  2  0  0  0  0
  5  9  1  0  0  0  0
  6  2  1  0  0  0  0
  7  9  1  0  0  0  0
  7  6  2  0  0  0  0
  8  1  1  0  0  0  0
  8 12  1  0  0  0  0
  9  1  2  0  0  0  0
 10 11  1  0  0  0  0
 11  6  1  0  0  0  0
 13 14  2  0  0  0  0
 14 12  1  0  0  0  0
 14 16  1  0  0  0  0
 16 15  3  0  0  0  0
 17  5  1  0  0  0  0
 18 17  1  0  0  0  0
 20 21  2  0  0  0  0
 21 19  1  0  0  0  0
 21 18  1  0  0  0  0
 22 23  2  0  0  0  0
 22 19  1  0  0  0  0
 23 24  2  0  0  0  0
 25 27  1  0  0  0  0
 25 24  1  0  0  0  0
 26 27  1  0  0  0  0
M  END
>  <MODEL>
3

>  <REMARK>
 VINA RESULT:      -7.6      3.731      7.514
  Name = 
  10 active torsions:
  status: ('A' for Active; 'I' for Inactive)
    1  A    between atoms: N_1  and  C_5
    2  A    between atoms: C_6  and  C_7
    3  A    between atoms: C_6  and  C_14
    4  A    between atoms: C_7  and  N_25
    5  A    between atoms: C_10  and  C_24
    6  A    between atoms: C_17  and  C_20
    7  A    between atoms: N_18  and  C_19
    8  A    between atoms: C_20  and  C_23
    9  A    between atoms: C_21  and  C_23
   10  A    between atoms: C_24  and  O_27
                            x       y       z     vdW  Elec       q    Type
                         _______ _______ _______ _____ _____    ______ ____

>  <TORSDO>
F 10

$$$$
=
 OpenBabel10222420123D

 27 28  0  0  0  0  0  0  0  0999 V2000
  185.7870  178.7540  145.1760 C   0  0  0  0  0  0  0  0  0  0  0  0
  186.1750  179.0510  147.5210 C   0  0  0  0  0  3  0  0  0  0  0  0
  185.8970  178.1100  143.1010 C   0  0  0  0  0  3  0  0  0  0  0  0
  185.4320  179.3760  146.3730 C   0  0  0  0  0  3  0  0  0  0  0  0
  186.8960  177.4370  143.7990 C   0  0  0  0  0  0  0  0  0  0  0  0
  187.2430  178.1280  147.4570 C   0  0  0  0  0  0  0  0  0  0  0  0
  187.5750  177.5160  146.2280 C   0  0  0  0  0  3  0  0  0  0  0  0
  185.2280  178.9130  143.9620 N   0  0  0  0  0  0  0  0  0  0  0  0
  186.8190  177.8580  145.1090 C   0  0  0  0  0  0  0  0  0  0  0  0
  189.3600  178.2150  148.8460 C   0  0  0  0  0  1  0  0  0  0  0  0
  187.9720  177.8280  148.6500 N   0  0  0  0  0  2  0  0  0  0  0  0
  184.0870  179.7530  143.6260 C   0  0  0  0  0  2  0  0  0  0  0  0
  182.1540  178.5380  144.3080 O   0  0  0  0  0  0  0  0  0  0  0  0
  182.8880  178.9090  143.3570 C   0  0  0  0  0  0  0  0  0  0  0  0
  182.2630  178.2560  140.8750 C   0  0  0  0  0  3  0  0  0  0  0  0
  182.5470  178.5530  142.0080 C   0  0  0  0  0  0  0  0  0  0  0  0
  187.8910  176.4880  143.2150 C   0  0  0  0  0  2  0  0  0  0  0  0
  188.9630  177.2310  142.4300 C   0  0  0  0  0  2  0  0  0  0  0  0
  190.4850  176.6970  144.3720 N   0  0  0  0  0  2  0  0  0  0  0  0
  190.8000  178.6060  143.0620 O   0  0  0  0  0  0  0  0  0  0  0  0
  190.1270  177.5680  143.2980 C   0  0  0  0  0  0  0  0  0  0  0  0
  191.6040  176.9600  145.2150 C   0  0  0  0  0  3  0  0  0  0  0  0
  191.6860  176.3930  146.3850 C   0  0  0  0  0  0  0  0  0  0  0  0
  191.7690  175.8240  147.5580 C   0  0  0  0  0  3  0  0  0  0  0  0
  192.9480  175.9980  148.4680 C   0  0  0  0  0  2  0  0  0  0  0  0
  193.7010  177.0100  150.2810 C   0  0  0  0  0  1  0  0  0  0  0  0
  192.8980  177.2120  149.1590 O   0  0  0  0  0  0  0  0  0  0  0  0
  1  4  1  0  0  0  0
  3  5  2  0  0  0  0
  3  8  1  0  0  0  0
  4  2  2  0  0  0  0
  5  9  1  0  0  0  0
  6  2  1  0  0  0  0
  6 11  1  0  0  0  0
  7  6  2  0  0  0  0
  8  1  1  0  0  0  0
  9  1  2  0  0  0  0
  9  7  1  0  0  0  0
 11 10  1  0  0  0  0
 12  8  1  0  0  0  0
 14 12  1  0  0  0  0
 14 13  2  0  0  0  0
 15 16  3  0  0  0  0
 16 14  1  0  0  0  0
 17  5  1  0  0  0  0
 18 17  1  0  0  0  0
 18 21  1  0  0  0  0
 19 22  1  0  0  0  0
 20 21  2  0  0  0  0
 21 19  1  0  0  0  0
 22 23  2  0  0  0  0
 23 24  2  0  0  0  0
 24 25  1  0  0  0  0
 25 27  1  0  0  0  0
 27 26  1  0  0  0  0
M  END
>  <MODEL>
4

>  <REMARK>
 VINA RESULT:      -7.5      3.640      5.717
  Name = 
  10 active torsions:
  status: ('A' for Active; 'I' for Inactive)
    1  A    between atoms: N_1  and  C_5
    2  A    between atoms: C_6  and  C_7
    3  A    between atoms: C_6  and  C_14
    4  A    between atoms: C_7  and  N_25
    5  A    between atoms: C_10  and  C_24
    6  A    between atoms: C_17  and  C_20
    7  A    between atoms: N_18  and  C_19
    8  A    between atoms: C_20  and  C_23
    9  A    between atoms: C_21  and  C_23
   10  A    between atoms: C_24  and  O_27
                            x       y       z     vdW  Elec       q    Type
                         _______ _______ _______ _____ _____    ______ ____

>  <TORSDO>
F 10

$$$$
=
 OpenBabel10222420123D

 27 28  0  0  0  0  0  0  0  0999 V2000
  189.5760  176.8820  144.0910 C   0  0  0  0  0  0  0  0  0  0  0  0
  191.6480  176.6590  145.2720 C   0  0  0  0  0  3  0  0  0  0  0  0
  187.4810  177.1580  143.5720 C   0  0  0  0  0  3  0  0  0  0  0  0
  190.9540  176.6650  144.0490 C   0  0  0  0  0  3  0  0  0  0  0  0
  187.5850  177.2650  144.9570 C   0  0  0  0  0  0  0  0  0  0  0  0
  190.9700  176.8640  146.4940 C   0  0  0  0  0  0  0  0  0  0  0  0
  189.5740  177.0800  146.4980 C   0  0  0  0  0  3  0  0  0  0  0  0
  188.7120  176.9230  143.0590 N   0  0  0  0  0  0  0  0  0  0  0  0
  188.9150  177.0820  145.2710 C   0  0  0  0  0  0  0  0  0  0  0  0
  192.6480  175.7860  148.0540 C   0  0  0  0  0  1  0  0  0  0  0  0
  191.7170  176.8490  147.7130 N   0  0  0  0  0  2  0  0  0  0  0  0
  189.0300  176.7870  141.6450 C   0  0  0  0  0  2  0  0  0  0  0  0
  188.4570  179.0950  141.4790 O   0  0  0  0  0  0  0  0  0  0  0  0
  188.5590  177.9860  140.8940 C   0  0  0  0  0  0  0  0  0  0  0  0
  188.0090  177.8030  138.3170 C   0  0  0  0  0  3  0  0  0  0  0  0
  188.2590  177.8850  139.4930 C   0  0  0  0  0  0  0  0  0  0  0  0
  186.4550  177.4780  145.9090 C   0  0  0  0  0  2  0  0  0  0  0  0
  185.9400  178.9100  145.8390 C   0  0  0  0  0  2  0  0  0  0  0  0
  184.4950  178.9250  143.7690 N   0  0  0  0  0  2  0  0  0  0  0  0
  183.5630  179.0250  145.9100 O   0  0  0  0  0  0  0  0  0  0  0  0
  184.5980  178.9660  145.1930 C   0  0  0  0  0  0  0  0  0  0  0  0
  183.2350  178.9490  143.1030 C   0  0  0  0  0  3  0  0  0  0  0  0
  183.1330  178.4990  141.8850 C   0  0  0  0  0  0  0  0  0  0  0  0
  183.0300  178.0470  140.6630 C   0  0  0  0  0  3  0  0  0  0  0  0
  181.7260  177.9760  139.9260 C   0  0  0  0  0  2  0  0  0  0  0  0
  179.6090  178.4870  140.2930 C   0  0  0  0  0  1  0  0  0  0  0  0
  180.6570  177.7100  140.7860 O   0  0  0  0  0  0  0  0  0  0  0  0
  1  9  1  0  0  0  0
  2  6  2  0  0  0  0
  3  5  2  0  0  0  0
  4  1  2  0  0  0  0
  4  2  1  0  0  0  0
  5  9  1  0  0  0  0
  5 17  1  0  0  0  0
  6  7  1  0  0  0  0
  6 11  1  0  0  0  0
  8  3  1  0  0  0  0
  8  1  1  0  0  0  0
  9  7  2  0  0  0  0
 11 10  1  0  0  0  0
 12  8  1  0  0  0  0
 14 13  2  0  0  0  0
 14 12  1  0  0  0  0
 15 16  3  0  0  0  0
 16 14  1  0  0  0  0
 18 17  1  0  0  0  0
 19 21  1  0  0  0  0
 21 18  1  0  0  0  0
 21 20  2  0  0  0  0
 22 19  1  0  0  0  0
 23 22  2  0  0  0  0
 24 23  2  0  0  0  0
 25 24  1  0  0  0  0
 25 27  1  0  0  0  0
 26 27  1  0  0  0  0
M  END
>  <MODEL>
5

>  <REMARK>
 VINA RESULT:      -7.5      3.079      7.146
  Name = 
  10 active torsions:
  status: ('A' for Active; 'I' for Inactive)
    1  A    between atoms: N_1  and  C_5
    2  A    between atoms: C_6  and  C_7
    3  A    between atoms: C_6  and  C_14
    4  A    between atoms: C_7  and  N_25
    5  A    between atoms: C_10  and  C_24
    6  A    between atoms: C_17  and  C_20
    7  A    between atoms: N_18  and  C_19
    8  A    between atoms: C_20  and  C_23
    9  A    between atoms: C_21  and  C_23
   10  A    between atoms: C_24  and  O_27
                            x       y       z     vdW  Elec       q    Type
                         _______ _______ _______ _____ _____    ______ ____

>  <TORSDO>
F 10

$$$$
=
 OpenBabel10222420123D

 27 28  0  0  0  0  0  0  0  0999 V2000
  187.3240  177.8490  146.0640 C   0  0  0  0  0  0  0  0  0  0  0  0
  188.7870  177.8450  147.9610 C   0  0  0  0  0  3  0  0  0  0  0  0
  186.4760  177.6210  144.0740 C   0  0  0  0  0  3  0  0  0  0  0  0
  187.5240  178.1370  147.4150 C   0  0  0  0  0  3  0  0  0  0  0  0
  187.7850  177.1480  144.0260 C   0  0  0  0  0  0  0  0  0  0  0  0
  189.8100  177.2840  147.1660 C   0  0  0  0  0  0  0  0  0  0  0  0
  189.5720  177.0060  145.8020 C   0  0  0  0  0  3  0  0  0  0  0  0
  186.2120  178.0470  145.3320 N   0  0  0  0  0  0  0  0  0  0  0  0
  188.3110  177.3040  145.2910 C   0  0  0  0  0  0  0  0  0  0  0  0
  191.9280  175.9040  147.3390 C   0  0  0  0  0  1  0  0  0  0  0  0
  191.0790  177.0050  147.7640 N   0  0  0  0  0  2  0  0  0  0  0  0
  184.9390  178.5770  145.7980 C   0  0  0  0  0  2  0  0  0  0  0  0
  184.8560  180.2400  144.0930 O   0  0  0  0  0  0  0  0  0  0  0  0
  184.2550  179.3150  144.6980 C   0  0  0  0  0  0  0  0  0  0  0  0
  181.8110  178.6300  143.9670 C   0  0  0  0  0  3  0  0  0  0  0  0
  182.9260  178.9440  144.2990 C   0  0  0  0  0  0  0  0  0  0  0  0
  188.4890  176.6290  142.8150 C   0  0  0  0  0  2  0  0  0  0  0  0
  189.4220  177.6800  142.2290 C   0  0  0  0  0  2  0  0  0  0  0  0
  188.8950  178.4510  139.8830 N   0  0  0  0  0  2  0  0  0  0  0  0
  190.2440  176.5860  140.2820 O   0  0  0  0  0  0  0  0  0  0  0  0
  189.5460  177.5230  140.7520 C   0  0  0  0  0  0  0  0  0  0  0  0
  189.0030  178.3610  138.4660 C   0  0  0  0  0  3  0  0  0  0  0  0
  187.9360  178.1800  137.7400 C   0  0  0  0  0  0  0  0  0  0  0  0
  186.8660  178.0010  137.0130 C   0  0  0  0  0  3  0  0  0  0  0  0
  186.8950  177.9660  135.5140 C   0  0  0  0  0  2  0  0  0  0  0  0
  186.7000  175.8110  135.0750 C   0  0  0  0  0  1  0  0  0  0  0  0
  187.6100  176.8660  135.0320 O   0  0  0  0  0  0  0  0  0  0  0  0
  1  4  1  0  0  0  0
  3  8  1  0  0  0  0
  4  2  2  0  0  0  0
  5  3  2  0  0  0  0
  5  9  1  0  0  0  0
  6 11  1  0  0  0  0
  6  2  1  0  0  0  0
  7  6  2  0  0  0  0
  8 12  1  0  0  0  0
  8  1  1  0  0  0  0
  9  7  1  0  0  0  0
  9  1  2  0  0  0  0
 10 11  1  0  0  0  0
 13 14  2  0  0  0  0
 14 12  1  0  0  0  0
 15 16  3  0  0  0  0
 16 14  1  0  0  0  0
 17  5  1  0  0  0  0
 18 17  1  0  0  0  0
 19 21  1  0  0  0  0
 20 21  2  0  0  0  0
 21 18  1  0  0  0  0
 22 19  1  0  0  0  0
 23 22  2  0  0  0  0
 24 23  2  0  0  0  0
 25 24  1  0  0  0  0
 27 26  1  0  0  0  0
 27 25  1  0  0  0  0
M  END
>  <MODEL>
6

>  <REMARK>
 VINA RESULT:      -7.4      2.535      3.251
  Name = 
  10 active torsions:
  status: ('A' for Active; 'I' for Inactive)
    1  A    between atoms: N_1  and  C_5
    2  A    between atoms: C_6  and  C_7
    3  A    between atoms: C_6  and  C_14
    4  A    between atoms: C_7  and  N_25
    5  A    between atoms: C_10  and  C_24
    6  A    between atoms: C_17  and  C_20
    7  A    between atoms: N_18  and  C_19
    8  A    between atoms: C_20  and  C_23
    9  A    between atoms: C_21  and  C_23
   10  A    between atoms: C_24  and  O_27
                            x       y       z     vdW  Elec       q    Type
                         _______ _______ _______ _____ _____    ______ ____

>  <TORSDO>
F 10

$$$$
=
 OpenBabel10222420123D

 27 28  0  0  0  0  0  0  0  0999 V2000
  188.0240  177.2720  145.9960 C   0  0  0  0  0  0  0  0  0  0  0  0
  189.7000  177.1180  147.6990 C   0  0  0  0  0  3  0  0  0  0  0  0
  186.9740  177.3450  144.0910 C   0  0  0  0  0  3  0  0  0  0  0  0
  188.3470  177.2760  147.3530 C   0  0  0  0  0  3  0  0  0  0  0  0
  188.3270  177.1590  143.8140 C   0  0  0  0  0  0  0  0  0  0  0  0
  190.6910  176.9630  146.7040 C   0  0  0  0  0  0  0  0  0  0  0  0
  190.3280  176.9640  145.3400 C   0  0  0  0  0  3  0  0  0  0  0  0
  186.8090  177.4110  145.4330 N   0  0  0  0  0  0  0  0  0  0  0  0
  188.9790  177.1210  145.0290 C   0  0  0  0  0  0  0  0  0  0  0  0
  192.5460  175.6250  147.7930 C   0  0  0  0  0  1  0  0  0  0  0  0
  192.0560  176.8070  147.1030 N   0  0  0  0  0  2  0  0  0  0  0  0
  185.5360  177.5630  146.1240 C   0  0  0  0  0  2  0  0  0  0  0  0
  185.4860  179.9440  146.2060 O   0  0  0  0  0  0  0  0  0  0  0  0
  184.9320  178.8890  145.8060 C   0  0  0  0  0  0  0  0  0  0  0  0
  182.7410  179.0250  144.3380 C   0  0  0  0  0  3  0  0  0  0  0  0
  183.7410  178.9630  145.0060 C   0  0  0  0  0  0  0  0  0  0  0  0
  188.9440  177.0780  142.4570 C   0  0  0  0  0  2  0  0  0  0  0  0
  188.8120  178.4000  141.7140 C   0  0  0  0  0  2  0  0  0  0  0  0
  186.4220  178.9800  141.1440 N   0  0  0  0  0  2  0  0  0  0  0  0
  187.7930  177.8330  139.6390 O   0  0  0  0  0  0  0  0  0  0  0  0
  187.6590  178.3720  140.7690 C   0  0  0  0  0  0  0  0  0  0  0  0
  185.2980  179.0030  140.2680 C   0  0  0  0  0  3  0  0  0  0  0  0
  184.1910  178.4080  140.6120 C   0  0  0  0  0  0  0  0  0  0  0  0
  183.0800  177.8130  140.9580 C   0  0  0  0  0  3  0  0  0  0  0  0
  181.8370  177.8560  140.1200 C   0  0  0  0  0  2  0  0  0  0  0  0
  179.8020  178.6410  139.7770 C   0  0  0  0  0  1  0  0  0  0  0  0
  180.9170  178.7900  140.6020 O   0  0  0  0  0  0  0  0  0  0  0  0
  1  4  1  0  0  0  0
  3  8  1  0  0  0  0
  4  2  2  0  0  0  0
  5  3  2  0  0  0  0
  5  9  1  0  0  0  0
  6 11  1  0  0  0  0
  6  2  1  0  0  0  0
  7  6  2  0  0  0  0
  8  1  1  0  0  0  0
  8 12  1  0  0  0  0
  9  7  1  0  0  0  0
  9  1  2  0  0  0  0
 11 10  1  0  0  0  0
 14 12  1  0  0  0  0
 14 13  2  0  0  0  0
 15 16  3  0  0  0  0
 16 14  1  0  0  0  0
 17  5  1  0  0  0  0
 18 17  1  0  0  0  0
 20 21  2  0  0  0  0
 21 19  1  0  0  0  0
 21 18  1  0  0  0  0
 22 23  2  0  0  0  0
 22 19  1  0  0  0  0
 23 24  2  0  0  0  0
 25 27  1  0  0  0  0
 25 24  1  0  0  0  0
 26 27  1  0  0  0  0
M  END
>  <MODEL>
7

>  <REMARK>
 VINA RESULT:      -7.4      3.191      5.615
  Name = 
  10 active torsions:
  status: ('A' for Active; 'I' for Inactive)
    1  A    between atoms: N_1  and  C_5
    2  A    between atoms: C_6  and  C_7
    3  A    between atoms: C_6  and  C_14
    4  A    between atoms: C_7  and  N_25
    5  A    between atoms: C_10  and  C_24
    6  A    between atoms: C_17  and  C_20
    7  A    between atoms: N_18  and  C_19
    8  A    between atoms: C_20  and  C_23
    9  A    between atoms: C_21  and  C_23
   10  A    between atoms: C_24  and  O_27
                            x       y       z     vdW  Elec       q    Type
                         _______ _______ _______ _____ _____    ______ ____

>  <TORSDO>
F 10

$$$$
=
 OpenBabel10222420123D

 27 28  0  0  0  0  0  0  0  0999 V2000
  189.6530  177.1760  141.8560 C   0  0  0  0  0  0  0  0  0  0  0  0
  190.2150  177.6940  139.5860 C   0  0  0  0  0  3  0  0  0  0  0  0
  188.6240  176.9570  143.7610 C   0  0  0  0  0  3  0  0  0  0  0  0
  190.5940  177.1510  140.8270 C   0  0  0  0  0  3  0  0  0  0  0  0
  187.7390  177.5690  142.8770 C   0  0  0  0  0  0  0  0  0  0  0  0
  188.9280  178.2440  139.3970 C   0  0  0  0  0  0  0  0  0  0  0  0
  188.0010  178.2520  140.4620 C   0  0  0  0  0  3  0  0  0  0  0  0
  189.7920  176.7250  143.1170 N   0  0  0  0  0  0  0  0  0  0  0  0
  188.4050  177.7060  141.6780 C   0  0  0  0  0  0  0  0  0  0  0  0
  189.2540  178.3890  136.8890 C   0  0  0  0  0  1  0  0  0  0  0  0
  188.5870  178.7860  138.1180 N   0  0  0  0  0  2  0  0  0  0  0  0
  190.9590  176.0660  143.6870 C   0  0  0  0  0  2  0  0  0  0  0  0
  191.9310  178.0890  144.4900 O   0  0  0  0  0  0  0  0  0  0  0  0
  191.5590  176.9160  144.7550 C   0  0  0  0  0  0  0  0  0  0  0  0
  191.7730  175.9880  147.2180 C   0  0  0  0  0  3  0  0  0  0  0  0
  191.6750  176.4130  146.0950 C   0  0  0  0  0  0  0  0  0  0  0  0
  186.3560  178.0340  143.1980 C   0  0  0  0  0  2  0  0  0  0  0  0
  186.0980  177.9940  144.6980 C   0  0  0  0  0  2  0  0  0  0  0  0
  183.7260  178.5450  144.0320 N   0  0  0  0  0  2  0  0  0  0  0  0
  184.5240  178.9860  146.1830 O   0  0  0  0  0  0  0  0  0  0  0  0
  184.7520  178.5460  145.0250 C   0  0  0  0  0  0  0  0  0  0  0  0
  182.4160  179.0370  144.3010 C   0  0  0  0  0  3  0  0  0  0  0  0
  181.5070  179.0150  143.3680 C   0  0  0  0  0  0  0  0  0  0  0  0
  180.5950  178.9920  142.4320 C   0  0  0  0  0  3  0  0  0  0  0  0
  179.1780  179.4270  142.6640 C   0  0  0  0  0  2  0  0  0  0  0  0
  179.2710  181.0010  141.1180 C   0  0  0  0  0  1  0  0  0  0  0  0
  179.0180  180.8020  142.4740 O   0  0  0  0  0  0  0  0  0  0  0  0
  1  8  1  0  0  0  0
  2  4  1  0  0  0  0
  4  1  2  0  0  0  0
  5 17  1  0  0  0  0
  5  3  2  0  0  0  0
  6  2  2  0  0  0  0
  6  7  1  0  0  0  0
  7  9  2  0  0  0  0
  8 12  1  0  0  0  0
  8  3  1  0  0  0  0
  9  1  1  0  0  0  0
  9  5  1  0  0  0  0
 10 11  1  0  0  0  0
 11  6  1  0  0  0  0
 12 14  1  0  0  0  0
 13 14  2  0  0  0  0
 14 16  1  0  0  0  0
 16 15  3  0  0  0  0
 17 18  1  0  0  0  0
 18 21  1  0  0  0  0
 19 22  1  0  0  0  0
 19 21  1  0  0  0  0
 21 20  2  0  0  0  0
 23 22  2  0  0  0  0
 24 25  1  0  0  0  0
 24 23  2  0  0  0  0
 26 27  1  0  0  0  0
 27 25  1  0  0  0  0
M  END
>  <MODEL>
8

>  <REMARK>
 VINA RESULT:      -7.3      3.094      9.116
  Name = 
  10 active torsions:
  status: ('A' for Active; 'I' for Inactive)
    1  A    between atoms: N_1  and  C_5
    2  A    between atoms: C_6  and  C_7
    3  A    between atoms: C_6  and  C_14
    4  A    between atoms: C_7  and  N_25
    5  A    between atoms: C_10  and  C_24
    6  A    between atoms: C_17  and  C_20
    7  A    between atoms: N_18  and  C_19
    8  A    between atoms: C_20  and  C_23
    9  A    between atoms: C_21  and  C_23
   10  A    between atoms: C_24  and  O_27
                            x       y       z     vdW  Elec       q    Type
                         _______ _______ _______ _____ _____    ______ ____

>  <TORSDO>
F 10

$$$$
=
 OpenBabel10222420123D

 27 28  0  0  0  0  0  0  0  0999 V2000
  186.0910  178.0660  143.6720 C   0  0  0  0  0  0  0  0  0  0  0  0
  184.3190  178.8360  142.2570 C   0  0  0  0  0  3  0  0  0  0  0  0
  188.0260  177.4640  144.4650 C   0  0  0  0  0  3  0  0  0  0  0  0
  184.7360  178.3550  143.5100 C   0  0  0  0  0  3  0  0  0  0  0  0
  188.2230  177.8670  143.1470 C   0  0  0  0  0  0  0  0  0  0  0  0
  185.2420  179.0160  141.2030 C   0  0  0  0  0  0  0  0  0  0  0  0
  186.6070  178.7120  141.4020 C   0  0  0  0  0  3  0  0  0  0  0  0
  186.7120  177.5930  144.7680 N   0  0  0  0  0  0  0  0  0  0  0  0
  186.9900  178.2390  142.6550 C   0  0  0  0  0  0  0  0  0  0  0  0
  184.8130  178.7170  138.7250 C   0  0  0  0  0  1  0  0  0  0  0  0
  184.7720  179.5060  139.9450 N   0  0  0  0  0  2  0  0  0  0  0  0
  186.1090  177.3100  146.0630 C   0  0  0  0  0  2  0  0  0  0  0  0
  185.7190  179.4310  147.0770 O   0  0  0  0  0  0  0  0  0  0  0  0
  186.4330  178.3970  147.0310 C   0  0  0  0  0  0  0  0  0  0  0  0
  188.4610  178.1190  148.7000 C   0  0  0  0  0  3  0  0  0  0  0  0
  187.5350  178.2460  147.9400 C   0  0  0  0  0  0  0  0  0  0  0  0
  189.5180  177.8400  142.4030 C   0  0  0  0  0  2  0  0  0  0  0  0
  189.6100  176.6130  141.5060 C   0  0  0  0  0  2  0  0  0  0  0  0
  190.7600  176.0770  139.3230 N   0  0  0  0  0  2  0  0  0  0  0  0
  189.6530  178.1080  139.6530 O   0  0  0  0  0  0  0  0  0  0  0  0
  190.0070  176.9920  140.1190 C   0  0  0  0  0  0  0  0  0  0  0  0
  191.1410  176.3800  137.9840 C   0  0  0  0  0  3  0  0  0  0  0  0
  192.3840  176.2520  137.6150 C   0  0  0  0  0  0  0  0  0  0  0  0
  193.6310  176.1220  137.2450 C   0  0  0  0  0  3  0  0  0  0  0  0
  194.0920  176.3550  135.8360 C   0  0  0  0  0  2  0  0  0  0  0  0
  196.0120  176.8590  134.8700 C   0  0  0  0  0  1  0  0  0  0  0  0
  195.0650  177.3550  135.7660 O   0  0  0  0  0  0  0  0  0  0  0  0
  1  8  1  0  0  0  0
  2  4  2  0  0  0  0
  3  8  1  0  0  0  0
  4  1  1  0  0  0  0
  5  3  2  0  0  0  0
  6  7  2  0  0  0  0
  6  2  1  0  0  0  0
  7  9  1  0  0  0  0
  8 12  1  0  0  0  0
  9  5  1  0  0  0  0
  9  1  2  0  0  0  0
 10 11  1  0  0  0  0
 11  6  1  0  0  0  0
 12 14  1  0  0  0  0
 14 13  2  0  0  0  0
 14 16  1  0  0  0  0
 16 15  3  0  0  0  0
 17  5  1  0  0  0  0
 18 17  1  0  0  0  0
 19 21  1  0  0  0  0
 20 21  2  0  0  0  0
 21 18  1  0  0  0  0
 22 19  1  0  0  0  0
 23 22  2  0  0  0  0
 24 23  2  0  0  0  0
 25 24  1  0  0  0  0
 26 27  1  0  0  0  0
 27 25  1  0  0  0  0
M  END
>  <MODEL>
9

>  <REMARK>
 VINA RESULT:      -7.3      2.105      4.632
  Name = 
  10 active torsions:
  status: ('A' for Active; 'I' for Inactive)
    1  A    between atoms: N_1  and  C_5
    2  A    between atoms: C_6  and  C_7
    3  A    between atoms: C_6  and  C_14
    4  A    between atoms: C_7  and  N_25
    5  A    between atoms: C_10  and  C_24
    6  A    between atoms: C_17  and  C_20
    7  A    between atoms: N_18  and  C_19
    8  A    between atoms: C_20  and  C_23
    9  A    between atoms: C_21  and  C_23
   10  A    between atoms: C_24  and  O_27
                            x       y       z     vdW  Elec       q    Type
                         _______ _______ _______ _____ _____    ______ ____

>  <TORSDO>
F 10

$$$$
