=
 OpenBabel10222417413D

 30 32  0  0  1  0  0  0  0  0999 V2000
  189.9520  177.5990  142.1270 C   0  0  1  0  0  3  0  0  0  0  0  0
  185.6950  179.2680  140.3660 N   0  0  0  0  0  0  0  0  0  0  0  0
  187.9250  177.3880  143.3790 O   0  0  0  0  0  0  0  0  0  0  0  0
  188.4800  177.7850  142.3190 C   0  0  0  0  0  0  0  0  0  0  0  0
  184.1280  178.8140  141.8300 C   0  0  0  0  0  0  0  0  0  0  0  0
  187.7240  178.4330  141.2910 N   0  0  0  0  0  2  0  0  0  0  0  0
  185.3860  178.2830  142.4320 C   0  0  0  0  0  2  0  0  0  0  0  0
  186.3140  178.6730  141.3280 C   0  0  0  0  0  0  0  0  0  0  0  0
  184.3370  179.3560  140.6790 N   0  0  0  0  0  0  0  0  0  0  0  0
  182.6200  179.0860  143.6720 N   0  0  0  0  0  2  0  0  0  0  0  0
  182.7990  178.7470  142.4400 C   0  0  0  0  0  3  0  0  0  0  0  0
  191.6230  176.5430  145.1840 C   0  0  0  0  0  0  0  0  0  0  0  0
  191.7440  177.8440  145.3060 O   0  0  0  0  0  0  0  0  0  0  0  0
  192.2470  175.3950  146.3500 Cl  0  0  0  0  0  0  0  0  0  0  0  0
  190.9480  176.2010  144.0220 C   0  0  0  0  0  3  0  0  0  0  0  0
  190.6530  177.4180  143.4390 C   0  0  0  0  0  0  0  0  0  0  0  0
  191.1080  179.7970  144.0450 N   0  0  0  0  0  1  0  0  0  0  0  0
  191.1720  178.3930  144.2670 C   0  0  0  0  0  0  0  0  0  0  0  0
  190.2230  176.4780  141.2380 N   0  0  0  0  0  2  0  0  0  0  0  0
  192.9660  176.6460  138.0860 C   0  0  0  0  0  0  0  0  0  0  0  0
  190.7380  176.0140  138.8940 C   0  0  1  0  0  3  0  0  0  0  0  0
  193.3770  176.6700  139.5340 C   0  0  0  0  0  2  0  0  0  0  0  0
  191.7040  176.3350  137.7930 C   0  0  0  0  0  3  0  0  0  0  0  0
  190.8740  177.0110  140.0530 C   0  0  2  0  0  3  0  0  0  0  0  0
  192.3300  177.3970  140.3870 C   0  0  0  0  0  2  0  0  0  0  0  0
  189.4460  176.0280  138.4020 F   0  0  0  0  0  0  0  0  0  0  0  0
  195.4580  176.5490  135.3100 N   0  0  0  0  0  1  0  0  0  0  0  0
  194.6200  176.0720  136.3560 C   0  0  0  0  0  0  0  0  0  0  0  0
  194.6250  174.6790  136.6620 N   0  0  0  0  0  1  0  0  0  0  0  0
  193.8770  176.9170  137.0070 N   0  0  0  0  0  0  0  0  0  0  0  0
  1 19  1  6  0  0  0
  1  4  1  0  0  0  0
  1 16  1  0  0  0  0
  2  9  1  0  0  0  0
  2  8  2  0  0  0  0
  4  3  2  0  0  0  0
  5  7  1  0  0  0  0
  5 11  1  0  0  0  0
  6  8  1  0  0  0  0
  6  4  1  0  0  0  0
  8  7  1  0  0  0  0
  9  5  2  0  0  0  0
 11 10  2  0  0  0  0
 12 13  1  0  0  0  0
 12 14  1  0  0  0  0
 15 12  2  0  0  0  0
 16 15  1  0  0  0  0
 16 18  2  0  0  0  0
 17 18  1  0  0  0  0
 18 13  1  0  0  0  0
 20 22  1  0  0  0  0
 21 26  1  6  0  0  0
 21 24  1  0  0  0  0
 22 25  1  0  0  0  0
 23 20  2  0  0  0  0
 23 21  1  0  0  0  0
 24 25  1  0  0  0  0
 24 19  1  1  0  0  0
 27 28  1  0  0  0  0
 28 29  1  0  0  0  0
 28 30  2  0  0  0  0
 30 20  1  0  0  0  0
M  END
>  <MODEL>
1

>  <REMARK>
 VINA RESULT:      -7.9      0.000      0.000
  Name = 
  6 active torsions:
  status: ('A' for Active; 'I' for Inactive)
    1  A    between atoms: C_3  and  N_24
    2  A    between atoms: C_8  and  C_25
    3  A    between atoms: C_12  and  C_25
    4  A    between atoms: C_13  and  C_21
    5  A    between atoms: C_25  and  N_27
    6  A    between atoms: C_26  and  N_27
                            x       y       z     vdW  Elec       q    Type
                         _______ _______ _______ _____ _____    ______ ____

>  <TORSDO>
F 6

$$$$
=
 OpenBabel10222417413D

 30 32  0  0  1  0  0  0  0  0999 V2000
  186.5010  178.5090  143.6700 C   0  0  1  0  0  3  0  0  0  0  0  0
  189.2070  178.1910  139.5980 N   0  0  0  0  0  0  0  0  0  0  0  0
  185.4830  178.4700  141.5050 O   0  0  0  0  0  0  0  0  0  0  0  0
  186.5500  178.4370  142.1760 C   0  0  0  0  0  0  0  0  0  0  0  0
  187.8470  178.1420  137.8790 C   0  0  0  0  0  0  0  0  0  0  0  0
  187.8240  178.3480  141.5290 N   0  0  0  0  0  2  0  0  0  0  0  0
  186.9590  178.2420  139.0740 C   0  0  0  0  0  2  0  0  0  0  0  0
  188.0290  178.2640  140.1150 C   0  0  0  0  0  0  0  0  0  0  0  0
  189.0940  178.1160  138.2080 N   0  0  0  0  0  0  0  0  0  0  0  0
  188.2370  177.8540  135.5330 N   0  0  0  0  0  2  0  0  0  0  0  0
  187.3980  178.0800  136.4880 C   0  0  0  0  0  3  0  0  0  0  0  0
  182.9230  178.7440  144.3020 C   0  0  0  0  0  0  0  0  0  0  0  0
  183.3790  179.1450  145.4670 O   0  0  0  0  0  0  0  0  0  0  0  0
  181.2210  178.6050  143.9200 Cl  0  0  0  0  0  0  0  0  0  0  0  0
  183.9570  178.4460  143.4260 C   0  0  0  0  0  3  0  0  0  0  0  0
  185.0990  178.7090  144.1580 C   0  0  0  0  0  0  0  0  0  0  0  0
  185.5340  179.4950  146.4880 N   0  0  0  0  0  1  0  0  0  0  0  0
  184.6850  179.1280  145.4060 C   0  0  0  0  0  0  0  0  0  0  0  0
  187.0900  177.3190  144.2670 N   0  0  0  0  0  2  0  0  0  0  0  0
  190.3580  176.9510  146.8530 C   0  0  0  0  0  0  0  0  0  0  0  0
  189.5010  177.0290  144.5550 C   0  0  1  0  0  3  0  0  0  0  0  0
  188.9450  176.6330  147.2650 C   0  0  0  0  0  2  0  0  0  0  0  0
  190.6100  177.1410  145.5580 C   0  0  0  0  0  3  0  0  0  0  0  0
  188.2380  177.7490  145.0490 C   0  0  2  0  0  3  0  0  0  0  0  0
  187.9480  177.5550  146.5520 C   0  0  0  0  0  2  0  0  0  0  0  0
  189.9090  177.5580  143.3450 F   0  0  0  0  0  0  0  0  0  0  0  0
  193.4000  176.4500  148.9540 N   0  0  0  0  0  1  0  0  0  0  0  0
  192.4080  176.1760  147.9720 C   0  0  0  0  0  0  0  0  0  0  0  0
  192.4940  174.9650  147.2240 N   0  0  0  0  0  1  0  0  0  0  0  0
  191.4480  177.0330  147.7860 N   0  0  0  0  0  0  0  0  0  0  0  0
  1  4  1  6  0  0  0
  1 16  1  0  0  0  0
  1 19  1  0  0  0  0
  2  8  2  0  0  0  0
  3  4  2  0  0  0  0
  5  9  2  0  0  0  0
  5  7  1  0  0  0  0
  6  4  1  0  0  0  0
  7  8  1  0  0  0  0
  8  6  1  0  0  0  0
  9  2  1  0  0  0  0
 10 11  2  0  0  0  0
 11  5  1  0  0  0  0
 12 13  1  0  0  0  0
 14 12  1  0  0  0  0
 15 16  1  0  0  0  0
 15 12  2  0  0  0  0
 16 18  2  0  0  0  0
 18 13  1  0  0  0  0
 18 17  1  0  0  0  0
 20 22  1  0  0  0  0
 20 30  1  0  0  0  0
 21 26  1  6  0  0  0
 21 24  1  0  0  0  0
 21 23  1  0  0  0  0
 23 20  2  0  0  0  0
 24 19  1  6  0  0  0
 24 25  1  0  0  0  0
 25 22  1  0  0  0  0
 28 27  1  0  0  0  0
 29 28  1  0  0  0  0
 30 28  2  0  0  0  0
M  END
>  <MODEL>
2

>  <REMARK>
 VINA RESULT:      -7.9      4.534      7.534
  Name = 
  6 active torsions:
  status: ('A' for Active; 'I' for Inactive)
    1  A    between atoms: C_3  and  N_24
    2  A    between atoms: C_8  and  C_25
    3  A    between atoms: C_12  and  C_25
    4  A    between atoms: C_13  and  C_21
    5  A    between atoms: C_25  and  N_27
    6  A    between atoms: C_26  and  N_27
                            x       y       z     vdW  Elec       q    Type
                         _______ _______ _______ _____ _____    ______ ____

>  <TORSDO>
F 6

$$$$
=
 OpenBabel10222417413D

 30 32  0  0  1  0  0  0  0  0999 V2000
  188.7920  177.1240  143.6820 C   0  0  1  0  0  3  0  0  0  0  0  0
  188.9090  178.6040  139.0130 N   0  0  0  0  0  0  0  0  0  0  0  0
  189.9950  175.8920  142.0220 O   0  0  0  0  0  0  0  0  0  0  0  0
  189.2770  176.8950  142.2860 C   0  0  0  0  0  0  0  0  0  0  0  0
  190.1590  177.1990  137.8850 C   0  0  0  0  0  0  0  0  0  0  0  0
  188.8990  177.8190  141.2610 N   0  0  0  0  0  2  0  0  0  0  0  0
  190.1670  176.6860  139.2860 C   0  0  0  0  0  2  0  0  0  0  0  0
  189.2910  177.7370  139.8870 C   0  0  0  0  0  0  0  0  0  0  0  0
  189.4480  178.2690  137.7690 N   0  0  0  0  0  0  0  0  0  0  0  0
  191.8500  175.7870  136.9430 N   0  0  0  0  0  2  0  0  0  0  0  0
  190.8590  176.5910  136.7530 C   0  0  0  0  0  3  0  0  0  0  0  0
  191.2960  176.7840  146.3030 C   0  0  0  0  0  0  0  0  0  0  0  0
  191.8400  177.7530  145.6040 O   0  0  0  0  0  0  0  0  0  0  0  0
  192.0180  176.1020  147.7440 Cl  0  0  0  0  0  0  0  0  0  0  0  0
  190.0890  176.3750  145.7540 C   0  0  0  0  0  3  0  0  0  0  0  0
  189.9330  177.1920  144.6500 C   0  0  0  0  0  0  0  0  0  0  0  0
  191.3020  179.0070  143.6160 N   0  0  0  0  0  1  0  0  0  0  0  0
  191.0410  178.0130  144.6020 C   0  0  0  0  0  0  0  0  0  0  0  0
  187.9780  178.3290  143.7590 N   0  0  0  0  0  2  0  0  0  0  0  0
  183.8530  178.7130  144.3320 C   0  0  0  0  0  0  0  0  0  0  0  0
  185.7610  178.6900  142.7920 C   0  0  1  0  0  3  0  0  0  0  0  0
  184.8600  178.9670  145.4220 C   0  0  0  0  0  2  0  0  0  0  0  0
  184.2940  178.5800  143.0820 C   0  0  0  0  0  3  0  0  0  0  0  0
  186.5870  177.9100  143.8240 C   0  0  2  0  0  3  0  0  0  0  0  0
  186.0710  178.0380  145.2730 C   0  0  0  0  0  2  0  0  0  0  0  0
  186.0230  178.2200  141.5180 F   0  0  0  0  0  0  0  0  0  0  0  0
  180.1260  178.6410  144.1640 N   0  0  0  0  0  1  0  0  0  0  0  0
  181.4710  178.7570  143.7140 C   0  0  0  0  0  0  0  0  0  0  0  0
  181.7170  179.0090  142.3330 N   0  0  0  0  0  1  0  0  0  0  0  0
  182.4380  178.6340  144.5750 N   0  0  0  0  0  0  0  0  0  0  0  0
  1  4  1  6  0  0  0
  1 19  1  0  0  0  0
  1 16  1  0  0  0  0
  2  8  2  0  0  0  0
  3  4  2  0  0  0  0
  5  7  1  0  0  0  0
  6  4  1  0  0  0  0
  7  8  1  0  0  0  0
  8  6  1  0  0  0  0
  9  5  2  0  0  0  0
  9  2  1  0  0  0  0
 11 10  2  0  0  0  0
 11  5  1  0  0  0  0
 12 14  1  0  0  0  0
 13 12  1  0  0  0  0
 15 12  2  0  0  0  0
 16 15  1  0  0  0  0
 17 18  1  0  0  0  0
 18 16  2  0  0  0  0
 18 13  1  0  0  0  0
 20 30  1  0  0  0  0
 20 22  1  0  0  0  0
 21 26  1  6  0  0  0
 21 23  1  0  0  0  0
 21 24  1  0  0  0  0
 23 20  2  0  0  0  0
 24 19  1  1  0  0  0
 24 25  1  0  0  0  0
 25 22  1  0  0  0  0
 28 27  1  0  0  0  0
 28 30  2  0  0  0  0
 29 28  1  0  0  0  0
M  END
>  <MODEL>
3

>  <REMARK>
 VINA RESULT:      -7.7      2.269      7.942
  Name = 
  6 active torsions:
  status: ('A' for Active; 'I' for Inactive)
    1  A    between atoms: C_3  and  N_24
    2  A    between atoms: C_8  and  C_25
    3  A    between atoms: C_12  and  C_25
    4  A    between atoms: C_13  and  C_21
    5  A    between atoms: C_25  and  N_27
    6  A    between atoms: C_26  and  N_27
                            x       y       z     vdW  Elec       q    Type
                         _______ _______ _______ _____ _____    ______ ____

>  <TORSDO>
F 6

$$$$
=
 OpenBabel10222417413D

 30 32  0  0  1  0  0  0  0  0999 V2000
  187.6590  177.4580  143.2540 C   0  0  1  0  0  3  0  0  0  0  0  0
  188.7680  178.6180  138.6240 N   0  0  0  0  0  0  0  0  0  0  0  0
  189.2260  176.1630  141.9930 O   0  0  0  0  0  0  0  0  0  0  0  0
  188.4450  177.1520  142.0180 C   0  0  0  0  0  0  0  0  0  0  0  0
  190.2670  177.1890  137.9050 C   0  0  0  0  0  0  0  0  0  0  0  0
  188.2810  177.9890  140.8690 N   0  0  0  0  0  2  0  0  0  0  0  0
  189.9780  176.7740  139.3090 C   0  0  0  0  0  2  0  0  0  0  0  0
  188.9680  177.8280  139.6240 C   0  0  0  0  0  0  0  0  0  0  0  0
  189.5740  178.2200  137.5560 N   0  0  0  0  0  0  0  0  0  0  0  0
  192.4630  176.4430  137.3060 N   0  0  0  0  0  2  0  0  0  0  0  0
  191.2120  176.5330  137.0010 C   0  0  0  0  0  3  0  0  0  0  0  0
  189.4290  177.7480  146.4230 C   0  0  0  0  0  0  0  0  0  0  0  0
  190.3040  178.3210  145.6290 O   0  0  0  0  0  0  0  0  0  0  0  0
  189.6700  177.5370  148.1440 Cl  0  0  0  0  0  0  0  0  0  0  0  0
  188.3030  177.3340  145.7250 C   0  0  0  0  0  3  0  0  0  0  0  0
  188.5620  177.7140  144.4220 C   0  0  0  0  0  0  0  0  0  0  0  0
  190.4770  178.8390  143.2810 N   0  0  0  0  0  1  0  0  0  0  0  0
  189.8070  178.3080  144.4200 C   0  0  0  0  0  0  0  0  0  0  0  0
  186.7640  178.5850  143.0360 N   0  0  0  0  0  2  0  0  0  0  0  0
  182.6500  178.7710  143.7680 C   0  0  0  0  0  0  0  0  0  0  0  0
  184.4930  178.7680  142.1490 C   0  0  1  0  0  3  0  0  0  0  0  0
  183.6850  179.1420  144.7980 C   0  0  0  0  0  2  0  0  0  0  0  0
  183.0480  178.5930  142.5090 C   0  0  0  0  0  3  0  0  0  0  0  0
  185.4040  178.0940  143.1850 C   0  0  2  0  0  3  0  0  0  0  0  0
  184.9410  178.2750  144.6460 C   0  0  0  0  0  2  0  0  0  0  0  0
  184.7290  178.2420  140.8930 F   0  0  0  0  0  0  0  0  0  0  0  0
  178.9330  178.9780  144.0080 N   0  0  0  0  0  1  0  0  0  0  0  0
  180.2500  179.2760  143.5620 C   0  0  0  0  0  0  0  0  0  0  0  0
  180.4310  180.2810  142.5670 N   0  0  0  0  0  1  0  0  0  0  0  0
  181.2540  178.6280  144.0770 N   0  0  0  0  0  0  0  0  0  0  0  0
  1  4  1  6  0  0  0
  1 16  1  0  0  0  0
  2  8  2  0  0  0  0
  3  4  2  0  0  0  0
  5  7  1  0  0  0  0
  6  4  1  0  0  0  0
  7  8  1  0  0  0  0
  8  6  1  0  0  0  0
  9  5  2  0  0  0  0
  9  2  1  0  0  0  0
 11 10  2  0  0  0  0
 11  5  1  0  0  0  0
 12 14  1  0  0  0  0
 13 12  1  0  0  0  0
 15 12  2  0  0  0  0
 16 15  1  0  0  0  0
 17 18  1  0  0  0  0
 18 16  2  0  0  0  0
 18 13  1  0  0  0  0
 19  1  1  0  0  0  0
 20 30  1  0  0  0  0
 20 22  1  0  0  0  0
 21 26  1  6  0  0  0
 21 23  1  0  0  0  0
 21 24  1  0  0  0  0
 23 20  2  0  0  0  0
 24 19  1  1  0  0  0
 24 25  1  0  0  0  0
 25 22  1  0  0  0  0
 28 27  1  0  0  0  0
 28 30  2  0  0  0  0
 29 28  1  0  0  0  0
M  END
>  <MODEL>
4

>  <REMARK>
 VINA RESULT:      -7.7      2.408      8.484
  Name = 
  6 active torsions:
  status: ('A' for Active; 'I' for Inactive)
    1  A    between atoms: C_3  and  N_24
    2  A    between atoms: C_8  and  C_25
    3  A    between atoms: C_12  and  C_25
    4  A    between atoms: C_13  and  C_21
    5  A    between atoms: C_25  and  N_27
    6  A    between atoms: C_26  and  N_27
                            x       y       z     vdW  Elec       q    Type
                         _______ _______ _______ _____ _____    ______ ____

>  <TORSDO>
F 6

$$$$
=
 OpenBabel10222417413D

 30 32  0  0  1  0  0  0  0  0999 V2000
  189.8480  177.1570  142.5040 C   0  0  1  0  0  3  0  0  0  0  0  0
  190.4500  175.5640  137.9100 N   0  0  0  0  0  0  0  0  0  0  0  0
  191.9400  177.4050  141.3700 O   0  0  0  0  0  0  0  0  0  0  0  0
  190.7480  176.9970  141.3190 C   0  0  0  0  0  0  0  0  0  0  0  0
  192.4950  176.0480  137.2840 C   0  0  0  0  0  0  0  0  0  0  0  0
  190.2370  176.3630  140.1420 N   0  0  0  0  0  2  0  0  0  0  0  0
  192.3870  176.5560  138.6830 C   0  0  0  0  0  2  0  0  0  0  0  0
  190.9720  176.1490  138.9330 C   0  0  0  0  0  0  0  0  0  0  0  0
  191.3970  175.5010  136.8850 N   0  0  0  0  0  0  0  0  0  0  0  0
  194.8230  175.6920  136.8430 N   0  0  0  0  0  2  0  0  0  0  0  0
  193.6830  176.1390  136.4350 C   0  0  0  0  0  3  0  0  0  0  0  0
  191.6800  176.5180  145.5850 C   0  0  0  0  0  0  0  0  0  0  0  0
  191.8580  177.8150  145.4880 O   0  0  0  0  0  0  0  0  0  0  0  0
  192.3360  175.5400  146.8800 Cl  0  0  0  0  0  0  0  0  0  0  0  0
  190.9150  176.0290  144.5360 C   0  0  0  0  0  3  0  0  0  0  0  0
  190.6280  177.1520  143.7830 C   0  0  0  0  0  0  0  0  0  0  0  0
  191.2140  179.5720  143.9690 N   0  0  0  0  0  1  0  0  0  0  0  0
  191.2390  178.2190  144.4100 C   0  0  0  0  0  0  0  0  0  0  0  0
  189.0490  178.3680  142.3910 N   0  0  0  0  0  2  0  0  0  0  0  0
  184.9070  178.7200  142.8580 C   0  0  0  0  0  0  0  0  0  0  0  0
  186.8760  178.9050  141.4060 C   0  0  1  0  0  3  0  0  0  0  0  0
  185.8730  178.7910  144.0110 C   0  0  0  0  0  2  0  0  0  0  0  0
  185.3980  178.7720  141.6200 C   0  0  0  0  0  3  0  0  0  0  0  0
  187.6530  177.9640  142.3380 C   0  0  2  0  0  3  0  0  0  0  0  0
  187.0810  177.8780  143.7680 C   0  0  0  0  0  2  0  0  0  0  0  0
  187.1850  178.6300  140.0870 F   0  0  0  0  0  0  0  0  0  0  0  0
  181.3850  178.6230  144.0850 N   0  0  0  0  0  1  0  0  0  0  0  0
  182.8010  178.7500  144.1310 C   0  0  0  0  0  0  0  0  0  0  0  0
  183.4300  179.0050  145.3850 N   0  0  0  0  0  1  0  0  0  0  0  0
  183.4830  178.6250  143.0310 N   0  0  0  0  0  0  0  0  0  0  0  0
  1  4  1  6  0  0  0
  1 16  1  0  0  0  0
  2  8  2  0  0  0  0
  4  3  2  0  0  0  0
  5  7  1  0  0  0  0
  6  4  1  0  0  0  0
  7  8  1  0  0  0  0
  8  6  1  0  0  0  0
  9  5  2  0  0  0  0
  9  2  1  0  0  0  0
 11 10  2  0  0  0  0
 11  5  1  0  0  0  0
 12 14  1  0  0  0  0
 13 12  1  0  0  0  0
 15 12  2  0  0  0  0
 16 18  2  0  0  0  0
 16 15  1  0  0  0  0
 17 18  1  0  0  0  0
 18 13  1  0  0  0  0
 19  1  1  0  0  0  0
 20 30  1  0  0  0  0
 20 22  1  0  0  0  0
 21 26  1  6  0  0  0
 21 23  1  0  0  0  0
 21 24  1  0  0  0  0
 23 20  2  0  0  0  0
 24 19  1  1  0  0  0
 24 25  1  0  0  0  0
 25 22  1  0  0  0  0
 27 28  1  0  0  0  0
 28 29  1  0  0  0  0
 30 28  2  0  0  0  0
M  END
>  <MODEL>
5

>  <REMARK>
 VINA RESULT:      -7.7      1.671      8.004
  Name = 
  6 active torsions:
  status: ('A' for Active; 'I' for Inactive)
    1  A    between atoms: C_3  and  N_24
    2  A    between atoms: C_8  and  C_25
    3  A    between atoms: C_12  and  C_25
    4  A    between atoms: C_13  and  C_21
    5  A    between atoms: C_25  and  N_27
    6  A    between atoms: C_26  and  N_27
                            x       y       z     vdW  Elec       q    Type
                         _______ _______ _______ _____ _____    ______ ____

>  <TORSDO>
F 6

$$$$
=
 OpenBabel10222417413D

 30 32  0  0  1  0  0  0  0  0999 V2000
  187.5730  177.8640  141.2160 C   0  0  1  0  0  3  0  0  0  0  0  0
  191.0320  178.6200  144.6020 N   0  0  0  0  0  0  0  0  0  0  0  0
  188.4410  176.0600  142.5250 O   0  0  0  0  0  0  0  0  0  0  0  0
  188.4660  177.2950  142.2730 C   0  0  0  0  0  0  0  0  0  0  0  0
  191.4720  176.7010  145.5660 C   0  0  0  0  0  0  0  0  0  0  0  0
  189.3530  178.1720  142.9750 N   0  0  0  0  0  2  0  0  0  0  0  0
  190.4210  176.3940  144.5520 C   0  0  0  0  0  2  0  0  0  0  0  0
  190.2550  177.7770  144.0130 C   0  0  0  0  0  0  0  0  0  0  0  0
  191.7890  177.9510  145.5660 N   0  0  0  0  0  0  0  0  0  0  0  0
  192.4940  176.0840  147.6430 N   0  0  0  0  0  2  0  0  0  0  0  0
  192.0940  175.7310  146.4680 C   0  0  0  0  0  3  0  0  0  0  0  0
  184.6260  178.7400  143.1660 C   0  0  0  0  0  0  0  0  0  0  0  0
  184.2700  179.2270  142.0000 O   0  0  0  0  0  0  0  0  0  0  0  0
  183.6330  178.8390  144.6040 Cl  0  0  0  0  0  0  0  0  0  0  0  0
  185.8790  178.1470  143.1090 C   0  0  0  0  0  3  0  0  0  0  0  0
  186.2620  178.3060  141.7910 C   0  0  0  0  0  0  0  0  0  0  0  0
  185.2180  179.3690  139.7880 N   0  0  0  0  0  1  0  0  0  0  0  0
  185.2400  178.9820  141.1580 C   0  0  0  0  0  0  0  0  0  0  0  0
  188.2270  178.9620  140.5180 N   0  0  0  0  0  2  0  0  0  0  0  0
  189.9520  176.0290  138.0860 C   0  0  0  0  0  0  0  0  0  0  0  0
  187.9710  177.3320  138.7130 C   0  0  1  0  0  3  0  0  0  0  0  0
  190.5090  176.4120  139.4310 C   0  0  0  0  0  2  0  0  0  0  0  0
  188.7410  176.4760  137.7530 C   0  0  0  0  0  3  0  0  0  0  0  0
  188.8730  178.4040  139.3410 C   0  0  2  0  0  3  0  0  0  0  0  0
  190.2850  177.9030  139.7100 C   0  0  0  0  0  2  0  0  0  0  0  0
  186.9080  177.9280  138.0590 F   0  0  0  0  0  0  0  0  0  0  0  0
  191.1900  173.2990  135.8640 N   0  0  0  0  0  1  0  0  0  0  0  0
  190.3600  173.9650  136.8090 C   0  0  0  0  0  0  0  0  0  0  0  0
  189.2360  173.2730  137.3480 N   0  0  0  0  0  1  0  0  0  0  0  0
  190.6520  175.1830  137.1580 N   0  0  0  0  0  0  0  0  0  0  0  0
  1 19  1  1  0  0  0
  1 16  1  0  0  0  0
  1  4  1  0  0  0  0
  2  9  1  0  0  0  0
  4  3  2  0  0  0  0
  4  6  1  0  0  0  0
  5 11  1  0  0  0  0
  6  8  1  0  0  0  0
  7  5  1  0  0  0  0
  8  7  1  0  0  0  0
  8  2  2  0  0  0  0
  9  5  2  0  0  0  0
 11 10  2  0  0  0  0
 12 14  1  0  0  0  0
 13 12  1  0  0  0  0
 15 12  2  0  0  0  0
 16 15  1  0  0  0  0
 17 18  1  0  0  0  0
 18 16  2  0  0  0  0
 18 13  1  0  0  0  0
 20 22  1  0  0  0  0
 21 26  1  6  0  0  0
 21 24  1  0  0  0  0
 22 25  1  0  0  0  0
 23 20  2  0  0  0  0
 23 21  1  0  0  0  0
 24 25  1  0  0  0  0
 24 19  1  1  0  0  0
 27 28  1  0  0  0  0
 28 30  2  0  0  0  0
 28 29  1  0  0  0  0
 30 20  1  0  0  0  0
M  END
>  <MODEL>
6

>  <REMARK>
 VINA RESULT:      -7.3      3.022      5.884
  Name = 
  6 active torsions:
  status: ('A' for Active; 'I' for Inactive)
    1  A    between atoms: C_3  and  N_24
    2  A    between atoms: C_8  and  C_25
    3  A    between atoms: C_12  and  C_25
    4  A    between atoms: C_13  and  C_21
    5  A    between atoms: C_25  and  N_27
    6  A    between atoms: C_26  and  N_27
                            x       y       z     vdW  Elec       q    Type
                         _______ _______ _______ _____ _____    ______ ____

>  <TORSDO>
F 6

$$$$
=
 OpenBabel10222417413D

 30 32  0  0  1  0  0  0  0  0999 V2000
  190.3370  177.2280  138.9450 C   0  0  1  0  0  3  0  0  0  0  0  0
  194.8200  175.2780  138.6120 N   0  0  0  0  0  0  0  0  0  0  0  0
  191.3260  176.7490  136.8200 O   0  0  0  0  0  0  0  0  0  0  0  0
  191.4440  176.7220  138.0750 C   0  0  0  0  0  0  0  0  0  0  0  0
  195.2760  174.9790  136.4890 C   0  0  0  0  0  0  0  0  0  0  0  0
  192.6370  176.2270  138.6910 N   0  0  0  0  0  2  0  0  0  0  0  0
  193.9080  175.5740  136.5120 C   0  0  0  0  0  2  0  0  0  0  0  0
  193.7720  175.7040  137.9930 C   0  0  0  0  0  0  0  0  0  0  0  0
  195.7540  174.8280  137.6780 N   0  0  0  0  0  0  0  0  0  0  0  0
  197.1860  175.0940  135.0480 N   0  0  0  0  0  2  0  0  0  0  0  0
  196.0190  174.5990  135.2870 C   0  0  0  0  0  3  0  0  0  0  0  0
  187.1260  176.8690  137.2670 C   0  0  0  0  0  0  0  0  0  0  0  0
  187.3390  178.1490  137.0630 O   0  0  0  0  0  0  0  0  0  0  0  0
  185.6990  176.0210  136.7110 Cl  0  0  0  0  0  0  0  0  0  0  0  0
  188.1660  176.2870  137.9750 C   0  0  0  0  0  3  0  0  0  0  0  0
  189.0510  177.3280  138.1830 C   0  0  0  0  0  0  0  0  0  0  0  0
  189.0550  179.7550  137.5960 N   0  0  0  0  0  1  0  0  0  0  0  0
  188.4880  178.4490  137.6080 C   0  0  0  0  0  0  0  0  0  0  0  0
  190.1760  176.3870  140.1230 N   0  0  0  0  0  2  0  0  0  0  0  0
  189.4600  177.4510  144.1040 C   0  0  0  0  0  0  0  0  0  0  0  0
  191.0740  177.0170  142.3080 C   0  0  1  0  0  3  0  0  0  0  0  0
  188.4730  176.6790  143.2700 C   0  0  0  0  0  2  0  0  0  0  0  0
  190.6970  177.6090  143.6330 C   0  0  0  0  0  3  0  0  0  0  0  0
  189.9790  177.2700  141.2610 C   0  0  2  0  0  3  0  0  0  0  0  0
  188.5420  177.1120  141.8010 C   0  0  0  0  0  2  0  0  0  0  0  0
  192.2740  177.5540  141.8800 F   0  0  0  0  0  0  0  0  0  0  0  0
  189.0550  178.2520  147.7250 N   0  0  0  0  0  1  0  0  0  0  0  0
  189.4780  177.5500  146.5630 C   0  0  0  0  0  0  0  0  0  0  0  0
  190.2580  176.3670  146.7180 N   0  0  0  0  0  1  0  0  0  0  0  0
  189.1380  178.0020  145.3920 N   0  0  0  0  0  0  0  0  0  0  0  0
  1  4  1  6  0  0  0
  1 19  1  0  0  0  0
  3  4  2  0  0  0  0
  4  6  1  0  0  0  0
  5  7  1  0  0  0  0
  5  9  2  0  0  0  0
  7  8  1  0  0  0  0
  8  2  2  0  0  0  0
  8  6  1  0  0  0  0
  9  2  1  0  0  0  0
 10 11  2  0  0  0  0
 11  5  1  0  0  0  0
 12 15  2  0  0  0  0
 13 12  1  0  0  0  0
 13 18  1  0  0  0  0
 14 12  1  0  0  0  0
 15 16  1  0  0  0  0
 16  1  1  0  0  0  0
 17 18  1  0  0  0  0
 18 16  2  0  0  0  0
 20 30  1  0  0  0  0
 21 26  1  6  0  0  0
 21 23  1  0  0  0  0
 22 20  1  0  0  0  0
 23 20  2  0  0  0  0
 24 19  1  6  0  0  0
 24 25  1  0  0  0  0
 24 21  1  0  0  0  0
 25 22  1  0  0  0  0
 28 29  1  0  0  0  0
 28 27  1  0  0  0  0
 30 28  2  0  0  0  0
M  END
>  <MODEL>
7

>  <REMARK>
 VINA RESULT:      -7.1      4.109      9.129
  Name = 
  6 active torsions:
  status: ('A' for Active; 'I' for Inactive)
    1  A    between atoms: C_3  and  N_24
    2  A    between atoms: C_8  and  C_25
    3  A    between atoms: C_12  and  C_25
    4  A    between atoms: C_13  and  C_21
    5  A    between atoms: C_25  and  N_27
    6  A    between atoms: C_26  and  N_27
                            x       y       z     vdW  Elec       q    Type
                         _______ _______ _______ _____ _____    ______ ____

>  <TORSDO>
F 6

$$$$
=
 OpenBabel10222417413D

 30 32  0  0  1  0  0  0  0  0999 V2000
  187.5930  178.3320  141.9400 C   0  0  1  0  0  3  0  0  0  0  0  0
  188.3400  176.7460  146.5150 N   0  0  0  0  0  0  0  0  0  0  0  0
  189.7530  178.4600  142.9590 O   0  0  0  0  0  0  0  0  0  0  0  0
  188.5450  178.1180  143.0740 C   0  0  0  0  0  0  0  0  0  0  0  0
  190.4620  177.0210  146.9930 C   0  0  0  0  0  0  0  0  0  0  0  0
  188.0570  177.5390  144.2880 N   0  0  0  0  0  2  0  0  0  0  0  0
  190.3100  177.5260  145.5970 C   0  0  0  0  0  2  0  0  0  0  0  0
  188.8460  177.2660  145.4500 C   0  0  0  0  0  0  0  0  0  0  0  0
  189.3430  176.5940  147.4740 N   0  0  0  0  0  0  0  0  0  0  0  0
  192.4410  175.9350  147.7940 N   0  0  0  0  0  2  0  0  0  0  0  0
  191.7090  176.9970  147.7580 C   0  0  0  0  0  3  0  0  0  0  0  0
  189.5290  177.0870  139.1200 C   0  0  0  0  0  0  0  0  0  0  0  0
  188.4960  177.5790  138.4770 O   0  0  0  0  0  0  0  0  0  0  0  0
  190.8780  176.2970  138.3320 Cl  0  0  0  0  0  0  0  0  0  0  0  0
  189.4100  177.2690  140.4900 C   0  0  0  0  0  3  0  0  0  0  0  0
  188.2060  177.9320  140.6330 C   0  0  0  0  0  0  0  0  0  0  0  0
  186.4450  178.7120  139.0440 N   0  0  0  0  0  1  0  0  0  0  0  0
  187.6840  178.0890  139.3660 C   0  0  0  0  0  0  0  0  0  0  0  0
  186.3450  177.6160  142.1660 N   0  0  0  0  0  2  0  0  0  0  0  0
  182.4850  179.0870  142.8190 C   0  0  0  0  0  0  0  0  0  0  0  0
  184.6480  178.3960  143.7450 C   0  0  1  0  0  3  0  0  0  0  0  0
  182.8660  178.2970  141.5950 C   0  0  0  0  0  2  0  0  0  0  0  0
  183.3440  179.1300  143.8360 C   0  0  0  0  0  3  0  0  0  0  0  0
  185.3050  178.6110  142.3740 C   0  0  2  0  0  3  0  0  0  0  0  0
  184.3170  178.5860  141.1890 C   0  0  0  0  0  2  0  0  0  0  0  0
  185.4970  178.8210  144.7510 F   0  0  0  0  0  0  0  0  0  0  0  0
  178.9550  180.1450  143.4040 N   0  0  0  0  0  1  0  0  0  0  0  0
  180.0880  179.2870  143.3430 C   0  0  0  0  0  0  0  0  0  0  0  0
  179.9380  177.9180  143.7100 N   0  0  0  0  0  1  0  0  0  0  0  0
  181.2280  179.7740  142.9490 N   0  0  0  0  0  0  0  0  0  0  0  0
  1 19  1  1  0  0  0
  1  4  1  0  0  0  0
  2  9  1  0  0  0  0
  3  4  2  0  0  0  0
  4  6  1  0  0  0  0
  5  9  2  0  0  0  0
  5 11  1  0  0  0  0
  6  8  1  0  0  0  0
  7  5  1  0  0  0  0
  8  7  1  0  0  0  0
  8  2  2  0  0  0  0
 11 10  2  0  0  0  0
 12 15  2  0  0  0  0
 13 12  1  0  0  0  0
 13 18  1  0  0  0  0
 14 12  1  0  0  0  0
 15 16  1  0  0  0  0
 16  1  1  0  0  0  0
 17 18  1  0  0  0  0
 18 16  2  0  0  0  0
 20 30  1  0  0  0  0
 20 23  2  0  0  0  0
 21 23  1  0  0  0  0
 21 26  1  1  0  0  0
 22 20  1  0  0  0  0
 24 19  1  6  0  0  0
 24 21  1  0  0  0  0
 25 22  1  0  0  0  0
 25 24  1  0  0  0  0
 28 27  1  0  0  0  0
 28 29  1  0  0  0  0
 30 28  2  0  0  0  0
M  END
>  <MODEL>
8

>  <REMARK>
 VINA RESULT:      -7.1      4.276      9.162
  Name = 
  6 active torsions:
  status: ('A' for Active; 'I' for Inactive)
    1  A    between atoms: C_3  and  N_24
    2  A    between atoms: C_8  and  C_25
    3  A    between atoms: C_12  and  C_25
    4  A    between atoms: C_13  and  C_21
    5  A    between atoms: C_25  and  N_27
    6  A    between atoms: C_26  and  N_27
                            x       y       z     vdW  Elec       q    Type
                         _______ _______ _______ _____ _____    ______ ____

>  <TORSDO>
F 6

$$$$
=
 OpenBabel10222417413D

 30 32  0  0  1  0  0  0  0  0999 V2000
  187.2550  177.2380  144.0070 C   0  0  1  0  0  3  0  0  0  0  0  0
  188.9660  178.5000  139.5930 N   0  0  0  0  0  0  0  0  0  0  0  0
  188.8430  175.8690  142.8550 O   0  0  0  0  0  0  0  0  0  0  0  0
  188.1470  176.9200  142.8480 C   0  0  0  0  0  0  0  0  0  0  0  0
  190.4150  176.9800  138.9640 C   0  0  0  0  0  0  0  0  0  0  0  0
  188.1810  177.8180  141.7340 N   0  0  0  0  0  2  0  0  0  0  0  0
  189.9380  176.5300  140.3040 C   0  0  0  0  0  2  0  0  0  0  0  0
  188.9880  177.6530  140.5640 C   0  0  0  0  0  0  0  0  0  0  0  0
  189.8530  178.0820  138.5980 N   0  0  0  0  0  0  0  0  0  0  0  0
  191.4250  174.9950  138.0790 N   0  0  0  0  0  2  0  0  0  0  0  0
  191.3990  176.2850  138.1340 C   0  0  0  0  0  3  0  0  0  0  0  0
  189.6470  177.3020  146.7510 C   0  0  0  0  0  0  0  0  0  0  0  0
  188.5710  177.7020  147.3880 O   0  0  0  0  0  0  0  0  0  0  0  0
  191.2140  177.1190  147.5100 Cl  0  0  0  0  0  0  0  0  0  0  0  0
  189.3820  177.0480  145.4140 C   0  0  0  0  0  3  0  0  0  0  0  0
  188.0330  177.3220  145.2840 C   0  0  0  0  0  0  0  0  0  0  0  0
  186.2590  178.1190  146.8490 N   0  0  0  0  0  1  0  0  0  0  0  0
  187.5880  177.7270  146.5260 C   0  0  0  0  0  0  0  0  0  0  0  0
  186.5150  178.4700  143.7710 N   0  0  0  0  0  2  0  0  0  0  0  0
  182.4300  178.9890  143.0420 C   0  0  0  0  0  0  0  0  0  0  0  0
  184.7210  178.9120  142.1700 C   0  0  1  0  0  3  0  0  0  0  0  0
  183.0560  179.2020  144.3950 C   0  0  0  0  0  2  0  0  0  0  0  0
  183.2340  178.8490  141.9890 C   0  0  0  0  0  3  0  0  0  0  0  0
  185.1610  178.0970  143.3950 C   0  0  2  0  0  3  0  0  0  0  0  0
  184.2250  178.2340  144.6140 C   0  0  0  0  0  2  0  0  0  0  0  0
  185.3520  178.4410  141.0330 F   0  0  0  0  0  0  0  0  0  0  0  0
  178.9320  178.4320  141.8680 N   0  0  0  0  0  1  0  0  0  0  0  0
  180.3520  178.3370  141.8960 C   0  0  0  0  0  0  0  0  0  0  0  0
  181.0120  177.5690  140.8930 N   0  0  0  0  0  1  0  0  0  0  0  0
  181.0080  178.9570  142.8320 N   0  0  0  0  0  0  0  0  0  0  0  0
  1  4  1  6  0  0  0
  1 16  1  0  0  0  0
  2  8  2  0  0  0  0
  4  3  2  0  0  0  0
  5  7  1  0  0  0  0
  6  4  1  0  0  0  0
  7  8  1  0  0  0  0
  8  6  1  0  0  0  0
  9  5  2  0  0  0  0
  9  2  1  0  0  0  0
 10 11  2  0  0  0  0
 11  5  1  0  0  0  0
 12 13  1  0  0  0  0
 12 14  1  0  0  0  0
 15 12  2  0  0  0  0
 16 15  1  0  0  0  0
 16 18  2  0  0  0  0
 18 17  1  0  0  0  0
 18 13  1  0  0  0  0
 19  1  1  0  0  0  0
 20 22  1  0  0  0  0
 21 26  1  6  0  0  0
 21 24  1  0  0  0  0
 22 25  1  0  0  0  0
 23 21  1  0  0  0  0
 23 20  2  0  0  0  0
 24 19  1  1  0  0  0
 24 25  1  0  0  0  0
 27 28  1  0  0  0  0
 28 30  2  0  0  0  0
 29 28  1  0  0  0  0
 30 20  1  0  0  0  0
M  END
>  <MODEL>
9

>  <REMARK>
 VINA RESULT:      -7.0      2.692      8.281
  Name = 
  6 active torsions:
  status: ('A' for Active; 'I' for Inactive)
    1  A    between atoms: C_3  and  N_24
    2  A    between atoms: C_8  and  C_25
    3  A    between atoms: C_12  and  C_25
    4  A    between atoms: C_13  and  C_21
    5  A    between atoms: C_25  and  N_27
    6  A    between atoms: C_26  and  N_27
                            x       y       z     vdW  Elec       q    Type
                         _______ _______ _______ _____ _____    ______ ____

>  <TORSDO>
F 6

$$$$
