=
 OpenBabel10222415463D

 44 48  0  0  1  0  0  0  0  0999 V2000
  184.2510  179.2320  139.1580 C   0  0  0  0  0  2  0  0  0  0  0  0
  186.4810  177.5400  136.4730 C   0  0  0  0  0  3  0  0  0  0  0  0
  180.8120  179.6800  141.5070 O   0  0  0  0  0  0  0  0  0  0  0  0
  182.2440  178.3190  140.2600 N   0  0  0  0  0  2  0  0  0  0  0  0
  180.7360  174.7540  137.7680 C   0  0  0  0  0  0  0  0  0  0  0  0
  179.1460  177.4150  139.7700 C   0  0  0  0  0  2  0  0  0  0  0  0
  181.2940  179.2980  135.5810 C   0  0  1  0  0  3  0  0  0  0  0  0
  179.7550  178.1720  136.8800 C   0  0  0  0  0  2  0  0  0  0  0  0
  181.0180  178.5660  140.9540 C   0  0  0  0  0  0  0  0  0  0  0  0
  183.4010  179.1910  140.4240 C   0  0  1  0  0  3  0  0  0  0  0  0
  184.6600  177.8480  138.6750 C   0  0  1  0  0  3  0  0  0  0  0  0
  184.2260  178.7500  141.6210 C   0  0  0  0  0  1  0  0  0  0  0  0
  183.4000  176.4960  134.5940 C   0  0  0  0  0  2  0  0  0  0  0  0
  184.5260  177.5060  134.8190 C   0  0  0  0  0  2  0  0  0  0  0  0
  180.0140  176.8630  137.4710 N   0  0  0  0  0  0  0  0  0  0  0  0
  180.9350  178.9370  136.9040 O   0  0  0  0  0  0  0  0  0  0  0  0
  181.1400  175.8110  135.4680 C   0  0  0  0  0  2  0  0  0  0  0  0
  180.6160  175.8100  136.8720 C   0  0  0  0  0  0  0  0  0  0  0  0
  185.0330  177.5390  136.2350 C   0  0  0  0  0  0  0  0  0  0  0  0
  184.1900  177.6850  137.2610 C   0  0  0  0  0  3  0  0  0  0  0  0
  182.1290  176.9450  135.2980 C   0  0  2  0  0  3  0  0  0  0  0  0
  181.4610  178.1220  134.6080 C   0  0  0  0  0  2  0  0  0  0  0  0
  179.9770  177.5030  141.0430 C   0  0  0  0  0  2  0  0  0  0  0  0
  179.7880  176.5180  138.7540 C   0  0  0  0  0  0  0  0  0  0  0  0
  186.0780  177.6830  138.8090 O   0  0  0  0  0  0  0  0  0  0  0  0
  180.2130  175.2190  138.9720 C   0  0  0  0  0  0  0  0  0  0  0  0
  186.9600  177.6140  137.7180 C   0  0  0  0  0  0  0  0  0  0  0  0
  188.8240  176.2960  138.2870 F   0  0  0  0  0  0  0  0  0  0  0  0
  189.1090  177.9790  136.8100 F   0  0  0  0  0  0  0  0  0  0  0  0
  188.7720  178.4350  138.9890 F   0  0  0  0  0  0  0  0  0  0  0  0
  188.4380  177.5820  137.9540 C   0  0  0  0  0  0  0  0  0  0  0  0
  180.4940  172.3950  137.8500 O   0  0  0  0  0  0  0  0  0  0  0  0
  180.6540  172.6500  136.4780 C   0  0  0  0  0  2  0  0  0  0  0  0
  181.3880  173.4280  137.5060 C   0  0  1  0  0  3  0  0  0  0  0  0
  180.1360  174.5610  140.2050 O   0  0  0  0  0  0  0  0  0  0  0  0
  179.1030  173.6500  140.5480 C   0  0  0  0  0  2  0  0  0  0  0  0
  179.0570  173.4670  142.0520 C   0  0  0  0  0  2  0  0  0  0  0  0
  179.3690  174.6710  142.6840 O   0  0  0  0  0  1  0  0  0  0  0  0
  180.3810  180.3730  134.9990 C   0  0  0  0  0  2  0  0  0  0  0  0
  180.5830  181.7080  135.7040 C   0  0  0  0  0  2  0  0  0  0  0  0
  180.2040  182.8790  134.8020 C   0  0  0  0  0  2  0  0  0  0  0  0
  180.8350  184.1850  135.2650 C   0  0  0  0  0  2  0  0  0  0  0  0
  181.1720  184.1410  136.7480 C   0  0  0  0  0  2  0  0  0  0  0  0
  180.2140  185.0170  137.5340 C   0  0  0  0  0  1  0  0  0  0  0  0
  1 10  1  0  0  0  0
  2 27  2  0  0  0  0
  4 10  1  0  0  0  0
  4  9  1  0  0  0  0
  5 26  1  0  0  0  0
  6 23  1  0  0  0  0
  7 39  1  6  0  0  0
  7 16  1  0  0  0  0
  8 16  1  0  0  0  0
  8 15  1  0  0  0  0
  9 23  1  0  0  0  0
  9  3  2  0  0  0  0
 10 12  1  1  0  0  0
 11 20  1  6  0  0  0
 11 25  1  0  0  0  0
 11  1  1  0  0  0  0
 13 14  1  0  0  0  0
 14 19  1  0  0  0  0
 15 24  1  0  0  0  0
 17 18  1  0  0  0  0
 18 15  1  0  0  0  0
 18  5  2  0  0  0  0
 19  2  1  0  0  0  0
 19 20  2  0  0  0  0
 21 13  1  6  0  0  0
 21 17  1  0  0  0  0
 22 21  1  0  0  0  0
 22  7  1  0  0  0  0
 24 26  2  0  0  0  0
 24  6  1  0  0  0  0
 26 35  1  0  0  0  0
 27 31  1  0  0  0  0
 27 25  1  0  0  0  0
 29 31  1  0  0  0  0
 31 28  1  0  0  0  0
 31 30  1  0  0  0  0
 33 34  1  0  0  0  0
 33 32  1  0  0  0  0
 34  5  1  1  0  0  0
 34 32  1  0  0  0  0
 35 36  1  0  0  0  0
 36 37  1  0  0  0  0
 37 38  1  0  0  0  0
 39 40  1  0  0  0  0
 41 42  1  0  0  0  0
 41 40  1  0  0  0  0
 42 43  1  0  0  0  0
 43 44  1  0  0  0  0
M  END
>  <MODEL>
1

>  <REMARK>
 VINA RESULT:      -5.6      0.000      0.000
  Name = 
  10 active torsions:
  status: ('A' for Active; 'I' for Inactive)
    1  A    between atoms: C_1  and  C_34
    2  A    between atoms: C_7  and  C_39
    3  A    between atoms: O_9  and  C_34
    4  A    between atoms: O_9  and  C_42
    5  A    between atoms: C_11  and  C_20
    6  A    between atoms: C_14  and  C_15
    7  A    between atoms: C_15  and  C_17
    8  A    between atoms: C_17  and  C_19
    9  A    between atoms: C_19  and  C_39
   10  A    between atoms: C_43  and  C_44
                            x       y       z     vdW  Elec       q    Type
                         _______ _______ _______ _____ _____    ______ ____

>  <TORSDO>
F 10

$$$$
=
 OpenBabel10222415463D

 44 48  0  0  1  0  0  0  0  0999 V2000
  184.2350  175.6230  135.8620 C   0  0  0  0  0  2  0  0  0  0  0  0
  181.1770  173.2620  135.5140 C   0  0  0  0  0  3  0  0  0  0  0  0
  186.4460  178.7500  137.5600 O   0  0  0  0  0  0  0  0  0  0  0  0
  184.8100  177.0950  137.7550 N   0  0  0  0  0  2  0  0  0  0  0  0
  181.0500  177.6160  140.3600 C   0  0  0  0  0  0  0  0  0  0  0  0
  183.8920  179.7630  139.3950 C   0  0  0  0  0  2  0  0  0  0  0  0
  180.8830  178.8030  135.4290 C   0  0  1  0  0  3  0  0  0  0  0  0
  181.5690  179.7450  137.4210 C   0  0  0  0  0  2  0  0  0  0  0  0
  185.5020  178.2530  138.2300 C   0  0  0  0  0  0  0  0  0  0  0  0
  185.3490  176.2740  136.6780 C   0  0  1  0  0  3  0  0  0  0  0  0
  183.2540  174.8400  136.7220 C   0  0  1  0  0  3  0  0  0  0  0  0
  186.2980  175.2280  137.2370 C   0  0  0  0  0  1  0  0  0  0  0  0
  178.9310  176.0180  136.7310 C   0  0  0  0  0  2  0  0  0  0  0  0
  179.5810  175.2640  135.5680 C   0  0  0  0  0  2  0  0  0  0  0  0
  181.5960  179.0130  138.6830 N   0  0  0  0  0  0  0  0  0  0  0  0
  181.9370  178.8830  136.3730 O   0  0  0  0  0  0  0  0  0  0  0  0
  179.3790  177.8250  138.4260 C   0  0  0  0  0  2  0  0  0  0  0  0
  180.6480  178.1680  139.1480 C   0  0  0  0  0  0  0  0  0  0  0  0
  180.9080  174.6480  135.9160 C   0  0  0  0  0  0  0  0  0  0  0  0
  181.8770  175.3790  136.4750 C   0  0  0  0  0  3  0  0  0  0  0  0
  179.7110  177.2830  137.0520 C   0  0  2  0  0  3  0  0  0  0  0  0
  179.5270  178.3680  136.0040 C   0  0  0  0  0  2  0  0  0  0  0  0
  185.1220  178.8750  139.5300 C   0  0  0  0  0  2  0  0  0  0  0  0
  182.6250  178.9760  139.5530 C   0  0  0  0  0  0  0  0  0  0  0  0
  183.3600  173.4400  136.4330 O   0  0  0  0  0  0  0  0  0  0  0  0
  182.3210  178.1300  140.6050 C   0  0  0  0  0  0  0  0  0  0  0  0
  182.3640  172.7040  135.7690 C   0  0  0  0  0  0  0  0  0  0  0  0
  181.5770  170.8220  134.5970 F   0  0  0  0  0  0  0  0  0  0  0  0
  183.8030  171.1850  134.6760 F   0  0  0  0  0  0  0  0  0  0  0  0
  182.7070  170.4910  136.5160 F   0  0  0  0  0  0  0  0  0  0  0  0
  182.6180  171.2810  135.3840 C   0  0  0  0  0  0  0  0  0  0  0  0
  179.1090  176.2600  140.5060 O   0  0  0  0  0  0  0  0  0  0  0  0
  180.1490  175.3180  140.4400 C   0  0  0  0  0  2  0  0  0  0  0  0
  180.3020  176.5990  141.1720 C   0  0  1  0  0  3  0  0  0  0  0  0
  183.1840  177.8570  141.6730 O   0  0  0  0  0  0  0  0  0  0  0  0
  183.2610  178.6530  142.8460 C   0  0  0  0  0  2  0  0  0  0  0  0
  184.6760  179.1660  143.0260 C   0  0  0  0  0  2  0  0  0  0  0  0
  185.5670  178.0930  143.0610 O   0  0  0  0  0  1  0  0  0  0  0  0
  180.7480  180.0730  134.5950 C   0  0  0  0  0  2  0  0  0  0  0  0
  179.3140  180.5890  134.6030 C   0  0  0  0  0  2  0  0  0  0  0  0
  179.2690  182.1130  134.6600 C   0  0  0  0  0  2  0  0  0  0  0  0
  180.5790  182.7050  135.1640 C   0  0  0  0  0  2  0  0  0  0  0  0
  180.5060  184.2230  135.2420 C   0  0  0  0  0  2  0  0  0  0  0  0
  181.2070  184.7220  136.4930 C   0  0  0  0  0  1  0  0  0  0  0  0
  1 10  1  0  0  0  0
  2 27  2  0  0  0  0
  2 19  1  0  0  0  0
  3  9  2  0  0  0  0
  4  9  1  0  0  0  0
  5 26  1  0  0  0  0
  6 23  1  0  0  0  0
  6 24  1  0  0  0  0
  7 39  1  1  0  0  0
  7 22  1  0  0  0  0
  7 16  1  0  0  0  0
  8 15  1  0  0  0  0
  9 23  1  0  0  0  0
 10 12  1  1  0  0  0
 10  4  1  0  0  0  0
 11  1  1  6  0  0  0
 13 21  1  0  0  0  0
 14 19  1  0  0  0  0
 14 13  1  0  0  0  0
 15 18  1  0  0  0  0
 15 24  1  0  0  0  0
 16  8  1  0  0  0  0
 17 18  1  0  0  0  0
 18  5  2  0  0  0  0
 19 20  2  0  0  0  0
 20 11  1  0  0  0  0
 21 22  1  6  0  0  0
 21 17  1  0  0  0  0
 24 26  2  0  0  0  0
 25 11  1  0  0  0  0
 26 35  1  0  0  0  0
 27 25  1  0  0  0  0
 28 31  1  0  0  0  0
 29 31  1  0  0  0  0
 31 27  1  0  0  0  0
 31 30  1  0  0  0  0
 32 34  1  0  0  0  0
 33 32  1  0  0  0  0
 33 34  1  0  0  0  0
 34  5  1  6  0  0  0
 35 36  1  0  0  0  0
 36 37  1  0  0  0  0
 37 38  1  0  0  0  0
 39 40  1  0  0  0  0
 40 41  1  0  0  0  0
 41 42  1  0  0  0  0
 42 43  1  0  0  0  0
 43 44  1  0  0  0  0
M  END
>  <MODEL>
2

>  <REMARK>
 VINA RESULT:      -4.7      2.890      5.229
  Name = 
  10 active torsions:
  status: ('A' for Active; 'I' for Inactive)
    1  A    between atoms: C_1  and  C_34
    2  A    between atoms: C_7  and  C_39
    3  A    between atoms: O_9  and  C_34
    4  A    between atoms: O_9  and  C_42
    5  A    between atoms: C_11  and  C_20
    6  A    between atoms: C_14  and  C_15
    7  A    between atoms: C_15  and  C_17
    8  A    between atoms: C_17  and  C_19
    9  A    between atoms: C_19  and  C_39
   10  A    between atoms: C_43  and  C_44
                            x       y       z     vdW  Elec       q    Type
                         _______ _______ _______ _____ _____    ______ ____

>  <TORSDO>
F 10

$$$$
=
 OpenBabel10222415463D

 44 48  0  0  1  0  0  0  0  0999 V2000
  184.2130  176.8610  138.4650 C   0  0  0  0  0  2  0  0  0  0  0  0
  184.8640  178.5340  141.9040 C   0  0  0  0  0  3  0  0  0  0  0  0
  182.2690  176.3700  134.7860 O   0  0  0  0  0  0  0  0  0  0  0  0
  182.8920  177.7360  136.5760 N   0  0  0  0  0  2  0  0  0  0  0  0
  180.2180  181.1370  138.1500 C   0  0  0  0  0  0  0  0  0  0  0  0
  179.8720  178.4950  135.5970 C   0  0  0  0  0  2  0  0  0  0  0  0
  179.9500  176.5360  140.2720 C   0  0  1  0  0  3  0  0  0  0  0  0
  179.1230  177.6500  138.4280 C   0  0  0  0  0  2  0  0  0  0  0  0
  182.1380  177.4680  135.3910 C   0  0  0  0  0  0  0  0  0  0  0  0
  184.0400  176.9190  136.9500 C   0  0  1  0  0  3  0  0  0  0  0  0
  184.2790  178.2400  139.1040 C   0  0  1  0  0  3  0  0  0  0  0  0
  185.2980  177.4380  136.2760 C   0  0  0  0  0  1  0  0  0  0  0  0
  181.2120  179.3790  142.1660 C   0  0  0  0  0  2  0  0  0  0  0  0
  182.3680  178.4230  142.4690 C   0  0  0  0  0  2  0  0  0  0  0  0
  179.5540  178.9900  138.0450 N   0  0  0  0  0  0  0  0  0  0  0  0
  180.2210  176.9340  138.9390 O   0  0  0  0  0  0  0  0  0  0  0  0
  179.5740  180.0070  140.3600 C   0  0  0  0  0  2  0  0  0  0  0  0
  179.7560  180.0420  138.8720 C   0  0  0  0  0  0  0  0  0  0  0  0
  183.4700  178.4670  141.4470 C   0  0  0  0  0  0  0  0  0  0  0  0
  183.2030  178.3280  140.1450 C   0  0  0  0  0  3  0  0  0  0  0  0
  180.4330  178.9080  140.9470 C   0  0  2  0  0  3  0  0  0  0  0  0
  179.5870  177.6780  141.2320 C   0  0  0  0  0  2  0  0  0  0  0  0
  181.1990  178.4920  134.8490 C   0  0  0  0  0  2  0  0  0  0  0  0
  179.9260  179.3770  136.8080 C   0  0  0  0  0  0  0  0  0  0  0  0
  185.5880  178.4670  139.6430 O   0  0  0  0  0  0  0  0  0  0  0  0
  180.3330  180.6990  136.8330 C   0  0  0  0  0  0  0  0  0  0  0  0
  185.8650  178.5280  141.0190 C   0  0  0  0  0  0  0  0  0  0  0  0
  187.3580  178.2130  142.8090 F   0  0  0  0  0  0  0  0  0  0  0  0
  188.0990  177.8300  140.7120 F   0  0  0  0  0  0  0  0  0  0  0  0
  187.7180  179.9370  141.4070 F   0  0  0  0  0  0  0  0  0  0  0  0
  187.2810  178.6280  141.4920 C   0  0  0  0  0  0  0  0  0  0  0  0
  180.9230  183.3450  137.6430 O   0  0  0  0  0  0  0  0  0  0  0  0
  179.6760  183.5440  138.2580 C   0  0  0  0  0  2  0  0  0  0  0  0
  180.6040  182.4770  138.7060 C   0  0  1  0  0  3  0  0  0  0  0  0
  180.7970  181.4020  135.7150 O   0  0  0  0  0  0  0  0  0  0  0  0
  179.9430  181.9720  134.7340 C   0  0  0  0  0  2  0  0  0  0  0  0
  180.2380  183.4530  134.5950 C   0  0  0  0  0  2  0  0  0  0  0  0
  179.0450  184.1750  134.5950 O   0  0  0  0  0  1  0  0  0  0  0  0
  178.9310  175.4030  140.3480 C   0  0  0  0  0  2  0  0  0  0  0  0
  179.5510  174.0750  139.9340 C   0  0  0  0  0  2  0  0  0  0  0  0
  179.0350  173.6170  138.5740 C   0  0  0  0  0  2  0  0  0  0  0  0
  179.9880  172.6380  137.9010 C   0  0  0  0  0  2  0  0  0  0  0  0
  181.1840  173.3590  137.2960 C   0  0  0  0  0  2  0  0  0  0  0  0
  182.1040  172.3680  136.6040 C   0  0  0  0  0  1  0  0  0  0  0  0
  3  9  2  0  0  0  0
  4 10  1  0  0  0  0
  5 18  2  0  0  0  0
  6 24  1  0  0  0  0
  7 39  1  6  0  0  0
  7 22  1  0  0  0  0
  8 16  1  0  0  0  0
  9  4  1  0  0  0  0
 10 12  1  6  0  0  0
 10  1  1  0  0  0  0
 11  1  1  1  0  0  0
 11 25  1  0  0  0  0
 11 20  1  0  0  0  0
 13 14  1  0  0  0  0
 15  8  1  0  0  0  0
 15 18  1  0  0  0  0
 16  7  1  0  0  0  0
 18 17  1  0  0  0  0
 19  2  1  0  0  0  0
 19 14  1  0  0  0  0
 20 19  2  0  0  0  0
 21 17  1  1  0  0  0
 21 22  1  0  0  0  0
 21 13  1  0  0  0  0
 23  9  1  0  0  0  0
 23  6  1  0  0  0  0
 24 26  2  0  0  0  0
 24 15  1  0  0  0  0
 25 27  1  0  0  0  0
 26  5  1  0  0  0  0
 27 31  1  0  0  0  0
 27  2  2  0  0  0  0
 29 31  1  0  0  0  0
 30 31  1  0  0  0  0
 31 28  1  0  0  0  0
 32 33  1  0  0  0  0
 32 34  1  0  0  0  0
 33 34  1  0  0  0  0
 34  5  1  6  0  0  0
 35 26  1  0  0  0  0
 36 35  1  0  0  0  0
 37 36  1  0  0  0  0
 38 37  1  0  0  0  0
 40 39  1  0  0  0  0
 41 40  1  0  0  0  0
 42 41  1  0  0  0  0
 43 42  1  0  0  0  0
 44 43  1  0  0  0  0
M  END
>  <MODEL>
3

>  <REMARK>
 VINA RESULT:      -4.7      2.162      7.176
  Name = 
  10 active torsions:
  status: ('A' for Active; 'I' for Inactive)
    1  A    between atoms: C_1  and  C_34
    2  A    between atoms: C_7  and  C_39
    3  A    between atoms: O_9  and  C_34
    4  A    between atoms: O_9  and  C_42
    5  A    between atoms: C_11  and  C_20
    6  A    between atoms: C_14  and  C_15
    7  A    between atoms: C_15  and  C_17
    8  A    between atoms: C_17  and  C_19
    9  A    between atoms: C_19  and  C_39
   10  A    between atoms: C_43  and  C_44
                            x       y       z     vdW  Elec       q    Type
                         _______ _______ _______ _____ _____    ______ ____

>  <TORSDO>
F 10

$$$$
=
 OpenBabel10222415463D

 44 48  0  0  1  0  0  0  0  0999 V2000
  183.0000  175.4910  136.2830 C   0  0  0  0  0  2  0  0  0  0  0  0
  179.7360  174.1630  137.9030 C   0  0  0  0  0  3  0  0  0  0  0  0
  186.4450  177.8660  136.0750 O   0  0  0  0  0  0  0  0  0  0  0  0
  184.8000  176.7990  137.3450 N   0  0  0  0  0  2  0  0  0  0  0  0
  183.1680  178.5570  141.2740 C   0  0  0  0  0  0  0  0  0  0  0  0
  185.5280  179.6900  138.6730 C   0  0  0  0  0  2  0  0  0  0  0  0
  180.7810  179.5200  136.9020 C   0  0  1  0  0  3  0  0  0  0  0  0
  182.5960  180.2940  138.0970 C   0  0  0  0  0  2  0  0  0  0  0  0
  185.8920  177.7110  137.1960 C   0  0  0  0  0  0  0  0  0  0  0  0
  184.4930  175.8060  136.3220 C   0  0  1  0  0  3  0  0  0  0  0  0
  182.4470  175.0830  137.6400 C   0  0  1  0  0  3  0  0  0  0  0  0
  185.3110  174.5470  136.5500 C   0  0  0  0  0  1  0  0  0  0  0  0
  179.1740  177.5230  139.4880 C   0  0  0  0  0  2  0  0  0  0  0  0
  178.9310  176.5570  138.3270 C   0  0  0  0  0  2  0  0  0  0  0  0
  183.0910  179.6450  139.3070 N   0  0  0  0  0  0  0  0  0  0  0  0
  182.1540  179.3150  137.1900 O   0  0  0  0  0  0  0  0  0  0  0  0
  180.8480  179.1800  140.3770 C   0  0  0  0  0  2  0  0  0  0  0  0
  182.3460  179.1510  140.3220 C   0  0  0  0  0  0  0  0  0  0  0  0
  180.0540  175.5810  138.1090 C   0  0  0  0  0  0  0  0  0  0  0  0
  181.3150  176.0050  137.9830 C   0  0  0  0  0  3  0  0  0  0  0  0
  180.2860  178.5030  139.1450 C   0  0  2  0  0  3  0  0  0  0  0  0
  179.8550  179.5440  138.1260 C   0  0  0  0  0  2  0  0  0  0  0  0
  186.3970  178.4770  138.3720 C   0  0  0  0  0  2  0  0  0  0  0  0
  184.3770  179.3350  139.5660 C   0  0  0  0  0  0  0  0  0  0  0  0
  182.0490  173.7060  137.6120 O   0  0  0  0  0  0  0  0  0  0  0  0
  184.4640  178.6700  140.7770 C   0  0  0  0  0  0  0  0  0  0  0  0
  180.7100  173.2810  137.6620 C   0  0  0  0  0  0  0  0  0  0  0  0
  180.8830  171.1110  138.5530 F   0  0  0  0  0  0  0  0  0  0  0  0
  179.0080  171.6620  137.4250 F   0  0  0  0  0  0  0  0  0  0  0  0
  180.9430  171.3560  136.3160 F   0  0  0  0  0  0  0  0  0  0  0  0
  180.3800  171.8320  137.4860 C   0  0  0  0  0  0  0  0  0  0  0  0
  183.3940  178.4130  143.6310 O   0  0  0  0  0  0  0  0  0  0  0  0
  182.0490  178.7810  143.4640 C   0  0  0  0  0  2  0  0  0  0  0  0
  182.7260  177.8540  142.5240 C   0  0  1  0  0  3  0  0  0  0  0  0
  185.6580  178.1940  141.3310 O   0  0  0  0  0  0  0  0  0  0  0  0
  186.2290  178.7040  142.5260 C   0  0  0  0  0  2  0  0  0  0  0  0
  186.8450  177.5720  143.3250 C   0  0  0  0  0  2  0  0  0  0  0  0
  186.6420  177.7890  144.6870 O   0  0  0  0  0  1  0  0  0  0  0  0
  180.5460  180.7330  136.0050 C   0  0  0  0  0  2  0  0  0  0  0  0
  179.3500  181.5470  136.4830 C   0  0  0  0  0  2  0  0  0  0  0  0
  179.4410  182.9980  136.0190 C   0  0  0  0  0  2  0  0  0  0  0  0
  180.8790  183.4210  135.7460 C   0  0  0  0  0  2  0  0  0  0  0  0
  181.1830  184.7770  136.3640 C   0  0  0  0  0  2  0  0  0  0  0  0
  180.0600  185.1970  137.2960 C   0  0  0  0  0  1  0  0  0  0  0  0
  1 10  1  0  0  0  0
  2 19  1  0  0  0  0
  3  9  2  0  0  0  0
  6 24  1  0  0  0  0
  7 39  1  1  0  0  0
  7 16  1  0  0  0  0
  7 22  1  0  0  0  0
  8 15  1  0  0  0  0
  9  4  1  0  0  0  0
  9 23  1  0  0  0  0
 10 12  1  1  0  0  0
 10  4  1  0  0  0  0
 11  1  1  6  0  0  0
 11 20  1  0  0  0  0
 14 13  1  0  0  0  0
 15 24  1  0  0  0  0
 15 18  1  0  0  0  0
 16  8  1  0  0  0  0
 18 17  1  0  0  0  0
 18  5  2  0  0  0  0
 19 14  1  0  0  0  0
 20 19  2  0  0  0  0
 21 22  1  6  0  0  0
 21 13  1  0  0  0  0
 21 17  1  0  0  0  0
 23  6  1  0  0  0  0
 24 26  2  0  0  0  0
 25 11  1  0  0  0  0
 25 27  1  0  0  0  0
 26  5  1  0  0  0  0
 26 35  1  0  0  0  0
 27  2  2  0  0  0  0
 29 31  1  0  0  0  0
 30 31  1  0  0  0  0
 31 27  1  0  0  0  0
 31 28  1  0  0  0  0
 33 32  1  0  0  0  0
 34  5  1  6  0  0  0
 34 33  1  0  0  0  0
 34 32  1  0  0  0  0
 35 36  1  0  0  0  0
 36 37  1  0  0  0  0
 37 38  1  0  0  0  0
 39 40  1  0  0  0  0
 41 40  1  0  0  0  0
 42 41  1  0  0  0  0
 42 43  1  0  0  0  0
 43 44  1  0  0  0  0
M  END
>  <MODEL>
4

>  <REMARK>
 VINA RESULT:      -4.0      3.364      6.365
  Name = 
  10 active torsions:
  status: ('A' for Active; 'I' for Inactive)
    1  A    between atoms: C_1  and  C_34
    2  A    between atoms: C_7  and  C_39
    3  A    between atoms: O_9  and  C_34
    4  A    between atoms: O_9  and  C_42
    5  A    between atoms: C_11  and  C_20
    6  A    between atoms: C_14  and  C_15
    7  A    between atoms: C_15  and  C_17
    8  A    between atoms: C_17  and  C_19
    9  A    between atoms: C_19  and  C_39
   10  A    between atoms: C_43  and  C_44
                            x       y       z     vdW  Elec       q    Type
                         _______ _______ _______ _____ _____    ______ ____

>  <TORSDO>
F 10

$$$$
=
 OpenBabel10222415463D

 44 48  0  0  1  0  0  0  0  0999 V2000
  183.9910  179.5800  142.9660 C   0  0  0  0  0  2  0  0  0  0  0  0
  186.9630  178.2990  140.8270 C   0  0  0  0  0  3  0  0  0  0  0  0
  179.9550  179.9550  144.0220 O   0  0  0  0  0  0  0  0  0  0  0  0
  181.6690  178.7500  142.9910 N   0  0  0  0  0  2  0  0  0  0  0  0
  181.0020  176.2390  139.1910 C   0  0  0  0  0  0  0  0  0  0  0  0
  178.9330  178.5150  141.2280 C   0  0  0  0  0  2  0  0  0  0  0  0
  182.5900  181.0410  138.7890 C   0  0  1  0  0  3  0  0  0  0  0  0
  180.6170  179.8830  139.0860 C   0  0  0  0  0  2  0  0  0  0  0  0
  180.2890  179.0040  143.2660 C   0  0  0  0  0  0  0  0  0  0  0  0
  182.7290  179.3510  143.7920 C   0  0  1  0  0  3  0  0  0  0  0  0
  184.4720  178.3190  142.2610 C   0  0  1  0  0  3  0  0  0  0  0  0
  183.0220  178.4900  145.0090 C   0  0  0  0  0  1  0  0  0  0  0  0
  184.7510  178.2860  137.7890 C   0  0  0  0  0  2  0  0  0  0  0  0
  185.7670  179.0090  138.6760 C   0  0  0  0  0  2  0  0  0  0  0  0
  180.5620  178.4420  139.3100 N   0  0  0  0  0  0  0  0  0  0  0  0
  181.7430  180.4140  139.7380 O   0  0  0  0  0  0  0  0  0  0  0  0
  182.2940  177.7730  137.5940 C   0  0  0  0  0  2  0  0  0  0  0  0
  181.2850  177.4960  138.6670 C   0  0  0  0  0  0  0  0  0  0  0  0
  185.7100  178.5930  140.1200 C   0  0  0  0  0  0  0  0  0  0  0  0
  184.5540  178.6040  140.7910 C   0  0  0  0  0  3  0  0  0  0  0  0
  183.3360  178.7380  138.1180 C   0  0  2  0  0  3  0  0  0  0  0  0
  183.0410  180.1450  137.6270 C   0  0  0  0  0  2  0  0  0  0  0  0
  179.2320  178.1360  142.6720 C   0  0  0  0  0  2  0  0  0  0  0  0
  179.8550  177.8180  140.2740 C   0  0  0  0  0  0  0  0  0  0  0  0
  185.7260  177.8990  142.8140 O   0  0  0  0  0  0  0  0  0  0  0  0
  180.0950  176.4560  140.2250 C   0  0  0  0  0  0  0  0  0  0  0  0
  186.9460  177.9710  142.1220 C   0  0  0  0  0  0  0  0  0  0  0  0
  188.0500  177.7810  144.1910 F   0  0  0  0  0  0  0  0  0  0  0  0
  188.6000  176.3400  142.5430 F   0  0  0  0  0  0  0  0  0  0  0  0
  189.2290  178.4980  142.4120 F   0  0  0  0  0  0  0  0  0  0  0  0
  188.2250  177.6420  142.8260 C   0  0  0  0  0  0  0  0  0  0  0  0
  180.6200  174.0420  138.3820 O   0  0  0  0  0  0  0  0  0  0  0  0
  181.3740  174.6310  137.3540 C   0  0  0  0  0  2  0  0  0  0  0  0
  181.6300  174.9380  138.7830 C   0  0  1  0  0  3  0  0  0  0  0  0
  179.5270  175.5230  141.1010 O   0  0  0  0  0  0  0  0  0  0  0  0
  178.9320  174.3060  140.6770 C   0  0  0  0  0  2  0  0  0  0  0  0
  179.4900  173.1530  141.4880 C   0  0  0  0  0  2  0  0  0  0  0  0
  179.4500  173.4680  142.8470 O   0  0  0  0  0  1  0  0  0  0  0  0
  182.0210  182.3630  138.2810 C   0  0  0  0  0  2  0  0  0  0  0  0
  180.9290  182.1300  137.2440 C   0  0  0  0  0  2  0  0  0  0  0  0
  180.3930  183.4470  136.6930 C   0  0  0  0  0  2  0  0  0  0  0  0
  180.7200  184.6230  137.6030 C   0  0  0  0  0  2  0  0  0  0  0  0
  179.6280  185.6820  137.5530 C   0  0  0  0  0  2  0  0  0  0  0  0
  179.2330  186.1010  138.9580 C   0  0  0  0  0  1  0  0  0  0  0  0
  1 10  1  0  0  0  0
  2 27  2  0  0  0  0
  4  9  1  0  0  0  0
  4 10  1  0  0  0  0
  5 26  1  0  0  0  0
  6 23  1  0  0  0  0
  7 39  1  6  0  0  0
  7 16  1  0  0  0  0
  8 15  1  0  0  0  0
  8 16  1  0  0  0  0
  9  3  2  0  0  0  0
 10 12  1  1  0  0  0
 11 20  1  6  0  0  0
 11 25  1  0  0  0  0
 11  1  1  0  0  0  0
 13 21  1  0  0  0  0
 13 14  1  0  0  0  0
 14 19  1  0  0  0  0
 15 24  1  0  0  0  0
 17 18  1  0  0  0  0
 18  5  2  0  0  0  0
 18 15  1  0  0  0  0
 19 20  2  0  0  0  0
 19  2  1  0  0  0  0
 21 17  1  6  0  0  0
 22 21  1  0  0  0  0
 22  7  1  0  0  0  0
 23  9  1  0  0  0  0
 24  6  1  0  0  0  0
 26 24  2  0  0  0  0
 26 35  1  0  0  0  0
 27 25  1  0  0  0  0
 27 31  1  0  0  0  0
 29 31  1  0  0  0  0
 30 31  1  0  0  0  0
 31 28  1  0  0  0  0
 32 34  1  0  0  0  0
 33 32  1  0  0  0  0
 33 34  1  0  0  0  0
 34  5  1  6  0  0  0
 36 35  1  0  0  0  0
 36 37  1  0  0  0  0
 37 38  1  0  0  0  0
 40 39  1  0  0  0  0
 41 40  1  0  0  0  0
 41 42  1  0  0  0  0
 43 42  1  0  0  0  0
 43 44  1  0  0  0  0
M  END
>  <MODEL>
5

>  <REMARK>
 VINA RESULT:      -3.7      2.294      3.241
  Name = 
  10 active torsions:
  status: ('A' for Active; 'I' for Inactive)
    1  A    between atoms: C_1  and  C_34
    2  A    between atoms: C_7  and  C_39
    3  A    between atoms: O_9  and  C_34
    4  A    between atoms: O_9  and  C_42
    5  A    between atoms: C_11  and  C_20
    6  A    between atoms: C_14  and  C_15
    7  A    between atoms: C_15  and  C_17
    8  A    between atoms: C_17  and  C_19
    9  A    between atoms: C_19  and  C_39
   10  A    between atoms: C_43  and  C_44
                            x       y       z     vdW  Elec       q    Type
                         _______ _______ _______ _____ _____    ______ ____

>  <TORSDO>
F 10

$$$$
=
 OpenBabel10222415463D

 44 48  0  0  1  0  0  0  0  0999 V2000
  181.1470  176.6480  140.0350 C   0  0  0  0  0  2  0  0  0  0  0  0
  184.3330  178.7290  140.7890 C   0  0  0  0  0  3  0  0  0  0  0  0
  178.9330  173.6490  138.1240 O   0  0  0  0  0  0  0  0  0  0  0  0
  180.9870  174.4920  138.8490 N   0  0  0  0  0  2  0  0  0  0  0  0
  184.9000  173.8470  136.5120 C   0  0  0  0  0  0  0  0  0  0  0  0
  181.3430  173.0470  135.9440 C   0  0  0  0  0  2  0  0  0  0  0  0
  182.1620  178.0450  135.7270 C   0  0  1  0  0  3  0  0  0  0  0  0
  182.1880  175.8380  135.0570 C   0  0  0  0  0  2  0  0  0  0  0  0
  180.1900  173.5750  138.0950 C   0  0  0  0  0  0  0  0  0  0  0  0
  180.4060  175.3210  139.8980 C   0  0  1  0  0  3  0  0  0  0  0  0
  182.6460  176.4690  140.2310 C   0  0  1  0  0  3  0  0  0  0  0  0
  180.3900  174.5660  141.2170 C   0  0  0  0  0  1  0  0  0  0  0  0
  185.4680  178.2460  137.2400 C   0  0  0  0  0  2  0  0  0  0  0  0
  184.7330  179.0880  138.2850 C   0  0  0  0  0  2  0  0  0  0  0  0
  183.0840  174.8390  135.6320 N   0  0  0  0  0  0  0  0  0  0  0  0
  181.7700  176.7250  136.0640 O   0  0  0  0  0  0  0  0  0  0  0  0
  185.1680  176.2680  135.7120 C   0  0  0  0  0  2  0  0  0  0  0  0
  184.3940  175.0020  135.9250 C   0  0  0  0  0  0  0  0  0  0  0  0
  184.1420  178.2770  139.4050 C   0  0  0  0  0  0  0  0  0  0  0  0
  183.3550  177.2280  139.1500 C   0  0  0  0  0  3  0  0  0  0  0  0
  184.4850  177.4060  136.4400 C   0  0  2  0  0  3  0  0  0  0  0  0
  183.6630  178.2320  135.4660 C   0  0  0  0  0  2  0  0  0  0  0  0
  180.8400  172.5100  137.2780 C   0  0  0  0  0  2  0  0  0  0  0  0
  182.7250  173.6140  136.0650 C   0  0  0  0  0  0  0  0  0  0  0  0
  183.0210  176.9000  141.5460 O   0  0  0  0  0  0  0  0  0  0  0  0
  183.8230  172.9690  136.6070 C   0  0  0  0  0  0  0  0  0  0  0  0
  183.7810  178.0540  141.8010 C   0  0  0  0  0  0  0  0  0  0  0  0
  184.6360  179.7360  143.2060 F   0  0  0  0  0  0  0  0  0  0  0  0
  182.7970  178.6100  143.8740 F   0  0  0  0  0  0  0  0  0  0  0  0
  184.8060  177.5930  143.8770 F   0  0  0  0  0  0  0  0  0  0  0  0
  184.0070  178.5040  143.2100 C   0  0  0  0  0  0  0  0  0  0  0  0
  186.9540  172.6990  136.2100 O   0  0  0  0  0  0  0  0  0  0  0  0
  187.3120  174.0430  136.0210 C   0  0  0  0  0  2  0  0  0  0  0  0
  186.2960  173.6410  137.0240 C   0  0  1  0  0  3  0  0  0  0  0  0
  183.7880  171.6840  137.1630 O   0  0  0  0  0  0  0  0  0  0  0  0
  184.4010  170.5520  136.5660 C   0  0  0  0  0  2  0  0  0  0  0  0
  183.3440  169.6740  135.9250 C   0  0  0  0  0  2  0  0  0  0  0  0
  182.5810  170.4270  135.0330 O   0  0  0  0  0  1  0  0  0  0  0  0
  181.3250  178.6330  134.5940 C   0  0  0  0  0  2  0  0  0  0  0  0
  180.2490  179.5680  135.1320 C   0  0  0  0  0  2  0  0  0  0  0  0
  180.4120  179.8040  136.6310 C   0  0  0  0  0  2  0  0  0  0  0  0
  180.0450  181.2280  137.0280 C   0  0  0  0  0  2  0  0  0  0  0  0
  180.2510  181.4570  138.5180 C   0  0  0  0  0  2  0  0  0  0  0  0
  181.1790  180.4010  139.0920 C   0  0  0  0  0  1  0  0  0  0  0  0
  1 11  1  0  0  0  0
  2 27  2  0  0  0  0
  4 10  1  0  0  0  0
  5 26  1  0  0  0  0
  6 24  1  0  0  0  0
  6 23  1  0  0  0  0
  7 39  1  6  0  0  0
  7 16  1  0  0  0  0
  8 15  1  0  0  0  0
  8 16  1  0  0  0  0
  9  3  2  0  0  0  0
  9  4  1  0  0  0  0
 10  1  1  0  0  0  0
 10 12  1  1  0  0  0
 11 20  1  6  0  0  0
 11 25  1  0  0  0  0
 13 14  1  0  0  0  0
 14 19  1  0  0  0  0
 15 18  1  0  0  0  0
 15 24  1  0  0  0  0
 17 18  1  0  0  0  0
 17 21  1  0  0  0  0
 18  5  2  0  0  0  0
 19  2  1  0  0  0  0
 20 19  2  0  0  0  0
 21 22  1  6  0  0  0
 21 13  1  0  0  0  0
 22  7  1  0  0  0  0
 23  9  1  0  0  0  0
 24 26  2  0  0  0  0
 25 27  1  0  0  0  0
 26 35  1  0  0  0  0
 27 31  1  0  0  0  0
 28 31  1  0  0  0  0
 31 29  1  0  0  0  0
 31 30  1  0  0  0  0
 32 34  1  0  0  0  0
 33 32  1  0  0  0  0
 33 34  1  0  0  0  0
 34  5  1  6  0  0  0
 36 35  1  0  0  0  0
 37 36  1  0  0  0  0
 38 37  1  0  0  0  0
 39 40  1  0  0  0  0
 40 41  1  0  0  0  0
 41 42  1  0  0  0  0
 42 43  1  0  0  0  0
 43 44  1  0  0  0  0
M  END
>  <MODEL>
6

>  <REMARK>
 VINA RESULT:      -2.7      2.986      5.200
  Name = 
  10 active torsions:
  status: ('A' for Active; 'I' for Inactive)
    1  A    between atoms: C_1  and  C_34
    2  A    between atoms: C_7  and  C_39
    3  A    between atoms: O_9  and  C_34
    4  A    between atoms: O_9  and  C_42
    5  A    between atoms: C_11  and  C_20
    6  A    between atoms: C_14  and  C_15
    7  A    between atoms: C_15  and  C_17
    8  A    between atoms: C_17  and  C_19
    9  A    between atoms: C_19  and  C_39
   10  A    between atoms: C_43  and  C_44
                            x       y       z     vdW  Elec       q    Type
                         _______ _______ _______ _____ _____    ______ ____

>  <TORSDO>
F 10

$$$$
