=
 OpenBabel10222418333D

 65 74  0  0  1  0  0  0  0  0999 V2000
  193.1430  176.7720  139.3080 C   0  0  0  0  0  0  0  0  0  0  0  0
  186.8690  175.8500  137.0700 C   0  0  0  0  0  2  0  0  0  0  0  0
  190.8470  173.3090  135.0520 N   0  0  0  0  0  2  0  0  0  0  0  0
  191.2540  177.2390  140.8230 C   0  0  0  0  0  0  0  0  0  0  0  0
  192.1670  173.8250  135.4760 C   0  0  1  0  0  3  0  0  0  0  0  0
  195.0800  175.6710  138.4740 N   0  0  0  0  0  0  0  0  0  0  0  0
  191.0730  176.1270  138.1400 N   0  0  0  0  0  0  0  0  0  0  0  0
  195.2340  171.8800  135.4250 C   0  0  0  0  0  3  0  0  0  0  0  0
  188.3820  177.8420  136.6710 C   0  0  0  0  0  2  0  0  0  0  0  0
  197.2660  173.0240  136.0470 C   0  0  0  0  0  0  0  0  0  0  0  0
  188.8920  177.5810  137.9550 O   0  0  0  0  0  0  0  0  0  0  0  0
  195.1040  173.9870  136.6560 C   0  0  0  0  0  0  0  0  0  0  0  0
  196.6270  171.9420  135.4450 C   0  0  0  0  0  3  0  0  0  0  0  0
  187.8710  177.1510  141.9820 C   0  0  0  0  0  3  0  0  0  0  0  0
  194.4590  172.8930  136.0000 C   0  0  0  0  0  0  0  0  0  0  0  0
  190.1900  176.7970  141.1780 C   0  0  0  0  0  0  0  0  0  0  0  0
  187.6630  178.4410  139.8220 C   0  0  0  0  0  2  0  0  0  0  0  0
  192.4100  176.1740  138.2900 C   0  0  0  0  0  0  0  0  0  0  0  0
  196.5090  174.0220  136.6640 C   0  0  0  0  0  3  0  0  0  0  0  0
  192.0690  174.8590  136.5380 C   0  0  0  0  0  0  0  0  0  0  0  0
  187.7790  176.5700  136.0560 C   0  0  1  0  0  0  0  0  0  0  0  0
  190.8800  175.3280  137.0630 C   0  0  0  0  0  0  0  0  0  0  0  0
  192.5410  177.7270  140.3050 C   0  0  0  0  0  2  0  0  0  0  0  0
  193.0650  175.3380  137.3350 C   0  0  0  0  0  0  0  0  0  0  0  0
  189.5610  174.7610  136.6480 C   0  0  1  0  0  3  0  0  0  0  0  0
  186.5550  176.7310  138.2830 C   0  0  0  0  0  2  0  0  0  0  0  0
  194.4850  176.5140  139.3350 N   0  0  0  0  0  2  0  0  0  0  0  0
  188.9080  175.6400  135.5680 C   0  0  0  0  0  2  0  0  0  0  0  0
  187.2460  178.0760  141.2240 C   0  0  0  0  0  0  0  0  0  0  0  0
  189.8420  173.3270  136.1340 C   0  0  1  0  0  3  0  0  0  0  0  0
  188.9130  176.1710  141.5290 C   0  0  0  0  0  2  0  0  0  0  0  0
  193.0350  172.7450  135.9070 N   0  0  0  0  0  2  0  0  0  0  0  0
  187.8660  177.2640  138.8830 C   0  0  1  0  0  3  0  0  0  0  0  0
  194.4080  175.0240  137.4690 C   0  0  0  0  0  0  0  0  0  0  0  0
  184.8520  178.4640  141.7240 C   0  0  1  0  0  3  0  0  0  0  0  0
  185.3610  179.4890  140.9060 O   0  0  0  0  0  0  0  0  0  0  0  0
  186.2380  178.9700  141.8780 C   0  0  2  0  0  3  0  0  0  0  0  0
  183.9580  179.0750  142.8030 C   0  0  2  0  0  3  0  0  0  0  0  0
  184.1410  178.4110  144.0310 O   0  0  0  0  0  0  0  0  0  0  0  0
  182.1570  179.4170  144.9160 N   0  0  0  0  0  2  0  0  0  0  0  0
  182.4490  179.1840  142.4520 C   0  0  2  0  0  3  0  0  0  0  0  0
  183.6250  179.2790  145.0100 C   0  0  0  0  0  2  0  0  0  0  0  0
  181.6080  178.8330  143.6830 C   0  0  0  0  0  2  0  0  0  0  0  0
  181.9950  178.3010  141.2910 C   0  0  0  0  0  2  0  0  0  0  0  0
  180.5540  178.5310  140.9830 C   0  0  0  0  0  0  0  0  0  0  0  0
  180.0770  179.6900  141.0640 O   0  0  0  0  0  1  0  0  0  0  0  0
  179.7420  177.4740  140.5900 O   0  0  0  0  0  0  0  0  0  0  0  0
  199.1760  174.4070  136.5300 N   0  0  0  0  0  1  0  0  0  0  0  0
  198.7530  173.0880  136.0900 C   0  0  0  0  0  2  0  0  0  0  0  0
  187.9880  171.7400  136.6070 C   0  0  0  0  0  3  0  0  0  0  0  0
  188.6100  172.5550  135.7540 C   0  0  0  0  0  3  0  0  0  0  0  0
  186.7580  170.9950  136.1990 C   0  0  2  0  0  3  0  0  0  0  0  0
  186.7250  170.8420  134.6880 C   0  0  0  0  0  1  0  0  0  0  0  0
  185.5850  171.7320  136.6270 N   0  0  0  0  0  1  0  0  0  0  0  0
  186.9700  176.9290  134.8040 C   0  0  0  0  0  2  0  0  0  0  0  0
  185.1200  178.4190  135.1060 O   0  0  0  0  0  0  0  0  0  0  0  0
  185.5080  177.2210  135.0210 C   0  0  0  0  0  0  0  0  0  0  0  0
  184.5510  176.1060  135.2380 C   0  0  0  0  0  0  0  0  0  0  0  0
  182.5890  175.1390  136.3240 C   0  0  0  0  0  0  0  0  0  0  0  0
  183.9130  173.7910  134.8120 C   0  0  0  0  0  3  0  0  0  0  0  0
  182.8240  173.9230  135.6780 C   0  0  0  0  0  3  0  0  0  0  0  0
  183.4430  176.2310  136.1090 C   0  0  0  0  0  0  0  0  0  0  0  0
  181.5370  175.2520  137.1740 F   0  0  0  0  0  0  0  0  0  0  0  0
  183.1950  177.3940  136.7650 F   0  0  0  0  0  0  0  0  0  0  0  0
  184.7690  174.8750  134.5960 C   0  0  0  0  0  3  0  0  0  0  0  0
  1 27  1  0  0  0  0
  1 23  1  0  0  0  0
  2 26  1  0  0  0  0
  3 30  1  0  0  0  0
  4 16  3  0  0  0  0
  5  3  1  1  0  0  0
  5 32  1  0  0  0  0
  5 20  1  0  0  0  0
  6 27  1  0  0  0  0
  7 18  1  0  0  0  0
  8 13  2  0  0  0  0
  8 15  1  0  0  0  0
  9 11  1  0  0  0  0
 10 49  1  0  0  0  0
 10 19  2  0  0  0  0
 11 33  1  0  0  0  0
 12 19  1  0  0  0  0
 12 34  1  0  0  0  0
 13 10  1  0  0  0  0
 15 12  2  0  0  0  0
 16 31  1  0  0  0  0
 17 29  1  0  0  0  0
 18  1  2  0  0  0  0
 20 22  1  0  0  0  0
 20 24  2  0  0  0  0
 21 55  1  6  0  0  0
 21  9  1  0  0  0  0
 21  2  1  0  0  0  0
 22  7  2  0  0  0  0
 23  4  1  0  0  0  0
 24 34  1  0  0  0  0
 24 18  1  0  0  0  0
 25 28  1  6  0  0  0
 25 22  1  0  0  0  0
 28 21  1  0  0  0  0
 29 14  2  0  0  0  0
 30 51  1  6  0  0  0
 30 25  1  0  0  0  0
 31 14  1  0  0  0  0
 32 15  1  0  0  0  0
 33 26  1  6  0  0  0
 33 17  1  0  0  0  0
 34  6  2  0  0  0  0
 35 36  1  6  0  0  0
 35 37  1  0  0  0  0
 35 38  1  0  0  0  0
 36 37  1  0  0  0  0
 37 29  1  6  0  0  0
 38 39  1  1  0  0  0
 39 42  1  0  0  0  0
 40 42  1  0  0  0  0
 41 44  1  6  0  0  0
 41 38  1  0  0  0  0
 41 43  1  0  0  0  0
 43 40  1  0  0  0  0
 45 46  1  0  0  0  0
 45 44  1  0  0  0  0
 47 45  2  0  0  0  0
 49 48  1  0  0  0  0
 51 50  2  0  0  0  0
 52 53  1  6  0  0  0
 52 50  1  0  0  0  0
 52 54  1  0  0  0  0
 55 57  1  0  0  0  0
 57 56  2  0  0  0  0
 57 58  1  0  0  0  0
 58 62  1  0  0  0  0
 59 63  1  0  0  0  0
 60 61  2  0  0  0  0
 61 59  1  0  0  0  0
 62 59  2  0  0  0  0
 62 64  1  0  0  0  0
 65 60  1  0  0  0  0
 65 58  2  0  0  0  0
M  END
>  <MODEL>
1

>  <REMARK>
 VINA RESULT:      -4.9      0.000      0.000
  Name = 
  10 active torsions:
  status: ('A' for Active; 'I' for Inactive)
    1  A    between atoms: C_2  and  C_18
    2  A    between atoms: C_2  and  C_35
    3  A    between atoms: C_4  and  C_25
    4  A    between atoms: C_7  and  C_12
    5  A    between atoms: C_15  and  C_25
    6  A    between atoms: C_15  and  C_41
    7  A    between atoms: C_19  and  C_52
    8  A    between atoms: C_39  and  C_45
    9  A    between atoms: C_50  and  C_60
   10  A    between atoms: C_56  and  C_61
                            x       y       z     vdW  Elec       q    Type
                         _______ _______ _______ _____ _____    ______ ____

>  <TORSDO>
F 10

$$$$
=
 OpenBabel10222418333D

 65 74  0  0  1  0  0  0  0  0999 V2000
  184.9550  177.1040  135.7170 C   0  0  0  0  0  0  0  0  0  0  0  0
  189.9840  176.3510  140.1170 C   0  0  0  0  0  2  0  0  0  0  0  0
  185.7040  178.9100  141.3340 N   0  0  0  0  0  2  0  0  0  0  0  0
  186.4830  175.1850  135.4660 C   0  0  0  0  0  0  0  0  0  0  0  0
  184.8300  179.2040  140.1770 C   0  0  1  0  0  3  0  0  0  0  0  0
  182.9180  178.2610  136.1350 N   0  0  0  0  0  0  0  0  0  0  0  0
  186.5050  177.1300  137.6300 N   0  0  0  0  0  0  0  0  0  0  0  0
  181.2670  179.8680  140.4220 C   0  0  0  0  0  3  0  0  0  0  0  0
  189.9070  177.8730  138.0930 C   0  0  0  0  0  2  0  0  0  0  0  0
  180.1200  180.4500  138.3810 C   0  0  0  0  0  0  0  0  0  0  0  0
  189.1170  176.8730  137.5000 O   0  0  0  0  0  0  0  0  0  0  0  0
  182.3050  179.3630  138.2680 C   0  0  0  0  0  0  0  0  0  0  0  0
  180.1590  180.4090  139.7740 C   0  0  0  0  0  3  0  0  0  0  0  0
  188.9940  172.8330  136.4460 C   0  0  0  0  0  3  0  0  0  0  0  0
  182.3520  179.3630  139.6970 C   0  0  0  0  0  0  0  0  0  0  0  0
  187.0480  174.3310  136.1040 C   0  0  0  0  0  0  0  0  0  0  0  0
  190.2570  175.0180  136.5020 C   0  0  0  0  0  2  0  0  0  0  0  0
  185.4100  177.5320  136.9580 C   0  0  0  0  0  0  0  0  0  0  0  0
  181.1730  179.9110  137.6410 C   0  0  0  0  0  3  0  0  0  0  0  0
  185.2850  178.5430  138.9270 C   0  0  0  0  0  0  0  0  0  0  0  0
  189.8150  177.8020  139.6250 C   0  0  1  0  0  0  0  0  0  0  0  0
  186.4190  177.7610  138.8270 C   0  0  1  0  0  3  0  0  0  0  0  0
  185.7910  176.2800  134.7720 C   0  0  0  0  0  2  0  0  0  0  0  0
  184.5890  178.3750  137.7670 C   0  0  0  0  0  0  0  0  0  0  0  0
  187.2630  177.4450  140.0190 C   0  0  1  0  0  3  0  0  0  0  0  0
  190.5050  175.4290  139.0100 C   0  0  0  0  0  2  0  0  0  0  0  0
  183.7120  177.5250  135.3370 N   0  0  0  0  0  0  0  0  0  0  0  0
  188.4710  178.3920  140.0960 C   0  0  0  0  0  2  0  0  0  0  0  0
  190.1470  173.5250  136.3310 C   0  0  0  0  0  0  0  0  0  0  0  0
  186.3420  177.5800  141.2560 C   0  0  1  0  0  3  0  0  0  0  0  0
  187.6870  173.3450  136.9780 C   0  0  0  0  0  2  0  0  0  0  0  0
  183.4520  178.8480  140.4600 N   0  0  0  0  0  2  0  0  0  0  0  0
  189.6170  175.5710  137.7640 C   0  0  1  0  0  3  0  0  0  0  0  0
  183.2950  178.6870  137.3830 C   0  0  0  0  0  0  0  0  0  0  0  0
  192.6150  173.3190  136.3430 C   0  0  1  0  0  3  0  0  0  0  0  0
  192.1580  173.7520  135.0840 O   0  0  0  0  0  0  0  0  0  0  0  0
  191.3430  172.8240  135.7610 C   0  0  2  0  0  3  0  0  0  0  0  0
  193.7110  172.2710  136.1490 C   0  0  2  0  0  3  0  0  0  0  0  0
  193.1680  170.9730  136.2080 O   0  0  0  0  0  0  0  0  0  0  0  0
  195.3550  170.0260  136.4400 N   0  0  0  0  0  2  0  0  0  0  0  0
  194.9430  172.3980  137.0860 C   0  0  2  0  0  3  0  0  0  0  0  0
  194.1320  170.1350  135.6180 C   0  0  0  0  0  2  0  0  0  0  0  0
  195.3910  171.0050  137.5370 C   0  0  0  0  0  2  0  0  0  0  0  0
  194.7190  173.2580  138.3290 C   0  0  0  0  0  2  0  0  0  0  0  0
  195.5330  174.5050  138.2640 C   0  0  0  0  0  0  0  0  0  0  0  0
  195.9830  175.0110  139.3220 O   0  0  0  0  0  1  0  0  0  0  0  0
  195.8110  175.0990  137.0400 O   0  0  0  0  0  0  0  0  0  0  0  0
  179.0690  182.4510  137.5500 N   0  0  0  0  0  1  0  0  0  0  0  0
  178.9310  181.0090  137.6800 C   0  0  0  0  0  2  0  0  0  0  0  0
  186.4140  177.4310  143.7360 C   0  0  0  0  0  3  0  0  0  0  0  0
  186.9950  177.2080  142.5560 C   0  0  0  0  0  3  0  0  0  0  0  0
  187.0880  177.0380  145.0120 C   0  0  2  0  0  3  0  0  0  0  0  0
  187.0770  178.2060  145.9830 C   0  0  0  0  0  1  0  0  0  0  0  0
  188.4610  176.6640  144.7340 N   0  0  0  0  0  1  0  0  0  0  0  0
  190.8980  178.6870  140.2540 C   0  0  0  0  0  2  0  0  0  0  0  0
  192.8340  177.3430  140.6820 O   0  0  0  0  0  0  0  0  0  0  0  0
  191.8700  177.9930  141.1730 C   0  0  0  0  0  0  0  0  0  0  0  0
  191.6310  177.9870  142.6390 C   0  0  0  0  0  0  0  0  0  0  0  0
  191.5730  176.8550  144.8020 C   0  0  0  0  0  0  0  0  0  0  0  0
  190.8560  179.1600  144.6320 C   0  0  0  0  0  3  0  0  0  0  0  0
  191.0740  178.0140  145.4020 C   0  0  0  0  0  3  0  0  0  0  0  0
  191.8540  176.8340  143.4290 C   0  0  0  0  0  0  0  0  0  0  0  0
  191.7680  175.7440  145.5570 F   0  0  0  0  0  0  0  0  0  0  0  0
  192.3230  175.6860  142.8750 F   0  0  0  0  0  0  0  0  0  0  0  0
  191.1320  179.1440  143.2610 C   0  0  0  0  0  3  0  0  0  0  0  0
  1 18  1  0  0  0  0
  4 16  3  0  0  0  0
  5 20  1  6  0  0  0
  5 32  1  0  0  0  0
  5  3  1  0  0  0  0
  6 34  2  0  0  0  0
  9 21  1  0  0  0  0
 10 13  2  0  0  0  0
 11 33  1  0  0  0  0
 11  9  1  0  0  0  0
 12 15  1  0  0  0  0
 13  8  1  0  0  0  0
 14 31  1  0  0  0  0
 15  8  2  0  0  0  0
 15 32  1  0  0  0  0
 16 31  1  0  0  0  0
 18  7  2  0  0  0  0
 18 24  1  0  0  0  0
 19 12  2  0  0  0  0
 19 10  1  0  0  0  0
 21 28  1  0  0  0  0
 21  2  1  0  0  0  0
 21 55  1  1  0  0  0
 22  7  1  1  0  0  0
 22 20  1  0  0  0  0
 22 25  1  0  0  0  0
 23  4  1  0  0  0  0
 23  1  1  0  0  0  0
 24 20  2  0  0  0  0
 25 28  1  1  0  0  0
 25 30  1  0  0  0  0
 26  2  1  0  0  0  0
 27  1  2  0  0  0  0
 27  6  1  0  0  0  0
 29 14  2  0  0  0  0
 29 17  1  0  0  0  0
 30  3  1  0  0  0  0
 30 51  1  1  0  0  0
 33 17  1  6  0  0  0
 33 26  1  0  0  0  0
 34 24  1  0  0  0  0
 34 12  1  0  0  0  0
 35 36  1  6  0  0  0
 36 37  1  0  0  0  0
 37 29  1  1  0  0  0
 37 35  1  0  0  0  0
 38 39  1  1  0  0  0
 38 35  1  0  0  0  0
 38 41  1  0  0  0  0
 40 43  1  0  0  0  0
 41 43  1  0  0  0  0
 41 44  1  1  0  0  0
 42 39  1  0  0  0  0
 42 40  1  0  0  0  0
 45 44  1  0  0  0  0
 45 46  1  0  0  0  0
 47 45  2  0  0  0  0
 48 49  1  0  0  0  0
 49 10  1  0  0  0  0
 50 52  1  0  0  0  0
 51 50  2  0  0  0  0
 52 53  1  1  0  0  0
 54 52  1  0  0  0  0
 55 57  1  0  0  0  0
 56 57  2  0  0  0  0
 57 58  1  0  0  0  0
 58 65  2  0  0  0  0
 58 62  1  0  0  0  0
 59 61  1  0  0  0  0
 59 63  1  0  0  0  0
 60 61  2  0  0  0  0
 62 59  2  0  0  0  0
 64 62  1  0  0  0  0
 65 60  1  0  0  0  0
M  END
>  <MODEL>
2

>  <REMARK>
 VINA RESULT:      -3.0      4.034     11.778
  Name = 
  10 active torsions:
  status: ('A' for Active; 'I' for Inactive)
    1  A    between atoms: C_2  and  C_18
    2  A    between atoms: C_2  and  C_35
    3  A    between atoms: C_4  and  C_25
    4  A    between atoms: C_7  and  C_12
    5  A    between atoms: C_15  and  C_25
    6  A    between atoms: C_15  and  C_41
    7  A    between atoms: C_19  and  C_52
    8  A    between atoms: C_39  and  C_45
    9  A    between atoms: C_50  and  C_60
   10  A    between atoms: C_56  and  C_61
                            x       y       z     vdW  Elec       q    Type
                         _______ _______ _______ _____ _____    ______ ____

>  <TORSDO>
F 10

$$$$
=
 OpenBabel10222418333D

 65 74  0  0  1  0  0  0  0  0999 V2000
  191.0750  177.6310  139.7070 C   0  0  0  0  0  0  0  0  0  0  0  0
  185.0330  175.9260  137.2960 C   0  0  0  0  0  2  0  0  0  0  0  0
  189.3270  173.6400  135.6580 N   0  0  0  0  0  2  0  0  0  0  0  0
  189.0790  178.0260  141.1000 C   0  0  0  0  0  0  0  0  0  0  0  0
  190.5710  174.3130  136.0920 C   0  0  1  0  0  3  0  0  0  0  0  0
  193.1470  176.6640  139.0460 N   0  0  0  0  0  0  0  0  0  0  0  0
  189.1360  176.6970  138.5120 N   0  0  0  0  0  0  0  0  0  0  0  0
  193.8080  172.6820  136.3270 C   0  0  0  0  0  3  0  0  0  0  0  0
  186.3690  178.0200  136.7980 C   0  0  0  0  0  2  0  0  0  0  0  0
  195.6890  174.0650  136.9350 C   0  0  0  0  0  0  0  0  0  0  0  0
  186.8380  177.9110  138.1190 O   0  0  0  0  0  0  0  0  0  0  0  0
  193.4180  174.8550  137.3740 C   0  0  0  0  0  0  0  0  0  0  0  0
  195.1850  172.8810  136.3990 C   0  0  0  0  0  3  0  0  0  0  0  0
  185.6670  177.6960  142.1230 C   0  0  0  0  0  3  0  0  0  0  0  0
  192.9120  173.6550  136.7840 C   0  0  0  0  0  0  0  0  0  0  0  0
  188.0460  177.5100  141.4460 C   0  0  0  0  0  0  0  0  0  0  0  0
  185.4440  178.7870  139.8570 C   0  0  0  0  0  2  0  0  0  0  0  0
  190.4530  176.8860  138.7120 C   0  0  0  0  0  0  0  0  0  0  0  0
  194.8120  175.0280  137.4370 C   0  0  0  0  0  3  0  0  0  0  0  0
  190.3230  175.4120  137.0610 C   0  0  0  0  0  0  0  0  0  0  0  0
  185.9200  176.6510  136.2650 C   0  0  1  0  0  0  0  0  0  0  0  0
  189.0720  175.8010  137.4960 C   0  0  0  0  0  0  0  0  0  0  0  0
  190.3370  178.5960  140.5970 C   0  0  0  0  0  2  0  0  0  0  0  0
  191.2300  176.0480  137.8570 C   0  0  0  0  0  0  0  0  0  0  0  0
  187.8340  175.0770  137.0750 C   0  0  1  0  0  3  0  0  0  0  0  0
  184.5790  176.8630  138.4190 C   0  0  0  0  0  2  0  0  0  0  0  0
  192.4320  177.5090  139.8100 N   0  0  0  0  0  2  0  0  0  0  0  0
  187.1540  175.8010  135.9020 C   0  0  0  0  0  2  0  0  0  0  0  0
  184.9950  178.4930  141.2660 C   0  0  0  0  0  0  0  0  0  0  0  0
  188.2740  173.6420  136.6930 C   0  0  1  0  0  3  0  0  0  0  0  0
  186.8180  176.7900  141.7950 C   0  0  0  0  0  2  0  0  0  0  0  0
  191.5150  173.3610  136.6450 N   0  0  0  0  0  2  0  0  0  0  0  0
  185.8020  177.5670  139.0270 C   0  0  1  0  0  3  0  0  0  0  0  0
  192.5880  175.8780  138.0700 C   0  0  0  0  0  0  0  0  0  0  0  0
  182.5460  178.8490  141.3570 C   0  0  1  0  0  3  0  0  0  0  0  0
  183.1840  179.9390  140.7370 O   0  0  0  0  0  0  0  0  0  0  0  0
  183.8760  179.3320  141.8030 C   0  0  2  0  0  3  0  0  0  0  0  0
  181.4660  179.3680  142.3060 C   0  0  2  0  0  3  0  0  0  0  0  0
  181.3070  178.4950  143.3990 O   0  0  0  0  0  0  0  0  0  0  0  0
  179.2430  179.5510  143.9950 N   0  0  0  0  0  2  0  0  0  0  0  0
  180.0940  179.6960  141.6570 C   0  0  2  0  0  3  0  0  0  0  0  0
  180.6350  179.2420  144.3830 C   0  0  0  0  0  2  0  0  0  0  0  0
  178.9640  179.2400  142.5850 C   0  0  0  0  0  2  0  0  0  0  0  0
  179.8680  179.0700  140.2810 C   0  0  0  0  0  2  0  0  0  0  0  0
  179.9070  180.1100  139.2130 C   0  0  0  0  0  0  0  0  0  0  0  0
  179.4420  179.8520  138.0750 O   0  0  0  0  0  0  0  0  0  0  0  0
  180.4370  181.3670  139.4760 O   0  0  0  0  0  1  0  0  0  0  0  0
  197.5300  175.4900  136.3220 N   0  0  0  0  0  1  0  0  0  0  0  0
  197.1590  174.2780  137.0340 C   0  0  0  0  0  2  0  0  0  0  0  0
  186.0500  172.6030  137.0850 C   0  0  0  0  0  3  0  0  0  0  0  0
  187.1410  172.7260  136.3260 C   0  0  0  0  0  3  0  0  0  0  0  0
  184.9360  171.6900  136.6850 C   0  0  2  0  0  3  0  0  0  0  0  0
  185.4770  170.5650  135.8190 C   0  0  0  0  0  1  0  0  0  0  0  0
  183.9490  172.4380  135.9310 N   0  0  0  0  0  1  0  0  0  0  0  0
  185.1420  176.8300  134.9550 C   0  0  0  0  0  2  0  0  0  0  0  0
  183.8050  174.8770  134.5950 O   0  0  0  0  0  0  0  0  0  0  0  0
  183.8220  176.1100  134.8640 C   0  0  0  0  0  0  0  0  0  0  0  0
  182.5510  176.8690  134.9850 C   0  0  0  0  0  0  0  0  0  0  0  0
  180.1530  176.9870  135.4280 C   0  0  0  0  0  0  0  0  0  0  0  0
  181.3460  178.9730  134.7300 C   0  0  0  0  0  3  0  0  0  0  0  0
  180.1550  178.3470  135.1070 C   0  0  0  0  0  3  0  0  0  0  0  0
  181.3420  176.2450  135.3710 C   0  0  0  0  0  0  0  0  0  0  0  0
  178.9880  176.3860  135.7790 F   0  0  0  0  0  0  0  0  0  0  0  0
  181.3010  174.9210  135.6730 F   0  0  0  0  0  0  0  0  0  0  0  0
  182.5340  178.2380  134.6690 C   0  0  0  0  0  3  0  0  0  0  0  0
  1 27  1  0  0  0  0
  1 23  1  0  0  0  0
  2 26  1  0  0  0  0
  3 30  1  0  0  0  0
  4 16  3  0  0  0  0
  5  3  1  1  0  0  0
  5 32  1  0  0  0  0
  5 20  1  0  0  0  0
  6 27  1  0  0  0  0
  7 18  1  0  0  0  0
  8 13  2  0  0  0  0
  8 15  1  0  0  0  0
  9 11  1  0  0  0  0
 10 49  1  0  0  0  0
 10 19  2  0  0  0  0
 11 33  1  0  0  0  0
 12 19  1  0  0  0  0
 12 34  1  0  0  0  0
 13 10  1  0  0  0  0
 15 12  2  0  0  0  0
 16 31  1  0  0  0  0
 17 29  1  0  0  0  0
 18  1  2  0  0  0  0
 20 22  1  0  0  0  0
 20 24  2  0  0  0  0
 21 55  1  6  0  0  0
 21  9  1  0  0  0  0
 21  2  1  0  0  0  0
 22  7  2  0  0  0  0
 23  4  1  0  0  0  0
 24 34  1  0  0  0  0
 24 18  1  0  0  0  0
 25 28  1  6  0  0  0
 25 22  1  0  0  0  0
 28 21  1  0  0  0  0
 29 14  2  0  0  0  0
 30 51  1  6  0  0  0
 30 25  1  0  0  0  0
 31 14  1  0  0  0  0
 32 15  1  0  0  0  0
 33 26  1  6  0  0  0
 33 17  1  0  0  0  0
 34  6  2  0  0  0  0
 35 36  1  6  0  0  0
 35 37  1  0  0  0  0
 35 38  1  0  0  0  0
 36 37  1  0  0  0  0
 37 29  1  6  0  0  0
 38 39  1  1  0  0  0
 39 42  1  0  0  0  0
 40 42  1  0  0  0  0
 41 44  1  6  0  0  0
 41 38  1  0  0  0  0
 41 43  1  0  0  0  0
 43 40  1  0  0  0  0
 45 47  1  0  0  0  0
 45 44  1  0  0  0  0
 46 45  2  0  0  0  0
 48 49  1  0  0  0  0
 51 50  2  0  0  0  0
 52 53  1  6  0  0  0
 52 50  1  0  0  0  0
 54 52  1  0  0  0  0
 56 57  2  0  0  0  0
 57 55  1  0  0  0  0
 57 58  1  0  0  0  0
 58 62  1  0  0  0  0
 59 63  1  0  0  0  0
 60 61  2  0  0  0  0
 61 59  1  0  0  0  0
 62 59  2  0  0  0  0
 62 64  1  0  0  0  0
 65 60  1  0  0  0  0
 65 58  2  0  0  0  0
M  END
>  <MODEL>
3

>  <REMARK>
 VINA RESULT:      -2.6      1.871      2.518
  Name = 
  10 active torsions:
  status: ('A' for Active; 'I' for Inactive)
    1  A    between atoms: C_2  and  C_18
    2  A    between atoms: C_2  and  C_35
    3  A    between atoms: C_4  and  C_25
    4  A    between atoms: C_7  and  C_12
    5  A    between atoms: C_15  and  C_25
    6  A    between atoms: C_15  and  C_41
    7  A    between atoms: C_19  and  C_52
    8  A    between atoms: C_39  and  C_45
    9  A    between atoms: C_50  and  C_60
   10  A    between atoms: C_56  and  C_61
                            x       y       z     vdW  Elec       q    Type
                         _______ _______ _______ _____ _____    ______ ____

>  <TORSDO>
F 10

$$$$
