=
 OpenBabel10222417543D

 70 78  0  0  1  0  0  0  0  0999 V2000
  184.5100  175.9970  134.8750 C   0  0  0  0  0  2  0  0  0  0  0  0
  186.8430  179.0750  137.5440 C   0  0  0  0  0  2  0  0  0  0  0  0
  185.6080  176.3630  136.8810 C   0  0  1  0  0  3  0  0  0  0  0  0
  187.4320  178.2850  136.3860 C   0  0  0  0  0  2  0  0  0  0  0  0
  185.3990  177.0520  135.5070 C   0  0  1  0  0  3  0  0  0  0  0  0
  183.1690  176.5900  136.9960 C   0  0  0  0  0  0  0  0  0  0  0  0
  187.1040  178.3710  138.8700 C   0  0  2  0  0  3  0  0  0  0  0  0
  186.0510  178.7800  139.8920 C   0  0  0  0  0  2  0  0  0  0  0  0
  186.7820  176.9260  136.0770 C   0  0  2  0  0  0  0  0  0  0  0  0
  183.1110  176.1730  135.5140 C   0  0  1  0  0  3  0  0  0  0  0  0
  184.4140  177.0870  139.0740 C   0  0  0  0  0  2  0  0  0  0  0  0
  184.3620  176.8320  137.5960 C   0  0  0  0  0  0  0  0  0  0  0  0
  184.6280  178.5640  139.3680 C   0  0  1  0  0  3  0  0  0  0  0  0
  189.5530  174.7360  134.9330 N   0  0  0  0  0  2  0  0  0  0  0  0
  189.0150  175.9210  135.4920 C   0  0  0  0  0  3  0  0  0  0  0  0
  187.6920  175.9000  135.4620 C   0  0  0  0  0  0  0  0  0  0  0  0
  187.1830  174.6380  134.8500 C   0  0  0  0  0  2  0  0  0  0  0  0
  188.4600  173.8330  134.5940 C   0  0  2  0  0  3  0  0  0  0  0  0
  188.5130  172.5740  135.4670 C   0  0  0  0  0  3  0  0  0  0  0  0
  187.5790  170.2060  135.6450 C   0  0  0  0  0  2  0  0  0  0  0  0
  187.4650  171.4430  137.5110 C   0  0  0  0  0  2  0  0  0  0  0  0
  187.8360  172.7740  136.8400 C   0  0  0  0  0  2  0  0  0  0  0  0
  187.9700  171.3530  134.7030 C   0  0  0  0  0  2  0  0  0  0  0  0
  188.1540  170.3720  136.9180 O   0  0  0  0  0  0  0  0  0  0  0  0
  181.9900  176.7170  137.7440 O   0  0  0  0  0  0  0  0  0  0  0  0
  181.0960  175.6370  137.9680 C   0  0  0  0  0  1  0  0  0  0  0  0
  188.4980  178.6980  139.3820 C   0  0  0  0  0  2  0  0  0  0  0  0
  189.3070  177.4150  139.5440 C   0  0  0  0  0  2  0  0  0  0  0  0
  190.3390  177.9780  137.4490 F   0  0  0  0  0  0  0  0  0  0  0  0
  190.5830  177.4290  138.6990 C   0  0  2  0  0  3  0  0  0  0  0  0
  191.1970  176.0200  138.5800 C   0  0  1  0  0  3  0  0  0  0  0  0
  190.3110  175.0530  137.7880 C   0  0  0  0  0  1  0  0  0  0  0  0
  192.5390  176.0330  138.1170 O   0  0  0  0  0  0  0  0  0  0  0  0
  192.9810  174.7020  138.0010 C   0  0  0  0  0  2  0  0  0  0  0  0
  195.2600  172.2810  135.1760 C   0  0  0  0  0  2  0  0  0  0  0  0
  193.4470  172.5760  135.0860 S   0  0  0  0  0  0  0  0  0  0  0  0
  194.1070  174.5940  136.9910 C   0  0  1  0  0  3  0  0  0  0  0  0
  196.0130  173.1390  136.2060 C   0  0  0  0  0  2  0  0  0  0  0  0
  196.0520  174.0870  138.4900 C   0  0  0  0  0  1  0  0  0  0  0  0
  195.1450  173.5370  137.4030 C   0  0  1  0  0  3  0  0  0  0  0  0
  193.1250  175.1780  134.9280 O   0  0  0  0  0  0  0  0  0  0  0  0
  193.5200  174.2770  135.6480 C   0  0  0  0  0  0  0  0  0  0  0  0
  182.3260  177.2090  134.7170 C   0  0  0  0  0  2  0  0  0  0  0  0
  180.9060  177.3380  135.2480 C   0  0  0  0  0  2  0  0  0  0  0  0
  179.6210  179.4350  135.0130 C   0  0  1  0  0  3  0  0  0  0  0  0
  179.7910  180.8680  135.1690 N   0  0  0  0  0  1  0  0  0  0  0  0
  180.6730  178.7190  135.8370 C   0  0  1  0  0  3  0  0  0  0  0  0
  179.2500  178.8180  136.3430 C   0  0  0  0  0  2  0  0  0  0  0  0
  183.5580  179.0850  140.3360 C   0  0  1  0  0  3  0  0  0  0  0  0
  181.1480  178.5470  139.7660 F   0  0  0  0  0  0  0  0  0  0  0  0
  180.5550  181.0940  138.9400 C   0  0  0  0  0  1  0  0  0  0  0  0
  182.0260  180.7920  139.1550 C   0  0  1  0  0  3  0  0  0  0  0  0
  182.2370  179.3980  139.6220 C   0  0  1  0  0  0  0  0  0  0  0  0
  182.4320  179.7640  138.2780 O   0  0  0  0  0  0  0  0  0  0  0  0
  183.3400  178.0460  141.4350 C   0  0  0  0  0  2  0  0  0  0  0  0
  186.3050  177.8520  144.9930 C   0  0  0  0  0  0  0  0  0  0  0  0
  184.1970  178.8330  145.0000 N   0  0  0  0  0  0  0  0  0  0  0  0
  183.2810  178.6670  142.7490 N   0  0  0  0  0  2  0  0  0  0  0  0
  185.8070  177.7420  143.3870 S   0  0  0  0  0  0  0  0  0  0  0  0
  185.3010  178.4890  145.7200 C   0  0  0  0  0  0  0  0  0  0  0  0
  184.3270  178.4830  143.7040 C   0  0  0  0  0  0  0  0  0  0  0  0
  185.3840  178.7530  147.1820 C   0  0  0  0  0  1  0  0  0  0  0  0
  187.6080  177.3480  145.5340 C   0  0  2  0  0  3  0  0  0  0  0  0
  188.7800  177.9380  147.5250 O   0  0  0  0  0  1  0  0  0  0  0  0
  188.3270  178.4400  146.3030 C   0  0  0  0  0  2  0  0  0  0  0  0
  188.4510  176.8780  144.4480 N   0  0  0  0  0  2  0  0  0  0  0  0
  189.5490  177.8170  144.3240 C   0  0  0  0  0  2  0  0  0  0  0  0
  190.8620  177.0900  144.5660 C   0  0  0  0  0  2  0  0  0  0  0  0
  190.4540  176.2800  142.3570 O   0  0  0  0  0  1  0  0  0  0  0  0
  191.0220  175.9420  143.5860 C   0  0  0  0  0  2  0  0  0  0  0  0
  1 10  1  0  0  0  0
  2  7  1  0  0  0  0
  3 12  1  1  0  0  0
  4  2  1  0  0  0  0
  5  1  1  6  0  0  0
  5  9  1  0  0  0  0
  5  3  1  0  0  0  0
  6 12  2  0  0  0  0
  6 25  1  0  0  0  0
  7 27  1  1  0  0  0
  7  8  1  0  0  0  0
  9 16  1  6  0  0  0
  9  4  1  0  0  0  0
  9  3  1  0  0  0  0
 10 43  1  6  0  0  0
 10  6  1  0  0  0  0
 11 13  1  0  0  0  0
 12 11  1  0  0  0  0
 13  8  1  0  0  0  0
 13 49  1  1  0  0  0
 14 15  1  0  0  0  0
 16 15  2  0  0  0  0
 17 16  1  0  0  0  0
 18 17  1  0  0  0  0
 18 14  1  0  0  0  0
 18 19  1  1  0  0  0
 19 22  1  0  0  0  0
 20 24  1  0  0  0  0
 22 21  1  0  0  0  0
 23 19  1  0  0  0  0
 23 20  1  0  0  0  0
 24 21  1  0  0  0  0
 25 26  1  0  0  0  0
 27 28  1  0  0  0  0
 30 29  1  6  0  0  0
 30 28  1  0  0  0  0
 31 32  1  6  0  0  0
 31 30  1  0  0  0  0
 33 31  1  0  0  0  0
 34 33  1  0  0  0  0
 35 38  1  0  0  0  0
 36 35  1  0  0  0  0
 36 42  1  0  0  0  0
 37 40  1  0  0  0  0
 37 34  1  1  0  0  0
 38 40  1  0  0  0  0
 40 39  1  1  0  0  0
 41 42  2  0  0  0  0
 42 37  1  0  0  0  0
 43 44  1  0  0  0  0
 45 46  1  1  0  0  0
 45 47  1  0  0  0  0
 45 48  1  0  0  0  0
 47 44  1  6  0  0  0
 47 48  1  0  0  0  0
 49 55  1  1  0  0  0
 52 51  1  6  0  0  0
 52 53  1  0  0  0  0
 53 50  1  1  0  0  0
 53 49  1  0  0  0  0
 54 52  1  0  0  0  0
 54 53  1  0  0  0  0
 55 58  1  0  0  0  0
 56 63  1  0  0  0  0
 56 60  2  0  0  0  0
 57 60  1  0  0  0  0
 58 61  1  0  0  0  0
 59 61  1  0  0  0  0
 59 56  1  0  0  0  0
 60 62  1  0  0  0  0
 61 57  2  0  0  0  0
 63 65  1  6  0  0  0
 65 64  1  0  0  0  0
 66 63  1  0  0  0  0
 67 66  1  0  0  0  0
 67 68  1  0  0  0  0
 69 70  1  0  0  0  0
 70 68  1  0  0  0  0
M  END
>  <MODEL>
1

>  <REMARK>
 VINA RESULT:      -4.8      0.000      0.000
  Name = 
  23 active torsions:
  status: ('A' for Active; 'I' for Inactive)
    1  A    between atoms: C_1  and  C_60
    2  A    between atoms: C_1  and  C_62
    3  A    between atoms: C_2  and  C_8
    4  A    between atoms: C_2  and  C_66
    5  A    between atoms: C_2  and  C_68
    6  A    between atoms: C_7  and  C_43
    7  A    between atoms: C_7  and  C_48
    8  A    between atoms: C_8  and  N_35
    9  A    between atoms: C_9  and  C_47
   10  A    between atoms: C_14  and  C_49
   11  A    between atoms: C_14  and  C_51
   12  A    between atoms: C_17  and  CA_40
   13  A    between atoms: C_20  and  O_36
   14  A    between atoms: C_21  and  CA_40
   15  A    between atoms: C_25  and  O_38
   16  A    between atoms: C_25  and  C_48
   17  A    between atoms: C_27  and  C_33
   18  A    between atoms: C_29  and  C_56
   19  A    between atoms: C_30  and  C_43
   20  A    between atoms: O_38  and  C_56
   21  A    between atoms: C_39  and  C_51
   22  A    between atoms: CA_40  and  N_42
   23  A    between atoms: N_42  and  C_60
                            x       y       z     vdW  Elec       q    Type
                         _______ _______ _______ _____ _____    ______ ____

>  <TORSDO>
F 23

$$$$
=
 OpenBabel10222417543D

 70 78  0  0  1  0  0  0  0  0999 V2000
  187.1020  178.5770  142.5310 C   0  0  0  0  0  2  0  0  0  0  0  0
  189.5640  175.6870  139.7690 C   0  0  0  0  0  2  0  0  0  0  0  0
  188.6200  178.4050  140.7900 C   0  0  1  0  0  3  0  0  0  0  0  0
  189.9400  176.0890  141.1860 C   0  0  0  0  0  2  0  0  0  0  0  0
  187.9570  177.5110  141.8710 C   0  0  1  0  0  3  0  0  0  0  0  0
  186.2900  178.7130  140.0870 C   0  0  0  0  0  0  0  0  0  0  0  0
  190.2660  176.5750  138.7480 C   0  0  2  0  0  3  0  0  0  0  0  0
  189.4690  176.6070  137.4510 C   0  0  0  0  0  2  0  0  0  0  0  0
  189.4430  177.4620  141.6690 C   0  0  2  0  0  0  0  0  0  0  0  0
  185.9090  178.8260  141.5760 C   0  0  1  0  0  3  0  0  0  0  0  0
  187.9480  178.4000  138.2780 C   0  0  0  0  0  2  0  0  0  0  0  0
  187.5490  178.3560  139.7240 C   0  0  0  0  0  0  0  0  0  0  0  0
  188.0070  177.0010  137.6850 C   0  0  1  0  0  3  0  0  0  0  0  0
  191.0780  179.6570  144.1770 N   0  0  0  0  0  2  0  0  0  0  0  0
  190.2010  179.3920  143.0980 C   0  0  0  0  0  3  0  0  0  0  0  0
  190.3040  178.1330  142.7030 C   0  0  0  0  0  0  0  0  0  0  0  0
  191.3100  177.3890  143.5150 C   0  0  0  0  0  2  0  0  0  0  0  0
  191.7420  178.4180  144.5640 C   0  0  2  0  0  3  0  0  0  0  0  0
  191.3130  177.9950  145.9740 C   0  0  0  0  0  3  0  0  0  0  0  0
  191.2240  175.9750  147.5310 C   0  0  0  0  0  2  0  0  0  0  0  0
  189.3270  177.1550  147.3530 C   0  0  0  0  0  2  0  0  0  0  0  0
  189.7800  178.0030  146.1550 C   0  0  0  0  0  2  0  0  0  0  0  0
  191.9560  176.6530  146.3630 C   0  0  0  0  0  2  0  0  0  0  0  0
  190.4020  176.8890  148.2160 O   0  0  0  0  0  0  0  0  0  0  0  0
  185.3430  178.9850  139.0890 O   0  0  0  0  0  0  0  0  0  0  0  0
  184.2570  179.8790  139.2780 C   0  0  0  0  0  1  0  0  0  0  0  0
  191.6800  176.0780  138.4930 C   0  0  0  0  0  2  0  0  0  0  0  0
  192.1810  176.5990  137.1500 C   0  0  0  0  0  2  0  0  0  0  0  0
  194.2030  176.9770  135.9090 F   0  0  0  0  0  0  0  0  0  0  0  0
  193.6150  176.1540  136.8580 C   0  0  2  0  0  3  0  0  0  0  0  0
  193.6710  174.6750  136.4250 C   0  0  1  0  0  3  0  0  0  0  0  0
  193.8690  174.5070  134.9150 C   0  0  0  0  0  1  0  0  0  0  0  0
  194.5910  173.9050  137.1840 O   0  0  0  0  0  0  0  0  0  0  0  0
  195.5860  173.4200  136.3160 C   0  0  0  0  0  2  0  0  0  0  0  0
  198.2670  170.0060  135.8790 C   0  0  0  0  0  2  0  0  0  0  0  0
  198.6800  171.7360  135.4090 S   0  0  0  0  0  0  0  0  0  0  0  0
  196.3390  172.2660  136.9500 C   0  0  1  0  0  3  0  0  0  0  0  0
  196.9610  169.8370  136.6730 C   0  0  0  0  0  2  0  0  0  0  0  0
  194.5850  170.4750  136.9250 C   0  0  0  0  0  1  0  0  0  0  0  0
  195.9210  170.9130  136.3510 C   0  0  1  0  0  3  0  0  0  0  0  0
  198.4170  173.1800  137.5880 O   0  0  0  0  0  0  0  0  0  0  0  0
  197.8100  172.4990  136.7780 C   0  0  0  0  0  0  0  0  0  0  0  0
  184.7970  177.8340  141.8990 C   0  0  0  0  0  2  0  0  0  0  0  0
  183.5950  178.5470  142.5020 C   0  0  0  0  0  2  0  0  0  0  0  0
  184.1230  179.3800  144.7670 C   0  0  1  0  0  3  0  0  0  0  0  0
  184.5360  178.8840  146.0670 N   0  0  0  0  0  1  0  0  0  0  0  0
  183.4800  178.2490  143.9880 C   0  0  1  0  0  3  0  0  0  0  0  0
  182.6180  179.3030  144.6470 C   0  0  0  0  0  2  0  0  0  0  0  0
  187.1630  176.9170  136.4060 C   0  0  1  0  0  3  0  0  0  0  0  0
  188.8470  176.3630  134.5950 F   0  0  0  0  0  0  0  0  0  0  0  0
  188.4990  173.6510  134.8090 C   0  0  0  0  0  1  0  0  0  0  0  0
  187.4800  174.5100  135.5350 C   0  0  1  0  0  3  0  0  0  0  0  0
  187.7710  175.9580  135.3750 C   0  0  1  0  0  0  0  0  0  0  0  0
  186.7870  175.3120  134.6040 O   0  0  0  0  0  0  0  0  0  0  0  0
  185.7480  176.4770  136.7790 C   0  0  0  0  0  2  0  0  0  0  0  0
  181.1760  176.6620  137.5220 C   0  0  0  0  0  0  0  0  0  0  0  0
  182.4020  178.0250  136.0920 N   0  0  0  0  0  0  0  0  0  0  0  0
  184.7550  177.4370  136.3220 N   0  0  0  0  0  2  0  0  0  0  0  0
  182.7740  176.2170  137.8170 S   0  0  0  0  0  0  0  0  0  0  0  0
  181.1730  177.6720  136.5610 C   0  0  0  0  0  0  0  0  0  0  0  0
  183.3790  177.3090  136.6860 C   0  0  0  0  0  0  0  0  0  0  0  0
  179.9340  178.3090  136.0390 C   0  0  0  0  0  1  0  0  0  0  0  0
  179.9730  176.0670  138.1860 C   0  0  2  0  0  3  0  0  0  0  0  0
  179.9060  176.3010  140.5590 O   0  0  0  0  0  1  0  0  0  0  0  0
  179.5340  176.9190  139.3630 C   0  0  0  0  0  2  0  0  0  0  0  0
  180.2690  174.7190  138.6420 N   0  0  0  0  0  2  0  0  0  0  0  0
  180.8480  174.0070  137.5190 C   0  0  0  0  0  2  0  0  0  0  0  0
  180.2270  172.6230  137.4280 C   0  0  0  0  0  2  0  0  0  0  0  0
  182.3490  172.3220  136.3740 O   0  0  0  0  0  1  0  0  0  0  0  0
  181.1570  171.6720  136.6940 C   0  0  0  0  0  2  0  0  0  0  0  0
  2  4  1  0  0  0  0
  3 12  1  6  0  0  0
  3  9  1  0  0  0  0
  3  5  1  0  0  0  0
  4  9  1  0  0  0  0
  5  1  1  1  0  0  0
  6 10  1  0  0  0  0
  7 27  1  6  0  0  0
  7  2  1  0  0  0  0
  8 13  1  0  0  0  0
  8  7  1  0  0  0  0
  9  5  1  0  0  0  0
  9 16  1  1  0  0  0
 10 43  1  1  0  0  0
 10  1  1  0  0  0  0
 11 12  1  0  0  0  0
 12  6  2  0  0  0  0
 13 49  1  6  0  0  0
 13 11  1  0  0  0  0
 14 18  1  0  0  0  0
 15 14  1  0  0  0  0
 16 15  2  0  0  0  0
 16 17  1  0  0  0  0
 17 18  1  0  0  0  0
 18 19  1  1  0  0  0
 19 22  1  0  0  0  0
 19 23  1  0  0  0  0
 20 24  1  0  0  0  0
 21 24  1  0  0  0  0
 22 21  1  0  0  0  0
 23 20  1  0  0  0  0
 25 26  1  0  0  0  0
 25  6  1  0  0  0  0
 28 27  1  0  0  0  0
 30 29  1  6  0  0  0
 30 28  1  0  0  0  0
 31 32  1  6  0  0  0
 31 30  1  0  0  0  0
 31 33  1  0  0  0  0
 34 33  1  0  0  0  0
 35 38  1  0  0  0  0
 36 35  1  0  0  0  0
 36 42  1  0  0  0  0
 37 34  1  6  0  0  0
 40 38  1  0  0  0  0
 40 39  1  1  0  0  0
 40 37  1  0  0  0  0
 42 37  1  0  0  0  0
 42 41  2  0  0  0  0
 43 44  1  0  0  0  0
 45 46  1  1  0  0  0
 47 44  1  6  0  0  0
 47 48  1  0  0  0  0
 47 45  1  0  0  0  0
 48 45  1  0  0  0  0
 49 55  1  1  0  0  0
 52 51  1  6  0  0  0
 53 50  1  6  0  0  0
 53 52  1  0  0  0  0
 53 49  1  0  0  0  0
 54 53  1  0  0  0  0
 54 52  1  0  0  0  0
 56 59  1  0  0  0  0
 56 63  1  0  0  0  0
 57 60  1  0  0  0  0
 57 61  2  0  0  0  0
 58 61  1  0  0  0  0
 58 55  1  0  0  0  0
 60 56  2  0  0  0  0
 61 59  1  0  0  0  0
 62 60  1  0  0  0  0
 63 66  1  0  0  0  0
 63 65  1  1  0  0  0
 65 64  1  0  0  0  0
 67 66  1  0  0  0  0
 68 67  1  0  0  0  0
 69 70  1  0  0  0  0
 70 68  1  0  0  0  0
M  END
>  <MODEL>
2

>  <REMARK>
 VINA RESULT:      -4.7      2.744      8.284
  Name = 
  23 active torsions:
  status: ('A' for Active; 'I' for Inactive)
    1  A    between atoms: C_1  and  C_60
    2  A    between atoms: C_1  and  C_62
    3  A    between atoms: C_2  and  C_8
    4  A    between atoms: C_2  and  C_66
    5  A    between atoms: C_2  and  C_68
    6  A    between atoms: C_7  and  C_43
    7  A    between atoms: C_7  and  C_48
    8  A    between atoms: C_8  and  N_35
    9  A    between atoms: C_9  and  C_47
   10  A    between atoms: C_14  and  C_49
   11  A    between atoms: C_14  and  C_51
   12  A    between atoms: C_17  and  CA_40
   13  A    between atoms: C_20  and  O_36
   14  A    between atoms: C_21  and  CA_40
   15  A    between atoms: C_25  and  O_38
   16  A    between atoms: C_25  and  C_48
   17  A    between atoms: C_27  and  C_33
   18  A    between atoms: C_29  and  C_56
   19  A    between atoms: C_30  and  C_43
   20  A    between atoms: O_38  and  C_56
   21  A    between atoms: C_39  and  C_51
   22  A    between atoms: CA_40  and  N_42
   23  A    between atoms: N_42  and  C_60
                            x       y       z     vdW  Elec       q    Type
                         _______ _______ _______ _____ _____    ______ ____

>  <TORSDO>
F 23

$$$$
=
 OpenBabel10222417543D

 70 78  0  0  1  0  0  0  0  0999 V2000
  191.6040  176.4680  139.7400 C   0  0  0  0  0  2  0  0  0  0  0  0
  188.1630  174.7850  137.0260 C   0  0  0  0  0  2  0  0  0  0  0  0
  190.3200  176.7870  137.8390 C   0  0  1  0  0  3  0  0  0  0  0  0
  189.6110  174.3240  137.0030 C   0  0  0  0  0  2  0  0  0  0  0  0
  190.6220  175.6840  138.8880 C   0  0  1  0  0  3  0  0  0  0  0  0
  189.5270  177.9940  139.8220 C   0  0  0  0  0  0  0  0  0  0  0  0
  187.9130  175.8430  135.9570 C   0  0  2  0  0  3  0  0  0  0  0  0
  186.7290  176.7140  136.3540 C   0  0  0  0  0  2  0  0  0  0  0  0
  190.6710  175.3570  137.4250 C   0  0  2  0  0  0  0  0  0  0  0  0
  190.7550  177.4540  140.5800 C   0  0  1  0  0  3  0  0  0  0  0  0
  188.1340  178.1930  137.7880 C   0  0  0  0  0  2  0  0  0  0  0  0
  189.2390  177.5490  138.5720 C   0  0  0  0  0  0  0  0  0  0  0  0
  186.8980  177.3070  137.7570 C   0  0  1  0  0  3  0  0  0  0  0  0
  194.1020  175.6340  136.0350 N   0  0  0  0  0  2  0  0  0  0  0  0
  192.8640  176.1560  136.4800 C   0  0  0  0  0  3  0  0  0  0  0  0
  192.0270  175.1820  136.7990 C   0  0  0  0  0  0  0  0  0  0  0  0
  192.6470  173.8420  136.5890 C   0  0  0  0  0  2  0  0  0  0  0  0
  194.0790  174.1820  136.1670 C   0  0  2  0  0  3  0  0  0  0  0  0
  195.0970  173.7220  137.2180 C   0  0  0  0  0  3  0  0  0  0  0  0
  196.2580  174.4740  139.3620 C   0  0  0  0  0  2  0  0  0  0  0  0
  197.5960  173.6460  137.7660 C   0  0  0  0  0  2  0  0  0  0  0  0
  196.5330  173.6370  136.6580 C   0  0  0  0  0  2  0  0  0  0  0  0
  194.9990  174.5810  138.4900 C   0  0  0  0  0  2  0  0  0  0  0  0
  197.0250  173.3470  139.0130 O   0  0  0  0  0  0  0  0  0  0  0  0
  188.6960  178.9560  140.4120 O   0  0  0  0  0  0  0  0  0  0  0  0
  188.7850  179.3190  141.7820 C   0  0  0  0  0  1  0  0  0  0  0  0
  187.6640  175.1890  134.6080 C   0  0  0  0  0  2  0  0  0  0  0  0
  187.1600  173.7630  134.8050 C   0  0  0  0  0  2  0  0  0  0  0  0
  185.0040  174.7890  135.0630 F   0  0  0  0  0  0  0  0  0  0  0  0
  185.6480  173.6530  134.5980 C   0  0  2  0  0  3  0  0  0  0  0  0
  185.0790  172.3800  135.2570 C   0  0  1  0  0  3  0  0  0  0  0  0
  185.5460  172.2030  136.7050 C   0  0  0  0  0  1  0  0  0  0  0  0
  183.6710  172.2630  135.1200 O   0  0  0  0  0  0  0  0  0  0  0  0
  183.1090  172.1440  136.4050 C   0  0  0  0  0  2  0  0  0  0  0  0
  179.0760  172.1570  134.7410 C   0  0  0  0  0  2  0  0  0  0  0  0
  179.9220  170.6810  135.4390 S   0  0  0  0  0  0  0  0  0  0  0  0
  181.6920  172.6860  136.4270 C   0  0  1  0  0  3  0  0  0  0  0  0
  179.7930  173.4960  134.9770 C   0  0  0  0  0  2  0  0  0  0  0  0
  181.9370  174.7300  134.9950 C   0  0  0  0  0  1  0  0  0  0  0  0
  181.3130  173.3480  135.0930 C   0  0  1  0  0  3  0  0  0  0  0  0
  180.5320  171.2800  137.9230 O   0  0  0  0  0  0  0  0  0  0  0  0
  180.7540  171.5660  136.7580 C   0  0  0  0  0  0  0  0  0  0  0  0
  190.3060  176.7600  141.8610 C   0  0  0  0  0  2  0  0  0  0  0  0
  191.3110  176.9890  142.9810 C   0  0  0  0  0  2  0  0  0  0  0  0
  191.5790  177.2930  145.4180 C   0  0  1  0  0  3  0  0  0  0  0  0
  191.3210  176.5910  146.6620 N   0  0  0  0  0  1  0  0  0  0  0  0
  190.6760  176.7310  144.3370 C   0  0  1  0  0  3  0  0  0  0  0  0
  190.3410  178.0520  144.9950 C   0  0  0  0  0  2  0  0  0  0  0  0
  185.6590  178.0860  138.2200 C   0  0  1  0  0  3  0  0  0  0  0  0
  183.7220  176.5170  138.6800 F   0  0  0  0  0  0  0  0  0  0  0  0
  182.1370  177.5560  136.6970 C   0  0  0  0  0  1  0  0  0  0  0  0
  183.5910  177.9920  136.6830 C   0  0  1  0  0  3  0  0  0  0  0  0
  184.3540  177.3930  137.8060 C   0  0  1  0  0  0  0  0  0  0  0  0
  184.4220  176.8660  136.5040 O   0  0  0  0  0  0  0  0  0  0  0  0
  185.7210  178.2500  139.7380 C   0  0  0  0  0  2  0  0  0  0  0  0
  184.3810  178.7580  144.1470 C   0  0  0  0  0  0  0  0  0  0  0  0
  182.9940  178.4710  142.3040 N   0  0  0  0  0  0  0  0  0  0  0  0
  184.3920  178.4090  140.3090 N   0  0  0  0  0  2  0  0  0  0  0  0
  185.4410  178.8010  142.8380 S   0  0  0  0  0  0  0  0  0  0  0  0
  183.0880  178.5850  143.6570 C   0  0  0  0  0  0  0  0  0  0  0  0
  184.2050  178.5660  141.7170 C   0  0  0  0  0  0  0  0  0  0  0  0
  181.8840  178.4890  144.5270 C   0  0  0  0  0  1  0  0  0  0  0  0
  184.7750  178.8870  145.5860 C   0  0  2  0  0  3  0  0  0  0  0  0
  185.0170  181.2390  145.2740 O   0  0  0  0  0  1  0  0  0  0  0  0
  185.6500  180.1080  145.7950 C   0  0  0  0  0  2  0  0  0  0  0  0
  185.4860  177.6950  146.0180 N   0  0  0  0  0  2  0  0  0  0  0  0
  186.8190  178.1130  146.4090 C   0  0  0  0  0  2  0  0  0  0  0  0
  187.6360  176.8920  146.7950 C   0  0  0  0  0  2  0  0  0  0  0  0
  188.1940  178.4480  148.5190 O   0  0  0  0  0  1  0  0  0  0  0  0
  188.3250  177.1140  148.1310 C   0  0  0  0  0  2  0  0  0  0  0  0
  1 10  1  0  0  0  0
  3 12  1  1  0  0  0
  3  5  1  0  0  0  0
  4  2  1  0  0  0  0
  4  9  1  0  0  0  0
  5  1  1  6  0  0  0
  6 25  1  0  0  0  0
  6 10  1  0  0  0  0
  7 27  1  6  0  0  0
  7  8  1  0  0  0  0
  7  2  1  0  0  0  0
  8 13  1  0  0  0  0
  9 16  1  6  0  0  0
  9  3  1  0  0  0  0
  9  5  1  0  0  0  0
 10 43  1  1  0  0  0
 11 12  1  0  0  0  0
 12  6  2  0  0  0  0
 13 11  1  0  0  0  0
 13 49  1  6  0  0  0
 14 18  1  0  0  0  0
 14 15  1  0  0  0  0
 15 16  2  0  0  0  0
 17 16  1  0  0  0  0
 18 17  1  0  0  0  0
 18 19  1  1  0  0  0
 19 23  1  0  0  0  0
 21 24  1  0  0  0  0
 22 19  1  0  0  0  0
 22 21  1  0  0  0  0
 23 20  1  0  0  0  0
 24 20  1  0  0  0  0
 25 26  1  0  0  0  0
 27 28  1  0  0  0  0
 30 28  1  0  0  0  0
 30 29  1  1  0  0  0
 30 31  1  0  0  0  0
 31 32  1  1  0  0  0
 33 31  1  0  0  0  0
 33 34  1  0  0  0  0
 35 38  1  0  0  0  0
 35 36  1  0  0  0  0
 36 42  1  0  0  0  0
 37 34  1  6  0  0  0
 37 42  1  0  0  0  0
 38 40  1  0  0  0  0
 40 39  1  1  0  0  0
 40 37  1  0  0  0  0
 42 41  2  0  0  0  0
 43 44  1  0  0  0  0
 45 46  1  1  0  0  0
 47 44  1  6  0  0  0
 47 48  1  0  0  0  0
 47 45  1  0  0  0  0
 48 45  1  0  0  0  0
 49 55  1  1  0  0  0
 52 51  1  1  0  0  0
 52 53  1  0  0  0  0
 53 49  1  0  0  0  0
 53 50  1  1  0  0  0
 54 52  1  0  0  0  0
 54 53  1  0  0  0  0
 55 58  1  0  0  0  0
 56 63  1  0  0  0  0
 57 60  1  0  0  0  0
 58 61  1  0  0  0  0
 59 56  1  0  0  0  0
 60 56  2  0  0  0  0
 60 62  1  0  0  0  0
 61 57  2  0  0  0  0
 61 59  1  0  0  0  0
 63 65  1  6  0  0  0
 63 66  1  0  0  0  0
 64 65  1  0  0  0  0
 66 67  1  0  0  0  0
 67 68  1  0  0  0  0
 68 70  1  0  0  0  0
 70 69  1  0  0  0  0
M  END
>  <MODEL>
3

>  <REMARK>
 VINA RESULT:      -4.3      2.980      8.300
  Name = 
  23 active torsions:
  status: ('A' for Active; 'I' for Inactive)
    1  A    between atoms: C_1  and  C_60
    2  A    between atoms: C_1  and  C_62
    3  A    between atoms: C_2  and  C_8
    4  A    between atoms: C_2  and  C_66
    5  A    between atoms: C_2  and  C_68
    6  A    between atoms: C_7  and  C_43
    7  A    between atoms: C_7  and  C_48
    8  A    between atoms: C_8  and  N_35
    9  A    between atoms: C_9  and  C_47
   10  A    between atoms: C_14  and  C_49
   11  A    between atoms: C_14  and  C_51
   12  A    between atoms: C_17  and  CA_40
   13  A    between atoms: C_20  and  O_36
   14  A    between atoms: C_21  and  CA_40
   15  A    between atoms: C_25  and  O_38
   16  A    between atoms: C_25  and  C_48
   17  A    between atoms: C_27  and  C_33
   18  A    between atoms: C_29  and  C_56
   19  A    between atoms: C_30  and  C_43
   20  A    between atoms: O_38  and  C_56
   21  A    between atoms: C_39  and  C_51
   22  A    between atoms: CA_40  and  N_42
   23  A    between atoms: N_42  and  C_60
                            x       y       z     vdW  Elec       q    Type
                         _______ _______ _______ _____ _____    ______ ____

>  <TORSDO>
F 23

$$$$
=
 OpenBabel10222417543D

 70 78  0  0  1  0  0  0  0  0999 V2000
  192.1290  176.9620  139.3830 C   0  0  0  0  0  2  0  0  0  0  0  0
  189.2720  174.0000  137.1230 C   0  0  0  0  0  2  0  0  0  0  0  0
  191.1600  176.3880  137.3590 C   0  0  1  0  0  3  0  0  0  0  0  0
  190.7270  173.7290  137.4740 C   0  0  0  0  0  2  0  0  0  0  0  0
  191.3420  175.8080  138.7870 C   0  0  1  0  0  3  0  0  0  0  0  0
  189.9910  178.1620  138.5840 C   0  0  0  0  0  0  0  0  0  0  0  0
  189.1480  174.5360  135.7020 C   0  0  2  0  0  3  0  0  0  0  0  0
  187.8710  175.3550  135.5650 C   0  0  0  0  0  2  0  0  0  0  0  0
  191.6480  174.9560  137.5900 C   0  0  2  0  0  0  0  0  0  0  0  0
  191.1040  178.0920  139.6470 C   0  0  1  0  0  3  0  0  0  0  0  0
  188.9420  177.4150  136.4730 C   0  0  0  0  0  2  0  0  0  0  0  0
  189.9360  177.2450  137.5840 C   0  0  0  0  0  0  0  0  0  0  0  0
  187.7760  176.4510  136.6310 C   0  0  1  0  0  3  0  0  0  0  0  0
  195.3470  174.6860  137.4270 N   0  0  0  0  0  2  0  0  0  0  0  0
  194.1310  175.2330  137.9040 C   0  0  0  0  0  3  0  0  0  0  0  0
  193.0950  174.7090  137.2680 C   0  0  0  0  0  0  0  0  0  0  0  0
  193.5320  173.7100  136.2500 C   0  0  0  0  0  2  0  0  0  0  0  0
  195.0490  173.6460  136.4510 C   0  0  2  0  0  3  0  0  0  0  0  0
  195.4870  172.2740  136.9760 C   0  0  0  0  0  3  0  0  0  0  0  0
  197.5600  170.8520  137.4130 C   0  0  0  0  0  2  0  0  0  0  0  0
  195.9050  169.8450  136.2860 C   0  0  0  0  0  2  0  0  0  0  0  0
  195.0890  171.1210  136.0310 C   0  0  0  0  0  2  0  0  0  0  0  0
  196.9850  172.2720  137.3260 C   0  0  0  0  0  2  0  0  0  0  0  0
  196.5370  169.8940  137.5390 O   0  0  0  0  0  0  0  0  0  0  0  0
  189.0250  179.1770  138.6330 O   0  0  0  0  0  0  0  0  0  0  0  0
  188.8270  180.1060  137.5780 C   0  0  0  0  0  1  0  0  0  0  0  0
  189.1570  173.3940  134.6990 C   0  0  0  0  0  2  0  0  0  0  0  0
  188.4130  172.1910  135.2700 C   0  0  0  0  0  2  0  0  0  0  0  0
  186.8450  172.7800  136.9910 F   0  0  0  0  0  0  0  0  0  0  0  0
  186.9660  172.5290  135.6320 C   0  0  2  0  0  3  0  0  0  0  0  0
  185.9960  171.4180  135.1820 C   0  0  1  0  0  3  0  0  0  0  0  0
  186.7120  170.1050  134.8500 C   0  0  0  0  0  1  0  0  0  0  0  0
  184.9060  171.2340  136.0710 O   0  0  0  0  0  0  0  0  0  0  0  0
  183.9420  172.2230  135.8020 C   0  0  0  0  0  2  0  0  0  0  0  0
  179.5790  172.1470  135.7930 C   0  0  0  0  0  2  0  0  0  0  0  0
  180.6500  171.2470  134.5990 S   0  0  0  0  0  0  0  0  0  0  0  0
  182.6420  171.9210  136.5250 C   0  0  1  0  0  3  0  0  0  0  0  0
  180.3150  172.7800  136.9850 C   0  0  0  0  0  2  0  0  0  0  0  0
  182.2760  174.0660  137.7720 C   0  0  0  0  0  1  0  0  0  0  0  0
  181.7590  173.1720  136.6580 C   0  0  1  0  0  3  0  0  0  0  0  0
  182.1840  169.6630  136.0260 O   0  0  0  0  0  0  0  0  0  0  0  0
  181.9240  170.8310  135.7890 C   0  0  0  0  0  0  0  0  0  0  0  0
  190.4870  177.8920  141.0270 C   0  0  0  0  0  2  0  0  0  0  0  0
  191.5650  177.8510  142.1010 C   0  0  0  0  0  2  0  0  0  0  0  0
  190.8040  177.1690  144.3500 C   0  0  1  0  0  3  0  0  0  0  0  0
  191.1310  176.2150  145.3940 N   0  0  0  0  0  1  0  0  0  0  0  0
  191.3570  176.6670  143.0300 C   0  0  1  0  0  3  0  0  0  0  0  0
  189.8830  176.5230  143.3390 C   0  0  0  0  0  2  0  0  0  0  0  0
  186.4400  177.2040  136.5830 C   0  0  1  0  0  3  0  0  0  0  0  0
  184.9180  175.1830  136.7350 F   0  0  0  0  0  0  0  0  0  0  0  0
  183.0550  176.1920  134.9930 C   0  0  0  0  0  1  0  0  0  0  0  0
  184.3750  176.9390  135.0600 C   0  0  1  0  0  3  0  0  0  0  0  0
  185.3020  176.3270  136.0460 C   0  0  1  0  0  0  0  0  0  0  0  0
  185.4250  176.0820  134.6660 O   0  0  0  0  0  0  0  0  0  0  0  0
  186.1100  177.7100  137.9870 C   0  0  0  0  0  2  0  0  0  0  0  0
  183.3760  178.6530  141.6100 C   0  0  0  0  0  0  0  0  0  0  0  0
  182.8070  178.8330  139.3630 N   0  0  0  0  0  0  0  0  0  0  0  0
  184.7820  178.3020  138.0390 N   0  0  0  0  0  2  0  0  0  0  0  0
  184.8220  178.3360  140.8040 S   0  0  0  0  0  0  0  0  0  0  0  0
  182.3930  178.9160  140.6580 C   0  0  0  0  0  0  0  0  0  0  0  0
  184.1170  178.5190  139.2850 C   0  0  0  0  0  0  0  0  0  0  0  0
  180.9790  179.2280  140.9990 C   0  0  0  0  0  1  0  0  0  0  0  0
  183.1940  178.6510  143.0960 C   0  0  2  0  0  3  0  0  0  0  0  0
  181.2740  178.6960  144.5120 O   0  0  0  0  0  1  0  0  0  0  0  0
  181.9210  179.3820  143.4810 C   0  0  0  0  0  2  0  0  0  0  0  0
  184.3330  179.2810  143.7410 N   0  0  0  0  0  2  0  0  0  0  0  0
  184.4640  178.6820  145.0550 C   0  0  0  0  0  2  0  0  0  0  0  0
  185.5750  179.3830  145.8190 C   0  0  0  0  0  2  0  0  0  0  0  0
  186.2530  177.3650  146.9010 O   0  0  0  0  0  1  0  0  0  0  0  0
  186.7120  178.4180  146.1090 C   0  0  0  0  0  2  0  0  0  0  0  0
  1 10  1  0  0  0  0
  2  4  1  0  0  0  0
  3 12  1  6  0  0  0
  3  9  1  0  0  0  0
  3  5  1  0  0  0  0
  4  9  1  0  0  0  0
  5  1  1  1  0  0  0
  6 25  1  0  0  0  0
  6 10  1  0  0  0  0
  7 27  1  6  0  0  0
  7  2  1  0  0  0  0
  8  7  1  0  0  0  0
  8 13  1  0  0  0  0
  9 16  1  6  0  0  0
  9  5  1  0  0  0  0
 10 43  1  1  0  0  0
 11 13  1  0  0  0  0
 11 12  1  0  0  0  0
 12  6  2  0  0  0  0
 13 49  1  6  0  0  0
 14 15  1  0  0  0  0
 16 15  2  0  0  0  0
 17 18  1  0  0  0  0
 17 16  1  0  0  0  0
 18 19  1  1  0  0  0
 18 14  1  0  0  0  0
 19 23  1  0  0  0  0
 20 24  1  0  0  0  0
 21 24  1  0  0  0  0
 22 21  1  0  0  0  0
 22 19  1  0  0  0  0
 23 20  1  0  0  0  0
 26 25  1  0  0  0  0
 27 28  1  0  0  0  0
 28 30  1  0  0  0  0
 30 29  1  1  0  0  0
 31 32  1  1  0  0  0
 31 30  1  0  0  0  0
 31 33  1  0  0  0  0
 34 33  1  0  0  0  0
 35 38  1  0  0  0  0
 36 42  1  0  0  0  0
 36 35  1  0  0  0  0
 37 34  1  6  0  0  0
 37 40  1  0  0  0  0
 40 38  1  0  0  0  0
 40 39  1  1  0  0  0
 42 41  2  0  0  0  0
 42 37  1  0  0  0  0
 43 44  1  0  0  0  0
 45 46  1  1  0  0  0
 47 44  1  6  0  0  0
 47 48  1  0  0  0  0
 47 45  1  0  0  0  0
 48 45  1  0  0  0  0
 49 55  1  1  0  0  0
 52 51  1  1  0  0  0
 52 53  1  0  0  0  0
 53 49  1  0  0  0  0
 53 50  1  1  0  0  0
 54 52  1  0  0  0  0
 54 53  1  0  0  0  0
 55 58  1  0  0  0  0
 56 63  1  0  0  0  0
 57 60  1  0  0  0  0
 58 61  1  0  0  0  0
 59 56  1  0  0  0  0
 60 62  1  0  0  0  0
 60 56  2  0  0  0  0
 61 57  2  0  0  0  0
 61 59  1  0  0  0  0
 63 65  1  6  0  0  0
 63 66  1  0  0  0  0
 65 64  1  0  0  0  0
 66 67  1  0  0  0  0
 67 68  1  0  0  0  0
 68 70  1  0  0  0  0
 70 69  1  0  0  0  0
M  END
>  <MODEL>
4

>  <REMARK>
 VINA RESULT:      -4.3      3.169      8.491
  Name = 
  23 active torsions:
  status: ('A' for Active; 'I' for Inactive)
    1  A    between atoms: C_1  and  C_60
    2  A    between atoms: C_1  and  C_62
    3  A    between atoms: C_2  and  C_8
    4  A    between atoms: C_2  and  C_66
    5  A    between atoms: C_2  and  C_68
    6  A    between atoms: C_7  and  C_43
    7  A    between atoms: C_7  and  C_48
    8  A    between atoms: C_8  and  N_35
    9  A    between atoms: C_9  and  C_47
   10  A    between atoms: C_14  and  C_49
   11  A    between atoms: C_14  and  C_51
   12  A    between atoms: C_17  and  CA_40
   13  A    between atoms: C_20  and  O_36
   14  A    between atoms: C_21  and  CA_40
   15  A    between atoms: C_25  and  O_38
   16  A    between atoms: C_25  and  C_48
   17  A    between atoms: C_27  and  C_33
   18  A    between atoms: C_29  and  C_56
   19  A    between atoms: C_30  and  C_43
   20  A    between atoms: O_38  and  C_56
   21  A    between atoms: C_39  and  C_51
   22  A    between atoms: CA_40  and  N_42
   23  A    between atoms: N_42  and  C_60
                            x       y       z     vdW  Elec       q    Type
                         _______ _______ _______ _____ _____    ______ ____

>  <TORSDO>
F 23

$$$$
=
 OpenBabel10222417543D

 70 78  0  0  1  0  0  0  0  0999 V2000
  184.3540  178.3520  144.1960 C   0  0  0  0  0  2  0  0  0  0  0  0
  186.5420  179.4690  140.1960 C   0  0  0  0  0  2  0  0  0  0  0  0
  185.3490  177.5620  142.2600 C   0  0  1  0  0  3  0  0  0  0  0  0
  185.0390  179.5100  140.4220 C   0  0  0  0  0  2  0  0  0  0  0  0
  184.8640  178.9010  142.8760 C   0  0  1  0  0  3  0  0  0  0  0  0
  186.8100  177.5650  144.2300 C   0  0  0  0  0  0  0  0  0  0  0  0
  186.9610  178.1490  139.5610 C   0  0  2  0  0  3  0  0  0  0  0  0
  188.4170  177.8510  139.8920 C   0  0  0  0  0  2  0  0  0  0  0  0
  184.4740  178.5390  141.4730 C   0  0  2  0  0  0  0  0  0  0  0  0
  185.6090  178.0640  145.0570 C   0  0  1  0  0  3  0  0  0  0  0  0
  187.8440  176.8480  142.1010 C   0  0  0  0  0  2  0  0  0  0  0  0
  186.7260  177.4790  142.8780 C   0  0  0  0  0  0  0  0  0  0  0  0
  188.6850  177.9030  141.3990 C   0  0  1  0  0  3  0  0  0  0  0  0
  180.8000  178.0690  141.2150 N   0  0  0  0  0  2  0  0  0  0  0  0
  181.9730  178.6640  141.7390 C   0  0  0  0  0  3  0  0  0  0  0  0
  183.0570  178.0920  141.2420 C   0  0  0  0  0  0  0  0  0  0  0  0
  182.7060  177.0010  140.2870 C   0  0  0  0  0  2  0  0  0  0  0  0
  181.1780  177.0760  140.2170 C   0  0  2  0  0  3  0  0  0  0  0  0
  180.7020  177.5060  138.8240 C   0  0  0  0  0  3  0  0  0  0  0  0
  179.9840  176.5670  136.5620 C   0  0  0  0  0  2  0  0  0  0  0  0
  181.5120  178.2050  136.4990 C   0  0  0  0  0  2  0  0  0  0  0  0
  181.8110  178.2010  138.0060 C   0  0  0  0  0  2  0  0  0  0  0  0
  180.0550  176.3270  138.0770 C   0  0  0  0  0  2  0  0  0  0  0  0
  180.1580  177.9290  136.2540 O   0  0  0  0  0  0  0  0  0  0  0  0
  188.0000  177.1850  144.8660 O   0  0  0  0  0  0  0  0  0  0  0  0
  189.0050  178.1160  145.2430 C   0  0  0  0  0  1  0  0  0  0  0  0
  186.7550  178.1930  138.0550 C   0  0  0  0  0  2  0  0  0  0  0  0
  185.7560  177.1200  137.6340 C   0  0  0  0  0  2  0  0  0  0  0  0
  184.5400  176.8670  135.5780 F   0  0  0  0  0  0  0  0  0  0  0  0
  185.8120  176.8400  136.1310 C   0  0  2  0  0  3  0  0  0  0  0  0
  186.5230  175.5060  135.8300 C   0  0  1  0  0  3  0  0  0  0  0  0
  187.0910  174.8400  137.0880 C   0  0  0  0  0  1  0  0  0  0  0  0
  185.7380  174.6170  135.0510 O   0  0  0  0  0  0  0  0  0  0  0  0
  185.3290  173.5510  135.8710 C   0  0  0  0  0  2  0  0  0  0  0  0
  181.5630  171.4050  136.3740 C   0  0  0  0  0  2  0  0  0  0  0  0
  181.8730  173.1310  136.9280 S   0  0  0  0  0  0  0  0  0  0  0  0
  184.1580  172.8100  135.2520 C   0  0  1  0  0  3  0  0  0  0  0  0
  182.6620  170.7930  135.4900 C   0  0  0  0  0  2  0  0  0  0  0  0
  185.0850  170.4850  135.1010 C   0  0  0  0  0  1  0  0  0  0  0  0
  184.0510  171.3690  135.7770 C   0  0  1  0  0  3  0  0  0  0  0  0
  182.5650  174.4840  134.7850 O   0  0  0  0  0  0  0  0  0  0  0  0
  182.9020  173.5790  135.5290 C   0  0  0  0  0  0  0  0  0  0  0  0
  185.9950  179.3300  145.8130 C   0  0  0  0  0  2  0  0  0  0  0  0
  186.2020  179.0350  147.2920 C   0  0  0  0  0  2  0  0  0  0  0  0
  187.8190  178.3470  149.0290 C   0  0  1  0  0  3  0  0  0  0  0  0
  189.2500  178.3280  149.2720 N   0  0  0  0  0  1  0  0  0  0  0  0
  187.5730  178.4260  147.5340 C   0  0  1  0  0  3  0  0  0  0  0  0
  187.4160  177.1080  148.2610 C   0  0  0  0  0  2  0  0  0  0  0  0
  190.1710  177.7270  141.7390 C   0  0  1  0  0  3  0  0  0  0  0  0
  189.7260  175.3280  142.4250 F   0  0  0  0  0  0  0  0  0  0  0  0
  192.0370  175.0960  143.8850 C   0  0  0  0  0  1  0  0  0  0  0  0
  191.6660  176.5010  143.4460 C   0  0  1  0  0  3  0  0  0  0  0  0
  190.4160  176.5140  142.6460 C   0  0  1  0  0  0  0  0  0  0  0  0
  190.4240  176.8610  144.0090 O   0  0  0  0  0  0  0  0  0  0  0  0
  190.9610  177.5920  140.4390 C   0  0  0  0  0  2  0  0  0  0  0  0
  194.2030  175.1700  138.1770 C   0  0  0  0  0  0  0  0  0  0  0  0
  194.4750  176.3040  140.1880 N   0  0  0  0  0  0  0  0  0  0  0  0
  192.3860  177.4530  140.6950 N   0  0  0  0  0  2  0  0  0  0  0  0
  192.7360  175.9720  138.3850 S   0  0  0  0  0  0  0  0  0  0  0  0
  195.0300  175.4830  139.2540 C   0  0  0  0  0  0  0  0  0  0  0  0
  193.2160  176.6540  139.8490 C   0  0  0  0  0  0  0  0  0  0  0  0
  196.4080  174.9460  139.4180 C   0  0  0  0  0  1  0  0  0  0  0  0
  194.5470  174.2760  137.0250 C   0  0  2  0  0  3  0  0  0  0  0  0
  196.3580  175.2490  135.8170 O   0  0  0  0  0  1  0  0  0  0  0  0
  194.9700  175.0940  135.8200 C   0  0  0  0  0  2  0  0  0  0  0  0
  193.4040  173.4470  136.6780 N   0  0  0  0  0  2  0  0  0  0  0  0
  193.8720  172.4540  135.7300 C   0  0  0  0  0  2  0  0  0  0  0  0
  193.8700  171.0860  136.3930 C   0  0  0  0  0  2  0  0  0  0  0  0
  195.3240  171.0440  138.2880 O   0  0  0  0  0  1  0  0  0  0  0  0
  195.2530  170.7530  136.9250 C   0  0  0  0  0  2  0  0  0  0  0  0
  1 10  1  0  0  0  0
  2  4  1  0  0  0  0
  3  5  1  0  0  0  0
  3 12  1  6  0  0  0
  4  9  1  0  0  0  0
  5  1  1  1  0  0  0
  6 25  1  0  0  0  0
  6 10  1  0  0  0  0
  7 27  1  6  0  0  0
  7  8  1  0  0  0  0
  7  2  1  0  0  0  0
  8 13  1  0  0  0  0
  9 16  1  6  0  0  0
  9  3  1  0  0  0  0
  9  5  1  0  0  0  0
 10 43  1  6  0  0  0
 11 12  1  0  0  0  0
 12  6  2  0  0  0  0
 13 49  1  6  0  0  0
 13 11  1  0  0  0  0
 14 15  1  0  0  0  0
 16 15  2  0  0  0  0
 17 16  1  0  0  0  0
 18 19  1  6  0  0  0
 18 17  1  0  0  0  0
 18 14  1  0  0  0  0
 20 23  1  0  0  0  0
 21 22  1  0  0  0  0
 22 19  1  0  0  0  0
 23 19  1  0  0  0  0
 24 21  1  0  0  0  0
 24 20  1  0  0  0  0
 25 26  1  0  0  0  0
 28 27  1  0  0  0  0
 30 29  1  1  0  0  0
 30 28  1  0  0  0  0
 31 30  1  0  0  0  0
 31 32  1  1  0  0  0
 33 31  1  0  0  0  0
 33 34  1  0  0  0  0
 35 36  1  0  0  0  0
 37 42  1  0  0  0  0
 37 40  1  0  0  0  0
 37 34  1  1  0  0  0
 38 40  1  0  0  0  0
 38 35  1  0  0  0  0
 40 39  1  6  0  0  0
 41 42  2  0  0  0  0
 42 36  1  0  0  0  0
 43 44  1  0  0  0  0
 45 46  1  6  0  0  0
 47 44  1  1  0  0  0
 47 48  1  0  0  0  0
 47 45  1  0  0  0  0
 48 45  1  0  0  0  0
 49 55  1  6  0  0  0
 49 53  1  0  0  0  0
 52 51  1  1  0  0  0
 52 54  1  0  0  0  0
 53 50  1  6  0  0  0
 53 52  1  0  0  0  0
 53 54  1  0  0  0  0
 55 58  1  0  0  0  0
 56 59  1  0  0  0  0
 56 60  2  0  0  0  0
 59 61  1  0  0  0  0
 60 62  1  0  0  0  0
 60 57  1  0  0  0  0
 61 57  2  0  0  0  0
 61 58  1  0  0  0  0
 63 65  1  6  0  0  0
 63 56  1  0  0  0  0
 64 65  1  0  0  0  0
 66 63  1  0  0  0  0
 67 68  1  0  0  0  0
 67 66  1  0  0  0  0
 68 70  1  0  0  0  0
 70 69  1  0  0  0  0
M  END
>  <MODEL>
5

>  <REMARK>
 VINA RESULT:      -4.1      2.978      9.926
  Name = 
  23 active torsions:
  status: ('A' for Active; 'I' for Inactive)
    1  A    between atoms: C_1  and  C_60
    2  A    between atoms: C_1  and  C_62
    3  A    between atoms: C_2  and  C_8
    4  A    between atoms: C_2  and  C_66
    5  A    between atoms: C_2  and  C_68
    6  A    between atoms: C_7  and  C_43
    7  A    between atoms: C_7  and  C_48
    8  A    between atoms: C_8  and  N_35
    9  A    between atoms: C_9  and  C_47
   10  A    between atoms: C_14  and  C_49
   11  A    between atoms: C_14  and  C_51
   12  A    between atoms: C_17  and  CA_40
   13  A    between atoms: C_20  and  O_36
   14  A    between atoms: C_21  and  CA_40
   15  A    between atoms: C_25  and  O_38
   16  A    between atoms: C_25  and  C_48
   17  A    between atoms: C_27  and  C_33
   18  A    between atoms: C_29  and  C_56
   19  A    between atoms: C_30  and  C_43
   20  A    between atoms: O_38  and  C_56
   21  A    between atoms: C_39  and  C_51
   22  A    between atoms: CA_40  and  N_42
   23  A    between atoms: N_42  and  C_60
                            x       y       z     vdW  Elec       q    Type
                         _______ _______ _______ _____ _____    ______ ____

>  <TORSDO>
F 23

$$$$
=
 OpenBabel10222417543D

 70 78  0  0  1  0  0  0  0  0999 V2000
  182.3430  178.2450  137.5080 C   0  0  0  0  0  2  0  0  0  0  0  0
  187.0360  178.3050  137.5870 C   0  0  0  0  0  2  0  0  0  0  0  0
  184.2710  177.1810  138.2260 C   0  0  1  0  0  3  0  0  0  0  0  0
  186.1790  177.8150  136.4310 C   0  0  0  0  0  2  0  0  0  0  0  0
  183.8400  178.3210  137.2660 C   0  0  1  0  0  3  0  0  0  0  0  0
  183.2260  178.6410  139.8980 C   0  0  0  0  0  0  0  0  0  0  0  0
  187.4580  177.1430  138.4790 C   0  0  2  0  0  3  0  0  0  0  0  0
  187.7540  177.6480  139.8850 C   0  0  0  0  0  2  0  0  0  0  0  0
  184.7890  177.2610  136.7890 C   0  0  2  0  0  0  0  0  0  0  0  0
  182.0950  178.9050  138.8860 C   0  0  1  0  0  3  0  0  0  0  0  0
  185.3550  177.5690  140.5580 C   0  0  0  0  0  2  0  0  0  0  0  0
  184.3340  177.9510  139.5260 C   0  0  0  0  0  0  0  0  0  0  0  0
  186.5870  178.4560  140.4630 C   0  0  1  0  0  3  0  0  0  0  0  0
  184.0890  174.3500  134.5940 N   0  0  0  0  0  2  0  0  0  0  0  0
  184.9360  175.2170  135.3260 C   0  0  0  0  0  3  0  0  0  0  0  0
  184.2480  176.2190  135.8510 C   0  0  0  0  0  0  0  0  0  0  0  0
  182.8000  176.1220  135.5070 C   0  0  0  0  0  2  0  0  0  0  0  0
  182.7100  174.7990  134.7410 C   0  0  2  0  0  3  0  0  0  0  0  0
  181.8860  173.7610  135.5130 C   0  0  0  0  0  3  0  0  0  0  0  0
  182.0700  171.4820  136.6460 C   0  0  0  0  0  2  0  0  0  0  0  0
  180.3490  171.7340  135.2330 C   0  0  0  0  0  2  0  0  0  0  0  0
  180.8340  173.0600  134.6280 C   0  0  0  0  0  2  0  0  0  0  0  0
  182.8040  172.7720  136.2520 C   0  0  0  0  0  2  0  0  0  0  0  0
  180.6750  171.6540  136.5960 O   0  0  0  0  0  0  0  0  0  0  0  0
  183.1210  179.1040  141.2170 O   0  0  0  0  0  0  0  0  0  0  0  0
  181.9820  178.8680  142.0310 C   0  0  0  0  0  1  0  0  0  0  0  0
  188.6750  176.4400  137.8990 C   0  0  0  0  0  2  0  0  0  0  0  0
  189.9520  177.1020  138.4070 C   0  0  0  0  0  2  0  0  0  0  0  0
  192.2730  177.0880  137.7890 F   0  0  0  0  0  0  0  0  0  0  0  0
  191.1960  176.2690  138.0940 C   0  0  2  0  0  3  0  0  0  0  0  0
  190.9280  175.2550  136.9630 C   0  0  1  0  0  3  0  0  0  0  0  0
  191.2230  175.8270  135.5730 C   0  0  0  0  0  1  0  0  0  0  0  0
  191.5520  173.9990  137.1790 O   0  0  0  0  0  0  0  0  0  0  0  0
  192.6320  173.8810  136.2850 C   0  0  0  0  0  2  0  0  0  0  0  0
  196.9650  173.3670  136.3530 C   0  0  0  0  0  2  0  0  0  0  0  0
  196.0980  174.9830  136.2010 S   0  0  0  0  0  0  0  0  0  0  0  0
  193.8750  173.3870  137.0020 C   0  0  1  0  0  3  0  0  0  0  0  0
  196.0630  172.1690  136.6920 C   0  0  0  0  0  2  0  0  0  0  0  0
  193.9300  170.9890  136.2710 C   0  0  0  0  0  1  0  0  0  0  0  0
  194.6310  172.3340  136.1760 C   0  0  1  0  0  3  0  0  0  0  0  0
  194.5720  175.2090  138.3270 O   0  0  0  0  0  0  0  0  0  0  0  0
  194.7530  174.5620  137.3090 C   0  0  0  0  0  0  0  0  0  0  0  0
  181.9160  180.4070  138.6940 C   0  0  0  0  0  2  0  0  0  0  0  0
  181.0930  180.6990  137.4470 C   0  0  0  0  0  2  0  0  0  0  0  0
  180.0670  182.6150  136.2720 C   0  0  1  0  0  3  0  0  0  0  0  0
  179.8180  184.0320  136.4610 N   0  0  0  0  0  1  0  0  0  0  0  0
  180.2700  181.9630  137.6260 C   0  0  1  0  0  3  0  0  0  0  0  0
  178.9500  181.8130  136.9010 C   0  0  0  0  0  2  0  0  0  0  0  0
  186.9170  179.0750  141.8270 C   0  0  1  0  0  3  0  0  0  0  0  0
  186.8310  176.9560  143.2150 F   0  0  0  0  0  0  0  0  0  0  0  0
  185.6060  178.1570  145.3550 C   0  0  0  0  0  1  0  0  0  0  0  0
  185.6570  178.9720  144.0750 C   0  0  1  0  0  3  0  0  0  0  0  0
  186.3580  178.2420  142.9890 C   0  0  1  0  0  0  0  0  0  0  0  0
  184.9550  178.2960  143.0550 O   0  0  0  0  0  0  0  0  0  0  0  0
  188.4330  179.2160  141.9500 C   0  0  0  0  0  2  0  0  0  0  0  0
  191.0340  177.0380  145.1090 C   0  0  0  0  0  0  0  0  0  0  0  0
  190.6640  176.3600  142.9170 N   0  0  0  0  0  0  0  0  0  0  0  0
  189.0930  177.9200  141.8990 N   0  0  0  0  0  2  0  0  0  0  0  0
  189.8930  178.1370  144.5380 S   0  0  0  0  0  0  0  0  0  0  0  0
  191.3230  176.1350  144.0870 C   0  0  0  0  0  0  0  0  0  0  0  0
  189.8460  177.4280  143.0100 C   0  0  0  0  0  0  0  0  0  0  0  0
  192.3010  175.0220  144.2230 C   0  0  0  0  0  1  0  0  0  0  0  0
  191.6280  177.0400  146.4840 C   0  0  2  0  0  3  0  0  0  0  0  0
  192.6610  175.4380  147.9180 O   0  0  0  0  0  1  0  0  0  0  0  0
  191.5460  175.6590  147.1060 C   0  0  0  0  0  2  0  0  0  0  0  0
  190.9340  177.9990  147.3270 N   0  0  0  0  0  2  0  0  0  0  0  0
  189.5150  177.8380  147.0760 C   0  0  0  0  0  2  0  0  0  0  0  0
  188.9120  176.9480  148.1500 C   0  0  0  0  0  2  0  0  0  0  0  0
  187.1340  178.5180  148.4220 O   0  0  0  0  0  1  0  0  0  0  0  0
  187.4120  177.1630  148.2380 C   0  0  0  0  0  2  0  0  0  0  0  0
  1 10  1  0  0  0  0
  2  7  1  0  0  0  0
  3 12  1  1  0  0  0
  4  9  1  0  0  0  0
  4  2  1  0  0  0  0
  5  1  1  6  0  0  0
  5  3  1  0  0  0  0
  6 25  1  0  0  0  0
  7 27  1  6  0  0  0
  7  8  1  0  0  0  0
  8 13  1  0  0  0  0
  9 16  1  6  0  0  0
  9  5  1  0  0  0  0
  9  3  1  0  0  0  0
 10 43  1  6  0  0  0
 10  6  1  0  0  0  0
 12  6  2  0  0  0  0
 12 11  1  0  0  0  0
 13 11  1  0  0  0  0
 13 49  1  1  0  0  0
 14 18  1  0  0  0  0
 14 15  1  0  0  0  0
 15 16  2  0  0  0  0
 17 16  1  0  0  0  0
 18 17  1  0  0  0  0
 18 19  1  1  0  0  0
 19 23  1  0  0  0  0
 21 24  1  0  0  0  0
 22 21  1  0  0  0  0
 22 19  1  0  0  0  0
 23 20  1  0  0  0  0
 24 20  1  0  0  0  0
 25 26  1  0  0  0  0
 27 28  1  0  0  0  0
 30 29  1  6  0  0  0
 30 28  1  0  0  0  0
 31 32  1  6  0  0  0
 31 33  1  0  0  0  0
 31 30  1  0  0  0  0
 34 33  1  0  0  0  0
 35 38  1  0  0  0  0
 36 35  1  0  0  0  0
 36 42  1  0  0  0  0
 37 34  1  6  0  0  0
 37 42  1  0  0  0  0
 40 39  1  1  0  0  0
 40 38  1  0  0  0  0
 40 37  1  0  0  0  0
 42 41  2  0  0  0  0
 44 43  1  0  0  0  0
 45 46  1  1  0  0  0
 45 48  1  0  0  0  0
 45 47  1  0  0  0  0
 47 44  1  6  0  0  0
 48 47  1  0  0  0  0
 49 55  1  1  0  0  0
 49 53  1  0  0  0  0
 52 51  1  1  0  0  0
 53 54  1  0  0  0  0
 53 50  1  1  0  0  0
 53 52  1  0  0  0  0
 54 52  1  0  0  0  0
 56 63  1  0  0  0  0
 57 61  2  0  0  0  0
 57 60  1  0  0  0  0
 58 55  1  0  0  0  0
 58 61  1  0  0  0  0
 59 56  1  0  0  0  0
 60 62  1  0  0  0  0
 60 56  2  0  0  0  0
 61 59  1  0  0  0  0
 63 65  1  1  0  0  0
 63 66  1  0  0  0  0
 65 64  1  0  0  0  0
 67 66  1  0  0  0  0
 67 68  1  0  0  0  0
 68 70  1  0  0  0  0
 70 69  1  0  0  0  0
M  END
>  <MODEL>
6

>  <REMARK>
 VINA RESULT:      -3.7      2.783      4.535
  Name = 
  23 active torsions:
  status: ('A' for Active; 'I' for Inactive)
    1  A    between atoms: C_1  and  C_60
    2  A    between atoms: C_1  and  C_62
    3  A    between atoms: C_2  and  C_8
    4  A    between atoms: C_2  and  C_66
    5  A    between atoms: C_2  and  C_68
    6  A    between atoms: C_7  and  C_43
    7  A    between atoms: C_7  and  C_48
    8  A    between atoms: C_8  and  N_35
    9  A    between atoms: C_9  and  C_47
   10  A    between atoms: C_14  and  C_49
   11  A    between atoms: C_14  and  C_51
   12  A    between atoms: C_17  and  CA_40
   13  A    between atoms: C_20  and  O_36
   14  A    between atoms: C_21  and  CA_40
   15  A    between atoms: C_25  and  O_38
   16  A    between atoms: C_25  and  C_48
   17  A    between atoms: C_27  and  C_33
   18  A    between atoms: C_29  and  C_56
   19  A    between atoms: C_30  and  C_43
   20  A    between atoms: O_38  and  C_56
   21  A    between atoms: C_39  and  C_51
   22  A    between atoms: CA_40  and  N_42
   23  A    between atoms: N_42  and  C_60
                            x       y       z     vdW  Elec       q    Type
                         _______ _______ _______ _____ _____    ______ ____

>  <TORSDO>
F 23

$$$$
=
 OpenBabel10222417543D

 70 78  0  0  1  0  0  0  0  0999 V2000
  191.3180  176.4650  138.8200 C   0  0  0  0  0  2  0  0  0  0  0  0
  187.7150  174.0900  136.9700 C   0  0  0  0  0  2  0  0  0  0  0  0
  189.8380  176.2820  137.0470 C   0  0  1  0  0  3  0  0  0  0  0  0
  189.1760  173.6730  136.9020 C   0  0  0  0  0  2  0  0  0  0  0  0
  190.2970  175.4740  138.2890 C   0  0  1  0  0  3  0  0  0  0  0  0
  189.1850  177.9130  138.7590 C   0  0  0  0  0  0  0  0  0  0  0  0
  187.3080  174.8510  135.7140 C   0  0  2  0  0  3  0  0  0  0  0  0
  186.1270  175.7630  136.0170 C   0  0  0  0  0  2  0  0  0  0  0  0
  190.2180  174.8040  136.9490 C   0  0  2  0  0  0  0  0  0  0  0  0
  190.5070  177.6030  139.4870 C   0  0  1  0  0  3  0  0  0  0  0  0
  187.5900  177.5790  136.8990 C   0  0  0  0  0  2  0  0  0  0  0  0
  188.7980  177.1720  137.6890 C   0  0  0  0  0  0  0  0  0  0  0  0
  186.4030  176.6810  137.2120 C   0  0  1  0  0  3  0  0  0  0  0  0
  193.3560  174.7840  134.9650 N   0  0  0  0  0  2  0  0  0  0  0  0
  192.0820  175.2850  135.3260 C   0  0  0  0  0  3  0  0  0  0  0  0
  191.5130  174.5170  136.2410 C   0  0  0  0  0  0  0  0  0  0  0  0
  192.3880  173.3650  136.6040 C   0  0  0  0  0  2  0  0  0  0  0  0
  193.6640  173.6280  135.7990 C   0  0  2  0  0  3  0  0  0  0  0  0
  194.8540  173.9300  136.7180 C   0  0  0  0  0  3  0  0  0  0  0  0
  197.0960  175.1470  136.7770 C   0  0  0  0  0  2  0  0  0  0  0  0
  197.1130  173.0330  137.5210 C   0  0  0  0  0  2  0  0  0  0  0  0
  195.7050  172.6780  137.0200 C   0  0  0  0  0  2  0  0  0  0  0  0
  195.6860  175.1030  136.1720 C   0  0  0  0  0  2  0  0  0  0  0  0
  197.1730  174.3690  137.9470 O   0  0  0  0  0  0  0  0  0  0  0  0
  188.3680  178.9680  139.1890 O   0  0  0  0  0  0  0  0  0  0  0  0
  188.0640  179.2020  140.5560 C   0  0  0  0  0  1  0  0  0  0  0  0
  186.9610  173.8840  134.5940 C   0  0  0  0  0  2  0  0  0  0  0  0
  186.5900  172.5240  135.1750 C   0  0  0  0  0  2  0  0  0  0  0  0
  184.4150  173.3610  134.5940 F   0  0  0  0  0  0  0  0  0  0  0  0
  185.0780  172.2870  135.1670 C   0  0  2  0  0  3  0  0  0  0  0  0
  184.5450  171.9940  136.5840 C   0  0  1  0  0  3  0  0  0  0  0  0
  184.6720  173.1960  137.5260 C   0  0  0  0  0  1  0  0  0  0  0  0
  183.2390  171.4380  136.5850 O   0  0  0  0  0  0  0  0  0  0  0  0
  182.6490  171.6880  135.3330 C   0  0  0  0  0  2  0  0  0  0  0  0
  179.1510  172.0980  137.9080 C   0  0  0  0  0  2  0  0  0  0  0  0
  180.6950  173.0840  138.0650 S   0  0  0  0  0  0  0  0  0  0  0  0
  181.1670  171.9740  135.4810 C   0  0  1  0  0  3  0  0  0  0  0  0
  179.0500  171.2360  136.6390 C   0  0  0  0  0  2  0  0  0  0  0  0
  180.1940  169.7000  135.0740 C   0  0  0  0  0  1  0  0  0  0  0  0
  180.4160  170.7890  136.1090 C   0  0  1  0  0  3  0  0  0  0  0  0
  181.0290  174.3110  135.7670 O   0  0  0  0  0  0  0  0  0  0  0  0
  180.9960  173.2160  136.3030 C   0  0  0  0  0  0  0  0  0  0  0  0
  190.2220  177.2280  140.9370 C   0  0  0  0  0  2  0  0  0  0  0  0
  191.4650  177.4070  141.7960 C   0  0  0  0  0  2  0  0  0  0  0  0
  191.9500  176.9990  144.1850 C   0  0  1  0  0  3  0  0  0  0  0  0
  191.2620  176.8980  145.4580 N   0  0  0  0  0  1  0  0  0  0  0  0
  191.0880  177.7890  143.2180 C   0  0  1  0  0  3  0  0  0  0  0  0
  192.2710  178.4480  143.8930 C   0  0  0  0  0  2  0  0  0  0  0  0
  185.1780  177.5170  137.6080 C   0  0  1  0  0  3  0  0  0  0  0  0
  184.6180  177.7820  135.1500 F   0  0  0  0  0  0  0  0  0  0  0  0
  182.0390  176.8930  135.4260 C   0  0  0  0  0  1  0  0  0  0  0  0
  182.7800  177.1920  136.7160 C   0  0  1  0  0  3  0  0  0  0  0  0
  184.1700  177.6430  136.4580 C   0  0  1  0  0  0  0  0  0  0  0  0
  183.1410  178.5550  136.7510 O   0  0  0  0  0  0  0  0  0  0  0  0
  184.5200  176.8790  138.8290 C   0  0  0  0  0  2  0  0  0  0  0  0
  182.2220  178.8080  142.3630 C   0  0  0  0  0  0  0  0  0  0  0  0
  184.5280  178.7660  142.0710 N   0  0  0  0  0  0  0  0  0  0  0  0
  185.0100  177.4680  140.0660 N   0  0  0  0  0  2  0  0  0  0  0  0
  182.4350  177.8350  141.0040 S   0  0  0  0  0  0  0  0  0  0  0  0
  183.4770  179.2110  142.8140 C   0  0  0  0  0  0  0  0  0  0  0  0
  184.1110  178.0010  141.0400 C   0  0  0  0  0  0  0  0  0  0  0  0
  183.6840  180.0930  143.9940 C   0  0  0  0  0  1  0  0  0  0  0  0
  180.9020  179.1690  142.9730 C   0  0  2  0  0  3  0  0  0  0  0  0
  179.1630  178.1410  144.2400 O   0  0  0  0  0  1  0  0  0  0  0  0
  180.0530  177.9300  143.1850 C   0  0  0  0  0  2  0  0  0  0  0  0
  180.1950  180.1060  142.1160 N   0  0  0  0  0  2  0  0  0  0  0  0
  180.0420  179.4680  140.8220 C   0  0  0  0  0  2  0  0  0  0  0  0
  179.8080  180.5310  139.7620 C   0  0  0  0  0  2  0  0  0  0  0  0
  182.0860  180.5060  139.0440 O   0  0  0  0  0  1  0  0  0  0  0  0
  181.0750  181.3360  139.5290 C   0  0  0  0  0  2  0  0  0  0  0  0
  1 10  1  0  0  0  0
  3 12  1  1  0  0  0
  3  5  1  0  0  0  0
  4  9  1  0  0  0  0
  4  2  1  0  0  0  0
  5  1  1  6  0  0  0
  6 25  1  0  0  0  0
  6 10  1  0  0  0  0
  7 27  1  6  0  0  0
  7  8  1  0  0  0  0
  7  2  1  0  0  0  0
  8 13  1  0  0  0  0
  9 16  1  6  0  0  0
  9  3  1  0  0  0  0
  9  5  1  0  0  0  0
 10 43  1  1  0  0  0
 11 13  1  0  0  0  0
 11 12  1  0  0  0  0
 12  6  2  0  0  0  0
 13 49  1  6  0  0  0
 14 15  1  0  0  0  0
 14 18  1  0  0  0  0
 15 16  2  0  0  0  0
 16 17  1  0  0  0  0
 18 17  1  0  0  0  0
 18 19  1  1  0  0  0
 19 22  1  0  0  0  0
 20 24  1  0  0  0  0
 21 24  1  0  0  0  0
 22 21  1  0  0  0  0
 23 19  1  0  0  0  0
 23 20  1  0  0  0  0
 25 26  1  0  0  0  0
 27 28  1  0  0  0  0
 30 29  1  1  0  0  0
 30 28  1  0  0  0  0
 30 31  1  0  0  0  0
 31 33  1  0  0  0  0
 31 32  1  1  0  0  0
 34 33  1  0  0  0  0
 35 36  1  0  0  0  0
 37 34  1  1  0  0  0
 37 40  1  0  0  0  0
 37 42  1  0  0  0  0
 38 35  1  0  0  0  0
 40 39  1  6  0  0  0
 40 38  1  0  0  0  0
 41 42  2  0  0  0  0
 42 36  1  0  0  0  0
 43 44  1  0  0  0  0
 45 46  1  1  0  0  0
 47 44  1  6  0  0  0
 47 48  1  0  0  0  0
 47 45  1  0  0  0  0
 48 45  1  0  0  0  0
 49 55  1  1  0  0  0
 52 51  1  6  0  0  0
 52 54  1  0  0  0  0
 53 50  1  6  0  0  0
 53 52  1  0  0  0  0
 53 54  1  0  0  0  0
 53 49  1  0  0  0  0
 55 58  1  0  0  0  0
 56 60  2  0  0  0  0
 56 63  1  0  0  0  0
 57 60  1  0  0  0  0
 58 61  1  0  0  0  0
 59 61  1  0  0  0  0
 59 56  1  0  0  0  0
 60 62  1  0  0  0  0
 61 57  2  0  0  0  0
 63 65  1  6  0  0  0
 65 64  1  0  0  0  0
 66 63  1  0  0  0  0
 67 66  1  0  0  0  0
 68 67  1  0  0  0  0
 69 70  1  0  0  0  0
 70 68  1  0  0  0  0
M  END
>  <MODEL>
7

>  <REMARK>
 VINA RESULT:      -3.6      3.219      8.926
  Name = 
  23 active torsions:
  status: ('A' for Active; 'I' for Inactive)
    1  A    between atoms: C_1  and  C_60
    2  A    between atoms: C_1  and  C_62
    3  A    between atoms: C_2  and  C_8
    4  A    between atoms: C_2  and  C_66
    5  A    between atoms: C_2  and  C_68
    6  A    between atoms: C_7  and  C_43
    7  A    between atoms: C_7  and  C_48
    8  A    between atoms: C_8  and  N_35
    9  A    between atoms: C_9  and  C_47
   10  A    between atoms: C_14  and  C_49
   11  A    between atoms: C_14  and  C_51
   12  A    between atoms: C_17  and  CA_40
   13  A    between atoms: C_20  and  O_36
   14  A    between atoms: C_21  and  CA_40
   15  A    between atoms: C_25  and  O_38
   16  A    between atoms: C_25  and  C_48
   17  A    between atoms: C_27  and  C_33
   18  A    between atoms: C_29  and  C_56
   19  A    between atoms: C_30  and  C_43
   20  A    between atoms: O_38  and  C_56
   21  A    between atoms: C_39  and  C_51
   22  A    between atoms: CA_40  and  N_42
   23  A    between atoms: N_42  and  C_60
                            x       y       z     vdW  Elec       q    Type
                         _______ _______ _______ _____ _____    ______ ____

>  <TORSDO>
F 23

$$$$
=
 OpenBabel10222417543D

 70 78  0  0  1  0  0  0  0  0999 V2000
  187.4340  178.3070  142.9340 C   0  0  0  0  0  2  0  0  0  0  0  0
  189.6020  175.9960  139.4710 C   0  0  0  0  0  2  0  0  0  0  0  0
  188.7410  178.4750  141.0300 C   0  0  1  0  0  3  0  0  0  0  0  0
  190.1350  176.1720  140.8830 C   0  0  0  0  0  2  0  0  0  0  0  0
  188.2230  177.3930  142.0140 C   0  0  1  0  0  3  0  0  0  0  0  0
  186.3410  178.8140  140.6540 C   0  0  0  0  0  0  0  0  0  0  0  0
  190.1660  177.0620  138.5400 C   0  0  2  0  0  3  0  0  0  0  0  0
  189.2240  177.2790  137.3640 C   0  0  0  0  0  2  0  0  0  0  0  0
  189.6760  177.4300  141.6410 C   0  0  2  0  0  0  0  0  0  0  0  0
  186.1340  178.6670  142.1740 C   0  0  1  0  0  3  0  0  0  0  0  0
  187.7820  178.8590  138.6440 C   0  0  0  0  0  2  0  0  0  0  0  0
  187.5540  178.5650  140.0980 C   0  0  0  0  0  0  0  0  0  0  0  0
  187.7930  177.5790  137.8230 C   0  0  1  0  0  3  0  0  0  0  0  0
  191.7100  179.3520  144.0810 N   0  0  0  0  0  2  0  0  0  0  0  0
  190.8260  179.2240  142.9820 C   0  0  0  0  0  3  0  0  0  0  0  0
  190.6410  177.9510  142.6690 C   0  0  0  0  0  0  0  0  0  0  0  0
  191.4200  177.0520  143.5690 C   0  0  0  0  0  2  0  0  0  0  0  0
  192.0520  178.0220  144.5710 C   0  0  2  0  0  3  0  0  0  0  0  0
  191.4940  177.8090  145.9840 C   0  0  0  0  0  3  0  0  0  0  0  0
  190.8610  175.9790  147.6450 C   0  0  0  0  0  2  0  0  0  0  0  0
  189.3270  177.5820  147.3270 C   0  0  0  0  0  2  0  0  0  0  0  0
  190.0100  178.2120  146.1030 C   0  0  0  0  0  2  0  0  0  0  0  0
  191.7680  176.3760  146.4720 C   0  0  0  0  0  2  0  0  0  0  0  0
  190.2790  177.1100  148.2450 O   0  0  0  0  0  0  0  0  0  0  0  0
  185.2810  179.2120  139.8280 O   0  0  0  0  0  0  0  0  0  0  0  0
  183.9540  179.3840  140.3030 C   0  0  0  0  0  1  0  0  0  0  0  0
  191.5480  176.6640  138.0480 C   0  0  0  0  0  2  0  0  0  0  0  0
  191.5570  176.5850  136.5250 C   0  0  0  0  0  2  0  0  0  0  0  0
  192.9110  176.0670  134.6100 F   0  0  0  0  0  0  0  0  0  0  0  0
  192.8390  175.9450  135.9890 C   0  0  2  0  0  3  0  0  0  0  0  0
  192.9600  174.4710  136.4260 C   0  0  1  0  0  3  0  0  0  0  0  0
  192.1360  173.5240  135.5470 C   0  0  0  0  0  1  0  0  0  0  0  0
  194.3040  174.0420  136.5780 O   0  0  0  0  0  0  0  0  0  0  0  0
  194.3850  173.2360  137.7280 C   0  0  0  0  0  2  0  0  0  0  0  0
  198.2740  171.9810  136.1990 C   0  0  0  0  0  2  0  0  0  0  0  0
  197.4280  173.5540  135.7600 S   0  0  0  0  0  0  0  0  0  0  0  0
  195.8200  172.8220  137.9980 C   0  0  1  0  0  3  0  0  0  0  0  0
  197.6300  171.1900  137.3490 C   0  0  0  0  0  2  0  0  0  0  0  0
  195.5440  170.3610  138.3880 C   0  0  0  0  0  1  0  0  0  0  0  0
  196.1200  171.4150  137.4580 C   0  0  1  0  0  3  0  0  0  0  0  0
  197.0370  174.8410  138.0160 O   0  0  0  0  0  0  0  0  0  0  0  0
  196.7370  173.8390  137.3890 C   0  0  0  0  0  0  0  0  0  0  0  0
  185.0830  177.5980  142.4500 C   0  0  0  0  0  2  0  0  0  0  0  0
  184.2160  177.9860  143.6400 C   0  0  0  0  0  2  0  0  0  0  0  0
  184.3090  178.6620  146.0150 C   0  0  1  0  0  3  0  0  0  0  0  0
  184.7260  179.7820  146.8370 N   0  0  0  0  0  1  0  0  0  0  0  0
  185.0330  178.7280  144.6840 C   0  0  1  0  0  3  0  0  0  0  0  0
  185.4910  177.7560  145.7490 C   0  0  0  0  0  2  0  0  0  0  0  0
  186.8070  177.6770  136.6510 C   0  0  1  0  0  3  0  0  0  0  0  0
  185.7600  176.2160  134.8640 F   0  0  0  0  0  0  0  0  0  0  0  0
  187.8860  174.4870  134.7350 C   0  0  0  0  0  1  0  0  0  0  0  0
  187.8890  175.4590  135.9010 C   0  0  1  0  0  3  0  0  0  0  0  0
  186.7110  176.3620  135.8660 C   0  0  1  0  0  0  0  0  0  0  0  0
  186.7530  175.2360  136.7070 O   0  0  0  0  0  0  0  0  0  0  0  0
  185.4360  178.0770  137.1940 C   0  0  0  0  0  2  0  0  0  0  0  0
  180.9040  177.9190  138.1580 C   0  0  0  0  0  0  0  0  0  0  0  0
  182.2760  176.1100  137.6560 N   0  0  0  0  0  0  0  0  0  0  0  0
  184.4950  176.9690  137.1320 N   0  0  0  0  0  2  0  0  0  0  0  0
  182.3740  178.6330  137.7490 S   0  0  0  0  0  0  0  0  0  0  0  0
  181.0400  176.5370  138.0350 C   0  0  0  0  0  0  0  0  0  0  0  0
  183.1180  177.1480  137.4650 C   0  0  0  0  0  0  0  0  0  0  0  0
  179.9450  175.5720  138.3260 C   0  0  0  0  0  1  0  0  0  0  0  0
  179.6700  178.6540  138.5800 C   0  0  2  0  0  3  0  0  0  0  0  0
  179.2670  180.8130  137.6500 O   0  0  0  0  0  1  0  0  0  0  0  0
  179.9400  180.1440  138.6750 C   0  0  0  0  0  2  0  0  0  0  0  0
  179.2070  178.1580  139.8650 N   0  0  0  0  0  2  0  0  0  0  0  0
  179.6240  179.1200  140.8680 C   0  0  0  0  0  2  0  0  0  0  0  0
  179.3040  178.5750  142.2500 C   0  0  0  0  0  2  0  0  0  0  0  0
  180.0690  178.6790  144.5100 O   0  0  0  0  0  1  0  0  0  0  0  0
  179.9950  179.4030  143.3200 C   0  0  0  0  0  2  0  0  0  0  0  0
  2  4  1  0  0  0  0
  3 12  1  6  0  0  0
  3  9  1  0  0  0  0
  3  5  1  0  0  0  0
  4  9  1  0  0  0  0
  5  1  1  1  0  0  0
  6 10  1  0  0  0  0
  7 27  1  6  0  0  0
  7  2  1  0  0  0  0
  8 13  1  0  0  0  0
  8  7  1  0  0  0  0
  9  5  1  0  0  0  0
  9 16  1  1  0  0  0
 10 43  1  6  0  0  0
 10  1  1  0  0  0  0
 11 12  1  0  0  0  0
 12  6  2  0  0  0  0
 13 49  1  6  0  0  0
 13 11  1  0  0  0  0
 14 18  1  0  0  0  0
 15 14  1  0  0  0  0
 16 15  2  0  0  0  0
 16 17  1  0  0  0  0
 17 18  1  0  0  0  0
 18 19  1  1  0  0  0
 19 22  1  0  0  0  0
 19 23  1  0  0  0  0
 20 24  1  0  0  0  0
 21 24  1  0  0  0  0
 22 21  1  0  0  0  0
 23 20  1  0  0  0  0
 25 26  1  0  0  0  0
 25  6  1  0  0  0  0
 28 27  1  0  0  0  0
 30 29  1  6  0  0  0
 30 31  1  0  0  0  0
 30 28  1  0  0  0  0
 31 32  1  6  0  0  0
 31 33  1  0  0  0  0
 33 34  1  0  0  0  0
 35 38  1  0  0  0  0
 36 35  1  0  0  0  0
 36 42  1  0  0  0  0
 37 34  1  6  0  0  0
 38 40  1  0  0  0  0
 40 37  1  0  0  0  0
 40 39  1  1  0  0  0
 42 37  1  0  0  0  0
 42 41  2  0  0  0  0
 43 44  1  0  0  0  0
 45 46  1  1  0  0  0
 47 44  1  6  0  0  0
 47 48  1  0  0  0  0
 47 45  1  0  0  0  0
 48 45  1  0  0  0  0
 49 55  1  1  0  0  0
 52 51  1  6  0  0  0
 52 54  1  0  0  0  0
 53 50  1  6  0  0  0
 53 52  1  0  0  0  0
 53 49  1  0  0  0  0
 53 54  1  0  0  0  0
 56 63  1  0  0  0  0
 57 60  1  0  0  0  0
 58 55  1  0  0  0  0
 58 61  1  0  0  0  0
 59 56  1  0  0  0  0
 60 56  2  0  0  0  0
 60 62  1  0  0  0  0
 61 57  2  0  0  0  0
 61 59  1  0  0  0  0
 63 65  1  1  0  0  0
 63 66  1  0  0  0  0
 64 65  1  0  0  0  0
 66 67  1  0  0  0  0
 67 68  1  0  0  0  0
 68 70  1  0  0  0  0
 70 69  1  0  0  0  0
M  END
>  <MODEL>
8

>  <REMARK>
 VINA RESULT:      -3.3      2.782      8.158
  Name = 
  23 active torsions:
  status: ('A' for Active; 'I' for Inactive)
    1  A    between atoms: C_1  and  C_60
    2  A    between atoms: C_1  and  C_62
    3  A    between atoms: C_2  and  C_8
    4  A    between atoms: C_2  and  C_66
    5  A    between atoms: C_2  and  C_68
    6  A    between atoms: C_7  and  C_43
    7  A    between atoms: C_7  and  C_48
    8  A    between atoms: C_8  and  N_35
    9  A    between atoms: C_9  and  C_47
   10  A    between atoms: C_14  and  C_49
   11  A    between atoms: C_14  and  C_51
   12  A    between atoms: C_17  and  CA_40
   13  A    between atoms: C_20  and  O_36
   14  A    between atoms: C_21  and  CA_40
   15  A    between atoms: C_25  and  O_38
   16  A    between atoms: C_25  and  C_48
   17  A    between atoms: C_27  and  C_33
   18  A    between atoms: C_29  and  C_56
   19  A    between atoms: C_30  and  C_43
   20  A    between atoms: O_38  and  C_56
   21  A    between atoms: C_39  and  C_51
   22  A    between atoms: CA_40  and  N_42
   23  A    between atoms: N_42  and  C_60
                            x       y       z     vdW  Elec       q    Type
                         _______ _______ _______ _____ _____    ______ ____

>  <TORSDO>
F 23

$$$$
=
 OpenBabel10222417543D

 70 78  0  0  1  0  0  0  0  0999 V2000
  192.0150  176.9770  140.6000 C   0  0  0  0  0  2  0  0  0  0  0  0
  188.3320  175.5250  138.0780 C   0  0  0  0  0  2  0  0  0  0  0  0
  190.4450  177.5300  138.9890 C   0  0  1  0  0  3  0  0  0  0  0  0
  189.7880  175.2160  137.7710 C   0  0  0  0  0  2  0  0  0  0  0  0
  190.9730  176.2810  139.7430 C   0  0  1  0  0  3  0  0  0  0  0  0
  189.8750  178.2540  141.2620 C   0  0  0  0  0  0  0  0  0  0  0  0
  187.8550  176.7380  137.2880 C   0  0  2  0  0  3  0  0  0  0  0  0
  186.6870  177.4000  138.0060 C   0  0  0  0  0  2  0  0  0  0  0  0
  190.8260  176.2460  138.2500 C   0  0  2  0  0  0  0  0  0  0  0  0
  191.2360  177.6990  141.7260 C   0  0  1  0  0  3  0  0  0  0  0  0
  188.1860  178.7050  139.5130 C   0  0  0  0  0  2  0  0  0  0  0  0
  189.4360  178.0310  139.9970 C   0  0  0  0  0  0  0  0  0  0  0  0
  187.0210  177.7270  139.4660 C   0  0  1  0  0  3  0  0  0  0  0  0
  194.2690  176.3880  136.8680 N   0  0  0  0  0  2  0  0  0  0  0  0
  193.3080  176.4930  137.9020 C   0  0  0  0  0  3  0  0  0  0  0  0
  192.0830  176.3250  137.4300 C   0  0  0  0  0  0  0  0  0  0  0  0
  192.0980  176.0790  135.9580 C   0  0  0  0  0  2  0  0  0  0  0  0
  193.5930  176.0310  135.6270 C   0  0  2  0  0  3  0  0  0  0  0  0
  194.0180  174.6310  135.1660 C   0  0  0  0  0  3  0  0  0  0  0  0
  193.3020  172.1830  135.2350 C   0  0  0  0  0  2  0  0  0  0  0  0
  195.4290  172.5950  135.8090 C   0  0  0  0  0  2  0  0  0  0  0  0
  195.2750  174.1200  135.9020 C   0  0  0  0  0  2  0  0  0  0  0  0
  192.8380  173.6470  135.2390 C   0  0  0  0  0  2  0  0  0  0  0  0
  194.6290  172.0700  134.7810 O   0  0  0  0  0  0  0  0  0  0  0  0
  189.0770  179.0020  142.1390 O   0  0  0  0  0  0  0  0  0  0  0  0
  189.4220  179.2240  143.4990 C   0  0  0  0  0  1  0  0  0  0  0  0
  187.4540  176.3340  135.8790 C   0  0  0  0  0  2  0  0  0  0  0  0
  187.2090  174.8290  135.8180 C   0  0  0  0  0  2  0  0  0  0  0  0
  185.2820  175.5930  134.6040 F   0  0  0  0  0  0  0  0  0  0  0  0
  186.0480  174.4720  134.8880 C   0  0  2  0  0  3  0  0  0  0  0  0
  185.1810  173.3400  135.4750 C   0  0  1  0  0  3  0  0  0  0  0  0
  185.6500  172.8940  136.8640 C   0  0  0  0  0  1  0  0  0  0  0  0
  183.7910  173.6220  135.4340 O   0  0  0  0  0  0  0  0  0  0  0  0
  183.1730  172.9630  136.5120 C   0  0  0  0  0  2  0  0  0  0  0  0
  179.1320  174.2230  135.4540 C   0  0  0  0  0  2  0  0  0  0  0  0
  179.7300  172.4840  135.4400 S   0  0  0  0  0  0  0  0  0  0  0  0
  181.8800  173.6560  136.9000 C   0  0  1  0  0  3  0  0  0  0  0  0
  180.0910  175.2410  136.0930 C   0  0  0  0  0  2  0  0  0  0  0  0
  182.4210  176.0370  136.3290 C   0  0  0  0  0  1  0  0  0  0  0  0
  181.5630  174.8360  135.9680 C   0  0  1  0  0  3  0  0  0  0  0  0
  180.5590  171.9650  137.8780 O   0  0  0  0  0  0  0  0  0  0  0  0
  180.7710  172.6480  136.8900 C   0  0  0  0  0  0  0  0  0  0  0  0
  191.0290  176.7330  142.8870 C   0  0  0  0  0  2  0  0  0  0  0  0
  191.6790  177.2660  144.1560 C   0  0  0  0  0  2  0  0  0  0  0  0
  190.3920  177.7430  146.2110 C   0  0  1  0  0  3  0  0  0  0  0  0
  190.3000  177.3070  147.5920 N   0  0  0  0  0  1  0  0  0  0  0  0
  191.0430  176.6460  145.3890 C   0  0  1  0  0  3  0  0  0  0  0  0
  189.5430  176.8460  145.3370 C   0  0  0  0  0  2  0  0  0  0  0  0
  185.8150  178.2810  140.2360 C   0  0  1  0  0  3  0  0  0  0  0  0
  186.7170  179.6900  142.1400 F   0  0  0  0  0  0  0  0  0  0  0  0
  185.4230  178.2600  144.0900 C   0  0  0  0  0  1  0  0  0  0  0  0
  185.4270  177.6410  142.7040 C   0  0  1  0  0  3  0  0  0  0  0  0
  186.1320  178.5020  141.7210 C   0  0  1  0  0  0  0  0  0  0  0  0
  186.7550  177.3840  142.3040 O   0  0  0  0  0  0  0  0  0  0  0  0
  185.3720  179.5880  139.5820 C   0  0  0  0  0  2  0  0  0  0  0  0
  180.8320  179.1260  140.3960 C   0  0  0  0  0  0  0  0  0  0  0  0
  181.9080  178.8350  138.3560 N   0  0  0  0  0  0  0  0  0  0  0  0
  184.2650  179.3740  138.6630 N   0  0  0  0  0  2  0  0  0  0  0  0
  182.4200  179.5900  140.7130 S   0  0  0  0  0  0  0  0  0  0  0  0
  180.7420  178.7600  139.0540 C   0  0  0  0  0  0  0  0  0  0  0  0
  182.9200  179.2730  139.1350 C   0  0  0  0  0  0  0  0  0  0  0  0
  179.4870  178.2800  138.4140 C   0  0  0  0  0  1  0  0  0  0  0  0
  179.7160  179.1150  141.3950 C   0  0  2  0  0  3  0  0  0  0  0  0
  178.9830  181.3190  140.8550 O   0  0  0  0  0  1  0  0  0  0  0  0
  179.4380  180.5170  141.9040 C   0  0  0  0  0  2  0  0  0  0  0  0
  180.0540  178.2470  142.5120 N   0  0  0  0  0  2  0  0  0  0  0  0
  180.1170  176.8930  141.9950 C   0  0  0  0  0  2  0  0  0  0  0  0
  178.9560  176.6640  141.0420 C   0  0  0  0  0  2  0  0  0  0  0  0
  179.6590  174.3960  141.2960 O   0  0  0  0  0  1  0  0  0  0  0  0
  179.0530  175.2870  140.4100 C   0  0  0  0  0  2  0  0  0  0  0  0
  1 10  1  0  0  0  0
  3  5  1  0  0  0  0
  3 12  1  1  0  0  0
  4  2  1  0  0  0  0
  4  9  1  0  0  0  0
  5  1  1  6  0  0  0
  6 10  1  0  0  0  0
  6 25  1  0  0  0  0
  7 27  1  6  0  0  0
  7  8  1  0  0  0  0
  7  2  1  0  0  0  0
  8 13  1  0  0  0  0
  9 16  1  6  0  0  0
  9  3  1  0  0  0  0
  9  5  1  0  0  0  0
 10 43  1  1  0  0  0
 11 12  1  0  0  0  0
 12  6  2  0  0  0  0
 13 11  1  0  0  0  0
 13 49  1  6  0  0  0
 14 15  1  0  0  0  0
 16 15  2  0  0  0  0
 17 16  1  0  0  0  0
 18 19  1  1  0  0  0
 18 17  1  0  0  0  0
 18 14  1  0  0  0  0
 19 23  1  0  0  0  0
 19 22  1  0  0  0  0
 20 23  1  0  0  0  0
 21 22  1  0  0  0  0
 24 20  1  0  0  0  0
 24 21  1  0  0  0  0
 25 26  1  0  0  0  0
 28 27  1  0  0  0  0
 30 29  1  1  0  0  0
 30 31  1  0  0  0  0
 30 28  1  0  0  0  0
 31 32  1  1  0  0  0
 33 31  1  0  0  0  0
 33 34  1  0  0  0  0
 35 38  1  0  0  0  0
 36 35  1  0  0  0  0
 36 42  1  0  0  0  0
 37 34  1  6  0  0  0
 40 38  1  0  0  0  0
 40 39  1  1  0  0  0
 40 37  1  0  0  0  0
 42 37  1  0  0  0  0
 42 41  2  0  0  0  0
 43 44  1  0  0  0  0
 45 46  1  1  0  0  0
 47 44  1  6  0  0  0
 47 45  1  0  0  0  0
 48 47  1  0  0  0  0
 48 45  1  0  0  0  0
 49 55  1  6  0  0  0
 49 53  1  0  0  0  0
 52 51  1  1  0  0  0
 53 50  1  1  0  0  0
 53 54  1  0  0  0  0
 53 52  1  0  0  0  0
 54 52  1  0  0  0  0
 56 59  1  0  0  0  0
 56 63  1  0  0  0  0
 57 60  1  0  0  0  0
 57 61  2  0  0  0  0
 58 61  1  0  0  0  0
 58 55  1  0  0  0  0
 60 56  2  0  0  0  0
 61 59  1  0  0  0  0
 62 60  1  0  0  0  0
 63 65  1  1  0  0  0
 63 66  1  0  0  0  0
 64 65  1  0  0  0  0
 67 66  1  0  0  0  0
 68 67  1  0  0  0  0
 70 68  1  0  0  0  0
 70 69  1  0  0  0  0
M  END
>  <MODEL>
9

>  <REMARK>
 VINA RESULT:      -3.0      3.222      9.094
  Name = 
  23 active torsions:
  status: ('A' for Active; 'I' for Inactive)
    1  A    between atoms: C_1  and  C_60
    2  A    between atoms: C_1  and  C_62
    3  A    between atoms: C_2  and  C_8
    4  A    between atoms: C_2  and  C_66
    5  A    between atoms: C_2  and  C_68
    6  A    between atoms: C_7  and  C_43
    7  A    between atoms: C_7  and  C_48
    8  A    between atoms: C_8  and  N_35
    9  A    between atoms: C_9  and  C_47
   10  A    between atoms: C_14  and  C_49
   11  A    between atoms: C_14  and  C_51
   12  A    between atoms: C_17  and  CA_40
   13  A    between atoms: C_20  and  O_36
   14  A    between atoms: C_21  and  CA_40
   15  A    between atoms: C_25  and  O_38
   16  A    between atoms: C_25  and  C_48
   17  A    between atoms: C_27  and  C_33
   18  A    between atoms: C_29  and  C_56
   19  A    between atoms: C_30  and  C_43
   20  A    between atoms: O_38  and  C_56
   21  A    between atoms: C_39  and  C_51
   22  A    between atoms: CA_40  and  N_42
   23  A    between atoms: N_42  and  C_60
                            x       y       z     vdW  Elec       q    Type
                         _______ _______ _______ _____ _____    ______ ____

>  <TORSDO>
F 23

$$$$
