=
 OpenBabel10222415203D

 43 48  0  0  1  0  0  0  0  0999 V2000
  190.8960  177.4900  140.8030 C   0  0  0  0  0  0  0  0  0  0  0  0
  189.8240  177.3790  145.1010 C   0  0  0  0  0  0  0  0  0  0  0  0
  191.5150  176.2940  146.4080 N   0  0  0  0  0  0  0  0  0  0  0  0
  190.9930  176.7860  147.5610 C   0  0  0  0  0  3  0  0  0  0  0  0
  190.8950  177.3950  142.1030 C   0  0  0  0  0  0  0  0  0  0  0  0
  189.2870  178.1440  148.7760 C   0  0  0  0  0  1  0  0  0  0  0  0
  189.2830  177.8900  146.2920 C   0  0  0  0  0  3  0  0  0  0  0  0
  190.8850  177.5820  139.5010 C   0  0  0  0  0  3  0  0  0  0  0  0
  189.8670  177.6000  147.5210 C   0  0  0  0  0  0  0  0  0  0  0  0
  190.1280  178.3970  142.8880 C   0  0  0  0  0  2  0  0  0  0  0  0
  191.6650  175.9490  144.0230 C   0  0  0  0  0  3  0  0  0  0  0  0
  190.9860  176.5700  145.1830 C   0  0  0  0  0  0  0  0  0  0  0  0
  189.1500  177.6740  143.7860 C   0  0  2  0  0  3  0  0  0  0  0  0
  191.6200  176.2770  142.7250 C   0  0  0  0  0  3  0  0  0  0  0  0
  190.1340  175.9840  137.6780 C   0  0  0  0  0  3  0  0  0  0  0  0
  187.8320  176.2030  137.8430 C   0  0  1  0  0  3  0  0  0  0  0  0
  189.8910  176.9230  138.7120 N   0  0  0  0  0  0  0  0  0  0  0  0
  189.0010  175.5550  137.1570 C   0  0  0  0  0  3  0  0  0  0  0  0
  188.4680  177.1340  138.8780 C   0  0  0  0  0  2  0  0  0  0  0  0
  186.9400  176.9880  136.8780 C   0  0  1  0  0  3  0  0  0  0  0  0
  185.9190  176.4160  134.6000 N   0  0  0  0  0  2  0  0  0  0  0  0
  187.6890  177.4940  135.7390 N   0  0  0  0  0  2  0  0  0  0  0  0
  185.5740  175.9580  136.2700 S   0  0  0  0  0  0  0  0  0  0  0  0
  186.7230  177.6250  134.6650 C   0  0  0  0  0  2  0  0  0  0  0  0
  187.9450  178.4790  143.9600 N   0  0  0  0  0  2  0  0  0  0  0  0
  185.7940  177.9900  143.0190 C   0  0  0  0  0  3  0  0  0  0  0  0
  186.6260  177.9240  144.0590 C   0  0  0  0  0  0  0  0  0  0  0  0
  186.1920  178.5940  141.7120 C   0  0  0  0  0  2  0  0  0  0  0  0
  183.7140  178.3890  141.5540 C   0  0  0  0  0  2  0  0  0  0  0  0
  182.6250  179.3270  139.4600 C   0  0  2  0  0  3  0  0  0  0  0  0
  184.9630  179.0410  140.9410 C   0  0  2  0  0  3  0  0  0  0  0  0
  183.9280  179.2490  138.6430 C   0  0  0  0  0  2  0  0  0  0  0  0
  185.0990  178.6880  139.4580 C   0  0  0  0  0  2  0  0  0  0  0  0
  182.4070  176.8660  140.0790 C   0  0  0  0  0  1  0  0  0  0  0  0
  182.5160  178.2930  140.5960 C   0  0  1  0  0  3  0  0  0  0  0  0
  181.4130  179.4490  138.6440 N   0  0  0  0  0  2  0  0  0  0  0  0
  180.6270  180.6130  139.0380 C   0  0  1  0  0  3  0  0  0  0  0  0
  181.1460  181.7330  138.4270 C   0  0  0  0  0  0  0  0  0  0  0  0
  179.8920  181.0540  137.9720 O   0  0  0  0  0  0  0  0  0  0  0  0
  182.0160  182.6350  138.3180 O   0  0  0  0  0  0  0  0  0  0  0  0
  186.1410  177.3330  145.3490 C   0  0  0  0  0  2  0  0  0  0  0  0
  185.9430  179.0180  147.1950 C   0  0  0  0  0  1  0  0  0  0  0  0
  185.2040  178.2750  146.0980 C   0  0  0  0  0  2  0  0  0  0  0  0
  1  5  2  0  0  0  0
  2 12  2  0  0  0  0
  2  7  1  0  0  0  0
  3  4  2  0  0  0  0
  5 14  1  0  0  0  0
  5 10  1  0  0  0  0
  7  9  2  0  0  0  0
  8  1  2  0  0  0  0
  9  4  1  0  0  0  0
  9  6  1  0  0  0  0
 10 13  1  0  0  0  0
 11 12  1  0  0  0  0
 12  3  1  0  0  0  0
 13 25  1  1  0  0  0
 13  2  1  0  0  0  0
 14 11  2  0  0  0  0
 15 17  1  0  0  0  0
 16 18  1  6  0  0  0
 16 19  1  0  0  0  0
 17 19  1  0  0  0  0
 17  8  1  0  0  0  0
 18 15  2  0  0  0  0
 20 22  1  6  0  0  0
 20 16  1  0  0  0  0
 21 24  1  0  0  0  0
 21 23  1  0  0  0  0
 23 20  1  0  0  0  0
 24 22  1  0  0  0  0
 25 27  1  0  0  0  0
 26 27  2  0  0  0  0
 27 41  1  0  0  0  0
 28 26  1  0  0  0  0
 30 36  1  6  0  0  0
 30 35  1  0  0  0  0
 31 29  1  0  0  0  0
 31 28  1  1  0  0  0
 32 33  1  0  0  0  0
 32 30  1  0  0  0  0
 33 31  1  0  0  0  0
 35 34  1  6  0  0  0
 35 29  1  0  0  0  0
 37 36  1  6  0  0  0
 38 37  1  0  0  0  0
 39 38  1  0  0  0  0
 39 37  1  0  0  0  0
 40 38  2  0  0  0  0
 41 43  1  0  0  0  0
 43 42  1  0  0  0  0
M  END
>  <MODEL>
1

>  <REMARK>
 VINA RESULT:      -8.8      0.000      0.000
  Name = 
  10 active torsions:
  status: ('A' for Active; 'I' for Inactive)
    1  A    between atoms: C_3  and  N_7
    2  A    between atoms: C_4  and  C_24
    3  A    between atoms: C_6  and  N_28
    4  A    between atoms: C_6  and  C_35
    5  A    between atoms: N_7  and  C_9
    6  A    between atoms: C_11  and  C_12
    7  A    between atoms: C_18  and  N_27
    8  A    between atoms: C_19  and  C_24
    9  A    between atoms: N_28  and  C_41
   10  A    between atoms: C_35  and  C_40
                            x       y       z     vdW  Elec       q    Type
                         _______ _______ _______ _____ _____    ______ ____

>  <TORSDO>
F 10

$$$$
=
 OpenBabel10222415203D

 43 48  0  0  1  0  0  0  0  0999 V2000
  188.4740  178.2150  139.6510 C   0  0  0  0  0  0  0  0  0  0  0  0
  188.4900  177.2260  143.9700 C   0  0  0  0  0  0  0  0  0  0  0  0
  190.7210  177.0320  144.8260 N   0  0  0  0  0  0  0  0  0  0  0  0
  190.2750  177.0970  146.1070 C   0  0  0  0  0  3  0  0  0  0  0  0
  188.7840  178.0260  140.9020 C   0  0  0  0  0  0  0  0  0  0  0  0
  188.4170  177.3090  147.7600 C   0  0  0  0  0  1  0  0  0  0  0  0
  188.0270  177.2950  145.2930 C   0  0  0  0  0  3  0  0  0  0  0  0
  188.1540  178.3980  138.3980 C   0  0  0  0  0  3  0  0  0  0  0  0
  188.9160  177.2360  146.3630 C   0  0  0  0  0  0  0  0  0  0  0  0
  187.8100  178.4390  141.9460 C   0  0  0  0  0  2  0  0  0  0  0  0
  190.5260  177.0080  142.4190 C   0  0  0  0  0  3  0  0  0  0  0  0
  189.8860  177.1050  143.7510 C   0  0  0  0  0  0  0  0  0  0  0  0
  187.5050  177.2510  142.8310 C   0  0  2  0  0  3  0  0  0  0  0  0
  190.0650  177.3750  141.2170 C   0  0  0  0  0  3  0  0  0  0  0  0
  186.1910  177.5450  137.0350 C   0  0  0  0  0  3  0  0  0  0  0  0
  186.9050  175.3910  136.5630 C   0  0  1  0  0  3  0  0  0  0  0  0
  187.4590  177.3970  137.6500 N   0  0  0  0  0  0  0  0  0  0  0  0
  185.8370  176.4370  136.4140 C   0  0  0  0  0  3  0  0  0  0  0  0
  187.9800  176.0660  137.4180 C   0  0  0  0  0  2  0  0  0  0  0  0
  186.3930  174.1150  137.2360 C   0  0  1  0  0  3  0  0  0  0  0  0
  185.2980  171.9870  136.3240 N   0  0  0  0  0  2  0  0  0  0  0  0
  184.9420  174.0970  137.3300 N   0  0  0  0  0  2  0  0  0  0  0  0
  186.9400  172.6380  136.3340 S   0  0  0  0  0  0  0  0  0  0  0  0
  184.5710  172.6950  137.3640 C   0  0  0  0  0  2  0  0  0  0  0  0
  186.1260  177.3240  143.3040 N   0  0  0  0  0  2  0  0  0  0  0  0
  184.7210  178.9710  142.2720 C   0  0  0  0  0  3  0  0  0  0  0  0
  185.3670  178.5400  143.3560 C   0  0  0  0  0  0  0  0  0  0  0  0
  184.7190  178.2110  140.9860 C   0  0  0  0  0  2  0  0  0  0  0  0
  183.2370  177.2280  139.2410 C   0  0  0  0  0  2  0  0  0  0  0  0
  180.7920  176.9300  139.8600 C   0  0  2  0  0  3  0  0  0  0  0  0
  183.3450  177.6220  140.7230 C   0  0  2  0  0  3  0  0  0  0  0  0
  180.8550  177.9890  140.9770 C   0  0  0  0  0  2  0  0  0  0  0  0
  182.2480  178.6150  141.1110 C   0  0  0  0  0  2  0  0  0  0  0  0
  181.4940  178.3930  137.8970 C   0  0  0  0  0  1  0  0  0  0  0  0
  181.7960  177.1440  138.7120 C   0  0  1  0  0  3  0  0  0  0  0  0
  179.4320  176.6120  139.4130 N   0  0  0  0  0  2  0  0  0  0  0  0
  178.9380  175.3970  140.0510 C   0  0  1  0  0  3  0  0  0  0  0  0
  179.2790  174.3120  139.2740 C   0  0  0  0  0  0  0  0  0  0  0  0
  179.9910  174.6740  140.5400 O   0  0  0  0  0  0  0  0  0  0  0  0
  179.1270  173.5770  138.2640 O   0  0  0  0  0  0  0  0  0  0  0  0
  185.3510  179.3780  144.6010 C   0  0  0  0  0  2  0  0  0  0  0  0
  185.0330  178.3880  146.8810 C   0  0  0  0  0  1  0  0  0  0  0  0
  184.3380  178.8720  145.6220 C   0  0  0  0  0  2  0  0  0  0  0  0
  1  5  2  0  0  0  0
  2  7  1  0  0  0  0
  3  4  2  0  0  0  0
  4  9  1  0  0  0  0
  5 14  1  0  0  0  0
  5 10  1  0  0  0  0
  7  9  2  0  0  0  0
  8  1  2  0  0  0  0
  9  6  1  0  0  0  0
 10 13  1  0  0  0  0
 11 12  1  0  0  0  0
 12  2  2  0  0  0  0
 12  3  1  0  0  0  0
 13 25  1  1  0  0  0
 13  2  1  0  0  0  0
 14 11  2  0  0  0  0
 15 17  1  0  0  0  0
 16 18  1  1  0  0  0
 16 20  1  0  0  0  0
 16 19  1  0  0  0  0
 17  8  1  0  0  0  0
 18 15  2  0  0  0  0
 19 17  1  0  0  0  0
 20 23  1  6  0  0  0
 20 22  1  0  0  0  0
 21 23  1  0  0  0  0
 21 24  1  0  0  0  0
 22 24  1  0  0  0  0
 25 27  1  0  0  0  0
 26 27  2  0  0  0  0
 27 41  1  0  0  0  0
 28 26  1  0  0  0  0
 29 31  1  0  0  0  0
 30 36  1  6  0  0  0
 30 32  1  0  0  0  0
 31 28  1  6  0  0  0
 31 33  1  0  0  0  0
 32 33  1  0  0  0  0
 35 34  1  1  0  0  0
 35 29  1  0  0  0  0
 35 30  1  0  0  0  0
 37 36  1  6  0  0  0
 37 39  1  0  0  0  0
 38 37  1  0  0  0  0
 38 39  1  0  0  0  0
 40 38  2  0  0  0  0
 41 43  1  0  0  0  0
 43 42  1  0  0  0  0
M  END
>  <MODEL>
2

>  <REMARK>
 VINA RESULT:      -8.7      2.611      3.525
  Name = 
  10 active torsions:
  status: ('A' for Active; 'I' for Inactive)
    1  A    between atoms: C_3  and  N_7
    2  A    between atoms: C_4  and  C_24
    3  A    between atoms: C_6  and  N_28
    4  A    between atoms: C_6  and  C_35
    5  A    between atoms: N_7  and  C_9
    6  A    between atoms: C_11  and  C_12
    7  A    between atoms: C_18  and  N_27
    8  A    between atoms: C_19  and  C_24
    9  A    between atoms: N_28  and  C_41
   10  A    between atoms: C_35  and  C_40
                            x       y       z     vdW  Elec       q    Type
                         _______ _______ _______ _____ _____    ______ ____

>  <TORSDO>
F 10

$$$$
=
 OpenBabel10222415203D

 43 48  0  0  1  0  0  0  0  0999 V2000
  183.7510  177.3400  137.1010 C   0  0  0  0  0  0  0  0  0  0  0  0
  188.0880  176.5580  137.5550 C   0  0  0  0  0  0  0  0  0  0  0  0
  188.8400  174.8410  136.0600 N   0  0  0  0  0  0  0  0  0  0  0  0
  190.1390  175.1810  136.2630 C   0  0  0  0  0  3  0  0  0  0  0  0
  184.9900  176.9680  136.9470 C   0  0  0  0  0  0  0  0  0  0  0  0
  191.8740  176.6110  137.3470 C   0  0  0  0  0  1  0  0  0  0  0  0
  189.4300  176.9120  137.7650 C   0  0  0  0  0  3  0  0  0  0  0  0
  182.5100  177.7130  137.2660 C   0  0  0  0  0  3  0  0  0  0  0  0
  190.4560  176.2300  137.1180 C   0  0  0  0  0  0  0  0  0  0  0  0
  186.0690  177.9300  137.2940 C   0  0  0  0  0  2  0  0  0  0  0  0
  186.4470  174.9980  136.3430 C   0  0  0  0  0  3  0  0  0  0  0  0
  187.8050  175.4950  136.6590 C   0  0  0  0  0  0  0  0  0  0  0  0
  186.9980  177.2840  138.2980 C   0  0  2  0  0  3  0  0  0  0  0  0
  185.2590  175.6010  136.4760 C   0  0  0  0  0  3  0  0  0  0  0  0
  180.9840  176.4000  138.8100 C   0  0  0  0  0  3  0  0  0  0  0  0
  181.0360  177.7400  140.7010 C   0  0  1  0  0  3  0  0  0  0  0  0
  181.8240  177.4990  138.5020 N   0  0  0  0  0  0  0  0  0  0  0  0
  180.5130  176.4970  140.0390 C   0  0  0  0  0  3  0  0  0  0  0  0
  181.9040  178.4030  139.6300 C   0  0  0  0  0  2  0  0  0  0  0  0
  179.9180  178.6810  141.1570 C   0  0  1  0  0  3  0  0  0  0  0  0
  179.5930  181.2140  140.9720 N   0  0  0  0  0  2  0  0  0  0  0  0
  180.2880  179.4230  142.3510 N   0  0  0  0  0  2  0  0  0  0  0  0
  179.4810  179.8580  139.8460 S   0  0  0  0  0  0  0  0  0  0  0  0
  179.5090  180.6460  142.3070 C   0  0  0  0  0  2  0  0  0  0  0  0
  187.5350  178.2970  139.2020 N   0  0  0  0  0  2  0  0  0  0  0  0
  188.0520  178.1250  141.5370 C   0  0  0  0  0  3  0  0  0  0  0  0
  187.1650  178.4080  140.5820 C   0  0  0  0  0  0  0  0  0  0  0  0
  189.4580  177.7260  141.2300 C   0  0  0  0  0  2  0  0  0  0  0  0
  189.3550  176.6730  143.4860 C   0  0  0  0  0  2  0  0  0  0  0  0
  191.2170  177.2700  145.1070 C   0  0  2  0  0  3  0  0  0  0  0  0
  190.2300  177.4810  142.5140 C   0  0  2  0  0  3  0  0  0  0  0  0
  191.5640  178.5740  144.3640 C   0  0  0  0  0  2  0  0  0  0  0  0
  190.6710  178.8060  143.1400 C   0  0  0  0  0  2  0  0  0  0  0  0
  188.7790  177.7670  145.6470 C   0  0  0  0  0  1  0  0  0  0  0  0
  189.7520  176.8180  144.9640 C   0  0  1  0  0  3  0  0  0  0  0  0
  191.7310  177.2080  146.4790 N   0  0  0  0  0  2  0  0  0  0  0  0
  192.1490  175.8540  146.8240 C   0  0  1  0  0  3  0  0  0  0  0  0
  192.6180  175.8450  148.1190 C   0  0  0  0  0  0  0  0  0  0  0  0
  191.2730  175.3190  147.7290 O   0  0  0  0  0  0  0  0  0  0  0  0
  193.4970  176.0980  148.9830 O   0  0  0  0  0  0  0  0  0  0  0  0
  185.7610  178.7680  140.9700 C   0  0  0  0  0  2  0  0  0  0  0  0
  184.0920  178.5970  142.8330 C   0  0  0  0  0  1  0  0  0  0  0  0
  185.5590  178.7560  142.4810 C   0  0  0  0  0  2  0  0  0  0  0  0
  1  8  2  0  0  0  0
  2  7  1  0  0  0  0
  2 13  1  0  0  0  0
  3  4  2  0  0  0  0
  3 12  1  0  0  0  0
  4  9  1  0  0  0  0
  5  1  2  0  0  0  0
  5 10  1  0  0  0  0
  8 17  1  0  0  0  0
  9  6  1  0  0  0  0
  9  7  2  0  0  0  0
 10 13  1  0  0  0  0
 11 14  2  0  0  0  0
 11 12  1  0  0  0  0
 12  2  2  0  0  0  0
 13 25  1  1  0  0  0
 14  5  1  0  0  0  0
 15 18  2  0  0  0  0
 16 19  1  6  0  0  0
 16 20  1  0  0  0  0
 17 15  1  0  0  0  0
 17 19  1  0  0  0  0
 18 16  1  0  0  0  0
 20 23  1  6  0  0  0
 20 22  1  0  0  0  0
 21 24  1  0  0  0  0
 23 21  1  0  0  0  0
 24 22  1  0  0  0  0
 25 27  1  0  0  0  0
 27 41  1  0  0  0  0
 27 26  2  0  0  0  0
 28 26  1  0  0  0  0
 29 35  1  0  0  0  0
 30 36  1  1  0  0  0
 31 28  1  6  0  0  0
 31 33  1  0  0  0  0
 31 29  1  0  0  0  0
 32 30  1  0  0  0  0
 33 32  1  0  0  0  0
 35 30  1  0  0  0  0
 35 34  1  6  0  0  0
 37 36  1  1  0  0  0
 37 39  1  0  0  0  0
 37 38  1  0  0  0  0
 38 40  2  0  0  0  0
 39 38  1  0  0  0  0
 41 43  1  0  0  0  0
 43 42  1  0  0  0  0
M  END
>  <MODEL>
3

>  <REMARK>
 VINA RESULT:      -8.4      4.121      9.316
  Name = 
  10 active torsions:
  status: ('A' for Active; 'I' for Inactive)
    1  A    between atoms: C_3  and  N_7
    2  A    between atoms: C_4  and  C_24
    3  A    between atoms: C_6  and  N_28
    4  A    between atoms: C_6  and  C_35
    5  A    between atoms: N_7  and  C_9
    6  A    between atoms: C_11  and  C_12
    7  A    between atoms: C_18  and  N_27
    8  A    between atoms: C_19  and  C_24
    9  A    between atoms: N_28  and  C_41
   10  A    between atoms: C_35  and  C_40
                            x       y       z     vdW  Elec       q    Type
                         _______ _______ _______ _____ _____    ______ ____

>  <TORSDO>
F 10

$$$$
=
 OpenBabel10222415203D

 43 48  0  0  1  0  0  0  0  0999 V2000
  189.5680  177.5820  139.9030 C   0  0  0  0  0  0  0  0  0  0  0  0
  189.0970  177.4750  144.3070 C   0  0  0  0  0  0  0  0  0  0  0  0
  190.9030  176.3050  145.3630 N   0  0  0  0  0  0  0  0  0  0  0  0
  190.5670  176.8070  146.5790 C   0  0  0  0  0  3  0  0  0  0  0  0
  189.7430  177.4740  141.1890 C   0  0  0  0  0  0  0  0  0  0  0  0
  189.1080  178.2260  148.0240 C   0  0  0  0  0  1  0  0  0  0  0  0
  188.7490  177.9970  145.5630 C   0  0  0  0  0  3  0  0  0  0  0  0
  189.3810  177.6880  138.6150 C   0  0  0  0  0  3  0  0  0  0  0  0
  189.4840  177.6700  146.6990 C   0  0  0  0  0  0  0  0  0  0  0  0
  189.1370  178.5010  142.0770 C   0  0  0  0  0  2  0  0  0  0  0  0
  190.7060  175.9770  142.9790 C   0  0  0  0  0  3  0  0  0  0  0  0
  190.2220  176.6150  144.2240 C   0  0  0  0  0  0  0  0  0  0  0  0
  188.2620  177.8120  143.1000 C   0  0  2  0  0  3  0  0  0  0  0  0
  190.4970  176.3200  141.7010 C   0  0  0  0  0  3  0  0  0  0  0  0
  186.9500  177.6150  137.8940 C   0  0  0  0  0  3  0  0  0  0  0  0
  186.9040  175.5990  136.7500 C   0  0  1  0  0  3  0  0  0  0  0  0
  188.2600  177.0800  137.9690 N   0  0  0  0  0  0  0  0  0  0  0  0
  186.1500  176.8110  137.2190 C   0  0  0  0  0  3  0  0  0  0  0  0
  188.3220  175.8040  137.2880 C   0  0  0  0  0  2  0  0  0  0  0  0
  186.3050  174.2920  137.2730 C   0  0  1  0  0  3  0  0  0  0  0  0
  185.0280  172.3870  136.1340 N   0  0  0  0  0  2  0  0  0  0  0  0
  184.8590  174.3730  137.4060 N   0  0  0  0  0  2  0  0  0  0  0  0
  186.7160  172.9030  136.1780 S   0  0  0  0  0  0  0  0  0  0  0  0
  184.3790  173.0110  137.2750 C   0  0  0  0  0  2  0  0  0  0  0  0
  187.1290  178.6670  143.4420 N   0  0  0  0  0  2  0  0  0  0  0  0
  184.8950  178.3030  142.6500 C   0  0  0  0  0  3  0  0  0  0  0  0
  185.7930  178.1790  143.6280 C   0  0  0  0  0  0  0  0  0  0  0  0
  185.2300  178.9060  141.3250 C   0  0  0  0  0  2  0  0  0  0  0  0
  183.9950  179.4870  139.2410 C   0  0  0  0  0  2  0  0  0  0  0  0
  182.2800  177.8010  138.4260 C   0  0  2  0  0  3  0  0  0  0  0  0
  184.3030  178.3690  140.2500 C   0  0  2  0  0  3  0  0  0  0  0  0
  182.1290  177.1530  139.8160 C   0  0  0  0  0  2  0  0  0  0  0  0
  183.0180  177.8180  140.8720 C   0  0  0  0  0  2  0  0  0  0  0  0
  181.6130  180.1820  139.0320 C   0  0  0  0  0  1  0  0  0  0  0  0
  182.6940  179.2840  138.4490 C   0  0  1  0  0  3  0  0  0  0  0  0
  181.1820  177.5000  137.5030 N   0  0  0  0  0  2  0  0  0  0  0  0
  181.5880  176.5220  136.5000 C   0  0  1  0  0  3  0  0  0  0  0  0
  181.1030  175.2830  136.8590 C   0  0  0  0  0  0  0  0  0  0  0  0
  180.4970  176.1230  135.7780 O   0  0  0  0  0  0  0  0  0  0  0  0
  181.1300  174.2410  137.5630 O   0  0  0  0  0  0  0  0  0  0  0  0
  185.3690  177.5950  144.9430 C   0  0  0  0  0  2  0  0  0  0  0  0
  185.6270  178.9780  147.0170 C   0  0  0  0  0  1  0  0  0  0  0  0
  184.7200  178.6320  145.8520 C   0  0  0  0  0  2  0  0  0  0  0  0
  1  5  2  0  0  0  0
  2  7  1  0  0  0  0
  3  4  2  0  0  0  0
  4  9  1  0  0  0  0
  5 14  1  0  0  0  0
  5 10  1  0  0  0  0
  7  9  2  0  0  0  0
  8  1  2  0  0  0  0
  9  6  1  0  0  0  0
 10 13  1  0  0  0  0
 11 12  1  0  0  0  0
 12  2  2  0  0  0  0
 12  3  1  0  0  0  0
 13 25  1  1  0  0  0
 13  2  1  0  0  0  0
 14 11  2  0  0  0  0
 15 17  1  0  0  0  0
 16 18  1  1  0  0  0
 16 20  1  0  0  0  0
 16 19  1  0  0  0  0
 17  8  1  0  0  0  0
 18 15  2  0  0  0  0
 19 17  1  0  0  0  0
 20 23  1  6  0  0  0
 20 22  1  0  0  0  0
 21 23  1  0  0  0  0
 21 24  1  0  0  0  0
 24 22  1  0  0  0  0
 25 27  1  0  0  0  0
 26 27  2  0  0  0  0
 27 41  1  0  0  0  0
 28 26  1  0  0  0  0
 29 31  1  0  0  0  0
 30 36  1  1  0  0  0
 30 35  1  0  0  0  0
 30 32  1  0  0  0  0
 31 33  1  0  0  0  0
 31 28  1  1  0  0  0
 32 33  1  0  0  0  0
 35 34  1  1  0  0  0
 35 29  1  0  0  0  0
 37 38  1  0  0  0  0
 37 36  1  1  0  0  0
 38 40  2  0  0  0  0
 39 37  1  0  0  0  0
 39 38  1  0  0  0  0
 41 43  1  0  0  0  0
 43 42  1  0  0  0  0
M  END
>  <MODEL>
4

>  <REMARK>
 VINA RESULT:      -8.3      2.258      2.946
  Name = 
  10 active torsions:
  status: ('A' for Active; 'I' for Inactive)
    1  A    between atoms: C_3  and  N_7
    2  A    between atoms: C_4  and  C_24
    3  A    between atoms: C_6  and  N_28
    4  A    between atoms: C_6  and  C_35
    5  A    between atoms: N_7  and  C_9
    6  A    between atoms: C_11  and  C_12
    7  A    between atoms: C_18  and  N_27
    8  A    between atoms: C_19  and  C_24
    9  A    between atoms: N_28  and  C_41
   10  A    between atoms: C_35  and  C_40
                            x       y       z     vdW  Elec       q    Type
                         _______ _______ _______ _____ _____    ______ ____

>  <TORSDO>
F 10

$$$$
=
 OpenBabel10222415203D

 43 48  0  0  1  0  0  0  0  0999 V2000
  185.4520  179.4420  145.7740 C   0  0  0  0  0  0  0  0  0  0  0  0
  183.9430  178.7420  141.6680 C   0  0  0  0  0  0  0  0  0  0  0  0
  181.5520  178.5830  141.6180 N   0  0  0  0  0  0  0  0  0  0  0  0
  181.5320  178.7370  140.2690 C   0  0  0  0  0  3  0  0  0  0  0  0
  184.7290  179.3330  144.6960 C   0  0  0  0  0  0  0  0  0  0  0  0
  182.7140  179.0770  138.0960 C   0  0  0  0  0  1  0  0  0  0  0  0
  183.9250  178.9020  140.2730 C   0  0  0  0  0  3  0  0  0  0  0  0
  186.1840  179.5440  146.8510 C   0  0  0  0  0  3  0  0  0  0  0  0
  182.7230  178.9060  139.5720 C   0  0  0  0  0  0  0  0  0  0  0  0
  185.2910  179.8240  143.4110 C   0  0  0  0  0  2  0  0  0  0  0  0
  182.5590  178.4010  143.8050 C   0  0  0  0  0  3  0  0  0  0  0  0
  182.7050  178.5920  142.3440 C   0  0  0  0  0  0  0  0  0  0  0  0
  185.2590  178.7000  142.3990 C   0  0  2  0  0  3  0  0  0  0  0  0
  183.4090  178.6920  144.7980 C   0  0  0  0  0  3  0  0  0  0  0  0
  187.2070  177.9650  148.5520 C   0  0  0  0  0  3  0  0  0  0  0  0
  188.7040  176.8070  147.2130 C   0  0  1  0  0  3  0  0  0  0  0  0
  187.0790  178.5020  147.2480 N   0  0  0  0  0  0  0  0  0  0  0  0
  188.1160  177.0080  148.5800 C   0  0  0  0  0  3  0  0  0  0  0  0
  187.9940  177.8440  146.3390 C   0  0  0  0  0  2  0  0  0  0  0  0
  190.2200  177.0150  147.1840 C   0  0  1  0  0  3  0  0  0  0  0  0
  192.0560  176.2120  145.5900 N   0  0  0  0  0  2  0  0  0  0  0  0
  190.9370  175.8350  147.6390 N   0  0  0  0  0  2  0  0  0  0  0  0
  190.7890  177.4390  145.5140 S   0  0  0  0  0  0  0  0  0  0  0  0
  192.2360  175.8970  146.9970 C   0  0  0  0  0  2  0  0  0  0  0  0
  186.3930  178.8190  141.4880 N   0  0  0  0  0  2  0  0  0  0  0  0
  188.5870  178.1590  140.7800 C   0  0  0  0  0  3  0  0  0  0  0  0
  187.6930  178.2790  141.7620 C   0  0  0  0  0  0  0  0  0  0  0  0
  188.3070  178.6060  139.3820 C   0  0  0  0  0  2  0  0  0  0  0  0
  188.8040  176.8700  137.6650 C   0  0  0  0  0  2  0  0  0  0  0  0
  186.8100  175.6630  136.6580 C   0  0  2  0  0  3  0  0  0  0  0  0
  187.7150  177.4670  138.5720 C   0  0  2  0  0  3  0  0  0  0  0  0
  185.8280  176.7900  137.0310 C   0  0  0  0  0  2  0  0  0  0  0  0
  186.5190  177.9530  137.7520 C   0  0  0  0  0  2  0  0  0  0  0  0
  188.4150  177.0090  135.2100 C   0  0  0  0  0  1  0  0  0  0  0  0
  188.2630  176.1220  136.4360 C   0  0  1  0  0  3  0  0  0  0  0  0
  186.3070  174.7500  135.6260 N   0  0  0  0  0  2  0  0  0  0  0  0
  186.5570  173.3590  135.9870 C   0  0  1  0  0  3  0  0  0  0  0  0
  185.6890  172.9920  136.9920 C   0  0  0  0  0  0  0  0  0  0  0  0
  185.5150  172.5800  135.5640 O   0  0  0  0  0  0  0  0  0  0  0  0
  185.3120  173.0030  138.1920 O   0  0  0  0  0  0  0  0  0  0  0  0
  188.0380  177.7750  143.1320 C   0  0  0  0  0  2  0  0  0  0  0  0
  189.3330  175.6390  142.9220 C   0  0  0  0  0  1  0  0  0  0  0  0
  187.9780  176.2540  143.2180 C   0  0  0  0  0  2  0  0  0  0  0  0
  1  8  2  0  0  0  0
  2 12  1  0  0  0  0
  2 13  1  0  0  0  0
  3 12  2  0  0  0  0
  4  3  1  0  0  0  0
  5 14  1  0  0  0  0
  5  1  2  0  0  0  0
  6  9  1  0  0  0  0
  7  2  2  0  0  0  0
  8 17  1  0  0  0  0
  9  4  2  0  0  0  0
  9  7  1  0  0  0  0
 10  5  1  0  0  0  0
 11 14  2  0  0  0  0
 12 11  1  0  0  0  0
 13 25  1  6  0  0  0
 13 10  1  0  0  0  0
 15 18  2  0  0  0  0
 16 19  1  6  0  0  0
 16 18  1  0  0  0  0
 17 15  1  0  0  0  0
 19 17  1  0  0  0  0
 20 23  1  6  0  0  0
 20 16  1  0  0  0  0
 20 22  1  0  0  0  0
 21 24  1  0  0  0  0
 23 21  1  0  0  0  0
 24 22  1  0  0  0  0
 25 27  1  0  0  0  0
 26 27  2  0  0  0  0
 27 41  1  0  0  0  0
 28 26  1  0  0  0  0
 29 31  1  0  0  0  0
 30 36  1  6  0  0  0
 30 32  1  0  0  0  0
 31 28  1  6  0  0  0
 32 33  1  0  0  0  0
 33 31  1  0  0  0  0
 35 34  1  6  0  0  0
 35 30  1  0  0  0  0
 35 29  1  0  0  0  0
 37 36  1  6  0  0  0
 37 38  1  0  0  0  0
 38 40  2  0  0  0  0
 39 37  1  0  0  0  0
 39 38  1  0  0  0  0
 41 43  1  0  0  0  0
 42 43  1  0  0  0  0
M  END
>  <MODEL>
5

>  <REMARK>
 VINA RESULT:      -8.2      3.313      8.580
  Name = 
  10 active torsions:
  status: ('A' for Active; 'I' for Inactive)
    1  A    between atoms: C_3  and  N_7
    2  A    between atoms: C_4  and  C_24
    3  A    between atoms: C_6  and  N_28
    4  A    between atoms: C_6  and  C_35
    5  A    between atoms: N_7  and  C_9
    6  A    between atoms: C_11  and  C_12
    7  A    between atoms: C_18  and  N_27
    8  A    between atoms: C_19  and  C_24
    9  A    between atoms: N_28  and  C_41
   10  A    between atoms: C_35  and  C_40
                            x       y       z     vdW  Elec       q    Type
                         _______ _______ _______ _____ _____    ______ ____

>  <TORSDO>
F 10

$$$$
=
 OpenBabel10222415203D

 43 48  0  0  1  0  0  0  0  0999 V2000
  183.9870  177.4940  136.7210 C   0  0  0  0  0  0  0  0  0  0  0  0
  188.2150  176.7220  137.7960 C   0  0  0  0  0  0  0  0  0  0  0  0
  189.1570  174.9560  136.4770 N   0  0  0  0  0  0  0  0  0  0  0  0
  190.4180  175.3010  136.8470 C   0  0  0  0  0  3  0  0  0  0  0  0
  185.2340  177.1160  136.7520 C   0  0  0  0  0  0  0  0  0  0  0  0
  191.9940  176.7640  138.1150 C   0  0  0  0  0  1  0  0  0  0  0  0
  189.5180  177.0810  138.1800 C   0  0  0  0  0  3  0  0  0  0  0  0
  182.7380  177.8750  136.7010 C   0  0  0  0  0  3  0  0  0  0  0  0
  190.6190  176.3770  137.7030 C   0  0  0  0  0  0  0  0  0  0  0  0
  186.2600  178.0870  137.2150 C   0  0  0  0  0  2  0  0  0  0  0  0
  186.7490  175.1250  136.4200 C   0  0  0  0  0  3  0  0  0  0  0  0
  188.0530  175.6310  136.9050 C   0  0  0  0  0  0  0  0  0  0  0  0
  187.0370  177.4740  138.3580 C   0  0  2  0  0  3  0  0  0  0  0  0
  185.5580  175.7340  136.3670 C   0  0  0  0  0  3  0  0  0  0  0  0
  182.3080  177.5470  139.1790 C   0  0  0  0  0  3  0  0  0  0  0  0
  179.9900  177.4920  139.2050 C   0  0  1  0  0  3  0  0  0  0  0  0
  181.8860  177.7020  137.8350 N   0  0  0  0  0  0  0  0  0  0  0  0
  181.2720  177.4210  139.9870 C   0  0  0  0  0  3  0  0  0  0  0  0
  180.4410  177.6650  137.7530 C   0  0  0  0  0  2  0  0  0  0  0  0
  179.1310  176.2350  139.3650 C   0  0  1  0  0  3  0  0  0  0  0  0
  179.6480  173.8690  140.1950 N   0  0  0  0  0  2  0  0  0  0  0  0
  179.3830  175.2690  138.3080 N   0  0  0  0  0  2  0  0  0  0  0  0
  179.4300  175.4400  140.9690 S   0  0  0  0  0  0  0  0  0  0  0  0
  179.0500  173.9760  138.8750 C   0  0  0  0  0  2  0  0  0  0  0  0
  187.4500  178.5150  139.2940 N   0  0  0  0  0  2  0  0  0  0  0  0
  187.9060  178.0820  141.6080 C   0  0  0  0  0  3  0  0  0  0  0  0
  187.0680  178.5380  140.6760 C   0  0  0  0  0  0  0  0  0  0  0  0
  189.2700  177.5720  141.2780 C   0  0  0  0  0  2  0  0  0  0  0  0
  189.1750  176.6200  143.5790 C   0  0  0  0  0  2  0  0  0  0  0  0
  191.1210  177.1630  145.1160 C   0  0  2  0  0  3  0  0  0  0  0  0
  190.0660  177.3310  142.5480 C   0  0  2  0  0  3  0  0  0  0  0  0
  191.5250  178.4110  144.3090 C   0  0  0  0  0  2  0  0  0  0  0  0
  190.6090  178.6490  143.1030 C   0  0  0  0  0  2  0  0  0  0  0  0
  188.7370  177.8360  145.7070 C   0  0  0  0  0  1  0  0  0  0  0  0
  189.6270  176.8000  145.0360 C   0  0  1  0  0  3  0  0  0  0  0  0
  191.6740  177.1250  146.4740 N   0  0  0  0  0  2  0  0  0  0  0  0
  192.1490  175.7880  146.8120 C   0  0  1  0  0  3  0  0  0  0  0  0
  192.6580  175.8020  148.0920 C   0  0  0  0  0  0  0  0  0  0  0  0
  191.3210  175.2270  147.7450 O   0  0  0  0  0  0  0  0  0  0  0  0
  193.5530  176.0900  148.9280 O   0  0  0  0  0  0  0  0  0  0  0  0
  185.7010  179.0030  141.0830 C   0  0  0  0  0  2  0  0  0  0  0  0
  183.8420  178.7980  142.7520 C   0  0  0  0  0  1  0  0  0  0  0  0
  185.2850  178.4470  142.4400 C   0  0  0  0  0  2  0  0  0  0  0  0
  1  5  2  0  0  0  0
  2  7  1  0  0  0  0
  2 13  1  0  0  0  0
  3  4  2  0  0  0  0
  3 12  1  0  0  0  0
  4  9  1  0  0  0  0
  5 10  1  0  0  0  0
  8  1  2  0  0  0  0
  8 17  1  0  0  0  0
  9  6  1  0  0  0  0
  9  7  2  0  0  0  0
 10 13  1  0  0  0  0
 11 12  1  0  0  0  0
 12  2  2  0  0  0  0
 13 25  1  1  0  0  0
 14 11  2  0  0  0  0
 14  5  1  0  0  0  0
 15 18  2  0  0  0  0
 16 19  1  6  0  0  0
 16 20  1  0  0  0  0
 16 18  1  0  0  0  0
 17 15  1  0  0  0  0
 19 17  1  0  0  0  0
 20 22  1  6  0  0  0
 20 23  1  0  0  0  0
 21 23  1  0  0  0  0
 22 24  1  0  0  0  0
 24 21  1  0  0  0  0
 25 27  1  0  0  0  0
 27 41  1  0  0  0  0
 27 26  2  0  0  0  0
 28 26  1  0  0  0  0
 29 35  1  0  0  0  0
 30 36  1  1  0  0  0
 31 28  1  6  0  0  0
 31 33  1  0  0  0  0
 31 29  1  0  0  0  0
 32 30  1  0  0  0  0
 33 32  1  0  0  0  0
 35 30  1  0  0  0  0
 35 34  1  6  0  0  0
 37 36  1  1  0  0  0
 37 39  1  0  0  0  0
 37 38  1  0  0  0  0
 38 40  2  0  0  0  0
 39 38  1  0  0  0  0
 41 43  1  0  0  0  0
 43 42  1  0  0  0  0
M  END
>  <MODEL>
6

>  <REMARK>
 VINA RESULT:      -8.1      4.245      9.099
  Name = 
  10 active torsions:
  status: ('A' for Active; 'I' for Inactive)
    1  A    between atoms: C_3  and  N_7
    2  A    between atoms: C_4  and  C_24
    3  A    between atoms: C_6  and  N_28
    4  A    between atoms: C_6  and  C_35
    5  A    between atoms: N_7  and  C_9
    6  A    between atoms: C_11  and  C_12
    7  A    between atoms: C_18  and  N_27
    8  A    between atoms: C_19  and  C_24
    9  A    between atoms: N_28  and  C_41
   10  A    between atoms: C_35  and  C_40
                            x       y       z     vdW  Elec       q    Type
                         _______ _______ _______ _____ _____    ______ ____

>  <TORSDO>
F 10

$$$$
=
 OpenBabel10222415203D

 43 48  0  0  1  0  0  0  0  0999 V2000
  192.0190  177.5040  141.3580 C   0  0  0  0  0  0  0  0  0  0  0  0
  189.0610  177.4150  144.6560 C   0  0  0  0  0  0  0  0  0  0  0  0
  190.0510  176.6860  146.7140 N   0  0  0  0  0  0  0  0  0  0  0  0
  188.9870  177.1360  147.4280 C   0  0  0  0  0  3  0  0  0  0  0  0
  191.4150  177.4700  142.5120 C   0  0  0  0  0  0  0  0  0  0  0  0
  186.7550  178.2480  147.5480 C   0  0  0  0  0  1  0  0  0  0  0  0
  187.9610  177.8820  145.3920 C   0  0  0  0  0  3  0  0  0  0  0  0
  192.6160  177.5330  140.1970 C   0  0  0  0  0  3  0  0  0  0  0  0
  187.9230  177.7500  146.7770 C   0  0  0  0  0  0  0  0  0  0  0  0
  190.2490  178.3660  142.7290 C   0  0  0  0  0  2  0  0  0  0  0  0
  191.3550  176.2610  144.7270 C   0  0  0  0  0  3  0  0  0  0  0  0
  190.1360  176.8130  145.3600 C   0  0  0  0  0  0  0  0  0  0  0  0
  189.0610  177.5330  143.1540 C   0  0  2  0  0  3  0  0  0  0  0  0
  191.8900  176.5180  143.5270 C   0  0  0  0  0  3  0  0  0  0  0  0
  192.9600  176.3840  137.9610 C   0  0  0  0  0  3  0  0  0  0  0  0
  190.9710  175.2060  137.7790 C   0  0  1  0  0  3  0  0  0  0  0  0
  192.2060  176.6820  139.1240 N   0  0  0  0  0  0  0  0  0  0  0  0
  192.3000  175.5580  137.1720 C   0  0  0  0  0  3  0  0  0  0  0  0
  190.9320  175.9960  139.0890 C   0  0  0  0  0  2  0  0  0  0  0  0
  189.7920  175.5830  136.8790 C   0  0  1  0  0  3  0  0  0  0  0  0
  188.6440  174.3880  134.9270 N   0  0  0  0  0  2  0  0  0  0  0  0
  190.2320  176.0200  135.5640 N   0  0  0  0  0  2  0  0  0  0  0  0
  188.6510  174.1850  136.6810 S   0  0  0  0  0  0  0  0  0  0  0  0
  189.1270  175.7340  134.6690 C   0  0  0  0  0  2  0  0  0  0  0  0
  187.8270  178.1340  142.6550 N   0  0  0  0  0  2  0  0  0  0  0  0
  186.3100  178.6320  140.8660 C   0  0  0  0  0  3  0  0  0  0  0  0
  187.5490  178.3370  141.2630 C   0  0  0  0  0  0  0  0  0  0  0  0
  185.1800  178.8020  141.8280 C   0  0  0  0  0  2  0  0  0  0  0  0
  183.9100  178.4090  139.7200 C   0  0  0  0  0  2  0  0  0  0  0  0
  181.4930  177.6700  139.9690 C   0  0  2  0  0  3  0  0  0  0  0  0
  183.9010  178.2270  141.2470 C   0  0  2  0  0  3  0  0  0  0  0  0
  181.3760  178.2330  141.3980 C   0  0  0  0  0  2  0  0  0  0  0  0
  182.6750  178.8930  141.8750 C   0  0  0  0  0  2  0  0  0  0  0  0
  182.1030  179.8210  138.7510 C   0  0  0  0  0  1  0  0  0  0  0  0
  182.5160  178.3930  139.0740 C   0  0  1  0  0  3  0  0  0  0  0  0
  180.2030  177.4150  139.3190 N   0  0  0  0  0  2  0  0  0  0  0  0
  179.8470  176.0030  139.3900 C   0  0  1  0  0  3  0  0  0  0  0  0
  180.5180  175.3200  138.3990 C   0  0  0  0  0  0  0  0  0  0  0  0
  180.9170  175.2800  139.8410 O   0  0  0  0  0  0  0  0  0  0  0  0
  180.6850  174.9880  137.1970 O   0  0  0  0  0  0  0  0  0  0  0  0
  188.6230  178.1480  140.2330 C   0  0  0  0  0  2  0  0  0  0  0  0
  189.0510  178.9720  137.9050 C   0  0  0  0  0  1  0  0  0  0  0  0
  188.0800  178.2380  138.8110 C   0  0  0  0  0  2  0  0  0  0  0  0
  1  5  2  0  0  0  0
  2 12  2  0  0  0  0
  2  7  1  0  0  0  0
  3  4  2  0  0  0  0
  5 10  1  0  0  0  0
  5 14  1  0  0  0  0
  7  9  2  0  0  0  0
  8  1  2  0  0  0  0
  9  4  1  0  0  0  0
  9  6  1  0  0  0  0
 10 13  1  0  0  0  0
 11 12  1  0  0  0  0
 12  3  1  0  0  0  0
 13 25  1  1  0  0  0
 13  2  1  0  0  0  0
 14 11  2  0  0  0  0
 15 17  1  0  0  0  0
 16 18  1  6  0  0  0
 16 19  1  0  0  0  0
 17  8  1  0  0  0  0
 18 15  2  0  0  0  0
 19 17  1  0  0  0  0
 20 22  1  6  0  0  0
 20 16  1  0  0  0  0
 21 23  1  0  0  0  0
 23 20  1  0  0  0  0
 24 21  1  0  0  0  0
 24 22  1  0  0  0  0
 26 27  2  0  0  0  0
 26 28  1  0  0  0  0
 27 25  1  0  0  0  0
 29 31  1  0  0  0  0
 30 36  1  6  0  0  0
 30 32  1  0  0  0  0
 31 28  1  1  0  0  0
 31 33  1  0  0  0  0
 32 33  1  0  0  0  0
 35 34  1  1  0  0  0
 35 29  1  0  0  0  0
 35 30  1  0  0  0  0
 37 36  1  6  0  0  0
 37 39  1  0  0  0  0
 38 37  1  0  0  0  0
 38 39  1  0  0  0  0
 40 38  2  0  0  0  0
 41 27  1  0  0  0  0
 42 43  1  0  0  0  0
 43 41  1  0  0  0  0
M  END
>  <MODEL>
7

>  <REMARK>
 VINA RESULT:      -7.9      2.255      3.582
  Name = 
  10 active torsions:
  status: ('A' for Active; 'I' for Inactive)
    1  A    between atoms: C_3  and  N_7
    2  A    between atoms: C_4  and  C_24
    3  A    between atoms: C_6  and  N_28
    4  A    between atoms: C_6  and  C_35
    5  A    between atoms: N_7  and  C_9
    6  A    between atoms: C_11  and  C_12
    7  A    between atoms: C_18  and  N_27
    8  A    between atoms: C_19  and  C_24
    9  A    between atoms: N_28  and  C_41
   10  A    between atoms: C_35  and  C_40
                            x       y       z     vdW  Elec       q    Type
                         _______ _______ _______ _____ _____    ______ ____

>  <TORSDO>
F 10

$$$$
=
 OpenBabel10222415203D

 43 48  0  0  1  0  0  0  0  0999 V2000
  190.4000  177.4830  140.6340 C   0  0  0  0  0  0  0  0  0  0  0  0
  186.4180  178.1090  142.4740 C   0  0  0  0  0  0  0  0  0  0  0  0
  186.4000  177.4730  144.7850 N   0  0  0  0  0  0  0  0  0  0  0  0
  185.2280  178.1260  144.9940 C   0  0  0  0  0  3  0  0  0  0  0  0
  189.3970  177.6440  141.4500 C   0  0  0  0  0  0  0  0  0  0  0  0
  183.3310  179.5190  144.1640 C   0  0  0  0  0  1  0  0  0  0  0  0
  185.2070  178.7850  142.6880 C   0  0  0  0  0  3  0  0  0  0  0  0
  191.3980  177.3170  139.8090 C   0  0  0  0  0  3  0  0  0  0  0  0
  184.6130  178.8010  143.9470 C   0  0  0  0  0  0  0  0  0  0  0  0
  188.3960  178.7000  141.1440 C   0  0  0  0  0  2  0  0  0  0  0  0
  188.2900  176.6850  143.5060 C   0  0  0  0  0  3  0  0  0  0  0  0
  187.0240  177.4490  143.5740 C   0  0  0  0  0  0  0  0  0  0  0  0
  187.0210  178.0720  141.0940 C   0  0  2  0  0  3  0  0  0  0  0  0
  189.2830  176.7470  142.6100 C   0  0  0  0  0  3  0  0  0  0  0  0
  190.1440  175.7370  138.2700 C   0  0  0  0  0  3  0  0  0  0  0  0
  191.8380  175.1360  136.8060 C   0  0  1  0  0  3  0  0  0  0  0  0
  191.3090  176.4210  138.6980 N   0  0  0  0  0  0  0  0  0  0  0  0
  190.3970  174.9960  137.2080 C   0  0  0  0  0  3  0  0  0  0  0  0
  192.4300  176.0920  137.8430 C   0  0  0  0  0  2  0  0  0  0  0  0
  192.5840  173.7990  136.8070 C   0  0  1  0  0  3  0  0  0  0  0  0
  194.1590  172.6860  135.1230 N   0  0  0  0  0  2  0  0  0  0  0  0
  191.9440  172.8210  135.9410 N   0  0  0  0  0  2  0  0  0  0  0  0
  194.3070  174.0140  136.2770 S   0  0  0  0  0  0  0  0  0  0  0  0
  193.0000  171.9130  135.5350 C   0  0  0  0  0  2  0  0  0  0  0  0
  186.1900  178.7720  140.1180 N   0  0  0  0  0  2  0  0  0  0  0  0
  184.6910  178.2650  138.3160 C   0  0  0  0  0  3  0  0  0  0  0  0
  185.9360  178.2830  138.7940 C   0  0  0  0  0  0  0  0  0  0  0  0
  183.5260  178.7770  139.0980 C   0  0  0  0  0  2  0  0  0  0  0  0
  182.3740  180.9660  138.7960 C   0  0  0  0  0  2  0  0  0  0  0  0
  180.5810  181.0700  137.0000 C   0  0  2  0  0  3  0  0  0  0  0  0
  182.5920  179.5660  138.1980 C   0  0  2  0  0  3  0  0  0  0  0  0
  180.3600  179.5460  137.0090 C   0  0  0  0  0  2  0  0  0  0  0  0
  181.2630  178.8290  138.0190 C   0  0  0  0  0  2  0  0  0  0  0  0
  180.0420  181.5560  139.4410 C   0  0  0  0  0  1  0  0  0  0  0  0
  181.0810  181.6560  138.3340 C   0  0  1  0  0  3  0  0  0  0  0  0
  179.4870  181.8300  136.3860 N   0  0  0  0  0  2  0  0  0  0  0  0
  179.8020  182.1840  135.0060 C   0  0  1  0  0  3  0  0  0  0  0  0
  180.5540  183.3390  134.9990 C   0  0  0  0  0  0  0  0  0  0  0  0
  181.1340  181.9780  134.7710 O   0  0  0  0  0  0  0  0  0  0  0  0
  180.6740  184.5860  135.1130 O   0  0  0  0  0  0  0  0  0  0  0  0
  187.0490  177.7190  137.9610 C   0  0  0  0  0  2  0  0  0  0  0  0
  189.0230  179.0390  137.1600 C   0  0  0  0  0  1  0  0  0  0  0  0
  187.5590  178.7170  136.9280 C   0  0  0  0  0  2  0  0  0  0  0  0
  1  5  2  0  0  0  0
  2  7  2  0  0  0  0
  2 12  1  0  0  0  0
  3  4  1  0  0  0  0
  5 14  1  0  0  0  0
  7  9  1  0  0  0  0
  8  1  2  0  0  0  0
  9  6  1  0  0  0  0
  9  4  2  0  0  0  0
 10  5  1  0  0  0  0
 11 12  1  0  0  0  0
 12  3  2  0  0  0  0
 13 25  1  6  0  0  0
 13 10  1  0  0  0  0
 13  2  1  0  0  0  0
 14 11  2  0  0  0  0
 15 17  1  0  0  0  0
 16 20  1  0  0  0  0
 16 18  1  1  0  0  0
 16 19  1  0  0  0  0
 17  8  1  0  0  0  0
 18 15  2  0  0  0  0
 19 17  1  0  0  0  0
 20 22  1  6  0  0  0
 21 24  1  0  0  0  0
 21 23  1  0  0  0  0
 23 20  1  0  0  0  0
 24 22  1  0  0  0  0
 26 27  2  0  0  0  0
 26 28  1  0  0  0  0
 27 25  1  0  0  0  0
 30 36  1  1  0  0  0
 30 32  1  0  0  0  0
 30 35  1  0  0  0  0
 31 29  1  0  0  0  0
 31 28  1  1  0  0  0
 32 33  1  0  0  0  0
 33 31  1  0  0  0  0
 35 29  1  0  0  0  0
 35 34  1  1  0  0  0
 37 36  1  1  0  0  0
 38 37  1  0  0  0  0
 38 40  2  0  0  0  0
 39 38  1  0  0  0  0
 39 37  1  0  0  0  0
 41 27  1  0  0  0  0
 43 42  1  0  0  0  0
 43 41  1  0  0  0  0
M  END
>  <MODEL>
8

>  <REMARK>
 VINA RESULT:      -7.9      3.001      5.229
  Name = 
  10 active torsions:
  status: ('A' for Active; 'I' for Inactive)
    1  A    between atoms: C_3  and  N_7
    2  A    between atoms: C_4  and  C_24
    3  A    between atoms: C_6  and  N_28
    4  A    between atoms: C_6  and  C_35
    5  A    between atoms: N_7  and  C_9
    6  A    between atoms: C_11  and  C_12
    7  A    between atoms: C_18  and  N_27
    8  A    between atoms: C_19  and  C_24
    9  A    between atoms: N_28  and  C_41
   10  A    between atoms: C_35  and  C_40
                            x       y       z     vdW  Elec       q    Type
                         _______ _______ _______ _____ _____    ______ ____

>  <TORSDO>
F 10

$$$$
=
 OpenBabel10222415203D

 43 48  0  0  1  0  0  0  0  0999 V2000
  185.3270  175.6990  136.1740 C   0  0  0  0  0  0  0  0  0  0  0  0
  189.4860  175.9090  137.6880 C   0  0  0  0  0  0  0  0  0  0  0  0
  190.8050  174.0630  136.9140 N   0  0  0  0  0  0  0  0  0  0  0  0
  191.9570  174.6880  137.2710 C   0  0  0  0  0  3  0  0  0  0  0  0
  186.6050  175.5490  136.3820 C   0  0  0  0  0  0  0  0  0  0  0  0
  193.1640  176.6460  138.2390 C   0  0  0  0  0  1  0  0  0  0  0  0
  190.6750  176.5570  138.0570 C   0  0  0  0  0  3  0  0  0  0  0  0
  184.0460  175.8520  135.9770 C   0  0  0  0  0  3  0  0  0  0  0  0
  191.9110  175.9530  137.8450 C   0  0  0  0  0  0  0  0  0  0  0  0
  187.4260  176.7570  136.6570 C   0  0  0  0  0  2  0  0  0  0  0  0
  188.4170  173.8140  136.6550 C   0  0  0  0  0  3  0  0  0  0  0  0
  189.5770  174.6280  137.0860 C   0  0  0  0  0  0  0  0  0  0  0  0
  188.1590  176.5660  137.9660 C   0  0  2  0  0  3  0  0  0  0  0  0
  187.1630  174.1890  136.3740 C   0  0  0  0  0  3  0  0  0  0  0  0
  181.9940  174.9470  137.1650 C   0  0  0  0  0  3  0  0  0  0  0  0
  182.0130  176.2400  139.0890 C   0  0  1  0  0  3  0  0  0  0  0  0
  183.1120  175.8120  137.0590 N   0  0  0  0  0  0  0  0  0  0  0  0
  181.3420  175.1570  138.2930 C   0  0  0  0  0  3  0  0  0  0  0  0
  183.1950  176.6730  138.2200 C   0  0  0  0  0  2  0  0  0  0  0  0
  181.0850  177.4230  139.3770 C   0  0  1  0  0  3  0  0  0  0  0  0
  181.5090  179.9260  139.7070 N   0  0  0  0  0  2  0  0  0  0  0  0
  181.1570  177.8420  140.7670 N   0  0  0  0  0  2  0  0  0  0  0  0
  181.4860  178.8390  138.3150 S   0  0  0  0  0  0  0  0  0  0  0  0
  180.7900  179.2450  140.7700 C   0  0  0  0  0  2  0  0  0  0  0  0
  188.3170  177.8510  138.6400 N   0  0  0  0  0  2  0  0  0  0  0  0
  188.5480  178.0470  141.0190 C   0  0  0  0  0  3  0  0  0  0  0  0
  187.7760  178.1400  139.9360 C   0  0  0  0  0  0  0  0  0  0  0  0
  189.9950  177.6830  140.9420 C   0  0  0  0  0  2  0  0  0  0  0  0
  189.6980  176.4490  143.0860 C   0  0  0  0  0  2  0  0  0  0  0  0
  191.1020  177.2300  145.0520 C   0  0  2  0  0  3  0  0  0  0  0  0
  190.5620  177.4740  142.3340 C   0  0  2  0  0  3  0  0  0  0  0  0
  191.3240  178.6300  144.4510 C   0  0  0  0  0  2  0  0  0  0  0  0
  190.6310  178.8010  143.0940 C   0  0  0  0  0  2  0  0  0  0  0  0
  188.5580  177.2470  145.1510 C   0  0  0  0  0  1  0  0  0  0  0  0
  189.7950  176.5410  144.6170 C   0  0  1  0  0  3  0  0  0  0  0  0
  191.3700  177.1470  146.4920 N   0  0  0  0  0  2  0  0  0  0  0  0
  192.0600  175.9080  146.8300 C   0  0  1  0  0  3  0  0  0  0  0  0
  192.5300  175.9920  148.1220 C   0  0  0  0  0  0  0  0  0  0  0  0
  191.3190  175.2010  147.7370 O   0  0  0  0  0  0  0  0  0  0  0  0
  193.3430  176.4180  148.9820 O   0  0  0  0  0  0  0  0  0  0  0  0
  186.3230  178.4770  140.0990 C   0  0  0  0  0  2  0  0  0  0  0  0
  184.6040  178.6300  141.9160 C   0  0  0  0  0  1  0  0  0  0  0  0
  186.0080  179.0140  141.4910 C   0  0  0  0  0  2  0  0  0  0  0  0
  1  5  2  0  0  0  0
  2 13  1  0  0  0  0
  2  7  1  0  0  0  0
  3 12  1  0  0  0  0
  3  4  2  0  0  0  0
  4  9  1  0  0  0  0
  5 10  1  0  0  0  0
  8  1  2  0  0  0  0
  8 17  1  0  0  0  0
  9  7  2  0  0  0  0
  9  6  1  0  0  0  0
 10 13  1  0  0  0  0
 11 12  1  0  0  0  0
 12  2  2  0  0  0  0
 13 25  1  6  0  0  0
 14  5  1  0  0  0  0
 14 11  2  0  0  0  0
 15 18  2  0  0  0  0
 16 19  1  6  0  0  0
 16 20  1  0  0  0  0
 17 15  1  0  0  0  0
 17 19  1  0  0  0  0
 18 16  1  0  0  0  0
 20 23  1  6  0  0  0
 20 22  1  0  0  0  0
 21 24  1  0  0  0  0
 22 24  1  0  0  0  0
 23 21  1  0  0  0  0
 25 27  1  0  0  0  0
 27 41  1  0  0  0  0
 27 26  2  0  0  0  0
 28 26  1  0  0  0  0
 29 35  1  0  0  0  0
 30 36  1  1  0  0  0
 31 28  1  6  0  0  0
 31 29  1  0  0  0  0
 31 33  1  0  0  0  0
 32 30  1  0  0  0  0
 33 32  1  0  0  0  0
 35 30  1  0  0  0  0
 35 34  1  6  0  0  0
 37 36  1  1  0  0  0
 37 39  1  0  0  0  0
 37 38  1  0  0  0  0
 38 40  2  0  0  0  0
 39 38  1  0  0  0  0
 41 43  1  0  0  0  0
 43 42  1  0  0  0  0
M  END
>  <MODEL>
9

>  <REMARK>
 VINA RESULT:      -7.7      4.028      8.795
  Name = 
  10 active torsions:
  status: ('A' for Active; 'I' for Inactive)
    1  A    between atoms: C_3  and  N_7
    2  A    between atoms: C_4  and  C_24
    3  A    between atoms: C_6  and  N_28
    4  A    between atoms: C_6  and  C_35
    5  A    between atoms: N_7  and  C_9
    6  A    between atoms: C_11  and  C_12
    7  A    between atoms: C_18  and  N_27
    8  A    between atoms: C_19  and  C_24
    9  A    between atoms: N_28  and  C_41
   10  A    between atoms: C_35  and  C_40
                            x       y       z     vdW  Elec       q    Type
                         _______ _______ _______ _____ _____    ______ ____

>  <TORSDO>
F 10

$$$$
