=
 OpenBabel10222417043D

 55 59  0  0  1  0  0  0  0  0999 V2000
  191.5180  174.7560  137.6640 C   0  0  0  0  0  0  0  0  0  0  0  0
  193.8170  175.5140  137.5310 C   0  0  0  0  0  0  0  0  0  0  0  0
  193.5140  176.5600  138.3440 N   0  0  0  0  0  0  0  0  0  0  0  0
  192.8270  174.5950  137.1840 C   0  0  0  0  0  3  0  0  0  0  0  0
  192.2520  176.7590  138.8090 C   0  0  0  0  0  3  0  0  0  0  0  0
  191.2230  175.8800  138.4680 C   0  0  0  0  0  0  0  0  0  0  0  0
  190.9230  178.0770  140.1000 O   0  0  0  0  0  1  0  0  0  0  0  0
  187.3380  178.1360  137.4110 C   0  0  0  0  0  2  0  0  0  0  0  0
  188.2320  177.6190  138.2360 C   0  0  0  0  0  0  0  0  0  0  0  0
  188.9470  176.4790  137.9550 O   0  0  0  0  0  0  0  0  0  0  0  0
  188.6060  178.2270  139.5290 C   0  0  0  0  0  2  0  0  0  0  0  0
  189.8440  176.1680  139.0060 C   0  0  2  0  0  3  0  0  0  0  0  0
  189.7410  177.3280  140.0390 C   0  0  1  0  0  0  0  0  0  0  0  0
  190.5950  176.3550  142.1930 C   0  0  0  0  0  3  0  0  0  0  0  0
  189.3830  176.8030  141.4430 C   0  0  1  0  0  3  0  0  0  0  0  0
  188.8150  177.9320  142.3100 C   0  0  2  0  0  3  0  0  0  0  0  0
  190.7610  177.0190  143.3270 C   0  0  0  0  0  3  0  0  0  0  0  0
  189.6890  178.0260  143.5550 C   0  0  0  0  0  2  0  0  0  0  0  0
  186.3440  178.5060  142.0280 C   0  0  0  0  0  0  0  0  0  0  0  0
  186.6130  179.5400  141.3600 O   0  0  0  0  0  0  0  0  0  0  0  0
  187.4000  177.7260  142.6260 N   0  0  0  0  0  0  0  0  0  0  0  0
  187.0820  176.7590  143.6730 C   0  0  0  0  0  2  0  0  0  0  0  0
  186.7810  177.4720  144.9830 C   0  0  0  0  0  1  0  0  0  0  0  0
  184.9150  178.0890  142.1770 C   0  0  0  0  0  2  0  0  0  0  0  0
  184.0340  179.0960  141.5930 N   0  0  0  0  0  2  0  0  0  0  0  0
  183.4110  177.1490  140.4460 O   0  0  0  0  0  1  0  0  0  0  0  0
  183.3190  178.5440  140.4320 C   0  0  1  0  0  0  0  0  0  0  0  0
  181.8610  178.9060  140.5220 C   0  0  0  0  0  3  0  0  0  0  0  0
  181.0590  178.4260  141.4720 C   0  0  0  0  0  2  0  0  0  0  0  0
  184.2950  180.1600  139.0930 O   0  0  0  0  0  0  0  0  0  0  0  0
  183.8880  179.0380  139.1920 N   0  0  0  0  0  0  0  0  0  0  0  0
  195.7250  174.2150  137.0710 N   0  0  0  0  0  0  0  0  0  0  0  0
  195.1430  175.3440  137.0290 N   0  0  0  0  0  0  0  0  0  0  0  0
  197.0860  174.0570  136.5700 C   0  0  1  0  0  3  0  0  0  0  0  0
  198.1000  174.3090  137.6450 C   0  0  0  0  0  0  0  0  0  0  0  0
  199.1800  173.6610  137.6780 O   0  0  0  0  0  0  0  0  0  0  0  0
  197.8900  175.3430  138.5510 O   0  0  0  0  0  1  0  0  0  0  0  0
  197.2900  172.6940  135.8930 C   0  0  0  0  0  2  0  0  0  0  0  0
  195.5690  170.0150  137.9680 C   0  0  0  0  0  3  0  0  0  0  0  0
  194.4130  169.7870  137.2130 C   0  0  0  0  0  3  0  0  0  0  0  0
  194.2010  170.4950  136.0240 C   0  0  0  0  0  3  0  0  0  0  0  0
  196.5170  170.9450  137.5340 C   0  0  0  0  0  3  0  0  0  0  0  0
  196.3090  171.6520  136.3430 C   0  0  0  0  0  0  0  0  0  0  0  0
  195.1480  171.4280  135.5910 C   0  0  0  0  0  3  0  0  0  0  0  0
  190.5000  173.8410  137.3390 O   0  0  0  0  0  0  0  0  0  0  0  0
  189.0450  172.7910  135.6570 N   0  0  0  0  0  2  0  0  0  0  0  0
  191.3460  172.8830  135.4040 O   0  0  0  0  0  0  0  0  0  0  0  0
  190.3450  173.1870  136.1060 C   0  0  0  0  0  0  0  0  0  0  0  0
  187.3840  174.5390  135.7680 N   0  0  0  0  0  0  0  0  0  0  0  0
  184.2250  174.9520  137.5320 N   0  0  0  0  0  1  0  0  0  0  0  0
  186.2380  175.0600  136.2160 N   0  0  0  0  0  0  0  0  0  0  0  0
  185.8420  173.1250  137.5350 C   0  0  0  0  0  3  0  0  0  0  0  0
  187.8030  173.3030  136.1530 C   0  0  0  0  0  0  0  0  0  0  0  0
  185.4470  174.3810  137.0830 C   0  0  0  0  0  0  0  0  0  0  0  0
  187.0350  172.5830  137.0670 C   0  0  0  0  0  3  0  0  0  0  0  0
  1  6  1  0  0  0  0
  2  3  2  0  0  0  0
  3  5  1  0  0  0  0
  4  2  1  0  0  0  0
  4  1  2  0  0  0  0
  6  5  2  0  0  0  0
  8  9  2  0  0  0  0
  9 11  1  0  0  0  0
 10  9  1  0  0  0  0
 10 12  1  0  0  0  0
 11 13  1  0  0  0  0
 12  6  1  6  0  0  0
 12 13  1  0  0  0  0
 13  7  1  1  0  0  0
 13 15  1  0  0  0  0
 14 17  2  0  0  0  0
 15 14  1  1  0  0  0
 15 16  1  0  0  0  0
 16 21  1  1  0  0  0
 16 18  1  0  0  0  0
 17 18  1  0  0  0  0
 19 24  1  0  0  0  0
 19 21  1  0  0  0  0
 20 19  2  0  0  0  0
 21 22  1  0  0  0  0
 22 23  1  0  0  0  0
 25 24  1  0  0  0  0
 27 26  1  1  0  0  0
 27 28  1  0  0  0  0
 27 25  1  0  0  0  0
 28 29  2  0  0  0  0
 30 31  2  0  0  0  0
 31 27  1  0  0  0  0
 33 32  2  0  0  0  0
 33  2  1  0  0  0  0
 34 38  1  1  0  0  0
 34 32  1  0  0  0  0
 34 35  1  0  0  0  0
 35 36  2  0  0  0  0
 35 37  1  0  0  0  0
 38 43  1  0  0  0  0
 40 39  2  0  0  0  0
 41 40  1  0  0  0  0
 42 39  1  0  0  0  0
 43 42  2  0  0  0  0
 44 41  2  0  0  0  0
 44 43  1  0  0  0  0
 45  1  1  0  0  0  0
 46 48  1  0  0  0  0
 46 53  1  0  0  0  0
 47 48  2  0  0  0  0
 48 45  1  0  0  0  0
 49 53  2  0  0  0  0
 49 51  1  0  0  0  0
 51 54  2  0  0  0  0
 53 55  1  0  0  0  0
 54 50  1  0  0  0  0
 54 52  1  0  0  0  0
 55 52  2  0  0  0  0
M  END
>  <MODEL>
1

>  <REMARK>
 VINA RESULT:      -7.6      0.000      0.000
  Name = 
  17 active torsions:
  status: ('A' for Active; 'I' for Inactive)
    1  A    between atoms: C_1  and  C_31
    2  A    between atoms: C_2  and  C_8
    3  A    between atoms: C_7  and  O_9
    4  A    between atoms: C_8  and  N_13
    5  A    between atoms: C_8  and  C_30
    6  A    between atoms: O_9  and  C_51
    7  A    between atoms: C_10  and  C_23
    8  A    between atoms: C_12  and  C_50
    9  A    between atoms: C_14  and  N_40
   10  A    between atoms: C_17  and  N_52
   11  A    between atoms: N_18  and  C_42
   12  A    between atoms: C_23  and  N_33
   13  A    between atoms: C_30  and  C_37
   14  A    between atoms: C_31  and  N_33
   15  A    between atoms: C_31  and  N_43
   16  A    between atoms: C_34  and  N_52
   17  A    between atoms: C_45  and  C_47
                            x       y       z     vdW  Elec       q    Type
                         _______ _______ _______ _____ _____    ______ ____

>  <TORSDO>
F 17

$$$$
=
 OpenBabel10222417043D

 55 59  0  0  1  0  0  0  0  0999 V2000
  184.3790  177.8930  138.4720 C   0  0  0  0  0  0  0  0  0  0  0  0
  185.5810  178.6340  140.4440 C   0  0  0  0  0  0  0  0  0  0  0  0
  186.7540  178.5000  139.7720 N   0  0  0  0  0  0  0  0  0  0  0  0
  184.3770  178.3380  139.8030 C   0  0  0  0  0  3  0  0  0  0  0  0
  186.7950  178.0500  138.4900 C   0  0  0  0  0  3  0  0  0  0  0  0
  185.6190  177.7170  137.8170 C   0  0  0  0  0  0  0  0  0  0  0  0
  186.8460  175.2840  137.4310 O   0  0  0  0  0  1  0  0  0  0  0  0
  183.3190  175.2510  134.6650 C   0  0  0  0  0  2  0  0  0  0  0  0
  184.4050  175.7310  135.2470 C   0  0  0  0  0  0  0  0  0  0  0  0
  184.4580  176.9680  135.8440 O   0  0  0  0  0  0  0  0  0  0  0  0
  185.6720  174.9800  135.3710 C   0  0  0  0  0  2  0  0  0  0  0  0
  185.7370  177.2110  136.4010 C   0  0  2  0  0  3  0  0  0  0  0  0
  186.5640  175.9060  136.2080 C   0  0  1  0  0  0  0  0  0  0  0  0
  187.8680  177.5190  134.7890 C   0  0  0  0  0  3  0  0  0  0  0  0
  187.8750  176.1770  135.4460 C   0  0  1  0  0  3  0  0  0  0  0  0
  189.0560  176.2530  136.4180 C   0  0  2  0  0  3  0  0  0  0  0  0
  188.8570  178.2920  135.2110 C   0  0  0  0  0  3  0  0  0  0  0  0
  189.7160  177.6130  136.2180 C   0  0  0  0  0  2  0  0  0  0  0  0
  191.2540  175.0610  136.9340 C   0  0  0  0  0  0  0  0  0  0  0  0
  191.6980  176.0570  137.5650 O   0  0  0  0  0  0  0  0  0  0  0  0
  189.9910  175.1390  136.2410 N   0  0  0  0  0  0  0  0  0  0  0  0
  189.6530  174.1350  135.2370 C   0  0  0  0  0  2  0  0  0  0  0  0
  188.9800  172.9360  135.8890 C   0  0  0  0  0  1  0  0  0  0  0  0
  192.0460  173.7920  136.9270 C   0  0  0  0  0  2  0  0  0  0  0  0
  193.3510  174.0180  136.3110 N   0  0  0  0  0  2  0  0  0  0  0  0
  195.4480  173.0520  135.9030 O   0  0  0  0  0  1  0  0  0  0  0  0
  194.2830  172.9370  136.6680 C   0  0  1  0  0  0  0  0  0  0  0  0
  194.6720  173.0680  138.1160 C   0  0  0  0  0  3  0  0  0  0  0  0
  195.8480  173.5630  138.5020 C   0  0  0  0  0  2  0  0  0  0  0  0
  194.3330  170.6310  136.4790 O   0  0  0  0  0  0  0  0  0  0  0  0
  193.6860  171.6380  136.4190 N   0  0  0  0  0  0  0  0  0  0  0  0
  185.5100  178.2520  142.7660 N   0  0  0  0  0  0  0  0  0  0  0  0
  185.5650  179.0780  141.8010 N   0  0  0  0  0  0  0  0  0  0  0  0
  185.4780  178.7190  144.1470 C   0  0  1  0  0  3  0  0  0  0  0  0
  184.0770  179.0040  144.5980 C   0  0  0  0  0  0  0  0  0  0  0  0
  183.7790  178.9960  145.8220 O   0  0  0  0  0  1  0  0  0  0  0  0
  183.1230  179.3830  143.6600 O   0  0  0  0  0  0  0  0  0  0  0  0
  186.2030  177.7510  145.0930 C   0  0  0  0  0  2  0  0  0  0  0  0
  189.9950  177.5620  144.9170 C   0  0  0  0  0  3  0  0  0  0  0  0
  190.1730  176.6700  143.8530 C   0  0  0  0  0  3  0  0  0  0  0  0
  189.0610  176.1410  143.1870 C   0  0  0  0  0  3  0  0  0  0  0  0
  188.7070  177.9320  145.3120 C   0  0  0  0  0  3  0  0  0  0  0  0
  187.5920  177.4070  144.6450 C   0  0  0  0  0  0  0  0  0  0  0  0
  187.7730  176.5090  143.5840 C   0  0  0  0  0  3  0  0  0  0  0  0
  183.1820  177.5960  137.7960 O   0  0  0  0  0  0  0  0  0  0  0  0
  180.9960  178.2380  138.7230 N   0  0  0  0  0  2  0  0  0  0  0  0
  181.7300  176.0410  138.7220 O   0  0  0  0  0  0  0  0  0  0  0  0
  181.9650  177.2360  138.4000 C   0  0  0  0  0  0  0  0  0  0  0  0
  181.3240  180.6200  138.9450 N   0  0  0  0  0  0  0  0  0  0  0  0
  180.8570  183.4790  136.7390 N   0  0  0  0  0  1  0  0  0  0  0  0
  181.2880  181.8710  138.4780 N   0  0  0  0  0  0  0  0  0  0  0  0
  180.4510  181.0980  136.3940 C   0  0  0  0  0  3  0  0  0  0  0  0
  180.9540  179.5610  138.1750 C   0  0  0  0  0  0  0  0  0  0  0  0
  180.8710  182.1400  137.2160 C   0  0  0  0  0  0  0  0  0  0  0  0
  180.4900  179.7940  136.8810 C   0  0  0  0  0  3  0  0  0  0  0  0
  1  4  2  0  0  0  0
  2 33  1  0  0  0  0
  3  2  2  0  0  0  0
  4  2  1  0  0  0  0
  5  3  1  0  0  0  0
  6  1  1  0  0  0  0
  6  5  2  0  0  0  0
  8  9  2  0  0  0  0
  9 11  1  0  0  0  0
  9 10  1  0  0  0  0
 10 12  1  0  0  0  0
 11 13  1  0  0  0  0
 12  6  1  1  0  0  0
 13 12  1  0  0  0  0
 13  7  1  1  0  0  0
 14 17  2  0  0  0  0
 15 14  1  1  0  0  0
 15 13  1  0  0  0  0
 15 16  1  0  0  0  0
 16 21  1  6  0  0  0
 17 18  1  0  0  0  0
 18 16  1  0  0  0  0
 19 20  2  0  0  0  0
 21 19  1  0  0  0  0
 22 23  1  0  0  0  0
 22 21  1  0  0  0  0
 24 19  1  0  0  0  0
 25 27  1  0  0  0  0
 25 24  1  0  0  0  0
 27 26  1  6  0  0  0
 27 28  1  0  0  0  0
 28 29  2  0  0  0  0
 31 30  2  0  0  0  0
 31 27  1  0  0  0  0
 32 34  1  0  0  0  0
 33 32  2  0  0  0  0
 34 35  1  0  0  0  0
 34 38  1  1  0  0  0
 35 36  1  0  0  0  0
 37 35  2  0  0  0  0
 39 42  1  0  0  0  0
 40 39  2  0  0  0  0
 41 44  2  0  0  0  0
 41 40  1  0  0  0  0
 43 38  1  0  0  0  0
 43 42  2  0  0  0  0
 44 43  1  0  0  0  0
 45 48  1  0  0  0  0
 45  1  1  0  0  0  0
 48 47  2  0  0  0  0
 48 46  1  0  0  0  0
 50 54  1  0  0  0  0
 51 49  1  0  0  0  0
 52 55  2  0  0  0  0
 52 54  1  0  0  0  0
 53 46  1  0  0  0  0
 53 49  2  0  0  0  0
 54 51  2  0  0  0  0
 55 53  1  0  0  0  0
M  END
>  <MODEL>
2

>  <REMARK>
 VINA RESULT:      -7.3      2.801     10.447
  Name = 
  17 active torsions:
  status: ('A' for Active; 'I' for Inactive)
    1  A    between atoms: C_1  and  C_31
    2  A    between atoms: C_2  and  C_8
    3  A    between atoms: C_7  and  O_9
    4  A    between atoms: C_8  and  N_13
    5  A    between atoms: C_8  and  C_30
    6  A    between atoms: O_9  and  C_51
    7  A    between atoms: C_10  and  C_23
    8  A    between atoms: C_12  and  C_50
    9  A    between atoms: C_14  and  N_40
   10  A    between atoms: C_17  and  N_52
   11  A    between atoms: N_18  and  C_42
   12  A    between atoms: C_23  and  N_33
   13  A    between atoms: C_30  and  C_37
   14  A    between atoms: C_31  and  N_33
   15  A    between atoms: C_31  and  N_43
   16  A    between atoms: C_34  and  N_52
   17  A    between atoms: C_45  and  C_47
                            x       y       z     vdW  Elec       q    Type
                         _______ _______ _______ _____ _____    ______ ____

>  <TORSDO>
F 17

$$$$
=
 OpenBabel10222417043D

 55 59  0  0  1  0  0  0  0  0999 V2000
  184.5930  178.5140  142.0070 C   0  0  0  0  0  0  0  0  0  0  0  0
  186.6510  178.4810  140.7240 C   0  0  0  0  0  0  0  0  0  0  0  0
  185.9370  178.6740  139.5840 N   0  0  0  0  0  0  0  0  0  0  0  0
  185.9920  178.4040  141.9510 C   0  0  0  0  0  3  0  0  0  0  0  0
  184.5810  178.7620  139.5990 C   0  0  0  0  0  3  0  0  0  0  0  0
  183.8750  178.6650  140.8000 C   0  0  0  0  0  0  0  0  0  0  0  0
  182.4870  176.4060  140.0600 O   0  0  0  0  0  1  0  0  0  0  0  0
  180.1280  178.1550  143.4450 C   0  0  0  0  0  2  0  0  0  0  0  0
  180.7950  178.1450  142.3040 C   0  0  0  0  0  0  0  0  0  0  0  0
  181.8320  179.0050  142.0280 O   0  0  0  0  0  0  0  0  0  0  0  0
  180.5420  177.1830  141.2120 C   0  0  0  0  0  2  0  0  0  0  0  0
  182.3710  178.7560  140.7430 C   0  0  2  0  0  3  0  0  0  0  0  0
  181.6310  177.5070  140.1800 C   0  0  1  0  0  0  0  0  0  0  0  0
  180.9180  179.2730  138.5410 C   0  0  0  0  0  3  0  0  0  0  0  0
  180.9710  177.8070  138.8210 C   0  0  1  0  0  3  0  0  0  0  0  0
  181.8220  177.2480  137.6760 C   0  0  2  0  0  3  0  0  0  0  0  0
  181.5620  179.5990  137.4300 C   0  0  0  0  0  3  0  0  0  0  0  0
  182.1550  178.4150  136.7530 C   0  0  0  0  0  2  0  0  0  0  0  0
  181.8540  175.2450  136.0940 C   0  0  0  0  0  0  0  0  0  0  0  0
  183.0310  175.4980  135.7240 O   0  0  0  0  0  0  0  0  0  0  0  0
  181.1560  176.1460  136.9780 N   0  0  0  0  0  0  0  0  0  0  0  0
  179.7060  176.0450  137.1180 C   0  0  0  0  0  2  0  0  0  0  0  0
  179.3460  175.1010  138.2550 C   0  0  0  0  0  1  0  0  0  0  0  0
  181.1960  173.9890  135.6180 C   0  0  0  0  0  2  0  0  0  0  0  0
  182.2050  172.9770  135.3160 N   0  0  0  0  0  2  0  0  0  0  0  0
  182.0040  170.6410  135.3100 O   0  0  0  0  0  1  0  0  0  0  0  0
  181.9860  171.7720  136.1320 C   0  0  1  0  0  0  0  0  0  0  0  0
  183.1050  171.6310  137.1280 C   0  0  0  0  0  3  0  0  0  0  0  0
  184.2880  172.2250  136.9690 C   0  0  0  0  0  2  0  0  0  0  0  0
  180.6240  171.7200  138.0020 O   0  0  0  0  0  0  0  0  0  0  0  0
  180.7060  171.8350  136.8130 N   0  0  0  0  0  0  0  0  0  0  0  0
  188.6380  177.2220  140.6350 N   0  0  0  0  0  0  0  0  0  0  0  0
  188.0730  178.3600  140.6810 N   0  0  0  0  0  0  0  0  0  0  0  0
  190.0920  177.1110  140.6070 C   0  0  1  0  0  3  0  0  0  0  0  0
  190.6220  177.1830  139.2060 C   0  0  0  0  0  0  0  0  0  0  0  0
  191.7880  176.7890  138.9360 O   0  0  0  0  0  1  0  0  0  0  0  0
  189.7780  177.5910  138.1790 O   0  0  0  0  0  0  0  0  0  0  0  0
  190.7610  178.1400  141.5300 C   0  0  0  0  0  2  0  0  0  0  0  0
  191.1210  177.8710  145.3040 C   0  0  0  0  0  3  0  0  0  0  0  0
  191.5520  176.5480  145.4410 C   0  0  0  0  0  3  0  0  0  0  0  0
  191.7380  175.7480  144.3070 C   0  0  0  0  0  3  0  0  0  0  0  0
  190.8800  178.4010  144.0330 C   0  0  0  0  0  3  0  0  0  0  0  0
  191.0690  177.6050  142.8960 C   0  0  0  0  0  0  0  0  0  0  0  0
  191.4950  176.2760  143.0370 C   0  0  0  0  0  3  0  0  0  0  0  0
  183.9010  178.4490  143.2300 O   0  0  0  0  0  0  0  0  0  0  0  0
  184.1850  179.5880  145.3920 N   0  0  0  0  0  2  0  0  0  0  0  0
  182.8310  180.4470  143.7200 O   0  0  0  0  0  0  0  0  0  0  0  0
  183.6230  179.5350  144.0760 C   0  0  0  0  0  0  0  0  0  0  0  0
  185.6560  178.8570  147.1610 N   0  0  0  0  0  0  0  0  0  0  0  0
  188.5830  176.6970  147.3200 N   0  0  0  0  0  1  0  0  0  0  0  0
  186.7060  178.1740  147.6240 N   0  0  0  0  0  0  0  0  0  0  0  0
  187.1920  177.3850  145.4380 C   0  0  0  0  0  3  0  0  0  0  0  0
  185.3110  178.8280  145.8450 C   0  0  0  0  0  0  0  0  0  0  0  0
  187.4800  177.4260  146.7980 C   0  0  0  0  0  0  0  0  0  0  0  0
  186.0970  178.0960  144.9560 C   0  0  0  0  0  3  0  0  0  0  0  0
  1 45  1  0  0  0  0
  2  4  1  0  0  0  0
  3  5  1  0  0  0  0
  3  2  2  0  0  0  0
  4  1  2  0  0  0  0
  5  6  2  0  0  0  0
  6  1  1  0  0  0  0
  9  8  2  0  0  0  0
 10  9  1  0  0  0  0
 11  9  1  0  0  0  0
 12  6  1  1  0  0  0
 12 10  1  0  0  0  0
 13  7  1  6  0  0  0
 13 12  1  0  0  0  0
 13 11  1  0  0  0  0
 15 14  1  6  0  0  0
 15 13  1  0  0  0  0
 16 21  1  6  0  0  0
 16 15  1  0  0  0  0
 17 14  2  0  0  0  0
 18 17  1  0  0  0  0
 18 16  1  0  0  0  0
 19 21  1  0  0  0  0
 20 19  2  0  0  0  0
 21 22  1  0  0  0  0
 22 23  1  0  0  0  0
 24 19  1  0  0  0  0
 25 24  1  0  0  0  0
 25 27  1  0  0  0  0
 27 26  1  6  0  0  0
 27 31  1  0  0  0  0
 27 28  1  0  0  0  0
 29 28  2  0  0  0  0
 31 30  2  0  0  0  0
 32 33  2  0  0  0  0
 33  2  1  0  0  0  0
 34 32  1  0  0  0  0
 34 38  1  1  0  0  0
 35 34  1  0  0  0  0
 36 35  1  0  0  0  0
 37 35  2  0  0  0  0
 38 43  1  0  0  0  0
 39 40  1  0  0  0  0
 41 40  2  0  0  0  0
 42 39  2  0  0  0  0
 43 44  2  0  0  0  0
 43 42  1  0  0  0  0
 44 41  1  0  0  0  0
 45 48  1  0  0  0  0
 46 53  1  0  0  0  0
 47 48  2  0  0  0  0
 48 46  1  0  0  0  0
 49 51  1  0  0  0  0
 52 54  1  0  0  0  0
 53 49  2  0  0  0  0
 54 50  1  0  0  0  0
 54 51  2  0  0  0  0
 55 52  2  0  0  0  0
 55 53  1  0  0  0  0
M  END
>  <MODEL>
3

>  <REMARK>
 VINA RESULT:      -7.3      4.753      9.596
  Name = 
  17 active torsions:
  status: ('A' for Active; 'I' for Inactive)
    1  A    between atoms: C_1  and  C_31
    2  A    between atoms: C_2  and  C_8
    3  A    between atoms: C_7  and  O_9
    4  A    between atoms: C_8  and  N_13
    5  A    between atoms: C_8  and  C_30
    6  A    between atoms: O_9  and  C_51
    7  A    between atoms: C_10  and  C_23
    8  A    between atoms: C_12  and  C_50
    9  A    between atoms: C_14  and  N_40
   10  A    between atoms: C_17  and  N_52
   11  A    between atoms: N_18  and  C_42
   12  A    between atoms: C_23  and  N_33
   13  A    between atoms: C_30  and  C_37
   14  A    between atoms: C_31  and  N_33
   15  A    between atoms: C_31  and  N_43
   16  A    between atoms: C_34  and  N_52
   17  A    between atoms: C_45  and  C_47
                            x       y       z     vdW  Elec       q    Type
                         _______ _______ _______ _____ _____    ______ ____

>  <TORSDO>
F 17

$$$$
=
 OpenBabel10222417043D

 55 59  0  0  1  0  0  0  0  0999 V2000
  183.6640  177.9580  138.8030 C   0  0  0  0  0  0  0  0  0  0  0  0
  185.0880  178.6680  140.6330 C   0  0  0  0  0  0  0  0  0  0  0  0
  186.1690  178.5970  139.8120 N   0  0  0  0  0  0  0  0  0  0  0  0
  183.8210  178.3550  140.1400 C   0  0  0  0  0  3  0  0  0  0  0  0
  186.0560  178.1950  138.5190 C   0  0  0  0  0  3  0  0  0  0  0  0
  184.8130  177.8470  137.9880 C   0  0  0  0  0  0  0  0  0  0  0  0
  186.0220  175.4550  137.3590 O   0  0  0  0  0  1  0  0  0  0  0  0
  182.1790  175.4510  135.0520 C   0  0  0  0  0  2  0  0  0  0  0  0
  183.3210  175.9310  135.5140 C   0  0  0  0  0  0  0  0  0  0  0  0
  183.4280  177.1470  136.1470 O   0  0  0  0  0  0  0  0  0  0  0  0
  184.6050  175.2030  135.4500 C   0  0  0  0  0  2  0  0  0  0  0  0
  184.7620  177.3950  136.5510 C   0  0  2  0  0  3  0  0  0  0  0  0
  185.5800  176.1160  136.2060 C   0  0  1  0  0  0  0  0  0  0  0  0
  186.6060  177.7470  134.5940 C   0  0  0  0  0  3  0  0  0  0  0  0
  186.7810  176.4410  135.2980 C   0  0  1  0  0  3  0  0  0  0  0  0
  188.0470  176.6460  136.1360 C   0  0  2  0  0  3  0  0  0  0  0  0
  187.5730  178.6070  134.8770 C   0  0  0  0  0  3  0  0  0  0  0  0
  188.5800  178.0370  135.8130 C   0  0  0  0  0  2  0  0  0  0  0  0
  190.3380  175.5920  136.5310 C   0  0  0  0  0  0  0  0  0  0  0  0
  190.7520  176.6110  137.1450 O   0  0  0  0  0  0  0  0  0  0  0  0
  189.0390  175.5930  135.9050 N   0  0  0  0  0  0  0  0  0  0  0  0
  188.7130  174.5730  134.9130 C   0  0  0  0  0  2  0  0  0  0  0  0
  188.1760  173.3220  135.5930 C   0  0  0  0  0  1  0  0  0  0  0  0
  191.2060  174.3750  136.4760 C   0  0  0  0  0  2  0  0  0  0  0  0
  192.4290  174.6630  135.7310 N   0  0  0  0  0  2  0  0  0  0  0  0
  193.5320  172.8290  136.6880 O   0  0  0  0  0  1  0  0  0  0  0  0
  193.6090  174.2100  136.4840 C   0  0  1  0  0  0  0  0  0  0  0  0
  194.8510  174.4840  135.6800 C   0  0  0  0  0  3  0  0  0  0  0  0
  195.6770  173.5160  135.2800 C   0  0  0  0  0  2  0  0  0  0  0  0
  194.7340  175.1860  138.2550 O   0  0  0  0  0  0  0  0  0  0  0  0
  193.6840  174.8700  137.7740 N   0  0  0  0  0  0  0  0  0  0  0  0
  185.3600  178.2030  142.9240 N   0  0  0  0  0  0  0  0  0  0  0  0
  185.2340  179.0630  141.9970 N   0  0  0  0  0  0  0  0  0  0  0  0
  185.4930  178.6180  144.3160 C   0  0  1  0  0  3  0  0  0  0  0  0
  184.1940  179.1310  144.8620 C   0  0  0  0  0  0  0  0  0  0  0  0
  183.2980  179.5680  144.0920 O   0  0  0  0  0  0  0  0  0  0  0  0
  183.9380  179.0230  146.2250 O   0  0  0  0  0  1  0  0  0  0  0  0
  186.0860  177.5040  145.1900 C   0  0  0  0  0  2  0  0  0  0  0  0
  189.6280  177.5160  146.5690 C   0  0  0  0  0  3  0  0  0  0  0  0
  190.3790  177.5120  145.3880 C   0  0  0  0  0  3  0  0  0  0  0  0
  189.7330  177.5180  144.1460 C   0  0  0  0  0  3  0  0  0  0  0  0
  188.2320  177.5330  146.5110 C   0  0  0  0  0  3  0  0  0  0  0  0
  187.5840  177.5430  145.2690 C   0  0  0  0  0  0  0  0  0  0  0  0
  188.3370  177.5320  144.0880 C   0  0  0  0  0  3  0  0  0  0  0  0
  182.3980  177.6450  138.2750 O   0  0  0  0  0  0  0  0  0  0  0  0
  180.3120  178.9040  138.6060 N   0  0  0  0  0  2  0  0  0  0  0  0
  181.5520  179.0750  136.6560 O   0  0  0  0  0  0  0  0  0  0  0  0
  181.4510  178.5700  137.8060 C   0  0  0  0  0  0  0  0  0  0  0  0
  179.7070  177.4870  140.4640 N   0  0  0  0  0  0  0  0  0  0  0  0
  179.7410  177.8700  144.0850 N   0  0  0  0  0  1  0  0  0  0  0  0
  179.5650  177.2380  141.7690 N   0  0  0  0  0  0  0  0  0  0  0  0
  180.3570  179.4130  142.2980 C   0  0  0  0  0  3  0  0  0  0  0  0
  180.1890  178.6770  140.0140 C   0  0  0  0  0  0  0  0  0  0  0  0
  179.8880  178.1670  142.7020 C   0  0  0  0  0  0  0  0  0  0  0  0
  180.5060  179.6720  140.9390 C   0  0  0  0  0  3  0  0  0  0  0  0
  1  4  2  0  0  0  0
  2 33  1  0  0  0  0
  3  2  2  0  0  0  0
  4  2  1  0  0  0  0
  5  3  1  0  0  0  0
  6  5  2  0  0  0  0
  6  1  1  0  0  0  0
  8  9  2  0  0  0  0
  9 10  1  0  0  0  0
 10 12  1  0  0  0  0
 11  9  1  0  0  0  0
 11 13  1  0  0  0  0
 12  6  1  1  0  0  0
 13 12  1  0  0  0  0
 13  7  1  1  0  0  0
 14 17  2  0  0  0  0
 15 14  1  1  0  0  0
 15 16  1  0  0  0  0
 15 13  1  0  0  0  0
 16 21  1  6  0  0  0
 17 18  1  0  0  0  0
 18 16  1  0  0  0  0
 19 20  2  0  0  0  0
 21 19  1  0  0  0  0
 22 23  1  0  0  0  0
 22 21  1  0  0  0  0
 24 19  1  0  0  0  0
 25 24  1  0  0  0  0
 25 27  1  0  0  0  0
 27 26  1  1  0  0  0
 27 31  1  0  0  0  0
 28 27  1  0  0  0  0
 29 28  2  0  0  0  0
 31 30  2  0  0  0  0
 32 34  1  0  0  0  0
 33 32  2  0  0  0  0
 34 35  1  0  0  0  0
 34 38  1  1  0  0  0
 35 37  1  0  0  0  0
 36 35  2  0  0  0  0
 38 43  1  0  0  0  0
 40 39  2  0  0  0  0
 41 40  1  0  0  0  0
 42 39  1  0  0  0  0
 43 42  2  0  0  0  0
 44 41  2  0  0  0  0
 44 43  1  0  0  0  0
 45  1  1  0  0  0  0
 46 53  1  0  0  0  0
 47 48  2  0  0  0  0
 48 45  1  0  0  0  0
 48 46  1  0  0  0  0
 49 51  1  0  0  0  0
 51 54  2  0  0  0  0
 52 54  1  0  0  0  0
 53 49  2  0  0  0  0
 53 55  1  0  0  0  0
 54 50  1  0  0  0  0
 55 52  2  0  0  0  0
M  END
>  <MODEL>
4

>  <REMARK>
 VINA RESULT:      -7.3      2.669     10.623
  Name = 
  17 active torsions:
  status: ('A' for Active; 'I' for Inactive)
    1  A    between atoms: C_1  and  C_31
    2  A    between atoms: C_2  and  C_8
    3  A    between atoms: C_7  and  O_9
    4  A    between atoms: C_8  and  N_13
    5  A    between atoms: C_8  and  C_30
    6  A    between atoms: O_9  and  C_51
    7  A    between atoms: C_10  and  C_23
    8  A    between atoms: C_12  and  C_50
    9  A    between atoms: C_14  and  N_40
   10  A    between atoms: C_17  and  N_52
   11  A    between atoms: N_18  and  C_42
   12  A    between atoms: C_23  and  N_33
   13  A    between atoms: C_30  and  C_37
   14  A    between atoms: C_31  and  N_33
   15  A    between atoms: C_31  and  N_43
   16  A    between atoms: C_34  and  N_52
   17  A    between atoms: C_45  and  C_47
                            x       y       z     vdW  Elec       q    Type
                         _______ _______ _______ _____ _____    ______ ____

>  <TORSDO>
F 17

$$$$
=
 OpenBabel10222417043D

 55 59  0  0  1  0  0  0  0  0999 V2000
  184.6380  178.2770  140.4440 C   0  0  0  0  0  0  0  0  0  0  0  0
  186.6520  178.5120  139.1140 C   0  0  0  0  0  0  0  0  0  0  0  0
  187.3960  178.5130  140.2510 N   0  0  0  0  0  0  0  0  0  0  0  0
  185.2650  178.3880  139.1930 C   0  0  0  0  0  3  0  0  0  0  0  0
  186.8210  178.4290  141.4790 C   0  0  0  0  0  3  0  0  0  0  0  0
  185.4350  178.3300  141.6090 C   0  0  0  0  0  0  0  0  0  0  0  0
  185.6230  180.5780  143.1880 O   0  0  0  0  0  1  0  0  0  0  0  0
  181.4990  178.9870  143.9290 C   0  0  0  0  0  2  0  0  0  0  0  0
  182.8130  178.9450  143.7940 C   0  0  0  0  0  0  0  0  0  0  0  0
  183.4590  178.0630  142.9610 O   0  0  0  0  0  0  0  0  0  0  0  0
  183.7400  179.8690  144.4800 C   0  0  0  0  0  2  0  0  0  0  0  0
  184.8610  178.2560  143.0020 C   0  0  2  0  0  3  0  0  0  0  0  0
  185.1160  179.4930  143.9140 C   0  0  1  0  0  0  0  0  0  0  0  0
  185.4330  179.4000  146.4050 C   0  0  0  0  0  3  0  0  0  0  0  0
  186.0680  179.1510  145.0750 C   0  0  1  0  0  3  0  0  0  0  0  0
  186.3750  177.6500  145.0940 C   0  0  2  0  0  3  0  0  0  0  0  0
  185.3750  178.3060  147.1500 C   0  0  0  0  0  3  0  0  0  0  0  0
  185.9670  177.1250  146.4660 C   0  0  0  0  0  2  0  0  0  0  0  0
  188.1740  176.3310  143.8530 C   0  0  0  0  0  0  0  0  0  0  0  0
  187.3360  175.4850  143.4440 O   0  0  0  0  0  0  0  0  0  0  0  0
  187.7760  177.3680  144.7740 N   0  0  0  0  0  0  0  0  0  0  0  0
  188.7930  178.1110  145.5110 C   0  0  0  0  0  2  0  0  0  0  0  0
  189.0430  177.4690  146.8680 C   0  0  0  0  0  1  0  0  0  0  0  0
  189.5840  176.2560  143.3590 C   0  0  0  0  0  2  0  0  0  0  0  0
  189.9110  177.4540  142.5900 N   0  0  0  0  0  2  0  0  0  0  0  0
  191.9960  176.6850  143.3360 O   0  0  0  0  0  1  0  0  0  0  0  0
  191.3620  177.6930  142.6020 C   0  0  1  0  0  0  0  0  0  0  0  0
  191.8920  177.6350  141.1950 C   0  0  0  0  0  3  0  0  0  0  0  0
  191.1530  177.2210  140.1650 C   0  0  0  0  0  2  0  0  0  0  0  0
  192.1040  179.0530  144.3210 O   0  0  0  0  0  0  0  0  0  0  0  0
  191.6690  178.9750  143.2070 N   0  0  0  0  0  0  0  0  0  0  0  0
  187.3320  177.6500  137.0310 N   0  0  0  0  0  0  0  0  0  0  0  0
  187.2770  178.6330  137.8350 N   0  0  0  0  0  0  0  0  0  0  0  0
  187.9860  177.7820  135.7350 C   0  0  1  0  0  3  0  0  0  0  0  0
  189.3570  177.1750  135.7480 C   0  0  0  0  0  0  0  0  0  0  0  0
  190.0670  177.1620  134.7070 O   0  0  0  0  0  0  0  0  0  0  0  0
  189.8880  176.7160  136.9480 O   0  0  0  0  0  1  0  0  0  0  0  0
  187.1190  177.2230  134.5980 C   0  0  0  0  0  2  0  0  0  0  0  0
  184.8610  174.3860  135.7380 C   0  0  0  0  0  3  0  0  0  0  0  0
  183.6990  175.0860  136.0830 C   0  0  0  0  0  3  0  0  0  0  0  0
  183.6470  176.4760  135.9320 C   0  0  0  0  0  3  0  0  0  0  0  0
  185.9700  175.0730  135.2370 C   0  0  0  0  0  3  0  0  0  0  0  0
  185.9190  176.4650  135.0820 C   0  0  0  0  0  0  0  0  0  0  0  0
  184.7560  177.1650  135.4340 C   0  0  0  0  0  3  0  0  0  0  0  0
  183.2420  178.1420  140.5550 O   0  0  0  0  0  0  0  0  0  0  0  0
  181.2940  177.7460  139.1070 N   0  0  0  0  0  2  0  0  0  0  0  0
  182.6740  176.0220  139.8050 O   0  0  0  0  0  0  0  0  0  0  0  0
  182.4400  177.2590  139.8130 C   0  0  0  0  0  0  0  0  0  0  0  0
  180.5430  179.9650  139.6910 N   0  0  0  0  0  0  0  0  0  0  0  0
  180.2590  183.1200  137.8940 N   0  0  0  0  0  1  0  0  0  0  0  0
  180.2900  181.2460  139.4040 N   0  0  0  0  0  0  0  0  0  0  0  0
  181.0130  180.9170  137.1660 C   0  0  0  0  0  3  0  0  0  0  0  0
  181.0520  179.1140  138.7590 C   0  0  0  0  0  0  0  0  0  0  0  0
  180.5230  181.7500  138.1670 C   0  0  0  0  0  0  0  0  0  0  0  0
  181.2770  179.5830  137.4650 C   0  0  0  0  0  3  0  0  0  0  0  0
  1 45  1  0  0  0  0
  1  6  1  0  0  0  0
  2  4  1  0  0  0  0
  2  3  2  0  0  0  0
  3  5  1  0  0  0  0
  4  1  2  0  0  0  0
  5  6  2  0  0  0  0
  9  8  2  0  0  0  0
  9 11  1  0  0  0  0
 10 12  1  0  0  0  0
 10  9  1  0  0  0  0
 12  6  1  6  0  0  0
 12 13  1  0  0  0  0
 13  7  1  6  0  0  0
 13 11  1  0  0  0  0
 13 15  1  0  0  0  0
 14 17  2  0  0  0  0
 15 16  1  0  0  0  0
 15 14  1  1  0  0  0
 16 21  1  1  0  0  0
 16 18  1  0  0  0  0
 18 17  1  0  0  0  0
 19 21  1  0  0  0  0
 20 19  2  0  0  0  0
 21 22  1  0  0  0  0
 22 23  1  0  0  0  0
 24 19  1  0  0  0  0
 25 27  1  0  0  0  0
 25 24  1  0  0  0  0
 27 31  1  0  0  0  0
 27 26  1  1  0  0  0
 28 27  1  0  0  0  0
 29 28  2  0  0  0  0
 31 30  2  0  0  0  0
 32 33  2  0  0  0  0
 33  2  1  0  0  0  0
 34 38  1  6  0  0  0
 34 35  1  0  0  0  0
 34 32  1  0  0  0  0
 35 37  1  0  0  0  0
 36 35  2  0  0  0  0
 38 43  1  0  0  0  0
 39 40  1  0  0  0  0
 41 40  2  0  0  0  0
 42 39  2  0  0  0  0
 43 42  1  0  0  0  0
 43 44  2  0  0  0  0
 44 41  1  0  0  0  0
 46 48  1  0  0  0  0
 47 48  2  0  0  0  0
 48 45  1  0  0  0  0
 50 54  1  0  0  0  0
 51 49  1  0  0  0  0
 52 55  2  0  0  0  0
 52 54  1  0  0  0  0
 53 46  1  0  0  0  0
 53 49  2  0  0  0  0
 54 51  2  0  0  0  0
 55 53  1  0  0  0  0
M  END
>  <MODEL>
5

>  <REMARK>
 VINA RESULT:      -7.2      4.758      8.497
  Name = 
  17 active torsions:
  status: ('A' for Active; 'I' for Inactive)
    1  A    between atoms: C_1  and  C_31
    2  A    between atoms: C_2  and  C_8
    3  A    between atoms: C_7  and  O_9
    4  A    between atoms: C_8  and  N_13
    5  A    between atoms: C_8  and  C_30
    6  A    between atoms: O_9  and  C_51
    7  A    between atoms: C_10  and  C_23
    8  A    between atoms: C_12  and  C_50
    9  A    between atoms: C_14  and  N_40
   10  A    between atoms: C_17  and  N_52
   11  A    between atoms: N_18  and  C_42
   12  A    between atoms: C_23  and  N_33
   13  A    between atoms: C_30  and  C_37
   14  A    between atoms: C_31  and  N_33
   15  A    between atoms: C_31  and  N_43
   16  A    between atoms: C_34  and  N_52
   17  A    between atoms: C_45  and  C_47
                            x       y       z     vdW  Elec       q    Type
                         _______ _______ _______ _____ _____    ______ ____

>  <TORSDO>
F 17

$$$$
=
 OpenBabel10222417043D

 55 59  0  0  1  0  0  0  0  0999 V2000
  184.1980  178.4870  141.8370 C   0  0  0  0  0  0  0  0  0  0  0  0
  186.3480  178.6930  140.7340 C   0  0  0  0  0  0  0  0  0  0  0  0
  185.7150  178.8400  139.5400 N   0  0  0  0  0  0  0  0  0  0  0  0
  185.6000  178.5200  141.8990 C   0  0  0  0  0  3  0  0  0  0  0  0
  184.3610  178.7910  139.4410 C   0  0  0  0  0  3  0  0  0  0  0  0
  183.5720  178.5940  140.5750 C   0  0  0  0  0  0  0  0  0  0  0  0
  182.4590  176.1560  139.9480 O   0  0  0  0  0  1  0  0  0  0  0  0
  179.6670  177.9620  142.9530 C   0  0  0  0  0  2  0  0  0  0  0  0
  180.4290  177.9160  141.8740 C   0  0  0  0  0  0  0  0  0  0  0  0
  181.4060  178.8430  141.5990 O   0  0  0  0  0  0  0  0  0  0  0  0
  180.3590  176.8410  140.8630 C   0  0  0  0  0  2  0  0  0  0  0  0
  182.0760  178.5350  140.3900 C   0  0  2  0  0  3  0  0  0  0  0  0
  181.5010  177.1750  139.8940 C   0  0  1  0  0  0  0  0  0  0  0  0
  180.5870  178.6990  138.1170 C   0  0  0  0  0  3  0  0  0  0  0  0
  180.9390  177.2890  138.4640 C   0  0  1  0  0  3  0  0  0  0  0  0
  182.0110  176.9170  137.4350 C   0  0  2  0  0  3  0  0  0  0  0  0
  181.2550  179.1400  137.0620 C   0  0  0  0  0  3  0  0  0  0  0  0
  182.1680  178.1090  136.4990 C   0  0  0  0  0  2  0  0  0  0  0  0
  182.6820  174.8860  136.0420 C   0  0  0  0  0  0  0  0  0  0  0  0
  183.8420  175.3400  135.8550 O   0  0  0  0  0  0  0  0  0  0  0  0
  181.6870  175.6780  136.7230 N   0  0  0  0  0  0  0  0  0  0  0  0
  180.2780  175.3110  136.6260 C   0  0  0  0  0  2  0  0  0  0  0  0
  179.9210  174.2800  137.6870 C   0  0  0  0  0  1  0  0  0  0  0  0
  182.3550  173.5070  135.5620 C   0  0  0  0  0  2  0  0  0  0  0  0
  183.5820  172.7810  135.2450 N   0  0  0  0  0  2  0  0  0  0  0  0
  182.8610  171.7660  137.2310 O   0  0  0  0  0  1  0  0  0  0  0  0
  183.9340  171.8630  136.3390 C   0  0  1  0  0  0  0  0  0  0  0  0
  184.1870  170.4900  135.7790 C   0  0  0  0  0  3  0  0  0  0  0  0
  183.2040  169.6290  135.5120 C   0  0  0  0  0  2  0  0  0  0  0  0
  184.9930  172.9790  138.0680 O   0  0  0  0  0  0  0  0  0  0  0  0
  185.0990  172.3400  137.0600 N   0  0  0  0  0  0  0  0  0  0  0  0
  188.4440  177.6510  140.9810 N   0  0  0  0  0  0  0  0  0  0  0  0
  187.7740  178.7170  140.8100 N   0  0  0  0  0  0  0  0  0  0  0  0
  189.8990  177.6900  141.0740 C   0  0  1  0  0  3  0  0  0  0  0  0
  190.3760  177.2220  142.4160 C   0  0  0  0  0  0  0  0  0  0  0  0
  190.7420  176.0290  142.5910 O   0  0  0  0  0  0  0  0  0  0  0  0
  190.5150  178.1430  143.4490 O   0  0  0  0  0  1  0  0  0  0  0  0
  190.5650  176.9200  139.9250 C   0  0  0  0  0  2  0  0  0  0  0  0
  189.0930  178.4350  136.7640 C   0  0  0  0  0  3  0  0  0  0  0  0
  188.5950  177.2950  136.1240 C   0  0  0  0  0  3  0  0  0  0  0  0
  188.7260  176.0380  136.7260 C   0  0  0  0  0  3  0  0  0  0  0  0
  189.7180  178.3210  138.0090 C   0  0  0  0  0  3  0  0  0  0  0  0
  189.8480  177.0650  138.6150 C   0  0  0  0  0  0  0  0  0  0  0  0
  189.3530  175.9240  137.9690 C   0  0  0  0  0  3  0  0  0  0  0  0
  183.4160  178.3230  142.9950 O   0  0  0  0  0  0  0  0  0  0  0  0
  183.6310  179.4050  145.1930 N   0  0  0  0  0  2  0  0  0  0  0  0
  182.1540  180.1770  143.5840 O   0  0  0  0  0  0  0  0  0  0  0  0
  183.0460  179.3420  143.8880 C   0  0  0  0  0  0  0  0  0  0  0  0
  185.1760  178.7070  146.9110 N   0  0  0  0  0  0  0  0  0  0  0  0
  188.3480  176.9190  146.9210 N   0  0  0  0  0  1  0  0  0  0  0  0
  186.3020  178.1200  147.3270 N   0  0  0  0  0  0  0  0  0  0  0  0
  186.8880  177.5950  145.0870 C   0  0  0  0  0  3  0  0  0  0  0  0
  184.8410  178.7530  145.5930 C   0  0  0  0  0  0  0  0  0  0  0  0
  187.1650  177.5500  146.4500 C   0  0  0  0  0  0  0  0  0  0  0  0
  185.7150  178.2060  144.6540 C   0  0  0  0  0  3  0  0  0  0  0  0
  1  4  2  0  0  0  0
  1 45  1  0  0  0  0
  2 33  1  0  0  0  0
  2  4  1  0  0  0  0
  3  2  2  0  0  0  0
  5  3  1  0  0  0  0
  5  6  2  0  0  0  0
  6  1  1  0  0  0  0
  9  8  2  0  0  0  0
 10  9  1  0  0  0  0
 11  9  1  0  0  0  0
 12  6  1  1  0  0  0
 12 10  1  0  0  0  0
 13  7  1  1  0  0  0
 13 12  1  0  0  0  0
 13 11  1  0  0  0  0
 15 14  1  6  0  0  0
 15 13  1  0  0  0  0
 16 21  1  6  0  0  0
 16 15  1  0  0  0  0
 17 14  2  0  0  0  0
 18 17  1  0  0  0  0
 18 16  1  0  0  0  0
 19 21  1  0  0  0  0
 20 19  2  0  0  0  0
 22 21  1  0  0  0  0
 22 23  1  0  0  0  0
 24 19  1  0  0  0  0
 25 24  1  0  0  0  0
 25 27  1  0  0  0  0
 27 31  1  0  0  0  0
 27 26  1  1  0  0  0
 28 27  1  0  0  0  0
 29 28  2  0  0  0  0
 31 30  2  0  0  0  0
 32 34  1  0  0  0  0
 33 32  2  0  0  0  0
 34 38  1  6  0  0  0
 34 35  1  0  0  0  0
 35 36  2  0  0  0  0
 35 37  1  0  0  0  0
 39 42  1  0  0  0  0
 40 41  1  0  0  0  0
 40 39  2  0  0  0  0
 41 44  2  0  0  0  0
 42 43  2  0  0  0  0
 43 38  1  0  0  0  0
 44 43  1  0  0  0  0
 45 48  1  0  0  0  0
 46 53  1  0  0  0  0
 47 48  2  0  0  0  0
 48 46  1  0  0  0  0
 49 51  1  0  0  0  0
 52 54  1  0  0  0  0
 53 49  2  0  0  0  0
 54 50  1  0  0  0  0
 54 51  2  0  0  0  0
 55 52  2  0  0  0  0
 55 53  1  0  0  0  0
M  END
>  <MODEL>
6

>  <REMARK>
 VINA RESULT:      -7.1      4.828      9.514
  Name = 
  17 active torsions:
  status: ('A' for Active; 'I' for Inactive)
    1  A    between atoms: C_1  and  C_31
    2  A    between atoms: C_2  and  C_8
    3  A    between atoms: C_7  and  O_9
    4  A    between atoms: C_8  and  N_13
    5  A    between atoms: C_8  and  C_30
    6  A    between atoms: O_9  and  C_51
    7  A    between atoms: C_10  and  C_23
    8  A    between atoms: C_12  and  C_50
    9  A    between atoms: C_14  and  N_40
   10  A    between atoms: C_17  and  N_52
   11  A    between atoms: N_18  and  C_42
   12  A    between atoms: C_23  and  N_33
   13  A    between atoms: C_30  and  C_37
   14  A    between atoms: C_31  and  N_33
   15  A    between atoms: C_31  and  N_43
   16  A    between atoms: C_34  and  N_52
   17  A    between atoms: C_45  and  C_47
                            x       y       z     vdW  Elec       q    Type
                         _______ _______ _______ _____ _____    ______ ____

>  <TORSDO>
F 17

$$$$
=
 OpenBabel10222417043D

 55 59  0  0  1  0  0  0  0  0999 V2000
  183.2320  177.3890  139.3150 C   0  0  0  0  0  0  0  0  0  0  0  0
  184.7560  178.4380  140.8830 C   0  0  0  0  0  0  0  0  0  0  0  0
  185.6380  178.6550  139.8720 N   0  0  0  0  0  0  0  0  0  0  0  0
  183.5400  177.8080  140.6190 C   0  0  0  0  0  3  0  0  0  0  0  0
  185.3820  178.2430  138.6020 C   0  0  0  0  0  3  0  0  0  0  0  0
  184.1900  177.5850  138.2950 C   0  0  0  0  0  0  0  0  0  0  0  0
  185.1730  175.1200  137.5660 O   0  0  0  0  0  1  0  0  0  0  0  0
  181.1430  175.3790  135.6210 C   0  0  0  0  0  2  0  0  0  0  0  0
  182.3520  175.7810  135.9740 C   0  0  0  0  0  0  0  0  0  0  0  0
  182.5980  176.9850  136.5910 O   0  0  0  0  0  0  0  0  0  0  0  0
  183.5730  174.9680  135.7960 C   0  0  0  0  0  2  0  0  0  0  0  0
  183.9770  177.1420  136.8700 C   0  0  2  0  0  3  0  0  0  0  0  0
  184.6720  175.8110  136.4560 C   0  0  1  0  0  0  0  0  0  0  0  0
  185.5470  177.2710  134.6070 C   0  0  0  0  0  3  0  0  0  0  0  0
  185.8040  176.0580  135.4400 C   0  0  1  0  0  3  0  0  0  0  0  0
  187.1130  176.3850  136.1650 C   0  0  2  0  0  3  0  0  0  0  0  0
  186.5030  178.1790  134.7280 C   0  0  0  0  0  3  0  0  0  0  0  0
  187.5830  177.7430  135.6540 C   0  0  0  0  0  2  0  0  0  0  0  0
  189.4800  175.6150  135.5990 C   0  0  0  0  0  0  0  0  0  0  0  0
  189.8050  176.7610  135.1910 O   0  0  0  0  0  0  0  0  0  0  0  0
  188.1200  175.3360  135.9890 N   0  0  0  0  0  0  0  0  0  0  0  0
  187.6720  173.9520  136.1170 C   0  0  0  0  0  2  0  0  0  0  0  0
  187.4050  173.3500  134.7450 C   0  0  0  0  0  1  0  0  0  0  0  0
  190.5290  174.5510  135.6910 C   0  0  0  0  0  2  0  0  0  0  0  0
  191.8270  175.1500  135.9900 N   0  0  0  0  0  2  0  0  0  0  0  0
  191.2920  173.9750  137.9460 O   0  0  0  0  0  1  0  0  0  0  0  0
  192.2580  174.7910  137.3500 C   0  0  1  0  0  0  0  0  0  0  0  0
  193.5390  174.0040  137.2780 C   0  0  0  0  0  3  0  0  0  0  0  0
  194.7180  174.5710  137.0200 C   0  0  0  0  0  2  0  0  0  0  0  0
  191.5500  176.7670  138.3220 O   0  0  0  0  0  0  0  0  0  0  0  0
  192.4370  175.9770  138.1650 N   0  0  0  0  0  0  0  0  0  0  0  0
  185.1490  178.0110  143.1640 N   0  0  0  0  0  0  0  0  0  0  0  0
  185.0600  178.8520  142.2150 N   0  0  0  0  0  0  0  0  0  0  0  0
  185.4440  178.4480  144.5240 C   0  0  1  0  0  3  0  0  0  0  0  0
  184.2180  178.9710  145.2110 C   0  0  0  0  0  0  0  0  0  0  0  0
  183.2630  179.4530  144.5460 O   0  0  0  0  0  0  0  0  0  0  0  0
  184.0940  178.8240  146.5880 O   0  0  0  0  0  1  0  0  0  0  0  0
  186.1370  177.3470  145.3400 C   0  0  0  0  0  2  0  0  0  0  0  0
  189.7810  177.5140  146.4070 C   0  0  0  0  0  3  0  0  0  0  0  0
  190.4290  177.4500  145.1690 C   0  0  0  0  0  3  0  0  0  0  0  0
  189.6820  177.3640  143.9890 C   0  0  0  0  0  3  0  0  0  0  0  0
  188.3850  177.5000  146.4680 C   0  0  0  0  0  3  0  0  0  0  0  0
  187.6340  177.4190  145.2880 C   0  0  0  0  0  0  0  0  0  0  0  0
  188.2860  177.3470  144.0490 C   0  0  0  0  0  3  0  0  0  0  0  0
  182.0100  176.7600  139.0160 O   0  0  0  0  0  0  0  0  0  0  0  0
  180.0600  177.9340  139.9480 N   0  0  0  0  0  2  0  0  0  0  0  0
  180.5620  175.7450  140.5180 O   0  0  0  0  0  0  0  0  0  0  0  0
  180.8660  176.7560  139.8310 C   0  0  0  0  0  0  0  0  0  0  0  0
  180.3710  180.2860  139.5010 N   0  0  0  0  0  0  0  0  0  0  0  0
  180.1110  182.3760  136.5310 N   0  0  0  0  0  1  0  0  0  0  0  0
  180.3790  181.3480  138.6910 N   0  0  0  0  0  0  0  0  0  0  0  0
  179.7340  179.9880  136.8540 C   0  0  0  0  0  3  0  0  0  0  0  0
  180.0700  179.0410  139.0410 C   0  0  0  0  0  0  0  0  0  0  0  0
  180.0800  181.2320  137.3740 C   0  0  0  0  0  0  0  0  0  0  0  0
  179.7260  178.8810  137.6990 C   0  0  0  0  0  3  0  0  0  0  0  0
  1  4  2  0  0  0  0
  2 33  1  0  0  0  0
  3  2  2  0  0  0  0
  4  2  1  0  0  0  0
  5  3  1  0  0  0  0
  6  5  2  0  0  0  0
  6  1  1  0  0  0  0
  8  9  2  0  0  0  0
  9 10  1  0  0  0  0
 10 12  1  0  0  0  0
 11  9  1  0  0  0  0
 11 13  1  0  0  0  0
 12  6  1  1  0  0  0
 13 12  1  0  0  0  0
 13  7  1  1  0  0  0
 14 17  2  0  0  0  0
 15 14  1  6  0  0  0
 15 16  1  0  0  0  0
 15 13  1  0  0  0  0
 16 21  1  6  0  0  0
 17 18  1  0  0  0  0
 18 16  1  0  0  0  0
 19 24  1  0  0  0  0
 19 21  1  0  0  0  0
 20 19  2  0  0  0  0
 21 22  1  0  0  0  0
 23 22  1  0  0  0  0
 24 25  1  0  0  0  0
 25 27  1  0  0  0  0
 27 26  1  1  0  0  0
 27 31  1  0  0  0  0
 28 27  1  0  0  0  0
 29 28  2  0  0  0  0
 31 30  2  0  0  0  0
 32 34  1  0  0  0  0
 33 32  2  0  0  0  0
 34 35  1  0  0  0  0
 34 38  1  1  0  0  0
 35 37  1  0  0  0  0
 36 35  2  0  0  0  0
 39 42  1  0  0  0  0
 40 39  2  0  0  0  0
 41 44  2  0  0  0  0
 41 40  1  0  0  0  0
 43 38  1  0  0  0  0
 43 42  2  0  0  0  0
 44 43  1  0  0  0  0
 45  1  1  0  0  0  0
 45 48  1  0  0  0  0
 48 46  1  0  0  0  0
 48 47  2  0  0  0  0
 50 54  1  0  0  0  0
 51 49  1  0  0  0  0
 52 54  1  0  0  0  0
 52 55  2  0  0  0  0
 53 49  2  0  0  0  0
 53 46  1  0  0  0  0
 54 51  2  0  0  0  0
 55 53  1  0  0  0  0
M  END
>  <MODEL>
7

>  <REMARK>
 VINA RESULT:      -7.1      2.919     10.489
  Name = 
  17 active torsions:
  status: ('A' for Active; 'I' for Inactive)
    1  A    between atoms: C_1  and  C_31
    2  A    between atoms: C_2  and  C_8
    3  A    between atoms: C_7  and  O_9
    4  A    between atoms: C_8  and  N_13
    5  A    between atoms: C_8  and  C_30
    6  A    between atoms: O_9  and  C_51
    7  A    between atoms: C_10  and  C_23
    8  A    between atoms: C_12  and  C_50
    9  A    between atoms: C_14  and  N_40
   10  A    between atoms: C_17  and  N_52
   11  A    between atoms: N_18  and  C_42
   12  A    between atoms: C_23  and  N_33
   13  A    between atoms: C_30  and  C_37
   14  A    between atoms: C_31  and  N_33
   15  A    between atoms: C_31  and  N_43
   16  A    between atoms: C_34  and  N_52
   17  A    between atoms: C_45  and  C_47
                            x       y       z     vdW  Elec       q    Type
                         _______ _______ _______ _____ _____    ______ ____

>  <TORSDO>
F 17

$$$$
=
 OpenBabel10222417043D

 55 59  0  0  1  0  0  0  0  0999 V2000
  184.6910  178.5060  141.9140 C   0  0  0  0  0  0  0  0  0  0  0  0
  186.5270  178.6640  140.3380 C   0  0  0  0  0  0  0  0  0  0  0  0
  185.6740  179.1550  139.4010 N   0  0  0  0  0  0  0  0  0  0  0  0
  186.0500  178.3380  141.6080 C   0  0  0  0  0  3  0  0  0  0  0  0
  184.3480  179.3090  139.6560 C   0  0  0  0  0  3  0  0  0  0  0  0
  183.8200  178.9720  140.9030 C   0  0  0  0  0  0  0  0  0  0  0  0
  182.1610  176.9150  140.1330 O   0  0  0  0  0  1  0  0  0  0  0  0
  180.5180  178.3180  144.0600 C   0  0  0  0  0  2  0  0  0  0  0  0
  180.9900  178.4260  142.8300 C   0  0  0  0  0  0  0  0  0  0  0  0
  182.0330  179.2560  142.4920 O   0  0  0  0  0  0  0  0  0  0  0  0
  180.4910  177.6360  141.6860 C   0  0  0  0  0  2  0  0  0  0  0  0
  182.3380  179.1540  141.1130 C   0  0  2  0  0  3  0  0  0  0  0  0
  181.4220  178.0360  140.5330 C   0  0  1  0  0  0  0  0  0  0  0  0
  180.1590  179.9740  139.5510 C   0  0  0  0  0  3  0  0  0  0  0  0
  180.5780  178.5530  139.3530 C   0  0  1  0  0  3  0  0  0  0  0  0
  181.4170  178.5970  138.0710 C   0  0  2  0  0  3  0  0  0  0  0  0
  180.5950  180.7680  138.5850 C   0  0  0  0  0  3  0  0  0  0  0  0
  181.3760  180.0300  137.5550 C   0  0  0  0  0  2  0  0  0  0  0  0
  181.8520  176.9630  136.1590 C   0  0  0  0  0  0  0  0  0  0  0  0
  183.0430  177.3510  136.0370 O   0  0  0  0  0  0  0  0  0  0  0  0
  180.9570  177.6240  137.0770 N   0  0  0  0  0  0  0  0  0  0  0  0
  179.5160  177.4160  136.9610 C   0  0  0  0  0  2  0  0  0  0  0  0
  178.9370  178.2960  135.8640 C   0  0  0  0  0  1  0  0  0  0  0  0
  181.3820  175.7950  135.3510 C   0  0  0  0  0  2  0  0  0  0  0  0
  182.4920  174.8800  135.0980 N   0  0  0  0  0  2  0  0  0  0  0  0
  181.9980  172.5910  134.9780 O   0  0  0  0  0  1  0  0  0  0  0  0
  182.3140  173.6320  135.8570 C   0  0  1  0  0  0  0  0  0  0  0  0
  183.6050  173.2750  136.5430 C   0  0  0  0  0  3  0  0  0  0  0  0
  184.0790  173.9600  137.5840 C   0  0  0  0  0  2  0  0  0  0  0  0
  180.8240  172.8190  137.4290 O   0  0  0  0  0  0  0  0  0  0  0  0
  181.2440  173.7660  136.8270 N   0  0  0  0  0  0  0  0  0  0  0  0
  188.3020  178.2200  138.8570 N   0  0  0  0  0  0  0  0  0  0  0  0
  187.9110  178.4810  140.0380 N   0  0  0  0  0  0  0  0  0  0  0  0
  189.7170  178.0190  138.5670 C   0  0  1  0  0  3  0  0  0  0  0  0
  190.3710  177.1470  139.5960 C   0  0  0  0  0  0  0  0  0  0  0  0
  190.2760  175.8920  139.5340 O   0  0  0  0  0  0  0  0  0  0  0  0
  191.1770  177.7290  140.5690 O   0  0  0  0  0  1  0  0  0  0  0  0
  189.9380  177.4920  137.1410 C   0  0  0  0  0  2  0  0  0  0  0  0
  187.1140  175.1570  136.1310 C   0  0  0  0  0  3  0  0  0  0  0  0
  186.3030  176.0200  135.3850 C   0  0  0  0  0  3  0  0  0  0  0  0
  186.6810  177.3550  135.2010 C   0  0  0  0  0  3  0  0  0  0  0  0
  188.3070  175.6250  136.6880 C   0  0  0  0  0  3  0  0  0  0  0  0
  188.6890  176.9600  136.5030 C   0  0  0  0  0  0  0  0  0  0  0  0
  187.8720  177.8240  135.7610 C   0  0  0  0  0  3  0  0  0  0  0  0
  184.1820  178.1950  143.1880 O   0  0  0  0  0  0  0  0  0  0  0  0
  185.6830  178.5180  145.1080 N   0  0  0  0  0  2  0  0  0  0  0  0
  183.7170  179.7200  144.8720 O   0  0  0  0  0  0  0  0  0  0  0  0
  184.4970  178.8600  144.3840 C   0  0  0  0  0  0  0  0  0  0  0  0
  186.6220  176.5980  143.9850 N   0  0  0  0  0  0  0  0  0  0  0  0
  189.9840  175.6070  143.0000 N   0  0  0  0  0  1  0  0  0  0  0  0
  187.6440  175.8990  143.4860 N   0  0  0  0  0  0  0  0  0  0  0  0
  189.1690  177.5840  144.1730 C   0  0  0  0  0  3  0  0  0  0  0  0
  186.8080  177.8100  144.5750 C   0  0  0  0  0  0  0  0  0  0  0  0
  188.9160  176.3650  143.5530 C   0  0  0  0  0  0  0  0  0  0  0  0
  188.1030  178.3140  144.6930 C   0  0  0  0  0  3  0  0  0  0  0  0
  1 45  1  0  0  0  0
  2  4  1  0  0  0  0
  3  5  1  0  0  0  0
  3  2  2  0  0  0  0
  4  1  2  0  0  0  0
  5  6  2  0  0  0  0
  6  1  1  0  0  0  0
  9  8  2  0  0  0  0
 10  9  1  0  0  0  0
 11  9  1  0  0  0  0
 12  6  1  1  0  0  0
 12 10  1  0  0  0  0
 13  7  1  6  0  0  0
 13 12  1  0  0  0  0
 13 11  1  0  0  0  0
 15 14  1  1  0  0  0
 15 13  1  0  0  0  0
 16 21  1  6  0  0  0
 16 15  1  0  0  0  0
 17 14  2  0  0  0  0
 18 16  1  0  0  0  0
 18 17  1  0  0  0  0
 19 21  1  0  0  0  0
 20 19  2  0  0  0  0
 22 21  1  0  0  0  0
 23 22  1  0  0  0  0
 24 19  1  0  0  0  0
 25 24  1  0  0  0  0
 25 27  1  0  0  0  0
 27 26  1  6  0  0  0
 27 28  1  0  0  0  0
 27 31  1  0  0  0  0
 28 29  2  0  0  0  0
 31 30  2  0  0  0  0
 32 33  2  0  0  0  0
 33  2  1  0  0  0  0
 34 38  1  6  0  0  0
 34 32  1  0  0  0  0
 34 35  1  0  0  0  0
 35 37  1  0  0  0  0
 36 35  2  0  0  0  0
 39 42  1  0  0  0  0
 40 39  2  0  0  0  0
 41 40  1  0  0  0  0
 41 44  2  0  0  0  0
 43 42  2  0  0  0  0
 43 38  1  0  0  0  0
 44 43  1  0  0  0  0
 45 48  1  0  0  0  0
 48 47  2  0  0  0  0
 48 46  1  0  0  0  0
 49 53  2  0  0  0  0
 50 54  1  0  0  0  0
 51 54  2  0  0  0  0
 51 49  1  0  0  0  0
 52 55  2  0  0  0  0
 53 55  1  0  0  0  0
 53 46  1  0  0  0  0
 54 52  1  0  0  0  0
M  END
>  <MODEL>
8

>  <REMARK>
 VINA RESULT:      -6.9      4.743      9.063
  Name = 
  17 active torsions:
  status: ('A' for Active; 'I' for Inactive)
    1  A    between atoms: C_1  and  C_31
    2  A    between atoms: C_2  and  C_8
    3  A    between atoms: C_7  and  O_9
    4  A    between atoms: C_8  and  N_13
    5  A    between atoms: C_8  and  C_30
    6  A    between atoms: O_9  and  C_51
    7  A    between atoms: C_10  and  C_23
    8  A    between atoms: C_12  and  C_50
    9  A    between atoms: C_14  and  N_40
   10  A    between atoms: C_17  and  N_52
   11  A    between atoms: N_18  and  C_42
   12  A    between atoms: C_23  and  N_33
   13  A    between atoms: C_30  and  C_37
   14  A    between atoms: C_31  and  N_33
   15  A    between atoms: C_31  and  N_43
   16  A    between atoms: C_34  and  N_52
   17  A    between atoms: C_45  and  C_47
                            x       y       z     vdW  Elec       q    Type
                         _______ _______ _______ _____ _____    ______ ____

>  <TORSDO>
F 17

$$$$
=
 OpenBabel10222417043D

 55 59  0  0  1  0  0  0  0  0999 V2000
  183.5680  177.1260  137.8030 C   0  0  0  0  0  0  0  0  0  0  0  0
  183.8370  178.6310  139.6850 C   0  0  0  0  0  0  0  0  0  0  0  0
  185.1290  178.8450  139.3220 N   0  0  0  0  0  0  0  0  0  0  0  0
  183.0370  177.7740  138.9290 C   0  0  0  0  0  3  0  0  0  0  0  0
  185.6810  178.2170  138.2510 C   0  0  0  0  0  3  0  0  0  0  0  0
  184.9280  177.3310  137.4790 C   0  0  0  0  0  0  0  0  0  0  0  0
  187.0450  175.6600  138.0290 O   0  0  0  0  0  1  0  0  0  0  0  0
  184.6860  173.5350  134.8660 C   0  0  0  0  0  2  0  0  0  0  0  0
  185.3060  174.5480  135.4480 C   0  0  0  0  0  0  0  0  0  0  0  0
  184.7200  175.7740  135.6550 O   0  0  0  0  0  0  0  0  0  0  0  0
  186.6790  174.4700  135.9880 C   0  0  0  0  0  2  0  0  0  0  0  0
  185.6080  176.6580  136.3140 C   0  0  2  0  0  3  0  0  0  0  0  0
  186.8890  175.8390  136.6490 C   0  0  1  0  0  0  0  0  0  0  0  0
  187.8600  177.8560  135.5070 C   0  0  0  0  0  3  0  0  0  0  0  0
  188.1500  176.5000  136.0620 C   0  0  1  0  0  3  0  0  0  0  0  0
  189.1780  176.7700  137.1650 C   0  0  2  0  0  3  0  0  0  0  0  0
  188.5730  178.8050  136.0930 C   0  0  0  0  0  3  0  0  0  0  0  0
  189.4820  178.2640  137.1400 C   0  0  0  0  0  2  0  0  0  0  0  0
  191.4430  175.9290  137.9910 C   0  0  0  0  0  0  0  0  0  0  0  0
  191.4750  176.7860  138.9140 O   0  0  0  0  0  0  0  0  0  0  0  0
  190.3800  175.9450  137.0160 N   0  0  0  0  0  0  0  0  0  0  0  0
  190.5290  175.2010  135.7690 C   0  0  0  0  0  2  0  0  0  0  0  0
  191.3890  175.9790  134.7840 C   0  0  0  0  0  1  0  0  0  0  0  0
  192.5120  174.8850  137.9300 C   0  0  0  0  0  2  0  0  0  0  0  0
  193.8300  175.5160  137.9120 N   0  0  0  0  0  2  0  0  0  0  0  0
  195.6100  174.1730  138.6340 O   0  0  0  0  0  1  0  0  0  0  0  0
  194.8600  174.5450  137.5140 C   0  0  1  0  0  0  0  0  0  0  0  0
  194.1990  173.3050  136.9750 C   0  0  0  0  0  3  0  0  0  0  0  0
  194.8630  172.3800  136.2810 C   0  0  0  0  0  2  0  0  0  0  0  0
  196.8000  175.6060  136.8330 O   0  0  0  0  0  0  0  0  0  0  0  0
  195.7520  175.1160  136.5220 N   0  0  0  0  0  0  0  0  0  0  0  0
  183.0520  178.6340  141.9050 N   0  0  0  0  0  0  0  0  0  0  0  0
  183.2870  179.2770  140.8340 N   0  0  0  0  0  0  0  0  0  0  0  0
  182.4750  179.3020  143.0650 C   0  0  1  0  0  3  0  0  0  0  0  0
  180.9820  179.3940  142.9600 C   0  0  0  0  0  0  0  0  0  0  0  0
  180.3930  180.5010  143.0830 O   0  0  0  0  0  1  0  0  0  0  0  0
  180.2530  178.2600  142.6190 O   0  0  0  0  0  0  0  0  0  0  0  0
  182.9210  178.6480  144.3810 C   0  0  0  0  0  2  0  0  0  0  0  0
  186.5170  177.9930  143.3360 C   0  0  0  0  0  3  0  0  0  0  0  0
  187.1610  177.9750  144.5780 C   0  0  0  0  0  3  0  0  0  0  0  0
  186.4250  178.1640  145.7540 C   0  0  0  0  0  3  0  0  0  0  0  0
  185.1350  178.1930  143.2670 C   0  0  0  0  0  3  0  0  0  0  0  0
  184.3950  178.3770  144.4420 C   0  0  0  0  0  0  0  0  0  0  0  0
  185.0440  178.3660  145.6850 C   0  0  0  0  0  3  0  0  0  0  0  0
  182.7840  176.2630  137.0160 O   0  0  0  0  0  0  0  0  0  0  0  0
  180.3430  176.0520  136.7960 N   0  0  0  0  0  2  0  0  0  0  0  0
  181.5970  177.3530  135.3470 O   0  0  0  0  0  0  0  0  0  0  0  0
  181.5890  176.6060  136.3610 C   0  0  0  0  0  0  0  0  0  0  0  0
  180.1160  174.0940  138.1910 N   0  0  0  0  0  0  0  0  0  0  0  0
  179.3880  173.5400  141.7150 N   0  0  0  0  0  1  0  0  0  0  0  0
  179.8840  173.4910  139.3600 N   0  0  0  0  0  0  0  0  0  0  0  0
  179.5590  175.5950  140.4120 C   0  0  0  0  0  3  0  0  0  0  0  0
  180.1020  175.4500  138.0730 C   0  0  0  0  0  0  0  0  0  0  0  0
  179.6160  174.2070  140.4810 C   0  0  0  0  0  0  0  0  0  0  0  0
  179.8020  176.2230  139.1940 C   0  0  0  0  0  3  0  0  0  0  0  0
  1  4  2  0  0  0  0
  2 33  1  0  0  0  0
  3  2  2  0  0  0  0
  4  2  1  0  0  0  0
  5  3  1  0  0  0  0
  6  1  1  0  0  0  0
  6  5  2  0  0  0  0
  8  9  2  0  0  0  0
  9 10  1  0  0  0  0
  9 11  1  0  0  0  0
 10 12  1  0  0  0  0
 11 13  1  0  0  0  0
 12 13  1  0  0  0  0
 12  6  1  1  0  0  0
 13  7  1  1  0  0  0
 14 17  2  0  0  0  0
 15 14  1  1  0  0  0
 15 13  1  0  0  0  0
 15 16  1  0  0  0  0
 16 21  1  6  0  0  0
 17 18  1  0  0  0  0
 18 16  1  0  0  0  0
 19 20  2  0  0  0  0
 21 19  1  0  0  0  0
 22 21  1  0  0  0  0
 23 22  1  0  0  0  0
 24 19  1  0  0  0  0
 25 24  1  0  0  0  0
 27 25  1  0  0  0  0
 27 26  1  1  0  0  0
 28 27  1  0  0  0  0
 29 28  2  0  0  0  0
 31 30  2  0  0  0  0
 31 27  1  0  0  0  0
 32 34  1  0  0  0  0
 33 32  2  0  0  0  0
 34 38  1  1  0  0  0
 35 34  1  0  0  0  0
 35 36  1  0  0  0  0
 37 35  2  0  0  0  0
 38 43  1  0  0  0  0
 39 40  1  0  0  0  0
 40 41  2  0  0  0  0
 42 39  2  0  0  0  0
 42 43  1  0  0  0  0
 43 44  2  0  0  0  0
 44 41  1  0  0  0  0
 45  1  1  0  0  0  0
 46 53  1  0  0  0  0
 47 48  2  0  0  0  0
 48 46  1  0  0  0  0
 48 45  1  0  0  0  0
 49 51  1  0  0  0  0
 51 54  2  0  0  0  0
 52 54  1  0  0  0  0
 53 49  2  0  0  0  0
 53 55  1  0  0  0  0
 54 50  1  0  0  0  0
 55 52  2  0  0  0  0
M  END
>  <MODEL>
9

>  <REMARK>
 VINA RESULT:      -6.8      2.862     10.978
  Name = 
  17 active torsions:
  status: ('A' for Active; 'I' for Inactive)
    1  A    between atoms: C_1  and  C_31
    2  A    between atoms: C_2  and  C_8
    3  A    between atoms: C_7  and  O_9
    4  A    between atoms: C_8  and  N_13
    5  A    between atoms: C_8  and  C_30
    6  A    between atoms: O_9  and  C_51
    7  A    between atoms: C_10  and  C_23
    8  A    between atoms: C_12  and  C_50
    9  A    between atoms: C_14  and  N_40
   10  A    between atoms: C_17  and  N_52
   11  A    between atoms: N_18  and  C_42
   12  A    between atoms: C_23  and  N_33
   13  A    between atoms: C_30  and  C_37
   14  A    between atoms: C_31  and  N_33
   15  A    between atoms: C_31  and  N_43
   16  A    between atoms: C_34  and  N_52
   17  A    between atoms: C_45  and  C_47
                            x       y       z     vdW  Elec       q    Type
                         _______ _______ _______ _____ _____    ______ ____

>  <TORSDO>
F 17

$$$$
