=
 OpenBabel10222418213D

 34 38  0  0  1  0  0  0  0  0999 V2000
  182.0460  178.7590  141.5730 N   0  0  0  0  0  0  0  0  0  0  0  0
  185.5740  178.4410  142.1680 C   0  0  0  0  0  3  0  0  0  0  0  0
  184.1030  178.8150  139.9270 S   0  0  0  0  0  0  0  0  0  0  0  0
  185.2770  178.3880  144.7290 C   0  0  0  0  0  0  0  0  0  0  0  0
  182.3520  178.7770  140.3190 C   0  0  0  0  0  0  0  0  0  0  0  0
  185.8940  178.1400  145.9910 C   0  0  0  0  0  0  0  0  0  0  0  0
  186.0390  178.1880  143.5460 C   0  0  0  0  0  0  0  0  0  0  0  0
  187.2300  177.6920  146.0710 C   0  0  0  0  0  0  0  0  0  0  0  0
  189.1960  177.1020  144.7450 N   0  0  0  0  0  0  0  0  0  0  0  0
  187.3260  177.7600  143.6910 N   0  0  0  0  0  0  0  0  0  0  0  0
  188.2400  177.5030  142.7350 C   0  0  0  0  0  3  0  0  0  0  0  0
  183.1510  178.7200  142.4250 N   0  0  0  0  0  0  0  0  0  0  0  0
  184.3640  178.7010  141.6900 C   0  0  0  0  0  0  0  0  0  0  0  0
  185.1210  178.3500  147.2630 C   0  0  0  0  0  1  0  0  0  0  0  0
  183.8810  178.8740  144.7670 C   0  0  0  0  0  3  0  0  0  0  0  0
  189.3840  177.0980  143.4060 C   0  0  0  0  0  0  0  0  0  0  0  0
  182.9730  179.0080  143.8080 C   0  0  0  0  0  3  0  0  0  0  0  0
  187.9170  177.5140  144.8700 C   0  0  0  0  0  0  0  0  0  0  0  0
  181.3040  178.8160  139.2670 C   0  0  0  0  0  1  0  0  0  0  0  0
  190.6190  176.7240  142.7810 N   0  0  0  0  0  0  0  0  0  0  0  0
  191.5290  175.8070  143.4450 C   0  0  0  0  0  1  0  0  0  0  0  0
  191.0310  177.3240  141.5210 C   0  0  0  0  0  2  0  0  0  0  0  0
  189.0780  177.3320  137.0240 C   0  0  2  0  0  3  0  0  0  0  0  0
  190.6650  176.4500  140.4180 N   0  0  0  0  0  2  0  0  0  0  0  0
  189.4740  175.8200  137.9600 S   0  0  0  0  0  0  0  0  0  0  0  0
  188.7100  178.4260  138.0320 C   0  0  1  0  0  3  0  0  0  0  0  0
  189.8590  176.8960  139.3280 C   0  0  0  0  0  0  0  0  0  0  0  0
  187.3440  178.4100  138.3270 O   0  0  0  0  0  1  0  0  0  0  0  0
  189.4550  178.1200  139.2380 N   0  0  0  0  0  0  0  0  0  0  0  0
  187.3130  175.8330  135.8870 C   0  0  0  0  0  1  0  0  0  0  0  0
  188.0840  177.1070  135.9160 C   0  0  0  0  0  0  0  0  0  0  0  0
  187.8010  178.0560  135.0230 C   0  0  0  0  0  2  0  0  0  0  0  0
  187.8590  177.4320  147.3850 C   0  0  0  0  0  3  0  0  0  0  0  0
  188.5450  178.3010  147.9850 O   0  0  0  0  0  0  0  0  0  0  0  0
  1 12  1  0  0  0  0
  2  7  1  0  0  0  0
  3  5  1  0  0  0  0
  3 13  1  0  0  0  0
  4 15  1  0  0  0  0
  4  6  1  0  0  0  0
  5  1  2  0  0  0  0
  6  8  2  0  0  0  0
  6 14  1  0  0  0  0
  7 10  1  0  0  0  0
  7  4  2  0  0  0  0
  8 33  1  0  0  0  0
  9 18  2  0  0  0  0
 10 18  1  0  0  0  0
 11 16  2  0  0  0  0
 11 10  1  0  0  0  0
 12 17  1  0  0  0  0
 13  2  2  0  0  0  0
 13 12  1  0  0  0  0
 16  9  1  0  0  0  0
 17 15  2  0  0  0  0
 18  8  1  0  0  0  0
 19  5  1  0  0  0  0
 20 16  1  0  0  0  0
 20 21  1  0  0  0  0
 22 20  1  0  0  0  0
 23 31  1  6  0  0  0
 23 25  1  0  0  0  0
 23 26  1  0  0  0  0
 24 22  1  0  0  0  0
 25 27  1  0  0  0  0
 26 28  1  1  0  0  0
 26 29  1  0  0  0  0
 27 24  1  0  0  0  0
 29 27  2  0  0  0  0
 30 31  1  0  0  0  0
 32 31  2  0  0  0  0
 33 34  2  0  0  0  0
M  END
>  <MODEL>
1

>  <REMARK>
 VINA RESULT:      -9.8      0.000      0.000
  Name = 
  5 active torsions:
  status: ('A' for Active; 'I' for Inactive)
    1  A    between atoms: N_2  and  C_5
    2  A    between atoms: N_2  and  C_28
    3  A    between atoms: C_5  and  N_8
    4  A    between atoms: C_7  and  C_14
    5  A    between atoms: C_13  and  C_15
                            x       y       z     vdW  Elec       q    Type
                         _______ _______ _______ _____ _____    ______ ____

>  <TORSDO>
F 5

$$$$
=
 OpenBabel10222418213D

 34 38  0  0  1  0  0  0  0  0999 V2000
  192.0630  177.3550  141.9050 N   0  0  0  0  0  0  0  0  0  0  0  0
  188.4770  177.4570  141.7530 C   0  0  0  0  0  3  0  0  0  0  0  0
  190.4010  177.2050  139.8650 S   0  0  0  0  0  0  0  0  0  0  0  0
  188.2310  177.4870  144.3200 C   0  0  0  0  0  0  0  0  0  0  0  0
  192.0270  177.3390  140.6150 C   0  0  0  0  0  0  0  0  0  0  0  0
  187.3520  177.6790  145.4250 C   0  0  0  0  0  0  0  0  0  0  0  0
  187.7210  177.6600  143.0040 C   0  0  0  0  0  0  0  0  0  0  0  0
  186.0030  178.0460  145.2270 C   0  0  0  0  0  0  0  0  0  0  0  0
  184.3240  178.5420  143.5220 N   0  0  0  0  0  0  0  0  0  0  0  0
  186.4090  178.0100  142.8790 N   0  0  0  0  0  0  0  0  0  0  0  0
  185.6990  178.2280  141.7550 C   0  0  0  0  0  3  0  0  0  0  0  0
  190.8050  177.3160  142.5080 N   0  0  0  0  0  0  0  0  0  0  0  0
  189.7730  177.2750  141.5360 C   0  0  0  0  0  0  0  0  0  0  0  0
  187.8550  177.4950  146.8300 C   0  0  0  0  0  1  0  0  0  0  0  0
  189.6150  177.0830  144.6460 C   0  0  0  0  0  3  0  0  0  0  0  0
  184.4180  178.5550  142.1730 C   0  0  0  0  0  0  0  0  0  0  0  0
  190.7090  177.0170  143.8970 C   0  0  0  0  0  3  0  0  0  0  0  0
  185.5710  178.2030  143.9100 C   0  0  0  0  0  0  0  0  0  0  0  0
  193.2710  177.3780  139.8030 C   0  0  0  0  0  1  0  0  0  0  0  0
  183.3200  178.8660  141.3060 N   0  0  0  0  0  0  0  0  0  0  0  0
  181.9610  178.5280  141.6930 C   0  0  0  0  0  1  0  0  0  0  0  0
  183.5470  179.4340  139.9860 C   0  0  0  0  0  2  0  0  0  0  0  0
  186.7080  176.8110  137.3080 C   0  0  2  0  0  3  0  0  0  0  0  0
  183.6200  178.3690  138.9990 N   0  0  0  0  0  2  0  0  0  0  0  0
  184.8980  176.7240  137.1230 S   0  0  0  0  0  0  0  0  0  0  0  0
  187.0660  178.2310  137.7620 C   0  0  1  0  0  3  0  0  0  0  0  0
  184.8210  178.0740  138.2850 C   0  0  0  0  0  0  0  0  0  0  0  0
  187.2710  179.0790  136.6710 O   0  0  0  0  0  1  0  0  0  0  0  0
  185.9230  178.7040  138.5190 N   0  0  0  0  0  0  0  0  0  0  0  0
  188.9240  176.0670  136.2190 C   0  0  0  0  0  1  0  0  0  0  0  0
  187.4580  176.3040  136.1060 C   0  0  0  0  0  0  0  0  0  0  0  0
  186.8320  175.9630  134.9790 C   0  0  0  0  0  2  0  0  0  0  0  0
  185.1000  178.2490  146.3810 C   0  0  0  0  0  3  0  0  0  0  0  0
  185.1820  179.2590  147.1290 O   0  0  0  0  0  0  0  0  0  0  0  0
  1 12  1  0  0  0  0
  2  7  1  0  0  0  0
  3  5  1  0  0  0  0
  3 13  1  0  0  0  0
  4 15  1  0  0  0  0
  4  6  1  0  0  0  0
  5  1  2  0  0  0  0
  6 14  1  0  0  0  0
  7  4  2  0  0  0  0
  8  6  2  0  0  0  0
  8 33  1  0  0  0  0
  9 18  2  0  0  0  0
 10  7  1  0  0  0  0
 10 18  1  0  0  0  0
 11 16  2  0  0  0  0
 11 10  1  0  0  0  0
 12 17  1  0  0  0  0
 13  2  2  0  0  0  0
 13 12  1  0  0  0  0
 16  9  1  0  0  0  0
 17 15  2  0  0  0  0
 18  8  1  0  0  0  0
 19  5  1  0  0  0  0
 20 21  1  0  0  0  0
 20 16  1  0  0  0  0
 22 20  1  0  0  0  0
 23 31  1  6  0  0  0
 23 26  1  0  0  0  0
 24 22  1  0  0  0  0
 25 23  1  0  0  0  0
 25 27  1  0  0  0  0
 26 28  1  6  0  0  0
 26 29  1  0  0  0  0
 27 29  2  0  0  0  0
 27 24  1  0  0  0  0
 31 30  1  0  0  0  0
 32 31  2  0  0  0  0
 33 34  2  0  0  0  0
M  END
>  <MODEL>
2

>  <REMARK>
 VINA RESULT:      -9.5      1.808      5.618
  Name = 
  5 active torsions:
  status: ('A' for Active; 'I' for Inactive)
    1  A    between atoms: N_2  and  C_5
    2  A    between atoms: N_2  and  C_28
    3  A    between atoms: C_5  and  N_8
    4  A    between atoms: C_7  and  C_14
    5  A    between atoms: C_13  and  C_15
                            x       y       z     vdW  Elec       q    Type
                         _______ _______ _______ _____ _____    ______ ____

>  <TORSDO>
F 5

$$$$
=
 OpenBabel10222418213D

 34 38  0  0  1  0  0  0  0  0999 V2000
  186.6250  178.4110  147.4840 N   0  0  0  0  0  0  0  0  0  0  0  0
  187.4390  177.8620  144.0300 C   0  0  0  0  0  3  0  0  0  0  0  0
  188.8090  177.4870  146.3340 S   0  0  0  0  0  0  0  0  0  0  0  0
  185.0660  178.4760  143.2300 C   0  0  0  0  0  0  0  0  0  0  0  0
  187.8460  178.0730  147.7320 C   0  0  0  0  0  0  0  0  0  0  0  0
  184.2310  178.7810  142.1150 C   0  0  0  0  0  0  0  0  0  0  0  0
  186.4480  178.2340  143.0010 C   0  0  0  0  0  0  0  0  0  0  0  0
  184.7600  178.8550  140.8090 C   0  0  0  0  0  0  0  0  0  0  0  0
  186.8080  178.6260  139.4950 N   0  0  0  0  0  0  0  0  0  0  0  0
  186.8970  178.3150  141.7160 N   0  0  0  0  0  0  0  0  0  0  0  0
  188.1460  178.1280  141.2480 C   0  0  0  0  0  3  0  0  0  0  0  0
  186.2700  178.3070  146.1390 N   0  0  0  0  0  0  0  0  0  0  0  0
  187.3620  177.8560  145.3540 C   0  0  0  0  0  0  0  0  0  0  0  0
  182.7630  179.0340  142.3190 C   0  0  0  0  0  1  0  0  0  0  0  0
  184.3990  178.4060  144.5470 C   0  0  0  0  0  3  0  0  0  0  0  0
  188.0690  178.3250  139.8780 C   0  0  0  0  0  0  0  0  0  0  0  0
  184.8930  178.3450  145.7780 C   0  0  0  0  0  3  0  0  0  0  0  0
  186.1260  178.6090  140.6580 C   0  0  0  0  0  0  0  0  0  0  0  0
  188.4010  178.1240  149.1090 C   0  0  0  0  0  1  0  0  0  0  0  0
  189.1710  178.2230  138.9660 N   0  0  0  0  0  0  0  0  0  0  0  0
  189.0550  178.7440  137.6140 C   0  0  0  0  0  1  0  0  0  0  0  0
  190.3870  177.5170  139.3380 C   0  0  0  0  0  2  0  0  0  0  0  0
  193.6040  174.2470  137.6040 C   0  0  2  0  0  3  0  0  0  0  0  0
  190.4830  176.2750  138.5860 N   0  0  0  0  0  2  0  0  0  0  0  0
  191.8230  174.2250  137.2230 S   0  0  0  0  0  0  0  0  0  0  0  0
  194.0200  175.7070  137.8200 C   0  0  1  0  0  3  0  0  0  0  0  0
  191.7260  175.7790  138.0910 C   0  0  0  0  0  0  0  0  0  0  0  0
  194.4050  176.3110  136.6200 O   0  0  0  0  0  1  0  0  0  0  0  0
  192.8430  176.3830  138.3310 N   0  0  0  0  0  0  0  0  0  0  0  0
  193.8790  173.1900  135.2680 C   0  0  0  0  0  1  0  0  0  0  0  0
  194.4370  173.4720  136.6190 C   0  0  0  0  0  0  0  0  0  0  0  0
  195.6970  173.1230  136.8850 C   0  0  0  0  0  2  0  0  0  0  0  0
  183.8870  179.1770  139.6590 C   0  0  0  0  0  3  0  0  0  0  0  0
  183.9210  180.2970  139.0830 O   0  0  0  0  0  0  0  0  0  0  0  0
  1  5  2  0  0  0  0
  2 13  2  0  0  0  0
  3  5  1  0  0  0  0
  4 15  1  0  0  0  0
  5 19  1  0  0  0  0
  6 14  1  0  0  0  0
  6  4  1  0  0  0  0
  7  4  2  0  0  0  0
  7  2  1  0  0  0  0
  8  6  2  0  0  0  0
  9 16  1  0  0  0  0
  9 18  2  0  0  0  0
 10  7  1  0  0  0  0
 11 10  1  0  0  0  0
 12  1  1  0  0  0  0
 13 12  1  0  0  0  0
 13  3  1  0  0  0  0
 15 17  2  0  0  0  0
 16 11  2  0  0  0  0
 17 12  1  0  0  0  0
 18  8  1  0  0  0  0
 18 10  1  0  0  0  0
 20 22  1  0  0  0  0
 20 16  1  0  0  0  0
 21 20  1  0  0  0  0
 23 31  1  6  0  0  0
 23 26  1  0  0  0  0
 24 22  1  0  0  0  0
 25 23  1  0  0  0  0
 25 27  1  0  0  0  0
 26 28  1  6  0  0  0
 26 29  1  0  0  0  0
 27 29  2  0  0  0  0
 27 24  1  0  0  0  0
 30 31  1  0  0  0  0
 31 32  2  0  0  0  0
 33  8  1  0  0  0  0
 34 33  2  0  0  0  0
M  END
>  <MODEL>
3

>  <REMARK>
 VINA RESULT:      -9.3      3.465      5.920
  Name = 
  5 active torsions:
  status: ('A' for Active; 'I' for Inactive)
    1  A    between atoms: N_2  and  C_5
    2  A    between atoms: N_2  and  C_28
    3  A    between atoms: C_5  and  N_8
    4  A    between atoms: C_7  and  C_14
    5  A    between atoms: C_13  and  C_15
                            x       y       z     vdW  Elec       q    Type
                         _______ _______ _______ _____ _____    ______ ____

>  <TORSDO>
F 5

$$$$
=
 OpenBabel10222418213D

 34 38  0  0  1  0  0  0  0  0999 V2000
  190.4740  176.8700  147.6700 N   0  0  0  0  0  0  0  0  0  0  0  0
  189.2280  176.9520  144.3030 C   0  0  0  0  0  3  0  0  0  0  0  0
  191.5400  176.0670  145.3970 S   0  0  0  0  0  0  0  0  0  0  0  0
  186.9180  177.8360  145.0330 C   0  0  0  0  0  0  0  0  0  0  0  0
  191.5720  176.4260  147.1560 C   0  0  0  0  0  0  0  0  0  0  0  0
  185.6740  178.3940  144.6150 C   0  0  0  0  0  0  0  0  0  0  0  0
  187.9100  177.5680  144.0510 C   0  0  0  0  0  0  0  0  0  0  0  0
  185.4290  178.6880  143.2560 C   0  0  0  0  0  0  0  0  0  0  0  0
  186.3990  178.6060  141.0150 N   0  0  0  0  0  0  0  0  0  0  0  0
  187.6110  177.8700  142.7550 N   0  0  0  0  0  0  0  0  0  0  0  0
  188.3730  177.7090  141.6560 C   0  0  0  0  0  3  0  0  0  0  0  0
  189.4450  177.0460  146.7440 N   0  0  0  0  0  0  0  0  0  0  0  0
  189.8690  176.6950  145.4360 C   0  0  0  0  0  0  0  0  0  0  0  0
  184.5990  178.6820  145.6250 C   0  0  0  0  0  1  0  0  0  0  0  0
  187.0540  177.5500  146.4770 C   0  0  0  0  0  3  0  0  0  0  0  0
  187.6080  178.1690  140.5950 C   0  0  0  0  0  0  0  0  0  0  0  0
  188.1130  177.2280  147.2110 C   0  0  0  0  0  3  0  0  0  0  0  0
  186.4490  178.4030  142.3470 C   0  0  0  0  0  0  0  0  0  0  0  0
  192.7750  176.1800  147.9920 C   0  0  0  0  0  1  0  0  0  0  0  0
  188.0230  178.1850  139.2230 N   0  0  0  0  0  0  0  0  0  0  0  0
  187.0370  178.2250  138.1580 C   0  0  0  0  0  1  0  0  0  0  0  0
  189.4290  178.0660  138.8660 C   0  0  0  0  0  2  0  0  0  0  0  0
  192.7020  174.6390  137.6050 C   0  0  2  0  0  3  0  0  0  0  0  0
  189.6190  176.9110  138.0030 N   0  0  0  0  0  2  0  0  0  0  0  0
  191.1000  174.8740  136.7710 S   0  0  0  0  0  0  0  0  0  0  0  0
  193.1680  176.0060  138.1220 C   0  0  1  0  0  3  0  0  0  0  0  0
  190.9030  176.3250  137.7880 C   0  0  0  0  0  0  0  0  0  0  0  0
  193.9190  176.6850  137.1590 O   0  0  0  0  0  1  0  0  0  0  0  0
  191.9590  176.7590  138.3930 N   0  0  0  0  0  0  0  0  0  0  0  0
  193.5400  173.8510  135.2970 C   0  0  0  0  0  1  0  0  0  0  0  0
  193.7040  173.8810  136.7770 C   0  0  0  0  0  0  0  0  0  0  0  0
  194.7880  173.3250  137.3190 C   0  0  0  0  0  2  0  0  0  0  0  0
  184.1380  179.2720  142.8330 C   0  0  0  0  0  3  0  0  0  0  0  0
  183.2500  178.5910  142.2550 O   0  0  0  0  0  0  0  0  0  0  0  0
  2 13  2  0  0  0  0
  3 13  1  0  0  0  0
  3  5  1  0  0  0  0
  4 15  1  0  0  0  0
  5  1  2  0  0  0  0
  5 19  1  0  0  0  0
  6  4  1  0  0  0  0
  6 14  1  0  0  0  0
  7  2  1  0  0  0  0
  7  4  2  0  0  0  0
  8  6  2  0  0  0  0
  9 18  2  0  0  0  0
 10  7  1  0  0  0  0
 11 10  1  0  0  0  0
 12 17  1  0  0  0  0
 12  1  1  0  0  0  0
 13 12  1  0  0  0  0
 15 17  2  0  0  0  0
 16  9  1  0  0  0  0
 16 11  2  0  0  0  0
 18 10  1  0  0  0  0
 18  8  1  0  0  0  0
 20 16  1  0  0  0  0
 21 20  1  0  0  0  0
 22 20  1  0  0  0  0
 23 31  1  6  0  0  0
 23 26  1  0  0  0  0
 24 22  1  0  0  0  0
 25 23  1  0  0  0  0
 25 27  1  0  0  0  0
 26 28  1  6  0  0  0
 26 29  1  0  0  0  0
 27 24  1  0  0  0  0
 27 29  2  0  0  0  0
 30 31  1  0  0  0  0
 31 32  2  0  0  0  0
 33  8  1  0  0  0  0
 34 33  2  0  0  0  0
M  END
>  <MODEL>
4

>  <REMARK>
 VINA RESULT:      -9.2      3.336      6.135
  Name = 
  5 active torsions:
  status: ('A' for Active; 'I' for Inactive)
    1  A    between atoms: N_2  and  C_5
    2  A    between atoms: N_2  and  C_28
    3  A    between atoms: C_5  and  N_8
    4  A    between atoms: C_7  and  C_14
    5  A    between atoms: C_13  and  C_15
                            x       y       z     vdW  Elec       q    Type
                         _______ _______ _______ _____ _____    ______ ____

>  <TORSDO>
F 5

$$$$
=
 OpenBabel10222418213D

 34 38  0  0  1  0  0  0  0  0999 V2000
  183.5990  178.3950  144.9410 N   0  0  0  0  0  0  0  0  0  0  0  0
  186.4680  178.3250  142.7820 C   0  0  0  0  0  3  0  0  0  0  0  0
  183.8810  179.0200  142.3960 S   0  0  0  0  0  0  0  0  0  0  0  0
  188.0690  177.6880  144.7020 C   0  0  0  0  0  0  0  0  0  0  0  0
  182.9270  178.7160  143.8870 C   0  0  0  0  0  0  0  0  0  0  0  0
  189.3740  177.2380  145.0590 C   0  0  0  0  0  0  0  0  0  0  0  0
  187.7490  177.8290  143.3230 C   0  0  0  0  0  0  0  0  0  0  0  0
  190.3310  176.9250  144.0700 C   0  0  0  0  0  0  0  0  0  0  0  0
  190.7220  176.8440  141.6590 N   0  0  0  0  0  0  0  0  0  0  0  0
  188.7190  177.5160  142.4170 N   0  0  0  0  0  0  0  0  0  0  0  0
  188.6620  177.5690  141.0720 C   0  0  0  0  0  3  0  0  0  0  0  0
  184.9740  178.2880  144.7260 N   0  0  0  0  0  0  0  0  0  0  0  0
  185.3030  178.5550  143.3720 C   0  0  0  0  0  0  0  0  0  0  0  0
  189.7500  177.0850  146.5060 C   0  0  0  0  0  1  0  0  0  0  0  0
  187.1570  178.0060  145.8200 C   0  0  0  0  0  3  0  0  0  0  0  0
  189.9060  177.1500  140.6250 C   0  0  0  0  0  0  0  0  0  0  0  0
  185.8520  178.2490  145.8470 C   0  0  0  0  0  3  0  0  0  0  0  0
  189.9480  177.0840  142.7370 C   0  0  0  0  0  0  0  0  0  0  0  0
  181.4500  178.8730  143.9270 C   0  0  0  0  0  1  0  0  0  0  0  0
  190.2990  177.0510  139.2500 N   0  0  0  0  0  0  0  0  0  0  0  0
  191.5290  176.3690  138.8850 C   0  0  0  0  0  1  0  0  0  0  0  0
  189.5320  177.7090  138.2030 C   0  0  0  0  0  2  0  0  0  0  0  0
  184.8620  177.2740  136.7730 C   0  0  2  0  0  3  0  0  0  0  0  0
  188.5810  176.7710  137.6280 N   0  0  0  0  0  2  0  0  0  0  0  0
  186.0410  175.8880  136.8370 S   0  0  0  0  0  0  0  0  0  0  0  0
  185.2470  178.2710  137.8730 C   0  0  1  0  0  3  0  0  0  0  0  0
  187.1770  177.0290  137.6020 C   0  0  0  0  0  0  0  0  0  0  0  0
  184.6180  177.9650  139.0820 O   0  0  0  0  0  1  0  0  0  0  0  0
  186.6820  178.1380  138.0420 N   0  0  0  0  0  0  0  0  0  0  0  0
  182.3640  177.8410  136.4680 C   0  0  0  0  0  1  0  0  0  0  0  0
  183.4220  176.8360  136.7690 C   0  0  0  0  0  0  0  0  0  0  0  0
  183.0750  175.5580  136.9240 C   0  0  0  0  0  2  0  0  0  0  0  0
  191.6810  176.4530  144.4500 C   0  0  0  0  0  3  0  0  0  0  0  0
  192.0300  175.2490  144.3310 O   0  0  0  0  0  0  0  0  0  0  0  0
  2  7  1  0  0  0  0
  2 13  2  0  0  0  0
  3 13  1  0  0  0  0
  3  5  1  0  0  0  0
  4  6  1  0  0  0  0
  4 15  1  0  0  0  0
  5 19  1  0  0  0  0
  5  1  2  0  0  0  0
  6 14  1  0  0  0  0
  7  4  2  0  0  0  0
  8 33  1  0  0  0  0
  8  6  2  0  0  0  0
  9 18  2  0  0  0  0
 10 18  1  0  0  0  0
 10  7  1  0  0  0  0
 11 10  1  0  0  0  0
 12  1  1  0  0  0  0
 12 17  1  0  0  0  0
 13 12  1  0  0  0  0
 15 17  2  0  0  0  0
 16 11  2  0  0  0  0
 16  9  1  0  0  0  0
 18  8  1  0  0  0  0
 20 16  1  0  0  0  0
 21 20  1  0  0  0  0
 22 20  1  0  0  0  0
 23 31  1  1  0  0  0
 23 25  1  0  0  0  0
 23 26  1  0  0  0  0
 24 22  1  0  0  0  0
 25 27  1  0  0  0  0
 26 29  1  0  0  0  0
 26 28  1  1  0  0  0
 27 24  1  0  0  0  0
 27 29  2  0  0  0  0
 30 31  1  0  0  0  0
 31 32  2  0  0  0  0
 34 33  2  0  0  0  0
M  END
>  <MODEL>
5

>  <REMARK>
 VINA RESULT:      -9.1      2.361      3.698
  Name = 
  5 active torsions:
  status: ('A' for Active; 'I' for Inactive)
    1  A    between atoms: N_2  and  C_5
    2  A    between atoms: N_2  and  C_28
    3  A    between atoms: C_5  and  N_8
    4  A    between atoms: C_7  and  C_14
    5  A    between atoms: C_13  and  C_15
                            x       y       z     vdW  Elec       q    Type
                         _______ _______ _______ _____ _____    ______ ____

>  <TORSDO>
F 5

$$$$
=
 OpenBabel10222418213D

 34 38  0  0  1  0  0  0  0  0999 V2000
  183.5950  178.4320  144.7000 N   0  0  0  0  0  0  0  0  0  0  0  0
  186.4240  178.3160  142.4910 C   0  0  0  0  0  3  0  0  0  0  0  0
  183.8320  179.0090  142.1390 S   0  0  0  0  0  0  0  0  0  0  0  0
  188.0580  177.7120  144.3920 C   0  0  0  0  0  0  0  0  0  0  0  0
  182.9040  178.7350  143.6520 C   0  0  0  0  0  0  0  0  0  0  0  0
  189.3690  177.2660  144.7340 C   0  0  0  0  0  0  0  0  0  0  0  0
  187.7140  177.8280  143.0180 C   0  0  0  0  0  0  0  0  0  0  0  0
  190.3080  176.9330  143.7340 C   0  0  0  0  0  0  0  0  0  0  0  0
  190.6550  176.8060  141.3180 N   0  0  0  0  0  0  0  0  0  0  0  0
  188.6660  177.4970  142.1000 N   0  0  0  0  0  0  0  0  0  0  0  0
  188.5860  177.5240  140.7550 C   0  0  0  0  0  3  0  0  0  0  0  0
  184.9660  178.3190  144.4620 N   0  0  0  0  0  0  0  0  0  0  0  0
  185.2700  178.5600  143.0970 C   0  0  0  0  0  0  0  0  0  0  0  0
  189.7700  177.1400  146.1770 C   0  0  0  0  0  1  0  0  0  0  0  0
  187.1670  178.0520  145.5210 C   0  0  0  0  0  3  0  0  0  0  0  0
  189.8200  177.0950  140.2940 C   0  0  0  0  0  0  0  0  0  0  0  0
  185.8630  178.2990  145.5670 C   0  0  0  0  0  3  0  0  0  0  0  0
  189.9010  177.0670  142.4060 C   0  0  0  0  0  0  0  0  0  0  0  0
  181.4290  178.8950  143.7160 C   0  0  0  0  0  1  0  0  0  0  0  0
  190.1880  176.9690  138.9140 N   0  0  0  0  0  0  0  0  0  0  0  0
  189.6430  177.8810  137.9230 C   0  0  0  0  0  1  0  0  0  0  0  0
  191.0330  175.8750  138.4620 C   0  0  0  0  0  2  0  0  0  0  0  0
  195.2340  174.8100  136.1680 C   0  0  2  0  0  3  0  0  0  0  0  0
  191.9360  176.3470  137.4240 N   0  0  0  0  0  2  0  0  0  0  0  0
  194.3070  176.3600  135.9290 S   0  0  0  0  0  0  0  0  0  0  0  0
  194.9920  174.3340  137.6050 C   0  0  1  0  0  3  0  0  0  0  0  0
  193.2430  175.8020  137.2460 C   0  0  0  0  0  0  0  0  0  0  0  0
  195.9300  174.8770  138.4870 O   0  0  0  0  0  1  0  0  0  0  0  0
  193.6730  174.8190  137.9650 N   0  0  0  0  0  0  0  0  0  0  0  0
  197.4900  173.6590  135.6810 C   0  0  0  0  0  1  0  0  0  0  0  0
  196.6760  174.9040  135.7480 C   0  0  0  0  0  0  0  0  0  0  0  0
  197.2150  176.0530  135.3370 C   0  0  0  0  0  2  0  0  0  0  0  0
  191.6630  176.4660  144.0980 C   0  0  0  0  0  3  0  0  0  0  0  0
  191.9750  175.2450  144.0990 O   0  0  0  0  0  0  0  0  0  0  0  0
  2  7  1  0  0  0  0
  2 13  2  0  0  0  0
  3 13  1  0  0  0  0
  3  5  1  0  0  0  0
  4  6  1  0  0  0  0
  4 15  1  0  0  0  0
  5 19  1  0  0  0  0
  5  1  2  0  0  0  0
  6 14  1  0  0  0  0
  7  4  2  0  0  0  0
  8 33  1  0  0  0  0
  8  6  2  0  0  0  0
  9 18  2  0  0  0  0
 10 18  1  0  0  0  0
 10  7  1  0  0  0  0
 11 10  1  0  0  0  0
 12  1  1  0  0  0  0
 12 17  1  0  0  0  0
 13 12  1  0  0  0  0
 15 17  2  0  0  0  0
 16 11  2  0  0  0  0
 16  9  1  0  0  0  0
 18  8  1  0  0  0  0
 20 16  1  0  0  0  0
 21 20  1  0  0  0  0
 22 20  1  0  0  0  0
 23 31  1  1  0  0  0
 23 26  1  0  0  0  0
 24 22  1  0  0  0  0
 25 23  1  0  0  0  0
 25 27  1  0  0  0  0
 26 29  1  0  0  0  0
 26 28  1  1  0  0  0
 27 24  1  0  0  0  0
 27 29  2  0  0  0  0
 30 31  1  0  0  0  0
 32 31  2  0  0  0  0
 33 34  2  0  0  0  0
M  END
>  <MODEL>
6

>  <REMARK>
 VINA RESULT:      -9.1      3.985      5.065
  Name = 
  5 active torsions:
  status: ('A' for Active; 'I' for Inactive)
    1  A    between atoms: N_2  and  C_5
    2  A    between atoms: N_2  and  C_28
    3  A    between atoms: C_5  and  N_8
    4  A    between atoms: C_7  and  C_14
    5  A    between atoms: C_13  and  C_15
                            x       y       z     vdW  Elec       q    Type
                         _______ _______ _______ _____ _____    ______ ____

>  <TORSDO>
F 5

$$$$
=
 OpenBabel10222418213D

 34 38  0  0  1  0  0  0  0  0999 V2000
  181.5300  178.6240  142.1920 N   0  0  0  0  0  0  0  0  0  0  0  0
  185.1170  178.4600  142.2110 C   0  0  0  0  0  3  0  0  0  0  0  0
  183.2880  178.6960  140.2300 S   0  0  0  0  0  0  0  0  0  0  0  0
  185.2420  178.4900  144.7870 C   0  0  0  0  0  0  0  0  0  0  0  0
  181.6270  178.6080  140.9050 C   0  0  0  0  0  0  0  0  0  0  0  0
  186.0650  178.3110  145.9370 C   0  0  0  0  0  0  0  0  0  0  0  0
  185.8100  178.2750  143.5010 C   0  0  0  0  0  0  0  0  0  0  0  0
  187.4150  177.9160  145.8120 C   0  0  0  0  0  0  0  0  0  0  0  0
  189.1630  177.3510  144.2000 N   0  0  0  0  0  0  0  0  0  0  0  0
  187.1210  177.9000  143.4460 N   0  0  0  0  0  0  0  0  0  0  0  0
  187.8780  177.6430  142.3630 C   0  0  0  0  0  3  0  0  0  0  0  0
  182.7590  178.6580  142.8520 N   0  0  0  0  0  0  0  0  0  0  0  0
  183.8360  178.6570  141.9290 C   0  0  0  0  0  0  0  0  0  0  0  0
  185.5000  178.5380  147.3120 C   0  0  0  0  0  1  0  0  0  0  0  0
  183.8520  178.9230  145.0380 C   0  0  0  0  0  3  0  0  0  0  0  0
  189.1320  177.3060  142.8490 C   0  0  0  0  0  0  0  0  0  0  0  0
  182.7950  178.9890  144.2370 C   0  0  0  0  0  3  0  0  0  0  0  0
  187.9050  177.7200  144.5200 C   0  0  0  0  0  0  0  0  0  0  0  0
  180.4210  178.5690  140.0370 C   0  0  0  0  0  1  0  0  0  0  0  0
  190.2640  176.9560  142.0420 N   0  0  0  0  0  0  0  0  0  0  0  0
  191.2570  176.0190  142.5390 C   0  0  0  0  0  1  0  0  0  0  0  0
  190.4940  177.5980  140.7570 C   0  0  0  0  0  2  0  0  0  0  0  0
  192.7470  174.6640  137.5400 C   0  0  2  0  0  3  0  0  0  0  0  0
  190.2420  176.6510  139.6830 N   0  0  0  0  0  2  0  0  0  0  0  0
  190.9540  174.9800  137.5480 S   0  0  0  0  0  0  0  0  0  0  0  0
  193.4490  175.9200  138.0680 C   0  0  1  0  0  3  0  0  0  0  0  0
  191.2790  176.1860  138.8200 C   0  0  0  0  0  0  0  0  0  0  0  0
  193.7360  176.8160  137.0360 O   0  0  0  0  0  1  0  0  0  0  0  0
  192.5100  176.5430  138.9830 N   0  0  0  0  0  0  0  0  0  0  0  0
  194.4890  173.3020  136.2120 C   0  0  0  0  0  1  0  0  0  0  0  0
  193.2570  174.1390  136.2250 C   0  0  0  0  0  0  0  0  0  0  0  0
  192.5820  174.3150  135.0880 C   0  0  0  0  0  2  0  0  0  0  0  0
  188.2590  177.7280  147.0120 C   0  0  0  0  0  3  0  0  0  0  0  0
  188.2760  176.6470  147.6580 O   0  0  0  0  0  0  0  0  0  0  0  0
  1 12  1  0  0  0  0
  2  7  1  0  0  0  0
  3  5  1  0  0  0  0
  3 13  1  0  0  0  0
  4 15  1  0  0  0  0
  4  6  1  0  0  0  0
  5  1  2  0  0  0  0
  6 14  1  0  0  0  0
  7  4  2  0  0  0  0
  8  6  2  0  0  0  0
  8 33  1  0  0  0  0
  9 18  2  0  0  0  0
 10  7  1  0  0  0  0
 10 18  1  0  0  0  0
 11 16  2  0  0  0  0
 11 10  1  0  0  0  0
 12 17  1  0  0  0  0
 13  2  2  0  0  0  0
 13 12  1  0  0  0  0
 16  9  1  0  0  0  0
 17 15  2  0  0  0  0
 18  8  1  0  0  0  0
 19  5  1  0  0  0  0
 20 21  1  0  0  0  0
 20 16  1  0  0  0  0
 22 20  1  0  0  0  0
 23 31  1  6  0  0  0
 23 25  1  0  0  0  0
 23 26  1  0  0  0  0
 24 22  1  0  0  0  0
 25 27  1  0  0  0  0
 26 28  1  6  0  0  0
 26 29  1  0  0  0  0
 27 29  2  0  0  0  0
 27 24  1  0  0  0  0
 30 31  1  0  0  0  0
 32 31  2  0  0  0  0
 33 34  2  0  0  0  0
M  END
>  <MODEL>
7

>  <REMARK>
 VINA RESULT:      -8.8      2.421      2.746
  Name = 
  5 active torsions:
  status: ('A' for Active; 'I' for Inactive)
    1  A    between atoms: N_2  and  C_5
    2  A    between atoms: N_2  and  C_28
    3  A    between atoms: C_5  and  N_8
    4  A    between atoms: C_7  and  C_14
    5  A    between atoms: C_13  and  C_15
                            x       y       z     vdW  Elec       q    Type
                         _______ _______ _______ _____ _____    ______ ____

>  <TORSDO>
F 5

$$$$
=
 OpenBabel10222418213D

 34 38  0  0  1  0  0  0  0  0999 V2000
  190.3400  176.9340  147.5840 N   0  0  0  0  0  0  0  0  0  0  0  0
  189.3850  176.9450  144.1220 C   0  0  0  0  0  3  0  0  0  0  0  0
  191.5980  176.0920  145.4270 S   0  0  0  0  0  0  0  0  0  0  0  0
  187.0190  177.8320  144.6340 C   0  0  0  0  0  0  0  0  0  0  0  0
  191.4790  176.4850  147.1750 C   0  0  0  0  0  0  0  0  0  0  0  0
  185.8140  178.3760  144.1000 C   0  0  0  0  0  0  0  0  0  0  0  0
  188.0920  177.5500  143.7460 C   0  0  0  0  0  0  0  0  0  0  0  0
  185.6850  178.6430  142.7200 C   0  0  0  0  0  0  0  0  0  0  0  0
  186.8440  178.5220  140.5720 N   0  0  0  0  0  0  0  0  0  0  0  0
  187.9050  177.8250  142.4230 N   0  0  0  0  0  0  0  0  0  0  0  0
  188.7580  177.6460  141.3970 C   0  0  0  0  0  3  0  0  0  0  0  0
  189.3930  177.0880  146.5700 N   0  0  0  0  0  0  0  0  0  0  0  0
  189.9280  176.7130  145.3100 C   0  0  0  0  0  0  0  0  0  0  0  0
  184.6550  178.6790  145.0090 C   0  0  0  0  0  1  0  0  0  0  0  0
  187.0330  177.5750  146.0900 C   0  0  0  0  0  3  0  0  0  0  0  0
  188.0850  178.0820  140.2660 C   0  0  0  0  0  0  0  0  0  0  0  0
  188.0250  177.2720  146.9180 C   0  0  0  0  0  3  0  0  0  0  0  0
  186.7800  178.3450  141.9070 C   0  0  0  0  0  0  0  0  0  0  0  0
  192.6070  176.2610  148.1150 C   0  0  0  0  0  1  0  0  0  0  0  0
  188.6160  178.0730  138.9340 N   0  0  0  0  0  0  0  0  0  0  0  0
  190.0320  177.8380  138.7110 C   0  0  0  0  0  1  0  0  0  0  0  0
  187.7750  178.3930  137.7910 C   0  0  0  0  0  2  0  0  0  0  0  0
  183.5900  176.1540  136.5620 C   0  0  2  0  0  3  0  0  0  0  0  0
  187.2460  177.1680  137.2130 N   0  0  0  0  0  2  0  0  0  0  0  0
  185.2270  175.3590  136.4990 S   0  0  0  0  0  0  0  0  0  0  0  0
  183.6130  177.1900  137.6920 C   0  0  1  0  0  3  0  0  0  0  0  0
  185.8580  176.8390  137.2670 C   0  0  0  0  0  0  0  0  0  0  0  0
  183.2380  176.6230  138.9120 O   0  0  0  0  0  1  0  0  0  0  0  0
  184.9880  177.6410  137.7860 N   0  0  0  0  0  0  0  0  0  0  0  0
  181.0810  175.6430  136.2470 C   0  0  0  0  0  1  0  0  0  0  0  0
  182.4480  175.1730  136.6030 C   0  0  0  0  0  0  0  0  0  0  0  0
  182.6440  173.8770  136.8480 C   0  0  0  0  0  2  0  0  0  0  0  0
  184.4330  179.2130  142.1760 C   0  0  0  0  0  3  0  0  0  0  0  0
  183.5350  178.4940  141.6630 O   0  0  0  0  0  0  0  0  0  0  0  0
  2 13  2  0  0  0  0
  3  5  1  0  0  0  0
  4 15  1  0  0  0  0
  5  1  2  0  0  0  0
  5 19  1  0  0  0  0
  6  4  1  0  0  0  0
  6 14  1  0  0  0  0
  7  2  1  0  0  0  0
  7  4  2  0  0  0  0
  8  6  2  0  0  0  0
  9 18  2  0  0  0  0
 10  7  1  0  0  0  0
 11 10  1  0  0  0  0
 12 17  1  0  0  0  0
 12  1  1  0  0  0  0
 13  3  1  0  0  0  0
 13 12  1  0  0  0  0
 15 17  2  0  0  0  0
 16  9  1  0  0  0  0
 16 11  2  0  0  0  0
 18 10  1  0  0  0  0
 18  8  1  0  0  0  0
 20 16  1  0  0  0  0
 21 20  1  0  0  0  0
 22 20  1  0  0  0  0
 23 31  1  1  0  0  0
 23 26  1  0  0  0  0
 24 27  1  0  0  0  0
 24 22  1  0  0  0  0
 25 23  1  0  0  0  0
 25 27  1  0  0  0  0
 26 29  1  0  0  0  0
 26 28  1  1  0  0  0
 27 29  2  0  0  0  0
 30 31  1  0  0  0  0
 31 32  2  0  0  0  0
 33  8  1  0  0  0  0
 34 33  2  0  0  0  0
M  END
>  <MODEL>
8

>  <REMARK>
 VINA RESULT:      -8.7      3.152      6.142
  Name = 
  5 active torsions:
  status: ('A' for Active; 'I' for Inactive)
    1  A    between atoms: N_2  and  C_5
    2  A    between atoms: N_2  and  C_28
    3  A    between atoms: C_5  and  N_8
    4  A    between atoms: C_7  and  C_14
    5  A    between atoms: C_13  and  C_15
                            x       y       z     vdW  Elec       q    Type
                         _______ _______ _______ _____ _____    ______ ____

>  <TORSDO>
F 5

$$$$
=
 OpenBabel10222418213D

 34 38  0  0  1  0  0  0  0  0999 V2000
  192.0410  177.4430  141.8410 N   0  0  0  0  0  0  0  0  0  0  0  0
  188.4500  177.4750  141.8690 C   0  0  0  0  0  3  0  0  0  0  0  0
  190.2810  177.2330  139.8900 S   0  0  0  0  0  0  0  0  0  0  0  0
  188.3320  177.5360  144.4440 C   0  0  0  0  0  0  0  0  0  0  0  0
  191.9400  177.4080  140.5550 C   0  0  0  0  0  0  0  0  0  0  0  0
  187.5060  177.7270  145.5900 C   0  0  0  0  0  0  0  0  0  0  0  0
  187.7530  177.6820  143.1540 C   0  0  0  0  0  0  0  0  0  0  0  0
  186.1420  178.0670  145.4550 C   0  0  0  0  0  0  0  0  0  0  0  0
  184.3710  178.5070  143.8300 N   0  0  0  0  0  0  0  0  0  0  0  0
  186.4300  178.0060  143.0900 N   0  0  0  0  0  0  0  0  0  0  0  0
  185.6610  178.1950  142.0000 C   0  0  0  0  0  3  0  0  0  0  0  0
  190.8150  177.3880  142.5070 N   0  0  0  0  0  0  0  0  0  0  0  0
  189.7370  177.3150  141.5890 C   0  0  0  0  0  0  0  0  0  0  0  0
  188.0820  177.5720  146.9700 C   0  0  0  0  0  1  0  0  0  0  0  0
  189.7380  177.1630  144.7050 C   0  0  0  0  0  3  0  0  0  0  0  0
  184.3970  178.5030  142.4790 C   0  0  0  0  0  0  0  0  0  0  0  0
  190.7950  177.1080  143.9030 C   0  0  0  0  0  3  0  0  0  0  0  0
  185.6420  178.1970  144.1590 C   0  0  0  0  0  0  0  0  0  0  0  0
  193.1410  177.4590  139.6820 C   0  0  0  0  0  1  0  0  0  0  0  0
  183.2510  178.7810  141.6640 N   0  0  0  0  0  0  0  0  0  0  0  0
  181.9240  178.8230  142.2530 C   0  0  0  0  0  1  0  0  0  0  0  0
  183.3770  178.9300  140.2220 C   0  0  0  0  0  2  0  0  0  0  0  0
  181.1250  175.6160  137.3960 C   0  0  2  0  0  3  0  0  0  0  0  0
  183.5530  177.6240  139.6060 N   0  0  0  0  0  2  0  0  0  0  0  0
  182.7230  175.3330  138.2220 S   0  0  0  0  0  0  0  0  0  0  0  0
  180.3080  176.5760  138.2690 C   0  0  1  0  0  3  0  0  0  0  0  0
  182.4680  176.9050  139.0220 C   0  0  0  0  0  0  0  0  0  0  0  0
  179.5460  175.8830  139.2130 O   0  0  0  0  0  1  0  0  0  0  0  0
  181.2770  177.4030  138.9610 N   0  0  0  0  0  0  0  0  0  0  0  0
  179.2780  174.4230  136.0470 C   0  0  0  0  0  1  0  0  0  0  0  0
  180.4240  174.3450  136.9950 C   0  0  0  0  0  0  0  0  0  0  0  0
  180.8650  173.1480  137.3810 C   0  0  0  0  0  2  0  0  0  0  0  0
  185.2940  178.2680  146.6510 C   0  0  0  0  0  3  0  0  0  0  0  0
  185.2910  179.3500  147.2970 O   0  0  0  0  0  0  0  0  0  0  0  0
  1 12  1  0  0  0  0
  2  7  1  0  0  0  0
  3  5  1  0  0  0  0
  3 13  1  0  0  0  0
  4 15  1  0  0  0  0
  4  6  1  0  0  0  0
  5  1  2  0  0  0  0
  6 14  1  0  0  0  0
  7  4  2  0  0  0  0
  8  6  2  0  0  0  0
  8 33  1  0  0  0  0
  9 18  2  0  0  0  0
 10  7  1  0  0  0  0
 10 18  1  0  0  0  0
 11 16  2  0  0  0  0
 11 10  1  0  0  0  0
 12 17  1  0  0  0  0
 13  2  2  0  0  0  0
 13 12  1  0  0  0  0
 16  9  1  0  0  0  0
 17 15  2  0  0  0  0
 18  8  1  0  0  0  0
 19  5  1  0  0  0  0
 20 21  1  0  0  0  0
 20 16  1  0  0  0  0
 22 20  1  0  0  0  0
 23 31  1  1  0  0  0
 23 25  1  0  0  0  0
 23 26  1  0  0  0  0
 24 22  1  0  0  0  0
 25 27  1  0  0  0  0
 26 29  1  0  0  0  0
 26 28  1  1  0  0  0
 27 24  1  0  0  0  0
 29 27  2  0  0  0  0
 30 31  1  0  0  0  0
 31 32  2  0  0  0  0
 33 34  2  0  0  0  0
M  END
>  <MODEL>
9

>  <REMARK>
 VINA RESULT:      -8.5      3.032      6.782
  Name = 
  5 active torsions:
  status: ('A' for Active; 'I' for Inactive)
    1  A    between atoms: N_2  and  C_5
    2  A    between atoms: N_2  and  C_28
    3  A    between atoms: C_5  and  N_8
    4  A    between atoms: C_7  and  C_14
    5  A    between atoms: C_13  and  C_15
                            x       y       z     vdW  Elec       q    Type
                         _______ _______ _______ _____ _____    ______ ____

>  <TORSDO>
F 5

$$$$
