=
 OpenBabel10222416333D

 32 37  0  0  1  0  0  0  0  0999 V2000
  185.2760  178.2760  142.3120 C   0  0  0  0  0  0  0  0  0  0  0  0
  189.0880  177.8070  141.2730 C   0  0  0  0  0  0  0  0  0  0  0  0
  190.5310  176.6510  139.8170 C   0  0  0  0  0  2  0  0  0  0  0  0
  188.4330  177.6570  138.9050 C   0  0  0  0  0  3  0  0  0  0  0  0
  186.1820  177.6640  143.3260 C   0  0  0  0  0  3  0  0  0  0  0  0
  187.5270  177.6690  143.1930 C   0  0  0  0  0  0  0  0  0  0  0  0
  188.2080  178.0800  140.2030 C   0  0  1  0  0  0  0  0  0  0  0  0
  187.2220  178.7160  141.0760 N   0  0  0  0  0  0  0  0  0  0  0  0
  188.1710  178.5170  142.1120 C   0  0  2  0  0  0  0  0  0  0  0  0
  189.6350  176.9160  138.7250 C   0  0  0  0  0  0  0  0  0  0  0  0
  185.8030  178.7520  141.1700 C   0  0  0  0  0  3  0  0  0  0  0  0
  190.2730  177.1060  141.1350 C   0  0  0  0  0  3  0  0  0  0  0  0
  188.0160  178.1070  148.3370 C   0  0  0  0  0  2  0  0  0  0  0  0
  186.7770  178.2030  147.4440 C   0  0  0  0  0  2  0  0  0  0  0  0
  187.2030  178.4860  146.0030 C   0  0  0  0  0  2  0  0  0  0  0  0
  189.0820  176.8270  146.5670 C   0  0  0  0  0  3  0  0  0  0  0  0
  188.2210  177.4690  145.5570 C   0  0  0  0  0  0  0  0  0  0  0  0
  188.3580  177.1160  144.2750 C   0  0  0  0  0  3  0  0  0  0  0  0
  188.9540  177.1010  147.8330 N   0  0  0  0  0  0  0  0  0  0  0  0
  183.8170  179.9370  144.2730 O   0  0  0  0  0  0  0  0  0  0  0  0
  183.1980  179.0810  143.5860 C   0  0  0  0  0  0  0  0  0  0  0  0
  183.8670  178.3100  142.5770 N   0  0  0  0  0  2  0  0  0  0  0  0
  181.7550  178.8000  143.8650 C   0  0  0  0  0  2  0  0  0  0  0  0
  180.2080  180.4380  142.9050 N   0  0  0  0  0  1  0  0  0  0  0  0
  180.8570  179.1540  142.6820 C   0  0  0  0  0  2  0  0  0  0  0  0
  189.9920  176.4550  137.3830 C   0  0  0  0  0  0  0  0  0  0  0  0
  189.1210  175.8920  136.6590 O   0  0  0  0  0  0  0  0  0  0  0  0
  191.3020  176.6260  136.9280 O   0  0  0  0  0  0  0  0  0  0  0  0
  192.1550  175.5190  136.6590 C   0  0  0  0  0  2  0  0  0  0  0  0
  193.6020  175.9200  136.8820 C   0  0  2  0  0  3  0  0  0  0  0  0
  194.2400  175.0340  137.8800 C   0  0  0  0  0  2  0  0  0  0  0  0
  193.7650  176.3130  138.2250 O   0  0  0  0  0  0  0  0  0  0  0  0
  1 22  1  0  0  0  0
  1  5  1  0  0  0  0
  3 12  1  0  0  0  0
  6  5  2  0  0  0  0
  6 18  1  0  0  0  0
  7  4  1  6  0  0  0
  7  8  1  0  0  0  0
  7  2  1  0  0  0  0
  7  9  1  0  0  0  0
  8 11  1  0  0  0  0
  8  9  1  0  0  0  0
  9  2  1  1  0  0  0
  9  6  1  0  0  0  0
 10  4  2  0  0  0  0
 10  3  1  0  0  0  0
 11  1  2  0  0  0  0
 12  2  2  0  0  0  0
 14 13  1  0  0  0  0
 15 14  1  0  0  0  0
 16 19  2  0  0  0  0
 17 15  1  0  0  0  0
 17 16  1  0  0  0  0
 18 17  2  0  0  0  0
 19 13  1  0  0  0  0
 21 23  1  0  0  0  0
 21 20  2  0  0  0  0
 22 21  1  0  0  0  0
 25 24  1  0  0  0  0
 25 23  1  0  0  0  0
 26 10  1  0  0  0  0
 27 26  2  0  0  0  0
 28 26  1  0  0  0  0
 29 28  1  0  0  0  0
 30 29  1  1  0  0  0
 30 31  1  0  0  0  0
 30 32  1  0  0  0  0
 31 32  1  0  0  0  0
M  END
>  <MODEL>
1

>  <REMARK>
 VINA RESULT:      -8.5      0.000      0.000
  Name = 
  8 active torsions:
  status: ('A' for Active; 'I' for Inactive)
    1  A    between atoms: C_1  and  N_28
    2  A    between atoms: C_3  and  C_13
    3  A    between atoms: C_5  and  C_9
    4  A    between atoms: C_8  and  O_10
    5  A    between atoms: C_8  and  C_25
    6  A    between atoms: C_9  and  C_27
    7  A    between atoms: O_10  and  C_13
    8  A    between atoms: C_18  and  C_20
                            x       y       z     vdW  Elec       q    Type
                         _______ _______ _______ _____ _____    ______ ____

>  <TORSDO>
F 8

$$$$
=
 OpenBabel10222416333D

 32 37  0  0  1  0  0  0  0  0999 V2000
  185.3070  178.2640  142.3210 C   0  0  0  0  0  0  0  0  0  0  0  0
  189.1230  177.8310  141.2840 C   0  0  0  0  0  0  0  0  0  0  0  0
  190.5760  176.7020  139.8160 C   0  0  0  0  0  2  0  0  0  0  0  0
  188.4740  177.7070  138.9120 C   0  0  0  0  0  3  0  0  0  0  0  0
  186.2140  177.6450  143.3290 C   0  0  0  0  0  3  0  0  0  0  0  0
  187.5600  177.6600  143.1980 C   0  0  0  0  0  0  0  0  0  0  0  0
  188.2440  178.1120  140.2150 C   0  0  1  0  0  0  0  0  0  0  0  0
  187.2520  178.7310  141.0940 N   0  0  0  0  0  0  0  0  0  0  0  0
  188.2000  178.5240  142.1300 C   0  0  2  0  0  0  0  0  0  0  0  0
  189.6800  176.9750  138.7250 C   0  0  0  0  0  0  0  0  0  0  0  0
  185.8330  178.7580  141.1860 C   0  0  0  0  0  3  0  0  0  0  0  0
  190.3120  177.1380  141.1390 C   0  0  0  0  0  3  0  0  0  0  0  0
  188.0970  178.1040  148.3380 C   0  0  0  0  0  2  0  0  0  0  0  0
  186.8520  178.2150  147.4540 C   0  0  0  0  0  2  0  0  0  0  0  0
  187.2690  178.4880  146.0090 C   0  0  0  0  0  2  0  0  0  0  0  0
  189.1310  176.8060  146.5620 C   0  0  0  0  0  3  0  0  0  0  0  0
  188.2700  177.4560  145.5570 C   0  0  0  0  0  0  0  0  0  0  0  0
  188.3920  177.0980  144.2750 C   0  0  0  0  0  3  0  0  0  0  0  0
  189.0160  177.0840  147.8280 N   0  0  0  0  0  0  0  0  0  0  0  0
  183.8250  179.9450  144.2480 O   0  0  0  0  0  0  0  0  0  0  0  0
  183.2170  179.0690  143.5760 C   0  0  0  0  0  0  0  0  0  0  0  0
  183.8970  178.2860  142.5840 N   0  0  0  0  0  2  0  0  0  0  0  0
  181.7780  178.7760  143.8590 C   0  0  0  0  0  2  0  0  0  0  0  0
  180.2460  180.4030  142.8560 N   0  0  0  0  0  1  0  0  0  0  0  0
  180.8760  179.1030  142.6720 C   0  0  0  0  0  2  0  0  0  0  0  0
  190.0430  176.5330  137.3790 C   0  0  0  0  0  0  0  0  0  0  0  0
  191.0150  175.7400  137.2180 O   0  0  0  0  0  0  0  0  0  0  0  0
  189.3190  177.0130  136.2840 O   0  0  0  0  0  0  0  0  0  0  0  0
  188.7220  176.1380  135.3340 C   0  0  0  0  0  2  0  0  0  0  0  0
  187.5840  175.3730  135.9870 C   0  0  2  0  0  3  0  0  0  0  0  0
  186.3680  175.4330  135.1470 C   0  0  0  0  0  2  0  0  0  0  0  0
  186.5340  176.2680  136.2680 O   0  0  0  0  0  0  0  0  0  0  0  0
  1 22  1  0  0  0  0
  1  5  1  0  0  0  0
  3 12  1  0  0  0  0
  6  5  2  0  0  0  0
  6 18  1  0  0  0  0
  7  4  1  6  0  0  0
  7  8  1  0  0  0  0
  7  2  1  0  0  0  0
  7  9  1  0  0  0  0
  8 11  1  0  0  0  0
  8  9  1  0  0  0  0
  9  2  1  1  0  0  0
  9  6  1  0  0  0  0
 10  4  2  0  0  0  0
 10  3  1  0  0  0  0
 11  1  2  0  0  0  0
 12  2  2  0  0  0  0
 14 13  1  0  0  0  0
 15 14  1  0  0  0  0
 16 19  2  0  0  0  0
 17 15  1  0  0  0  0
 17 16  1  0  0  0  0
 18 17  2  0  0  0  0
 19 13  1  0  0  0  0
 21 23  1  0  0  0  0
 21 20  2  0  0  0  0
 22 21  1  0  0  0  0
 25 24  1  0  0  0  0
 25 23  1  0  0  0  0
 26 10  1  0  0  0  0
 27 26  2  0  0  0  0
 28 26  1  0  0  0  0
 29 28  1  0  0  0  0
 30 29  1  6  0  0  0
 30 32  1  0  0  0  0
 31 30  1  0  0  0  0
 31 32  1  0  0  0  0
M  END
>  <MODEL>
2

>  <REMARK>
 VINA RESULT:      -8.2      1.258      2.407
  Name = 
  8 active torsions:
  status: ('A' for Active; 'I' for Inactive)
    1  A    between atoms: C_1  and  N_28
    2  A    between atoms: C_3  and  C_13
    3  A    between atoms: C_5  and  C_9
    4  A    between atoms: C_8  and  O_10
    5  A    between atoms: C_8  and  C_25
    6  A    between atoms: C_9  and  C_27
    7  A    between atoms: O_10  and  C_13
    8  A    between atoms: C_18  and  C_20
                            x       y       z     vdW  Elec       q    Type
                         _______ _______ _______ _____ _____    ______ ____

>  <TORSDO>
F 8

$$$$
=
 OpenBabel10222416333D

 32 37  0  0  1  0  0  0  0  0999 V2000
  186.3580  177.9600  142.5920 C   0  0  0  0  0  0  0  0  0  0  0  0
  189.7840  177.7940  140.5760 C   0  0  0  0  0  0  0  0  0  0  0  0
  190.8110  176.9240  138.6460 C   0  0  0  0  0  2  0  0  0  0  0  0
  188.5530  177.9760  138.4530 C   0  0  0  0  0  3  0  0  0  0  0  0
  187.4890  177.2370  143.2410 C   0  0  0  0  0  3  0  0  0  0  0  0
  188.7580  177.3120  142.7800 C   0  0  0  0  0  0  0  0  0  0  0  0
  188.6640  178.1910  139.8150 C   0  0  1  0  0  0  0  0  0  0  0  0
  187.9300  178.6520  140.9940 N   0  0  0  0  0  0  0  0  0  0  0  0
  189.1100  178.3350  141.7170 C   0  0  2  0  0  0  0  0  0  0  0  0
  189.6700  177.3160  137.8660 C   0  0  0  0  0  0  0  0  0  0  0  0
  186.5810  178.6210  141.4430 C   0  0  0  0  0  3  0  0  0  0  0  0
  190.8950  177.1660  140.0410 C   0  0  0  0  0  3  0  0  0  0  0  0
  190.7790  177.2930  147.5560 C   0  0  0  0  0  2  0  0  0  0  0  0
  189.3400  177.5170  147.0860 C   0  0  0  0  0  2  0  0  0  0  0  0
  189.3360  177.9020  145.6060 C   0  0  0  0  0  2  0  0  0  0  0  0
  191.1840  176.1220  145.4650 C   0  0  0  0  0  3  0  0  0  0  0  0
  190.1060  176.8830  144.8060 C   0  0  0  0  0  0  0  0  0  0  0  0
  189.8330  176.6340  143.5220 C   0  0  0  0  0  3  0  0  0  0  0  0
  191.4550  176.2940  146.7260 N   0  0  0  0  0  0  0  0  0  0  0  0
  184.7920  180.1620  143.7900 O   0  0  0  0  0  0  0  0  0  0  0  0
  184.3570  178.9790  143.8360 C   0  0  0  0  0  0  0  0  0  0  0  0
  185.0620  177.9010  143.2030 N   0  0  0  0  0  2  0  0  0  0  0  0
  183.1250  178.6670  144.6250 C   0  0  0  0  0  2  0  0  0  0  0  0
  181.9790  178.8680  142.4690 N   0  0  0  0  0  1  0  0  0  0  0  0
  181.8510  179.0950  143.9010 C   0  0  0  0  0  2  0  0  0  0  0  0
  189.6760  177.0750  136.4230 C   0  0  0  0  0  0  0  0  0  0  0  0
  189.1670  177.9280  135.6410 O   0  0  0  0  0  0  0  0  0  0  0  0
  190.2280  175.8900  135.9310 O   0  0  0  0  0  0  0  0  0  0  0  0
  189.4170  174.8340  135.4280 C   0  0  0  0  0  2  0  0  0  0  0  0
  189.8580  173.5150  136.0360 C   0  0  2  0  0  3  0  0  0  0  0  0
  188.7900  172.9540  136.8930 C   0  0  0  0  0  2  0  0  0  0  0  0
  189.8880  173.6460  137.4380 O   0  0  0  0  0  0  0  0  0  0  0  0
  1 22  1  0  0  0  0
  1  5  1  0  0  0  0
  3 12  1  0  0  0  0
  6  5  2  0  0  0  0
  6 18  1  0  0  0  0
  7  4  1  6  0  0  0
  7  2  1  0  0  0  0
  7  8  1  0  0  0  0
  7  9  1  0  0  0  0
  8 11  1  0  0  0  0
  8  9  1  0  0  0  0
  9  2  1  1  0  0  0
  9  6  1  0  0  0  0
 10  4  2  0  0  0  0
 10  3  1  0  0  0  0
 11  1  2  0  0  0  0
 12  2  2  0  0  0  0
 14 13  1  0  0  0  0
 15 14  1  0  0  0  0
 16 19  2  0  0  0  0
 17 16  1  0  0  0  0
 17 15  1  0  0  0  0
 18 17  2  0  0  0  0
 19 13  1  0  0  0  0
 20 21  2  0  0  0  0
 21 23  1  0  0  0  0
 22 21  1  0  0  0  0
 24 25  1  0  0  0  0
 25 23  1  0  0  0  0
 26 10  1  0  0  0  0
 27 26  2  0  0  0  0
 28 26  1  0  0  0  0
 29 28  1  0  0  0  0
 30 29  1  6  0  0  0
 30 31  1  0  0  0  0
 30 32  1  0  0  0  0
 31 32  1  0  0  0  0
M  END
>  <MODEL>
3

>  <REMARK>
 VINA RESULT:      -7.8      1.837      2.293
  Name = 
  8 active torsions:
  status: ('A' for Active; 'I' for Inactive)
    1  A    between atoms: C_1  and  N_28
    2  A    between atoms: C_3  and  C_13
    3  A    between atoms: C_5  and  C_9
    4  A    between atoms: C_8  and  O_10
    5  A    between atoms: C_8  and  C_25
    6  A    between atoms: C_9  and  C_27
    7  A    between atoms: O_10  and  C_13
    8  A    between atoms: C_18  and  C_20
                            x       y       z     vdW  Elec       q    Type
                         _______ _______ _______ _____ _____    ______ ____

>  <TORSDO>
F 8

$$$$
=
 OpenBabel10222416333D

 32 37  0  0  1  0  0  0  0  0999 V2000
  190.1500  177.5590  141.8600 C   0  0  0  0  0  0  0  0  0  0  0  0
  187.2210  177.4620  144.5510 C   0  0  0  0  0  0  0  0  0  0  0  0
  185.2090  178.4930  145.2050 C   0  0  0  0  0  2  0  0  0  0  0  0
  185.5760  177.9650  142.7900 C   0  0  0  0  0  3  0  0  0  0  0  0
  190.5140  177.8980  143.2660 C   0  0  0  0  0  3  0  0  0  0  0  0
  189.6780  177.6720  144.3040 C   0  0  0  0  0  0  0  0  0  0  0  0
  186.7940  177.4570  143.2050 C   0  0  1  0  0  0  0  0  0  0  0  0
  188.0650  176.9160  142.7240 N   0  0  0  0  0  0  0  0  0  0  0  0
  188.4270  176.8410  144.0950 C   0  0  2  0  0  0  0  0  0  0  0  0
  184.7720  178.5000  143.8360 C   0  0  0  0  0  0  0  0  0  0  0  0
  188.9080  177.1170  141.5960 C   0  0  0  0  0  3  0  0  0  0  0  0
  186.4630  177.9580  145.5970 C   0  0  0  0  0  3  0  0  0  0  0  0
  192.4450  175.3770  148.0420 C   0  0  0  0  0  2  0  0  0  0  0  0
  192.5710  175.2960  146.5200 C   0  0  0  0  0  2  0  0  0  0  0  0
  191.2620  175.7460  145.8700 C   0  0  0  0  0  2  0  0  0  0  0  0
  191.3050  177.5030  147.7450 C   0  0  0  0  0  3  0  0  0  0  0  0
  190.8650  177.1010  146.3960 C   0  0  0  0  0  0  0  0  0  0  0  0
  190.1400  177.9600  145.6720 C   0  0  0  0  0  3  0  0  0  0  0  0
  192.0540  176.7220  148.4690 N   0  0  0  0  0  0  0  0  0  0  0  0
  190.5560  175.9650  139.4030 O   0  0  0  0  0  0  0  0  0  0  0  0
  191.3450  176.9080  139.6820 C   0  0  0  0  0  0  0  0  0  0  0  0
  191.1320  177.7430  140.8300 N   0  0  0  0  0  2  0  0  0  0  0  0
  192.5700  177.1280  138.8520 C   0  0  0  0  0  2  0  0  0  0  0  0
  194.2970  175.6130  138.0020 N   0  0  0  0  0  1  0  0  0  0  0  0
  192.8780  175.9370  137.9490 C   0  0  0  0  0  2  0  0  0  0  0  0
  183.4460  179.0270  143.5150 C   0  0  0  0  0  0  0  0  0  0  0  0
  182.8380  179.7530  144.3530 O   0  0  0  0  0  0  0  0  0  0  0  0
  182.8590  178.7000  142.2900 O   0  0  0  0  0  0  0  0  0  0  0  0
  181.4690  178.8880  142.0470 C   0  0  0  0  0  2  0  0  0  0  0  0
  181.0420  178.0610  140.8480 C   0  0  2  0  0  3  0  0  0  0  0  0
  179.6890  178.4560  140.3990 C   0  0  0  0  0  2  0  0  0  0  0  0
  179.8990  177.3140  141.1930 O   0  0  0  0  0  0  0  0  0  0  0  0
  1  5  1  0  0  0  0
  2 12  2  0  0  0  0
  3 12  1  0  0  0  0
  4 10  2  0  0  0  0
  5  6  2  0  0  0  0
  6 18  1  0  0  0  0
  7  4  1  1  0  0  0
  7  9  1  0  0  0  0
  7  2  1  0  0  0  0
  8  7  1  0  0  0  0
  8  9  1  0  0  0  0
  9  6  1  6  0  0  0
  9  2  1  0  0  0  0
 10  3  1  0  0  0  0
 11  1  2  0  0  0  0
 11  8  1  0  0  0  0
 13 19  1  0  0  0  0
 14 13  1  0  0  0  0
 15 17  1  0  0  0  0
 15 14  1  0  0  0  0
 16 19  2  0  0  0  0
 17 16  1  0  0  0  0
 18 17  2  0  0  0  0
 20 21  2  0  0  0  0
 21 22  1  0  0  0  0
 22  1  1  0  0  0  0
 23 21  1  0  0  0  0
 25 24  1  0  0  0  0
 25 23  1  0  0  0  0
 26 10  1  0  0  0  0
 26 27  2  0  0  0  0
 28 26  1  0  0  0  0
 29 28  1  0  0  0  0
 30 32  1  0  0  0  0
 30 29  1  1  0  0  0
 31 30  1  0  0  0  0
 31 32  1  0  0  0  0
M  END
>  <MODEL>
4

>  <REMARK>
 VINA RESULT:      -7.5      2.726      8.407
  Name = 
  8 active torsions:
  status: ('A' for Active; 'I' for Inactive)
    1  A    between atoms: C_1  and  N_28
    2  A    between atoms: C_3  and  C_13
    3  A    between atoms: C_5  and  C_9
    4  A    between atoms: C_8  and  O_10
    5  A    between atoms: C_8  and  C_25
    6  A    between atoms: C_9  and  C_27
    7  A    between atoms: O_10  and  C_13
    8  A    between atoms: C_18  and  C_20
                            x       y       z     vdW  Elec       q    Type
                         _______ _______ _______ _____ _____    ______ ____

>  <TORSDO>
F 8

$$$$
=
 OpenBabel10222416333D

 32 37  0  0  1  0  0  0  0  0999 V2000
  192.9760  176.4000  138.3270 C   0  0  0  0  0  0  0  0  0  0  0  0
  190.2290  177.1880  141.0960 C   0  0  0  0  0  0  0  0  0  0  0  0
  189.5430  176.6790  143.2890 C   0  0  0  0  0  2  0  0  0  0  0  0
  191.9610  177.1250  142.8440 C   0  0  0  0  0  3  0  0  0  0  0  0
  191.5790  175.9680  138.0350 C   0  0  0  0  0  3  0  0  0  0  0  0
  190.5230  176.3820  138.7710 C   0  0  0  0  0  0  0  0  0  0  0  0
  191.5670  177.3120  141.5310 C   0  0  1  0  0  0  0  0  0  0  0  0
  192.0690  177.5280  140.1740 N   0  0  0  0  0  0  0  0  0  0  0  0
  190.7050  177.4980  139.7820 C   0  0  2  0  0  0  0  0  0  0  0  0
  190.9040  176.7940  143.7370 C   0  0  0  0  0  0  0  0  0  0  0  0
  193.2140  177.1360  139.4260 C   0  0  0  0  0  3  0  0  0  0  0  0
  189.1720  176.8850  141.9350 C   0  0  0  0  0  3  0  0  0  0  0  0
  186.8370  177.8690  135.4400 C   0  0  0  0  0  2  0  0  0  0  0  0
  188.3620  177.9280  135.3270 C   0  0  0  0  0  2  0  0  0  0  0  0
  188.9860  177.8300  136.7200 C   0  0  0  0  0  2  0  0  0  0  0  0
  187.1170  176.1050  137.0890 C   0  0  0  0  0  3  0  0  0  0  0  0
  188.4550  176.6160  137.4380 C   0  0  0  0  0  0  0  0  0  0  0  0
  189.1660  175.9760  138.3720 C   0  0  0  0  0  3  0  0  0  0  0  0
  186.4060  176.6640  136.1520 N   0  0  0  0  0  0  0  0  0  0  0  0
  194.4790  173.8540  138.3130 O   0  0  0  0  0  0  0  0  0  0  0  0
  194.7810  174.7710  137.5030 C   0  0  0  0  0  0  0  0  0  0  0  0
  194.0240  175.9890  137.4390 N   0  0  0  0  0  2  0  0  0  0  0  0
  195.9910  174.6310  136.6350 C   0  0  0  0  0  2  0  0  0  0  0  0
  197.9770  175.2530  137.9280 N   0  0  0  0  0  1  0  0  0  0  0  0
  197.2060  174.1300  137.4130 C   0  0  0  0  0  2  0  0  0  0  0  0
  191.2030  176.6140  145.1580 C   0  0  0  0  0  0  0  0  0  0  0  0
  192.0510  175.7470  145.5170 O   0  0  0  0  0  0  0  0  0  0  0  0
  190.5260  177.3900  146.1020 O   0  0  0  0  0  0  0  0  0  0  0  0
  189.7920  176.8050  147.1710 C   0  0  0  0  0  2  0  0  0  0  0  0
  188.5330  177.6120  147.4310 C   0  0  2  0  0  3  0  0  0  0  0  0
  188.5760  178.2250  148.7760 C   0  0  0  0  0  2  0  0  0  0  0  0
  187.8460  177.0490  148.5240 O   0  0  0  0  0  0  0  0  0  0  0  0
  1 11  2  0  0  0  0
  2  7  1  0  0  0  0
  2 12  2  0  0  0  0
  3 10  1  0  0  0  0
  4 10  2  0  0  0  0
  5  1  1  0  0  0  0
  5  6  2  0  0  0  0
  7  4  1  1  0  0  0
  8  7  1  0  0  0  0
  9  6  1  6  0  0  0
  9  8  1  0  0  0  0
  9  2  1  0  0  0  0
  9  7  1  0  0  0  0
 10 26  1  0  0  0  0
 11  8  1  0  0  0  0
 12  3  1  0  0  0  0
 13 19  1  0  0  0  0
 14 13  1  0  0  0  0
 14 15  1  0  0  0  0
 15 17  1  0  0  0  0
 16 17  1  0  0  0  0
 17 18  2  0  0  0  0
 18  6  1  0  0  0  0
 19 16  2  0  0  0  0
 21 20  2  0  0  0  0
 22 21  1  0  0  0  0
 22  1  1  0  0  0  0
 23 25  1  0  0  0  0
 23 21  1  0  0  0  0
 25 24  1  0  0  0  0
 26 27  2  0  0  0  0
 26 28  1  0  0  0  0
 28 29  1  0  0  0  0
 30 29  1  1  0  0  0
 30 32  1  0  0  0  0
 30 31  1  0  0  0  0
 32 31  1  0  0  0  0
M  END
>  <MODEL>
5

>  <REMARK>
 VINA RESULT:      -7.5      4.378     10.257
  Name = 
  8 active torsions:
  status: ('A' for Active; 'I' for Inactive)
    1  A    between atoms: C_1  and  N_28
    2  A    between atoms: C_3  and  C_13
    3  A    between atoms: C_5  and  C_9
    4  A    between atoms: C_8  and  O_10
    5  A    between atoms: C_8  and  C_25
    6  A    between atoms: C_9  and  C_27
    7  A    between atoms: O_10  and  C_13
    8  A    between atoms: C_18  and  C_20
                            x       y       z     vdW  Elec       q    Type
                         _______ _______ _______ _____ _____    ______ ____

>  <TORSDO>
F 8

$$$$
=
 OpenBabel10222416333D

 32 37  0  0  1  0  0  0  0  0999 V2000
  185.5590  178.4320  142.8190 C   0  0  0  0  0  0  0  0  0  0  0  0
  188.9120  177.8370  140.7630 C   0  0  0  0  0  0  0  0  0  0  0  0
  189.8400  176.6750  138.9390 C   0  0  0  0  0  2  0  0  0  0  0  0
  187.6290  177.8060  138.6620 C   0  0  0  0  0  3  0  0  0  0  0  0
  186.6730  177.7430  143.5300 C   0  0  0  0  0  3  0  0  0  0  0  0
  187.9300  177.6950  143.0330 C   0  0  0  0  0  0  0  0  0  0  0  0
  187.7900  178.1890  139.9820 C   0  0  1  0  0  0  0  0  0  0  0  0
  187.1140  178.8340  141.1080 N   0  0  0  0  0  0  0  0  0  0  0  0
  188.2980  178.5530  141.8390 C   0  0  2  0  0  0  0  0  0  0  0  0
  188.6960  177.0200  138.1410 C   0  0  0  0  0  0  0  0  0  0  0  0
  185.7780  178.9280  141.5880 C   0  0  0  0  0  3  0  0  0  0  0  0
  189.9760  177.0900  140.2880 C   0  0  0  0  0  3  0  0  0  0  0  0
  189.5360  177.5610  147.9620 C   0  0  0  0  0  2  0  0  0  0  0  0
  188.1280  177.6950  147.3790 C   0  0  0  0  0  2  0  0  0  0  0  0
  188.2150  178.1640  145.9250 C   0  0  0  0  0  2  0  0  0  0  0  0
  190.2150  176.5520  145.8580 C   0  0  0  0  0  3  0  0  0  0  0  0
  189.1350  177.2600  145.1460 C   0  0  0  0  0  0  0  0  0  0  0  0
  188.9930  177.0640  143.8320 C   0  0  0  0  0  3  0  0  0  0  0  0
  190.3640  176.6710  147.1460 N   0  0  0  0  0  0  0  0  0  0  0  0
  182.8800  178.5080  141.5720 O   0  0  0  0  0  0  0  0  0  0  0  0
  182.9980  178.6210  142.8220 C   0  0  0  0  0  0  0  0  0  0  0  0
  184.2790  178.5180  143.4610 N   0  0  0  0  0  2  0  0  0  0  0  0
  181.8010  178.9410  143.6590 C   0  0  0  0  0  2  0  0  0  0  0  0
  179.4810  178.1840  143.8680 N   0  0  0  0  0  1  0  0  0  0  0  0
  180.4910  178.6550  142.9310 C   0  0  0  0  0  2  0  0  0  0  0  0
  188.6480  176.5950  136.7420 C   0  0  0  0  0  0  0  0  0  0  0  0
  189.0200  177.3900  135.8310 O   0  0  0  0  0  0  0  0  0  0  0  0
  188.1700  175.3200  136.4310 O   0  0  0  0  0  0  0  0  0  0  0  0
  186.9490  174.8230  136.9650 C   0  0  0  0  0  2  0  0  0  0  0  0
  187.0130  173.3100  137.0710 C   0  0  2  0  0  3  0  0  0  0  0  0
  185.7620  172.7000  136.5690 C   0  0  0  0  0  2  0  0  0  0  0  0
  186.0000  172.8700  137.9460 O   0  0  0  0  0  0  0  0  0  0  0  0
  1 22  1  0  0  0  0
  1  5  1  0  0  0  0
  3 12  1  0  0  0  0
  6  5  2  0  0  0  0
  6 18  1  0  0  0  0
  7  4  1  6  0  0  0
  7  2  1  0  0  0  0
  7  8  1  0  0  0  0
  7  9  1  0  0  0  0
  8 11  1  0  0  0  0
  8  9  1  0  0  0  0
  9  2  1  1  0  0  0
  9  6  1  0  0  0  0
 10  4  2  0  0  0  0
 10  3  1  0  0  0  0
 11  1  2  0  0  0  0
 12  2  2  0  0  0  0
 14 13  1  0  0  0  0
 15 14  1  0  0  0  0
 16 19  2  0  0  0  0
 17 16  1  0  0  0  0
 17 15  1  0  0  0  0
 18 17  2  0  0  0  0
 19 13  1  0  0  0  0
 20 21  2  0  0  0  0
 21 22  1  0  0  0  0
 21 23  1  0  0  0  0
 25 23  1  0  0  0  0
 25 24  1  0  0  0  0
 26 10  1  0  0  0  0
 27 26  2  0  0  0  0
 28 26  1  0  0  0  0
 28 29  1  0  0  0  0
 30 29  1  6  0  0  0
 30 32  1  0  0  0  0
 31 30  1  0  0  0  0
 31 32  1  0  0  0  0
M  END
>  <MODEL>
6

>  <REMARK>
 VINA RESULT:      -7.5      1.993      2.974
  Name = 
  8 active torsions:
  status: ('A' for Active; 'I' for Inactive)
    1  A    between atoms: C_1  and  N_28
    2  A    between atoms: C_3  and  C_13
    3  A    between atoms: C_5  and  C_9
    4  A    between atoms: C_8  and  O_10
    5  A    between atoms: C_8  and  C_25
    6  A    between atoms: C_9  and  C_27
    7  A    between atoms: O_10  and  C_13
    8  A    between atoms: C_18  and  C_20
                            x       y       z     vdW  Elec       q    Type
                         _______ _______ _______ _____ _____    ______ ____

>  <TORSDO>
F 8

$$$$
=
 OpenBabel10222416333D

 32 37  0  0  1  0  0  0  0  0999 V2000
  186.6950  177.8840  145.1050 C   0  0  0  0  0  0  0  0  0  0  0  0
  184.1300  179.0520  142.2970 C   0  0  0  0  0  0  0  0  0  0  0  0
  182.0200  178.6120  141.3510 C   0  0  0  0  0  2  0  0  0  0  0  0
  182.2510  178.6600  143.8380 C   0  0  0  0  0  3  0  0  0  0  0  0
  187.1150  177.6970  143.6870 C   0  0  0  0  0  3  0  0  0  0  0  0
  186.4520  178.2630  142.6540 C   0  0  0  0  0  0  0  0  0  0  0  0
  183.5830  178.9420  143.5940 C   0  0  1  0  0  0  0  0  0  0  0  0
  184.8860  179.1030  144.2400 N   0  0  0  0  0  0  0  0  0  0  0  0
  185.3880  179.3090  142.9280 C   0  0  2  0  0  0  0  0  0  0  0  0
  181.4590  178.4880  142.6680 C   0  0  0  0  0  0  0  0  0  0  0  0
  185.5530  178.5440  145.3650 C   0  0  0  0  0  3  0  0  0  0  0  0
  183.3910  178.9090  141.1360 C   0  0  0  0  0  3  0  0  0  0  0  0
  190.9970  177.4260  140.3010 C   0  0  0  0  0  2  0  0  0  0  0  0
  190.4780  176.9500  141.6590 C   0  0  0  0  0  2  0  0  0  0  0  0
  189.3120  177.8350  142.1040 C   0  0  0  0  0  2  0  0  0  0  0  0
  188.6820  177.7090  139.6160 C   0  0  0  0  0  3  0  0  0  0  0  0
  188.2680  177.8960  141.0190 C   0  0  0  0  0  0  0  0  0  0  0  0
  186.9750  178.0980  141.2880 C   0  0  0  0  0  3  0  0  0  0  0  0
  189.9220  177.4600  139.3070 N   0  0  0  0  0  0  0  0  0  0  0  0
  189.5640  178.3530  145.6400 O   0  0  0  0  0  0  0  0  0  0  0  0
  188.9190  177.5230  146.3350 C   0  0  0  0  0  0  0  0  0  0  0  0
  187.5100  177.3260  146.1450 N   0  0  0  0  0  2  0  0  0  0  0  0
  189.6350  176.6680  147.3320 C   0  0  0  0  0  2  0  0  0  0  0  0
  191.8310  176.1410  146.3820 N   0  0  0  0  0  1  0  0  0  0  0  0
  191.1340  176.9540  147.3690 C   0  0  0  0  0  2  0  0  0  0  0  0
  180.0270  178.2270  142.8100 C   0  0  0  0  0  0  0  0  0  0  0  0
  179.4690  178.3760  143.9350 O   0  0  0  0  0  0  0  0  0  0  0  0
  179.2980  177.7930  141.7000 O   0  0  0  0  0  0  0  0  0  0  0  0
  179.2690  176.4260  141.3050 C   0  0  0  0  0  2  0  0  0  0  0  0
  179.6410  176.3080  139.8380 C   0  0  2  0  0  3  0  0  0  0  0  0
  179.5700  174.8990  139.3950 C   0  0  0  0  0  2  0  0  0  0  0  0
  180.7950  175.5090  139.7220 O   0  0  0  0  0  0  0  0  0  0  0  0
  1 11  2  0  0  0  0
  1 22  1  0  0  0  0
  2  7  1  0  0  0  0
  3 10  1  0  0  0  0
  5  1  1  0  0  0  0
  6  9  1  0  0  0  0
  6  5  2  0  0  0  0
  7  4  1  1  0  0  0
  7  8  1  0  0  0  0
  8 11  1  0  0  0  0
  9  2  1  6  0  0  0
  9  7  1  0  0  0  0
  9  8  1  0  0  0  0
 10 26  1  0  0  0  0
 10  4  2  0  0  0  0
 12  3  1  0  0  0  0
 12  2  2  0  0  0  0
 13 14  1  0  0  0  0
 14 15  1  0  0  0  0
 16 17  1  0  0  0  0
 17 18  2  0  0  0  0
 17 15  1  0  0  0  0
 18  6  1  0  0  0  0
 19 16  2  0  0  0  0
 19 13  1  0  0  0  0
 20 21  2  0  0  0  0
 21 23  1  0  0  0  0
 22 21  1  0  0  0  0
 23 25  1  0  0  0  0
 24 25  1  0  0  0  0
 26 27  2  0  0  0  0
 28 26  1  0  0  0  0
 29 28  1  0  0  0  0
 30 29  1  1  0  0  0
 31 32  1  0  0  0  0
 31 30  1  0  0  0  0
 32 30  1  0  0  0  0
M  END
>  <MODEL>
7

>  <REMARK>
 VINA RESULT:      -7.3      3.555      8.677
  Name = 
  8 active torsions:
  status: ('A' for Active; 'I' for Inactive)
    1  A    between atoms: C_1  and  N_28
    2  A    between atoms: C_3  and  C_13
    3  A    between atoms: C_5  and  C_9
    4  A    between atoms: C_8  and  O_10
    5  A    between atoms: C_8  and  C_25
    6  A    between atoms: C_9  and  C_27
    7  A    between atoms: O_10  and  C_13
    8  A    between atoms: C_18  and  C_20
                            x       y       z     vdW  Elec       q    Type
                         _______ _______ _______ _____ _____    ______ ____

>  <TORSDO>
F 8

$$$$
=
 OpenBabel10222416333D

 32 37  0  0  1  0  0  0  0  0999 V2000
  187.6090  177.9840  140.9450 C   0  0  0  0  0  0  0  0  0  0  0  0
  190.3550  176.5860  143.4630 C   0  0  0  0  0  0  0  0  0  0  0  0
  191.3510  176.9290  145.5670 C   0  0  0  0  0  2  0  0  0  0  0  0
  188.8640  177.0590  145.3640 C   0  0  0  0  0  3  0  0  0  0  0  0
  189.0330  178.0760  140.5110 C   0  0  0  0  0  3  0  0  0  0  0  0
  190.0300  177.4300  141.1560 C   0  0  0  0  0  0  0  0  0  0  0  0
  189.0740  176.7800  144.0260 C   0  0  1  0  0  0  0  0  0  0  0  0
  188.4060  176.6820  142.7280 N   0  0  0  0  0  0  0  0  0  0  0  0
  189.6940  176.3910  142.2080 C   0  0  2  0  0  0  0  0  0  0  0  0
  190.0520  177.1370  146.1440 C   0  0  0  0  0  0  0  0  0  0  0  0
  187.3150  177.3280  142.0810 C   0  0  0  0  0  3  0  0  0  0  0  0
  191.5300  176.6370  144.1900 C   0  0  0  0  0  3  0  0  0  0  0  0
  192.6740  175.8300  136.9910 C   0  0  0  0  0  2  0  0  0  0  0  0
  191.2110  176.2550  137.1370 C   0  0  0  0  0  2  0  0  0  0  0  0
  190.7950  176.1710  138.6070 C   0  0  0  0  0  2  0  0  0  0  0  0
  193.1540  177.1120  138.9990 C   0  0  0  0  0  3  0  0  0  0  0  0
  191.7640  176.9470  139.4620 C   0  0  0  0  0  0  0  0  0  0  0  0
  191.3990  177.5060  140.6200 C   0  0  0  0  0  3  0  0  0  0  0  0
  193.5450  176.6290  137.8550 N   0  0  0  0  0  0  0  0  0  0  0  0
  184.9260  178.9070  141.7730 O   0  0  0  0  0  0  0  0  0  0  0  0
  185.2820  179.0000  140.5670 C   0  0  0  0  0  0  0  0  0  0  0  0
  186.6030  178.6250  140.1490 N   0  0  0  0  0  2  0  0  0  0  0  0
  184.2980  179.4380  139.5290 C   0  0  0  0  0  2  0  0  0  0  0  0
  183.0350  177.3390  139.5010 N   0  0  0  0  0  1  0  0  0  0  0  0
  182.9340  178.7770  139.7100 C   0  0  0  0  0  2  0  0  0  0  0  0
  189.9440  177.3880  147.5820 C   0  0  0  0  0  0  0  0  0  0  0  0
  190.9920  177.5050  148.2800 O   0  0  0  0  0  0  0  0  0  0  0  0
  188.6780  177.4720  148.1670 O   0  0  0  0  0  0  0  0  0  0  0  0
  187.8630  178.6310  148.0330 C   0  0  0  0  0  2  0  0  0  0  0  0
  186.4650  178.2270  147.5990 C   0  0  2  0  0  3  0  0  0  0  0  0
  186.1490  178.7930  146.2700 C   0  0  0  0  0  2  0  0  0  0  0  0
  185.6780  179.3860  147.4560 O   0  0  0  0  0  0  0  0  0  0  0  0
  1 11  2  0  0  0  0
  2  7  1  0  0  0  0
  2 12  2  0  0  0  0
  3 10  1  0  0  0  0
  4 10  2  0  0  0  0
  5  1  1  0  0  0  0
  5  6  2  0  0  0  0
  7  4  1  1  0  0  0
  8  7  1  0  0  0  0
  9  6  1  6  0  0  0
  9  8  1  0  0  0  0
  9  2  1  0  0  0  0
  9  7  1  0  0  0  0
 10 26  1  0  0  0  0
 11  8  1  0  0  0  0
 12  3  1  0  0  0  0
 13 14  1  0  0  0  0
 13 19  1  0  0  0  0
 14 15  1  0  0  0  0
 15 17  1  0  0  0  0
 16 17  1  0  0  0  0
 17 18  2  0  0  0  0
 18  6  1  0  0  0  0
 19 16  2  0  0  0  0
 21 20  2  0  0  0  0
 22 21  1  0  0  0  0
 22  1  1  0  0  0  0
 23 25  1  0  0  0  0
 23 21  1  0  0  0  0
 24 25  1  0  0  0  0
 26 28  1  0  0  0  0
 26 27  2  0  0  0  0
 29 28  1  0  0  0  0
 30 29  1  1  0  0  0
 31 32  1  0  0  0  0
 31 30  1  0  0  0  0
 32 30  1  0  0  0  0
M  END
>  <MODEL>
8

>  <REMARK>
 VINA RESULT:      -7.2      3.408      7.846
  Name = 
  8 active torsions:
  status: ('A' for Active; 'I' for Inactive)
    1  A    between atoms: C_1  and  N_28
    2  A    between atoms: C_3  and  C_13
    3  A    between atoms: C_5  and  C_9
    4  A    between atoms: C_8  and  O_10
    5  A    between atoms: C_8  and  C_25
    6  A    between atoms: C_9  and  C_27
    7  A    between atoms: O_10  and  C_13
    8  A    between atoms: C_18  and  C_20
                            x       y       z     vdW  Elec       q    Type
                         _______ _______ _______ _____ _____    ______ ____

>  <TORSDO>
F 8

$$$$
=
 OpenBabel10222416333D

 32 37  0  0  1  0  0  0  0  0999 V2000
  190.7540  176.6000  138.2500 C   0  0  0  0  0  0  0  0  0  0  0  0
  188.0350  178.3830  140.5430 C   0  0  0  0  0  0  0  0  0  0  0  0
  186.6640  178.0970  142.4350 C   0  0  0  0  0  2  0  0  0  0  0  0
  189.0560  177.3830  142.5470 C   0  0  0  0  0  3  0  0  0  0  0  0
  189.4340  176.9000  137.6240 C   0  0  0  0  0  3  0  0  0  0  0  0
  188.5210  177.7070  138.2090 C   0  0  0  0  0  0  0  0  0  0  0  0
  189.1310  177.8300  141.2400 C   0  0  1  0  0  0  0  0  0  0  0  0
  190.0020  177.8830  140.0650 N   0  0  0  0  0  0  0  0  0  0  0  0
  188.9130  178.5280  139.4220 C   0  0  2  0  0  0  0  0  0  0  0  0
  187.7730  177.5240  143.1470 C   0  0  0  0  0  0  0  0  0  0  0  0
  191.0050  177.0540  139.4900 C   0  0  0  0  0  3  0  0  0  0  0  0
  186.7780  178.5520  141.0960 C   0  0  0  0  0  3  0  0  0  0  0  0
  184.5360  175.1840  136.0530 C   0  0  0  0  0  2  0  0  0  0  0  0
  185.3890  174.8370  137.2750 C   0  0  0  0  0  2  0  0  0  0  0  0
  186.7070  175.6100  137.2190 C   0  0  0  0  0  2  0  0  0  0  0  0
  185.1940  177.5030  136.3640 C   0  0  0  0  0  3  0  0  0  0  0  0
  186.4350  177.0810  137.0410 C   0  0  0  0  0  0  0  0  0  0  0  0
  187.2740  178.0190  137.4920 C   0  0  0  0  0  3  0  0  0  0  0  0
  184.3220  176.6290  135.9510 N   0  0  0  0  0  0  0  0  0  0  0  0
  190.6240  173.7220  137.5880 O   0  0  0  0  0  0  0  0  0  0  0  0
  191.6400  174.3980  137.2720 C   0  0  0  0  0  0  0  0  0  0  0  0
  191.7010  175.8110  137.5180 N   0  0  0  0  0  2  0  0  0  0  0  0
  192.8400  173.7160  136.6960 C   0  0  0  0  0  2  0  0  0  0  0  0
  194.6540  173.6330  138.3390 N   0  0  0  0  0  1  0  0  0  0  0  0
  194.1470  174.3430  137.1740 C   0  0  0  0  0  2  0  0  0  0  0  0
  187.5920  177.1200  144.5410 C   0  0  0  0  0  0  0  0  0  0  0  0
  186.4340  177.1230  145.0510 O   0  0  0  0  0  0  0  0  0  0  0  0
  188.7080  176.7570  145.2980 O   0  0  0  0  0  0  0  0  0  0  0  0
  189.3010  177.6440  146.2390 C   0  0  0  0  0  2  0  0  0  0  0  0
  188.8940  177.2450  147.6470 C   0  0  2  0  0  3  0  0  0  0  0  0
  187.9960  178.2610  148.2370 C   0  0  0  0  0  2  0  0  0  0  0  0
  189.3670  178.2160  148.5510 O   0  0  0  0  0  0  0  0  0  0  0  0
  1 11  2  0  0  0  0
  2 12  2  0  0  0  0
  2  7  1  0  0  0  0
  3 10  1  0  0  0  0
  4 10  2  0  0  0  0
  5  6  2  0  0  0  0
  5  1  1  0  0  0  0
  7  4  1  1  0  0  0
  8  7  1  0  0  0  0
  9  6  1  6  0  0  0
  9  8  1  0  0  0  0
  9  2  1  0  0  0  0
  9  7  1  0  0  0  0
 10 26  1  0  0  0  0
 11  8  1  0  0  0  0
 12  3  1  0  0  0  0
 13 14  1  0  0  0  0
 15 14  1  0  0  0  0
 16 17  1  0  0  0  0
 17 15  1  0  0  0  0
 17 18  2  0  0  0  0
 18  6  1  0  0  0  0
 19 13  1  0  0  0  0
 19 16  2  0  0  0  0
 21 22  1  0  0  0  0
 21 20  2  0  0  0  0
 22  1  1  0  0  0  0
 23 25  1  0  0  0  0
 23 21  1  0  0  0  0
 25 24  1  0  0  0  0
 26 27  2  0  0  0  0
 26 28  1  0  0  0  0
 28 29  1  0  0  0  0
 30 29  1  6  0  0  0
 30 31  1  0  0  0  0
 30 32  1  0  0  0  0
 31 32  1  0  0  0  0
M  END
>  <MODEL>
9

>  <REMARK>
 VINA RESULT:      -7.2      3.510      9.411
  Name = 
  8 active torsions:
  status: ('A' for Active; 'I' for Inactive)
    1  A    between atoms: C_1  and  N_28
    2  A    between atoms: C_3  and  C_13
    3  A    between atoms: C_5  and  C_9
    4  A    between atoms: C_8  and  O_10
    5  A    between atoms: C_8  and  C_25
    6  A    between atoms: C_9  and  C_27
    7  A    between atoms: O_10  and  C_13
    8  A    between atoms: C_18  and  C_20
                            x       y       z     vdW  Elec       q    Type
                         _______ _______ _______ _____ _____    ______ ____

>  <TORSDO>
F 8

$$$$
