=
 OpenBabel10222416553D

 28 31  0  0  1  0  0  0  0  0999 V2000
  188.3230  177.5380  147.2900 C   0  0  1  0  0  3  0  0  0  0  0  0
  191.2540  176.8370  143.6130 N   0  0  0  0  0  0  0  0  0  0  0  0
  191.7520  176.2040  146.1530 S   0  0  0  0  0  0  0  0  0  0  0  0
  189.6910  177.2500  145.4560 C   0  0  0  0  0  0  0  0  0  0  0  0
  190.8690  176.8210  144.8580 C   0  0  0  0  0  0  0  0  0  0  0  0
  188.5290  177.8390  145.0290 O   0  0  0  0  0  0  0  0  0  0  0  0
  189.6300  177.0520  146.7870 C   0  0  0  0  0  0  0  0  0  0  0  0
  188.5400  178.6610  148.2850 C   0  0  0  0  0  1  0  0  0  0  0  0
  190.6690  176.4850  147.3710 O   0  0  0  0  0  0  0  0  0  0  0  0
  187.6430  178.0690  146.0790 N   0  0  0  0  0  0  0  0  0  0  0  0
  187.9830  178.2480  139.4480 N   0  0  0  0  0  0  0  0  0  0  0  0
  188.9020  178.1230  140.3610 C   0  0  0  0  0  0  0  0  0  0  0  0
  188.7000  178.6590  141.6710 N   0  0  0  0  0  0  0  0  0  0  0  0
  189.0040  176.4490  138.1150 C   0  0  0  0  0  3  0  0  0  0  0  0
  190.5600  177.3290  142.4560 C   0  0  0  0  0  0  0  0  0  0  0  0
  190.8260  176.8840  141.2610 N   0  0  0  0  0  0  0  0  0  0  0  0
  189.9640  176.3080  139.0430 C   0  0  0  0  0  3  0  0  0  0  0  0
  189.4750  178.3110  142.6550 C   0  0  0  0  0  3  0  0  0  0  0  0
  188.1490  177.6990  138.0940 C   0  0  2  0  0  3  0  0  0  0  0  0
  190.1950  177.4060  140.0470 C   0  0  1  0  0  3  0  0  0  0  0  0
  188.9380  179.9050  137.5740 O   0  0  0  0  0  1  0  0  0  0  0  0
  189.0440  178.3820  135.8670 O   0  0  0  0  0  0  0  0  0  0  0  0
  188.7280  178.7300  137.1730 C   0  0  0  0  0  0  0  0  0  0  0  0
  186.4650  177.2420  145.8460 C   0  0  0  0  0  2  0  0  0  0  0  0
  185.1940  178.0590  146.0290 C   0  0  0  0  0  2  0  0  0  0  0  0
  185.0550  179.0820  144.9190 C   0  0  0  0  0  2  0  0  0  0  0  0
  185.2770  179.3490  142.5210 N   0  0  0  0  0  1  0  0  0  0  0  0
  185.0770  178.3760  143.5800 C   0  0  0  0  0  2  0  0  0  0  0  0
  1  8  1  1  0  0  0
  2  5  2  0  0  0  0
  3  9  1  0  0  0  0
  4  7  2  0  0  0  0
  5  4  1  0  0  0  0
  5  3  1  0  0  0  0
  6  4  1  0  0  0  0
  6 10  1  0  0  0  0
  7  1  1  0  0  0  0
  7  9  1  0  0  0  0
 10  1  1  0  0  0  0
 11 12  2  0  0  0  0
 12 13  1  0  0  0  0
 13 18  2  0  0  0  0
 14 17  2  0  0  0  0
 15 18  1  0  0  0  0
 15  2  1  0  0  0  0
 16 15  2  0  0  0  0
 19 23  1  6  0  0  0
 19 14  1  0  0  0  0
 19 11  1  0  0  0  0
 20 17  1  6  0  0  0
 20 12  1  0  0  0  0
 20 16  1  0  0  0  0
 22 23  2  0  0  0  0
 23 21  1  0  0  0  0
 24 25  1  0  0  0  0
 24 10  1  0  0  0  0
 26 25  1  0  0  0  0
 27 28  1  0  0  0  0
 28 26  1  0  0  0  0
M  END
>  <MODEL>
1

>  <REMARK>
 VINA RESULT:      -8.3      0.000      0.000
  Name = 
  6 active torsions:
  status: ('A' for Active; 'I' for Inactive)
    1  A    between atoms: N_3  and  C_13
    2  A    between atoms: C_6  and  C_23
    3  A    between atoms: C_20  and  C_23
    4  A    between atoms: C_20  and  C_26
    5  A    between atoms: C_22  and  CA_27
    6  A    between atoms: N_24  and  C_26
                            x       y       z     vdW  Elec       q    Type
                         _______ _______ _______ _____ _____    ______ ____

>  <TORSDO>
F 6

$$$$
=
 OpenBabel10222416553D

 28 31  0  0  1  0  0  0  0  0999 V2000
  189.2180  177.2340  142.9180 C   0  0  1  0  0  3  0  0  0  0  0  0
  190.0630  176.8960  138.2520 N   0  0  0  0  0  0  0  0  0  0  0  0
  188.0420  178.2120  139.3840 S   0  0  0  0  0  0  0  0  0  0  0  0
  189.6880  177.0050  140.6730 C   0  0  0  0  0  0  0  0  0  0  0  0
  189.4270  177.2550  139.3320 C   0  0  0  0  0  0  0  0  0  0  0  0
  190.6410  176.3160  141.3770 O   0  0  0  0  0  0  0  0  0  0  0  0
  188.8140  177.5660  141.5310 C   0  0  0  0  0  0  0  0  0  0  0  0
  188.1220  176.4330  143.5950 C   0  0  0  0  0  1  0  0  0  0  0  0
  187.8260  178.2770  141.0230 O   0  0  0  0  0  0  0  0  0  0  0  0
  190.4260  176.3840  142.7520 N   0  0  0  0  0  0  0  0  0  0  0  0
  194.7640  174.3210  137.1100 N   0  0  0  0  0  0  0  0  0  0  0  0
  193.6670  174.8080  137.6150 C   0  0  0  0  0  0  0  0  0  0  0  0
  193.6650  176.0980  138.2320 N   0  0  0  0  0  0  0  0  0  0  0  0
  193.4790  172.6870  135.7920 C   0  0  0  0  0  3  0  0  0  0  0  0
  191.2500  176.0980  138.1230 C   0  0  0  0  0  0  0  0  0  0  0  0
  191.2110  174.8900  137.6360 N   0  0  0  0  0  0  0  0  0  0  0  0
  192.3380  173.1730  136.3050 C   0  0  0  0  0  3  0  0  0  0  0  0
  192.5450  176.7050  138.4910 C   0  0  0  0  0  3  0  0  0  0  0  0
  194.8030  173.0040  136.4560 C   0  0  2  0  0  3  0  0  0  0  0  0
  192.3820  174.0160  137.5520 C   0  0  1  0  0  3  0  0  0  0  0  0
  195.9400  172.1960  138.4100 O   0  0  0  0  0  1  0  0  0  0  0  0
  194.6780  170.6520  137.2820 O   0  0  0  0  0  0  0  0  0  0  0  0
  195.1800  171.9380  137.4390 C   0  0  0  0  0  0  0  0  0  0  0  0
  191.5490  177.1090  143.3350 C   0  0  0  0  0  2  0  0  0  0  0  0
  191.2910  177.3990  144.8060 C   0  0  0  0  0  2  0  0  0  0  0  0
  191.7610  176.2420  145.6660 C   0  0  0  0  0  2  0  0  0  0  0  0
  192.5540  176.0510  147.9480 N   0  0  0  0  0  1  0  0  0  0  0  0
  191.4690  176.5480  147.1200 C   0  0  0  0  0  2  0  0  0  0  0  0
  1  8  1  6  0  0  0
  2  5  2  0  0  0  0
  3  9  1  0  0  0  0
  4  6  1  0  0  0  0
  4  7  2  0  0  0  0
  5  3  1  0  0  0  0
  5  4  1  0  0  0  0
  6 10  1  0  0  0  0
  7  1  1  0  0  0  0
  9  7  1  0  0  0  0
 10  1  1  0  0  0  0
 10 24  1  0  0  0  0
 11 12  2  0  0  0  0
 12 13  1  0  0  0  0
 13 18  2  0  0  0  0
 14 17  2  0  0  0  0
 14 19  1  0  0  0  0
 15  2  1  0  0  0  0
 15 18  1  0  0  0  0
 16 15  2  0  0  0  0
 19 11  1  0  0  0  0
 19 23  1  1  0  0  0
 20 17  1  6  0  0  0
 20 12  1  0  0  0  0
 20 16  1  0  0  0  0
 22 23  2  0  0  0  0
 23 21  1  0  0  0  0
 24 25  1  0  0  0  0
 25 26  1  0  0  0  0
 26 28  1  0  0  0  0
 28 27  1  0  0  0  0
M  END
>  <MODEL>
2

>  <REMARK>
 VINA RESULT:      -8.0      4.625      6.699
  Name = 
  6 active torsions:
  status: ('A' for Active; 'I' for Inactive)
    1  A    between atoms: N_3  and  C_13
    2  A    between atoms: C_6  and  C_23
    3  A    between atoms: C_20  and  C_23
    4  A    between atoms: C_20  and  C_26
    5  A    between atoms: C_22  and  CA_27
    6  A    between atoms: N_24  and  C_26
                            x       y       z     vdW  Elec       q    Type
                         _______ _______ _______ _____ _____    ______ ____

>  <TORSDO>
F 6

$$$$
=
 OpenBabel10222416553D

 28 31  0  0  1  0  0  0  0  0999 V2000
  186.0810  178.5520  146.5240 C   0  0  1  0  0  3  0  0  0  0  0  0
  190.3320  176.6760  145.5210 N   0  0  0  0  0  0  0  0  0  0  0  0
  189.2790  176.9510  147.9530 S   0  0  0  0  0  0  0  0  0  0  0  0
  188.1350  177.6740  145.9530 C   0  0  0  0  0  0  0  0  0  0  0  0
  189.3490  177.0810  146.2750 C   0  0  0  0  0  0  0  0  0  0  0  0
  187.5080  178.0680  144.8000 O   0  0  0  0  0  0  0  0  0  0  0  0
  187.3400  177.9400  147.0090 C   0  0  0  0  0  0  0  0  0  0  0  0
  185.9350  179.9500  147.0940 C   0  0  0  0  0  1  0  0  0  0  0  0
  187.7860  177.6180  148.2080 O   0  0  0  0  0  0  0  0  0  0  0  0
  186.2590  178.6320  145.0500 N   0  0  0  0  0  0  0  0  0  0  0  0
  190.9490  177.7100  140.1750 N   0  0  0  0  0  0  0  0  0  0  0  0
  190.8390  177.2120  141.3720 C   0  0  0  0  0  0  0  0  0  0  0  0
  191.9650  177.1850  142.2520 N   0  0  0  0  0  0  0  0  0  0  0  0
  188.5040  177.9290  139.9960 C   0  0  0  0  0  3  0  0  0  0  0  0
  190.4630  176.7360  144.0920 C   0  0  0  0  0  0  0  0  0  0  0  0
  189.4240  176.6710  143.3090 N   0  0  0  0  0  0  0  0  0  0  0  0
  188.3700  177.4120  141.2280 C   0  0  0  0  0  3  0  0  0  0  0  0
  191.8080  176.9480  143.5210 C   0  0  0  0  0  3  0  0  0  0  0  0
  189.8100  177.7670  139.2460 C   0  0  2  0  0  3  0  0  0  0  0  0
  189.5160  176.6570  141.8480 C   0  0  1  0  0  3  0  0  0  0  0  0
  190.6210  175.6250  138.5270 O   0  0  0  0  0  1  0  0  0  0  0  0
  188.8100  176.4380  137.3850 O   0  0  0  0  0  0  0  0  0  0  0  0
  189.7810  176.5510  138.3720 C   0  0  0  0  0  0  0  0  0  0  0  0
  185.2570  177.7600  144.4450 C   0  0  0  0  0  2  0  0  0  0  0  0
  184.2160  178.5820  143.6990 C   0  0  0  0  0  2  0  0  0  0  0  0
  184.2860  178.3020  142.2100 C   0  0  0  0  0  2  0  0  0  0  0  0
  184.9220  179.5010  140.2020 N   0  0  0  0  0  1  0  0  0  0  0  0
  185.3070  179.2210  141.5740 C   0  0  0  0  0  2  0  0  0  0  0  0
  1  7  1  0  0  0  0
  1  8  1  1  0  0  0
  2  5  2  0  0  0  0
  3  9  1  0  0  0  0
  4  5  1  0  0  0  0
  4  7  2  0  0  0  0
  5  3  1  0  0  0  0
  6 10  1  0  0  0  0
  6  4  1  0  0  0  0
  7  9  1  0  0  0  0
 10  1  1  0  0  0  0
 11 12  2  0  0  0  0
 12 20  1  0  0  0  0
 12 13  1  0  0  0  0
 13 18  2  0  0  0  0
 14 17  2  0  0  0  0
 15  2  1  0  0  0  0
 16 15  2  0  0  0  0
 18 15  1  0  0  0  0
 19 23  1  1  0  0  0
 19 14  1  0  0  0  0
 19 11  1  0  0  0  0
 20 17  1  6  0  0  0
 20 16  1  0  0  0  0
 22 23  2  0  0  0  0
 23 21  1  0  0  0  0
 24 10  1  0  0  0  0
 25 24  1  0  0  0  0
 26 25  1  0  0  0  0
 27 28  1  0  0  0  0
 28 26  1  0  0  0  0
M  END
>  <MODEL>
3

>  <REMARK>
 VINA RESULT:      -7.8      1.889      2.620
  Name = 
  6 active torsions:
  status: ('A' for Active; 'I' for Inactive)
    1  A    between atoms: N_3  and  C_13
    2  A    between atoms: C_6  and  C_23
    3  A    between atoms: C_20  and  C_23
    4  A    between atoms: C_20  and  C_26
    5  A    between atoms: C_22  and  CA_27
    6  A    between atoms: N_24  and  C_26
                            x       y       z     vdW  Elec       q    Type
                         _______ _______ _______ _____ _____    ______ ____

>  <TORSDO>
F 6

$$$$
=
 OpenBabel10222416553D

 28 31  0  0  1  0  0  0  0  0999 V2000
  189.5460  177.0380  143.0220 C   0  0  1  0  0  3  0  0  0  0  0  0
  185.6390  178.2950  145.4210 N   0  0  0  0  0  0  0  0  0  0  0  0
  187.9850  177.6290  146.4930 S   0  0  0  0  0  0  0  0  0  0  0  0
  187.6040  177.6390  144.1090 C   0  0  0  0  0  0  0  0  0  0  0  0
  186.8710  177.9040  145.2590 C   0  0  0  0  0  0  0  0  0  0  0  0
  187.3580  177.6610  142.7610 O   0  0  0  0  0  0  0  0  0  0  0  0
  188.8820  177.2720  144.3270 C   0  0  0  0  0  0  0  0  0  0  0  0
  190.0000  175.5930  142.9290 C   0  0  0  0  0  1  0  0  0  0  0  0
  189.2950  177.2040  145.5780 O   0  0  0  0  0  0  0  0  0  0  0  0
  188.4780  177.2900  142.0200 N   0  0  0  0  0  0  0  0  0  0  0  0
  181.4830  178.6050  141.8610 N   0  0  0  0  0  0  0  0  0  0  0  0
  182.5000  178.7890  142.6530 C   0  0  0  0  0  0  0  0  0  0  0  0
  182.2970  179.0410  144.0450 N   0  0  0  0  0  0  0  0  0  0  0  0
  182.9380  177.5750  140.1640 C   0  0  0  0  0  3  0  0  0  0  0  0
  184.6360  178.5630  144.4280 C   0  0  0  0  0  0  0  0  0  0  0  0
  184.8750  178.4080  143.1570 N   0  0  0  0  0  0  0  0  0  0  0  0
  184.0000  177.7610  140.9650 C   0  0  0  0  0  3  0  0  0  0  0  0
  183.2870  178.9560  144.8840 C   0  0  0  0  0  3  0  0  0  0  0  0
  181.6520  178.3310  140.4260 C   0  0  2  0  0  3  0  0  0  0  0  0
  183.9080  178.7370  142.1080 C   0  0  1  0  0  3  0  0  0  0  0  0
  180.6790  180.4380  139.8140 O   0  0  0  0  0  1  0  0  0  0  0  0
  182.6010  179.8690  138.7060 O   0  0  0  0  0  0  0  0  0  0  0  0
  181.6060  179.6030  139.6370 C   0  0  0  0  0  0  0  0  0  0  0  0
  188.8860  178.4510  141.2360 C   0  0  0  0  0  2  0  0  0  0  0  0
  188.4470  178.2970  139.7870 C   0  0  0  0  0  2  0  0  0  0  0  0
  189.6070  177.8390  138.9250 C   0  0  0  0  0  2  0  0  0  0  0  0
  188.8410  179.5590  137.4000 N   0  0  0  0  0  1  0  0  0  0  0  0
  189.3300  178.1930  137.4800 C   0  0  0  0  0  2  0  0  0  0  0  0
  1  8  1  1  0  0  0
  1  7  1  0  0  0  0
  4  7  2  0  0  0  0
  4  5  1  0  0  0  0
  5  2  2  0  0  0  0
  5  3  1  0  0  0  0
  6  4  1  0  0  0  0
  7  9  1  0  0  0  0
  9  3  1  0  0  0  0
 10  6  1  0  0  0  0
 10  1  1  0  0  0  0
 11 12  2  0  0  0  0
 12 13  1  0  0  0  0
 13 18  2  0  0  0  0
 14 19  1  0  0  0  0
 14 17  2  0  0  0  0
 15 18  1  0  0  0  0
 15  2  1  0  0  0  0
 16 15  2  0  0  0  0
 19 23  1  6  0  0  0
 19 11  1  0  0  0  0
 20 17  1  6  0  0  0
 20 12  1  0  0  0  0
 20 16  1  0  0  0  0
 22 23  2  0  0  0  0
 23 21  1  0  0  0  0
 24 10  1  0  0  0  0
 25 24  1  0  0  0  0
 26 25  1  0  0  0  0
 27 28  1  0  0  0  0
 28 26  1  0  0  0  0
M  END
>  <MODEL>
4

>  <REMARK>
 VINA RESULT:      -7.6      3.207      6.070
  Name = 
  6 active torsions:
  status: ('A' for Active; 'I' for Inactive)
    1  A    between atoms: N_3  and  C_13
    2  A    between atoms: C_6  and  C_23
    3  A    between atoms: C_20  and  C_23
    4  A    between atoms: C_20  and  C_26
    5  A    between atoms: C_22  and  CA_27
    6  A    between atoms: N_24  and  C_26
                            x       y       z     vdW  Elec       q    Type
                         _______ _______ _______ _____ _____    ______ ____

>  <TORSDO>
F 6

$$$$
=
 OpenBabel10222416553D

 28 31  0  0  1  0  0  0  0  0999 V2000
  188.8100  176.2250  136.2750 C   0  0  1  0  0  3  0  0  0  0  0  0
  190.9350  176.8790  140.4770 N   0  0  0  0  0  0  0  0  0  0  0  0
  192.1650  176.4400  138.1550 S   0  0  0  0  0  0  0  0  0  0  0  0
  189.7600  176.5330  138.3530 C   0  0  0  0  0  0  0  0  0  0  0  0
  190.8570  176.6470  139.1980 C   0  0  0  0  0  0  0  0  0  0  0  0
  188.3990  176.5960  138.4970 O   0  0  0  0  0  0  0  0  0  0  0  0
  190.0650  176.3100  137.0600 C   0  0  0  0  0  0  0  0  0  0  0  0
  188.6900  174.8520  135.6420 C   0  0  0  0  0  1  0  0  0  0  0  0
  191.3410  176.2240  136.7370 O   0  0  0  0  0  0  0  0  0  0  0  0
  187.7350  176.4020  137.2870 N   0  0  0  0  0  0  0  0  0  0  0  0
  186.5590  176.9710  143.7750 N   0  0  0  0  0  0  0  0  0  0  0  0
  187.7000  177.1190  143.1680 C   0  0  0  0  0  0  0  0  0  0  0  0
  188.7570  176.1790  143.3730 N   0  0  0  0  0  0  0  0  0  0  0  0
  185.4670  178.5000  142.1850 C   0  0  0  0  0  3  0  0  0  0  0  0
  189.8770  177.0780  141.4280 C   0  0  0  0  0  0  0  0  0  0  0  0
  188.9740  178.0030  141.2600 N   0  0  0  0  0  0  0  0  0  0  0  0
  186.6370  178.6690  141.5480 C   0  0  0  0  0  3  0  0  0  0  0  0
  189.7870  176.1580  142.5800 C   0  0  0  0  0  3  0  0  0  0  0  0
  185.4440  177.9100  143.5800 C   0  0  2  0  0  3  0  0  0  0  0  0
  187.9210  178.2880  142.2350 C   0  0  1  0  0  3  0  0  0  0  0  0
  184.9830  180.1250  144.3830 O   0  0  0  0  0  0  0  0  0  0  0  0
  186.0410  178.7300  145.8600 O   0  0  0  0  0  1  0  0  0  0  0  0
  185.4740  178.9890  144.6190 C   0  0  0  0  0  0  0  0  0  0  0  0
  187.0390  177.6430  136.9670 C   0  0  0  0  0  2  0  0  0  0  0  0
  186.1930  178.1000  138.1460 C   0  0  0  0  0  2  0  0  0  0  0  0
  184.7270  177.8000  137.8970 C   0  0  0  0  0  2  0  0  0  0  0  0
  184.4090  179.9310  139.0040 N   0  0  0  0  0  1  0  0  0  0  0  0
  183.8810  178.5850  138.8750 C   0  0  0  0  0  2  0  0  0  0  0  0
  1  8  1  1  0  0  0
  1  7  1  0  0  0  0
  1 10  1  0  0  0  0
  2 15  1  0  0  0  0
  3  5  1  0  0  0  0
  4  6  1  0  0  0  0
  4  5  1  0  0  0  0
  5  2  2  0  0  0  0
  7  4  2  0  0  0  0
  9  7  1  0  0  0  0
  9  3  1  0  0  0  0
 10  6  1  0  0  0  0
 12 13  1  0  0  0  0
 12 11  2  0  0  0  0
 14 19  1  0  0  0  0
 15 18  1  0  0  0  0
 16 15  2  0  0  0  0
 16 20  1  0  0  0  0
 17 14  2  0  0  0  0
 18 13  2  0  0  0  0
 19 11  1  0  0  0  0
 19 23  1  1  0  0  0
 20 17  1  6  0  0  0
 20 12  1  0  0  0  0
 21 23  2  0  0  0  0
 23 22  1  0  0  0  0
 24 10  1  0  0  0  0
 24 25  1  0  0  0  0
 26 25  1  0  0  0  0
 26 28  1  0  0  0  0
 28 27  1  0  0  0  0
M  END
>  <MODEL>
5

>  <REMARK>
 VINA RESULT:      -7.6      2.996      7.104
  Name = 
  6 active torsions:
  status: ('A' for Active; 'I' for Inactive)
    1  A    between atoms: N_3  and  C_13
    2  A    between atoms: C_6  and  C_23
    3  A    between atoms: C_20  and  C_23
    4  A    between atoms: C_20  and  C_26
    5  A    between atoms: C_22  and  CA_27
    6  A    between atoms: N_24  and  C_26
                            x       y       z     vdW  Elec       q    Type
                         _______ _______ _______ _____ _____    ______ ____

>  <TORSDO>
F 6

$$$$
=
 OpenBabel10222416553D

 28 31  0  0  1  0  0  0  0  0999 V2000
  190.3200  177.5440  143.0690 C   0  0  1  0  0  3  0  0  0  0  0  0
  187.2370  178.3020  139.5310 N   0  0  0  0  0  0  0  0  0  0  0  0
  189.8030  177.6380  139.2540 S   0  0  0  0  0  0  0  0  0  0  0  0
  188.7670  177.9470  141.4130 C   0  0  0  0  0  0  0  0  0  0  0  0
  188.3860  178.0270  140.0800 C   0  0  0  0  0  0  0  0  0  0  0  0
  188.1500  178.1230  142.6240 O   0  0  0  0  0  0  0  0  0  0  0  0
  190.0560  177.6080  141.6120 C   0  0  0  0  0  0  0  0  0  0  0  0
  191.3760  178.5660  143.4460 C   0  0  0  0  0  1  0  0  0  0  0  0
  190.8050  177.3930  140.5470 O   0  0  0  0  0  0  0  0  0  0  0  0
  189.0220  177.9170  143.6910 N   0  0  0  0  0  0  0  0  0  0  0  0
  182.5640  178.8460  142.3420 N   0  0  0  0  0  0  0  0  0  0  0  0
  183.6390  178.9730  141.6180 C   0  0  0  0  0  0  0  0  0  0  0  0
  184.9030  179.2190  142.2370 N   0  0  0  0  0  0  0  0  0  0  0  0
  181.3830  177.7670  140.4710 C   0  0  0  0  0  3  0  0  0  0  0  0
  185.9880  178.6280  140.1590 C   0  0  0  0  0  0  0  0  0  0  0  0
  184.8520  178.4750  139.5390 N   0  0  0  0  0  0  0  0  0  0  0  0
  182.4800  177.8940  139.7080 C   0  0  0  0  0  3  0  0  0  0  0  0
  186.0070  179.0790  141.5650 C   0  0  0  0  0  3  0  0  0  0  0  0
  181.2480  178.5790  141.7420 C   0  0  2  0  0  3  0  0  0  0  0  0
  183.5620  178.8600  140.1130 C   0  0  1  0  0  3  0  0  0  0  0  0
  180.2970  180.2530  140.3090 O   0  0  0  0  0  0  0  0  0  0  0  0
  180.0640  180.6190  142.5570 O   0  0  0  0  0  1  0  0  0  0  0  0
  180.5150  179.8600  141.4850 C   0  0  0  0  0  0  0  0  0  0  0  0
  188.5440  176.7520  144.4270 C   0  0  0  0  0  2  0  0  0  0  0  0
  187.0910  176.9410  144.8390 C   0  0  0  0  0  2  0  0  0  0  0  0
  186.9830  177.9670  145.9500 C   0  0  0  0  0  2  0  0  0  0  0  0
  184.8860  178.6280  146.9690 N   0  0  0  0  0  1  0  0  0  0  0  0
  185.7050  178.7600  145.7770 C   0  0  0  0  0  2  0  0  0  0  0  0
  1  8  1  6  0  0  0
  1 10  1  0  0  0  0
  2  5  2  0  0  0  0
  2 15  1  0  0  0  0
  3  5  1  0  0  0  0
  3  9  1  0  0  0  0
  4  7  2  0  0  0  0
  4  6  1  0  0  0  0
  5  4  1  0  0  0  0
  6 10  1  0  0  0  0
  7  1  1  0  0  0  0
  9  7  1  0  0  0  0
 10 24  1  0  0  0  0
 12 13  1  0  0  0  0
 12 11  2  0  0  0  0
 14 19  1  0  0  0  0
 15 18  1  0  0  0  0
 16 20  1  0  0  0  0
 16 15  2  0  0  0  0
 17 14  2  0  0  0  0
 18 13  2  0  0  0  0
 19 23  1  6  0  0  0
 19 11  1  0  0  0  0
 20 17  1  1  0  0  0
 20 12  1  0  0  0  0
 21 23  2  0  0  0  0
 23 22  1  0  0  0  0
 24 25  1  0  0  0  0
 25 26  1  0  0  0  0
 28 26  1  0  0  0  0
 28 27  1  0  0  0  0
M  END
>  <MODEL>
6

>  <REMARK>
 VINA RESULT:      -7.6      3.853      6.039
  Name = 
  6 active torsions:
  status: ('A' for Active; 'I' for Inactive)
    1  A    between atoms: N_3  and  C_13
    2  A    between atoms: C_6  and  C_23
    3  A    between atoms: C_20  and  C_23
    4  A    between atoms: C_20  and  C_26
    5  A    between atoms: C_22  and  CA_27
    6  A    between atoms: N_24  and  C_26
                            x       y       z     vdW  Elec       q    Type
                         _______ _______ _______ _____ _____    ______ ____

>  <TORSDO>
F 6

$$$$
=
 OpenBabel10222416553D

 28 31  0  0  1  0  0  0  0  0999 V2000
  189.7890  176.8650  138.0740 C   0  0  1  0  0  3  0  0  0  0  0  0
  191.7890  177.5370  142.3340 N   0  0  0  0  0  0  0  0  0  0  0  0
  193.0880  177.1070  140.0480 S   0  0  0  0  0  0  0  0  0  0  0  0
  190.6780  177.1800  140.1780 C   0  0  0  0  0  0  0  0  0  0  0  0
  191.7500  177.3030  141.0530 C   0  0  0  0  0  0  0  0  0  0  0  0
  189.3120  177.2330  140.2830 O   0  0  0  0  0  0  0  0  0  0  0  0
  191.0210  176.9590  138.8940 C   0  0  0  0  0  0  0  0  0  0  0  0
  189.6990  175.4900  137.4390 C   0  0  0  0  0  1  0  0  0  0  0  0
  192.3060  176.8840  138.6070 O   0  0  0  0  0  0  0  0  0  0  0  0
  188.6850  177.0330  139.0550 N   0  0  0  0  0  0  0  0  0  0  0  0
  187.6930  177.4610  145.9740 N   0  0  0  0  0  0  0  0  0  0  0  0
  188.6610  177.7410  145.1510 C   0  0  0  0  0  0  0  0  0  0  0  0
  190.0230  177.6370  145.5720 N   0  0  0  0  0  0  0  0  0  0  0  0
  186.1130  177.2280  144.1020 C   0  0  0  0  0  3  0  0  0  0  0  0
  190.7030  177.7280  143.2540 C   0  0  0  0  0  0  0  0  0  0  0  0
  189.4810  177.9080  142.8390 N   0  0  0  0  0  0  0  0  0  0  0  0
  187.0970  177.5190  143.2370 C   0  0  0  0  0  3  0  0  0  0  0  0
  190.9880  177.6460  144.7010 C   0  0  0  0  0  3  0  0  0  0  0  0
  186.2800  177.5430  145.5740 C   0  0  2  0  0  3  0  0  0  0  0  0
  188.3560  178.1770  143.7370 C   0  0  1  0  0  3  0  0  0  0  0  0
  185.6900  179.3090  147.0890 O   0  0  0  0  0  1  0  0  0  0  0  0
  185.2270  179.6970  144.8800 O   0  0  0  0  0  0  0  0  0  0  0  0
  185.7170  178.8930  145.9010 C   0  0  0  0  0  0  0  0  0  0  0  0
  187.9880  178.2690  138.7150 C   0  0  0  0  0  2  0  0  0  0  0  0
  187.0140  178.0330  137.5700 C   0  0  0  0  0  2  0  0  0  0  0  0
  185.5830  178.1040  138.0660 C   0  0  0  0  0  2  0  0  0  0  0  0
  184.5280  179.6140  139.6410 N   0  0  0  0  0  1  0  0  0  0  0  0
  185.5710  178.6140  139.4910 C   0  0  0  0  0  2  0  0  0  0  0  0
  1  8  1  1  0  0  0
  1  7  1  0  0  0  0
  1 10  1  0  0  0  0
  2 15  1  0  0  0  0
  3  5  1  0  0  0  0
  4  6  1  0  0  0  0
  4  5  1  0  0  0  0
  5  2  2  0  0  0  0
  7  4  2  0  0  0  0
  9  7  1  0  0  0  0
  9  3  1  0  0  0  0
 10  6  1  0  0  0  0
 12 13  1  0  0  0  0
 12 11  2  0  0  0  0
 14 19  1  0  0  0  0
 15 18  1  0  0  0  0
 16 15  2  0  0  0  0
 16 20  1  0  0  0  0
 17 14  2  0  0  0  0
 18 13  2  0  0  0  0
 19 23  1  6  0  0  0
 19 11  1  0  0  0  0
 20 17  1  6  0  0  0
 20 12  1  0  0  0  0
 22 23  2  0  0  0  0
 23 21  1  0  0  0  0
 24 10  1  0  0  0  0
 25 26  1  0  0  0  0
 25 24  1  0  0  0  0
 26 28  1  0  0  0  0
 28 27  1  0  0  0  0
M  END
>  <MODEL>
7

>  <REMARK>
 VINA RESULT:      -7.5      2.541      6.698
  Name = 
  6 active torsions:
  status: ('A' for Active; 'I' for Inactive)
    1  A    between atoms: N_3  and  C_13
    2  A    between atoms: C_6  and  C_23
    3  A    between atoms: C_20  and  C_23
    4  A    between atoms: C_20  and  C_26
    5  A    between atoms: C_22  and  CA_27
    6  A    between atoms: N_24  and  C_26
                            x       y       z     vdW  Elec       q    Type
                         _______ _______ _______ _____ _____    ______ ____

>  <TORSDO>
F 6

$$$$
=
 OpenBabel10222416553D

 28 31  0  0  1  0  0  0  0  0999 V2000
  184.5740  178.8860  144.0820 C   0  0  1  0  0  3  0  0  0  0  0  0
  188.8330  177.1240  145.2470 N   0  0  0  0  0  0  0  0  0  0  0  0
  186.8410  177.6450  146.9380 S   0  0  0  0  0  0  0  0  0  0  0  0
  186.6690  178.0520  144.5640 C   0  0  0  0  0  0  0  0  0  0  0  0
  187.6240  177.5680  145.4480 C   0  0  0  0  0  0  0  0  0  0  0  0
  186.6000  178.2660  143.2120 O   0  0  0  0  0  0  0  0  0  0  0  0
  185.5000  178.4050  145.1350 C   0  0  0  0  0  0  0  0  0  0  0  0
  184.2070  180.3350  144.3420 C   0  0  0  0  0  1  0  0  0  0  0  0
  185.3870  178.2590  146.4410 O   0  0  0  0  0  0  0  0  0  0  0  0
  185.3670  178.7900  142.8280 N   0  0  0  0  0  0  0  0  0  0  0  0
  191.7470  177.5050  140.6210 N   0  0  0  0  0  0  0  0  0  0  0  0
  191.0980  177.1540  141.6940 C   0  0  0  0  0  0  0  0  0  0  0  0
  191.7370  177.1950  142.9720 N   0  0  0  0  0  0  0  0  0  0  0  0
  189.6360  177.7770  139.3850 C   0  0  0  0  0  3  0  0  0  0  0  0
  189.5640  177.0120  144.0160 C   0  0  0  0  0  0  0  0  0  0  0  0
  188.9560  176.8880  142.8710 N   0  0  0  0  0  0  0  0  0  0  0  0
  188.9500  177.4130  140.4800 C   0  0  0  0  0  3  0  0  0  0  0  0
  191.0370  177.1140  144.0650 C   0  0  0  0  0  3  0  0  0  0  0  0
  191.1200  177.4880  139.2910 C   0  0  2  0  0  3  0  0  0  0  0  0
  189.6600  176.7010  141.6010 C   0  0  1  0  0  3  0  0  0  0  0  0
  192.5400  175.8240  138.3020 O   0  0  0  0  0  0  0  0  0  0  0  0
  190.3000  175.3430  138.3130 O   0  0  0  0  0  1  0  0  0  0  0  0
  191.3700  176.1790  138.6060 C   0  0  0  0  0  0  0  0  0  0  0  0
  184.7160  177.7990  141.9790 C   0  0  0  0  0  2  0  0  0  0  0  0
  183.5680  178.4310  141.2060 C   0  0  0  0  0  2  0  0  0  0  0  0
  183.5490  177.9270  139.7760 C   0  0  0  0  0  2  0  0  0  0  0  0
  184.3070  180.1260  139.0950 N   0  0  0  0  0  1  0  0  0  0  0  0
  184.5600  178.7020  138.9580 C   0  0  0  0  0  2  0  0  0  0  0  0
  1  8  1  1  0  0  0
  1  7  1  0  0  0  0
  2  5  2  0  0  0  0
  4  7  2  0  0  0  0
  4  5  1  0  0  0  0
  5  3  1  0  0  0  0
  6  4  1  0  0  0  0
  7  9  1  0  0  0  0
  9  3  1  0  0  0  0
 10  6  1  0  0  0  0
 10  1  1  0  0  0  0
 11 12  2  0  0  0  0
 12 13  1  0  0  0  0
 13 18  2  0  0  0  0
 14 17  2  0  0  0  0
 15 18  1  0  0  0  0
 15  2  1  0  0  0  0
 16 15  2  0  0  0  0
 19 23  1  1  0  0  0
 19 14  1  0  0  0  0
 19 11  1  0  0  0  0
 20 17  1  6  0  0  0
 20 12  1  0  0  0  0
 20 16  1  0  0  0  0
 21 23  2  0  0  0  0
 22 23  1  0  0  0  0
 24 10  1  0  0  0  0
 25 24  1  0  0  0  0
 26 25  1  0  0  0  0
 28 27  1  0  0  0  0
 28 26  1  0  0  0  0
M  END
>  <MODEL>
8

>  <REMARK>
 VINA RESULT:      -7.4      2.537      3.979
  Name = 
  6 active torsions:
  status: ('A' for Active; 'I' for Inactive)
    1  A    between atoms: N_3  and  C_13
    2  A    between atoms: C_6  and  C_23
    3  A    between atoms: C_20  and  C_23
    4  A    between atoms: C_20  and  C_26
    5  A    between atoms: C_22  and  CA_27
    6  A    between atoms: N_24  and  C_26
                            x       y       z     vdW  Elec       q    Type
                         _______ _______ _______ _____ _____    ______ ____

>  <TORSDO>
F 6

$$$$
=
 OpenBabel10222416553D

 28 31  0  0  1  0  0  0  0  0999 V2000
  190.1820  177.7360  143.2410 C   0  0  1  0  0  3  0  0  0  0  0  0
  190.5930  177.1500  138.5410 N   0  0  0  0  0  0  0  0  0  0  0  0
  192.5940  177.1270  140.3010 S   0  0  0  0  0  0  0  0  0  0  0  0
  190.2960  177.4800  140.9520 C   0  0  0  0  0  0  0  0  0  0  0  0
  190.9990  177.2610  139.7750 C   0  0  0  0  0  0  0  0  0  0  0  0
  188.9820  177.6710  141.2920 O   0  0  0  0  0  0  0  0  0  0  0  0
  191.0560  177.5130  142.0650 C   0  0  0  0  0  0  0  0  0  0  0  0
  190.5600  179.0370  143.9230 C   0  0  0  0  0  1  0  0  0  0  0  0
  192.3570  177.3400  141.9240 O   0  0  0  0  0  0  0  0  0  0  0  0
  188.8180  177.8550  142.6630 N   0  0  0  0  0  0  0  0  0  0  0  0
  185.2640  177.5020  137.3130 N   0  0  0  0  0  0  0  0  0  0  0  0
  186.5650  177.4840  137.3510 C   0  0  0  0  0  0  0  0  0  0  0  0
  187.2920  178.6260  137.8080 N   0  0  0  0  0  0  0  0  0  0  0  0
  185.1920  175.0450  137.1860 C   0  0  0  0  0  3  0  0  0  0  0  0
  189.2600  177.2370  138.0150 C   0  0  0  0  0  0  0  0  0  0  0  0
  188.6510  176.1960  137.5230 N   0  0  0  0  0  0  0  0  0  0  0  0
  186.5340  175.0060  137.2180 C   0  0  0  0  0  3  0  0  0  0  0  0
  188.5540  178.5320  138.1060 C   0  0  0  0  0  3  0  0  0  0  0  0
  184.4800  176.3420  136.8620 C   0  0  2  0  0  3  0  0  0  0  0  0
  187.3220  176.2520  136.9120 C   0  0  1  0  0  3  0  0  0  0  0  0
  184.4320  177.5020  134.7610 O   0  0  0  0  0  1  0  0  0  0  0  0
  183.6490  175.3500  134.7280 O   0  0  0  0  0  0  0  0  0  0  0  0
  184.1870  176.4420  135.3960 C   0  0  0  0  0  0  0  0  0  0  0  0
  188.0360  176.7300  143.1640 C   0  0  0  0  0  2  0  0  0  0  0  0
  187.5050  177.0270  144.5580 C   0  0  0  0  0  2  0  0  0  0  0  0
  186.2640  177.8950  144.4810 C   0  0  0  0  0  2  0  0  0  0  0  0
  184.6660  179.0000  145.9290 N   0  0  0  0  0  1  0  0  0  0  0  0
  186.0540  178.5900  145.8090 C   0  0  0  0  0  2  0  0  0  0  0  0
  1  8  1  6  0  0  0
  2  5  2  0  0  0  0
  3  9  1  0  0  0  0
  4  6  1  0  0  0  0
  4  7  2  0  0  0  0
  5  3  1  0  0  0  0
  5  4  1  0  0  0  0
  6 10  1  0  0  0  0
  7  1  1  0  0  0  0
  9  7  1  0  0  0  0
 10 24  1  0  0  0  0
 10  1  1  0  0  0  0
 11 12  2  0  0  0  0
 12 13  1  0  0  0  0
 13 18  2  0  0  0  0
 14 17  2  0  0  0  0
 15 18  1  0  0  0  0
 15  2  1  0  0  0  0
 16 15  2  0  0  0  0
 19 23  1  6  0  0  0
 19 14  1  0  0  0  0
 19 11  1  0  0  0  0
 20 17  1  1  0  0  0
 20 12  1  0  0  0  0
 20 16  1  0  0  0  0
 21 23  1  0  0  0  0
 22 23  2  0  0  0  0
 24 25  1  0  0  0  0
 26 25  1  0  0  0  0
 26 28  1  0  0  0  0
 28 27  1  0  0  0  0
M  END
>  <MODEL>
9

>  <REMARK>
 VINA RESULT:      -7.3      3.126      4.457
  Name = 
  6 active torsions:
  status: ('A' for Active; 'I' for Inactive)
    1  A    between atoms: N_3  and  C_13
    2  A    between atoms: C_6  and  C_23
    3  A    between atoms: C_20  and  C_23
    4  A    between atoms: C_20  and  C_26
    5  A    between atoms: C_22  and  CA_27
    6  A    between atoms: N_24  and  C_26
                            x       y       z     vdW  Elec       q    Type
                         _______ _______ _______ _____ _____    ______ ____

>  <TORSDO>
F 6

$$$$
