=
 OpenBabel10222416223D

 38 43  0  0  1  0  0  0  0  0999 V2000
  185.1660  178.5040  145.8590 C   0  0  0  0  0  3  0  0  0  0  0  0
  183.4260  179.1320  139.6790 C   0  0  1  0  0  3  0  0  0  0  0  0
  186.0230  178.4700  142.2320 C   0  0  0  0  0  0  0  0  0  0  0  0
  185.3020  178.6800  141.0410 C   0  0  0  0  0  0  0  0  0  0  0  0
  183.9680  178.9590  141.0590 C   0  0  0  0  0  0  0  0  0  0  0  0
  184.7030  178.9780  138.8160 C   0  0  0  0  0  3  0  0  0  0  0  0
  183.9160  178.8910  143.4110 C   0  0  0  0  0  0  0  0  0  0  0  0
  183.2090  179.0030  144.6090 C   0  0  0  0  0  3  0  0  0  0  0  0
  183.2780  179.0790  142.2230 N   0  0  0  0  0  0  0  0  0  0  0  0
  185.9180  178.3820  144.6890 C   0  0  0  0  0  3  0  0  0  0  0  0
  185.3010  178.5750  143.4450 C   0  0  0  0  0  0  0  0  0  0  0  0
  185.8050  178.6590  139.7230 N   0  0  0  0  0  0  0  0  0  0  0  0
  183.8420  178.8080  145.7960 N   0  0  0  0  0  0  0  0  0  0  0  0
  180.0230  177.6150  138.6090 C   0  0  0  0  0  3  0  0  0  0  0  0
  180.8600  175.4190  139.5030 C   0  0  2  0  0  3  0  0  0  0  0  0
  180.6740  174.0780  139.1680 O   0  0  0  0  0  1  0  0  0  0  0  0
  182.6200  176.9030  140.1180 O   0  0  0  0  0  0  0  0  0  0  0  0
  179.9910  176.2730  138.6260 C   0  0  0  0  0  3  0  0  0  0  0  0
  182.3270  175.7840  139.3290 C   0  0  0  0  0  2  0  0  0  0  0  0
  182.4150  178.0300  139.3040 C   0  0  1  0  0  3  0  0  0  0  0  0
  180.9360  178.4630  139.4580 C   0  0  1  0  0  3  0  0  0  0  0  0
  180.1270  180.7600  139.9920 C   0  0  0  0  0  3  0  0  0  0  0  0
  180.7100  179.8760  139.1640 N   0  0  0  0  0  0  0  0  0  0  0  0
  181.0470  180.4880  138.0430 N   0  0  0  0  0  0  0  0  0  0  0  0
  180.0790  181.9780  139.4140 N   0  0  0  0  0  0  0  0  0  0  0  0
  180.8490  182.8250  137.1920 C   0  0  0  0  0  1  0  0  0  0  0  0
  180.6580  181.7630  138.2140 C   0  0  0  0  0  0  0  0  0  0  0  0
  187.4680  178.1470  142.2530 C   0  0  0  0  0  3  0  0  0  0  0  0
  187.9650  176.9740  142.6310 C   0  0  0  0  0  3  0  0  0  0  0  0
  189.4370  176.7450  142.6330 C   0  0  1  0  0  3  0  0  0  0  0  0
  189.9490  176.9060  141.3450 O   0  0  0  0  0  1  0  0  0  0  0  0
  190.5240  178.7720  143.1830 O   0  0  0  0  0  0  0  0  0  0  0  0
  190.1140  177.6900  143.5780 C   0  0  0  0  0  0  0  0  0  0  0  0
  190.3270  177.2910  145.0070 C   0  0  0  0  0  0  0  0  0  0  0  0
  189.7130  178.1470  146.0920 C   0  0  0  0  0  2  0  0  0  0  0  0
  189.1090  176.7870  145.7480 C   0  0  0  0  0  2  0  0  0  0  0  0
  191.5580  176.6020  145.3670 N   0  0  0  0  0  2  0  0  0  0  0  0
  191.8310  176.9100  146.6590 O   0  0  0  0  0  1  0  0  0  0  0  0
  2  6  1  6  0  0  0
  2  5  1  0  0  0  0
  3 28  1  0  0  0  0
  3 11  1  0  0  0  0
  4  5  1  0  0  0  0
  4  3  2  0  0  0  0
  5  9  2  0  0  0  0
  6 12  2  0  0  0  0
  7 11  2  0  0  0  0
  7  8  1  0  0  0  0
  8 13  2  0  0  0  0
  9  7  1  0  0  0  0
 10  1  2  0  0  0  0
 11 10  1  0  0  0  0
 12  4  1  0  0  0  0
 13  1  1  0  0  0  0
 14 18  2  0  0  0  0
 15 16  1  6  0  0  0
 18 15  1  0  0  0  0
 19 15  1  0  0  0  0
 19 17  1  0  0  0  0
 20 21  1  0  0  0  0
 20  2  1  0  0  0  0
 20 17  1  1  0  0  0
 21 14  1  6  0  0  0
 23 21  1  0  0  0  0
 23 22  1  0  0  0  0
 24 27  2  0  0  0  0
 24 23  1  0  0  0  0
 25 22  2  0  0  0  0
 26 27  1  0  0  0  0
 27 25  1  0  0  0  0
 28 29  2  0  0  0  0
 29 30  1  0  0  0  0
 30 31  1  6  0  0  0
 30 33  1  0  0  0  0
 32 33  2  0  0  0  0
 33 34  1  0  0  0  0
 34 37  1  0  0  0  0
 34 36  1  0  0  0  0
 34 35  1  0  0  0  0
 36 35  1  0  0  0  0
 37 38  1  0  0  0  0
M  END
>  <MODEL>
1

>  <REMARK>
 VINA RESULT:      -8.8      0.000      0.000
  Name = 
  7 active torsions:
  status: ('A' for Active; 'I' for Inactive)
    1  A    between atoms: N_5  and  C_37
    2  A    between atoms: C_6  and  N_12
    3  A    between atoms: C_6  and  C_15
    4  A    between atoms: C_7  and  C_16
    5  A    between atoms: C_10  and  C_36
    6  A    between atoms: C_13  and  C_15
    7  A    between atoms: C_13  and  C_26
                            x       y       z     vdW  Elec       q    Type
                         _______ _______ _______ _____ _____    ______ ____

>  <TORSDO>
F 7

$$$$
=
 OpenBabel10222416223D

 38 43  0  0  1  0  0  0  0  0999 V2000
  185.1930  178.4060  145.8550 C   0  0  0  0  0  3  0  0  0  0  0  0
  183.0440  179.0570  139.8070 C   0  0  1  0  0  3  0  0  0  0  0  0
  185.7940  178.3350  142.1760 C   0  0  0  0  0  0  0  0  0  0  0  0
  184.9980  178.5600  141.0380 C   0  0  0  0  0  0  0  0  0  0  0  0
  183.6760  178.8740  141.1460 C   0  0  0  0  0  0  0  0  0  0  0  0
  184.2530  178.8650  138.8580 C   0  0  0  0  0  3  0  0  0  0  0  0
  183.7860  178.8170  143.4970 C   0  0  0  0  0  0  0  0  0  0  0  0
  183.1670  178.9530  144.7400 C   0  0  0  0  0  3  0  0  0  0  0  0
  183.0730  179.0180  142.3540 N   0  0  0  0  0  0  0  0  0  0  0  0
  185.8580  178.2590  144.6350 C   0  0  0  0  0  3  0  0  0  0  0  0
  185.1610  178.4640  143.4360 C   0  0  0  0  0  0  0  0  0  0  0  0
  185.4070  178.5200  139.6870 N   0  0  0  0  0  0  0  0  0  0  0  0
  183.8760  178.7460  145.8810 N   0  0  0  0  0  0  0  0  0  0  0  0
  179.5260  177.6240  139.0310 C   0  0  0  0  0  3  0  0  0  0  0  0
  180.3970  175.3970  139.8090 C   0  0  2  0  0  3  0  0  0  0  0  0
  180.1530  174.0670  139.4720 O   0  0  0  0  0  1  0  0  0  0  0  0
  182.2360  176.8360  140.2830 O   0  0  0  0  0  0  0  0  0  0  0  0
  179.4680  176.2830  139.0300 C   0  0  0  0  0  3  0  0  0  0  0  0
  181.8490  175.7370  139.5070 C   0  0  0  0  0  2  0  0  0  0  0  0
  181.9800  177.9810  139.5090 C   0  0  1  0  0  3  0  0  0  0  0  0
  180.5310  178.4400  139.8060 C   0  0  1  0  0  3  0  0  0  0  0  0
  179.8180  180.7410  140.4470 C   0  0  0  0  0  3  0  0  0  0  0  0
  180.3080  179.8610  139.5560 N   0  0  0  0  0  0  0  0  0  0  0  0
  180.5570  180.4880  138.4200 N   0  0  0  0  0  0  0  0  0  0  0  0
  179.7440  181.9700  139.8950 N   0  0  0  0  0  0  0  0  0  0  0  0
  180.3310  182.8430  137.6290 C   0  0  0  0  0  1  0  0  0  0  0  0
  180.2100  181.7670  138.6460 C   0  0  0  0  0  0  0  0  0  0  0  0
  187.2280  177.9730  142.0990 C   0  0  0  0  0  3  0  0  0  0  0  0
  188.1310  178.6480  141.3950 C   0  0  0  0  0  3  0  0  0  0  0  0
  189.5510  178.1990  141.3660 C   0  0  1  0  0  3  0  0  0  0  0  0
  189.8550  177.4910  142.5290 O   0  0  0  0  0  1  0  0  0  0  0  0
  190.4410  176.3050  140.2640 O   0  0  0  0  0  0  0  0  0  0  0  0
  189.8060  177.3450  140.1610 C   0  0  0  0  0  0  0  0  0  0  0  0
  189.3180  177.7880  138.8150 C   0  0  0  0  0  0  0  0  0  0  0  0
  189.8380  177.0700  137.5890 C   0  0  0  0  0  2  0  0  0  0  0  0
  188.4140  176.8230  138.0830 C   0  0  0  0  0  2  0  0  0  0  0  0
  188.9590  179.1860  138.6240 N   0  0  0  0  0  2  0  0  0  0  0  0
  189.0430  179.4470  137.2960 O   0  0  0  0  0  1  0  0  0  0  0  0
  1 13  1  0  0  0  0
  2  6  1  6  0  0  0
  2  5  1  0  0  0  0
  3 11  1  0  0  0  0
  4  5  1  0  0  0  0
  4  3  2  0  0  0  0
  5  9  2  0  0  0  0
  6 12  2  0  0  0  0
  7  8  1  0  0  0  0
  8 13  2  0  0  0  0
  9  7  1  0  0  0  0
 10  1  2  0  0  0  0
 11  7  2  0  0  0  0
 11 10  1  0  0  0  0
 12  4  1  0  0  0  0
 15 16  1  6  0  0  0
 18 14  2  0  0  0  0
 18 15  1  0  0  0  0
 19 15  1  0  0  0  0
 19 17  1  0  0  0  0
 20 21  1  0  0  0  0
 20  2  1  0  0  0  0
 20 17  1  1  0  0  0
 21 14  1  6  0  0  0
 23 21  1  0  0  0  0
 23 22  1  0  0  0  0
 24 27  2  0  0  0  0
 24 23  1  0  0  0  0
 25 22  2  0  0  0  0
 26 27  1  0  0  0  0
 27 25  1  0  0  0  0
 28  3  1  0  0  0  0
 29 28  2  0  0  0  0
 30 29  1  0  0  0  0
 30 31  1  1  0  0  0
 33 32  2  0  0  0  0
 33 30  1  0  0  0  0
 34 33  1  0  0  0  0
 35 36  1  0  0  0  0
 35 34  1  0  0  0  0
 36 34  1  0  0  0  0
 37 34  1  0  0  0  0
 38 37  1  0  0  0  0
M  END
>  <MODEL>
2

>  <REMARK>
 VINA RESULT:      -8.2      1.967      3.143
  Name = 
  7 active torsions:
  status: ('A' for Active; 'I' for Inactive)
    1  A    between atoms: N_5  and  C_37
    2  A    between atoms: C_6  and  N_12
    3  A    between atoms: C_6  and  C_15
    4  A    between atoms: C_7  and  C_16
    5  A    between atoms: C_10  and  C_36
    6  A    between atoms: C_13  and  C_15
    7  A    between atoms: C_13  and  C_26
                            x       y       z     vdW  Elec       q    Type
                         _______ _______ _______ _____ _____    ______ ____

>  <TORSDO>
F 7

$$$$
=
 OpenBabel10222416223D

 38 43  0  0  1  0  0  0  0  0999 V2000
  186.6130  178.6780  140.9900 C   0  0  0  0  0  3  0  0  0  0  0  0
  191.7020  176.6720  137.5690 C   0  0  1  0  0  3  0  0  0  0  0  0
  190.1810  177.6130  140.8100 C   0  0  0  0  0  0  0  0  0  0  0  0
  191.0440  177.2090  139.7740 C   0  0  0  0  0  0  0  0  0  0  0  0
  190.6130  177.1290  138.4830 C   0  0  0  0  0  0  0  0  0  0  0  0
  192.9030  176.5590  138.5410 C   0  0  0  0  0  3  0  0  0  0  0  0
  188.4600  177.8660  139.0830 C   0  0  0  0  0  0  0  0  0  0  0  0
  187.1530  178.2010  138.7260 C   0  0  0  0  0  3  0  0  0  0  0  0
  189.3460  177.4640  138.1300 N   0  0  0  0  0  0  0  0  0  0  0  0
  187.9090  178.3550  141.3980 C   0  0  0  0  0  3  0  0  0  0  0  0
  188.8530  177.9430  140.4470 C   0  0  0  0  0  0  0  0  0  0  0  0
  192.4070  176.8630  139.8830 N   0  0  0  0  0  0  0  0  0  0  0  0
  186.2660  178.5960  139.6780 N   0  0  0  0  0  0  0  0  0  0  0  0
  192.3010  173.5360  135.3700 C   0  0  0  0  0  3  0  0  0  0  0  0
  189.8370  173.0740  135.5730 C   0  0  2  0  0  3  0  0  0  0  0  0
  189.0460  171.9280  135.6170 O   0  0  0  0  0  1  0  0  0  0  0  0
  190.0350  175.1800  136.6710 O   0  0  0  0  0  0  0  0  0  0  0  0
  191.2680  172.6800  135.3420 C   0  0  0  0  0  3  0  0  0  0  0  0
  189.6920  173.8390  136.8810 C   0  0  0  0  0  2  0  0  0  0  0  0
  191.4070  175.2900  136.9530 C   0  0  1  0  0  3  0  0  0  0  0  0
  192.1840  175.0150  135.6410 C   0  0  1  0  0  3  0  0  0  0  0  0
  194.6170  175.1170  136.1720 C   0  0  0  0  0  3  0  0  0  0  0  0
  193.5090  175.6280  135.6100 N   0  0  0  0  0  0  0  0  0  0  0  0
  193.8090  176.7740  135.0230 N   0  0  0  0  0  0  0  0  0  0  0  0
  195.6700  175.9320  135.9540 N   0  0  0  0  0  0  0  0  0  0  0  0
  195.8990  178.1080  134.7470 C   0  0  0  0  0  1  0  0  0  0  0  0
  195.1250  176.9400  135.2420 C   0  0  0  0  0  0  0  0  0  0  0  0
  190.6060  177.6950  142.2260 C   0  0  0  0  0  3  0  0  0  0  0  0
  190.3370  176.7680  143.1400 C   0  0  0  0  0  3  0  0  0  0  0  0
  190.7950  176.9440  144.5470 C   0  0  1  0  0  3  0  0  0  0  0  0
  191.7170  177.9880  144.6260 O   0  0  0  0  0  1  0  0  0  0  0  0
  188.5800  177.6490  144.9880 O   0  0  0  0  0  0  0  0  0  0  0  0
  189.6280  177.2190  145.4480 C   0  0  0  0  0  0  0  0  0  0  0  0
  189.7600  177.0060  146.9250 C   0  0  0  0  0  0  0  0  0  0  0  0
  189.2430  178.0800  147.8560 C   0  0  0  0  0  2  0  0  0  0  0  0
  188.4730  176.7720  147.6830 C   0  0  0  0  0  2  0  0  0  0  0  0
  190.8830  176.2260  147.4250 N   0  0  0  0  0  2  0  0  0  0  0  0
  191.7940  177.0980  147.9220 O   0  0  0  0  0  1  0  0  0  0  0  0
  1 10  1  0  0  0  0
  2  5  1  0  0  0  0
  2  6  1  1  0  0  0
  3 28  1  0  0  0  0
  4 12  1  0  0  0  0
  4  3  2  0  0  0  0
  5  4  1  0  0  0  0
  6 12  2  0  0  0  0
  7 11  1  0  0  0  0
  8  7  2  0  0  0  0
  8 13  1  0  0  0  0
  9  5  2  0  0  0  0
  9  7  1  0  0  0  0
 11  3  1  0  0  0  0
 11 10  2  0  0  0  0
 13  1  2  0  0  0  0
 15 16  1  1  0  0  0
 15 19  1  0  0  0  0
 17 19  1  0  0  0  0
 18 14  2  0  0  0  0
 18 15  1  0  0  0  0
 20 17  1  6  0  0  0
 20  2  1  0  0  0  0
 21 14  1  1  0  0  0
 21 20  1  0  0  0  0
 23 21  1  0  0  0  0
 23 22  1  0  0  0  0
 24 27  2  0  0  0  0
 24 23  1  0  0  0  0
 25 22  2  0  0  0  0
 26 27  1  0  0  0  0
 27 25  1  0  0  0  0
 28 29  2  0  0  0  0
 29 30  1  0  0  0  0
 30 31  1  6  0  0  0
 30 33  1  0  0  0  0
 32 33  2  0  0  0  0
 33 34  1  0  0  0  0
 34 37  1  0  0  0  0
 34 36  1  0  0  0  0
 34 35  1  0  0  0  0
 36 35  1  0  0  0  0
 37 38  1  0  0  0  0
M  END
>  <MODEL>
3

>  <REMARK>
 VINA RESULT:      -8.0      5.561      8.815
  Name = 
  7 active torsions:
  status: ('A' for Active; 'I' for Inactive)
    1  A    between atoms: N_5  and  C_37
    2  A    between atoms: C_6  and  N_12
    3  A    between atoms: C_6  and  C_15
    4  A    between atoms: C_7  and  C_16
    5  A    between atoms: C_10  and  C_36
    6  A    between atoms: C_13  and  C_15
    7  A    between atoms: C_13  and  C_26
                            x       y       z     vdW  Elec       q    Type
                         _______ _______ _______ _____ _____    ______ ____

>  <TORSDO>
F 7

$$$$
=
 OpenBabel10222416223D

 38 43  0  0  1  0  0  0  0  0999 V2000
  188.2950  178.5570  139.9930 C   0  0  0  0  0  3  0  0  0  0  0  0
  181.8590  178.2730  139.6560 C   0  0  1  0  0  3  0  0  0  0  0  0
  184.9500  178.8100  141.6190 C   0  0  0  0  0  0  0  0  0  0  0  0
  183.6220  178.6630  141.1800 C   0  0  0  0  0  0  0  0  0  0  0  0
  183.3310  178.3710  139.8800 C   0  0  0  0  0  0  0  0  0  0  0  0
  181.3060  178.4890  141.0870 C   0  0  0  0  0  3  0  0  0  0  0  0
  185.6150  178.3010  139.3150 C   0  0  0  0  0  0  0  0  0  0  0  0
  186.6210  178.1130  138.3660 C   0  0  0  0  0  3  0  0  0  0  0  0
  184.3070  178.1770  138.9560 N   0  0  0  0  0  0  0  0  0  0  0  0
  187.3260  178.7540  140.9790 C   0  0  0  0  0  3  0  0  0  0  0  0
  185.9690  178.6280  140.6520 C   0  0  0  0  0  0  0  0  0  0  0  0
  182.4480  178.7650  141.9580 N   0  0  0  0  0  0  0  0  0  0  0  0
  187.9270  178.2450  138.7210 N   0  0  0  0  0  0  0  0  0  0  0  0
  180.5460  179.8710  136.3770 C   0  0  0  0  0  3  0  0  0  0  0  0
  181.1810  182.1000  137.3540 C   0  0  2  0  0  3  0  0  0  0  0  0
  180.6810  183.3980  137.2640 O   0  0  0  0  0  1  0  0  0  0  0  0
  182.0060  180.5880  139.0000 O   0  0  0  0  0  0  0  0  0  0  0  0
  180.3990  181.2040  136.4370 C   0  0  0  0  0  3  0  0  0  0  0  0
  181.0810  181.6180  138.7940 C   0  0  0  0  0  2  0  0  0  0  0  0
  181.3330  179.3860  138.7270 C   0  0  1  0  0  3  0  0  0  0  0  0
  181.5100  179.0740  137.2200 C   0  0  1  0  0  3  0  0  0  0  0  0
  182.3400  176.9000  136.3270 C   0  0  0  0  0  3  0  0  0  0  0  0
  181.3870  177.6550  136.9010 N   0  0  0  0  0  0  0  0  0  0  0  0
  180.3220  176.9080  137.1320 N   0  0  0  0  0  0  0  0  0  0  0  0
  181.9030  175.6320  136.1770 N   0  0  0  0  0  0  0  0  0  0  0  0
  179.7470  174.5090  136.7540 C   0  0  0  0  0  1  0  0  0  0  0  0
  180.6550  175.6830  136.6870 C   0  0  0  0  0  0  0  0  0  0  0  0
  185.3050  179.1450  143.0170 C   0  0  0  0  0  3  0  0  0  0  0  0
  185.3390  178.2620  144.0100 C   0  0  0  0  0  3  0  0  0  0  0  0
  185.6940  178.6960  145.3910 C   0  0  1  0  0  3  0  0  0  0  0  0
  184.5730  178.6280  146.2190 O   0  0  0  0  0  1  0  0  0  0  0  0
  186.8280  177.5690  147.1340 O   0  0  0  0  0  0  0  0  0  0  0  0
  186.7940  177.8400  145.9430 C   0  0  0  0  0  0  0  0  0  0  0  0
  187.8830  177.3500  145.0370 C   0  0  0  0  0  0  0  0  0  0  0  0
  189.0270  178.2850  144.7150 C   0  0  0  0  0  2  0  0  0  0  0  0
  189.2320  177.1190  145.6800 C   0  0  0  0  0  2  0  0  0  0  0  0
  187.5530  176.3780  144.0050 N   0  0  0  0  0  2  0  0  0  0  0  0
  188.6340  176.2640  143.1950 O   0  0  0  0  0  1  0  0  0  0  0  0
  1 10  1  0  0  0  0
  2  5  1  0  0  0  0
  2  6  1  1  0  0  0
  3 28  1  0  0  0  0
  4  3  2  0  0  0  0
  4 12  1  0  0  0  0
  5  4  1  0  0  0  0
  6 12  2  0  0  0  0
  7 11  1  0  0  0  0
  8 13  1  0  0  0  0
  8  7  2  0  0  0  0
  9  7  1  0  0  0  0
  9  5  2  0  0  0  0
 11 10  2  0  0  0  0
 11  3  1  0  0  0  0
 13  1  2  0  0  0  0
 14 18  2  0  0  0  0
 15 16  1  1  0  0  0
 15 19  1  0  0  0  0
 18 15  1  0  0  0  0
 19 17  1  0  0  0  0
 20 17  1  1  0  0  0
 20  2  1  0  0  0  0
 21 14  1  6  0  0  0
 21 20  1  0  0  0  0
 22 23  1  0  0  0  0
 23 24  1  0  0  0  0
 23 21  1  0  0  0  0
 25 22  2  0  0  0  0
 25 27  1  0  0  0  0
 27 26  1  0  0  0  0
 27 24  2  0  0  0  0
 28 29  2  0  0  0  0
 29 30  1  0  0  0  0
 30 33  1  0  0  0  0
 30 31  1  1  0  0  0
 33 32  2  0  0  0  0
 34 36  1  0  0  0  0
 34 33  1  0  0  0  0
 35 34  1  0  0  0  0
 35 36  1  0  0  0  0
 37 34  1  0  0  0  0
 38 37  1  0  0  0  0
M  END
>  <MODEL>
4

>  <REMARK>
 VINA RESULT:      -7.8      2.767      4.915
  Name = 
  7 active torsions:
  status: ('A' for Active; 'I' for Inactive)
    1  A    between atoms: N_5  and  C_37
    2  A    between atoms: C_6  and  N_12
    3  A    between atoms: C_6  and  C_15
    4  A    between atoms: C_7  and  C_16
    5  A    between atoms: C_10  and  C_36
    6  A    between atoms: C_13  and  C_15
    7  A    between atoms: C_13  and  C_26
                            x       y       z     vdW  Elec       q    Type
                         _______ _______ _______ _____ _____    ______ ____

>  <TORSDO>
F 7

$$$$
=
 OpenBabel10222416223D

 38 43  0  0  1  0  0  0  0  0999 V2000
  185.5350  179.3670  141.4780 C   0  0  0  0  0  3  0  0  0  0  0  0
  189.7350  176.4140  137.5720 C   0  0  1  0  0  3  0  0  0  0  0  0
  188.8330  177.7230  140.9140 C   0  0  0  0  0  0  0  0  0  0  0  0
  189.4730  177.1410  139.8050 C   0  0  0  0  0  0  0  0  0  0  0  0
  188.8660  177.0800  138.5860 C   0  0  0  0  0  0  0  0  0  0  0  0
  191.0230  176.1440  138.3890 C   0  0  0  0  0  3  0  0  0  0  0  0
  186.9560  178.1850  139.4060 C   0  0  0  0  0  0  0  0  0  0  0  0
  185.6830  178.7160  139.1980 C   0  0  0  0  0  3  0  0  0  0  0  0
  187.6310  177.6050  138.3760 N   0  0  0  0  0  0  0  0  0  0  0  0
  186.8070  178.8510  141.7380 C   0  0  0  0  0  3  0  0  0  0  0  0
  187.5370  178.2520  140.7030 C   0  0  0  0  0  0  0  0  0  0  0  0
  190.7670  176.5800  139.7620 N   0  0  0  0  0  0  0  0  0  0  0  0
  185.0050  179.2890  140.2280 N   0  0  0  0  0  0  0  0  0  0  0  0
  189.5660  173.1000  135.5670 C   0  0  0  0  0  3  0  0  0  0  0  0
  187.0900  173.1070  136.0010 C   0  0  2  0  0  3  0  0  0  0  0  0
  186.1160  172.1280  136.1920 O   0  0  0  0  0  1  0  0  0  0  0  0
  187.7550  175.2010  136.9220 O   0  0  0  0  0  0  0  0  0  0  0  0
  188.4000  172.4460  135.6860 C   0  0  0  0  0  3  0  0  0  0  0  0
  187.2030  173.9590  137.2570 C   0  0  0  0  0  2  0  0  0  0  0  0
  189.1460  175.0760  137.0840 C   0  0  1  0  0  3  0  0  0  0  0  0
  189.7380  174.5890  135.7370 C   0  0  1  0  0  3  0  0  0  0  0  0
  191.5910  176.0060  134.8600 C   0  0  0  0  0  3  0  0  0  0  0  0
  191.1410  174.9480  135.5550 N   0  0  0  0  0  0  0  0  0  0  0  0
  192.1710  174.2840  136.0500 N   0  0  0  0  0  0  0  0  0  0  0  0
  192.9390  176.0490  134.8940 N   0  0  0  0  0  0  0  0  0  0  0  0
  194.6480  174.5790  135.9740 C   0  0  0  0  0  1  0  0  0  0  0  0
  193.2530  174.9680  135.6390 C   0  0  0  0  0  0  0  0  0  0  0  0
  189.4520  177.7910  142.2580 C   0  0  0  0  0  3  0  0  0  0  0  0
  189.4830  176.7770  143.1170 C   0  0  0  0  0  3  0  0  0  0  0  0
  190.1170  176.9440  144.4550 C   0  0  1  0  0  3  0  0  0  0  0  0
  190.9570  178.0580  144.4530 O   0  0  0  0  0  1  0  0  0  0  0  0
  187.9020  177.2820  145.2110 O   0  0  0  0  0  0  0  0  0  0  0  0
  189.0700  177.0910  145.5180 C   0  0  0  0  0  0  0  0  0  0  0  0
  189.4630  177.0470  146.9630 C   0  0  0  0  0  0  0  0  0  0  0  0
  189.1610  178.2510  147.8270 C   0  0  0  0  0  2  0  0  0  0  0  0
  188.3290  176.9770  147.9610 C   0  0  0  0  0  2  0  0  0  0  0  0
  190.6310  176.2690  147.3500 N   0  0  0  0  0  2  0  0  0  0  0  0
  191.6590  177.1370  147.5140 O   0  0  0  0  0  1  0  0  0  0  0  0
  1 10  1  0  0  0  0
  2  6  1  1  0  0  0
  2  5  1  0  0  0  0
  3 28  1  0  0  0  0
  4  3  2  0  0  0  0
  5  4  1  0  0  0  0
  6 12  2  0  0  0  0
  7 11  1  0  0  0  0
  8  7  2  0  0  0  0
  8 13  1  0  0  0  0
  9  5  2  0  0  0  0
  9  7  1  0  0  0  0
 11  3  1  0  0  0  0
 11 10  2  0  0  0  0
 12  4  1  0  0  0  0
 13  1  2  0  0  0  0
 14 18  2  0  0  0  0
 14 21  1  0  0  0  0
 15 16  1  1  0  0  0
 15 19  1  0  0  0  0
 17 19  1  0  0  0  0
 18 15  1  0  0  0  0
 20 17  1  6  0  0  0
 20  2  1  0  0  0  0
 21 23  1  1  0  0  0
 21 20  1  0  0  0  0
 22 25  2  0  0  0  0
 22 23  1  0  0  0  0
 23 24  1  0  0  0  0
 25 27  1  0  0  0  0
 27 26  1  0  0  0  0
 27 24  2  0  0  0  0
 28 29  2  0  0  0  0
 29 30  1  0  0  0  0
 30 31  1  6  0  0  0
 30 33  1  0  0  0  0
 32 33  2  0  0  0  0
 33 34  1  0  0  0  0
 34 37  1  0  0  0  0
 34 35  1  0  0  0  0
 34 36  1  0  0  0  0
 35 36  1  0  0  0  0
 37 38  1  0  0  0  0
M  END
>  <MODEL>
5

>  <REMARK>
 VINA RESULT:      -7.4      4.950      7.541
  Name = 
  7 active torsions:
  status: ('A' for Active; 'I' for Inactive)
    1  A    between atoms: N_5  and  C_37
    2  A    between atoms: C_6  and  N_12
    3  A    between atoms: C_6  and  C_15
    4  A    between atoms: C_7  and  C_16
    5  A    between atoms: C_10  and  C_36
    6  A    between atoms: C_13  and  C_15
    7  A    between atoms: C_13  and  C_26
                            x       y       z     vdW  Elec       q    Type
                         _______ _______ _______ _____ _____    ______ ____

>  <TORSDO>
F 7

$$$$
=
 OpenBabel10222416223D

 38 43  0  0  1  0  0  0  0  0999 V2000
  184.8220  178.5960  146.1800 C   0  0  0  0  0  3  0  0  0  0  0  0
  186.4530  178.7020  139.9390 C   0  0  1  0  0  3  0  0  0  0  0  0
  187.2030  177.7560  143.4380 C   0  0  0  0  0  0  0  0  0  0  0  0
  187.2270  177.9670  142.0470 C   0  0  0  0  0  0  0  0  0  0  0  0
  186.2050  178.6040  141.4080 C   0  0  0  0  0  0  0  0  0  0  0  0
  187.8590  178.0660  139.8130 C   0  0  0  0  0  3  0  0  0  0  0  0
  185.0480  178.9250  143.4330 C   0  0  0  0  0  0  0  0  0  0  0  0
  183.9440  179.4150  144.1300 C   0  0  0  0  0  3  0  0  0  0  0  0
  185.1330  179.0930  142.0840 N   0  0  0  0  0  0  0  0  0  0  0  0
  185.9480  178.0880  145.5290 C   0  0  0  0  0  3  0  0  0  0  0  0
  186.0770  178.2460  144.1420 C   0  0  0  0  0  0  0  0  0  0  0  0
  188.2480  177.6010  141.1440 N   0  0  0  0  0  0  0  0  0  0  0  0
  183.8540  179.2420  145.4760 N   0  0  0  0  0  0  0  0  0  0  0  0
  185.0760  176.7290  136.8990 C   0  0  0  0  0  3  0  0  0  0  0  0
  182.7810  177.0850  137.8630 C   0  0  2  0  0  3  0  0  0  0  0  0
  181.5910  176.3610  137.8770 O   0  0  0  0  0  1  0  0  0  0  0  0
  184.1410  178.3620  139.3460 O   0  0  0  0  0  0  0  0  0  0  0  0
  183.7910  176.3620  137.0200 C   0  0  0  0  0  3  0  0  0  0  0  0
  183.2880  177.2530  139.2880 C   0  0  0  0  0  2  0  0  0  0  0  0
  185.4400  177.8780  139.1190 C   0  0  1  0  0  3  0  0  0  0  0  0
  185.7000  177.9150  137.5920 C   0  0  1  0  0  3  0  0  0  0  0  0
  187.7530  179.1140  136.8440 C   0  0  0  0  0  3  0  0  0  0  0  0
  187.1150  178.0010  137.2440 N   0  0  0  0  0  0  0  0  0  0  0  0
  187.9730  176.9960  137.2740 N   0  0  0  0  0  0  0  0  0  0  0  0
  189.0540  178.8470  136.6080 N   0  0  0  0  0  0  0  0  0  0  0  0
  190.4070  176.7530  136.7800 C   0  0  0  0  0  1  0  0  0  0  0  0
  189.1450  177.5300  136.8870 C   0  0  0  0  0  0  0  0  0  0  0  0
  188.2850  177.0520  144.1650 C   0  0  0  0  0  3  0  0  0  0  0  0
  189.5630  177.0700  143.8010 C   0  0  0  0  0  3  0  0  0  0  0  0
  190.5800  176.3190  144.5890 C   0  0  1  0  0  3  0  0  0  0  0  0
  191.5350  175.7640  143.7350 O   0  0  0  0  0  1  0  0  0  0  0  0
  192.0550  178.0570  145.2180 O   0  0  0  0  0  0  0  0  0  0  0  0
  191.2430  177.2210  145.5860 C   0  0  0  0  0  0  0  0  0  0  0  0
  190.9410  177.0680  147.0450 C   0  0  0  0  0  0  0  0  0  0  0  0
  189.8060  177.8760  147.6340 C   0  0  0  0  0  2  0  0  0  0  0  0
  189.6400  176.3780  147.3900 C   0  0  0  0  0  2  0  0  0  0  0  0
  192.0300  176.7530  147.9590 N   0  0  0  0  0  2  0  0  0  0  0  0
  192.6740  175.6680  147.4620 O   0  0  0  0  0  1  0  0  0  0  0  0
  2  6  1  1  0  0  0
  2  5  1  0  0  0  0
  3 11  1  0  0  0  0
  3 28  1  0  0  0  0
  4  3  2  0  0  0  0
  5  4  1  0  0  0  0
  5  9  2  0  0  0  0
  6 12  2  0  0  0  0
  7  8  2  0  0  0  0
  7 11  1  0  0  0  0
  8 13  1  0  0  0  0
  9  7  1  0  0  0  0
 10  1  1  0  0  0  0
 11 10  2  0  0  0  0
 12  4  1  0  0  0  0
 13  1  2  0  0  0  0
 14 18  2  0  0  0  0
 15 16  1  1  0  0  0
 15 19  1  0  0  0  0
 18 15  1  0  0  0  0
 19 17  1  0  0  0  0
 20 17  1  6  0  0  0
 20  2  1  0  0  0  0
 21 14  1  6  0  0  0
 21 20  1  0  0  0  0
 22 23  1  0  0  0  0
 23 24  1  0  0  0  0
 23 21  1  0  0  0  0
 25 22  2  0  0  0  0
 25 27  1  0  0  0  0
 26 27  1  0  0  0  0
 27 24  2  0  0  0  0
 29 28  2  0  0  0  0
 29 30  1  0  0  0  0
 30 31  1  6  0  0  0
 30 33  1  0  0  0  0
 32 33  2  0  0  0  0
 33 34  1  0  0  0  0
 34 36  1  0  0  0  0
 34 35  1  0  0  0  0
 34 37  1  0  0  0  0
 36 35  1  0  0  0  0
 38 37  1  0  0  0  0
M  END
>  <MODEL>
6

>  <REMARK>
 VINA RESULT:      -7.3      2.830      4.335
  Name = 
  7 active torsions:
  status: ('A' for Active; 'I' for Inactive)
    1  A    between atoms: N_5  and  C_37
    2  A    between atoms: C_6  and  N_12
    3  A    between atoms: C_6  and  C_15
    4  A    between atoms: C_7  and  C_16
    5  A    between atoms: C_10  and  C_36
    6  A    between atoms: C_13  and  C_15
    7  A    between atoms: C_13  and  C_26
                            x       y       z     vdW  Elec       q    Type
                         _______ _______ _______ _____ _____    ______ ____

>  <TORSDO>
F 7

$$$$
=
 OpenBabel10222416223D

 38 43  0  0  1  0  0  0  0  0999 V2000
  186.2990  177.8930  136.5410 C   0  0  0  0  0  3  0  0  0  0  0  0
  192.5210  176.2230  136.8750 C   0  0  1  0  0  3  0  0  0  0  0  0
  189.3250  177.0490  138.5480 C   0  0  0  0  0  0  0  0  0  0  0  0
  190.6540  176.7050  138.2400 C   0  0  0  0  0  0  0  0  0  0  0  0
  191.0810  176.6070  136.9490 C   0  0  0  0  0  0  0  0  0  0  0  0
  192.9130  176.1770  138.3730 C   0  0  0  0  0  3  0  0  0  0  0  0
  188.9580  177.2070  136.1290 C   0  0  0  0  0  0  0  0  0  0  0  0
  188.1040  177.4640  135.0560 C   0  0  0  0  0  3  0  0  0  0  0  0
  190.2560  176.8660  135.9020 N   0  0  0  0  0  0  0  0  0  0  0  0
  187.1130  177.6460  137.6490 C   0  0  0  0  0  3  0  0  0  0  0  0
  188.4580  177.2990  137.4570 C   0  0  0  0  0  0  0  0  0  0  0  0
  191.7010  176.4420  139.1480 N   0  0  0  0  0  0  0  0  0  0  0  0
  186.8050  177.7970  135.2820 N   0  0  0  0  0  0  0  0  0  0  0  0
  194.2650  173.4630  134.7840 C   0  0  0  0  0  3  0  0  0  0  0  0
  192.0520  172.2710  134.7390 C   0  0  2  0  0  3  0  0  0  0  0  0
  191.6470  170.9380  134.7130 O   0  0  0  0  0  1  0  0  0  0  0  0
  191.4870  174.3140  135.8270 O   0  0  0  0  0  0  0  0  0  0  0  0
  193.5500  172.3350  134.6600 C   0  0  0  0  0  3  0  0  0  0  0  0
  191.5490  172.9280  136.0160 C   0  0  0  0  0  2  0  0  0  0  0  0
  192.7250  174.8300  136.2470 C   0  0  1  0  0  3  0  0  0  0  0  0
  193.6770  174.8310  135.0250 C   0  0  1  0  0  3  0  0  0  0  0  0
  195.9380  175.6210  135.7200 C   0  0  0  0  0  3  0  0  0  0  0  0
  194.7490  175.8180  135.1240 N   0  0  0  0  0  0  0  0  0  0  0  0
  194.7050  177.0470  134.6390 N   0  0  0  0  0  0  0  0  0  0  0  0
  196.6960  176.7330  135.6280 N   0  0  0  0  0  0  0  0  0  0  0  0
  196.2920  178.9720  134.5940 C   0  0  0  0  0  1  0  0  0  0  0  0
  195.8960  177.5850  134.9540 C   0  0  0  0  0  0  0  0  0  0  0  0
  188.8190  177.1470  139.9360 C   0  0  0  0  0  3  0  0  0  0  0  0
  189.0070  178.1990  140.7260 C   0  0  0  0  0  3  0  0  0  0  0  0
  188.4710  178.2010  142.1170 C   0  0  1  0  0  3  0  0  0  0  0  0
  187.0790  178.1180  142.0950 O   0  0  0  0  0  1  0  0  0  0  0  0
  188.4700  175.9800  142.9290 O   0  0  0  0  0  0  0  0  0  0  0  0
  189.0430  177.0590  142.9010 C   0  0  0  0  0  0  0  0  0  0  0  0
  190.3020  177.2530  143.6900 C   0  0  0  0  0  0  0  0  0  0  0  0
  191.3000  176.1180  143.7430 C   0  0  0  0  0  2  0  0  0  0  0  0
  191.5820  177.3540  142.8920 C   0  0  0  0  0  2  0  0  0  0  0  0
  190.2720  178.1210  144.8590 N   0  0  0  0  0  2  0  0  0  0  0  0
  189.3460  177.6200  145.7130 O   0  0  0  0  0  1  0  0  0  0  0  0
  1 10  1  0  0  0  0
  2  5  1  0  0  0  0
  2  6  1  1  0  0  0
  3 28  1  0  0  0  0
  4  3  2  0  0  0  0
  4 12  1  0  0  0  0
  5  4  1  0  0  0  0
  6 12  2  0  0  0  0
  7 11  1  0  0  0  0
  8 13  1  0  0  0  0
  8  7  2  0  0  0  0
  9  7  1  0  0  0  0
  9  5  2  0  0  0  0
 11 10  2  0  0  0  0
 11  3  1  0  0  0  0
 13  1  2  0  0  0  0
 15 16  1  1  0  0  0
 15 19  1  0  0  0  0
 17 19  1  0  0  0  0
 18 15  1  0  0  0  0
 18 14  2  0  0  0  0
 20 17  1  6  0  0  0
 20  2  1  0  0  0  0
 21 14  1  1  0  0  0
 21 23  1  0  0  0  0
 21 20  1  0  0  0  0
 23 22  1  0  0  0  0
 24 27  2  0  0  0  0
 24 23  1  0  0  0  0
 25 22  2  0  0  0  0
 26 27  1  0  0  0  0
 27 25  1  0  0  0  0
 28 29  2  0  0  0  0
 29 30  1  0  0  0  0
 30 31  1  6  0  0  0
 30 33  1  0  0  0  0
 33 32  2  0  0  0  0
 33 34  1  0  0  0  0
 34 35  1  0  0  0  0
 34 37  1  0  0  0  0
 36 34  1  0  0  0  0
 36 35  1  0  0  0  0
 37 38  1  0  0  0  0
M  END
>  <MODEL>
7

>  <REMARK>
 VINA RESULT:      -7.1      6.564     10.126
  Name = 
  7 active torsions:
  status: ('A' for Active; 'I' for Inactive)
    1  A    between atoms: N_5  and  C_37
    2  A    between atoms: C_6  and  N_12
    3  A    between atoms: C_6  and  C_15
    4  A    between atoms: C_7  and  C_16
    5  A    between atoms: C_10  and  C_36
    6  A    between atoms: C_13  and  C_15
    7  A    between atoms: C_13  and  C_26
                            x       y       z     vdW  Elec       q    Type
                         _______ _______ _______ _____ _____    ______ ____

>  <TORSDO>
F 7

$$$$
=
 OpenBabel10222416223D

 38 43  0  0  1  0  0  0  0  0999 V2000
  185.5240  172.8840  136.4880 C   0  0  0  0  0  3  0  0  0  0  0  0
  189.4320  177.8040  137.9520 C   0  0  1  0  0  3  0  0  0  0  0  0
  186.1450  176.5460  136.8060 C   0  0  0  0  0  0  0  0  0  0  0  0
  187.2440  177.3350  137.1940 C   0  0  0  0  0  0  0  0  0  0  0  0
  188.4230  176.7690  137.5820 C   0  0  0  0  0  0  0  0  0  0  0  0
  188.6670  179.1150  137.6470 C   0  0  0  0  0  3  0  0  0  0  0  0
  187.5810  174.6020  137.2150 C   0  0  0  0  0  0  0  0  0  0  0  0
  187.7580  173.2180  137.2240 C   0  0  0  0  0  3  0  0  0  0  0  0
  188.6030  175.4230  137.5810 N   0  0  0  0  0  0  0  0  0  0  0  0
  185.2960  174.2620  136.4620 C   0  0  0  0  0  3  0  0  0  0  0  0
  186.3250  175.1420  136.8250 C   0  0  0  0  0  0  0  0  0  0  0  0
  187.3160  178.7440  137.2270 N   0  0  0  0  0  0  0  0  0  0  0  0
  186.7360  172.3960  136.8650 N   0  0  0  0  0  0  0  0  0  0  0  0
  191.5350  176.9570  141.0970 C   0  0  0  0  0  3  0  0  0  0  0  0
  189.4420  177.3220  142.4440 C   0  0  2  0  0  3  0  0  0  0  0  0
  189.1590  177.7970  143.7230 O   0  0  0  0  0  1  0  0  0  0  0  0
  188.6350  177.5390  140.2130 O   0  0  0  0  0  0  0  0  0  0  0  0
  190.9310  177.2570  142.2580 C   0  0  0  0  0  3  0  0  0  0  0  0
  188.8090  178.2420  141.4110 C   0  0  0  0  0  2  0  0  0  0  0  0
  189.7950  177.7570  139.4500 C   0  0  1  0  0  3  0  0  0  0  0  0
  190.8140  176.6470  139.8090 C   0  0  1  0  0  3  0  0  0  0  0  0
  192.8800  177.1250  138.4980 C   0  0  0  0  0  3  0  0  0  0  0  0
  191.7870  176.3850  138.7510 N   0  0  0  0  0  0  0  0  0  0  0  0
  191.7320  175.3830  137.8930 N   0  0  0  0  0  0  0  0  0  0  0  0
  193.5640  176.6050  137.4580 N   0  0  0  0  0  0  0  0  0  0  0  0
  193.1690  174.6110  136.0040 C   0  0  0  0  0  1  0  0  0  0  0  0
  192.8200  175.5320  137.1170 C   0  0  0  0  0  0  0  0  0  0  0  0
  184.8440  177.1230  136.3980 C   0  0  0  0  0  3  0  0  0  0  0  0
  183.8640  177.4280  137.2430 C   0  0  0  0  0  3  0  0  0  0  0  0
  182.5820  177.9920  136.7360 C   0  0  1  0  0  3  0  0  0  0  0  0
  181.7720  176.9710  136.2380 O   0  0  0  0  0  1  0  0  0  0  0  0
  180.6950  179.0510  137.6910 O   0  0  0  0  0  0  0  0  0  0  0  0
  181.8670  178.7300  137.8270 C   0  0  0  0  0  0  0  0  0  0  0  0
  182.6030  179.1150  139.0740 C   0  0  0  0  0  0  0  0  0  0  0  0
  181.8670  179.0460  140.3940 C   0  0  0  0  0  2  0  0  0  0  0  0
  182.9150  177.9930  140.0380 C   0  0  0  0  0  2  0  0  0  0  0  0
  183.6510  180.1220  138.9880 N   0  0  0  0  0  2  0  0  0  0  0  0
  184.6350  179.7570  139.8470 O   0  0  0  0  0  1  0  0  0  0  0  0
  1 13  1  0  0  0  0
  2  6  1  1  0  0  0
  2 20  1  0  0  0  0
  3 11  2  0  0  0  0
  3  4  1  0  0  0  0
  4 12  1  0  0  0  0
  4  5  2  0  0  0  0
  5  2  1  0  0  0  0
  7  8  1  0  0  0  0
  7  9  2  0  0  0  0
  9  5  1  0  0  0  0
 10  1  2  0  0  0  0
 10 11  1  0  0  0  0
 11  7  1  0  0  0  0
 12  6  2  0  0  0  0
 13  8  2  0  0  0  0
 14 18  2  0  0  0  0
 15 16  1  1  0  0  0
 17 19  1  0  0  0  0
 18 15  1  0  0  0  0
 19 15  1  0  0  0  0
 20 21  1  0  0  0  0
 20 17  1  1  0  0  0
 21 23  1  6  0  0  0
 21 14  1  0  0  0  0
 22 23  1  0  0  0  0
 24 23  1  0  0  0  0
 25 22  2  0  0  0  0
 26 27  1  0  0  0  0
 27 25  1  0  0  0  0
 27 24  2  0  0  0  0
 28  3  1  0  0  0  0
 28 29  2  0  0  0  0
 30 31  1  1  0  0  0
 30 29  1  0  0  0  0
 30 33  1  0  0  0  0
 32 33  2  0  0  0  0
 33 34  1  0  0  0  0
 34 36  1  0  0  0  0
 34 35  1  0  0  0  0
 36 35  1  0  0  0  0
 37 34  1  0  0  0  0
 37 38  1  0  0  0  0
M  END
>  <MODEL>
8

>  <REMARK>
 VINA RESULT:      -6.5      4.328      9.675
  Name = 
  7 active torsions:
  status: ('A' for Active; 'I' for Inactive)
    1  A    between atoms: N_5  and  C_37
    2  A    between atoms: C_6  and  N_12
    3  A    between atoms: C_6  and  C_15
    4  A    between atoms: C_7  and  C_16
    5  A    between atoms: C_10  and  C_36
    6  A    between atoms: C_13  and  C_15
    7  A    between atoms: C_13  and  C_26
                            x       y       z     vdW  Elec       q    Type
                         _______ _______ _______ _____ _____    ______ ____

>  <TORSDO>
F 7

$$$$
=
 OpenBabel10222416223D

 38 43  0  0  1  0  0  0  0  0999 V2000
  188.4340  177.9140  137.5000 C   0  0  0  0  0  3  0  0  0  0  0  0
  182.3400  178.1480  139.6040 C   0  0  1  0  0  3  0  0  0  0  0  0
  185.9750  178.3900  140.2600 C   0  0  0  0  0  0  0  0  0  0  0  0
  184.5710  178.3600  140.3530 C   0  0  0  0  0  0  0  0  0  0  0  0
  183.7920  178.1240  139.2590 C   0  0  0  0  0  0  0  0  0  0  0  0
  182.3830  178.3730  141.1360 C   0  0  0  0  0  3  0  0  0  0  0  0
  185.6840  177.8880  137.8790 C   0  0  0  0  0  0  0  0  0  0  0  0
  186.2420  177.6440  136.6240 C   0  0  0  0  0  3  0  0  0  0  0  0
  184.3320  177.8760  138.0380 N   0  0  0  0  0  0  0  0  0  0  0  0
  187.9250  178.1620  138.7760 C   0  0  0  0  0  3  0  0  0  0  0  0
  186.5380  178.1520  138.9840 C   0  0  0  0  0  0  0  0  0  0  0  0
  183.7870  178.5360  141.5130 N   0  0  0  0  0  0  0  0  0  0  0  0
  187.5920  177.6630  136.4620 N   0  0  0  0  0  0  0  0  0  0  0  0
  179.8140  179.8990  137.2410 C   0  0  0  0  0  3  0  0  0  0  0  0
  181.2000  181.9810  137.5040 C   0  0  2  0  0  3  0  0  0  0  0  0
  180.9360  183.3500  137.5190 O   0  0  0  0  0  1  0  0  0  0  0  0
  182.4970  180.3740  138.6920 O   0  0  0  0  0  0  0  0  0  0  0  0
  179.9300  181.2360  137.2080 C   0  0  0  0  0  3  0  0  0  0  0  0
  181.7720  181.5610  138.8500 C   0  0  0  0  0  2  0  0  0  0  0  0
  181.5980  179.3220  138.9330 C   0  0  1  0  0  3  0  0  0  0  0  0
  180.9330  178.9480  137.5850 C   0  0  1  0  0  3  0  0  0  0  0  0
  180.5080  176.7570  136.4740 C   0  0  0  0  0  3  0  0  0  0  0  0
  180.4420  177.5730  137.5400 N   0  0  0  0  0  0  0  0  0  0  0  0
  179.8650  176.9330  138.5410 N   0  0  0  0  0  0  0  0  0  0  0  0
  179.9690  175.5570  136.7710 N   0  0  0  0  0  0  0  0  0  0  0  0
  178.9310  174.6400  138.8510 C   0  0  0  0  0  1  0  0  0  0  0  0
  179.5860  175.7110  138.0560 C   0  0  0  0  0  0  0  0  0  0  0  0
  186.8530  178.6620  141.4210 C   0  0  0  0  0  3  0  0  0  0  0  0
  187.0810  177.7960  142.4030 C   0  0  0  0  0  3  0  0  0  0  0  0
  187.9710  178.1640  143.5400 C   0  0  1  0  0  3  0  0  0  0  0  0
  187.2380  178.2190  144.7260 O   0  0  0  0  0  1  0  0  0  0  0  0
  188.9120  176.0000  143.3880 O   0  0  0  0  0  0  0  0  0  0  0  0
  189.0900  177.1760  143.6710 C   0  0  0  0  0  0  0  0  0  0  0  0
  190.4220  177.6220  144.1940 C   0  0  0  0  0  0  0  0  0  0  0  0
  191.5010  177.9830  143.1970 C   0  0  0  0  0  2  0  0  0  0  0  0
  190.7710  179.0770  143.9740 C   0  0  0  0  0  2  0  0  0  0  0  0
  190.8900  177.0930  145.4670 N   0  0  0  0  0  2  0  0  0  0  0  0
  189.8440  177.1260  146.3290 O   0  0  0  0  0  1  0  0  0  0  0  0
  1 10  1  0  0  0  0
  2  6  1  1  0  0  0
  3  4  2  0  0  0  0
  3 28  1  0  0  0  0
  4 12  1  0  0  0  0
  5  2  1  0  0  0  0
  5  4  1  0  0  0  0
  6 12  2  0  0  0  0
  7  9  1  0  0  0  0
  7 11  1  0  0  0  0
  8  7  2  0  0  0  0
  9  5  2  0  0  0  0
 10 11  2  0  0  0  0
 11  3  1  0  0  0  0
 13  8  1  0  0  0  0
 13  1  2  0  0  0  0
 15 16  1  1  0  0  0
 15 19  1  0  0  0  0
 17 19  1  0  0  0  0
 18 14  2  0  0  0  0
 18 15  1  0  0  0  0
 20 17  1  6  0  0  0
 20  2  1  0  0  0  0
 21 14  1  1  0  0  0
 21 20  1  0  0  0  0
 22 25  2  0  0  0  0
 22 23  1  0  0  0  0
 23 21  1  0  0  0  0
 23 24  1  0  0  0  0
 25 27  1  0  0  0  0
 27 24  2  0  0  0  0
 27 26  1  0  0  0  0
 28 29  2  0  0  0  0
 29 30  1  0  0  0  0
 30 33  1  0  0  0  0
 30 31  1  1  0  0  0
 32 33  2  0  0  0  0
 33 34  1  0  0  0  0
 34 37  1  0  0  0  0
 35 36  1  0  0  0  0
 35 34  1  0  0  0  0
 36 34  1  0  0  0  0
 37 38  1  0  0  0  0
M  END
>  <MODEL>
9

>  <REMARK>
 VINA RESULT:      -6.4      2.506      4.882
  Name = 
  7 active torsions:
  status: ('A' for Active; 'I' for Inactive)
    1  A    between atoms: N_5  and  C_37
    2  A    between atoms: C_6  and  N_12
    3  A    between atoms: C_6  and  C_15
    4  A    between atoms: C_7  and  C_16
    5  A    between atoms: C_10  and  C_36
    6  A    between atoms: C_13  and  C_15
    7  A    between atoms: C_13  and  C_26
                            x       y       z     vdW  Elec       q    Type
                         _______ _______ _______ _____ _____    ______ ____

>  <TORSDO>
F 7

$$$$
