=
 OpenBabel10222417413D

 60 66  0  0  1  0  0  0  0  0999 V2000
  188.2270  177.4390  144.0870 C   0  0  1  0  0  3  0  0  0  0  0  0
  189.5540  177.4600  143.3210 C   0  0  1  0  0  0  0  0  0  0  0  0
  189.4500  178.1580  144.6600 C   0  0  0  0  0  2  0  0  0  0  0  0
  187.3340  178.3430  143.4750 O   0  0  0  0  0  0  0  0  0  0  0  0
  186.0820  178.2540  144.1070 C   0  0  0  0  0  0  0  0  0  0  0  0
  186.2020  178.6920  145.5590 C   0  0  0  0  0  2  0  0  0  0  0  0
  185.9500  177.2290  145.2220 C   0  0  0  0  0  2  0  0  0  0  0  0
  184.8340  178.7800  143.3690 C   0  0  2  0  0  3  0  0  0  0  0  0
  182.9340  179.7540  144.4570 O   0  0  0  0  0  1  0  0  0  0  0  0
  183.5860  178.5470  144.2130 C   0  0  0  0  0  2  0  0  0  0  0  0
  184.6580  178.1470  141.9840 C   0  0  0  0  0  2  0  0  0  0  0  0
  183.3360  178.5300  141.3520 C   0  0  0  0  0  2  0  0  0  0  0  0
  183.3460  178.1040  139.9000 C   0  0  0  0  0  2  0  0  0  0  0  0
  181.3380  179.1530  138.8390 C   0  0  0  0  0  0  0  0  0  0  0  0
  182.6550  179.1380  139.0710 C   0  0  0  0  0  3  0  0  0  0  0  0
  180.8330  182.3650  136.0880 C   0  0  1  0  0  3  0  0  0  0  0  0
  181.2990  181.6460  138.4520 C   0  0  0  0  0  2  0  0  0  0  0  0
  180.0000  183.3080  135.2440 C   0  0  0  0  0  1  0  0  0  0  0  0
  181.1630  180.0470  136.6310 O   0  0  0  0  0  0  0  0  0  0  0  0
  180.6690  182.7180  137.5680 C   0  0  0  0  0  2  0  0  0  0  0  0
  180.8180  180.2690  137.9810 C   0  0  1  0  0  3  0  0  0  0  0  0
  180.3770  180.9240  135.8620 C   0  0  0  0  0  2  0  0  0  0  0  0
  179.8100  178.4070  140.5190 O   0  0  0  0  0  0  0  0  0  0  0  0
  180.4060  178.1570  139.4330 C   0  0  0  0  0  0  0  0  0  0  0  0
  180.1820  176.9050  138.7730 N   0  0  0  0  0  2  0  0  0  0  0  0
  180.3010  174.7540  139.6590 O   0  0  0  0  0  1  0  0  0  0  0  0
  179.4420  175.8240  139.4060 C   0  0  0  0  0  2  0  0  0  0  0  0
  190.3070  176.1380  143.2950 C   0  0  0  0  0  2  0  0  0  0  0  0
  191.6660  176.3290  143.7800 N   0  0  0  0  0  2  0  0  0  0  0  0
  191.8780  175.3020  144.7820 C   0  0  0  0  0  2  0  0  0  0  0  0
  192.2510  175.1300  147.2390 O   0  0  0  0  0  1  0  0  0  0  0  0
  192.0280  175.9270  146.1220 C   0  0  0  0  0  0  0  0  0  0  0  0
  191.9450  177.1760  146.2470 O   0  0  0  0  0  0  0  0  0  0  0  0
  189.5310  178.2460  142.1160 O   0  0  0  0  0  0  0  0  0  0  0  0
  187.5040  176.8430  137.9160 O   0  0  0  0  0  0  0  0  0  0  0  0
  190.1220  175.2260  136.1240 C   0  0  0  0  0  0  0  0  0  0  0  0
  188.0320  176.1790  136.9110 C   0  0  0  0  0  0  0  0  0  0  0  0
  188.4830  177.0660  138.7630 C   0  0  0  0  0  0  0  0  0  0  0  0
  187.3570  175.7150  135.8330 N   0  0  0  0  0  0  0  0  0  0  0  0
  189.3890  175.9680  137.0750 C   0  0  0  0  0  0  0  0  0  0  0  0
  189.6850  176.5790  138.2800 C   0  0  0  0  0  0  0  0  0  0  0  0
  189.5540  177.7440  140.8050 C   0  0  0  0  0  0  0  0  0  0  0  0
  188.0090  174.9530  134.9160 C   0  0  0  0  0  3  0  0  0  0  0  0
  190.8530  176.6750  139.0250 C   0  0  0  0  0  3  0  0  0  0  0  0
  189.3840  174.6920  135.0470 C   0  0  0  0  0  3  0  0  0  0  0  0
  188.3830  177.6550  140.0220 C   0  0  0  0  0  3  0  0  0  0  0  0
  190.7820  177.2790  140.2910 C   0  0  0  0  0  3  0  0  0  0  0  0
  193.7660  174.5020  136.6490 C   0  0  0  0  0  0  0  0  0  0  0  0
  192.3700  174.0390  136.8980 C   0  0  0  0  0  2  0  0  0  0  0  0
  193.7200  175.5890  135.8750 C   0  0  0  0  0  0  0  0  0  0  0  0
  191.5990  175.0580  136.1160 C   0  0  0  0  0  0  0  0  0  0  0  0
  192.3760  175.9270  135.5540 N   0  0  0  0  0  0  0  0  0  0  0  0
  194.9360  173.8840  137.2180 N   0  0  0  0  0  0  0  0  0  0  0  0
  195.3890  174.2900  138.5440 C   0  0  0  0  0  1  0  0  0  0  0  0
  195.6370  172.7840  136.5690 C   0  0  0  0  0  2  0  0  0  0  0  0
  195.0760  171.4550  137.0420 C   0  0  0  0  0  1  0  0  0  0  0  0
  194.8640  176.4890  135.5220 C   0  0  0  0  0  2  0  0  0  0  0  0
  195.8570  175.7710  134.6090 C   0  0  0  0  0  2  0  0  0  0  0  0
  197.2620  176.0850  135.0000 C   0  0  0  0  0  3  0  0  0  0  0  0
  197.6890  175.8210  136.1790 N   0  0  0  0  0  2  0  0  0  0  0  0
  1  4  1  6  0  0  0
  1  3  1  0  0  0  0
  2 28  1  6  0  0  0
  2  1  1  0  0  0  0
  2  3  1  0  0  0  0
  4  5  1  0  0  0  0
  5  7  1  0  0  0  0
  5  6  1  0  0  0  0
  7  6  1  0  0  0  0
  8 11  1  6  0  0  0
  8  5  1  0  0  0  0
  8 10  1  0  0  0  0
 10  9  1  0  0  0  0
 12 11  1  0  0  0  0
 13 12  1  0  0  0  0
 14 15  2  0  0  0  0
 14 24  1  0  0  0  0
 15 13  1  0  0  0  0
 16 18  1  6  0  0  0
 16 20  1  0  0  0  0
 19 21  1  0  0  0  0
 20 17  1  0  0  0  0
 21 17  1  0  0  0  0
 21 14  1  1  0  0  0
 22 16  1  0  0  0  0
 22 19  1  0  0  0  0
 24 23  2  0  0  0  0
 25 27  1  0  0  0  0
 25 24  1  0  0  0  0
 27 26  1  0  0  0  0
 28 29  1  0  0  0  0
 29 30  1  0  0  0  0
 30 32  1  0  0  0  0
 32 33  2  0  0  0  0
 32 31  1  0  0  0  0
 34  2  1  0  0  0  0
 35 38  1  0  0  0  0
 36 40  2  0  0  0  0
 37 40  1  0  0  0  0
 37 35  1  0  0  0  0
 38 46  1  0  0  0  0
 39 37  2  0  0  0  0
 40 41  1  0  0  0  0
 41 38  2  0  0  0  0
 41 44  1  0  0  0  0
 42 34  1  0  0  0  0
 43 45  2  0  0  0  0
 43 39  1  0  0  0  0
 44 47  2  0  0  0  0
 45 36  1  0  0  0  0
 46 42  2  0  0  0  0
 47 42  1  0  0  0  0
 48 49  1  0  0  0  0
 48 53  1  0  0  0  0
 50 48  2  0  0  0  0
 51 36  1  0  0  0  0
 51 49  1  0  0  0  0
 52 50  1  0  0  0  0
 52 51  2  0  0  0  0
 53 54  1  0  0  0  0
 55 56  1  0  0  0  0
 55 53  1  0  0  0  0
 57 50  1  0  0  0  0
 58 59  1  0  0  0  0
 58 57  1  0  0  0  0
 59 60  2  0  0  0  0
M  END
>  <MODEL>
1

>  <REMARK>
 VINA RESULT:      -7.0      0.000      0.000
  Name = 
  23 active torsions:
  status: ('A' for Active; 'I' for Inactive)
    1  A    between atoms: O_2  and  C_18
    2  A    between atoms: O_2  and  C_46
    3  A    between atoms: C_3  and  N_23
    4  A    between atoms: C_4  and  C_9
    5  A    between atoms: C_4  and  C_38
    6  A    between atoms: C_5  and  C_18
    7  A    between atoms: C_5  and  N_33
    8  A    between atoms: C_7  and  N_23
    9  A    between atoms: C_9  and  C_17
   10  A    between atoms: C_11  and  C_36
   11  A    between atoms: C_11  and  C_40
   12  A    between atoms: C_14  and  O_59
   13  A    between atoms: C_15  and  C_25
   14  A    between atoms: C_16  and  C_28
   15  A    between atoms: C_21  and  C_60
   16  A    between atoms: C_28  and  C_45
   17  A    between atoms: C_30  and  C_31
   18  A    between atoms: C_31  and  N_33
   19  A    between atoms: C_38  and  C_60
   20  A    between atoms: C_39  and  O_59
   21  A    between atoms: C_39  and  C_60
   22  A    between atoms: C_43  and  C_45
   23  A    between atoms: C_56  and  N_58
                            x       y       z     vdW  Elec       q    Type
                         _______ _______ _______ _____ _____    ______ ____

>  <TORSDO>
F 23

$$$$
=
 OpenBabel10222417413D

 60 66  0  0  1  0  0  0  0  0999 V2000
  188.6720  176.7000  143.3200 C   0  0  1  0  0  3  0  0  0  0  0  0
  187.7020  177.5710  144.1250 C   0  0  1  0  0  0  0  0  0  0  0  0
  187.3570  176.1240  143.8490 C   0  0  0  0  0  2  0  0  0  0  0  0
  188.5750  177.0480  141.9570 O   0  0  0  0  0  0  0  0  0  0  0  0
  189.8560  177.3550  141.4670 C   0  0  0  0  0  0  0  0  0  0  0  0
  190.8780  176.3880  142.0440 C   0  0  0  0  0  2  0  0  0  0  0  0
  190.8770  177.8460  142.4800 C   0  0  0  0  0  2  0  0  0  0  0  0
  190.0250  177.6620  139.9640 C   0  0  2  0  0  3  0  0  0  0  0  0
  189.0620  179.2480  138.4490 O   0  0  0  0  0  1  0  0  0  0  0  0
  188.7500  178.2870  139.4080 C   0  0  0  0  0  2  0  0  0  0  0  0
  190.4010  176.4200  139.1480 C   0  0  0  0  0  2  0  0  0  0  0  0
  191.5100  176.7100  138.1570 C   0  0  0  0  0  2  0  0  0  0  0  0
  190.9140  176.7940  136.7690 C   0  0  0  0  0  2  0  0  0  0  0  0
  189.7020  174.6690  136.2460 C   0  0  0  0  0  0  0  0  0  0  0  0
  189.6980  175.9290  136.6940 C   0  0  0  0  0  3  0  0  0  0  0  0
  185.9810  172.8460  137.2360 C   0  0  1  0  0  3  0  0  0  0  0  0
  188.4600  172.5750  136.9140 C   0  0  0  0  0  2  0  0  0  0  0  0
  184.6350  172.2410  136.8930 C   0  0  0  0  0  1  0  0  0  0  0  0
  187.3910  174.7530  136.8450 O   0  0  0  0  0  0  0  0  0  0  0  0
  187.0990  171.8950  136.8030 C   0  0  0  0  0  2  0  0  0  0  0  0
  188.3830  173.9510  136.2430 C   0  0  1  0  0  3  0  0  0  0  0  0
  186.1500  174.1820  136.5110 C   0  0  0  0  0  2  0  0  0  0  0  0
  191.2400  173.8840  134.5940 O   0  0  0  0  0  0  0  0  0  0  0  0
  190.9450  173.9720  135.8190 C   0  0  0  0  0  0  0  0  0  0  0  0
  191.8130  173.3950  136.8020 N   0  0  0  0  0  2  0  0  0  0  0  0
  194.0060  173.3220  136.0160 O   0  0  0  0  0  1  0  0  0  0  0  0
  192.9290  172.5360  136.4320 C   0  0  0  0  0  2  0  0  0  0  0  0
  188.1560  177.9100  145.5370 C   0  0  0  0  0  2  0  0  0  0  0  0
  188.9350  176.8120  146.0880 N   0  0  0  0  0  2  0  0  0  0  0  0
  189.8850  177.4170  147.0010 C   0  0  0  0  0  2  0  0  0  0  0  0
  191.6080  176.3460  145.5550 O   0  0  0  0  0  0  0  0  0  0  0  0
  191.2280  176.8110  146.8090 C   0  0  0  0  0  0  0  0  0  0  0  0
  192.0190  176.7100  147.7830 O   0  0  0  0  0  1  0  0  0  0  0  0
  187.0580  178.6040  143.3580 O   0  0  0  0  0  0  0  0  0  0  0  0
  182.3800  179.3380  144.4970 O   0  0  0  0  0  0  0  0  0  0  0  0
  180.5550  178.2590  141.6350 C   0  0  0  0  0  0  0  0  0  0  0  0
  181.2970  179.0790  143.7970 C   0  0  0  0  0  0  0  0  0  0  0  0
  183.3980  179.0580  143.7140 C   0  0  0  0  0  0  0  0  0  0  0  0
  180.0240  179.1960  144.2450 N   0  0  0  0  0  0  0  0  0  0  0  0
  181.5880  178.6370  142.5190 C   0  0  0  0  0  0  0  0  0  0  0  0
  182.9700  178.6540  142.4610 C   0  0  0  0  0  0  0  0  0  0  0  0
  185.6850  178.6870  143.0780 C   0  0  0  0  0  0  0  0  0  0  0  0
  178.9980  178.7960  143.4480 C   0  0  0  0  0  3  0  0  0  0  0  0
  183.8760  178.2760  141.4780 C   0  0  0  0  0  3  0  0  0  0  0  0
  179.2430  178.3200  142.1480 C   0  0  0  0  0  3  0  0  0  0  0  0
  184.7490  179.0870  144.0540 C   0  0  0  0  0  3  0  0  0  0  0  0
  185.2440  178.3110  141.7920 C   0  0  0  0  0  3  0  0  0  0  0  0
  181.0440  177.9980  137.9240 C   0  0  0  0  0  0  0  0  0  0  0  0
  181.3310  178.7970  139.1520 C   0  0  0  0  0  2  0  0  0  0  0  0
  180.3950  176.8890  138.2840 C   0  0  0  0  0  0  0  0  0  0  0  0
  180.7350  177.9100  140.2010 C   0  0  0  0  0  0  0  0  0  0  0  0
  180.2060  176.8440  139.6920 N   0  0  0  0  0  0  0  0  0  0  0  0
  181.3770  178.4230  136.5880 N   0  0  0  0  0  0  0  0  0  0  0  0
  182.6360  177.9920  135.9910 C   0  0  0  0  0  1  0  0  0  0  0  0
  180.4570  179.1860  135.7550 C   0  0  0  0  0  2  0  0  0  0  0  0
  180.7920  180.6650  135.8270 C   0  0  0  0  0  1  0  0  0  0  0  0
  179.7550  175.8880  137.3710 C   0  0  0  0  0  2  0  0  0  0  0  0
  180.3030  174.4860  137.6330 C   0  0  0  0  0  2  0  0  0  0  0  0
  181.7720  174.4330  137.3800 C   0  0  0  0  0  3  0  0  0  0  0  0
  182.2440  174.6450  136.2080 N   0  0  0  0  0  2  0  0  0  0  0  0
  1  4  1  6  0  0  0
  1  3  1  0  0  0  0
  1  2  1  0  0  0  0
  2 28  1  1  0  0  0
  3  2  1  0  0  0  0
  5  4  1  0  0  0  0
  5  6  1  0  0  0  0
  5  7  1  0  0  0  0
  6  7  1  0  0  0  0
  8 11  1  6  0  0  0
  8  5  1  0  0  0  0
  9 10  1  0  0  0  0
 10  8  1  0  0  0  0
 12 11  1  0  0  0  0
 13 12  1  0  0  0  0
 14 15  2  0  0  0  0
 15 13  1  0  0  0  0
 16 18  1  6  0  0  0
 20 17  1  0  0  0  0
 20 16  1  0  0  0  0
 21 14  1  1  0  0  0
 21 19  1  0  0  0  0
 21 17  1  0  0  0  0
 22 19  1  0  0  0  0
 22 16  1  0  0  0  0
 23 24  2  0  0  0  0
 24 14  1  0  0  0  0
 24 25  1  0  0  0  0
 26 27  1  0  0  0  0
 27 25  1  0  0  0  0
 28 29  1  0  0  0  0
 29 30  1  0  0  0  0
 31 32  2  0  0  0  0
 32 30  1  0  0  0  0
 32 33  1  0  0  0  0
 34  2  1  0  0  0  0
 36 45  1  0  0  0  0
 36 40  2  0  0  0  0
 37 39  2  0  0  0  0
 37 35  1  0  0  0  0
 38 46  1  0  0  0  0
 38 35  1  0  0  0  0
 40 37  1  0  0  0  0
 41 40  1  0  0  0  0
 41 38  2  0  0  0  0
 42 34  1  0  0  0  0
 42 46  2  0  0  0  0
 43 39  1  0  0  0  0
 44 47  2  0  0  0  0
 44 41  1  0  0  0  0
 45 43  2  0  0  0  0
 47 42  1  0  0  0  0
 48 50  2  0  0  0  0
 48 49  1  0  0  0  0
 49 51  1  0  0  0  0
 50 52  1  0  0  0  0
 51 36  1  0  0  0  0
 52 51  2  0  0  0  0
 53 48  1  0  0  0  0
 54 53  1  0  0  0  0
 55 56  1  0  0  0  0
 55 53  1  0  0  0  0
 57 58  1  0  0  0  0
 57 50  1  0  0  0  0
 59 58  1  0  0  0  0
 60 59  2  0  0  0  0
M  END
>  <MODEL>
2

>  <REMARK>
 VINA RESULT:      -6.4      2.731     10.218
  Name = 
  23 active torsions:
  status: ('A' for Active; 'I' for Inactive)
    1  A    between atoms: O_2  and  C_18
    2  A    between atoms: O_2  and  C_46
    3  A    between atoms: C_3  and  N_23
    4  A    between atoms: C_4  and  C_9
    5  A    between atoms: C_4  and  C_38
    6  A    between atoms: C_5  and  C_18
    7  A    between atoms: C_5  and  N_33
    8  A    between atoms: C_7  and  N_23
    9  A    between atoms: C_9  and  C_17
   10  A    between atoms: C_11  and  C_36
   11  A    between atoms: C_11  and  C_40
   12  A    between atoms: C_14  and  O_59
   13  A    between atoms: C_15  and  C_25
   14  A    between atoms: C_16  and  C_28
   15  A    between atoms: C_21  and  C_60
   16  A    between atoms: C_28  and  C_45
   17  A    between atoms: C_30  and  C_31
   18  A    between atoms: C_31  and  N_33
   19  A    between atoms: C_38  and  C_60
   20  A    between atoms: C_39  and  O_59
   21  A    between atoms: C_39  and  C_60
   22  A    between atoms: C_43  and  C_45
   23  A    between atoms: C_56  and  N_58
                            x       y       z     vdW  Elec       q    Type
                         _______ _______ _______ _____ _____    ______ ____

>  <TORSDO>
F 23

$$$$
=
 OpenBabel10222417413D

 60 66  0  0  1  0  0  0  0  0999 V2000
  188.4940  177.5820  143.4300 C   0  0  1  0  0  3  0  0  0  0  0  0
  189.7230  177.6440  142.5170 C   0  0  1  0  0  0  0  0  0  0  0  0
  189.7150  178.4200  143.8160 C   0  0  0  0  0  2  0  0  0  0  0  0
  187.4730  178.3790  142.8740 O   0  0  0  0  0  0  0  0  0  0  0  0
  186.2930  178.2020  143.6170 C   0  0  0  0  0  0  0  0  0  0  0  0
  186.5590  178.4860  145.0880 C   0  0  0  0  0  2  0  0  0  0  0  0
  186.2830  177.0630  144.6240 C   0  0  0  0  0  2  0  0  0  0  0  0
  184.9720  178.7830  143.0700 C   0  0  2  0  0  3  0  0  0  0  0  0
  182.9440  179.6400  144.0150 O   0  0  0  0  0  1  0  0  0  0  0  0
  183.8510  178.5830  144.0830 C   0  0  0  0  0  2  0  0  0  0  0  0
  184.5760  178.1730  141.7200 C   0  0  0  0  0  2  0  0  0  0  0  0
  185.1140  178.9800  140.5570 C   0  0  0  0  0  2  0  0  0  0  0  0
  184.0010  179.1940  139.5550 C   0  0  0  0  0  2  0  0  0  0  0  0
  182.6390  177.6230  138.1620 C   0  0  0  0  0  0  0  0  0  0  0  0
  183.7870  177.9400  138.7700 C   0  0  0  0  0  3  0  0  0  0  0  0
  181.9820  173.6250  136.8490 C   0  0  1  0  0  3  0  0  0  0  0  0
  183.4560  175.2360  138.0940 C   0  0  0  0  0  2  0  0  0  0  0  0
  181.9890  172.5220  135.8100 C   0  0  0  0  0  1  0  0  0  0  0  0
  181.2760  175.8870  137.2510 O   0  0  0  0  0  0  0  0  0  0  0  0
  183.4210  173.9750  137.2370 C   0  0  0  0  0  2  0  0  0  0  0  0
  182.6070  176.3190  137.4190 C   0  0  1  0  0  3  0  0  0  0  0  0
  181.2990  174.8690  136.2810 C   0  0  0  0  0  2  0  0  0  0  0  0
  180.5010  178.3300  138.9650 O   0  0  0  0  0  0  0  0  0  0  0  0
  181.4550  178.5250  138.1600 C   0  0  0  0  0  0  0  0  0  0  0  0
  181.3950  179.6210  137.2390 N   0  0  0  0  0  2  0  0  0  0  0  0
  179.1330  179.5700  136.6830 O   0  0  0  0  0  1  0  0  0  0  0  0
  180.1840  180.4080  137.0590 C   0  0  0  0  0  2  0  0  0  0  0  0
  190.5670  176.3780  142.4800 C   0  0  0  0  0  2  0  0  0  0  0  0
  191.7610  176.5510  143.2930 N   0  0  0  0  0  2  0  0  0  0  0  0
  191.7260  175.4900  144.2810 C   0  0  0  0  0  2  0  0  0  0  0  0
  192.1800  175.2010  146.7140 O   0  0  0  0  0  1  0  0  0  0  0  0
  191.9670  176.0520  145.6360 C   0  0  0  0  0  0  0  0  0  0  0  0
  191.9700  177.2980  145.8090 O   0  0  0  0  0  0  0  0  0  0  0  0
  189.5070  178.3460  141.2800 O   0  0  0  0  0  0  0  0  0  0  0  0
  186.8160  176.7440  137.5500 O   0  0  0  0  0  0  0  0  0  0  0  0
  189.0770  174.9020  135.5060 C   0  0  0  0  0  0  0  0  0  0  0  0
  187.1630  175.9910  136.5290 C   0  0  0  0  0  0  0  0  0  0  0  0
  187.9200  176.9840  138.2200 C   0  0  0  0  0  0  0  0  0  0  0  0
  186.3160  175.4830  135.6020 N   0  0  0  0  0  0  0  0  0  0  0  0
  188.5220  175.7360  136.5000 C   0  0  0  0  0  0  0  0  0  0  0  0
  189.0180  176.4160  137.5980 C   0  0  0  0  0  0  0  0  0  0  0  0
  189.3120  177.7550  140.0210 C   0  0  0  0  0  0  0  0  0  0  0  0
  186.7960  174.6340  134.6550 C   0  0  0  0  0  3  0  0  0  0  0  0
  190.2900  176.5140  138.1480 C   0  0  0  0  0  3  0  0  0  0  0  0
  188.1670  174.3270  134.5960 C   0  0  0  0  0  3  0  0  0  0  0  0
  188.0330  177.6610  139.4330 C   0  0  0  0  0  3  0  0  0  0  0  0
  190.4320  177.2060  139.3620 C   0  0  0  0  0  3  0  0  0  0  0  0
  192.6990  173.9260  135.4340 C   0  0  0  0  0  0  0  0  0  0  0  0
  191.3110  173.4850  135.7550 C   0  0  0  0  0  2  0  0  0  0  0  0
  192.6420  175.1470  134.9000 C   0  0  0  0  0  0  0  0  0  0  0  0
  190.5300  174.6740  135.2870 C   0  0  0  0  0  0  0  0  0  0  0  0
  191.2970  175.6030  134.8160 N   0  0  0  0  0  0  0  0  0  0  0  0
  193.8800  173.1540  135.7260 N   0  0  0  0  0  0  0  0  0  0  0  0
  194.3190  173.0090  137.1090 C   0  0  0  0  0  1  0  0  0  0  0  0
  194.6080  172.4160  134.7020 C   0  0  0  0  0  2  0  0  0  0  0  0
  196.1040  172.5900  134.8960 C   0  0  0  0  0  1  0  0  0  0  0  0
  193.7990  176.0490  134.5940 C   0  0  0  0  0  2  0  0  0  0  0  0
  194.3650  176.6590  135.8750 C   0  0  0  0  0  2  0  0  0  0  0  0
  195.7040  177.2690  135.6280 C   0  0  0  0  0  3  0  0  0  0  0  0
  195.8120  178.3720  134.9850 N   0  0  0  0  0  2  0  0  0  0  0  0
  1  4  1  6  0  0  0
  1  3  1  0  0  0  0
  2 28  1  6  0  0  0
  2  1  1  0  0  0  0
  2  3  1  0  0  0  0
  4  5  1  0  0  0  0
  5  7  1  0  0  0  0
  5  6  1  0  0  0  0
  7  6  1  0  0  0  0
  8 11  1  6  0  0  0
  8  5  1  0  0  0  0
  8 10  1  0  0  0  0
  9 10  1  0  0  0  0
 12 11  1  0  0  0  0
 13 12  1  0  0  0  0
 14 15  2  0  0  0  0
 15 13  1  0  0  0  0
 16 18  1  6  0  0  0
 16 20  1  0  0  0  0
 19 21  1  0  0  0  0
 20 17  1  0  0  0  0
 21 17  1  0  0  0  0
 21 14  1  1  0  0  0
 22 16  1  0  0  0  0
 22 19  1  0  0  0  0
 24 14  1  0  0  0  0
 24 23  2  0  0  0  0
 25 24  1  0  0  0  0
 26 27  1  0  0  0  0
 27 25  1  0  0  0  0
 28 29  1  0  0  0  0
 29 30  1  0  0  0  0
 30 32  1  0  0  0  0
 32 33  2  0  0  0  0
 32 31  1  0  0  0  0
 34  2  1  0  0  0  0
 35 38  1  0  0  0  0
 36 40  2  0  0  0  0
 37 35  1  0  0  0  0
 38 46  1  0  0  0  0
 39 37  2  0  0  0  0
 40 37  1  0  0  0  0
 40 41  1  0  0  0  0
 41 44  1  0  0  0  0
 41 38  2  0  0  0  0
 42 34  1  0  0  0  0
 43 39  1  0  0  0  0
 44 47  2  0  0  0  0
 45 43  2  0  0  0  0
 45 36  1  0  0  0  0
 46 42  2  0  0  0  0
 47 42  1  0  0  0  0
 48 53  1  0  0  0  0
 48 49  1  0  0  0  0
 50 48  2  0  0  0  0
 51 36  1  0  0  0  0
 51 49  1  0  0  0  0
 52 50  1  0  0  0  0
 52 51  2  0  0  0  0
 53 54  1  0  0  0  0
 55 56  1  0  0  0  0
 55 53  1  0  0  0  0
 57 50  1  0  0  0  0
 57 58  1  0  0  0  0
 59 58  1  0  0  0  0
 60 59  2  0  0  0  0
M  END
>  <MODEL>
3

>  <REMARK>
 VINA RESULT:      -6.2      1.829      3.080
  Name = 
  23 active torsions:
  status: ('A' for Active; 'I' for Inactive)
    1  A    between atoms: O_2  and  C_18
    2  A    between atoms: O_2  and  C_46
    3  A    between atoms: C_3  and  N_23
    4  A    between atoms: C_4  and  C_9
    5  A    between atoms: C_4  and  C_38
    6  A    between atoms: C_5  and  C_18
    7  A    between atoms: C_5  and  N_33
    8  A    between atoms: C_7  and  N_23
    9  A    between atoms: C_9  and  C_17
   10  A    between atoms: C_11  and  C_36
   11  A    between atoms: C_11  and  C_40
   12  A    between atoms: C_14  and  O_59
   13  A    between atoms: C_15  and  C_25
   14  A    between atoms: C_16  and  C_28
   15  A    between atoms: C_21  and  C_60
   16  A    between atoms: C_28  and  C_45
   17  A    between atoms: C_30  and  C_31
   18  A    between atoms: C_31  and  N_33
   19  A    between atoms: C_38  and  C_60
   20  A    between atoms: C_39  and  O_59
   21  A    between atoms: C_39  and  C_60
   22  A    between atoms: C_43  and  C_45
   23  A    between atoms: C_56  and  N_58
                            x       y       z     vdW  Elec       q    Type
                         _______ _______ _______ _____ _____    ______ ____

>  <TORSDO>
F 23

$$$$
=
 OpenBabel10222417413D

 60 66  0  0  1  0  0  0  0  0999 V2000
  187.8790  177.3830  144.4470 C   0  0  1  0  0  3  0  0  0  0  0  0
  186.6390  178.2140  144.7920 C   0  0  1  0  0  0  0  0  0  0  0  0
  186.5170  176.7130  144.6420 C   0  0  0  0  0  2  0  0  0  0  0  0
  188.1800  177.5580  143.0800 O   0  0  0  0  0  0  0  0  0  0  0  0
  189.5350  177.2570  142.8640 C   0  0  0  0  0  0  0  0  0  0  0  0
  189.8100  175.8070  143.2280 C   0  0  0  0  0  2  0  0  0  0  0  0
  190.3680  176.9280  144.0920 C   0  0  0  0  0  2  0  0  0  0  0  0
  190.2080  177.7410  141.5620 C   0  0  2  0  0  3  0  0  0  0  0  0
  188.2600  178.9480  140.8590 O   0  0  0  0  0  1  0  0  0  0  0  0
  189.1590  177.9530  140.4760 C   0  0  0  0  0  2  0  0  0  0  0  0
  191.2910  176.7770  141.0660 C   0  0  0  0  0  2  0  0  0  0  0  0
  192.6200  177.4770  140.8660 C   0  0  0  0  0  2  0  0  0  0  0  0
  193.2010  177.0510  139.5350 C   0  0  0  0  0  2  0  0  0  0  0  0
  192.2750  175.6000  137.7180 C   0  0  0  0  0  0  0  0  0  0  0  0
  192.1070  176.5430  138.6530 C   0  0  0  0  0  3  0  0  0  0  0  0
  189.0870  173.5630  135.7620 C   0  0  1  0  0  3  0  0  0  0  0  0
  191.4150  174.5010  135.6150 C   0  0  0  0  0  2  0  0  0  0  0  0
  187.7500  173.5050  135.0510 C   0  0  0  0  0  1  0  0  0  0  0  0
  190.1950  174.4270  137.7120 O   0  0  0  0  0  0  0  0  0  0  0  0
  190.1290  174.2120  134.8480 C   0  0  0  0  0  2  0  0  0  0  0  0
  191.0610  175.2150  136.9250 C   0  0  1  0  0  3  0  0  0  0  0  0
  188.9590  174.3890  137.0420 C   0  0  0  0  0  2  0  0  0  0  0  0
  193.7140  173.6930  137.7910 O   0  0  0  0  0  0  0  0  0  0  0  0
  193.5760  174.9130  137.4950 C   0  0  0  0  0  0  0  0  0  0  0  0
  194.6800  175.6400  136.9430 N   0  0  0  0  0  2  0  0  0  0  0  0
  196.7720  175.7450  135.9210 O   0  0  0  0  0  1  0  0  0  0  0  0
  196.0220  175.0760  136.8890 C   0  0  0  0  0  2  0  0  0  0  0  0
  186.6030  178.7660  146.2090 C   0  0  0  0  0  2  0  0  0  0  0  0
  186.9120  177.7110  147.1630 N   0  0  0  0  0  2  0  0  0  0  0  0
  187.7290  178.3300  148.1890 C   0  0  0  0  0  2  0  0  0  0  0  0
  189.3400  176.5940  147.4140 O   0  0  0  0  0  0  0  0  0  0  0  0
  189.0770  177.7050  148.2080 C   0  0  0  0  0  0  0  0  0  0  0  0
  189.9790  178.1750  148.9490 O   0  0  0  0  0  1  0  0  0  0  0  0
  186.1800  179.0650  143.7260 O   0  0  0  0  0  0  0  0  0  0  0  0
  181.4160  178.9260  142.7260 O   0  0  0  0  0  0  0  0  0  0  0  0
  181.1750  177.1920  139.6240 C   0  0  0  0  0  0  0  0  0  0  0  0
  180.7880  178.3750  141.7100 C   0  0  0  0  0  0  0  0  0  0  0  0
  182.7000  178.7830  142.4860 C   0  0  0  0  0  0  0  0  0  0  0  0
  179.4450  178.2710  141.5780 N   0  0  0  0  0  0  0  0  0  0  0  0
  181.6610  177.8700  140.7640 C   0  0  0  0  0  0  0  0  0  0  0  0
  182.9160  178.1670  141.2650 C   0  0  0  0  0  0  0  0  0  0  0  0
  185.0660  178.8290  142.9060 C   0  0  0  0  0  0  0  0  0  0  0  0
  178.9310  177.5840  140.5230 C   0  0  0  0  0  3  0  0  0  0  0  0
  184.2000  177.8830  140.8190 C   0  0  0  0  0  3  0  0  0  0  0  0
  179.7770  177.0330  139.5440 C   0  0  0  0  0  3  0  0  0  0  0  0
  183.7530  179.1270  143.3300 C   0  0  0  0  0  3  0  0  0  0  0  0
  185.2800  178.2360  141.6450 C   0  0  0  0  0  3  0  0  0  0  0  0
  183.2950  175.4990  137.0320 C   0  0  0  0  0  0  0  0  0  0  0  0
  182.2580  175.3140  138.0890 C   0  0  0  0  0  2  0  0  0  0  0  0
  183.5410  176.8050  136.9060 C   0  0  0  0  0  0  0  0  0  0  0  0
  182.0030  176.7380  138.4750 C   0  0  0  0  0  0  0  0  0  0  0  0
  182.7400  177.5630  137.8040 N   0  0  0  0  0  0  0  0  0  0  0  0
  183.9400  174.4170  136.3340 N   0  0  0  0  0  0  0  0  0  0  0  0
  183.9310  174.3970  134.8750 C   0  0  0  0  0  1  0  0  0  0  0  0
  184.7000  173.3820  137.0220 C   0  0  0  0  0  2  0  0  0  0  0  0
  183.8340  172.1520  137.2330 C   0  0  0  0  0  1  0  0  0  0  0  0
  184.6310  177.4390  136.0980 C   0  0  0  0  0  2  0  0  0  0  0  0
  186.0040  176.9690  136.5750 C   0  0  0  0  0  2  0  0  0  0  0  0
  186.7700  178.0950  137.1850 C   0  0  0  0  0  3  0  0  0  0  0  0
  186.2540  178.8120  138.1130 N   0  0  0  0  0  2  0  0  0  0  0  0
  1  4  1  6  0  0  0
  1  3  1  0  0  0  0
  1  2  1  0  0  0  0
  2 28  1  1  0  0  0
  3  2  1  0  0  0  0
  5  4  1  0  0  0  0
  5  6  1  0  0  0  0
  5  7  1  0  0  0  0
  6  7  1  0  0  0  0
  8 10  1  6  0  0  0
  8  5  1  0  0  0  0
 10  9  1  0  0  0  0
 11  8  1  0  0  0  0
 12 11  1  0  0  0  0
 13 12  1  0  0  0  0
 14 15  2  0  0  0  0
 15 13  1  0  0  0  0
 16 18  1  6  0  0  0
 16 22  1  0  0  0  0
 17 21  1  0  0  0  0
 20 17  1  0  0  0  0
 20 16  1  0  0  0  0
 21 19  1  0  0  0  0
 21 14  1  1  0  0  0
 22 19  1  0  0  0  0
 24 14  1  0  0  0  0
 24 23  2  0  0  0  0
 25 24  1  0  0  0  0
 26 27  1  0  0  0  0
 27 25  1  0  0  0  0
 28 29  1  0  0  0  0
 29 30  1  0  0  0  0
 30 32  1  0  0  0  0
 31 32  2  0  0  0  0
 32 33  1  0  0  0  0
 34  2  1  0  0  0  0
 36 40  2  0  0  0  0
 37 35  1  0  0  0  0
 38 35  1  0  0  0  0
 38 46  1  0  0  0  0
 39 37  2  0  0  0  0
 40 41  1  0  0  0  0
 40 37  1  0  0  0  0
 41 38  2  0  0  0  0
 42 46  2  0  0  0  0
 42 34  1  0  0  0  0
 43 39  1  0  0  0  0
 44 41  1  0  0  0  0
 44 47  2  0  0  0  0
 45 36  1  0  0  0  0
 45 43  2  0  0  0  0
 47 42  1  0  0  0  0
 48 49  1  0  0  0  0
 49 51  1  0  0  0  0
 50 48  2  0  0  0  0
 50 52  1  0  0  0  0
 51 36  1  0  0  0  0
 52 51  2  0  0  0  0
 53 55  1  0  0  0  0
 53 48  1  0  0  0  0
 54 53  1  0  0  0  0
 55 56  1  0  0  0  0
 57 58  1  0  0  0  0
 57 50  1  0  0  0  0
 58 59  1  0  0  0  0
 59 60  2  0  0  0  0
M  END
>  <MODEL>
4

>  <REMARK>
 VINA RESULT:      -6.1      2.865      9.515
  Name = 
  23 active torsions:
  status: ('A' for Active; 'I' for Inactive)
    1  A    between atoms: O_2  and  C_18
    2  A    between atoms: O_2  and  C_46
    3  A    between atoms: C_3  and  N_23
    4  A    between atoms: C_4  and  C_9
    5  A    between atoms: C_4  and  C_38
    6  A    between atoms: C_5  and  C_18
    7  A    between atoms: C_5  and  N_33
    8  A    between atoms: C_7  and  N_23
    9  A    between atoms: C_9  and  C_17
   10  A    between atoms: C_11  and  C_36
   11  A    between atoms: C_11  and  C_40
   12  A    between atoms: C_14  and  O_59
   13  A    between atoms: C_15  and  C_25
   14  A    between atoms: C_16  and  C_28
   15  A    between atoms: C_21  and  C_60
   16  A    between atoms: C_28  and  C_45
   17  A    between atoms: C_30  and  C_31
   18  A    between atoms: C_31  and  N_33
   19  A    between atoms: C_38  and  C_60
   20  A    between atoms: C_39  and  O_59
   21  A    between atoms: C_39  and  C_60
   22  A    between atoms: C_43  and  C_45
   23  A    between atoms: C_56  and  N_58
                            x       y       z     vdW  Elec       q    Type
                         _______ _______ _______ _____ _____    ______ ____

>  <TORSDO>
F 23

$$$$
=
 OpenBabel10222417413D

 60 66  0  0  1  0  0  0  0  0999 V2000
  189.0500  177.7830  144.5800 C   0  0  1  0  0  3  0  0  0  0  0  0
  190.3160  177.7670  143.7180 C   0  0  1  0  0  0  0  0  0  0  0  0
  190.2500  178.6620  144.9370 C   0  0  0  0  0  2  0  0  0  0  0  0
  188.0510  178.5180  143.9080 O   0  0  0  0  0  0  0  0  0  0  0  0
  186.8100  177.8870  144.0950 C   0  0  0  0  0  0  0  0  0  0  0  0
  186.8150  177.1080  145.4010 C   0  0  0  0  0  2  0  0  0  0  0  0
  186.8040  176.3670  144.0720 C   0  0  0  0  0  2  0  0  0  0  0  0
  185.5180  178.6840  143.8160 C   0  0  2  0  0  3  0  0  0  0  0  0
  185.4320  179.6530  146.0070 O   0  0  0  0  0  1  0  0  0  0  0  0
  184.7220  178.8620  145.1050 C   0  0  0  0  0  2  0  0  0  0  0  0
  184.6420  178.0280  142.7430 C   0  0  0  0  0  2  0  0  0  0  0  0
  184.5250  178.8930  141.5040 C   0  0  0  0  0  2  0  0  0  0  0  0
  183.6620  178.1770  140.4880 C   0  0  0  0  0  2  0  0  0  0  0  0
  181.6000  179.3850  139.7450 C   0  0  0  0  0  0  0  0  0  0  0  0
  182.9200  179.1830  139.6670 C   0  0  0  0  0  3  0  0  0  0  0  0
  180.0810  182.9650  138.0070 C   0  0  1  0  0  3  0  0  0  0  0  0
  179.5890  180.8160  139.2150 C   0  0  0  0  0  2  0  0  0  0  0  0
  179.6560  183.8290  136.8370 C   0  0  0  0  0  1  0  0  0  0  0  0
  181.8610  181.5750  138.8280 O   0  0  0  0  0  0  0  0  0  0  0  0
  179.0680  181.8350  138.2070 C   0  0  0  0  0  2  0  0  0  0  0  0
  181.0270  180.4380  138.8410 C   0  0  1  0  0  3  0  0  0  0  0  0
  181.4580  182.3610  137.7340 C   0  0  0  0  0  2  0  0  0  0  0  0
  180.1140  177.6140  140.3490 O   0  0  0  0  0  0  0  0  0  0  0  0
  180.7300  178.6570  140.7070 C   0  0  0  0  0  0  0  0  0  0  0  0
  180.5880  179.1410  142.0480 N   0  0  0  0  0  2  0  0  0  0  0  0
  180.2500  178.0690  144.0890 O   0  0  0  0  0  1  0  0  0  0  0  0
  179.6030  178.5860  142.9660 C   0  0  0  0  0  2  0  0  0  0  0  0
  191.1640  176.5100  143.8360 C   0  0  0  0  0  2  0  0  0  0  0  0
  190.9180  175.8610  145.1160 N   0  0  0  0  0  2  0  0  0  0  0  0
  192.1510  175.9840  145.8680 C   0  0  0  0  0  2  0  0  0  0  0  0
  192.8180  175.9430  148.2690 O   0  0  0  0  0  1  0  0  0  0  0  0
  191.8460  176.1960  147.3070 C   0  0  0  0  0  0  0  0  0  0  0  0
  190.7060  176.5970  147.6560 O   0  0  0  0  0  0  0  0  0  0  0  0
  190.1520  178.3480  142.4120 O   0  0  0  0  0  0  0  0  0  0  0  0
  193.3780  176.7980  139.1080 O   0  0  0  0  0  0  0  0  0  0  0  0
  191.4450  176.0510  136.2120 C   0  0  0  0  0  0  0  0  0  0  0  0
  193.1870  176.4250  137.8620 C   0  0  0  0  0  0  0  0  0  0  0  0
  192.1850  177.0240  139.6100 C   0  0  0  0  0  0  0  0  0  0  0  0
  194.1630  176.1310  136.9700 N   0  0  0  0  0  0  0  0  0  0  0  0
  191.8470  176.3800  137.5250 C   0  0  0  0  0  0  0  0  0  0  0  0
  191.1920  176.7470  138.6870 C   0  0  0  0  0  0  0  0  0  0  0  0
  190.5360  177.7610  141.1950 C   0  0  0  0  0  0  0  0  0  0  0  0
  193.8280  175.8570  135.6820 C   0  0  0  0  0  3  0  0  0  0  0  0
  189.8510  176.9460  138.9890 C   0  0  0  0  0  3  0  0  0  0  0  0
  192.4800  175.8200  135.2830 C   0  0  0  0  0  3  0  0  0  0  0  0
  191.8900  177.5320  140.8740 C   0  0  0  0  0  3  0  0  0  0  0  0
  189.5270  177.4410  140.2630 C   0  0  0  0  0  3  0  0  0  0  0  0
  187.7720  176.0020  135.4440 C   0  0  0  0  0  0  0  0  0  0  0  0
  188.9500  176.8550  135.7780 C   0  0  0  0  0  2  0  0  0  0  0  0
  188.1900  174.7420  135.3030 C   0  0  0  0  0  0  0  0  0  0  0  0
  190.0420  175.8300  135.7720 C   0  0  0  0  0  0  0  0  0  0  0  0
  189.5930  174.6450  135.5100 N   0  0  0  0  0  0  0  0  0  0  0  0
  186.4190  176.4890  135.3600 N   0  0  0  0  0  0  0  0  0  0  0  0
  186.1380  177.6970  134.5940 C   0  0  0  0  0  1  0  0  0  0  0  0
  185.2880  175.7650  135.9250 C   0  0  0  0  0  2  0  0  0  0  0  0
  184.9540  176.3120  137.3030 C   0  0  0  0  0  1  0  0  0  0  0  0
  187.3320  173.5240  135.1450 C   0  0  0  0  0  2  0  0  0  0  0  0
  187.4140  172.6380  136.3870 C   0  0  0  0  0  2  0  0  0  0  0  0
  187.7890  171.2410  136.0200 C   0  0  0  0  0  3  0  0  0  0  0  0
  187.9710  170.9110  134.7960 N   0  0  0  0  0  2  0  0  0  0  0  0
  1  4  1  6  0  0  0
  1  3  1  0  0  0  0
  2 28  1  1  0  0  0
  2  1  1  0  0  0  0
  2  3  1  0  0  0  0
  4  5  1  0  0  0  0
  5  6  1  0  0  0  0
  7  5  1  0  0  0  0
  7  6  1  0  0  0  0
  8 11  1  6  0  0  0
  8  5  1  0  0  0  0
  8 10  1  0  0  0  0
 10  9  1  0  0  0  0
 12 11  1  0  0  0  0
 13 12  1  0  0  0  0
 14 24  1  0  0  0  0
 15 14  2  0  0  0  0
 15 13  1  0  0  0  0
 16 18  1  6  0  0  0
 16 20  1  0  0  0  0
 19 21  1  0  0  0  0
 20 17  1  0  0  0  0
 21 17  1  0  0  0  0
 21 14  1  1  0  0  0
 22 16  1  0  0  0  0
 22 19  1  0  0  0  0
 23 24  2  0  0  0  0
 24 25  1  0  0  0  0
 25 27  1  0  0  0  0
 27 26  1  0  0  0  0
 28 29  1  0  0  0  0
 29 30  1  0  0  0  0
 30 32  1  0  0  0  0
 32 33  2  0  0  0  0
 32 31  1  0  0  0  0
 34  2  1  0  0  0  0
 35 38  1  0  0  0  0
 36 40  2  0  0  0  0
 37 35  1  0  0  0  0
 38 46  1  0  0  0  0
 39 37  2  0  0  0  0
 40 37  1  0  0  0  0
 40 41  1  0  0  0  0
 41 44  1  0  0  0  0
 41 38  2  0  0  0  0
 42 34  1  0  0  0  0
 43 39  1  0  0  0  0
 44 47  2  0  0  0  0
 45 43  2  0  0  0  0
 45 36  1  0  0  0  0
 46 42  2  0  0  0  0
 47 42  1  0  0  0  0
 48 49  1  0  0  0  0
 50 48  2  0  0  0  0
 50 52  1  0  0  0  0
 51 49  1  0  0  0  0
 51 36  1  0  0  0  0
 52 51  2  0  0  0  0
 53 48  1  0  0  0  0
 53 55  1  0  0  0  0
 54 53  1  0  0  0  0
 55 56  1  0  0  0  0
 57 50  1  0  0  0  0
 57 58  1  0  0  0  0
 59 58  1  0  0  0  0
 60 59  2  0  0  0  0
M  END
>  <MODEL>
5

>  <REMARK>
 VINA RESULT:      -6.0      1.989      4.594
  Name = 
  23 active torsions:
  status: ('A' for Active; 'I' for Inactive)
    1  A    between atoms: O_2  and  C_18
    2  A    between atoms: O_2  and  C_46
    3  A    between atoms: C_3  and  N_23
    4  A    between atoms: C_4  and  C_9
    5  A    between atoms: C_4  and  C_38
    6  A    between atoms: C_5  and  C_18
    7  A    between atoms: C_5  and  N_33
    8  A    between atoms: C_7  and  N_23
    9  A    between atoms: C_9  and  C_17
   10  A    between atoms: C_11  and  C_36
   11  A    between atoms: C_11  and  C_40
   12  A    between atoms: C_14  and  O_59
   13  A    between atoms: C_15  and  C_25
   14  A    between atoms: C_16  and  C_28
   15  A    between atoms: C_21  and  C_60
   16  A    between atoms: C_28  and  C_45
   17  A    between atoms: C_30  and  C_31
   18  A    between atoms: C_31  and  N_33
   19  A    between atoms: C_38  and  C_60
   20  A    between atoms: C_39  and  O_59
   21  A    between atoms: C_39  and  C_60
   22  A    between atoms: C_43  and  C_45
   23  A    between atoms: C_56  and  N_58
                            x       y       z     vdW  Elec       q    Type
                         _______ _______ _______ _____ _____    ______ ____

>  <TORSDO>
F 23

$$$$
=
 OpenBabel10222417413D

 60 66  0  0  1  0  0  0  0  0999 V2000
  184.6220  177.2530  137.1170 C   0  0  1  0  0  3  0  0  0  0  0  0
  183.8310  178.0620  138.1490 C   0  0  1  0  0  0  0  0  0  0  0  0
  183.7020  178.3940  136.6780 C   0  0  0  0  0  2  0  0  0  0  0  0
  185.9720  177.6600  137.1540 O   0  0  0  0  0  0  0  0  0  0  0  0
  186.6480  177.1190  136.0480 C   0  0  0  0  0  0  0  0  0  0  0  0
  186.8930  178.2020  135.0090 C   0  0  0  0  0  2  0  0  0  0  0  0
  185.8920  177.0910  134.7300 C   0  0  0  0  0  2  0  0  0  0  0  0
  187.8400  176.1690  136.2930 C   0  0  2  0  0  3  0  0  0  0  0  0
  187.6920  173.9170  137.1000 O   0  0  0  0  0  1  0  0  0  0  0  0
  187.4330  174.7290  135.9970 C   0  0  0  0  0  2  0  0  0  0  0  0
  188.3940  176.2760  137.7180 C   0  0  0  0  0  2  0  0  0  0  0  0
  189.9050  176.3950  137.7280 C   0  0  0  0  0  2  0  0  0  0  0  0
  190.5030  175.0110  137.8620 C   0  0  0  0  0  2  0  0  0  0  0  0
  192.5940  174.4190  136.6220 C   0  0  0  0  0  0  0  0  0  0  0  0
  191.9740  175.0770  137.6080 C   0  0  0  0  0  3  0  0  0  0  0  0
  196.8250  173.9380  136.5080 C   0  0  1  0  0  3  0  0  0  0  0  0
  194.7840  174.4800  137.8740 C   0  0  0  0  0  2  0  0  0  0  0  0
  198.2320  174.3980  136.1870 C   0  0  0  0  0  1  0  0  0  0  0  0
  194.6200  173.6960  135.5830 O   0  0  0  0  0  0  0  0  0  0  0  0
  196.2730  174.7500  137.6830 C   0  0  0  0  0  2  0  0  0  0  0  0
  194.0800  174.6040  136.5190 C   0  0  1  0  0  3  0  0  0  0  0  0
  195.9220  174.1400  135.2920 C   0  0  0  0  0  2  0  0  0  0  0  0
  190.9020  174.0690  134.9700 O   0  0  0  0  0  0  0  0  0  0  0  0
  191.8640  173.5830  135.6300 C   0  0  0  0  0  0  0  0  0  0  0  0
  192.2500  172.2190  135.4240 N   0  0  0  0  0  2  0  0  0  0  0  0
  192.0380  170.0410  134.6260 O   0  0  0  0  0  1  0  0  0  0  0  0
  191.4510  171.3070  134.6190 C   0  0  0  0  0  2  0  0  0  0  0  0
  182.6640  177.3280  138.7910 C   0  0  0  0  0  2  0  0  0  0  0  0
  181.6090  178.2710  139.1340 N   0  0  0  0  0  2  0  0  0  0  0  0
  180.5690  177.4890  139.7750 C   0  0  0  0  0  2  0  0  0  0  0  0
  180.7270  179.3170  141.4610 O   0  0  0  0  0  0  0  0  0  0  0  0
  180.0330  178.2270  140.9480 C   0  0  0  0  0  0  0  0  0  0  0  0
  178.9540  177.8600  141.4830 O   0  0  0  0  0  1  0  0  0  0  0  0
  184.6410  178.9040  138.9890 O   0  0  0  0  0  0  0  0  0  0  0  0
  183.6840  178.6320  143.7570 O   0  0  0  0  0  0  0  0  0  0  0  0
  186.8610  178.2170  145.3120 C   0  0  0  0  0  0  0  0  0  0  0  0
  184.5110  178.5060  144.7720 C   0  0  0  0  0  0  0  0  0  0  0  0
  184.4210  178.5510  142.6720 C   0  0  0  0  0  0  0  0  0  0  0  0
  184.1670  178.5700  146.0800 N   0  0  0  0  0  0  0  0  0  0  0  0
  185.8200  178.3200  144.3650 C   0  0  0  0  0  0  0  0  0  0  0  0
  185.7490  178.3210  142.9830 C   0  0  0  0  0  0  0  0  0  0  0  0
  184.9650  178.6590  140.3330 C   0  0  0  0  0  0  0  0  0  0  0  0
  185.1400  178.5270  147.0280 C   0  0  0  0  0  3  0  0  0  0  0  0
  186.7170  178.2320  141.9910 C   0  0  0  0  0  3  0  0  0  0  0  0
  186.4880  178.3590  146.6650 C   0  0  0  0  0  3  0  0  0  0  0  0
  183.9950  178.7240  141.3560 C   0  0  0  0  0  3  0  0  0  0  0  0
  186.3110  178.3870  140.6560 C   0  0  0  0  0  3  0  0  0  0  0  0
  190.1830  176.9400  144.1260 C   0  0  0  0  0  0  0  0  0  0  0  0
  188.7590  177.1950  143.7600 C   0  0  0  0  0  3  0  0  0  0  0  0
  190.3910  177.4000  145.3610 C   0  0  1  0  0  3  0  0  0  0  0  0
  188.2740  177.8730  145.0040 C   0  0  0  0  0  0  0  0  0  0  0  0
  189.2050  177.9720  145.8980 N   0  0  0  0  0  0  0  0  0  0  0  0
  191.1240  176.2530  143.2780 N   0  0  0  0  0  0  0  0  0  0  0  0
  191.4610  174.8620  143.5600 C   0  0  0  0  0  1  0  0  0  0  0  0
  191.6850  176.8570  142.0770 C   0  0  0  0  0  2  0  0  0  0  0  0
  190.5800  177.4850  141.2440 C   0  0  0  0  0  1  0  0  0  0  0  0
  191.6160  177.1980  146.2000 C   0  0  0  0  0  2  0  0  0  0  0  0
  191.2980  176.3530  147.4320 C   0  0  0  0  0  2  0  0  0  0  0  0
  192.5490  175.8840  148.0940 C   0  0  0  0  0  3  0  0  0  0  0  0
  193.1190  176.5930  148.9960 N   0  0  0  0  0  2  0  0  0  0  0  0
  1  4  1  1  0  0  0
  1  2  1  0  0  0  0
  2 28  1  1  0  0  0
  2 34  1  0  0  0  0
  3  1  1  0  0  0  0
  3  2  1  0  0  0  0
  5  8  1  0  0  0  0
  5  4  1  0  0  0  0
  6  5  1  0  0  0  0
  7  6  1  0  0  0  0
  7  5  1  0  0  0  0
  8 10  1  1  0  0  0
  8 11  1  0  0  0  0
 10  9  1  0  0  0  0
 11 12  1  0  0  0  0
 12 13  1  0  0  0  0
 14 15  2  0  0  0  0
 15 13  1  0  0  0  0
 16 18  1  6  0  0  0
 16 20  1  0  0  0  0
 19 21  1  0  0  0  0
 20 17  1  0  0  0  0
 21 14  1  1  0  0  0
 21 17  1  0  0  0  0
 22 19  1  0  0  0  0
 22 16  1  0  0  0  0
 23 24  2  0  0  0  0
 24 14  1  0  0  0  0
 25 24  1  0  0  0  0
 27 26  1  0  0  0  0
 27 25  1  0  0  0  0
 28 29  1  0  0  0  0
 29 30  1  0  0  0  0
 30 32  1  0  0  0  0
 32 31  2  0  0  0  0
 32 33  1  0  0  0  0
 34 42  1  0  0  0  0
 35 37  1  0  0  0  0
 36 45  1  0  0  0  0
 37 39  2  0  0  0  0
 38 41  1  0  0  0  0
 38 35  1  0  0  0  0
 39 43  1  0  0  0  0
 40 37  1  0  0  0  0
 40 36  2  0  0  0  0
 41 40  1  0  0  0  0
 42 47  2  0  0  0  0
 42 46  1  0  0  0  0
 44 41  2  0  0  0  0
 45 43  2  0  0  0  0
 46 38  2  0  0  0  0
 47 44  1  0  0  0  0
 48 50  1  0  0  0  0
 49 48  2  0  0  0  0
 49 51  1  0  0  0  0
 50 52  1  0  0  0  0
 50 57  1  1  0  0  0
 51 36  1  0  0  0  0
 51 52  2  0  0  0  0
 53 54  1  0  0  0  0
 53 48  1  0  0  0  0
 55 53  1  0  0  0  0
 56 55  1  0  0  0  0
 57 58  1  0  0  0  0
 58 59  1  0  0  0  0
 59 60  2  0  0  0  0
M  END
>  <MODEL>
6

>  <REMARK>
 VINA RESULT:      -5.7      3.156     11.107
  Name = 
  23 active torsions:
  status: ('A' for Active; 'I' for Inactive)
    1  A    between atoms: O_2  and  C_18
    2  A    between atoms: O_2  and  C_46
    3  A    between atoms: C_3  and  N_23
    4  A    between atoms: C_4  and  C_9
    5  A    between atoms: C_4  and  C_38
    6  A    between atoms: C_5  and  C_18
    7  A    between atoms: C_5  and  N_33
    8  A    between atoms: C_7  and  N_23
    9  A    between atoms: C_9  and  C_17
   10  A    between atoms: C_11  and  C_36
   11  A    between atoms: C_11  and  C_40
   12  A    between atoms: C_14  and  O_59
   13  A    between atoms: C_15  and  C_25
   14  A    between atoms: C_16  and  C_28
   15  A    between atoms: C_21  and  C_60
   16  A    between atoms: C_28  and  C_45
   17  A    between atoms: C_30  and  C_31
   18  A    between atoms: C_31  and  N_33
   19  A    between atoms: C_38  and  C_60
   20  A    between atoms: C_39  and  O_59
   21  A    between atoms: C_39  and  C_60
   22  A    between atoms: C_43  and  C_45
   23  A    between atoms: C_56  and  N_58
                            x       y       z     vdW  Elec       q    Type
                         _______ _______ _______ _____ _____    ______ ____

>  <TORSDO>
F 23

$$$$
=
 OpenBabel10222417413D

 60 66  0  0  1  0  0  0  0  0999 V2000
  188.2040  177.4590  145.0010 C   0  0  1  0  0  3  0  0  0  0  0  0
  189.5760  177.5560  144.3260 C   0  0  1  0  0  0  0  0  0  0  0  0
  189.3980  178.0690  145.7390 C   0  0  0  0  0  2  0  0  0  0  0  0
  187.3620  178.4550  144.4660 O   0  0  0  0  0  0  0  0  0  0  0  0
  186.0580  178.2680  144.9530 C   0  0  0  0  0  0  0  0  0  0  0  0
  185.9440  178.8300  146.3620 C   0  0  0  0  0  2  0  0  0  0  0  0
  185.8980  177.3260  146.1360 C   0  0  0  0  0  2  0  0  0  0  0  0
  184.8620  178.5810  144.0280 C   0  0  2  0  0  3  0  0  0  0  0  0
  185.6560  179.6120  142.0160 O   0  0  0  0  0  1  0  0  0  0  0  0
  185.1110  179.8800  143.2710 C   0  0  0  0  0  2  0  0  0  0  0  0
  183.5350  178.6610  144.7890 C   0  0  0  0  0  2  0  0  0  0  0  0
  182.3900  179.0700  143.8850 C   0  0  0  0  0  2  0  0  0  0  0  0
  182.5830  178.4260  142.5300 C   0  0  0  0  0  2  0  0  0  0  0  0
  180.9170  179.2100  140.8360 C   0  0  0  0  0  0  0  0  0  0  0  0
  182.0900  179.3500  141.4630 C   0  0  0  0  0  3  0  0  0  0  0  0
  180.8170  182.5760  138.2270 C   0  0  1  0  0  3  0  0  0  0  0  0
  180.0600  181.5420  140.3910 C   0  0  0  0  0  2  0  0  0  0  0  0
  180.3360  183.3270  137.0030 C   0  0  0  0  0  1  0  0  0  0  0  0
  181.7080  180.4700  138.9680 O   0  0  0  0  0  0  0  0  0  0  0  0
  179.6880  182.4920  139.2570 C   0  0  0  0  0  2  0  0  0  0  0  0
  180.5860  180.2340  139.7890 C   0  0  1  0  0  3  0  0  0  0  0  0
  181.2440  181.1610  137.8350 C   0  0  0  0  0  2  0  0  0  0  0  0
  179.0410  178.3390  142.0350 O   0  0  0  0  0  0  0  0  0  0  0  0
  179.9460  178.1350  141.1770 C   0  0  0  0  0  0  0  0  0  0  0  0
  180.0380  176.8590  140.5320 N   0  0  0  0  0  2  0  0  0  0  0  0
  179.6080  175.3690  142.2700 O   0  0  0  0  0  1  0  0  0  0  0  0
  179.2460  175.7180  140.9680 C   0  0  0  0  0  2  0  0  0  0  0  0
  190.3130  176.2340  144.1660 C   0  0  0  0  0  2  0  0  0  0  0  0
  191.7010  176.3840  144.5760 N   0  0  0  0  0  2  0  0  0  0  0  0
  191.9660  175.2890  145.4900 C   0  0  0  0  0  2  0  0  0  0  0  0
  191.2050  174.8730  147.8250 O   0  0  0  0  0  1  0  0  0  0  0  0
  191.7610  175.7390  146.8910 C   0  0  0  0  0  0  0  0  0  0  0  0
  192.0820  176.9080  147.2300 O   0  0  0  0  0  0  0  0  0  0  0  0
  189.6380  178.4970  143.2400 O   0  0  0  0  0  0  0  0  0  0  0  0
  187.8030  177.7100  138.7980 O   0  0  0  0  0  0  0  0  0  0  0  0
  190.4880  176.3030  136.9280 C   0  0  0  0  0  0  0  0  0  0  0  0
  188.3720  177.1780  137.7390 C   0  0  0  0  0  0  0  0  0  0  0  0
  188.7420  177.7990  139.7130 C   0  0  0  0  0  0  0  0  0  0  0  0
  187.7450  176.8760  136.5770 N   0  0  0  0  0  0  0  0  0  0  0  0
  189.7170  176.9230  137.9350 C   0  0  0  0  0  0  0  0  0  0  0  0
  189.9600  177.3610  139.2250 C   0  0  0  0  0  0  0  0  0  0  0  0
  189.7190  178.1770  141.8760 C   0  0  0  0  0  0  0  0  0  0  0  0
  188.4330  176.2330  135.5960 C   0  0  0  0  0  3  0  0  0  0  0  0
  191.0920  177.3350  140.0300 C   0  0  0  0  0  3  0  0  0  0  0  0
  189.7980  175.9330  135.7550 C   0  0  0  0  0  3  0  0  0  0  0  0
  188.5870  178.2150  141.0340 C   0  0  0  0  0  3  0  0  0  0  0  0
  190.9660  177.7640  141.3610 C   0  0  0  0  0  3  0  0  0  0  0  0
  194.1530  175.6870  136.4170 C   0  0  0  0  0  0  0  0  0  0  0  0
  192.8810  176.1430  135.7850 C   0  0  0  0  0  3  0  0  0  0  0  0
  193.9220  175.4480  137.7090 C   0  0  1  0  0  3  0  0  0  0  0  0
  191.9620  176.1130  136.9670 C   0  0  0  0  0  0  0  0  0  0  0  0
  192.5640  175.7110  138.0400 N   0  0  0  0  0  0  0  0  0  0  0  0
  195.3870  175.4920  135.6990 N   0  0  0  0  0  0  0  0  0  0  0  0
  196.0450  176.6360  135.0790 C   0  0  0  0  0  1  0  0  0  0  0  0
  196.0720  174.2060  135.6500 C   0  0  0  0  0  2  0  0  0  0  0  0
  195.1230  173.1280  135.1540 C   0  0  0  0  0  1  0  0  0  0  0  0
  194.8590  174.8060  138.6850 C   0  0  0  0  0  2  0  0  0  0  0  0
  195.0510  175.6910  139.9170 C   0  0  0  0  0  2  0  0  0  0  0  0
  196.2750  175.2950  140.6720 C   0  0  0  0  0  3  0  0  0  0  0  0
  197.2830  176.0820  140.7460 N   0  0  0  0  0  2  0  0  0  0  0  0
  1  4  1  6  0  0  0
  1  3  1  0  0  0  0
  2 28  1  6  0  0  0
  2  1  1  0  0  0  0
  2  3  1  0  0  0  0
  4  5  1  0  0  0  0
  5  7  1  0  0  0  0
  5  6  1  0  0  0  0
  7  6  1  0  0  0  0
  8 10  1  1  0  0  0
  8 11  1  0  0  0  0
  8  5  1  0  0  0  0
  9 10  1  0  0  0  0
 12 11  1  0  0  0  0
 13 12  1  0  0  0  0
 14 24  1  0  0  0  0
 14 15  2  0  0  0  0
 15 13  1  0  0  0  0
 16 18  1  6  0  0  0
 16 20  1  0  0  0  0
 19 21  1  0  0  0  0
 20 17  1  0  0  0  0
 21 17  1  0  0  0  0
 21 14  1  1  0  0  0
 22 16  1  0  0  0  0
 22 19  1  0  0  0  0
 24 23  2  0  0  0  0
 25 27  1  0  0  0  0
 25 24  1  0  0  0  0
 27 26  1  0  0  0  0
 28 29  1  0  0  0  0
 29 30  1  0  0  0  0
 30 32  1  0  0  0  0
 32 33  2  0  0  0  0
 32 31  1  0  0  0  0
 34  2  1  0  0  0  0
 35 38  1  0  0  0  0
 36 51  1  0  0  0  0
 36 40  2  0  0  0  0
 37 40  1  0  0  0  0
 37 35  1  0  0  0  0
 38 46  1  0  0  0  0
 39 37  2  0  0  0  0
 40 41  1  0  0  0  0
 41 38  2  0  0  0  0
 41 44  1  0  0  0  0
 42 34  1  0  0  0  0
 43 45  2  0  0  0  0
 43 39  1  0  0  0  0
 44 47  2  0  0  0  0
 45 36  1  0  0  0  0
 46 42  2  0  0  0  0
 47 42  1  0  0  0  0
 48 50  1  0  0  0  0
 49 48  2  0  0  0  0
 49 51  1  0  0  0  0
 50 52  1  0  0  0  0
 50 57  1  6  0  0  0
 51 52  2  0  0  0  0
 53 48  1  0  0  0  0
 54 53  1  0  0  0  0
 55 53  1  0  0  0  0
 56 55  1  0  0  0  0
 57 58  1  0  0  0  0
 58 59  1  0  0  0  0
 59 60  2  0  0  0  0
M  END
>  <MODEL>
7

>  <REMARK>
 VINA RESULT:      -5.6      1.526      2.189
  Name = 
  23 active torsions:
  status: ('A' for Active; 'I' for Inactive)
    1  A    between atoms: O_2  and  C_18
    2  A    between atoms: O_2  and  C_46
    3  A    between atoms: C_3  and  N_23
    4  A    between atoms: C_4  and  C_9
    5  A    between atoms: C_4  and  C_38
    6  A    between atoms: C_5  and  C_18
    7  A    between atoms: C_5  and  N_33
    8  A    between atoms: C_7  and  N_23
    9  A    between atoms: C_9  and  C_17
   10  A    between atoms: C_11  and  C_36
   11  A    between atoms: C_11  and  C_40
   12  A    between atoms: C_14  and  O_59
   13  A    between atoms: C_15  and  C_25
   14  A    between atoms: C_16  and  C_28
   15  A    between atoms: C_21  and  C_60
   16  A    between atoms: C_28  and  C_45
   17  A    between atoms: C_30  and  C_31
   18  A    between atoms: C_31  and  N_33
   19  A    between atoms: C_38  and  C_60
   20  A    between atoms: C_39  and  O_59
   21  A    between atoms: C_39  and  C_60
   22  A    between atoms: C_43  and  C_45
   23  A    between atoms: C_56  and  N_58
                            x       y       z     vdW  Elec       q    Type
                         _______ _______ _______ _____ _____    ______ ____

>  <TORSDO>
F 23

$$$$
=
 OpenBabel10222417413D

 60 66  0  0  1  0  0  0  0  0999 V2000
  189.4850  178.0740  137.6170 C   0  0  1  0  0  3  0  0  0  0  0  0
  188.4050  177.4180  136.7500 C   0  0  1  0  0  0  0  0  0  0  0  0
  188.3960  178.9180  136.9530 C   0  0  0  0  0  2  0  0  0  0  0  0
  189.1930  177.8250  138.9740 O   0  0  0  0  0  0  0  0  0  0  0  0
  190.1970  177.0080  139.5200 C   0  0  0  0  0  0  0  0  0  0  0  0
  191.5610  177.4590  139.0220 C   0  0  0  0  0  2  0  0  0  0  0  0
  190.9760  176.1380  138.5470 C   0  0  0  0  0  2  0  0  0  0  0  0
  190.1360  176.6520  141.0210 C   0  0  2  0  0  3  0  0  0  0  0  0
  188.3600  176.3270  142.5960 O   0  0  0  0  0  1  0  0  0  0  0  0
  188.8600  177.2110  141.6420 C   0  0  0  0  0  2  0  0  0  0  0  0
  191.3610  177.1530  141.7940 C   0  0  0  0  0  2  0  0  0  0  0  0
  191.2580  178.6300  142.1180 C   0  0  0  0  0  2  0  0  0  0  0  0
  191.4890  178.8220  143.6010 C   0  0  0  0  0  2  0  0  0  0  0  0
  189.9840  177.6840  145.2450 C   0  0  0  0  0  0  0  0  0  0  0  0
  190.1990  178.6400  144.3340 C   0  0  0  0  0  3  0  0  0  0  0  0
  186.1450  178.5970  146.8490 C   0  0  1  0  0  3  0  0  0  0  0  0
  188.6070  178.3030  147.2680 C   0  0  0  0  0  2  0  0  0  0  0  0
  184.7700  178.2270  147.3660 C   0  0  0  0  0  1  0  0  0  0  0  0
  187.6750  178.2530  145.0280 O   0  0  0  0  0  0  0  0  0  0  0  0
  187.2090  178.1640  147.8610 C   0  0  0  0  0  2  0  0  0  0  0  0
  188.6240  177.6520  145.8800 C   0  0  1  0  0  3  0  0  0  0  0  0
  186.4060  177.8950  145.5170 C   0  0  0  0  0  2  0  0  0  0  0  0
  191.6330  176.8680  146.7710 O   0  0  0  0  0  0  0  0  0  0  0  0
  191.0390  176.7230  145.6650 C   0  0  0  0  0  0  0  0  0  0  0  0
  191.3860  175.6260  144.8110 N   0  0  0  0  0  2  0  0  0  0  0  0
  192.2210  173.4510  144.7860 O   0  0  0  0  0  1  0  0  0  0  0  0
  192.5390  174.7780  145.0790 C   0  0  0  0  0  2  0  0  0  0  0  0
  188.8810  176.9140  135.3960 C   0  0  0  0  0  2  0  0  0  0  0  0
  189.6900  175.7160  135.5650 N   0  0  0  0  0  2  0  0  0  0  0  0
  188.9840  174.6580  134.8680 C   0  0  0  0  0  2  0  0  0  0  0  0
  188.1130  173.0440  136.5550 O   0  0  0  0  0  1  0  0  0  0  0  0
  189.0950  173.3880  135.6330 C   0  0  0  0  0  0  0  0  0  0  0  0
  190.0810  172.6280  135.4510 O   0  0  0  0  0  0  0  0  0  0  0  0
  187.4700  176.6060  137.4810 O   0  0  0  0  0  0  0  0  0  0  0  0
  183.5250  174.4620  135.5930 O   0  0  0  0  0  0  0  0  0  0  0  0
  180.9120  176.8530  135.9620 C   0  0  0  0  0  0  0  0  0  0  0  0
  182.3030  174.9280  135.4570 C   0  0  0  0  0  0  0  0  0  0  0  0
  184.1960  175.3800  136.2530 C   0  0  0  0  0  0  0  0  0  0  0  0
  181.2940  174.3090  134.7990 N   0  0  0  0  0  0  0  0  0  0  0  0
  182.1420  176.1670  136.0490 C   0  0  0  0  0  0  0  0  0  0  0  0
  183.3820  176.4450  136.5960 C   0  0  0  0  0  0  0  0  0  0  0  0
  186.0960  176.4910  137.2170 C   0  0  0  0  0  0  0  0  0  0  0  0
  180.1060  174.9510  134.6460 C   0  0  0  0  0  3  0  0  0  0  0  0
  183.8870  177.5490  137.2720 C   0  0  0  0  0  3  0  0  0  0  0  0
  179.8980  176.2220  135.2120 C   0  0  0  0  0  3  0  0  0  0  0  0
  185.5570  175.3710  136.5490 C   0  0  0  0  0  3  0  0  0  0  0  0
  185.2530  177.5570  137.5960 C   0  0  0  0  0  3  0  0  0  0  0  0
  180.5090  180.2940  137.4040 C   0  0  0  0  0  0  0  0  0  0  0  0
  180.8790  179.4990  136.1960 C   0  0  0  0  0  3  0  0  0  0  0  0
  180.0970  179.4520  138.3530 C   0  0  1  0  0  3  0  0  0  0  0  0
  180.5770  178.1130  136.6760 C   0  0  0  0  0  0  0  0  0  0  0  0
  180.1450  178.1060  137.8960 N   0  0  0  0  0  0  0  0  0  0  0  0
  180.6490  181.7240  137.5040 N   0  0  0  0  0  0  0  0  0  0  0  0
  181.7170  182.2860  138.3220 C   0  0  0  0  0  1  0  0  0  0  0  0
  179.8270  182.6480  136.7340 C   0  0  0  0  0  2  0  0  0  0  0  0
  180.6340  183.2360  135.5890 C   0  0  0  0  0  1  0  0  0  0  0  0
  179.8000  179.7870  139.7830 C   0  0  0  0  0  2  0  0  0  0  0  0
  180.8980  179.2540  140.7040 C   0  0  0  0  0  2  0  0  0  0  0  0
  180.4980  179.3790  142.1360 C   0  0  0  0  0  3  0  0  0  0  0  0
  181.3720  179.3020  143.0690 N   0  0  0  0  0  2  0  0  0  0  0  0
  1  4  1  1  0  0  0
  2 28  1  6  0  0  0
  2  3  1  0  0  0  0
  2 34  1  0  0  0  0
  2  1  1  0  0  0  0
  3  1  1  0  0  0  0
  4  5  1  0  0  0  0
  5  8  1  0  0  0  0
  6  5  1  0  0  0  0
  7  6  1  0  0  0  0
  7  5  1  0  0  0  0
  8 10  1  1  0  0  0
  8 11  1  0  0  0  0
 10  9  1  0  0  0  0
 11 12  1  0  0  0  0
 12 13  1  0  0  0  0
 13 15  1  0  0  0  0
 14 24  1  0  0  0  0
 15 14  2  0  0  0  0
 16 18  1  1  0  0  0
 16 20  1  0  0  0  0
 17 20  1  0  0  0  0
 19 22  1  0  0  0  0
 19 21  1  0  0  0  0
 21 14  1  6  0  0  0
 21 17  1  0  0  0  0
 22 16  1  0  0  0  0
 24 23  2  0  0  0  0
 25 27  1  0  0  0  0
 25 24  1  0  0  0  0
 26 27  1  0  0  0  0
 28 29  1  0  0  0  0
 30 29  1  0  0  0  0
 30 32  1  0  0  0  0
 32 31  1  0  0  0  0
 33 32  2  0  0  0  0
 35 38  1  0  0  0  0
 36 40  2  0  0  0  0
 36 51  1  0  0  0  0
 37 35  1  0  0  0  0
 37 40  1  0  0  0  0
 38 46  2  0  0  0  0
 38 41  1  0  0  0  0
 39 37  2  0  0  0  0
 40 41  1  0  0  0  0
 41 44  2  0  0  0  0
 42 34  1  0  0  0  0
 42 47  2  0  0  0  0
 43 39  1  0  0  0  0
 43 45  2  0  0  0  0
 44 47  1  0  0  0  0
 45 36  1  0  0  0  0
 46 42  1  0  0  0  0
 48 53  1  0  0  0  0
 48 50  1  0  0  0  0
 49 51  1  0  0  0  0
 49 48  2  0  0  0  0
 50 57  1  1  0  0  0
 51 52  2  0  0  0  0
 52 50  1  0  0  0  0
 53 54  1  0  0  0  0
 55 53  1  0  0  0  0
 56 55  1  0  0  0  0
 57 58  1  0  0  0  0
 58 59  1  0  0  0  0
 59 60  2  0  0  0  0
M  END
>  <MODEL>
8

>  <REMARK>
 VINA RESULT:      -5.6      3.287     11.074
  Name = 
  23 active torsions:
  status: ('A' for Active; 'I' for Inactive)
    1  A    between atoms: O_2  and  C_18
    2  A    between atoms: O_2  and  C_46
    3  A    between atoms: C_3  and  N_23
    4  A    between atoms: C_4  and  C_9
    5  A    between atoms: C_4  and  C_38
    6  A    between atoms: C_5  and  C_18
    7  A    between atoms: C_5  and  N_33
    8  A    between atoms: C_7  and  N_23
    9  A    between atoms: C_9  and  C_17
   10  A    between atoms: C_11  and  C_36
   11  A    between atoms: C_11  and  C_40
   12  A    between atoms: C_14  and  O_59
   13  A    between atoms: C_15  and  C_25
   14  A    between atoms: C_16  and  C_28
   15  A    between atoms: C_21  and  C_60
   16  A    between atoms: C_28  and  C_45
   17  A    between atoms: C_30  and  C_31
   18  A    between atoms: C_31  and  N_33
   19  A    between atoms: C_38  and  C_60
   20  A    between atoms: C_39  and  O_59
   21  A    between atoms: C_39  and  C_60
   22  A    between atoms: C_43  and  C_45
   23  A    between atoms: C_56  and  N_58
                            x       y       z     vdW  Elec       q    Type
                         _______ _______ _______ _____ _____    ______ ____

>  <TORSDO>
F 23

$$$$
=
 OpenBabel10222417413D

 60 66  0  0  1  0  0  0  0  0999 V2000
  189.7310  178.2160  138.5120 C   0  0  1  0  0  3  0  0  0  0  0  0
  188.5250  178.1260  137.5720 C   0  0  1  0  0  0  0  0  0  0  0  0
  188.8640  179.4450  138.2320 C   0  0  0  0  0  2  0  0  0  0  0  0
  189.3960  177.6140  139.7420 O   0  0  0  0  0  0  0  0  0  0  0  0
  190.4800  176.8370  140.1860 C   0  0  0  0  0  0  0  0  0  0  0  0
  191.7670  177.3230  139.5390 C   0  0  0  0  0  2  0  0  0  0  0  0
  191.1770  175.9770  139.1450 C   0  0  0  0  0  2  0  0  0  0  0  0
  190.5920  176.5030  141.6890 C   0  0  2  0  0  3  0  0  0  0  0  0
  188.4630  175.8520  142.5770 O   0  0  0  0  0  1  0  0  0  0  0  0
  189.3260  176.9360  142.4200 C   0  0  0  0  0  2  0  0  0  0  0  0
  191.8220  177.1420  142.3440 C   0  0  0  0  0  2  0  0  0  0  0  0
  191.6320  178.6280  142.5710 C   0  0  0  0  0  2  0  0  0  0  0  0
  191.7310  178.9120  144.0540 C   0  0  0  0  0  2  0  0  0  0  0  0
  190.1800  177.6860  145.5890 C   0  0  0  0  0  0  0  0  0  0  0  0
  190.4070  178.6600  144.7000 C   0  0  0  0  0  3  0  0  0  0  0  0
  186.1680  178.3710  146.8430 C   0  0  1  0  0  3  0  0  0  0  0  0
  188.6080  178.3500  147.4480 C   0  0  0  0  0  2  0  0  0  0  0  0
  184.7960  177.9190  147.3010 C   0  0  0  0  0  1  0  0  0  0  0  0
  187.8520  178.0130  145.1670 O   0  0  0  0  0  0  0  0  0  0  0  0
  187.1880  178.1320  147.9600 C   0  0  0  0  0  2  0  0  0  0  0  0
  188.7850  177.5830  146.1330 C   0  0  1  0  0  3  0  0  0  0  0  0
  186.5870  177.5810  145.6030 C   0  0  0  0  0  2  0  0  0  0  0  0
  191.6760  175.8400  145.3330 O   0  0  0  0  0  0  0  0  0  0  0  0
  191.2510  176.7730  146.0710 C   0  0  0  0  0  0  0  0  0  0  0  0
  191.8050  176.9510  147.3800 N   0  0  0  0  0  2  0  0  0  0  0  0
  192.0500  174.7480  148.0970 O   0  0  0  0  0  1  0  0  0  0  0  0
  192.7060  175.9740  147.9740 C   0  0  0  0  0  2  0  0  0  0  0  0
  188.8650  177.9930  136.0950 C   0  0  0  0  0  2  0  0  0  0  0  0
  187.9630  177.0450  135.4580 N   0  0  0  0  0  2  0  0  0  0  0  0
  188.4830  175.7280  135.7740 C   0  0  0  0  0  2  0  0  0  0  0  0
  186.4210  174.9680  134.5990 O   0  0  0  0  0  0  0  0  0  0  0  0
  187.7080  174.6900  135.0440 C   0  0  0  0  0  0  0  0  0  0  0  0
  188.2140  173.5570  134.8360 O   0  0  0  0  0  1  0  0  0  0  0  0
  187.4310  177.3450  138.0840 O   0  0  0  0  0  0  0  0  0  0  0  0
  184.6010  178.4530  141.8890 O   0  0  0  0  0  0  0  0  0  0  0  0
  181.4450  179.3030  140.4740 C   0  0  0  0  0  0  0  0  0  0  0  0
  183.3340  178.8050  141.9170 C   0  0  0  0  0  0  0  0  0  0  0  0
  184.9300  178.3660  140.6200 C   0  0  0  0  0  0  0  0  0  0  0  0
  182.5880  178.9690  143.0350 N   0  0  0  0  0  0  0  0  0  0  0  0
  182.8070  178.9750  140.6500 C   0  0  0  0  0  0  0  0  0  0  0  0
  183.8690  178.7140  139.8030 C   0  0  0  0  0  0  0  0  0  0  0  0
  186.2730  177.8510  138.6950 C   0  0  0  0  0  0  0  0  0  0  0  0
  181.2600  179.2360  142.9160 C   0  0  0  0  0  3  0  0  0  0  0  0
  183.9790  178.6630  138.4180 C   0  0  0  0  0  3  0  0  0  0  0  0
  180.6710  179.3980  141.6490 C   0  0  0  0  0  3  0  0  0  0  0  0
  186.1460  177.9300  140.0980 C   0  0  0  0  0  3  0  0  0  0  0  0
  185.2000  178.2430  137.8680 C   0  0  0  0  0  3  0  0  0  0  0  0
  180.2410  179.7840  136.9530 C   0  0  0  0  0  0  0  0  0  0  0  0
  180.8690  178.8390  137.9230 C   0  0  0  0  0  2  0  0  0  0  0  0
  179.9190  180.9040  137.6040 C   0  0  0  0  0  0  0  0  0  0  0  0
  180.8040  179.6520  139.1790 C   0  0  0  0  0  0  0  0  0  0  0  0
  180.2730  180.8150  138.9780 N   0  0  0  0  0  0  0  0  0  0  0  0
  180.0850  179.5140  135.5470 N   0  0  0  0  0  0  0  0  0  0  0  0
  181.0190  180.1040  134.5950 C   0  0  0  0  0  1  0  0  0  0  0  0
  179.0890  178.5840  135.0320 C   0  0  0  0  0  2  0  0  0  0  0  0
  178.9330  177.4080  135.9800 C   0  0  0  0  0  1  0  0  0  0  0  0
  179.4330  182.1860  136.9980 C   0  0  0  0  0  2  0  0  0  0  0  0
  180.6050  183.1140  136.6800 C   0  0  0  0  0  2  0  0  0  0  0  0
  180.3310  184.5000  137.1560 C   0  0  0  0  0  3  0  0  0  0  0  0
  179.7420  185.3490  136.3980 N   0  0  0  0  0  2  0  0  0  0  0  0
  1  4  1  1  0  0  0
  2 28  1  6  0  0  0
  2 34  1  0  0  0  0
  2  3  1  0  0  0  0
  2  1  1  0  0  0  0
  3  1  1  0  0  0  0
  4  5  1  0  0  0  0
  5  8  1  0  0  0  0
  6  5  1  0  0  0  0
  7  6  1  0  0  0  0
  7  5  1  0  0  0  0
  8 11  1  1  0  0  0
  8 10  1  0  0  0  0
 10  9  1  0  0  0  0
 11 12  1  0  0  0  0
 12 13  1  0  0  0  0
 13 15  1  0  0  0  0
 14 24  1  0  0  0  0
 15 14  2  0  0  0  0
 16 18  1  1  0  0  0
 16 20  1  0  0  0  0
 17 20  1  0  0  0  0
 19 22  1  0  0  0  0
 19 21  1  0  0  0  0
 21 14  1  6  0  0  0
 21 17  1  0  0  0  0
 22 16  1  0  0  0  0
 23 24  2  0  0  0  0
 24 25  1  0  0  0  0
 25 27  1  0  0  0  0
 27 26  1  0  0  0  0
 29 30  1  0  0  0  0
 29 28  1  0  0  0  0
 31 32  2  0  0  0  0
 32 30  1  0  0  0  0
 33 32  1  0  0  0  0
 34 42  1  0  0  0  0
 35 37  1  0  0  0  0
 36 40  2  0  0  0  0
 36 45  1  0  0  0  0
 37 39  2  0  0  0  0
 38 35  1  0  0  0  0
 40 37  1  0  0  0  0
 41 38  2  0  0  0  0
 41 40  1  0  0  0  0
 42 46  2  0  0  0  0
 43 39  1  0  0  0  0
 44 41  1  0  0  0  0
 45 43  2  0  0  0  0
 46 38  1  0  0  0  0
 47 44  2  0  0  0  0
 47 42  1  0  0  0  0
 48 50  2  0  0  0  0
 48 49  1  0  0  0  0
 49 51  1  0  0  0  0
 50 52  1  0  0  0  0
 51 36  1  0  0  0  0
 52 51  2  0  0  0  0
 53 48  1  0  0  0  0
 54 53  1  0  0  0  0
 55 53  1  0  0  0  0
 55 56  1  0  0  0  0
 57 50  1  0  0  0  0
 58 57  1  0  0  0  0
 58 59  1  0  0  0  0
 60 59  2  0  0  0  0
M  END
>  <MODEL>
9

>  <REMARK>
 VINA RESULT:      -5.5      3.404     11.434
  Name = 
  23 active torsions:
  status: ('A' for Active; 'I' for Inactive)
    1  A    between atoms: O_2  and  C_18
    2  A    between atoms: O_2  and  C_46
    3  A    between atoms: C_3  and  N_23
    4  A    between atoms: C_4  and  C_9
    5  A    between atoms: C_4  and  C_38
    6  A    between atoms: C_5  and  C_18
    7  A    between atoms: C_5  and  N_33
    8  A    between atoms: C_7  and  N_23
    9  A    between atoms: C_9  and  C_17
   10  A    between atoms: C_11  and  C_36
   11  A    between atoms: C_11  and  C_40
   12  A    between atoms: C_14  and  O_59
   13  A    between atoms: C_15  and  C_25
   14  A    between atoms: C_16  and  C_28
   15  A    between atoms: C_21  and  C_60
   16  A    between atoms: C_28  and  C_45
   17  A    between atoms: C_30  and  C_31
   18  A    between atoms: C_31  and  N_33
   19  A    between atoms: C_38  and  C_60
   20  A    between atoms: C_39  and  O_59
   21  A    between atoms: C_39  and  C_60
   22  A    between atoms: C_43  and  C_45
   23  A    between atoms: C_56  and  N_58
                            x       y       z     vdW  Elec       q    Type
                         _______ _______ _______ _____ _____    ______ ____

>  <TORSDO>
F 23

$$$$
