=
 OpenBabel10222415253D

 47 53  0  0  1  0  0  0  0  0999 V2000
  188.9900  177.6730  142.5390 C   0  0  2  0  0  3  0  0  0  0  0  0
  188.2270  177.7350  139.0050 C   0  0  0  0  0  2  0  0  0  0  0  0
  187.9340  177.5250  141.4580 C   0  0  2  0  0  3  0  0  0  0  0  0
  188.7300  177.7050  140.2400 C   0  0  0  0  0  0  0  0  0  0  0  0
  190.2190  178.1140  141.9910 O   0  0  0  0  0  0  0  0  0  0  0  0
  190.1180  178.0860  140.5860 C   0  0  1  0  0  3  0  0  0  0  0  0
  193.5170  175.5510  136.3080 N   0  0  0  0  0  0  0  0  0  0  0  0
  193.2900  176.2600  138.5020 C   0  0  0  0  0  0  0  0  0  0  0  0
  191.0120  176.9050  138.5800 N   0  0  0  0  0  0  0  0  0  0  0  0
  191.1530  174.9360  136.1800 C   0  0  0  0  0  1  0  0  0  0  0  0
  192.6110  177.5480  140.4030 C   0  0  0  0  0  2  0  0  0  0  0  0
  193.6120  176.7720  139.6470 N   0  0  0  0  0  0  0  0  0  0  0  0
  191.1690  177.1320  140.0280 C   0  0  1  0  0  3  0  0  0  0  0  0
  192.0210  176.4200  137.9260 C   0  0  0  0  0  0  0  0  0  0  0  0
  192.1280  176.0500  136.4900 C   0  0  1  0  0  3  0  0  0  0  0  0
  194.1750  175.7370  137.5450 N   0  0  0  0  0  2  0  0  0  0  0  0
  194.1710  176.4270  135.3510 C   0  0  0  0  0  2  0  0  0  0  0  0
  195.4830  175.8170  134.9070 C   0  0  0  0  0  2  0  0  0  0  0  0
  196.5470  176.4290  135.5780 O   0  0  0  0  0  0  0  0  0  0  0  0
  198.9250  175.1170  135.0140 O   0  0  0  0  0  0  0  0  0  0  0  0
  198.0910  175.3820  137.6300 O   0  0  0  0  0  1  0  0  0  0  0  0
  196.8250  173.8500  135.9350 O   0  0  0  0  0  1  0  0  0  0  0  0
  197.5750  175.1580  136.0330 P   0  0  0  0  0  0  0  0  0  0  0  0
  189.1720  176.4020  143.2230 N   0  0  0  0  0  2  0  0  0  0  0  0
  189.3020  176.6570  144.6470 C   0  0  1  0  0  3  0  0  0  0  0  0
  190.7710  176.7430  145.0550 C   0  0  0  0  0  2  0  0  0  0  0  0
  190.8980  177.0140  146.4780 N   0  0  0  0  0  2  0  0  0  0  0  0
  192.6860  175.8210  147.8730 N   0  0  0  0  0  0  0  0  0  0  0  0
  191.8760  176.3580  147.2430 C   0  0  0  0  0  0  0  0  0  0  0  0
  188.5810  177.9480  144.9860 C   0  0  0  0  0  2  0  0  0  0  0  0
  186.2630  178.6340  145.5340 C   0  0  0  0  0  2  0  0  0  0  0  0
  187.3900  177.6760  145.8780 C   0  0  0  0  0  3  0  0  0  0  0  0
  186.2390  177.2080  145.0120 C   0  0  0  0  0  2  0  0  0  0  0  0
  186.9020  178.6460  141.5850 C   0  0  0  0  0  2  0  0  0  0  0  0
  186.2400  178.8890  140.3150 N   0  0  0  0  0  2  0  0  0  0  0  0
  182.8800  179.0740  141.4650 O   0  0  0  0  0  0  0  0  0  0  0  0
  184.9070  178.3080  140.3930 C   0  0  1  0  0  3  0  0  0  0  0  0
  182.1000  176.8440  138.5370 C   0  0  0  0  0  2  0  0  0  0  0  0
  182.6460  178.7360  140.1250 C   0  0  2  0  0  0  0  0  0  0  0  0
  184.2260  178.6870  141.7120 C   0  0  0  0  0  2  0  0  0  0  0  0
  181.6830  179.2100  137.8800 C   0  0  0  0  0  2  0  0  0  0  0  0
  183.9680  178.2670  138.1090 O   0  0  0  0  0  0  0  0  0  0  0  0
  181.6160  179.5930  139.3870 C   0  0  0  0  0  2  0  0  0  0  0  0
  184.2640  180.2680  139.2100 O   0  0  0  0  0  1  0  0  0  0  0  0
  182.6350  177.9880  137.6700 C   0  0  1  0  0  3  0  0  0  0  0  0
  182.1650  177.2700  140.0150 C   0  0  0  0  0  2  0  0  0  0  0  0
  183.9690  178.9100  139.3830 C   0  0  2  0  0  0  0  0  0  0  0  0
  1 24  1  6  0  0  0
  2  4  2  0  0  0  0
  3 34  1  1  0  0  0
  3  1  1  0  0  0  0
  4  3  1  0  0  0  0
  5  1  1  0  0  0  0
  6  4  1  1  0  0  0
  6  5  1  0  0  0  0
  7 15  1  0  0  0  0
  7 16  1  0  0  0  0
  8 12  2  0  0  0  0
  9 13  1  0  0  0  0
 12 11  1  0  0  0  0
 13 11  1  6  0  0  0
 13  6  1  0  0  0  0
 14  8  1  0  0  0  0
 14  9  2  0  0  0  0
 15 10  1  1  0  0  0
 15 14  1  0  0  0  0
 16  8  1  0  0  0  0
 17  7  1  0  0  0  0
 18 17  1  0  0  0  0
 18 19  1  0  0  0  0
 19 23  1  0  0  0  0
 20 23  2  0  0  0  0
 22 23  1  0  0  0  0
 23 21  1  0  0  0  0
 24 25  1  0  0  0  0
 25 30  1  6  0  0  0
 25 26  1  0  0  0  0
 26 27  1  0  0  0  0
 27 29  1  0  0  0  0
 29 28  3  0  0  0  0
 30 32  1  0  0  0  0
 31 32  1  0  0  0  0
 33 31  1  0  0  0  0
 33 32  1  0  0  0  0
 35 34  1  0  0  0  0
 36 40  1  0  0  0  0
 37 35  1  1  0  0  0
 37 40  1  0  0  0  0
 38 46  1  0  0  0  0
 39 43  1  6  0  0  0
 39 36  1  0  0  0  0
 41 43  1  0  0  0  0
 42 47  1  0  0  0  0
 45 41  1  1  0  0  0
 45 42  1  0  0  0  0
 45 38  1  0  0  0  0
 46 39  1  0  0  0  0
 47 44  1  6  0  0  0
 47 39  1  0  0  0  0
 47 37  1  0  0  0  0
M  END
>  <MODEL>
1

>  <REMARK>
 VINA RESULT:      -8.0      0.000      0.000
  Name = 
  15 active torsions:
  status: ('A' for Active; 'I' for Inactive)
    1  A    between atoms: C_1  and  N_5
    2  A    between atoms: C_1  and  C_10
    3  A    between atoms: N_3  and  C_14
    4  A    between atoms: N_3  and  C_17
    5  A    between atoms: C_4  and  N_7
    6  A    between atoms: N_5  and  C_38
    7  A    between atoms: N_7  and  C_10
    8  A    between atoms: N_8  and  C_22
    9  A    between atoms: C_10  and  C_47
   10  A    between atoms: C_14  and  C_18
   11  A    between atoms: C_22  and  C_45
   12  A    between atoms: O_24  and  C_45
   13  A    between atoms: O_24  and  P_46
   14  A    between atoms: C_33  and  C_36
   15  A    between atoms: C_34  and  C_47
                            x       y       z     vdW  Elec       q    Type
                         _______ _______ _______ _____ _____    ______ ____

>  <TORSDO>
F 15

$$$$
=
 OpenBabel10222415253D

 47 53  0  0  1  0  0  0  0  0999 V2000
  188.4820  178.4680  137.7830 C   0  0  2  0  0  3  0  0  0  0  0  0
  186.6970  175.4270  136.9820 C   0  0  0  0  0  2  0  0  0  0  0  0
  187.3180  177.5470  138.1070 C   0  0  2  0  0  3  0  0  0  0  0  0
  187.5230  176.4620  137.1430 C   0  0  0  0  0  0  0  0  0  0  0  0
  189.1470  178.0510  136.6050 O   0  0  0  0  0  0  0  0  0  0  0  0
  188.6310  176.7980  136.2190 C   0  0  1  0  0  3  0  0  0  0  0  0
  194.1840  174.7360  137.3110 N   0  0  0  0  0  0  0  0  0  0  0  0
  191.9100  174.3240  137.1510 C   0  0  0  0  0  0  0  0  0  0  0  0
  191.0880  176.3920  136.3390 N   0  0  0  0  0  0  0  0  0  0  0  0
  194.0870  176.4020  135.5230 C   0  0  0  0  0  1  0  0  0  0  0  0
  189.5400  174.6490  137.2640 C   0  0  0  0  0  2  0  0  0  0  0  0
  190.7490  173.8210  137.4290 N   0  0  0  0  0  0  0  0  0  0  0  0
  189.7580  175.7700  136.2210 C   0  0  1  0  0  3  0  0  0  0  0  0
  192.0810  175.6440  136.7090 C   0  0  0  0  0  0  0  0  0  0  0  0
  193.5190  175.9880  136.8630 C   0  0  1  0  0  3  0  0  0  0  0  0
  193.1580  173.7820  137.5010 N   0  0  0  0  0  2  0  0  0  0  0  0
  194.7610  174.9950  138.6190 C   0  0  0  0  0  2  0  0  0  0  0  0
  195.9800  174.1230  138.8260 C   0  0  0  0  0  2  0  0  0  0  0  0
  196.5180  173.7500  137.5890 O   0  0  0  0  0  0  0  0  0  0  0  0
  199.1800  173.7840  136.8120 O   0  0  0  0  0  1  0  0  0  0  0  0
  197.5720  175.9640  136.2940 O   0  0  0  0  0  0  0  0  0  0  0  0
  198.2730  175.3250  138.7270 O   0  0  0  0  0  1  0  0  0  0  0  0
  197.8960  174.7200  137.3950 P   0  0  0  0  0  0  0  0  0  0  0  0
  189.4120  178.4940  138.9030 N   0  0  0  0  0  2  0  0  0  0  0  0
  189.0000  177.4910  139.8690 C   0  0  1  0  0  3  0  0  0  0  0  0
  190.1700  176.5840  140.2460 C   0  0  0  0  0  2  0  0  0  0  0  0
  191.3120  177.3680  140.6880 N   0  0  0  0  0  2  0  0  0  0  0  0
  191.9740  177.4100  143.1630 N   0  0  0  0  0  0  0  0  0  0  0  0
  191.6740  177.3940  142.0440 C   0  0  0  0  0  0  0  0  0  0  0  0
  188.4490  178.1860  141.0990 C   0  0  0  0  0  2  0  0  0  0  0  0
  188.3810  177.7150  143.5310 C   0  0  0  0  0  2  0  0  0  0  0  0
  188.0520  177.1740  142.1510 C   0  0  0  0  0  3  0  0  0  0  0  0
  186.9580  177.7760  143.0080 C   0  0  0  0  0  2  0  0  0  0  0  0
  185.9970  178.2640  137.8230 C   0  0  0  0  0  2  0  0  0  0  0  0
  185.5250  178.9660  139.0030 N   0  0  0  0  0  2  0  0  0  0  0  0
  182.7680  178.8280  141.2460 O   0  0  0  0  0  0  0  0  0  0  0  0
  184.2630  178.3590  139.4040 C   0  0  1  0  0  3  0  0  0  0  0  0
  180.9110  177.3010  138.3520 C   0  0  0  0  0  2  0  0  0  0  0  0
  182.0750  178.7960  140.0270 C   0  0  2  0  0  0  0  0  0  0  0  0
  184.0920  178.4190  140.9260 C   0  0  0  0  0  2  0  0  0  0  0  0
  180.4410  179.7470  138.4090 C   0  0  0  0  0  2  0  0  0  0  0  0
  182.6080  178.8170  137.6300 O   0  0  0  0  0  0  0  0  0  0  0  0
  180.9110  179.7790  139.8930 C   0  0  0  0  0  2  0  0  0  0  0  0
  183.3800  180.5230  138.9700 O   0  0  0  0  0  1  0  0  0  0  0  0
  181.1910  178.6200  137.6250 C   0  0  1  0  0  3  0  0  0  0  0  0
  181.4970  177.3840  139.7730 C   0  0  0  0  0  2  0  0  0  0  0  0
  183.0780  179.1570  138.9340 C   0  0  2  0  0  0  0  0  0  0  0  0
  1  3  1  0  0  0  0
  1 24  1  1  0  0  0
  2  4  2  0  0  0  0
  3 34  1  6  0  0  0
  4  3  1  0  0  0  0
  5  1  1  0  0  0  0
  6 13  1  0  0  0  0
  6  5  1  1  0  0  0
  6  4  1  0  0  0  0
  7 16  1  0  0  0  0
  7 17  1  0  0  0  0
  8 12  2  0  0  0  0
  8 16  1  0  0  0  0
  9 14  2  0  0  0  0
 11 12  1  0  0  0  0
 13  9  1  0  0  0  0
 13 11  1  1  0  0  0
 14 15  1  0  0  0  0
 14  8  1  0  0  0  0
 15 10  1  6  0  0  0
 15  7  1  0  0  0  0
 17 18  1  0  0  0  0
 19 18  1  0  0  0  0
 20 23  1  0  0  0  0
 21 23  2  0  0  0  0
 23 19  1  0  0  0  0
 23 22  1  0  0  0  0
 24 25  1  0  0  0  0
 25 26  1  1  0  0  0
 25 30  1  0  0  0  0
 26 27  1  0  0  0  0
 27 29  1  0  0  0  0
 29 28  3  0  0  0  0
 30 32  1  0  0  0  0
 32 33  1  0  0  0  0
 32 31  1  0  0  0  0
 33 31  1  0  0  0  0
 34 35  1  0  0  0  0
 37 35  1  1  0  0  0
 37 40  1  0  0  0  0
 38 46  1  0  0  0  0
 39 46  1  6  0  0  0
 39 36  1  0  0  0  0
 40 36  1  0  0  0  0
 41 43  1  0  0  0  0
 42 47  1  0  0  0  0
 43 39  1  0  0  0  0
 45 42  1  0  0  0  0
 45 38  1  1  0  0  0
 45 41  1  0  0  0  0
 47 44  1  1  0  0  0
 47 37  1  0  0  0  0
 47 39  1  0  0  0  0
M  END
>  <MODEL>
2

>  <REMARK>
 VINA RESULT:      -7.7      2.071      3.304
  Name = 
  15 active torsions:
  status: ('A' for Active; 'I' for Inactive)
    1  A    between atoms: C_1  and  N_5
    2  A    between atoms: C_1  and  C_10
    3  A    between atoms: N_3  and  C_14
    4  A    between atoms: N_3  and  C_17
    5  A    between atoms: C_4  and  N_7
    6  A    between atoms: N_5  and  C_38
    7  A    between atoms: N_7  and  C_10
    8  A    between atoms: N_8  and  C_22
    9  A    between atoms: C_10  and  C_47
   10  A    between atoms: C_14  and  C_18
   11  A    between atoms: C_22  and  C_45
   12  A    between atoms: O_24  and  C_45
   13  A    between atoms: O_24  and  P_46
   14  A    between atoms: C_33  and  C_36
   15  A    between atoms: C_34  and  C_47
                            x       y       z     vdW  Elec       q    Type
                         _______ _______ _______ _____ _____    ______ ____

>  <TORSDO>
F 15

$$$$
=
 OpenBabel10222415253D

 47 53  0  0  1  0  0  0  0  0999 V2000
  186.7860  178.6400  141.1780 C   0  0  2  0  0  3  0  0  0  0  0  0
  183.4360  178.0590  142.4090 C   0  0  0  0  0  2  0  0  0  0  0  0
  185.9060  177.9660  142.2160 C   0  0  2  0  0  3  0  0  0  0  0  0
  184.5670  178.3530  141.7650 C   0  0  0  0  0  0  0  0  0  0  0  0
  186.0270  179.5050  140.3530 O   0  0  0  0  0  0  0  0  0  0  0  0
  184.6610  179.3120  140.6390 C   0  0  1  0  0  3  0  0  0  0  0  0
  181.5240  175.4850  137.2060 N   0  0  0  0  0  0  0  0  0  0  0  0
  182.0060  177.6670  137.8140 C   0  0  0  0  0  0  0  0  0  0  0  0
  183.8110  177.3750  139.3200 N   0  0  0  0  0  0  0  0  0  0  0  0
  183.8320  174.7810  137.6080 C   0  0  0  0  0  1  0  0  0  0  0  0
  182.5980  179.5630  139.1510 C   0  0  0  0  0  2  0  0  0  0  0  0
  181.8110  178.9190  138.0830 N   0  0  0  0  0  0  0  0  0  0  0  0
  183.9470  178.8410  139.3770 C   0  0  1  0  0  3  0  0  0  0  0  0
  182.9320  176.8740  138.5080 C   0  0  0  0  0  0  0  0  0  0  0  0
  182.6180  175.4520  138.2120 C   0  0  1  0  0  3  0  0  0  0  0  0
  181.1760  176.8440  137.0350 N   0  0  0  0  0  2  0  0  0  0  0  0
  180.3700  174.8290  137.7980 C   0  0  0  0  0  2  0  0  0  0  0  0
  179.8240  173.7880  136.8450 C   0  0  0  0  0  2  0  0  0  0  0  0
  180.8160  173.4060  135.9340 O   0  0  0  0  0  0  0  0  0  0  0  0
  182.4190  171.5600  137.2440 O   0  0  0  0  0  1  0  0  0  0  0  0
  179.7150  171.0860  136.9820 O   0  0  0  0  0  1  0  0  0  0  0  0
  181.3200  171.0440  134.9220 O   0  0  0  0  0  0  0  0  0  0  0  0
  181.0780  171.7560  136.2320 P   0  0  0  0  0  0  0  0  0  0  0  0
  187.4510  177.6290  140.3690 N   0  0  0  0  0  2  0  0  0  0  0  0
  187.7980  178.2170  139.0880 C   0  0  1  0  0  3  0  0  0  0  0  0
  189.3130  178.3450  138.9380 C   0  0  0  0  0  2  0  0  0  0  0  0
  189.9950  177.2660  139.6350 N   0  0  0  0  0  2  0  0  0  0  0  0
  191.0470  175.3330  138.3230 N   0  0  0  0  0  0  0  0  0  0  0  0
  190.5740  176.2080  138.9160 C   0  0  0  0  0  0  0  0  0  0  0  0
  187.2260  177.3590  137.9760 C   0  0  0  0  0  2  0  0  0  0  0  0
  187.2120  177.7230  135.5250 C   0  0  0  0  0  2  0  0  0  0  0  0
  186.6850  178.2220  136.8590 C   0  0  0  0  0  3  0  0  0  0  0  0
  185.8060  177.3650  135.9720 C   0  0  0  0  0  2  0  0  0  0  0  0
  186.1900  178.5570  143.5980 C   0  0  0  0  0  2  0  0  0  0  0  0
  186.6670  177.5340  144.5120 N   0  0  0  0  0  2  0  0  0  0  0  0
  189.6320  176.7790  146.3240 O   0  0  0  0  0  0  0  0  0  0  0  0
  188.0010  177.9190  144.9500 C   0  0  1  0  0  3  0  0  0  0  0  0
  191.3010  179.1750  143.9510 C   0  0  0  0  0  2  0  0  0  0  0  0
  190.2030  177.2200  145.1210 C   0  0  2  0  0  0  0  0  0  0  0  0
  188.3150  177.3160  146.3230 C   0  0  0  0  0  2  0  0  0  0  0  0
  191.6000  176.8560  143.0940 C   0  0  0  0  0  2  0  0  0  0  0  0
  189.4380  178.0690  142.9480 O   0  0  0  0  0  0  0  0  0  0  0  0
  191.2760  176.3130  144.5170 C   0  0  0  0  0  2  0  0  0  0  0  0
  188.6820  176.0230  143.6860 O   0  0  0  0  0  1  0  0  0  0  0  0
  190.8590  178.2100  142.8460 C   0  0  1  0  0  3  0  0  0  0  0  0
  190.8520  178.6110  145.3110 C   0  0  0  0  0  2  0  0  0  0  0  0
  189.0750  177.3040  144.0960 C   0  0  2  0  0  0  0  0  0  0  0  0
  1 24  1  6  0  0  0
  1  3  1  0  0  0  0
  3 34  1  1  0  0  0
  4  3  1  0  0  0  0
  4  2  2  0  0  0  0
  5  1  1  0  0  0  0
  6  5  1  6  0  0  0
  6  4  1  0  0  0  0
  7 17  1  0  0  0  0
  7 15  1  0  0  0  0
  8 12  2  0  0  0  0
  8 14  1  0  0  0  0
  9 13  1  0  0  0  0
 12 11  1  0  0  0  0
 13 11  1  1  0  0  0
 13  6  1  0  0  0  0
 14  9  2  0  0  0  0
 15 10  1  6  0  0  0
 15 14  1  0  0  0  0
 16  7  1  0  0  0  0
 16  8  1  0  0  0  0
 18 17  1  0  0  0  0
 19 23  1  0  0  0  0
 19 18  1  0  0  0  0
 22 23  2  0  0  0  0
 23 21  1  0  0  0  0
 23 20  1  0  0  0  0
 25 30  1  6  0  0  0
 25 24  1  0  0  0  0
 26 25  1  0  0  0  0
 26 27  1  0  0  0  0
 28 29  3  0  0  0  0
 29 27  1  0  0  0  0
 31 33  1  0  0  0  0
 31 32  1  0  0  0  0
 32 30  1  0  0  0  0
 33 32  1  0  0  0  0
 34 35  1  0  0  0  0
 37 35  1  6  0  0  0
 37 40  1  0  0  0  0
 38 46  1  0  0  0  0
 39 43  1  6  0  0  0
 39 46  1  0  0  0  0
 39 36  1  0  0  0  0
 40 36  1  0  0  0  0
 41 43  1  0  0  0  0
 42 47  1  0  0  0  0
 45 42  1  0  0  0  0
 45 41  1  1  0  0  0
 45 38  1  0  0  0  0
 47 44  1  6  0  0  0
 47 37  1  0  0  0  0
 47 39  1  0  0  0  0
M  END
>  <MODEL>
3

>  <REMARK>
 VINA RESULT:      -7.7      4.788      9.961
  Name = 
  15 active torsions:
  status: ('A' for Active; 'I' for Inactive)
    1  A    between atoms: C_1  and  N_5
    2  A    between atoms: C_1  and  C_10
    3  A    between atoms: N_3  and  C_14
    4  A    between atoms: N_3  and  C_17
    5  A    between atoms: C_4  and  N_7
    6  A    between atoms: N_5  and  C_38
    7  A    between atoms: N_7  and  C_10
    8  A    between atoms: N_8  and  C_22
    9  A    between atoms: C_10  and  C_47
   10  A    between atoms: C_14  and  C_18
   11  A    between atoms: C_22  and  C_45
   12  A    between atoms: O_24  and  C_45
   13  A    between atoms: O_24  and  P_46
   14  A    between atoms: C_33  and  C_36
   15  A    between atoms: C_34  and  C_47
                            x       y       z     vdW  Elec       q    Type
                         _______ _______ _______ _____ _____    ______ ____

>  <TORSDO>
F 15

$$$$
=
 OpenBabel10222415253D

 47 53  0  0  1  0  0  0  0  0999 V2000
  188.3390  177.9780  138.9450 C   0  0  2  0  0  3  0  0  0  0  0  0
  186.8860  176.3570  136.0580 C   0  0  0  0  0  2  0  0  0  0  0  0
  187.1010  177.3670  138.3120 C   0  0  2  0  0  3  0  0  0  0  0  0
  187.6250  176.9070  137.0220 C   0  0  0  0  0  0  0  0  0  0  0  0
  189.4020  178.0530  138.0120 O   0  0  0  0  0  0  0  0  0  0  0  0
  189.0260  177.3550  136.8470 C   0  0  1  0  0  3  0  0  0  0  0  0
  194.3030  174.4770  137.2200 N   0  0  0  0  0  0  0  0  0  0  0  0
  191.9900  174.3790  137.1540 C   0  0  0  0  0  0  0  0  0  0  0  0
  191.4110  176.6370  136.7350 N   0  0  0  0  0  0  0  0  0  0  0  0
  194.3430  176.4140  135.7270 C   0  0  0  0  0  1  0  0  0  0  0  0
  189.6920  174.9680  137.4780 C   0  0  0  0  0  2  0  0  0  0  0  0
  190.7880  173.9830  137.4270 N   0  0  0  0  0  0  0  0  0  0  0  0
  190.0060  176.2110  136.6110 C   0  0  1  0  0  3  0  0  0  0  0  0
  192.3130  175.7230  136.9130 C   0  0  0  0  0  0  0  0  0  0  0  0
  193.7890  175.8580  137.0210 C   0  0  1  0  0  3  0  0  0  0  0  0
  193.1710  173.6380  137.3270 N   0  0  0  0  0  2  0  0  0  0  0  0
  194.9710  174.4450  138.5100 C   0  0  0  0  0  2  0  0  0  0  0  0
  196.3990  173.9710  138.3400 C   0  0  0  0  0  2  0  0  0  0  0  0
  196.6760  173.7680  136.9830 O   0  0  0  0  0  0  0  0  0  0  0  0
  199.0120  174.7770  138.0880 O   0  0  0  0  0  1  0  0  0  0  0  0
  198.9930  173.9150  135.4670 O   0  0  0  0  0  0  0  0  0  0  0  0
  197.6960  176.0540  136.2170 O   0  0  0  0  0  1  0  0  0  0  0  0
  198.0810  174.6690  136.6790 P   0  0  0  0  0  0  0  0  0  0  0  0
  188.7390  177.1880  140.1000 N   0  0  0  0  0  2  0  0  0  0  0  0
  188.9320  178.0820  141.2270 C   0  0  1  0  0  3  0  0  0  0  0  0
  187.5970  178.4300  141.8830 C   0  0  0  0  0  2  0  0  0  0  0  0
  187.1790  177.3780  142.7960 N   0  0  0  0  0  2  0  0  0  0  0  0
  186.0190  177.9580  145.0060 N   0  0  0  0  0  0  0  0  0  0  0  0
  186.5450  177.6970  144.0070 C   0  0  0  0  0  0  0  0  0  0  0  0
  189.8590  177.4220  142.2300 C   0  0  0  0  0  2  0  0  0  0  0  0
  190.2660  178.1180  144.5730 C   0  0  0  0  0  2  0  0  0  0  0  0
  190.5140  178.4590  143.1150 C   0  0  0  0  0  3  0  0  0  0  0  0
  191.5980  177.7820  143.9270 C   0  0  0  0  0  2  0  0  0  0  0  0
  186.0420  178.4490  138.0970 C   0  0  0  0  0  2  0  0  0  0  0  0
  185.5770  178.9790  139.3660 N   0  0  0  0  0  2  0  0  0  0  0  0
  182.6380  178.8030  141.3610 O   0  0  0  0  0  0  0  0  0  0  0  0
  184.3070  178.3370  139.6750 C   0  0  1  0  0  3  0  0  0  0  0  0
  181.1000  177.1240  138.3660 C   0  0  0  0  0  2  0  0  0  0  0  0
  182.0580  178.7100  140.0880 C   0  0  2  0  0  0  0  0  0  0  0  0
  183.9980  178.4350  141.1730 C   0  0  0  0  0  2  0  0  0  0  0  0
  180.5420  179.5510  138.3020 C   0  0  0  0  0  2  0  0  0  0  0  0
  182.8010  178.6810  137.7480 O   0  0  0  0  0  0  0  0  0  0  0  0
  180.8770  179.6450  139.8200 C   0  0  0  0  0  2  0  0  0  0  0  0
  183.3910  180.4530  139.0940 O   0  0  0  0  0  1  0  0  0  0  0  0
  181.3970  178.4310  137.6240 C   0  0  1  0  0  3  0  0  0  0  0  0
  181.5540  177.2700  139.8300 C   0  0  0  0  0  2  0  0  0  0  0  0
  183.1410  179.0750  139.0760 C   0  0  2  0  0  0  0  0  0  0  0  0
  1 24  1  1  0  0  0
  2  4  2  0  0  0  0
  3 34  1  6  0  0  0
  3  1  1  0  0  0  0
  4  3  1  0  0  0  0
  5  1  1  0  0  0  0
  6  4  1  1  0  0  0
  6  5  1  0  0  0  0
  7 16  1  0  0  0  0
  7 17  1  0  0  0  0
  8 16  1  0  0  0  0
  8 12  2  0  0  0  0
  9 14  2  0  0  0  0
 12 11  1  0  0  0  0
 13  9  1  0  0  0  0
 13  6  1  0  0  0  0
 13 11  1  1  0  0  0
 14 15  1  0  0  0  0
 14  8  1  0  0  0  0
 15 10  1  6  0  0  0
 15  7  1  0  0  0  0
 18 17  1  0  0  0  0
 19 18  1  0  0  0  0
 21 23  2  0  0  0  0
 22 23  1  0  0  0  0
 23 19  1  0  0  0  0
 23 20  1  0  0  0  0
 24 25  1  0  0  0  0
 25 26  1  1  0  0  0
 25 30  1  0  0  0  0
 26 27  1  0  0  0  0
 27 29  1  0  0  0  0
 29 28  3  0  0  0  0
 30 32  1  0  0  0  0
 32 33  1  0  0  0  0
 32 31  1  0  0  0  0
 33 31  1  0  0  0  0
 34 35  1  0  0  0  0
 37 35  1  1  0  0  0
 37 40  1  0  0  0  0
 38 46  1  0  0  0  0
 39 43  1  6  0  0  0
 39 36  1  0  0  0  0
 40 36  1  0  0  0  0
 41 43  1  0  0  0  0
 42 47  1  0  0  0  0
 45 42  1  0  0  0  0
 45 41  1  1  0  0  0
 45 38  1  0  0  0  0
 46 39  1  0  0  0  0
 47 44  1  1  0  0  0
 47 37  1  0  0  0  0
 47 39  1  0  0  0  0
M  END
>  <MODEL>
4

>  <REMARK>
 VINA RESULT:      -7.7      2.091      3.298
  Name = 
  15 active torsions:
  status: ('A' for Active; 'I' for Inactive)
    1  A    between atoms: C_1  and  N_5
    2  A    between atoms: C_1  and  C_10
    3  A    between atoms: N_3  and  C_14
    4  A    between atoms: N_3  and  C_17
    5  A    between atoms: C_4  and  N_7
    6  A    between atoms: N_5  and  C_38
    7  A    between atoms: N_7  and  C_10
    8  A    between atoms: N_8  and  C_22
    9  A    between atoms: C_10  and  C_47
   10  A    between atoms: C_14  and  C_18
   11  A    between atoms: C_22  and  C_45
   12  A    between atoms: O_24  and  C_45
   13  A    between atoms: O_24  and  P_46
   14  A    between atoms: C_33  and  C_36
   15  A    between atoms: C_34  and  C_47
                            x       y       z     vdW  Elec       q    Type
                         _______ _______ _______ _____ _____    ______ ____

>  <TORSDO>
F 15

$$$$
=
 OpenBabel10222415253D

 47 53  0  0  1  0  0  0  0  0999 V2000
  188.2750  178.2210  141.8510 C   0  0  2  0  0  3  0  0  0  0  0  0
  187.6330  177.6180  138.3440 C   0  0  0  0  0  2  0  0  0  0  0  0
  187.2600  177.8490  140.7840 C   0  0  2  0  0  3  0  0  0  0  0  0
  188.0930  177.8270  139.5790 C   0  0  0  0  0  0  0  0  0  0  0  0
  189.5130  178.5890  141.2690 O   0  0  0  0  0  0  0  0  0  0  0  0
  189.4610  178.3040  139.8900 C   0  0  1  0  0  3  0  0  0  0  0  0
  193.5070  175.5740  136.3610 N   0  0  0  0  0  0  0  0  0  0  0  0
  192.8850  176.3040  138.4690 C   0  0  0  0  0  0  0  0  0  0  0  0
  190.6730  177.0680  138.0950 N   0  0  0  0  0  0  0  0  0  0  0  0
  191.1870  175.0810  135.7610 C   0  0  0  0  0  1  0  0  0  0  0  0
  191.9090  177.6360  140.2030 C   0  0  0  0  0  2  0  0  0  0  0  0
  192.9980  176.8050  139.6580 N   0  0  0  0  0  0  0  0  0  0  0  0
  190.5500  177.2930  139.5470 C   0  0  1  0  0  3  0  0  0  0  0  0
  191.7660  176.5280  137.6520 C   0  0  0  0  0  0  0  0  0  0  0  0
  192.1370  176.1450  136.2650 C   0  0  1  0  0  3  0  0  0  0  0  0
  193.9140  175.7310  137.7050 N   0  0  0  0  0  2  0  0  0  0  0  0
  194.3830  176.4100  135.5570 C   0  0  0  0  0  2  0  0  0  0  0  0
  195.6600  175.6630  135.2410 C   0  0  0  0  0  2  0  0  0  0  0  0
  196.7560  176.3330  135.7960 O   0  0  0  0  0  0  0  0  0  0  0  0
  197.9650  175.3350  138.0850 O   0  0  0  0  0  1  0  0  0  0  0  0
  197.0400  173.5970  136.1530 O   0  0  0  0  0  1  0  0  0  0  0  0
  199.0940  175.1540  135.7270 O   0  0  0  0  0  0  0  0  0  0  0  0
  197.7530  175.1100  136.4210 P   0  0  0  0  0  0  0  0  0  0  0  0
  188.4620  177.1010  142.7610 N   0  0  0  0  0  2  0  0  0  0  0  0
  188.2010  177.5560  144.1150 C   0  0  1  0  0  3  0  0  0  0  0  0
  186.7310  177.3640  144.4830 C   0  0  0  0  0  2  0  0  0  0  0  0
  186.2840  178.4080  145.3910 N   0  0  0  0  0  2  0  0  0  0  0  0
  183.8060  179.0500  145.5070 N   0  0  0  0  0  0  0  0  0  0  0  0
  184.9270  178.7620  145.4550 C   0  0  0  0  0  0  0  0  0  0  0  0
  189.0930  176.7930  145.0750 C   0  0  0  0  0  2  0  0  0  0  0  0
  189.2970  177.0860  147.5270 C   0  0  0  0  0  2  0  0  0  0  0  0
  189.5980  177.7020  146.1730 C   0  0  0  0  0  3  0  0  0  0  0  0
  190.6900  176.9770  146.9330 C   0  0  0  0  0  2  0  0  0  0  0  0
  186.2000  178.9460  140.6740 C   0  0  0  0  0  2  0  0  0  0  0  0
  185.4410  178.8120  139.4430 N   0  0  0  0  0  2  0  0  0  0  0  0
  182.4960  178.9880  141.4290 O   0  0  0  0  0  0  0  0  0  0  0  0
  184.1280  178.2860  139.7890 C   0  0  1  0  0  3  0  0  0  0  0  0
  180.8420  177.2170  138.5510 C   0  0  0  0  0  2  0  0  0  0  0  0
  181.9110  178.8470  140.1630 C   0  0  2  0  0  0  0  0  0  0  0  0
  183.8270  178.5110  141.2740 C   0  0  0  0  0  2  0  0  0  0  0  0
  180.4610  179.6670  138.3140 C   0  0  0  0  0  2  0  0  0  0  0  0
  182.6510  178.6000  137.8340 O   0  0  0  0  0  0  0  0  0  0  0  0
  180.8000  179.8430  139.8230 C   0  0  0  0  0  2  0  0  0  0  0  0
  183.3660  180.4160  139.0560 O   0  0  0  0  0  1  0  0  0  0  0  0
  181.2330  178.4440  137.7210 C   0  0  1  0  0  3  0  0  0  0  0  0
  181.3050  177.4330  140.0030 C   0  0  0  0  0  2  0  0  0  0  0  0
  183.0180  179.0620  139.1340 C   0  0  2  0  0  0  0  0  0  0  0  0
  1 24  1  1  0  0  0
  2  4  2  0  0  0  0
  3 34  1  6  0  0  0
  3  1  1  0  0  0  0
  4  3  1  0  0  0  0
  5  1  1  0  0  0  0
  6  4  1  1  0  0  0
  6  5  1  0  0  0  0
  7 16  1  0  0  0  0
  8 12  2  0  0  0  0
  9 13  1  0  0  0  0
 12 11  1  0  0  0  0
 13  6  1  0  0  0  0
 13 11  1  6  0  0  0
 14  9  2  0  0  0  0
 14  8  1  0  0  0  0
 15 10  1  1  0  0  0
 15  7  1  0  0  0  0
 15 14  1  0  0  0  0
 16  8  1  0  0  0  0
 17  7  1  0  0  0  0
 18 17  1  0  0  0  0
 18 19  1  0  0  0  0
 19 23  1  0  0  0  0
 21 23  1  0  0  0  0
 22 23  2  0  0  0  0
 23 20  1  0  0  0  0
 24 25  1  0  0  0  0
 25 26  1  1  0  0  0
 25 30  1  0  0  0  0
 26 27  1  0  0  0  0
 27 29  1  0  0  0  0
 29 28  3  0  0  0  0
 30 32  1  0  0  0  0
 32 33  1  0  0  0  0
 32 31  1  0  0  0  0
 33 31  1  0  0  0  0
 35 34  1  0  0  0  0
 37 35  1  6  0  0  0
 37 40  1  0  0  0  0
 38 46  1  0  0  0  0
 39 43  1  6  0  0  0
 39 36  1  0  0  0  0
 40 36  1  0  0  0  0
 41 43  1  0  0  0  0
 42 47  1  0  0  0  0
 45 42  1  0  0  0  0
 45 41  1  1  0  0  0
 45 38  1  0  0  0  0
 46 39  1  0  0  0  0
 47 44  1  6  0  0  0
 47 37  1  0  0  0  0
 47 39  1  0  0  0  0
M  END
>  <MODEL>
5

>  <REMARK>
 VINA RESULT:      -7.4      1.470      2.493
  Name = 
  15 active torsions:
  status: ('A' for Active; 'I' for Inactive)
    1  A    between atoms: C_1  and  N_5
    2  A    between atoms: C_1  and  C_10
    3  A    between atoms: N_3  and  C_14
    4  A    between atoms: N_3  and  C_17
    5  A    between atoms: C_4  and  N_7
    6  A    between atoms: N_5  and  C_38
    7  A    between atoms: N_7  and  C_10
    8  A    between atoms: N_8  and  C_22
    9  A    between atoms: C_10  and  C_47
   10  A    between atoms: C_14  and  C_18
   11  A    between atoms: C_22  and  C_45
   12  A    between atoms: O_24  and  C_45
   13  A    between atoms: O_24  and  P_46
   14  A    between atoms: C_33  and  C_36
   15  A    between atoms: C_34  and  C_47
                            x       y       z     vdW  Elec       q    Type
                         _______ _______ _______ _____ _____    ______ ____

>  <TORSDO>
F 15

$$$$
=
 OpenBabel10222415253D

 47 53  0  0  1  0  0  0  0  0999 V2000
  186.6010  178.6290  141.0950 C   0  0  2  0  0  3  0  0  0  0  0  0
  183.5520  178.0910  142.9640 C   0  0  0  0  0  2  0  0  0  0  0  0
  185.9450  178.0120  142.3180 C   0  0  2  0  0  3  0  0  0  0  0  0
  184.5360  178.3560  142.1040 C   0  0  0  0  0  0  0  0  0  0  0  0
  185.6820  179.4320  140.3770 O   0  0  0  0  0  0  0  0  0  0  0  0
  184.3980  179.2430  140.9250 C   0  0  1  0  0  3  0  0  0  0  0  0
  180.0440  179.4720  136.7700 N   0  0  0  0  0  0  0  0  0  0  0  0
  182.0560  178.5770  137.4890 C   0  0  0  0  0  0  0  0  0  0  0  0
  182.2730  179.5220  139.6500 N   0  0  0  0  0  0  0  0  0  0  0  0
  179.2250  179.6780  139.0650 C   0  0  0  0  0  1  0  0  0  0  0  0
  184.2080  178.3930  138.5210 C   0  0  0  0  0  2  0  0  0  0  0  0
  183.2610  178.1060  137.4290 N   0  0  0  0  0  0  0  0  0  0  0  0
  183.4710  178.6870  139.8490 C   0  0  1  0  0  3  0  0  0  0  0  0
  181.6010  179.3720  138.5510 C   0  0  0  0  0  0  0  0  0  0  0  0
  180.3450  180.0350  138.1130 C   0  0  1  0  0  3  0  0  0  0  0  0
  181.1280  178.6290  136.4350 N   0  0  0  0  0  2  0  0  0  0  0  0
  180.0650  180.5750  135.8230 C   0  0  0  0  0  2  0  0  0  0  0  0
  180.8030  181.7530  136.4210 C   0  0  0  0  0  2  0  0  0  0  0  0
  180.5120  182.9160  135.6990 O   0  0  0  0  0  0  0  0  0  0  0  0
  181.9210  184.7620  137.2170 O   0  0  0  0  0  1  0  0  0  0  0  0
  179.4040  185.3910  136.2800 O   0  0  0  0  0  0  0  0  0  0  0  0
  179.7680  183.5750  138.1220 O   0  0  0  0  0  1  0  0  0  0  0  0
  180.3860  184.1420  136.8650 P   0  0  0  0  0  0  0  0  0  0  0  0
  187.1250  177.5760  140.2370 N   0  0  0  0  0  2  0  0  0  0  0  0
  187.9290  178.1880  139.1950 C   0  0  1  0  0  3  0  0  0  0  0  0
  189.4190  178.0350  139.4930 C   0  0  0  0  0  2  0  0  0  0  0  0
  190.0250  177.0510  138.6100 N   0  0  0  0  0  2  0  0  0  0  0  0
  192.5210  176.5030  138.8000 N   0  0  0  0  0  0  0  0  0  0  0  0
  191.3930  176.7510  138.7110 C   0  0  0  0  0  0  0  0  0  0  0  0
  187.5860  177.5460  137.8640 C   0  0  0  0  0  2  0  0  0  0  0  0
  188.2190  177.7740  135.4790 C   0  0  0  0  0  2  0  0  0  0  0  0
  187.7960  178.5240  136.7290 C   0  0  0  0  0  3  0  0  0  0  0  0
  186.7800  178.2280  135.6450 C   0  0  0  0  0  2  0  0  0  0  0  0
  186.4680  178.6910  143.5840 C   0  0  0  0  0  2  0  0  0  0  0  0
  186.8320  177.7070  144.5880 N   0  0  0  0  0  2  0  0  0  0  0  0
  189.7710  176.7000  146.3190 O   0  0  0  0  0  0  0  0  0  0  0  0
  188.2010  177.9830  145.0020 C   0  0  1  0  0  3  0  0  0  0  0  0
  191.5640  179.0070  143.9490 C   0  0  0  0  0  2  0  0  0  0  0  0
  190.3470  177.1180  145.1110 C   0  0  2  0  0  0  0  0  0  0  0  0
  188.4990  177.3340  146.3580 C   0  0  0  0  0  2  0  0  0  0  0  0
  191.6690  176.6870  143.0470 C   0  0  0  0  0  2  0  0  0  0  0  0
  189.6020  178.0610  142.9700 O   0  0  0  0  0  0  0  0  0  0  0  0
  191.3360  176.1440  144.4680 C   0  0  0  0  0  2  0  0  0  0  0  0
  188.7100  176.0650  143.6920 O   0  0  0  0  0  1  0  0  0  0  0  0
  191.0260  178.0970  142.8390 C   0  0  1  0  0  3  0  0  0  0  0  0
  191.1030  178.4540  145.3090 C   0  0  0  0  0  2  0  0  0  0  0  0
  189.2070  177.3040  144.1140 C   0  0  2  0  0  0  0  0  0  0  0  0
  1 24  1  6  0  0  0
  1  3  1  0  0  0  0
  3 34  1  1  0  0  0
  4  3  1  0  0  0  0
  4  2  2  0  0  0  0
  5  1  1  0  0  0  0
  6  5  1  6  0  0  0
  6  4  1  0  0  0  0
  7 15  1  0  0  0  0
  8 14  1  0  0  0  0
  9 13  1  0  0  0  0
 12  8  2  0  0  0  0
 12 11  1  0  0  0  0
 13 11  1  6  0  0  0
 13  6  1  0  0  0  0
 14  9  2  0  0  0  0
 15 14  1  0  0  0  0
 15 10  1  1  0  0  0
 16  7  1  0  0  0  0
 16  8  1  0  0  0  0
 17 18  1  0  0  0  0
 17  7  1  0  0  0  0
 19 18  1  0  0  0  0
 19 23  1  0  0  0  0
 21 23  2  0  0  0  0
 23 20  1  0  0  0  0
 23 22  1  0  0  0  0
 25 30  1  6  0  0  0
 25 26  1  0  0  0  0
 25 24  1  0  0  0  0
 27 29  1  0  0  0  0
 27 26  1  0  0  0  0
 29 28  3  0  0  0  0
 31 33  1  0  0  0  0
 31 32  1  0  0  0  0
 32 30  1  0  0  0  0
 33 32  1  0  0  0  0
 34 35  1  0  0  0  0
 36 40  1  0  0  0  0
 37 35  1  6  0  0  0
 37 40  1  0  0  0  0
 38 46  1  0  0  0  0
 39 43  1  6  0  0  0
 39 46  1  0  0  0  0
 39 36  1  0  0  0  0
 41 43  1  0  0  0  0
 42 47  1  0  0  0  0
 45 42  1  0  0  0  0
 45 41  1  1  0  0  0
 45 38  1  0  0  0  0
 47 44  1  6  0  0  0
 47 37  1  0  0  0  0
 47 39  1  0  0  0  0
M  END
>  <MODEL>
6

>  <REMARK>
 VINA RESULT:      -7.2      4.856     10.771
  Name = 
  15 active torsions:
  status: ('A' for Active; 'I' for Inactive)
    1  A    between atoms: C_1  and  N_5
    2  A    between atoms: C_1  and  C_10
    3  A    between atoms: N_3  and  C_14
    4  A    between atoms: N_3  and  C_17
    5  A    between atoms: C_4  and  N_7
    6  A    between atoms: N_5  and  C_38
    7  A    between atoms: N_7  and  C_10
    8  A    between atoms: N_8  and  C_22
    9  A    between atoms: C_10  and  C_47
   10  A    between atoms: C_14  and  C_18
   11  A    between atoms: C_22  and  C_45
   12  A    between atoms: O_24  and  C_45
   13  A    between atoms: O_24  and  P_46
   14  A    between atoms: C_33  and  C_36
   15  A    between atoms: C_34  and  C_47
                            x       y       z     vdW  Elec       q    Type
                         _______ _______ _______ _____ _____    ______ ____

>  <TORSDO>
F 15

$$$$
=
 OpenBabel10222415253D

 47 53  0  0  1  0  0  0  0  0999 V2000
  185.3420  177.5150  136.7360 C   0  0  2  0  0  3  0  0  0  0  0  0
  187.4660  174.5940  136.9060 C   0  0  0  0  0  2  0  0  0  0  0  0
  185.4390  176.0190  136.9800 C   0  0  2  0  0  3  0  0  0  0  0  0
  186.8800  175.7910  136.8490 C   0  0  0  0  0  0  0  0  0  0  0  0
  186.5800  178.0390  136.2920 O   0  0  0  0  0  0  0  0  0  0  0  0
  187.5580  177.0320  136.4060 C   0  0  1  0  0  3  0  0  0  0  0  0
  190.4190  177.4880  141.6860 N   0  0  0  0  0  0  0  0  0  0  0  0
  190.5250  177.3770  139.3750 C   0  0  0  0  0  0  0  0  0  0  0  0
  188.2350  177.4360  138.7710 N   0  0  0  0  0  0  0  0  0  0  0  0
  188.2970  178.7020  141.6090 C   0  0  0  0  0  1  0  0  0  0  0  0
  190.0030  176.7880  137.1140 C   0  0  0  0  0  2  0  0  0  0  0  0
  190.9640  177.0620  138.1980 N   0  0  0  0  0  0  0  0  0  0  0  0
  188.6520  177.5010  137.3590 C   0  0  1  0  0  3  0  0  0  0  0  0
  189.1590  177.4580  139.6820 C   0  0  0  0  0  0  0  0  0  0  0  0
  189.0280  177.4550  141.1620 C   0  0  1  0  0  3  0  0  0  0  0  0
  191.2730  177.4030  140.5640 N   0  0  0  0  0  2  0  0  0  0  0  0
  190.6200  176.2730  142.4580 C   0  0  0  0  0  2  0  0  0  0  0  0
  191.3090  176.6010  143.7650 C   0  0  0  0  0  2  0  0  0  0  0  0
  190.5630  176.1010  144.8380 O   0  0  0  0  0  0  0  0  0  0  0  0
  188.0090  177.1790  144.7400 O   0  0  0  0  0  0  0  0  0  0  0  0
  189.5290  177.4550  147.0250 O   0  0  0  0  0  1  0  0  0  0  0  0
  190.1510  178.6860  144.8080 O   0  0  0  0  0  1  0  0  0  0  0  0
  189.5790  177.3910  145.3340 P   0  0  0  0  0  0  0  0  0  0  0  0
  184.9230  178.1840  137.9590 N   0  0  0  0  0  2  0  0  0  0  0  0
  183.5830  177.7390  138.2950 C   0  0  1  0  0  3  0  0  0  0  0  0
  183.3410  177.8200  139.8010 C   0  0  0  0  0  2  0  0  0  0  0  0
  184.4650  178.4540  140.4720 N   0  0  0  0  0  2  0  0  0  0  0  0
  184.6130  178.4710  143.0300 N   0  0  0  0  0  0  0  0  0  0  0  0
  184.5430  178.4630  141.8740 C   0  0  0  0  0  0  0  0  0  0  0  0
  182.5760  178.5930  137.5490 C   0  0  0  0  0  2  0  0  0  0  0  0
  181.7010  180.7770  138.3270 C   0  0  0  0  0  2  0  0  0  0  0  0
  181.6310  179.2720  138.5160 C   0  0  0  0  0  3  0  0  0  0  0  0
  180.5580  179.9840  137.7190 C   0  0  0  0  0  2  0  0  0  0  0  0
  184.6820  175.2670  135.8840 C   0  0  0  0  0  2  0  0  0  0  0  0
  183.7370  174.3250  136.4590 N   0  0  0  0  0  2  0  0  0  0  0  0
  180.4190  174.3480  135.1800 O   0  0  0  0  0  0  0  0  0  0  0  0
  182.4170  174.9370  136.4080 C   0  0  1  0  0  3  0  0  0  0  0  0
  179.5660  176.2160  138.3320 C   0  0  0  0  0  2  0  0  0  0  0  0
  180.1420  174.5230  136.5430 C   0  0  2  0  0  0  0  0  0  0  0  0
  181.7790  174.7360  135.0300 C   0  0  0  0  0  2  0  0  0  0  0  0
  179.0900  173.7950  138.6780 C   0  0  0  0  0  2  0  0  0  0  0  0
  181.3960  174.7150  138.6460 O   0  0  0  0  0  0  0  0  0  0  0  0
  179.0720  173.6020  137.1330 C   0  0  0  0  0  2  0  0  0  0  0  0
  181.7020  172.8590  137.3170 O   0  0  0  0  0  1  0  0  0  0  0  0
  180.0520  174.9640  139.0700 C   0  0  1  0  0  3  0  0  0  0  0  0
  179.6780  175.9740  136.8170 C   0  0  0  0  0  2  0  0  0  0  0  0
  181.4340  174.2340  137.3030 C   0  0  2  0  0  0  0  0  0  0  0  0
  1  3  1  0  0  0  0
  1 24  1  1  0  0  0
  3 34  1  6  0  0  0
  4  2  2  0  0  0  0
  4  3  1  0  0  0  0
  5  1  1  0  0  0  0
  6  5  1  1  0  0  0
  6  4  1  0  0  0  0
  6 13  1  0  0  0  0
  7 17  1  0  0  0  0
  8 14  1  0  0  0  0
  8 16  1  0  0  0  0
  9 14  2  0  0  0  0
 11 12  1  0  0  0  0
 12  8  2  0  0  0  0
 13 11  1  1  0  0  0
 13  9  1  0  0  0  0
 14 15  1  0  0  0  0
 15 10  1  6  0  0  0
 15  7  1  0  0  0  0
 16  7  1  0  0  0  0
 17 18  1  0  0  0  0
 18 19  1  0  0  0  0
 19 23  1  0  0  0  0
 20 23  2  0  0  0  0
 22 23  1  0  0  0  0
 23 21  1  0  0  0  0
 24 25  1  0  0  0  0
 25 30  1  6  0  0  0
 25 26  1  0  0  0  0
 26 27  1  0  0  0  0
 27 29  1  0  0  0  0
 29 28  3  0  0  0  0
 30 32  1  0  0  0  0
 31 32  1  0  0  0  0
 33 31  1  0  0  0  0
 33 32  1  0  0  0  0
 34 35  1  0  0  0  0
 36 39  1  0  0  0  0
 37 35  1  6  0  0  0
 37 47  1  0  0  0  0
 39 46  1  1  0  0  0
 39 43  1  0  0  0  0
 39 47  1  0  0  0  0
 40 36  1  0  0  0  0
 40 37  1  0  0  0  0
 41 45  1  0  0  0  0
 42 45  1  0  0  0  0
 43 41  1  0  0  0  0
 45 38  1  6  0  0  0
 46 38  1  0  0  0  0
 47 44  1  6  0  0  0
 47 42  1  0  0  0  0
M  END
>  <MODEL>
7

>  <REMARK>
 VINA RESULT:      -7.2      4.656      7.617
  Name = 
  15 active torsions:
  status: ('A' for Active; 'I' for Inactive)
    1  A    between atoms: C_1  and  N_5
    2  A    between atoms: C_1  and  C_10
    3  A    between atoms: N_3  and  C_14
    4  A    between atoms: N_3  and  C_17
    5  A    between atoms: C_4  and  N_7
    6  A    between atoms: N_5  and  C_38
    7  A    between atoms: N_7  and  C_10
    8  A    between atoms: N_8  and  C_22
    9  A    between atoms: C_10  and  C_47
   10  A    between atoms: C_14  and  C_18
   11  A    between atoms: C_22  and  C_45
   12  A    between atoms: O_24  and  C_45
   13  A    between atoms: O_24  and  P_46
   14  A    between atoms: C_33  and  C_36
   15  A    between atoms: C_34  and  C_47
                            x       y       z     vdW  Elec       q    Type
                         _______ _______ _______ _____ _____    ______ ____

>  <TORSDO>
F 15

$$$$
=
 OpenBabel10222415253D

 47 53  0  0  1  0  0  0  0  0999 V2000
  188.2820  178.5560  141.0070 C   0  0  2  0  0  3  0  0  0  0  0  0
  186.8680  177.3460  144.1070 C   0  0  0  0  0  2  0  0  0  0  0  0
  188.4640  177.6890  142.2410 C   0  0  2  0  0  3  0  0  0  0  0  0
  187.1740  177.8620  142.9160 C   0  0  0  0  0  0  0  0  0  0  0  0
  187.0920  179.3180  141.0920 O   0  0  0  0  0  0  0  0  0  0  0  0
  186.3580  178.8790  142.2120 C   0  0  1  0  0  3  0  0  0  0  0  0
  180.3610  178.9020  141.6510 N   0  0  0  0  0  0  0  0  0  0  0  0
  182.4370  178.4120  140.7470 C   0  0  0  0  0  0  0  0  0  0  0  0
  183.8890  178.8800  142.5590 N   0  0  0  0  0  0  0  0  0  0  0  0
  181.1360  178.3800  143.9120 C   0  0  0  0  0  1  0  0  0  0  0  0
  184.7710  178.5610  140.2330 C   0  0  0  0  0  2  0  0  0  0  0  0
  183.3710  178.2900  139.8580 N   0  0  0  0  0  0  0  0  0  0  0  0
  185.0020  178.3560  141.7490 C   0  0  1  0  0  3  0  0  0  0  0  0
  182.6910  178.8110  142.0680 C   0  0  0  0  0  0  0  0  0  0  0  0
  181.3940  179.2110  142.6750 C   0  0  1  0  0  3  0  0  0  0  0  0
  181.0540  178.4580  140.5020 N   0  0  0  0  0  2  0  0  0  0  0  0
  179.7160  180.1540  141.2930 C   0  0  0  0  0  2  0  0  0  0  0  0
  179.7180  180.3230  139.7890 C   0  0  0  0  0  2  0  0  0  0  0  0
  180.0920  181.6290  139.4550 O   0  0  0  0  0  0  0  0  0  0  0  0
  182.7850  181.4910  138.8060 O   0  0  0  0  0  1  0  0  0  0  0  0
  180.9550  179.9880  137.3930 O   0  0  0  0  0  1  0  0  0  0  0  0
  181.0270  182.5920  137.2070 O   0  0  0  0  0  0  0  0  0  0  0  0
  181.2100  181.4600  138.1900 P   0  0  0  0  0  0  0  0  0  0  0  0
  188.2580  177.7160  139.8180 N   0  0  0  0  0  2  0  0  0  0  0  0
  189.2570  178.2060  138.8860 C   0  0  1  0  0  3  0  0  0  0  0  0
  190.3820  177.1890  138.7060 C   0  0  0  0  0  2  0  0  0  0  0  0
  191.2480  177.1630  139.8740 N   0  0  0  0  0  2  0  0  0  0  0  0
  193.7960  177.2000  139.6080 N   0  0  0  0  0  0  0  0  0  0  0  0
  192.6440  177.1830  139.7260 C   0  0  0  0  0  0  0  0  0  0  0  0
  188.5900  178.5010  137.5550 C   0  0  0  0  0  2  0  0  0  0  0  0
  186.7180  177.9370  136.0330 C   0  0  0  0  0  2  0  0  0  0  0  0
  187.3070  177.7130  137.4150 C   0  0  0  0  0  3  0  0  0  0  0  0
  187.5000  176.6710  136.3330 C   0  0  0  0  0  2  0  0  0  0  0  0
  189.5930  178.2500  143.1060 C   0  0  0  0  0  2  0  0  0  0  0  0
  190.6790  177.2930  143.2260 N   0  0  0  0  0  2  0  0  0  0  0  0
  192.0880  175.6450  146.0450 O   0  0  0  0  0  0  0  0  0  0  0  0
  190.4970  176.5720  144.4780 C   0  0  1  0  0  3  0  0  0  0  0  0
  188.8540  176.5150  147.7590 C   0  0  0  0  0  2  0  0  0  0  0  0
  191.1490  176.4570  146.6980 C   0  0  2  0  0  0  0  0  0  0  0  0
  191.6360  175.5720  144.6990 C   0  0  0  0  0  2  0  0  0  0  0  0
  190.5490  178.2540  148.3120 C   0  0  0  0  0  2  0  0  0  0  0  0
  189.4450  178.1180  146.0920 O   0  0  0  0  0  0  0  0  0  0  0  0
  191.6720  177.2600  147.8900 C   0  0  0  0  0  2  0  0  0  0  0  0
  191.6240  178.4420  145.4200 O   0  0  0  0  0  1  0  0  0  0  0  0
  189.2420  177.9740  147.5010 C   0  0  1  0  0  3  0  0  0  0  0  0
  189.9700  175.6020  147.2210 C   0  0  0  0  0  2  0  0  0  0  0  0
  190.6470  177.4720  145.6740 C   0  0  2  0  0  0  0  0  0  0  0  0
  1 24  1  6  0  0  0
  1  5  1  0  0  0  0
  1  3  1  0  0  0  0
  3  4  1  0  0  0  0
  3 34  1  1  0  0  0
  4  2  2  0  0  0  0
  6  5  1  6  0  0  0
  6  4  1  0  0  0  0
  7 15  1  0  0  0  0
  8 14  1  0  0  0  0
 12 11  1  0  0  0  0
 12  8  2  0  0  0  0
 13 11  1  6  0  0  0
 13  6  1  0  0  0  0
 13  9  1  0  0  0  0
 14  9  2  0  0  0  0
 14 15  1  0  0  0  0
 15 10  1  1  0  0  0
 16  8  1  0  0  0  0
 16  7  1  0  0  0  0
 17  7  1  0  0  0  0
 18 17  1  0  0  0  0
 19 18  1  0  0  0  0
 21 23  1  0  0  0  0
 22 23  2  0  0  0  0
 23 20  1  0  0  0  0
 23 19  1  0  0  0  0
 25 30  1  6  0  0  0
 25 24  1  0  0  0  0
 26 25  1  0  0  0  0
 26 27  1  0  0  0  0
 28 29  3  0  0  0  0
 29 27  1  0  0  0  0
 31 33  1  0  0  0  0
 31 32  1  0  0  0  0
 32 30  1  0  0  0  0
 33 32  1  0  0  0  0
 34 35  1  0  0  0  0
 36 39  1  0  0  0  0
 37 35  1  6  0  0  0
 37 40  1  0  0  0  0
 37 47  1  0  0  0  0
 39 46  1  1  0  0  0
 39 43  1  0  0  0  0
 40 36  1  0  0  0  0
 42 45  1  0  0  0  0
 43 41  1  0  0  0  0
 45 38  1  6  0  0  0
 45 41  1  0  0  0  0
 46 38  1  0  0  0  0
 47 44  1  6  0  0  0
 47 42  1  0  0  0  0
 47 39  1  0  0  0  0
M  END
>  <MODEL>
8

>  <REMARK>
 VINA RESULT:      -7.1      4.829     10.772
  Name = 
  15 active torsions:
  status: ('A' for Active; 'I' for Inactive)
    1  A    between atoms: C_1  and  N_5
    2  A    between atoms: C_1  and  C_10
    3  A    between atoms: N_3  and  C_14
    4  A    between atoms: N_3  and  C_17
    5  A    between atoms: C_4  and  N_7
    6  A    between atoms: N_5  and  C_38
    7  A    between atoms: N_7  and  C_10
    8  A    between atoms: N_8  and  C_22
    9  A    between atoms: C_10  and  C_47
   10  A    between atoms: C_14  and  C_18
   11  A    between atoms: C_22  and  C_45
   12  A    between atoms: O_24  and  C_45
   13  A    between atoms: O_24  and  P_46
   14  A    between atoms: C_33  and  C_36
   15  A    between atoms: C_34  and  C_47
                            x       y       z     vdW  Elec       q    Type
                         _______ _______ _______ _____ _____    ______ ____

>  <TORSDO>
F 15

$$$$
=
 OpenBabel10222415253D

 47 53  0  0  1  0  0  0  0  0999 V2000
  188.6960  178.6190  139.5330 C   0  0  2  0  0  3  0  0  0  0  0  0
  187.9300  175.7100  137.5280 C   0  0  0  0  0  2  0  0  0  0  0  0
  187.6980  177.5240  139.2010 C   0  0  2  0  0  3  0  0  0  0  0  0
  188.4300  176.7530  138.1920 C   0  0  0  0  0  0  0  0  0  0  0  0
  189.7930  178.5960  138.6380 O   0  0  0  0  0  0  0  0  0  0  0  0
  189.6970  177.4350  137.8440 C   0  0  1  0  0  3  0  0  0  0  0  0
  194.9040  174.8040  136.3460 N   0  0  0  0  0  0  0  0  0  0  0  0
  193.5770  175.7990  137.9630 C   0  0  0  0  0  0  0  0  0  0  0  0
  191.5330  176.1060  136.8040 N   0  0  0  0  0  0  0  0  0  0  0  0
  192.9550  173.8340  135.2310 C   0  0  0  0  0  1  0  0  0  0  0  0
  191.9740  177.2490  138.9930 C   0  0  0  0  0  2  0  0  0  0  0  0
  193.2570  176.5230  138.9880 N   0  0  0  0  0  0  0  0  0  0  0  0
  190.9350  176.5720  138.0680 C   0  0  1  0  0  3  0  0  0  0  0  0
  192.7580  175.6800  136.8300 C   0  0  0  0  0  0  0  0  0  0  0  0
  193.5860  175.1140  135.7330 C   0  0  1  0  0  3  0  0  0  0  0  0
  194.8470  175.2720  137.6790 N   0  0  0  0  0  2  0  0  0  0  0  0
  195.9010  175.6090  135.6620 C   0  0  0  0  0  2  0  0  0  0  0  0
  196.9780  174.7160  135.0860 C   0  0  0  0  0  2  0  0  0  0  0  0
  197.7730  174.1990  136.1150 O   0  0  0  0  0  0  0  0  0  0  0  0
  198.1270  171.6800  137.2210 O   0  0  0  0  0  1  0  0  0  0  0  0
  196.4980  171.9950  135.0180 O   0  0  0  0  0  1  0  0  0  0  0  0
  199.0860  172.3090  134.8660 O   0  0  0  0  0  0  0  0  0  0  0  0
  197.9070  172.5410  135.7810 P   0  0  0  0  0  0  0  0  0  0  0  0
  189.1630  178.4580  140.9030 N   0  0  0  0  0  2  0  0  0  0  0  0
  188.4400  177.3550  141.5110 C   0  0  1  0  0  3  0  0  0  0  0  0
  189.4050  176.3380  142.1170 C   0  0  0  0  0  2  0  0  0  0  0  0
  190.6760  176.9640  142.4470 N   0  0  0  0  0  2  0  0  0  0  0  0
  191.6770  176.7020  144.7920 N   0  0  0  0  0  0  0  0  0  0  0  0
  191.2270  176.8210  143.7310 C   0  0  0  0  0  0  0  0  0  0  0  0
  187.5070  177.9010  142.5740 C   0  0  0  0  0  2  0  0  0  0  0  0
  187.8960  177.7760  145.0180 C   0  0  0  0  0  2  0  0  0  0  0  0
  187.4860  176.9930  143.7840 C   0  0  0  0  0  3  0  0  0  0  0  0
  186.4290  177.4980  144.7450 C   0  0  0  0  0  2  0  0  0  0  0  0
  186.4400  178.1390  138.5870 C   0  0  0  0  0  2  0  0  0  0  0  0
  185.7650  179.0000  139.5420 N   0  0  0  0  0  2  0  0  0  0  0  0
  182.7590  178.9950  141.4420 O   0  0  0  0  0  0  0  0  0  0  0  0
  184.4770  178.3960  139.8500 C   0  0  1  0  0  3  0  0  0  0  0  0
  181.2990  177.1310  138.5180 C   0  0  0  0  0  2  0  0  0  0  0  0
  182.2210  178.8210  140.1590 C   0  0  2  0  0  0  0  0  0  0  0  0
  184.1200  178.6000  141.3260 C   0  0  0  0  0  2  0  0  0  0  0  0
  180.7770  179.5540  138.2690 C   0  0  0  0  0  2  0  0  0  0  0  0
  183.0410  178.6230  137.8530 O   0  0  0  0  0  0  0  0  0  0  0  0
  181.0610  179.7480  139.7870 C   0  0  0  0  0  2  0  0  0  0  0  0
  183.6090  180.4770  139.0940 O   0  0  0  0  0  1  0  0  0  0  0  0
  181.6390  178.3810  137.6990 C   0  0  1  0  0  3  0  0  0  0  0  0
  181.7060  177.3730  139.9830 C   0  0  0  0  0  2  0  0  0  0  0  0
  183.3420  179.1040  139.1630 C   0  0  2  0  0  0  0  0  0  0  0  0
  1 24  1  1  0  0  0
  2  4  2  0  0  0  0
  3 34  1  6  0  0  0
  3  1  1  0  0  0  0
  4  3  1  0  0  0  0
  5  1  1  0  0  0  0
  6 13  1  0  0  0  0
  6  4  1  1  0  0  0
  6  5  1  0  0  0  0
  7 16  1  0  0  0  0
  8 12  2  0  0  0  0
  9 14  2  0  0  0  0
  9 13  1  0  0  0  0
 12 11  1  0  0  0  0
 13 11  1  6  0  0  0
 14  8  1  0  0  0  0
 15 10  1  1  0  0  0
 15  7  1  0  0  0  0
 15 14  1  0  0  0  0
 16  8  1  0  0  0  0
 17  7  1  0  0  0  0
 18 17  1  0  0  0  0
 18 19  1  0  0  0  0
 21 23  1  0  0  0  0
 22 23  2  0  0  0  0
 23 19  1  0  0  0  0
 23 20  1  0  0  0  0
 24 25  1  0  0  0  0
 25 26  1  1  0  0  0
 25 30  1  0  0  0  0
 26 27  1  0  0  0  0
 27 29  1  0  0  0  0
 29 28  3  0  0  0  0
 30 32  1  0  0  0  0
 32 33  1  0  0  0  0
 32 31  1  0  0  0  0
 33 31  1  0  0  0  0
 34 35  1  0  0  0  0
 37 35  1  1  0  0  0
 37 40  1  0  0  0  0
 38 46  1  0  0  0  0
 39 43  1  6  0  0  0
 39 36  1  0  0  0  0
 40 36  1  0  0  0  0
 41 43  1  0  0  0  0
 42 47  1  0  0  0  0
 45 42  1  0  0  0  0
 45 41  1  1  0  0  0
 45 38  1  0  0  0  0
 46 39  1  0  0  0  0
 47 44  1  6  0  0  0
 47 37  1  0  0  0  0
 47 39  1  0  0  0  0
M  END
>  <MODEL>
9

>  <REMARK>
 VINA RESULT:      -7.1      1.553      2.284
  Name = 
  15 active torsions:
  status: ('A' for Active; 'I' for Inactive)
    1  A    between atoms: C_1  and  N_5
    2  A    between atoms: C_1  and  C_10
    3  A    between atoms: N_3  and  C_14
    4  A    between atoms: N_3  and  C_17
    5  A    between atoms: C_4  and  N_7
    6  A    between atoms: N_5  and  C_38
    7  A    between atoms: N_7  and  C_10
    8  A    between atoms: N_8  and  C_22
    9  A    between atoms: C_10  and  C_47
   10  A    between atoms: C_14  and  C_18
   11  A    between atoms: C_22  and  C_45
   12  A    between atoms: O_24  and  C_45
   13  A    between atoms: O_24  and  P_46
   14  A    between atoms: C_33  and  C_36
   15  A    between atoms: C_34  and  C_47
                            x       y       z     vdW  Elec       q    Type
                         _______ _______ _______ _____ _____    ______ ____

>  <TORSDO>
F 15

$$$$
