=
 OpenBabel10222418053D

 35 41  0  0  1  0  0  0  0  0999 V2000
  190.0960  177.1490  141.3200 C   0  0  1  0  0  3  0  0  0  0  0  0
  190.3320  177.6940  139.9510 C   0  0  1  0  0  3  0  0  0  0  0  0
  192.3530  177.3720  141.1710 N   0  0  0  0  0  0  0  0  0  0  0  0
  191.2410  177.0080  141.9670 C   0  0  0  0  0  0  0  0  0  0  0  0
  191.8610  177.7970  139.8680 C   0  0  0  0  0  2  0  0  0  0  0  0
  190.0370  178.0930  145.1750 C   0  0  0  0  0  3  0  0  0  0  0  0
  191.2970  175.9430  146.7140 C   0  0  0  0  0  3  0  0  0  0  0  0
  191.3800  176.6410  143.3410 N   0  0  0  0  0  0  0  0  0  0  0  0
  190.4860  176.9310  147.3290 C   0  0  0  0  0  2  0  0  0  0  0  0
  191.4360  176.0860  145.3470 C   0  0  0  0  0  0  0  0  0  0  0  0
  189.8710  177.9810  146.5780 C   0  0  0  0  0  3  0  0  0  0  0  0
  190.8340  177.1140  144.6110 C   0  0  1  0  0  0  0  0  0  0  0  0
  191.9770  175.6130  144.1110 C   0  0  2  0  0  3  0  0  0  0  0  0
  190.5780  175.7450  138.4100 C   0  0  0  0  0  3  0  0  0  0  0  0
  188.4970  176.9800  138.3530 C   0  0  0  0  0  3  0  0  0  0  0  0
  189.7780  176.7860  138.8920 C   0  0  0  0  0  0  0  0  0  0  0  0
  188.8150  175.0850  136.8720 C   0  0  0  0  0  0  0  0  0  0  0  0
  188.0190  176.1300  137.3510 C   0  0  0  0  0  3  0  0  0  0  0  0
  190.1000  174.8970  137.4050 C   0  0  0  0  0  3  0  0  0  0  0  0
  188.3050  174.2460  135.8770 O   0  0  0  0  0  0  0  0  0  0  0  0
  187.0030  173.6780  135.9450 C   0  0  0  0  0  2  0  0  0  0  0  0
  186.9140  172.7720  137.1200 C   0  0  0  0  0  0  0  0  0  0  0  0
  187.8930  171.8120  137.3300 O   0  0  0  0  0  0  0  0  0  0  0  0
  185.9700  172.8970  137.9440 O   0  0  0  0  0  1  0  0  0  0  0  0
  188.6190  175.8010  142.6940 O   0  0  0  0  0  0  0  0  0  0  0  0
  187.1220  177.5440  143.0760 C   0  0  0  0  0  0  0  0  0  0  0  0
  187.6200  176.2430  143.5970 C   0  0  0  0  0  2  0  0  0  0  0  0
  187.8540  177.8840  142.0550 C   0  0  0  0  0  3  0  0  0  0  0  0
  188.7950  176.8520  141.8440 N   0  0  0  0  0  0  0  0  0  0  0  0
  183.6250  178.9430  143.4730 N   0  0  0  0  0  0  0  0  0  0  0  0
  184.6120  178.8200  145.6640 C   0  0  0  0  0  2  0  0  0  0  0  0
  186.0040  178.3760  143.6290 C   0  0  2  0  0  3  0  0  0  0  0  0
  185.7720  178.0430  145.1070 C   0  0  0  0  0  2  0  0  0  0  0  0
  184.6980  178.1610  142.8610 C   0  0  0  0  0  2  0  0  0  0  0  0
  183.6010  179.2080  144.8820 C   0  0  0  0  0  3  0  0  0  0  0  0
  1 29  1  1  0  0  0
  1  4  1  0  0  0  0
  2 16  1  6  0  0  0
  2  1  1  0  0  0  0
  3  4  2  0  0  0  0
  4  8  1  0  0  0  0
  5  2  1  0  0  0  0
  5  3  1  0  0  0  0
  6 11  2  0  0  0  0
  7  9  1  0  0  0  0
  8 13  1  0  0  0  0
  8 12  1  0  0  0  0
 10  7  2  0  0  0  0
 11  9  1  0  0  0  0
 12  6  1  6  0  0  0
 12 10  1  0  0  0  0
 13 12  1  0  0  0  0
 13 10  1  6  0  0  0
 14 16  1  0  0  0  0
 15 16  2  0  0  0  0
 17 18  2  0  0  0  0
 17 19  1  0  0  0  0
 18 15  1  0  0  0  0
 19 14  2  0  0  0  0
 20 21  1  0  0  0  0
 20 17  1  0  0  0  0
 21 22  1  0  0  0  0
 22 23  2  0  0  0  0
 22 24  1  0  0  0  0
 25 27  1  0  0  0  0
 26 27  1  0  0  0  0
 28 26  2  0  0  0  0
 29 28  1  0  0  0  0
 29 25  1  0  0  0  0
 30 35  2  0  0  0  0
 32 26  1  6  0  0  0
 32 33  1  0  0  0  0
 33 31  1  0  0  0  0
 34 30  1  0  0  0  0
 34 32  1  0  0  0  0
 35 31  1  0  0  0  0
M  END
>  <MODEL>
1

>  <REMARK>
 VINA RESULT:      -8.5      0.000      0.000
  Name = 
  7 active torsions:
  status: ('A' for Active; 'I' for Inactive)
    1  A    between atoms: C_3  and  N_26
    2  A    between atoms: N_5  and  C_33
    3  A    between atoms: C_6  and  C_19
    4  A    between atoms: C_10  and  C_12
    5  A    between atoms: O_13  and  C_24
    6  A    between atoms: O_13  and  C_27
    7  A    between atoms: C_25  and  C_27
                            x       y       z     vdW  Elec       q    Type
                         _______ _______ _______ _____ _____    ______ ____

>  <TORSDO>
F 7

$$$$
=
 OpenBabel10222418053D

 35 41  0  0  1  0  0  0  0  0999 V2000
  182.5680  178.3220  141.0210 C   0  0  0  0  0  0  0  0  0  0  0  0
  181.1470  178.6610  140.7160 C   0  0  1  0  0  3  0  0  0  0  0  0
  181.8420  179.4620  142.8500 N   0  0  0  0  0  0  0  0  0  0  0  0
  182.9020  178.7660  142.2220 C   0  0  0  0  0  0  0  0  0  0  0  0
  180.6980  179.4590  141.9480 C   0  0  0  0  0  3  0  0  0  0  0  0
  184.1720  178.6670  145.5830 C   0  0  0  0  0  3  0  0  0  0  0  0
  186.8570  177.7410  144.8640 C   0  0  0  0  0  3  0  0  0  0  0  0
  184.1370  178.5030  142.8910 N   0  0  0  0  0  0  0  0  0  0  0  0
  186.4710  177.9510  146.2130 C   0  0  0  0  0  2  0  0  0  0  0  0
  185.8690  178.0090  143.9380 C   0  0  0  0  0  0  0  0  0  0  0  0
  185.1610  178.4040  146.5630 C   0  0  0  0  0  3  0  0  0  0  0  0
  184.5850  178.4530  144.2800 C   0  0  1  0  0  0  0  0  0  0  0  0
  185.4430  178.0540  142.5740 C   0  0  2  0  0  3  0  0  0  0  0  0
  181.1920  180.8570  139.5290 C   0  0  0  0  0  3  0  0  0  0  0  0
  180.7270  178.8730  138.2240 C   0  0  0  0  0  3  0  0  0  0  0  0
  181.0300  179.4700  139.4570 C   0  0  0  0  0  0  0  0  0  0  0  0
  180.7710  181.0440  137.1420 C   0  0  0  0  0  0  0  0  0  0  0  0
  180.6020  179.6570  137.0740 C   0  0  0  0  0  3  0  0  0  0  0  0
  181.0650  181.6420  138.3780 C   0  0  0  0  0  3  0  0  0  0  0  0
  180.6500  181.8000  135.9730 O   0  0  0  0  0  0  0  0  0  0  0  0
  179.8650  182.9830  135.9020 C   0  0  0  0  0  2  0  0  0  0  0  0
  180.7510  184.1590  135.6950 C   0  0  0  0  0  0  0  0  0  0  0  0
  181.6130  184.5620  136.7040 O   0  0  0  0  0  1  0  0  0  0  0  0
  180.7440  184.7690  134.5940 O   0  0  0  0  0  0  0  0  0  0  0  0
  183.0220  176.3930  139.6240 O   0  0  0  0  0  0  0  0  0  0  0  0
  184.4300  177.5650  138.1860 C   0  0  0  0  0  0  0  0  0  0  0  0
  183.5520  176.3710  138.3100 C   0  0  0  0  0  2  0  0  0  0  0  0
  184.3100  178.2770  139.2680 C   0  0  0  0  0  3  0  0  0  0  0  0
  183.4210  177.5940  140.1290 N   0  0  0  0  0  0  0  0  0  0  0  0
  187.5680  178.2930  136.1940 N   0  0  0  0  0  2  0  0  0  0  0  0
  185.9760  177.2860  134.6980 C   0  0  0  0  0  3  0  0  0  0  0  0
  185.2850  177.9450  137.0140 C   0  0  2  0  0  3  0  0  0  0  0  0
  185.0790  176.9590  135.8600 C   0  0  0  0  0  2  0  0  0  0  0  0
  186.7710  177.9790  137.3790 C   0  0  0  0  0  2  0  0  0  0  0  0
  187.1540  177.8880  134.8830 C   0  0  0  0  0  3  0  0  0  0  0  0
  1  4  2  0  0  0  0
  2 16  1  6  0  0  0
  2  1  1  0  0  0  0
  2  5  1  0  0  0  0
  4  3  1  0  0  0  0
  4  8  1  0  0  0  0
  5  3  2  0  0  0  0
  6 11  2  0  0  0  0
  7  9  1  0  0  0  0
  8 12  1  0  0  0  0
  9 11  1  0  0  0  0
 10 12  1  0  0  0  0
 10  7  2  0  0  0  0
 12  6  1  1  0  0  0
 13  8  1  0  0  0  0
 13 10  1  1  0  0  0
 13 12  1  0  0  0  0
 15 16  2  0  0  0  0
 16 14  1  0  0  0  0
 17 19  1  0  0  0  0
 18 17  2  0  0  0  0
 18 15  1  0  0  0  0
 19 14  2  0  0  0  0
 20 17  1  0  0  0  0
 21 20  1  0  0  0  0
 22 21  1  0  0  0  0
 22 23  1  0  0  0  0
 24 22  2  0  0  0  0
 25 29  1  0  0  0  0
 26 27  1  0  0  0  0
 26 28  2  0  0  0  0
 27 25  1  0  0  0  0
 28 29  1  0  0  0  0
 29  1  1  0  0  0  0
 30 34  1  0  0  0  0
 31 35  2  0  0  0  0
 31 33  1  0  0  0  0
 32 34  1  0  0  0  0
 32 26  1  1  0  0  0
 33 32  1  0  0  0  0
 35 30  1  0  0  0  0
M  END
>  <MODEL>
2

>  <REMARK>
 VINA RESULT:      -7.7      5.633      8.881
  Name = 
  7 active torsions:
  status: ('A' for Active; 'I' for Inactive)
    1  A    between atoms: C_3  and  N_26
    2  A    between atoms: N_5  and  C_33
    3  A    between atoms: C_6  and  C_19
    4  A    between atoms: C_10  and  C_12
    5  A    between atoms: O_13  and  C_24
    6  A    between atoms: O_13  and  C_27
    7  A    between atoms: C_25  and  C_27
                            x       y       z     vdW  Elec       q    Type
                         _______ _______ _______ _____ _____    ______ ____

>  <TORSDO>
F 7

$$$$
=
 OpenBabel10222418053D

 35 41  0  0  1  0  0  0  0  0999 V2000
  188.6990  177.8470  139.9410 C   0  0  0  0  0  0  0  0  0  0  0  0
  189.2990  177.8620  138.5750 C   0  0  1  0  0  3  0  0  0  0  0  0
  190.4660  176.4230  140.0730 N   0  0  0  0  0  0  0  0  0  0  0  0
  189.3910  177.0550  140.7430 C   0  0  0  0  0  0  0  0  0  0  0  0
  190.4620  176.8650  138.6860 C   0  0  0  0  0  3  0  0  0  0  0  0
  190.6720  178.4260  143.8080 C   0  0  0  0  0  3  0  0  0  0  0  0
  188.8290  176.9900  145.5750 C   0  0  0  0  0  3  0  0  0  0  0  0
  189.1830  176.9080  142.1490 N   0  0  0  0  0  0  0  0  0  0  0  0
  189.7880  177.9070  146.0760 C   0  0  0  0  0  2  0  0  0  0  0  0
  188.8450  176.8380  144.2030 C   0  0  0  0  0  0  0  0  0  0  0  0
  190.6880  178.6080  145.2140 C   0  0  0  0  0  3  0  0  0  0  0  0
  189.7260  177.5240  143.3570 C   0  0  1  0  0  0  0  0  0  0  0  0
  188.3040  176.2280  143.0280 C   0  0  1  0  0  3  0  0  0  0  0  0
  187.8080  176.1360  137.5600 C   0  0  0  0  0  3  0  0  0  0  0  0
  187.8970  178.3140  136.5110 C   0  0  0  0  0  3  0  0  0  0  0  0
  188.3060  177.4420  137.5310 C   0  0  0  0  0  0  0  0  0  0  0  0
  186.4830  176.5820  135.5720 C   0  0  0  0  0  0  0  0  0  0  0  0
  186.9870  177.8850  135.5400 C   0  0  0  0  0  3  0  0  0  0  0  0
  186.9000  175.7060  136.5870 C   0  0  0  0  0  3  0  0  0  0  0  0
  185.5670  176.1850  134.5940 O   0  0  0  0  0  0  0  0  0  0  0  0
  184.3510  175.5180  134.9060 C   0  0  0  0  0  2  0  0  0  0  0  0
  183.4700  176.4230  135.6900 C   0  0  0  0  0  0  0  0  0  0  0  0
  183.1570  176.1150  137.0060 O   0  0  0  0  0  1  0  0  0  0  0  0
  183.0370  177.4860  135.1730 O   0  0  0  0  0  0  0  0  0  0  0  0
  186.4300  178.5990  139.5320 O   0  0  0  0  0  0  0  0  0  0  0  0
  185.9640  178.9340  141.7900 C   0  0  0  0  0  0  0  0  0  0  0  0
  185.3570  178.6820  140.4550 C   0  0  0  0  0  2  0  0  0  0  0  0
  187.2570  178.8650  141.6720 C   0  0  0  0  0  3  0  0  0  0  0  0
  187.5480  178.6160  140.3120 N   0  0  0  0  0  0  0  0  0  0  0  0
  183.1010  179.0770  144.2650 N   0  0  0  0  0  0  0  0  0  0  0  0
  185.0930  178.5120  145.4900 C   0  0  0  0  0  2  0  0  0  0  0  0
  185.2440  179.1830  143.0810 C   0  0  2  0  0  3  0  0  0  0  0  0
  185.8430  178.3250  144.2000 C   0  0  0  0  0  2  0  0  0  0  0  0
  183.7480  178.8790  142.9690 C   0  0  0  0  0  2  0  0  0  0  0  0
  183.7980  178.8380  145.4950 C   0  0  0  0  0  3  0  0  0  0  0  0
  1 29  1  0  0  0  0
  1  4  2  0  0  0  0
  2 16  1  6  0  0  0
  2  5  1  0  0  0  0
  2  1  1  0  0  0  0
  3  4  1  0  0  0  0
  4  8  1  0  0  0  0
  5  3  2  0  0  0  0
  6 11  2  0  0  0  0
  7  9  1  0  0  0  0
  8 13  1  0  0  0  0
  8 12  1  0  0  0  0
 10  7  2  0  0  0  0
 11  9  1  0  0  0  0
 12  6  1  6  0  0  0
 12 10  1  0  0  0  0
 13 12  1  0  0  0  0
 13 10  1  1  0  0  0
 15 16  2  0  0  0  0
 16 14  1  0  0  0  0
 17 19  1  0  0  0  0
 18 17  2  0  0  0  0
 18 15  1  0  0  0  0
 19 14  2  0  0  0  0
 20 21  1  0  0  0  0
 20 17  1  0  0  0  0
 21 22  1  0  0  0  0
 22 23  1  0  0  0  0
 24 22  2  0  0  0  0
 25 29  1  0  0  0  0
 25 27  1  0  0  0  0
 27 26  1  0  0  0  0
 28 26  2  0  0  0  0
 29 28  1  0  0  0  0
 30 35  2  0  0  0  0
 31 35  1  0  0  0  0
 32 26  1  6  0  0  0
 32 33  1  0  0  0  0
 33 31  1  0  0  0  0
 34 32  1  0  0  0  0
 34 30  1  0  0  0  0
M  END
>  <MODEL>
3

>  <REMARK>
 VINA RESULT:      -7.6      2.343      2.983
  Name = 
  7 active torsions:
  status: ('A' for Active; 'I' for Inactive)
    1  A    between atoms: C_3  and  N_26
    2  A    between atoms: N_5  and  C_33
    3  A    between atoms: C_6  and  C_19
    4  A    between atoms: C_10  and  C_12
    5  A    between atoms: O_13  and  C_24
    6  A    between atoms: O_13  and  C_27
    7  A    between atoms: C_25  and  C_27
                            x       y       z     vdW  Elec       q    Type
                         _______ _______ _______ _____ _____    ______ ____

>  <TORSDO>
F 7

$$$$
=
 OpenBabel10222418053D

 35 41  0  0  1  0  0  0  0  0999 V2000
  186.8680  178.4190  140.6460 C   0  0  0  0  0  0  0  0  0  0  0  0
  187.7130  178.5290  139.4200 C   0  0  1  0  0  3  0  0  0  0  0  0
  188.9430  177.7740  141.3150 N   0  0  0  0  0  0  0  0  0  0  0  0
  187.5960  178.0180  141.6750 C   0  0  0  0  0  0  0  0  0  0  0  0
  189.0930  178.0520  139.8940 C   0  0  0  0  0  3  0  0  0  0  0  0
  188.9710  177.3650  144.9310 C   0  0  0  0  0  3  0  0  0  0  0  0
  186.4910  177.8530  146.4100 C   0  0  0  0  0  3  0  0  0  0  0  0
  187.1460  177.9350  143.0290 N   0  0  0  0  0  0  0  0  0  0  0  0
  187.7040  177.5220  147.0670 C   0  0  0  0  0  2  0  0  0  0  0  0
  186.5850  177.9230  145.0340 C   0  0  0  0  0  0  0  0  0  0  0  0
  188.9150  177.2820  146.3440 C   0  0  0  0  0  3  0  0  0  0  0  0
  187.7710  177.6890  144.3260 C   0  0  1  0  0  0  0  0  0  0  0  0
  185.9620  178.1670  143.7710 C   0  0  1  0  0  3  0  0  0  0  0  0
  187.7580  176.4200  138.0850 C   0  0  0  0  0  3  0  0  0  0  0  0
  186.1540  178.1220  137.4620 C   0  0  0  0  0  3  0  0  0  0  0  0
  187.1830  177.6750  138.3050 C   0  0  0  0  0  0  0  0  0  0  0  0
  186.2670  176.0530  136.2000 C   0  0  0  0  0  0  0  0  0  0  0  0
  185.6980  177.3120  136.4180 C   0  0  0  0  0  3  0  0  0  0  0  0
  187.3030  175.6110  137.0390 C   0  0  0  0  0  3  0  0  0  0  0  0
  185.7830  175.2620  135.1550 O   0  0  0  0  0  0  0  0  0  0  0  0
  185.3330  173.9270  135.3480 C   0  0  0  0  0  2  0  0  0  0  0  0
  184.1460  173.9240  136.2430 C   0  0  0  0  0  0  0  0  0  0  0  0
  184.2610  173.4530  137.5430 O   0  0  0  0  0  1  0  0  0  0  0  0
  183.0460  174.3800  135.8350 O   0  0  0  0  0  0  0  0  0  0  0  0
  185.0010  179.8440  140.0420 O   0  0  0  0  0  0  0  0  0  0  0  0
  183.4460  178.1120  140.1260 C   0  0  0  0  0  0  0  0  0  0  0  0
  183.7280  179.4560  139.5540 C   0  0  0  0  0  2  0  0  0  0  0  0
  184.5050  177.7070  140.7640 C   0  0  0  0  0  3  0  0  0  0  0  0
  185.4710  178.7340  140.6790 N   0  0  0  0  0  0  0  0  0  0  0  0
  179.8670  177.2950  139.1940 N   0  0  0  0  0  2  0  0  0  0  0  0
  181.1740  175.3010  138.8730 C   0  0  0  0  0  3  0  0  0  0  0  0
  182.1890  177.3080  139.9770 C   0  0  2  0  0  3  0  0  0  0  0  0
  182.4390  176.0860  139.0870 C   0  0  0  0  0  2  0  0  0  0  0  0
  181.0500  178.1340  139.3770 C   0  0  0  0  0  2  0  0  0  0  0  0
  179.9780  175.8960  138.9010 C   0  0  0  0  0  3  0  0  0  0  0  0
  1 29  1  0  0  0  0
  1  4  2  0  0  0  0
  2 16  1  6  0  0  0
  2  5  1  0  0  0  0
  2  1  1  0  0  0  0
  3  4  1  0  0  0  0
  4  8  1  0  0  0  0
  5  3  2  0  0  0  0
  6 11  2  0  0  0  0
  7  9  1  0  0  0  0
  8 13  1  0  0  0  0
  8 12  1  0  0  0  0
 10  7  2  0  0  0  0
 11  9  1  0  0  0  0
 12  6  1  1  0  0  0
 12 10  1  0  0  0  0
 13 12  1  0  0  0  0
 13 10  1  6  0  0  0
 14 16  1  0  0  0  0
 15 16  2  0  0  0  0
 17 18  2  0  0  0  0
 17 19  1  0  0  0  0
 18 15  1  0  0  0  0
 19 14  2  0  0  0  0
 20 21  1  0  0  0  0
 20 17  1  0  0  0  0
 21 22  1  0  0  0  0
 22 23  1  0  0  0  0
 24 22  2  0  0  0  0
 25 29  1  0  0  0  0
 26 28  2  0  0  0  0
 27 25  1  0  0  0  0
 27 26  1  0  0  0  0
 29 28  1  0  0  0  0
 30 34  1  0  0  0  0
 31 35  2  0  0  0  0
 31 33  1  0  0  0  0
 32 26  1  6  0  0  0
 33 32  1  0  0  0  0
 34 32  1  0  0  0  0
 35 30  1  0  0  0  0
M  END
>  <MODEL>
4

>  <REMARK>
 VINA RESULT:      -7.2      3.138      4.448
  Name = 
  7 active torsions:
  status: ('A' for Active; 'I' for Inactive)
    1  A    between atoms: C_3  and  N_26
    2  A    between atoms: N_5  and  C_33
    3  A    between atoms: C_6  and  C_19
    4  A    between atoms: C_10  and  C_12
    5  A    between atoms: O_13  and  C_24
    6  A    between atoms: O_13  and  C_27
    7  A    between atoms: C_25  and  C_27
                            x       y       z     vdW  Elec       q    Type
                         _______ _______ _______ _____ _____    ______ ____

>  <TORSDO>
F 7

$$$$
=
 OpenBabel10222418053D

 35 41  0  0  1  0  0  0  0  0999 V2000
  189.8270  176.4610  138.2950 C   0  0  1  0  0  3  0  0  0  0  0  0
  190.0680  177.6700  139.1370 C   0  0  1  0  0  3  0  0  0  0  0  0
  187.9490  177.7180  138.0500 N   0  0  0  0  0  0  0  0  0  0  0  0
  188.6510  176.5420  137.6940 C   0  0  0  0  0  0  0  0  0  0  0  0
  188.7720  178.4770  138.9810 C   0  0  0  0  0  2  0  0  0  0  0  0
  186.2810  173.8490  137.4770 C   0  0  0  0  0  3  0  0  0  0  0  0
  186.5740  173.4200  134.5950 C   0  0  0  0  0  3  0  0  0  0  0  0
  188.1550  175.6310  136.7120 N   0  0  0  0  0  0  0  0  0  0  0  0
  185.6630  172.6660  135.3770 C   0  0  0  0  0  2  0  0  0  0  0  0
  187.2980  174.3580  135.3040 C   0  0  0  0  0  0  0  0  0  0  0  0
  185.5210  172.8740  136.7840 C   0  0  0  0  0  3  0  0  0  0  0  0
  187.1580  174.5640  136.6830 C   0  0  1  0  0  0  0  0  0  0  0  0
  188.2750  175.4020  135.3180 C   0  0  1  0  0  3  0  0  0  0  0  0
  189.2400  176.9550  141.3820 C   0  0  0  0  0  3  0  0  0  0  0  0
  191.6160  177.3330  141.1170 C   0  0  0  0  0  3  0  0  0  0  0  0
  190.3250  177.3020  140.5700 C   0  0  0  0  0  0  0  0  0  0  0  0
  190.7360  176.6540  143.2740 C   0  0  0  0  0  0  0  0  0  0  0  0
  191.8190  177.0070  142.4620 C   0  0  0  0  0  3  0  0  0  0  0  0
  189.4430  176.6320  142.7270 C   0  0  0  0  0  3  0  0  0  0  0  0
  190.9720  176.3230  144.6110 O   0  0  0  0  0  0  0  0  0  0  0  0
  191.4810  177.2570  145.5540 C   0  0  0  0  0  2  0  0  0  0  0  0
  191.1830  176.7890  146.9330 C   0  0  0  0  0  0  0  0  0  0  0  0
  189.8970  176.3880  147.2650 O   0  0  0  0  0  0  0  0  0  0  0  0
  192.1030  176.7220  147.7900 O   0  0  0  0  0  1  0  0  0  0  0  0
  190.3790  174.1970  137.6210 O   0  0  0  0  0  0  0  0  0  0  0  0
  192.6150  174.6950  137.2060 C   0  0  0  0  0  0  0  0  0  0  0  0
  191.5080  173.7540  136.8890 C   0  0  0  0  0  2  0  0  0  0  0  0
  192.1380  175.6600  137.9350 C   0  0  0  0  0  3  0  0  0  0  0  0
  190.7680  175.3900  138.1540 N   0  0  0  0  0  0  0  0  0  0  0  0
  195.9490  175.8240  135.8070 N   0  0  0  0  0  0  0  0  0  0  0  0
  196.3920  174.1500  137.4770 C   0  0  0  0  0  2  0  0  0  0  0  0
  194.0400  174.6080  136.7450 C   0  0  2  0  0  3  0  0  0  0  0  0
  194.9500  174.1810  137.9020 C   0  0  0  0  0  2  0  0  0  0  0  0
  194.5420  175.9410  136.1840 C   0  0  0  0  0  2  0  0  0  0  0  0
  196.8440  174.9520  136.5080 C   0  0  0  0  0  3  0  0  0  0  0  0
  1 29  1  6  0  0  0
  1  2  1  0  0  0  0
  2 16  1  1  0  0  0
  3  5  1  0  0  0  0
  4  3  2  0  0  0  0
  4  1  1  0  0  0  0
  5  2  1  0  0  0  0
  7 10  2  0  0  0  0
  7  9  1  0  0  0  0
  8  4  1  0  0  0  0
  9 11  1  0  0  0  0
 10 12  1  0  0  0  0
 11  6  2  0  0  0  0
 12  8  1  0  0  0  0
 12  6  1  6  0  0  0
 13 10  1  1  0  0  0
 13 12  1  0  0  0  0
 13  8  1  0  0  0  0
 14 19  1  0  0  0  0
 15 18  2  0  0  0  0
 16 15  1  0  0  0  0
 16 14  2  0  0  0  0
 17 20  1  0  0  0  0
 18 17  1  0  0  0  0
 19 17  2  0  0  0  0
 20 21  1  0  0  0  0
 21 22  1  0  0  0  0
 22 23  2  0  0  0  0
 22 24  1  0  0  0  0
 25 29  1  0  0  0  0
 26 28  2  0  0  0  0
 27 26  1  0  0  0  0
 27 25  1  0  0  0  0
 28 29  1  0  0  0  0
 30 34  1  0  0  0  0
 30 35  2  0  0  0  0
 31 33  1  0  0  0  0
 32 26  1  1  0  0  0
 32 33  1  0  0  0  0
 34 32  1  0  0  0  0
 35 31  1  0  0  0  0
M  END
>  <MODEL>
5

>  <REMARK>
 VINA RESULT:      -7.1      3.218      9.492
  Name = 
  7 active torsions:
  status: ('A' for Active; 'I' for Inactive)
    1  A    between atoms: C_3  and  N_26
    2  A    between atoms: N_5  and  C_33
    3  A    between atoms: C_6  and  C_19
    4  A    between atoms: C_10  and  C_12
    5  A    between atoms: O_13  and  C_24
    6  A    between atoms: O_13  and  C_27
    7  A    between atoms: C_25  and  C_27
                            x       y       z     vdW  Elec       q    Type
                         _______ _______ _______ _____ _____    ______ ____

>  <TORSDO>
F 7

$$$$
=
 OpenBabel10222418053D

 35 41  0  0  1  0  0  0  0  0999 V2000
  186.5170  178.4820  139.9700 C   0  0  0  0  0  0  0  0  0  0  0  0
  186.7940  179.1040  141.2980 C   0  0  1  0  0  3  0  0  0  0  0  0
  184.4800  178.6450  140.9670 N   0  0  0  0  0  0  0  0  0  0  0  0
  185.2200  178.2660  139.8220 C   0  0  0  0  0  0  0  0  0  0  0  0
  185.4100  179.1650  141.9600 C   0  0  0  0  0  3  0  0  0  0  0  0
  182.1900  178.8740  137.9860 C   0  0  0  0  0  3  0  0  0  0  0  0
  182.8470  177.1250  135.7310 C   0  0  0  0  0  3  0  0  0  0  0  0
  184.5850  177.8110  138.6250 N   0  0  0  0  0  0  0  0  0  0  0  0
  181.6470  177.8790  135.7710 C   0  0  0  0  0  2  0  0  0  0  0  0
  183.6630  177.2870  136.8330 C   0  0  0  0  0  0  0  0  0  0  0  0
  181.3260  178.7330  136.8720 C   0  0  0  0  0  3  0  0  0  0  0  0
  183.3490  178.1230  137.9130 C   0  0  1  0  0  0  0  0  0  0  0  0
  184.8760  176.9730  137.5200 C   0  0  2  0  0  3  0  0  0  0  0  0
  189.1180  178.6030  142.0610 C   0  0  0  0  0  3  0  0  0  0  0  0
  187.3310  177.1800  142.8600 C   0  0  0  0  0  3  0  0  0  0  0  0
  187.7580  178.2810  142.1030 C   0  0  0  0  0  0  0  0  0  0  0  0
  189.6170  176.7440  143.5460 C   0  0  0  0  0  0  0  0  0  0  0  0
  188.2570  176.4200  143.5800 C   0  0  0  0  0  3  0  0  0  0  0  0
  190.0440  177.8400  142.7790 C   0  0  0  0  0  3  0  0  0  0  0  0
  190.5170  175.9710  144.2840 O   0  0  0  0  0  0  0  0  0  0  0  0
  191.6810  176.5190  144.8910 C   0  0  0  0  0  2  0  0  0  0  0  0
  191.5950  176.3620  146.3670 C   0  0  0  0  0  0  0  0  0  0  0  0
  190.5720  176.9800  147.0710 O   0  0  0  0  0  1  0  0  0  0  0  0
  192.4300  175.6410  146.9750 O   0  0  0  0  0  0  0  0  0  0  0  0
  188.3380  179.1890  138.5320 O   0  0  0  0  0  0  0  0  0  0  0  0
  189.3790  177.1060  138.5600 C   0  0  0  0  0  0  0  0  0  0  0  0
  189.5940  178.5610  138.3420 C   0  0  0  0  0  2  0  0  0  0  0  0
  188.1570  176.9280  138.9700 C   0  0  0  0  0  3  0  0  0  0  0  0
  187.5310  178.1940  139.0000 N   0  0  0  0  0  0  0  0  0  0  0  0
  190.9530  173.9380  137.2080 N   0  0  0  0  0  0  0  0  0  0  0  0
  192.7330  175.4800  137.6980 C   0  0  0  0  0  2  0  0  0  0  0  0
  190.3840  176.0050  138.3930 C   0  0  2  0  0  3  0  0  0  0  0  0
  191.7290  176.5750  137.9330 C   0  0  0  0  0  2  0  0  0  0  0  0
  189.9180  174.9550  137.3820 C   0  0  0  0  0  2  0  0  0  0  0  0
  192.3450  174.2560  137.3310 C   0  0  0  0  0  3  0  0  0  0  0  0
  1  2  1  0  0  0  0
  2  5  1  0  0  0  0
  2 16  1  1  0  0  0
  3  5  2  0  0  0  0
  4  1  2  0  0  0  0
  4  3  1  0  0  0  0
  7  9  1  0  0  0  0
  7 10  2  0  0  0  0
  8  4  1  0  0  0  0
  9 11  1  0  0  0  0
 10 12  1  0  0  0  0
 11  6  2  0  0  0  0
 12  6  1  6  0  0  0
 12  8  1  0  0  0  0
 13 10  1  6  0  0  0
 13 12  1  0  0  0  0
 13  8  1  0  0  0  0
 14 16  2  0  0  0  0
 14 19  1  0  0  0  0
 15 18  2  0  0  0  0
 16 15  1  0  0  0  0
 17 18  1  0  0  0  0
 17 20  1  0  0  0  0
 19 17  2  0  0  0  0
 20 21  1  0  0  0  0
 21 22  1  0  0  0  0
 22 24  2  0  0  0  0
 22 23  1  0  0  0  0
 25 29  1  0  0  0  0
 26 28  2  0  0  0  0
 27 25  1  0  0  0  0
 27 26  1  0  0  0  0
 28 29  1  0  0  0  0
 29  1  1  0  0  0  0
 30 35  2  0  0  0  0
 30 34  1  0  0  0  0
 31 33  1  0  0  0  0
 32 26  1  6  0  0  0
 33 32  1  0  0  0  0
 34 32  1  0  0  0  0
 35 31  1  0  0  0  0
M  END
>  <MODEL>
6

>  <REMARK>
 VINA RESULT:      -7.0      3.484      8.896
  Name = 
  7 active torsions:
  status: ('A' for Active; 'I' for Inactive)
    1  A    between atoms: C_3  and  N_26
    2  A    between atoms: N_5  and  C_33
    3  A    between atoms: C_6  and  C_19
    4  A    between atoms: C_10  and  C_12
    5  A    between atoms: O_13  and  C_24
    6  A    between atoms: O_13  and  C_27
    7  A    between atoms: C_25  and  C_27
                            x       y       z     vdW  Elec       q    Type
                         _______ _______ _______ _____ _____    ______ ____

>  <TORSDO>
F 7

$$$$
=
 OpenBabel10222418053D

 35 41  0  0  1  0  0  0  0  0999 V2000
  189.6320  177.8640  140.0100 C   0  0  0  0  0  0  0  0  0  0  0  0
  191.0890  177.6460  139.7650 C   0  0  1  0  0  3  0  0  0  0  0  0
  190.4530  177.1470  142.0060 N   0  0  0  0  0  0  0  0  0  0  0  0
  189.3300  177.5960  141.2700 C   0  0  0  0  0  0  0  0  0  0  0  0
  191.6040  177.1280  141.1140 C   0  0  0  0  0  3  0  0  0  0  0  0
  187.8360  177.3240  144.5280 C   0  0  0  0  0  3  0  0  0  0  0  0
  185.2400  178.4440  143.7640 C   0  0  0  0  0  3  0  0  0  0  0  0
  188.0620  177.8240  141.8870 N   0  0  0  0  0  0  0  0  0  0  0  0
  185.5250  178.0500  145.0960 C   0  0  0  0  0  2  0  0  0  0  0  0
  186.2800  178.2540  142.8760 C   0  0  0  0  0  0  0  0  0  0  0  0
  186.7920  177.5020  145.4690 C   0  0  0  0  0  3  0  0  0  0  0  0
  187.5220  177.7180  143.2400 C   0  0  1  0  0  0  0  0  0  0  0  0
  186.7960  178.3640  141.5470 C   0  0  1  0  0  3  0  0  0  0  0  0
  192.4860  176.7530  137.8980 C   0  0  0  0  0  3  0  0  0  0  0  0
  190.3800  175.6550  138.3630 C   0  0  0  0  0  3  0  0  0  0  0  0
  191.3200  176.6530  138.6630 C   0  0  0  0  0  0  0  0  0  0  0  0
  191.7830  174.8540  136.5540 C   0  0  0  0  0  0  0  0  0  0  0  0
  190.6140  174.7590  137.3150 C   0  0  0  0  0  3  0  0  0  0  0  0
  192.7190  175.8580  136.8490 C   0  0  0  0  0  3  0  0  0  0  0  0
  191.9940  173.9370  135.5200 O   0  0  0  0  0  0  0  0  0  0  0  0
  191.9610  172.5300  135.7230 C   0  0  0  0  0  2  0  0  0  0  0  0
  193.3490  171.9990  135.7660 C   0  0  0  0  0  0  0  0  0  0  0  0
  194.4200  172.8350  135.4840 O   0  0  0  0  0  0  0  0  0  0  0  0
  193.5570  170.8010  136.0930 O   0  0  0  0  0  1  0  0  0  0  0  0
  189.0550  179.3630  138.1930 O   0  0  0  0  0  0  0  0  0  0  0  0
  187.6190  177.8370  137.1780 C   0  0  0  0  0  0  0  0  0  0  0  0
  188.4640  179.0390  136.9470 C   0  0  0  0  0  2  0  0  0  0  0  0
  187.8110  177.4290  138.3980 C   0  0  0  0  0  3  0  0  0  0  0  0
  188.7170  178.3240  139.0080 N   0  0  0  0  0  0  0  0  0  0  0  0
  186.2140  175.0680  135.0090 N   0  0  0  0  0  0  0  0  0  0  0  0
  184.3680  176.4260  135.7390 C   0  0  0  0  0  2  0  0  0  0  0  0
  186.7220  177.1550  136.1880 C   0  0  2  0  0  3  0  0  0  0  0  0
  185.2730  177.1620  136.6880 C   0  0  0  0  0  2  0  0  0  0  0  0
  187.1510  175.7090  135.9300 C   0  0  0  0  0  2  0  0  0  0  0  0
  184.8270  175.4270  134.9810 C   0  0  0  0  0  3  0  0  0  0  0  0
  1  4  2  0  0  0  0
  2 16  1  6  0  0  0
  2  1  1  0  0  0  0
  2  5  1  0  0  0  0
  4  8  1  0  0  0  0
  4  3  1  0  0  0  0
  5  3  2  0  0  0  0
  6 11  2  0  0  0  0
  7  9  1  0  0  0  0
  8 12  1  0  0  0  0
  9 11  1  0  0  0  0
 10 12  1  0  0  0  0
 10  7  2  0  0  0  0
 12  6  1  1  0  0  0
 13  8  1  0  0  0  0
 13 10  1  6  0  0  0
 13 12  1  0  0  0  0
 14 16  1  0  0  0  0
 15 16  2  0  0  0  0
 17 19  1  0  0  0  0
 17 18  2  0  0  0  0
 18 15  1  0  0  0  0
 19 14  2  0  0  0  0
 20 21  1  0  0  0  0
 20 17  1  0  0  0  0
 21 22  1  0  0  0  0
 22 24  1  0  0  0  0
 23 22  2  0  0  0  0
 25 29  1  0  0  0  0
 26 28  2  0  0  0  0
 27 26  1  0  0  0  0
 27 25  1  0  0  0  0
 28 29  1  0  0  0  0
 29  1  1  0  0  0  0
 30 34  1  0  0  0  0
 31 33  1  0  0  0  0
 32 33  1  0  0  0  0
 32 26  1  1  0  0  0
 34 32  1  0  0  0  0
 35 30  2  0  0  0  0
 35 31  1  0  0  0  0
M  END
>  <MODEL>
7

>  <REMARK>
 VINA RESULT:      -6.9      2.931      5.605
  Name = 
  7 active torsions:
  status: ('A' for Active; 'I' for Inactive)
    1  A    between atoms: C_3  and  N_26
    2  A    between atoms: N_5  and  C_33
    3  A    between atoms: C_6  and  C_19
    4  A    between atoms: C_10  and  C_12
    5  A    between atoms: O_13  and  C_24
    6  A    between atoms: O_13  and  C_27
    7  A    between atoms: C_25  and  C_27
                            x       y       z     vdW  Elec       q    Type
                         _______ _______ _______ _____ _____    ______ ____

>  <TORSDO>
F 7

$$$$
=
 OpenBabel10222418053D

 35 41  0  0  1  0  0  0  0  0999 V2000
  185.5480  178.1850  138.9030 C   0  0  0  0  0  0  0  0  0  0  0  0
  185.5100  179.0470  140.1210 C   0  0  1  0  0  3  0  0  0  0  0  0
  183.3840  178.1090  139.5950 N   0  0  0  0  0  0  0  0  0  0  0  0
  184.3450  177.7060  138.6370 C   0  0  0  0  0  0  0  0  0  0  0  0
  184.0500  178.9450  140.5840 C   0  0  0  0  0  3  0  0  0  0  0  0
  184.1820  174.2700  137.5930 C   0  0  0  0  0  3  0  0  0  0  0  0
  183.0240  174.8100  134.9570 C   0  0  0  0  0  3  0  0  0  0  0  0
  183.9870  176.9580  137.4730 N   0  0  0  0  0  0  0  0  0  0  0  0
  183.2830  173.4900  135.4080 C   0  0  0  0  0  2  0  0  0  0  0  0
  183.3630  175.7990  135.8590 C   0  0  0  0  0  0  0  0  0  0  0  0
  183.8490  173.2270  136.6940 C   0  0  0  0  0  3  0  0  0  0  0  0
  183.9170  175.5420  137.1200 C   0  0  1  0  0  0  0  0  0  0  0  0
  183.4250  177.1880  136.1930 C   0  0  1  0  0  3  0  0  0  0  0  0
  185.9450  177.9470  142.3200 C   0  0  0  0  0  3  0  0  0  0  0  0
  187.8490  178.7330  141.0500 C   0  0  0  0  0  3  0  0  0  0  0  0
  186.4620  178.5580  141.1740 C   0  0  0  0  0  0  0  0  0  0  0  0
  188.1920  177.6690  143.2030 C   0  0  0  0  0  0  0  0  0  0  0  0
  188.7070  178.2860  142.0590 C   0  0  0  0  0  3  0  0  0  0  0  0
  186.8040  177.5030  143.3300 C   0  0  0  0  0  3  0  0  0  0  0  0
  189.0770  177.2240  144.1890 O   0  0  0  0  0  0  0  0  0  0  0  0
  190.2800  177.9120  144.5070 C   0  0  0  0  0  2  0  0  0  0  0  0
  191.2670  176.9560  145.0760 C   0  0  0  0  0  0  0  0  0  0  0  0
  191.7250  175.8960  144.3080 O   0  0  0  0  0  0  0  0  0  0  0  0
  191.7130  177.1280  146.2410 O   0  0  0  0  0  1  0  0  0  0  0  0
  187.5000  178.9950  137.7120 O   0  0  0  0  0  0  0  0  0  0  0  0
  188.7320  177.0540  138.0880 C   0  0  0  0  0  0  0  0  0  0  0  0
  188.8290  178.5060  137.7780 C   0  0  0  0  0  2  0  0  0  0  0  0
  187.4840  176.7650  138.3150 C   0  0  0  0  0  3  0  0  0  0  0  0
  186.7340  177.9490  138.1340 N   0  0  0  0  0  0  0  0  0  0  0  0
  190.8180  173.9930  137.2980 N   0  0  0  0  0  0  0  0  0  0  0  0
  192.3290  175.7680  137.8930 C   0  0  0  0  0  2  0  0  0  0  0  0
  189.8590  176.0690  138.1790 C   0  0  2  0  0  3  0  0  0  0  0  0
  191.1940  176.7530  137.8690 C   0  0  0  0  0  2  0  0  0  0  0  0
  189.6690  174.8930  137.2180 C   0  0  0  0  0  2  0  0  0  0  0  0
  192.1330  174.4810  137.5940 C   0  0  0  0  0  3  0  0  0  0  0  0
  1  2  1  0  0  0  0
  2  5  1  0  0  0  0
  2 16  1  1  0  0  0
  3  5  2  0  0  0  0
  4  1  2  0  0  0  0
  4  3  1  0  0  0  0
  7  9  1  0  0  0  0
  7 10  2  0  0  0  0
  8  4  1  0  0  0  0
  9 11  1  0  0  0  0
 10 12  1  0  0  0  0
 11  6  2  0  0  0  0
 12  8  1  0  0  0  0
 12  6  1  1  0  0  0
 13 10  1  6  0  0  0
 13 12  1  0  0  0  0
 13  8  1  0  0  0  0
 14 19  1  0  0  0  0
 15 16  1  0  0  0  0
 15 18  2  0  0  0  0
 16 14  2  0  0  0  0
 17 19  2  0  0  0  0
 17 20  1  0  0  0  0
 18 17  1  0  0  0  0
 20 21  1  0  0  0  0
 21 22  1  0  0  0  0
 22 24  1  0  0  0  0
 23 22  2  0  0  0  0
 25 27  1  0  0  0  0
 25 29  1  0  0  0  0
 26 28  2  0  0  0  0
 27 26  1  0  0  0  0
 29 28  1  0  0  0  0
 29  1  1  0  0  0  0
 30 35  2  0  0  0  0
 32 26  1  6  0  0  0
 33 31  1  0  0  0  0
 33 32  1  0  0  0  0
 34 30  1  0  0  0  0
 34 32  1  0  0  0  0
 35 31  1  0  0  0  0
M  END
>  <MODEL>
8

>  <REMARK>
 VINA RESULT:      -6.9      3.145      8.999
  Name = 
  7 active torsions:
  status: ('A' for Active; 'I' for Inactive)
    1  A    between atoms: C_3  and  N_26
    2  A    between atoms: N_5  and  C_33
    3  A    between atoms: C_6  and  C_19
    4  A    between atoms: C_10  and  C_12
    5  A    between atoms: O_13  and  C_24
    6  A    between atoms: O_13  and  C_27
    7  A    between atoms: C_25  and  C_27
                            x       y       z     vdW  Elec       q    Type
                         _______ _______ _______ _____ _____    ______ ____

>  <TORSDO>
F 7

$$$$
=
 OpenBabel10222418053D

 35 41  0  0  1  0  0  0  0  0999 V2000
  186.7650  178.3980  140.2400 C   0  0  0  0  0  0  0  0  0  0  0  0
  187.5830  178.4740  138.9930 C   0  0  1  0  0  3  0  0  0  0  0  0
  188.8520  177.7660  140.8810 N   0  0  0  0  0  0  0  0  0  0  0  0
  187.5150  178.0240  141.2640 C   0  0  0  0  0  0  0  0  0  0  0  0
  188.9720  178.0060  139.4490 C   0  0  0  0  0  3  0  0  0  0  0  0
  184.8620  179.3320  143.3060 C   0  0  0  0  0  3  0  0  0  0  0  0
  185.6560  177.9420  145.7590 C   0  0  0  0  0  3  0  0  0  0  0  0
  187.0950  177.9790  142.6290 N   0  0  0  0  0  0  0  0  0  0  0  0
  184.5060  178.7700  145.7040 C   0  0  0  0  0  2  0  0  0  0  0  0
  186.3550  177.8540  144.5720 C   0  0  0  0  0  0  0  0  0  0  0  0
  184.1190  179.4490  144.5060 C   0  0  0  0  0  3  0  0  0  0  0  0
  185.9760  178.5190  143.3980 C   0  0  1  0  0  0  0  0  0  0  0  0
  187.4540  177.3180  143.8300 C   0  0  1  0  0  3  0  0  0  0  0  0
  187.5230  176.2910  137.7830 C   0  0  0  0  0  3  0  0  0  0  0  0
  186.0510  178.0520  137.0170 C   0  0  0  0  0  3  0  0  0  0  0  0
  187.0260  177.5910  137.9140 C   0  0  0  0  0  0  0  0  0  0  0  0
  186.0600  175.9100  135.8790 C   0  0  0  0  0  0  0  0  0  0  0  0
  185.5690  177.2130  136.0080 C   0  0  0  0  0  3  0  0  0  0  0  0
  187.0430  175.4530  136.7710 C   0  0  0  0  0  3  0  0  0  0  0  0
  185.5520  175.0910  134.8670 O   0  0  0  0  0  0  0  0  0  0  0  0
  184.2070  174.6290  134.8570 C   0  0  0  0  0  2  0  0  0  0  0  0
  184.0460  173.5400  135.8560 C   0  0  0  0  0  0  0  0  0  0  0  0
  184.8280  172.3970  135.7670 O   0  0  0  0  0  0  0  0  0  0  0  0
  183.2250  173.6670  136.8020 O   0  0  0  0  0  1  0  0  0  0  0  0
  184.9120  179.8930  139.7770 O   0  0  0  0  0  0  0  0  0  0  0  0
  183.3450  178.1730  139.6620 C   0  0  0  0  0  0  0  0  0  0  0  0
  183.6410  179.5690  139.2410 C   0  0  0  0  0  2  0  0  0  0  0  0
  184.3960  177.6950  140.2620 C   0  0  0  0  0  3  0  0  0  0  0  0
  185.3690  178.7180  140.2950 N   0  0  0  0  0  0  0  0  0  0  0  0
  181.0720  175.1770  139.2200 N   0  0  0  0  0  0  0  0  0  0  0  0
  179.7960  176.9020  140.3050 C   0  0  0  0  0  2  0  0  0  0  0  0
  182.0850  177.3990  139.4170 C   0  0  2  0  0  3  0  0  0  0  0  0
  181.0450  177.7170  140.4960 C   0  0  0  0  0  2  0  0  0  0  0  0
  182.3360  175.8890  139.4000 C   0  0  0  0  0  2  0  0  0  0  0  0
  179.8380  175.6990  139.7270 C   0  0  0  0  0  3  0  0  0  0  0  0
  1 29  1  0  0  0  0
  1  4  2  0  0  0  0
  2 16  1  6  0  0  0
  2  5  1  0  0  0  0
  2  1  1  0  0  0  0
  3  4  1  0  0  0  0
  4  8  1  0  0  0  0
  5  3  2  0  0  0  0
  6 11  2  0  0  0  0
  8 12  1  0  0  0  0
  8 13  1  0  0  0  0
  9  7  1  0  0  0  0
 10  7  2  0  0  0  0
 11  9  1  0  0  0  0
 12  6  1  6  0  0  0
 12 13  1  0  0  0  0
 12 10  1  0  0  0  0
 13 10  1  1  0  0  0
 14 16  1  0  0  0  0
 15 16  2  0  0  0  0
 17 18  2  0  0  0  0
 17 19  1  0  0  0  0
 18 15  1  0  0  0  0
 19 14  2  0  0  0  0
 20 17  1  0  0  0  0
 21 20  1  0  0  0  0
 21 22  1  0  0  0  0
 22 24  1  0  0  0  0
 23 22  2  0  0  0  0
 25 29  1  0  0  0  0
 26 28  2  0  0  0  0
 27 26  1  0  0  0  0
 27 25  1  0  0  0  0
 28 29  1  0  0  0  0
 30 34  1  0  0  0  0
 30 35  2  0  0  0  0
 31 33  1  0  0  0  0
 32 26  1  1  0  0  0
 32 33  1  0  0  0  0
 34 32  1  0  0  0  0
 35 31  1  0  0  0  0
M  END
>  <MODEL>
9

>  <REMARK>
 VINA RESULT:      -6.9      3.171      4.809
  Name = 
  7 active torsions:
  status: ('A' for Active; 'I' for Inactive)
    1  A    between atoms: C_3  and  N_26
    2  A    between atoms: N_5  and  C_33
    3  A    between atoms: C_6  and  C_19
    4  A    between atoms: C_10  and  C_12
    5  A    between atoms: O_13  and  C_24
    6  A    between atoms: O_13  and  C_27
    7  A    between atoms: C_25  and  C_27
                            x       y       z     vdW  Elec       q    Type
                         _______ _______ _______ _____ _____    ______ ____

>  <TORSDO>
F 7

$$$$
