=
 OpenBabel10222419303D

 42 47  0  0  1  0  0  0  0  0999 V2000
  188.0390  176.0830  137.5470 N   0  0  0  0  0  2  0  0  0  0  0  0
  192.2540  176.2180  136.8250 C   0  0  0  0  0  0  0  0  0  0  0  0
  190.3420  176.3090  138.5650 C   0  0  2  0  0  3  0  0  0  0  0  0
  191.8090  176.2860  138.2290 C   0  0  0  0  0  0  0  0  0  0  0  0
  189.9460  176.0590  136.1490 N   0  0  0  0  0  0  0  0  0  0  0  0
  191.3510  176.1070  135.8550 C   0  0  0  0  0  3  0  0  0  0  0  0
  192.6550  176.3220  139.1640 O   0  0  0  0  0  0  0  0  0  0  0  0
  189.4550  176.1440  137.3540 C   0  0  0  0  0  0  0  0  0  0  0  0
  193.6510  176.2580  136.4870 C   0  0  0  0  0  0  0  0  0  0  0  0
  194.7750  176.2910  136.2140 N   0  0  0  0  0  0  0  0  0  0  0  0
  187.1840  175.8790  136.5140 O   0  0  0  0  0  0  0  0  0  0  0  0
  185.9050  177.2220  137.9200 C   0  0  2  0  0  3  0  0  0  0  0  0
  186.9300  178.0710  137.2950 N   0  0  0  0  0  2  0  0  0  0  0  0
  186.3120  176.9700  136.5430 C   0  0  1  0  0  3  0  0  0  0  0  0
  184.5620  177.9270  137.9120 C   0  0  0  0  0  2  0  0  0  0  0  0
  183.9620  177.9280  139.3080 C   0  0  0  0  0  2  0  0  0  0  0  0
  184.3210  179.1970  140.0090 C   0  0  0  0  0  0  0  0  0  0  0  0
  184.6560  180.2020  139.3270 O   0  0  0  0  0  0  0  0  0  0  0  0
  184.3190  179.2880  141.4340 N   0  0  0  0  0  2  0  0  0  0  0  0
  185.2770  177.6870  143.0390 C   0  0  0  0  0  2  0  0  0  0  0  0
  182.9420  178.5540  143.3490 C   0  0  2  0  0  3  0  0  0  0  0  0
  185.7910  178.7490  144.0110 C   0  0  0  0  0  2  0  0  0  0  0  0
  183.4660  179.6310  144.2970 C   0  0  0  0  0  2  0  0  0  0  0  0
  184.0090  178.1610  142.3160 C   0  0  1  0  0  3  0  0  0  0  0  0
  181.6670  179.0280  142.6740 C   0  0  0  0  0  1  0  0  0  0  0  0
  184.7080  179.1180  145.0210 C   0  0  0  0  0  2  0  0  0  0  0  0
  190.0240  177.4970  139.2380 O   0  0  0  0  0  0  0  0  0  0  0  0
  188.5930  178.6370  142.0660 C   0  0  0  0  0  2  0  0  0  0  0  0
  189.6150  177.8170  142.6950 N   0  0  0  0  0  0  0  0  0  0  0  0
  188.2430  177.9860  140.7450 C   0  0  0  0  0  2  0  0  0  0  0  0
  189.4140  177.0850  140.4260 C   0  0  2  0  0  3  0  0  0  0  0  0
  190.3740  177.2550  141.5860 C   0  0  0  0  0  2  0  0  0  0  0  0
  190.5010  178.7150  143.4220 C   0  0  0  0  0  2  0  0  0  0  0  0
  191.6500  177.0090  144.8700 C   0  0  0  0  0  2  0  0  0  0  0  0
  190.8770  176.8260  147.2800 C   0  0  0  0  0  2  0  0  0  0  0  0
  188.3600  176.5860  147.4060 C   0  0  0  0  0  2  0  0  0  0  0  0
  187.9590  177.6770  148.3820 C   0  0  0  0  0  2  0  0  0  0  0  0
  189.3470  177.8770  145.4700 C   0  0  0  0  0  2  0  0  0  0  0  0
  191.4540  176.0810  146.0790 C   0  0  0  0  0  2  0  0  0  0  0  0
  190.6990  178.2200  144.8460 C   0  0  2  0  0  3  0  0  0  0  0  0
  189.5160  177.4420  146.9320 C   0  0  0  0  0  0  0  0  0  0  0  0
  189.1210  178.5330  147.9060 C   0  0  0  0  0  2  0  0  0  0  0  0
  2  4  1  0  0  0  0
  3 27  1  6  0  0  0
  4  3  1  0  0  0  0
  4  7  2  0  0  0  0
  5  8  2  0  0  0  0
  6  5  1  0  0  0  0
  6  2  2  0  0  0  0
  8  1  1  0  0  0  0
  8  3  1  0  0  0  0
  9  2  1  0  0  0  0
 10  9  3  0  0  0  0
 11  1  1  0  0  0  0
 12 15  1  6  0  0  0
 13 12  1  0  0  0  0
 14 11  1  1  0  0  0
 14 13  1  0  0  0  0
 14 12  1  0  0  0  0
 15 16  1  0  0  0  0
 16 17  1  0  0  0  0
 17 19  1  0  0  0  0
 18 17  2  0  0  0  0
 20 22  1  0  0  0  0
 21 25  1  6  0  0  0
 21 23  1  0  0  0  0
 22 26  1  0  0  0  0
 23 26  1  0  0  0  0
 24 19  1  1  0  0  0
 24 20  1  0  0  0  0
 24 21  1  0  0  0  0
 28 29  1  0  0  0  0
 29 33  1  0  0  0  0
 30 28  1  0  0  0  0
 31 27  1  6  0  0  0
 31 30  1  0  0  0  0
 31 32  1  0  0  0  0
 32 29  1  0  0  0  0
 34 39  1  0  0  0  0
 36 37  1  0  0  0  0
 38 41  1  0  0  0  0
 39 35  1  0  0  0  0
 40 33  1  6  0  0  0
 40 34  1  0  0  0  0
 40 38  1  0  0  0  0
 41 35  1  0  0  0  0
 41 36  1  0  0  0  0
 41 42  1  0  0  0  0
 42 37  1  0  0  0  0
M  END
>  <MODEL>
1

>  <REMARK>
 VINA RESULT:      -9.0      0.000      0.000
  Name = 
  11 active torsions:
  status: ('A' for Active; 'I' for Inactive)
    1  A    between atoms: C_3  and  C_10
    2  A    between atoms: C_3  and  C_15
    3  A    between atoms: O_4  and  N_7
    4  A    between atoms: O_4  and  C_37
    5  A    between atoms: C_5  and  N_21
    6  A    between atoms: C_5  and  C_31
    7  A    between atoms: O_6  and  C_12
    8  A    between atoms: O_6  and  C_26
    9  A    between atoms: C_9  and  C_22
   10  A    between atoms: C_15  and  C_17
   11  A    between atoms: C_24  and  N_28
                            x       y       z     vdW  Elec       q    Type
                         _______ _______ _______ _____ _____    ______ ____

>  <TORSDO>
F 11

$$$$
=
 OpenBabel10222419303D

 42 47  0  0  1  0  0  0  0  0999 V2000
  187.2630  178.2690  145.3250 N   0  0  0  0  0  2  0  0  0  0  0  0
  190.9190  176.6470  146.8430 C   0  0  0  0  0  0  0  0  0  0  0  0
  189.6840  177.7250  144.8410 C   0  0  2  0  0  3  0  0  0  0  0  0
  190.9430  177.1930  145.4740 C   0  0  0  0  0  0  0  0  0  0  0  0
  188.5900  177.2480  146.9950 N   0  0  0  0  0  0  0  0  0  0  0  0
  189.7910  176.6870  147.5470 C   0  0  0  0  0  3  0  0  0  0  0  0
  192.0200  177.2250  144.8200 O   0  0  0  0  0  0  0  0  0  0  0  0
  188.5040  177.7270  145.7840 C   0  0  0  0  0  0  0  0  0  0  0  0
  192.1000  176.0800  147.4360 C   0  0  0  0  0  0  0  0  0  0  0  0
  193.0490  175.6230  147.9130 N   0  0  0  0  0  0  0  0  0  0  0  0
  186.1770  178.3570  146.1330 O   0  0  0  0  0  0  0  0  0  0  0  0
  184.5870  178.4420  144.4360 C   0  0  2  0  0  3  0  0  0  0  0  0
  183.9120  178.7610  145.7030 N   0  0  0  0  0  2  0  0  0  0  0  0
  185.2920  179.2020  145.4600 C   0  0  1  0  0  3  0  0  0  0  0  0
  184.1330  179.3930  143.3450 C   0  0  0  0  0  2  0  0  0  0  0  0
  183.5410  178.6140  142.1830 C   0  0  0  0  0  2  0  0  0  0  0  0
  184.1830  179.0480  140.9060 C   0  0  0  0  0  0  0  0  0  0  0  0
  185.3150  179.5990  140.9440 O   0  0  0  0  0  0  0  0  0  0  0  0
  183.5300  178.8760  139.6470 N   0  0  0  0  0  2  0  0  0  0  0  0
  181.1760  179.4100  139.1720 C   0  0  0  0  0  2  0  0  0  0  0  0
  182.1660  177.2370  138.3990 C   0  0  2  0  0  3  0  0  0  0  0  0
  181.4410  180.0130  137.7920 C   0  0  0  0  0  2  0  0  0  0  0  0
  182.4550  177.8540  137.0320 C   0  0  0  0  0  2  0  0  0  0  0  0
  182.1890  178.3070  139.5020 C   0  0  1  0  0  3  0  0  0  0  0  0
  183.1560  176.1230  138.6890 C   0  0  0  0  0  1  0  0  0  0  0  0
  181.4140  178.9260  136.7210 C   0  0  0  0  0  2  0  0  0  0  0  0
  189.3800  176.9870  143.6900 O   0  0  0  0  0  0  0  0  0  0  0  0
  188.2800  177.7460  140.5970 C   0  0  0  0  0  2  0  0  0  0  0  0
  189.6870  177.5970  140.2610 N   0  0  0  0  0  0  0  0  0  0  0  0
  188.2080  178.2330  142.0280 C   0  0  0  0  0  2  0  0  0  0  0  0
  189.5500  177.8860  142.6320 C   0  0  2  0  0  3  0  0  0  0  0  0
  190.3300  177.2260  141.5140 C   0  0  0  0  0  2  0  0  0  0  0  0
  189.7960  176.4610  139.3570 C   0  0  0  0  0  2  0  0  0  0  0  0
  189.4470  178.3750  137.7640 C   0  0  0  0  0  2  0  0  0  0  0  0
  188.1270  177.8960  135.6500 C   0  0  0  0  0  2  0  0  0  0  0  0
  185.9370  176.7470  136.1930 C   0  0  0  0  0  2  0  0  0  0  0  0
  185.9580  175.5250  135.2920 C   0  0  0  0  0  2  0  0  0  0  0  0
  187.9080  176.3640  137.7300 C   0  0  0  0  0  2  0  0  0  0  0  0
  188.4900  178.9410  136.7030 C   0  0  0  0  0  2  0  0  0  0  0  0
  189.3360  176.8520  137.9620 C   0  0  2  0  0  3  0  0  0  0  0  0
  187.4470  176.6850  136.3010 C   0  0  0  0  0  0  0  0  0  0  0  0
  187.4730  175.4680  135.4010 C   0  0  0  0  0  2  0  0  0  0  0  0
  1  8  1  0  0  0  0
  1 11  1  0  0  0  0
  2  9  1  0  0  0  0
  2  6  2  0  0  0  0
  3 27  1  6  0  0  0
  3  4  1  0  0  0  0
  3  8  1  0  0  0  0
  4  2  1  0  0  0  0
  5  6  1  0  0  0  0
  7  4  2  0  0  0  0
  8  5  2  0  0  0  0
  9 10  3  0  0  0  0
 12 15  1  6  0  0  0
 12 14  1  0  0  0  0
 12 13  1  0  0  0  0
 14 13  1  0  0  0  0
 14 11  1  1  0  0  0
 16 15  1  0  0  0  0
 17 18  2  0  0  0  0
 17 16  1  0  0  0  0
 19 17  1  0  0  0  0
 20 24  1  0  0  0  0
 21 25  1  1  0  0  0
 21 24  1  0  0  0  0
 22 20  1  0  0  0  0
 23 21  1  0  0  0  0
 24 19  1  6  0  0  0
 26 23  1  0  0  0  0
 26 22  1  0  0  0  0
 28 30  1  0  0  0  0
 29 28  1  0  0  0  0
 29 32  1  0  0  0  0
 30 31  1  0  0  0  0
 31 27  1  1  0  0  0
 32 31  1  0  0  0  0
 33 29  1  0  0  0  0
 34 40  1  0  0  0  0
 35 41  1  0  0  0  0
 35 39  1  0  0  0  0
 36 41  1  0  0  0  0
 37 42  1  0  0  0  0
 37 36  1  0  0  0  0
 38 40  1  0  0  0  0
 39 34  1  0  0  0  0
 40 33  1  1  0  0  0
 41 38  1  0  0  0  0
 42 41  1  0  0  0  0
M  END
>  <MODEL>
2

>  <REMARK>
 VINA RESULT:      -8.5      2.727      7.911
  Name = 
  11 active torsions:
  status: ('A' for Active; 'I' for Inactive)
    1  A    between atoms: C_3  and  C_10
    2  A    between atoms: C_3  and  C_15
    3  A    between atoms: O_4  and  N_7
    4  A    between atoms: O_4  and  C_37
    5  A    between atoms: C_5  and  N_21
    6  A    between atoms: C_5  and  C_31
    7  A    between atoms: O_6  and  C_12
    8  A    between atoms: O_6  and  C_26
    9  A    between atoms: C_9  and  C_22
   10  A    between atoms: C_15  and  C_17
   11  A    between atoms: C_24  and  N_28
                            x       y       z     vdW  Elec       q    Type
                         _______ _______ _______ _____ _____    ______ ____

>  <TORSDO>
F 11

$$$$
=
 OpenBabel10222419303D

 42 47  0  0  1  0  0  0  0  0999 V2000
  187.0380  178.2820  144.8940 N   0  0  0  0  0  2  0  0  0  0  0  0
  190.6360  176.7740  146.6500 C   0  0  0  0  0  0  0  0  0  0  0  0
  189.5000  177.8100  144.5690 C   0  0  2  0  0  3  0  0  0  0  0  0
  190.7310  177.3180  145.2840 C   0  0  0  0  0  0  0  0  0  0  0  0
  188.2860  177.3060  146.6500 N   0  0  0  0  0  0  0  0  0  0  0  0
  189.4640  176.7830  147.2800 C   0  0  0  0  0  3  0  0  0  0  0  0
  191.8470  177.3800  144.6990 O   0  0  0  0  0  0  0  0  0  0  0  0
  188.2630  177.7790  145.4340 C   0  0  0  0  0  0  0  0  0  0  0  0
  191.7930  176.2440  147.3200 C   0  0  0  0  0  0  0  0  0  0  0  0
  192.7230  175.8180  147.8600 N   0  0  0  0  0  0  0  0  0  0  0  0
  185.9010  178.3400  145.6310 O   0  0  0  0  0  0  0  0  0  0  0  0
  184.0720  178.3360  144.1910 C   0  0  2  0  0  3  0  0  0  0  0  0
  183.6720  179.0280  145.4250 N   0  0  0  0  0  2  0  0  0  0  0  0
  185.0390  179.1640  144.9030 C   0  0  1  0  0  3  0  0  0  0  0  0
  183.5750  179.0990  142.9770 C   0  0  0  0  0  2  0  0  0  0  0  0
  183.6950  178.2380  141.7320 C   0  0  0  0  0  2  0  0  0  0  0  0
  184.0870  179.0890  140.5680 C   0  0  0  0  0  0  0  0  0  0  0  0
  185.2470  179.5780  140.5270 O   0  0  0  0  0  0  0  0  0  0  0  0
  183.1670  179.3820  139.5150 N   0  0  0  0  0  2  0  0  0  0  0  0
  180.8180  180.1070  139.5920 C   0  0  0  0  0  2  0  0  0  0  0  0
  181.4870  178.1120  138.2240 C   0  0  2  0  0  3  0  0  0  0  0  0
  180.8970  180.9820  138.3400 C   0  0  0  0  0  2  0  0  0  0  0  0
  181.5920  178.9960  136.9830 C   0  0  0  0  0  2  0  0  0  0  0  0
  181.7800  178.9160  139.5000 C   0  0  1  0  0  3  0  0  0  0  0  0
  182.4170  176.9190  138.0960 C   0  0  0  0  0  1  0  0  0  0  0  0
  180.6030  180.1540  137.0920 C   0  0  0  0  0  2  0  0  0  0  0  0
  189.2930  177.0600  143.4040 O   0  0  0  0  0  0  0  0  0  0  0  0
  188.4280  178.1680  140.3420 C   0  0  0  0  0  2  0  0  0  0  0  0
  189.7310  177.6330  139.9830 N   0  0  0  0  0  0  0  0  0  0  0  0
  188.5090  178.6240  141.7830 C   0  0  0  0  0  2  0  0  0  0  0  0
  189.7020  177.8970  142.3610 C   0  0  2  0  0  3  0  0  0  0  0  0
  190.2530  177.0670  141.2190 C   0  0  0  0  0  2  0  0  0  0  0  0
  189.5060  176.5340  139.0560 C   0  0  0  0  0  2  0  0  0  0  0  0
  190.0440  176.7190  136.6070 C   0  0  0  0  0  2  0  0  0  0  0  0
  192.3610  175.9900  135.8720 C   0  0  0  0  0  2  0  0  0  0  0  0
  192.9030  173.6800  136.7550 C   0  0  0  0  0  2  0  0  0  0  0  0
  194.2450  173.8790  137.4360 C   0  0  0  0  0  2  0  0  0  0  0  0
  191.3480  175.1460  138.1040 C   0  0  0  0  0  2  0  0  0  0  0  0
  190.8910  176.1110  135.4780 C   0  0  0  0  0  2  0  0  0  0  0  0
  190.6150  176.4840  138.0180 C   0  0  2  0  0  3  0  0  0  0  0  0
  192.5180  175.1010  137.1120 C   0  0  0  0  0  0  0  0  0  0  0  0
  193.8560  175.3050  137.7910 C   0  0  0  0  0  2  0  0  0  0  0  0
  1  8  1  0  0  0  0
  1 11  1  0  0  0  0
  2  6  2  0  0  0  0
  2  9  1  0  0  0  0
  3 27  1  6  0  0  0
  3  4  1  0  0  0  0
  3  8  1  0  0  0  0
  4  2  1  0  0  0  0
  5  6  1  0  0  0  0
  7  4  2  0  0  0  0
  8  5  2  0  0  0  0
  9 10  3  0  0  0  0
 12 15  1  6  0  0  0
 12 14  1  0  0  0  0
 12 13  1  0  0  0  0
 14 13  1  0  0  0  0
 14 11  1  1  0  0  0
 16 15  1  0  0  0  0
 17 16  1  0  0  0  0
 18 17  2  0  0  0  0
 19 17  1  0  0  0  0
 21 25  1  6  0  0  0
 21 24  1  0  0  0  0
 22 20  1  0  0  0  0
 23 26  1  0  0  0  0
 23 21  1  0  0  0  0
 24 19  1  6  0  0  0
 24 20  1  0  0  0  0
 26 22  1  0  0  0  0
 28 30  1  0  0  0  0
 29 28  1  0  0  0  0
 29 32  1  0  0  0  0
 30 31  1  0  0  0  0
 31 27  1  1  0  0  0
 32 31  1  0  0  0  0
 33 29  1  0  0  0  0
 34 40  1  0  0  0  0
 35 41  1  0  0  0  0
 36 41  1  0  0  0  0
 36 37  1  0  0  0  0
 37 42  1  0  0  0  0
 39 35  1  0  0  0  0
 39 34  1  0  0  0  0
 40 38  1  0  0  0  0
 40 33  1  1  0  0  0
 41 42  1  0  0  0  0
 41 38  1  0  0  0  0
M  END
>  <MODEL>
3

>  <REMARK>
 VINA RESULT:      -8.5      2.712      7.794
  Name = 
  11 active torsions:
  status: ('A' for Active; 'I' for Inactive)
    1  A    between atoms: C_3  and  C_10
    2  A    between atoms: C_3  and  C_15
    3  A    between atoms: O_4  and  N_7
    4  A    between atoms: O_4  and  C_37
    5  A    between atoms: C_5  and  N_21
    6  A    between atoms: C_5  and  C_31
    7  A    between atoms: O_6  and  C_12
    8  A    between atoms: O_6  and  C_26
    9  A    between atoms: C_9  and  C_22
   10  A    between atoms: C_15  and  C_17
   11  A    between atoms: C_24  and  N_28
                            x       y       z     vdW  Elec       q    Type
                         _______ _______ _______ _____ _____    ______ ____

>  <TORSDO>
F 11

$$$$
=
 OpenBabel10222419303D

 42 47  0  0  1  0  0  0  0  0999 V2000
  187.1800  177.7160  144.6920 N   0  0  0  0  0  2  0  0  0  0  0  0
  190.7640  176.7510  146.8210 C   0  0  0  0  0  0  0  0  0  0  0  0
  189.7050  177.6310  144.6300 C   0  0  2  0  0  3  0  0  0  0  0  0
  190.9160  177.3230  145.4710 C   0  0  0  0  0  0  0  0  0  0  0  0
  188.3720  176.9160  146.5720 N   0  0  0  0  0  0  0  0  0  0  0  0
  189.5450  176.5700  147.3240 C   0  0  0  0  0  3  0  0  0  0  0  0
  192.0640  177.5650  145.0080 O   0  0  0  0  0  0  0  0  0  0  0  0
  188.4040  177.3980  145.3600 C   0  0  0  0  0  0  0  0  0  0  0  0
  191.9120  176.3950  147.6100 C   0  0  0  0  0  0  0  0  0  0  0  0
  192.8350  176.1080  148.2450 N   0  0  0  0  0  0  0  0  0  0  0  0
  185.9760  177.5880  145.3050 O   0  0  0  0  0  0  0  0  0  0  0  0
  183.8280  178.4660  145.1260 C   0  0  2  0  0  3  0  0  0  0  0  0
  184.5750  179.2940  146.0850 N   0  0  0  0  0  2  0  0  0  0  0  0
  185.2490  178.7140  144.9140 C   0  0  1  0  0  3  0  0  0  0  0  0
  183.0310  179.3460  144.1820 C   0  0  0  0  0  2  0  0  0  0  0  0
  181.9950  178.5170  143.4420 C   0  0  0  0  0  2  0  0  0  0  0  0
  181.6250  179.1970  142.1650 C   0  0  0  0  0  0  0  0  0  0  0  0
  180.7670  180.1190  142.1850 O   0  0  0  0  0  0  0  0  0  0  0  0
  182.2040  178.8070  140.9180 N   0  0  0  0  0  2  0  0  0  0  0  0
  182.6190  176.6530  139.8050 C   0  0  0  0  0  2  0  0  0  0  0  0
  184.5180  178.2240  140.2790 C   0  0  2  0  0  3  0  0  0  0  0  0
  182.5270  177.2060  138.3820 C   0  0  0  0  0  2  0  0  0  0  0  0
  184.4010  178.7940  138.8660 C   0  0  0  0  0  2  0  0  0  0  0  0
  183.1590  177.7070  140.7780 C   0  0  1  0  0  3  0  0  0  0  0  0
  185.0910  179.2710  141.2180 C   0  0  0  0  0  1  0  0  0  0  0  0
  183.8890  177.7120  137.9170 C   0  0  0  0  0  2  0  0  0  0  0  0
  189.7390  176.8760  143.4500 O   0  0  0  0  0  0  0  0  0  0  0  0
  189.0510  177.3870  140.1920 C   0  0  0  0  0  2  0  0  0  0  0  0
  190.4770  177.6600  140.1240 N   0  0  0  0  0  0  0  0  0  0  0  0
  188.5810  177.7850  141.5750 C   0  0  0  0  0  2  0  0  0  0  0  0
  189.8320  177.8200  142.4220 C   0  0  2  0  0  3  0  0  0  0  0  0
  190.9600  177.4490  141.4810 C   0  0  0  0  0  2  0  0  0  0  0  0
  191.0730  176.6330  139.2810 C   0  0  0  0  0  2  0  0  0  0  0  0
  190.5520  174.8100  137.6290 C   0  0  0  0  0  2  0  0  0  0  0  0
  188.5680  175.1740  136.0890 C   0  0  0  0  0  2  0  0  0  0  0  0
  188.7140  177.4280  134.9460 C   0  0  0  0  0  2  0  0  0  0  0  0
  187.3590  178.0500  135.2380 C   0  0  0  0  0  2  0  0  0  0  0  0
  189.7410  177.1780  137.2430 C   0  0  0  0  0  2  0  0  0  0  0  0
  189.9450  174.5320  136.2450 C   0  0  0  0  0  2  0  0  0  0  0  0
  190.0480  176.1070  138.2880 C   0  0  2  0  0  3  0  0  0  0  0  0
  188.6560  176.6950  136.2700 C   0  0  0  0  0  0  0  0  0  0  0  0
  187.3040  177.3090  136.5650 C   0  0  0  0  0  2  0  0  0  0  0  0
  1 11  1  0  0  0  0
  1  8  1  0  0  0  0
  2  6  2  0  0  0  0
  2  9  1  0  0  0  0
  3 27  1  6  0  0  0
  3  8  1  0  0  0  0
  3  4  1  0  0  0  0
  4  2  1  0  0  0  0
  5  6  1  0  0  0  0
  7  4  2  0  0  0  0
  8  5  2  0  0  0  0
  9 10  3  0  0  0  0
 12 15  1  6  0  0  0
 12 13  1  0  0  0  0
 14 12  1  0  0  0  0
 14 11  1  1  0  0  0
 14 13  1  0  0  0  0
 16 15  1  0  0  0  0
 17 18  2  0  0  0  0
 17 16  1  0  0  0  0
 19 17  1  0  0  0  0
 20 24  1  0  0  0  0
 21 24  1  0  0  0  0
 21 25  1  1  0  0  0
 22 20  1  0  0  0  0
 23 21  1  0  0  0  0
 24 19  1  6  0  0  0
 26 22  1  0  0  0  0
 26 23  1  0  0  0  0
 28 30  1  0  0  0  0
 29 28  1  0  0  0  0
 29 32  1  0  0  0  0
 30 31  1  0  0  0  0
 31 27  1  1  0  0  0
 32 31  1  0  0  0  0
 33 29  1  0  0  0  0
 34 40  1  0  0  0  0
 35 39  1  0  0  0  0
 35 41  1  0  0  0  0
 36 37  1  0  0  0  0
 36 41  1  0  0  0  0
 37 42  1  0  0  0  0
 38 40  1  0  0  0  0
 39 34  1  0  0  0  0
 40 33  1  1  0  0  0
 41 42  1  0  0  0  0
 41 38  1  0  0  0  0
M  END
>  <MODEL>
4

>  <REMARK>
 VINA RESULT:      -8.4      2.640      7.716
  Name = 
  11 active torsions:
  status: ('A' for Active; 'I' for Inactive)
    1  A    between atoms: C_3  and  C_10
    2  A    between atoms: C_3  and  C_15
    3  A    between atoms: O_4  and  N_7
    4  A    between atoms: O_4  and  C_37
    5  A    between atoms: C_5  and  N_21
    6  A    between atoms: C_5  and  C_31
    7  A    between atoms: O_6  and  C_12
    8  A    between atoms: O_6  and  C_26
    9  A    between atoms: C_9  and  C_22
   10  A    between atoms: C_15  and  C_17
   11  A    between atoms: C_24  and  N_28
                            x       y       z     vdW  Elec       q    Type
                         _______ _______ _______ _____ _____    ______ ____

>  <TORSDO>
F 11

$$$$
=
 OpenBabel10222419303D

 42 47  0  0  1  0  0  0  0  0999 V2000
  185.1140  179.0120  142.2100 N   0  0  0  0  0  2  0  0  0  0  0  0
  182.6990  178.6920  138.6920 C   0  0  0  0  0  0  0  0  0  0  0  0
  184.9700  178.1870  139.8250 C   0  0  2  0  0  3  0  0  0  0  0  0
  184.0330  178.0660  138.6520 C   0  0  0  0  0  0  0  0  0  0  0  0
  183.1420  179.3850  140.9580 N   0  0  0  0  0  0  0  0  0  0  0  0
  182.2970  179.3100  139.8000 C   0  0  0  0  0  3  0  0  0  0  0  0
  184.4020  177.4180  137.6350 O   0  0  0  0  0  0  0  0  0  0  0  0
  184.3480  178.8900  141.0080 C   0  0  0  0  0  0  0  0  0  0  0  0
  181.8190  178.6370  137.5560 C   0  0  0  0  0  0  0  0  0  0  0  0
  181.1110  178.5910  136.6430 N   0  0  0  0  0  0  0  0  0  0  0  0
  184.6000  179.5780  143.3310 O   0  0  0  0  0  0  0  0  0  0  0  0
  185.3850  179.0910  145.4670 C   0  0  2  0  0  3  0  0  0  0  0  0
  183.9170  179.0040  145.4950 N   0  0  0  0  0  2  0  0  0  0  0  0
  184.6680  178.5800  144.3050 C   0  0  1  0  0  3  0  0  0  0  0  0
  185.9950  177.9220  146.2190 C   0  0  0  0  0  2  0  0  0  0  0  0
  187.2280  178.3760  146.9810 C   0  0  0  0  0  2  0  0  0  0  0  0
  188.2380  177.2760  147.0040 C   0  0  0  0  0  0  0  0  0  0  0  0
  188.3100  176.5280  148.0150 O   0  0  0  0  0  0  0  0  0  0  0  0
  189.1420  177.0720  145.9170 N   0  0  0  0  0  2  0  0  0  0  0  0
  190.5390  178.6360  144.6300 C   0  0  0  0  0  2  0  0  0  0  0  0
  188.9400  177.0990  143.4550 C   0  0  2  0  0  3  0  0  0  0  0  0
  191.6710  177.6400  144.3740 C   0  0  0  0  0  2  0  0  0  0  0  0
  190.0700  176.0950  143.2290 C   0  0  0  0  0  2  0  0  0  0  0  0
  189.1830  177.9240  144.7280 C   0  0  1  0  0  3  0  0  0  0  0  0
  187.6050  176.3780  143.5090 C   0  0  0  0  0  1  0  0  0  0  0  0
  191.3980  176.8370  143.1060 C   0  0  0  0  0  2  0  0  0  0  0  0
  186.1420  178.8470  139.4330 O   0  0  0  0  0  0  0  0  0  0  0  0
  189.4780  178.4210  139.2250 C   0  0  0  0  0  2  0  0  0  0  0  0
  189.0950  177.2880  138.3980 N   0  0  0  0  0  0  0  0  0  0  0  0
  188.3750  178.6290  140.2410 C   0  0  0  0  0  2  0  0  0  0  0  0
  187.1680  177.9250  139.6640 C   0  0  2  0  0  3  0  0  0  0  0  0
  187.6410  177.3380  138.3490 C   0  0  0  0  0  2  0  0  0  0  0  0
  189.5890  177.5510  137.0540 C   0  0  0  0  0  2  0  0  0  0  0  0
  189.6270  175.0570  136.7350 C   0  0  0  0  0  2  0  0  0  0  0  0
  191.8560  173.9990  136.1420 C   0  0  0  0  0  2  0  0  0  0  0  0
  193.6650  174.7430  137.7490 C   0  0  0  0  0  2  0  0  0  0  0  0
  194.7620  175.2430  136.8250 C   0  0  0  0  0  2  0  0  0  0  0  0
  191.7500  176.3250  137.2810 C   0  0  0  0  0  2  0  0  0  0  0  0
  190.5170  173.8090  136.8510 C   0  0  0  0  0  2  0  0  0  0  0  0
  190.4080  176.3720  136.5530 C   0  0  2  0  0  3  0  0  0  0  0  0
  192.6240  175.1840  136.7420 C   0  0  0  0  0  0  0  0  0  0  0  0
  193.7130  175.6810  135.8150 C   0  0  0  0  0  2  0  0  0  0  0  0
  1 11  1  0  0  0  0
  2  6  2  0  0  0  0
  3 27  1  6  0  0  0
  3  8  1  0  0  0  0
  4  2  1  0  0  0  0
  4  3  1  0  0  0  0
  5  8  2  0  0  0  0
  6  5  1  0  0  0  0
  7  4  2  0  0  0  0
  8  1  1  0  0  0  0
  9  2  1  0  0  0  0
 10  9  3  0  0  0  0
 12 13  1  0  0  0  0
 12 15  1  1  0  0  0
 14 11  1  6  0  0  0
 14 12  1  0  0  0  0
 14 13  1  0  0  0  0
 15 16  1  0  0  0  0
 16 17  1  0  0  0  0
 17 18  2  0  0  0  0
 19 17  1  0  0  0  0
 20 24  1  0  0  0  0
 21 25  1  1  0  0  0
 21 24  1  0  0  0  0
 22 20  1  0  0  0  0
 23 21  1  0  0  0  0
 24 19  1  1  0  0  0
 26 23  1  0  0  0  0
 26 22  1  0  0  0  0
 28 30  1  0  0  0  0
 29 28  1  0  0  0  0
 31 27  1  6  0  0  0
 31 30  1  0  0  0  0
 32 29  1  0  0  0  0
 32 31  1  0  0  0  0
 33 29  1  0  0  0  0
 34 39  1  0  0  0  0
 35 41  1  0  0  0  0
 35 39  1  0  0  0  0
 37 36  1  0  0  0  0
 40 34  1  0  0  0  0
 40 33  1  1  0  0  0
 40 38  1  0  0  0  0
 41 38  1  0  0  0  0
 41 36  1  0  0  0  0
 42 41  1  0  0  0  0
 42 37  1  0  0  0  0
M  END
>  <MODEL>
5

>  <REMARK>
 VINA RESULT:      -8.2      2.502      8.406
  Name = 
  11 active torsions:
  status: ('A' for Active; 'I' for Inactive)
    1  A    between atoms: C_3  and  C_10
    2  A    between atoms: C_3  and  C_15
    3  A    between atoms: O_4  and  N_7
    4  A    between atoms: O_4  and  C_37
    5  A    between atoms: C_5  and  N_21
    6  A    between atoms: C_5  and  C_31
    7  A    between atoms: O_6  and  C_12
    8  A    between atoms: O_6  and  C_26
    9  A    between atoms: C_9  and  C_22
   10  A    between atoms: C_15  and  C_17
   11  A    between atoms: C_24  and  N_28
                            x       y       z     vdW  Elec       q    Type
                         _______ _______ _______ _____ _____    ______ ____

>  <TORSDO>
F 11

$$$$
=
 OpenBabel10222419303D

 42 47  0  0  1  0  0  0  0  0999 V2000
  186.9140  177.8960  144.6510 N   0  0  0  0  0  2  0  0  0  0  0  0
  190.5520  176.7840  146.6080 C   0  0  0  0  0  0  0  0  0  0  0  0
  189.4240  177.6720  144.4550 C   0  0  2  0  0  3  0  0  0  0  0  0
  190.6610  177.3170  145.2380 C   0  0  0  0  0  0  0  0  0  0  0  0
  188.1630  177.0750  146.4830 N   0  0  0  0  0  0  0  0  0  0  0  0
  189.3550  176.6820  147.1800 C   0  0  0  0  0  3  0  0  0  0  0  0
  191.7930  177.4840  144.7080 O   0  0  0  0  0  0  0  0  0  0  0  0
  188.1540  177.5270  145.2590 C   0  0  0  0  0  0  0  0  0  0  0  0
  191.7210  176.3830  147.3440 C   0  0  0  0  0  0  0  0  0  0  0  0
  192.6620  176.0620  147.9340 N   0  0  0  0  0  0  0  0  0  0  0  0
  185.7410  177.8480  145.3300 O   0  0  0  0  0  0  0  0  0  0  0  0
  183.5680  178.4550  144.7580 C   0  0  2  0  0  3  0  0  0  0  0  0
  184.0330  179.3780  145.8030 N   0  0  0  0  0  2  0  0  0  0  0  0
  184.9640  178.8730  144.7850 C   0  0  1  0  0  3  0  0  0  0  0  0
  182.8480  179.2200  143.6630 C   0  0  0  0  0  2  0  0  0  0  0  0
  183.1800  178.6280  142.3040 C   0  0  0  0  0  2  0  0  0  0  0  0
  181.9600  178.6300  141.4430 C   0  0  0  0  0  0  0  0  0  0  0  0
  180.9310  179.2410  141.8360 O   0  0  0  0  0  0  0  0  0  0  0  0
  181.9260  177.9310  140.1970 N   0  0  0  0  0  2  0  0  0  0  0  0
  182.5680  175.7310  139.3010 C   0  0  0  0  0  2  0  0  0  0  0  0
  183.6790  177.8190  138.4600 C   0  0  2  0  0  3  0  0  0  0  0  0
  181.6060  175.7740  138.1130 C   0  0  0  0  0  2  0  0  0  0  0  0
  182.6960  177.8730  137.2910 C   0  0  0  0  0  2  0  0  0  0  0  0
  183.0440  177.1390  139.6830 C   0  0  1  0  0  3  0  0  0  0  0  0
  184.1670  179.2170  138.7960 C   0  0  0  0  0  1  0  0  0  0  0  0
  182.2660  176.4570  136.9180 C   0  0  0  0  0  2  0  0  0  0  0  0
  189.3520  176.8890  143.2950 O   0  0  0  0  0  0  0  0  0  0  0  0
  188.4780  177.9780  140.2290 C   0  0  0  0  0  2  0  0  0  0  0  0
  189.8040  177.4940  139.8810 N   0  0  0  0  0  0  0  0  0  0  0  0
  188.5270  178.4290  141.6730 C   0  0  0  0  0  2  0  0  0  0  0  0
  189.7400  177.7460  142.2600 C   0  0  2  0  0  3  0  0  0  0  0  0
  190.3340  176.9430  141.1200 C   0  0  0  0  0  2  0  0  0  0  0  0
  189.6300  176.3910  138.9480 C   0  0  0  0  0  2  0  0  0  0  0  0
  190.1970  176.6700  136.5140 C   0  0  0  0  0  2  0  0  0  0  0  0
  192.5280  175.9830  135.7820 C   0  0  0  0  0  2  0  0  0  0  0  0
  193.0760  173.6460  136.5870 C   0  0  0  0  0  2  0  0  0  0  0  0
  194.4080  173.8290  137.2920 C   0  0  0  0  0  2  0  0  0  0  0  0
  191.4940  175.0520  137.9690 C   0  0  0  0  0  2  0  0  0  0  0  0
  191.0620  176.1090  135.3740 C   0  0  0  0  0  2  0  0  0  0  0  0
  190.7520  176.3860  137.9230 C   0  0  2  0  0  3  0  0  0  0  0  0
  192.6760  175.0500  136.9910 C   0  0  0  0  0  0  0  0  0  0  0  0
  194.0040  175.2390  137.6930 C   0  0  0  0  0  2  0  0  0  0  0  0
  1  8  1  0  0  0  0
  1 11  1  0  0  0  0
  2  6  2  0  0  0  0
  2  9  1  0  0  0  0
  3 27  1  6  0  0  0
  3  4  1  0  0  0  0
  3  8  1  0  0  0  0
  4  2  1  0  0  0  0
  5  6  1  0  0  0  0
  7  4  2  0  0  0  0
  8  5  2  0  0  0  0
  9 10  3  0  0  0  0
 12 15  1  6  0  0  0
 12 14  1  0  0  0  0
 12 13  1  0  0  0  0
 14 11  1  1  0  0  0
 14 13  1  0  0  0  0
 16 15  1  0  0  0  0
 17 18  2  0  0  0  0
 17 16  1  0  0  0  0
 19 17  1  0  0  0  0
 20 24  1  0  0  0  0
 21 25  1  1  0  0  0
 21 24  1  0  0  0  0
 22 20  1  0  0  0  0
 23 21  1  0  0  0  0
 24 19  1  6  0  0  0
 26 23  1  0  0  0  0
 26 22  1  0  0  0  0
 28 30  1  0  0  0  0
 29 28  1  0  0  0  0
 29 32  1  0  0  0  0
 30 31  1  0  0  0  0
 31 27  1  1  0  0  0
 32 31  1  0  0  0  0
 33 29  1  0  0  0  0
 34 40  1  0  0  0  0
 35 41  1  0  0  0  0
 36 41  1  0  0  0  0
 36 37  1  0  0  0  0
 37 42  1  0  0  0  0
 39 35  1  0  0  0  0
 39 34  1  0  0  0  0
 40 38  1  0  0  0  0
 40 33  1  1  0  0  0
 41 42  1  0  0  0  0
 41 38  1  0  0  0  0
M  END
>  <MODEL>
6

>  <REMARK>
 VINA RESULT:      -8.1      2.628      7.845
  Name = 
  11 active torsions:
  status: ('A' for Active; 'I' for Inactive)
    1  A    between atoms: C_3  and  C_10
    2  A    between atoms: C_3  and  C_15
    3  A    between atoms: O_4  and  N_7
    4  A    between atoms: O_4  and  C_37
    5  A    between atoms: C_5  and  N_21
    6  A    between atoms: C_5  and  C_31
    7  A    between atoms: O_6  and  C_12
    8  A    between atoms: O_6  and  C_26
    9  A    between atoms: C_9  and  C_22
   10  A    between atoms: C_15  and  C_17
   11  A    between atoms: C_24  and  N_28
                            x       y       z     vdW  Elec       q    Type
                         _______ _______ _______ _____ _____    ______ ____

>  <TORSDO>
F 11

$$$$
=
 OpenBabel10222419303D

 42 47  0  0  1  0  0  0  0  0999 V2000
  188.4220  177.9600  140.2280 N   0  0  0  0  0  2  0  0  0  0  0  0
  184.3720  178.7500  139.0970 C   0  0  0  0  0  0  0  0  0  0  0  0
  186.7050  177.8950  138.3740 C   0  0  2  0  0  3  0  0  0  0  0  0
  185.2500  178.1470  138.0780 C   0  0  0  0  0  0  0  0  0  0  0  0
  186.2210  178.7210  140.6420 N   0  0  0  0  0  0  0  0  0  0  0  0
  184.8550  179.0100  140.3090 C   0  0  0  0  0  3  0  0  0  0  0  0
  184.7890  177.8300  136.9470 O   0  0  0  0  0  0  0  0  0  0  0  0
  187.0820  178.2170  139.8010 C   0  0  0  0  0  0  0  0  0  0  0  0
  182.9960  179.0520  138.8070 C   0  0  0  0  0  0  0  0  0  0  0  0
  181.8900  179.2950  138.5720 N   0  0  0  0  0  0  0  0  0  0  0  0
  188.8170  178.1690  141.5080 O   0  0  0  0  0  0  0  0  0  0  0  0
  190.2270  176.5720  142.4480 C   0  0  2  0  0  3  0  0  0  0  0  0
  190.2230  176.3690  140.9920 N   0  0  0  0  0  2  0  0  0  0  0  0
  190.1400  177.7230  141.5570 C   0  0  1  0  0  3  0  0  0  0  0  0
  191.6410  176.4760  142.9880 C   0  0  0  0  0  2  0  0  0  0  0  0
  191.6560  176.7740  144.4770 C   0  0  0  0  0  2  0  0  0  0  0  0
  191.0450  178.1140  144.7270 C   0  0  0  0  0  0  0  0  0  0  0  0
  191.6530  179.1490  144.3430 O   0  0  0  0  0  0  0  0  0  0  0  0
  189.8010  178.2500  145.4170 N   0  0  0  0  0  2  0  0  0  0  0  0
  189.4660  176.8480  147.4100 C   0  0  0  0  0  2  0  0  0  0  0  0
  187.5370  177.3850  145.8970 C   0  0  2  0  0  3  0  0  0  0  0  0
  189.0560  178.0000  148.3290 C   0  0  0  0  0  2  0  0  0  0  0  0
  187.1500  178.5530  146.8020 C   0  0  0  0  0  2  0  0  0  0  0  0
  189.0490  177.1180  145.9590 C   0  0  1  0  0  3  0  0  0  0  0  0
  187.0820  177.6540  144.4740 C   0  0  0  0  0  1  0  0  0  0  0  0
  187.5510  178.2410  148.2420 C   0  0  0  0  0  2  0  0  0  0  0  0
  187.5060  178.6270  137.4870 O   0  0  0  0  0  0  0  0  0  0  0  0
  189.2450  175.7420  137.5540 C   0  0  0  0  0  2  0  0  0  0  0  0
  190.2030  176.5180  136.7820 N   0  0  0  0  0  0  0  0  0  0  0  0
  187.8680  176.2840  137.2360 C   0  0  0  0  0  2  0  0  0  0  0  0
  188.1070  177.6650  136.6690 C   0  0  2  0  0  3  0  0  0  0  0  0
  189.6110  177.8440  136.6810 C   0  0  0  0  0  2  0  0  0  0  0  0
  191.4100  176.6360  137.5880 C   0  0  0  0  0  2  0  0  0  0  0  0
  192.2250  175.7060  135.3980 C   0  0  0  0  0  2  0  0  0  0  0  0
  194.4240  174.4410  135.4230 C   0  0  0  0  0  2  0  0  0  0  0  0
  194.4240  172.6650  137.2270 C   0  0  0  0  0  2  0  0  0  0  0  0
  195.7020  172.9540  137.9950 C   0  0  0  0  0  2  0  0  0  0  0  0
  193.0440  174.7500  137.5960 C   0  0  0  0  0  2  0  0  0  0  0  0
  193.0520  174.5760  134.7660 C   0  0  0  0  0  2  0  0  0  0  0  0
  192.5910  176.0110  136.8620 C   0  0  2  0  0  3  0  0  0  0  0  0
  194.2810  174.1410  136.9200 C   0  0  0  0  0  0  0  0  0  0  0  0
  195.5560  174.4350  137.6830 C   0  0  0  0  0  2  0  0  0  0  0  0
  1 11  1  0  0  0  0
  2  6  2  0  0  0  0
  3 27  1  6  0  0  0
  3  8  1  0  0  0  0
  4  3  1  0  0  0  0
  4  2  1  0  0  0  0
  6  5  1  0  0  0  0
  7  4  2  0  0  0  0
  8  1  1  0  0  0  0
  8  5  2  0  0  0  0
  9  2  1  0  0  0  0
 10  9  3  0  0  0  0
 12 15  1  6  0  0  0
 13 14  1  0  0  0  0
 13 12  1  0  0  0  0
 14 11  1  1  0  0  0
 14 12  1  0  0  0  0
 15 16  1  0  0  0  0
 16 17  1  0  0  0  0
 17 19  1  0  0  0  0
 18 17  2  0  0  0  0
 20 22  1  0  0  0  0
 21 25  1  6  0  0  0
 21 24  1  0  0  0  0
 21 23  1  0  0  0  0
 23 26  1  0  0  0  0
 24 19  1  1  0  0  0
 24 20  1  0  0  0  0
 26 22  1  0  0  0  0
 29 28  1  0  0  0  0
 29 33  1  0  0  0  0
 30 28  1  0  0  0  0
 31 32  1  0  0  0  0
 31 30  1  0  0  0  0
 31 27  1  1  0  0  0
 32 29  1  0  0  0  0
 34 40  1  0  0  0  0
 35 41  1  0  0  0  0
 36 37  1  0  0  0  0
 39 34  1  0  0  0  0
 39 35  1  0  0  0  0
 40 33  1  1  0  0  0
 40 38  1  0  0  0  0
 41 36  1  0  0  0  0
 41 38  1  0  0  0  0
 41 42  1  0  0  0  0
 42 37  1  0  0  0  0
M  END
>  <MODEL>
7

>  <REMARK>
 VINA RESULT:      -8.0      2.175      8.038
  Name = 
  11 active torsions:
  status: ('A' for Active; 'I' for Inactive)
    1  A    between atoms: C_3  and  C_10
    2  A    between atoms: C_3  and  C_15
    3  A    between atoms: O_4  and  N_7
    4  A    between atoms: O_4  and  C_37
    5  A    between atoms: C_5  and  N_21
    6  A    between atoms: C_5  and  C_31
    7  A    between atoms: O_6  and  C_12
    8  A    between atoms: O_6  and  C_26
    9  A    between atoms: C_9  and  C_22
   10  A    between atoms: C_15  and  C_17
   11  A    between atoms: C_24  and  N_28
                            x       y       z     vdW  Elec       q    Type
                         _______ _______ _______ _____ _____    ______ ____

>  <TORSDO>
F 11

$$$$
=
 OpenBabel10222419303D

 42 47  0  0  1  0  0  0  0  0999 V2000
  185.6520  176.1250  137.1820 N   0  0  0  0  0  2  0  0  0  0  0  0
  181.9200  174.5070  135.8540 C   0  0  0  0  0  0  0  0  0  0  0  0
  183.1320  176.2200  137.3670 C   0  0  2  0  0  3  0  0  0  0  0  0
  181.8660  175.6340  136.8020 C   0  0  0  0  0  0  0  0  0  0  0  0
  184.3260  174.6310  135.9150 N   0  0  0  0  0  0  0  0  0  0  0  0
  183.1010  174.0500  135.4450 C   0  0  0  0  0  3  0  0  0  0  0  0
  180.7550  176.1230  137.1460 O   0  0  0  0  0  0  0  0  0  0  0  0
  184.3810  175.6090  136.7760 C   0  0  0  0  0  0  0  0  0  0  0  0
  180.7170  173.8980  135.3550 C   0  0  0  0  0  0  0  0  0  0  0  0
  179.7490  173.4080  134.9550 N   0  0  0  0  0  0  0  0  0  0  0  0
  186.8130  175.6660  136.6510 O   0  0  0  0  0  0  0  0  0  0  0  0
  189.0570  176.1950  136.9660 C   0  0  2  0  0  3  0  0  0  0  0  0
  188.6540  176.7090  135.6490 N   0  0  0  0  0  2  0  0  0  0  0  0
  187.7130  176.7260  136.7780 C   0  0  1  0  0  3  0  0  0  0  0  0
  189.8940  177.2270  137.6990 C   0  0  0  0  0  2  0  0  0  0  0  0
  190.0050  176.8640  139.1690 C   0  0  0  0  0  2  0  0  0  0  0  0
  189.3250  177.9050  139.9970 C   0  0  0  0  0  0  0  0  0  0  0  0
  188.6890  178.8280  139.4230 O   0  0  0  0  0  0  0  0  0  0  0  0
  189.4030  177.8920  141.4240 N   0  0  0  0  0  2  0  0  0  0  0  0
  191.5690  177.4420  142.5000 C   0  0  0  0  0  2  0  0  0  0  0  0
  189.4470  176.5370  143.4890 C   0  0  2  0  0  3  0  0  0  0  0  0
  191.5010  178.6300  143.4610 C   0  0  0  0  0  2  0  0  0  0  0  0
  189.3690  177.7410  144.4260 C   0  0  0  0  0  2  0  0  0  0  0  0
  190.1690  176.9020  142.1820 C   0  0  1  0  0  3  0  0  0  0  0  0
  188.0550  175.9940  143.2190 C   0  0  0  0  0  1  0  0  0  0  0  0
  190.7780  178.2350  144.7460 C   0  0  0  0  0  2  0  0  0  0  0  0
  183.1410  176.0830  138.7610 O   0  0  0  0  0  0  0  0  0  0  0  0
  184.5870  179.0540  139.4200 C   0  0  0  0  0  2  0  0  0  0  0  0
  184.0700  178.8010  140.7550 N   0  0  0  0  0  0  0  0  0  0  0  0
  183.6450  178.3910  138.4390 C   0  0  0  0  0  2  0  0  0  0  0  0
  182.8840  177.3680  139.2500 C   0  0  2  0  0  3  0  0  0  0  0  0
  183.4210  177.5010  140.6610 C   0  0  0  0  0  2  0  0  0  0  0  0
  185.2160  178.6570  141.6410 C   0  0  0  0  0  2  0  0  0  0  0  0
  183.3790  179.0020  143.3240 C   0  0  0  0  0  2  0  0  0  0  0  0
  183.8720  178.3510  145.7270 C   0  0  0  0  0  2  0  0  0  0  0  0
  186.0420  179.3880  146.5160 C   0  0  0  0  0  2  0  0  0  0  0  0
  186.8140  178.1990  147.0610 C   0  0  0  0  0  2  0  0  0  0  0  0
  185.7970  178.8410  144.0610 C   0  0  0  0  0  2  0  0  0  0  0  0
  183.1000  179.2940  144.8070 C   0  0  0  0  0  2  0  0  0  0  0  0
  184.7520  178.3570  143.0570 C   0  0  2  0  0  3  0  0  0  0  0  0
  185.3830  178.4850  145.4950 C   0  0  0  0  0  0  0  0  0  0  0  0
  186.1470  177.2950  146.0360 C   0  0  0  0  0  2  0  0  0  0  0  0
  2  4  1  0  0  0  0
  3 27  1  1  0  0  0
  4  7  2  0  0  0  0
  4  3  1  0  0  0  0
  5  8  2  0  0  0  0
  6  2  2  0  0  0  0
  6  5  1  0  0  0  0
  8  1  1  0  0  0  0
  8  3  1  0  0  0  0
  9  2  1  0  0  0  0
 10  9  3  0  0  0  0
 11  1  1  0  0  0  0
 12 15  1  1  0  0  0
 13 14  1  0  0  0  0
 13 12  1  0  0  0  0
 14 11  1  6  0  0  0
 14 12  1  0  0  0  0
 15 16  1  0  0  0  0
 16 17  1  0  0  0  0
 17 19  1  0  0  0  0
 18 17  2  0  0  0  0
 20 22  1  0  0  0  0
 21 25  1  6  0  0  0
 21 23  1  0  0  0  0
 22 26  1  0  0  0  0
 23 26  1  0  0  0  0
 24 19  1  1  0  0  0
 24 20  1  0  0  0  0
 24 21  1  0  0  0  0
 28 29  1  0  0  0  0
 29 33  1  0  0  0  0
 30 31  1  0  0  0  0
 30 28  1  0  0  0  0
 31 27  1  6  0  0  0
 31 32  1  0  0  0  0
 32 29  1  0  0  0  0
 34 39  1  0  0  0  0
 36 37  1  0  0  0  0
 38 41  1  0  0  0  0
 39 35  1  0  0  0  0
 40 33  1  6  0  0  0
 40 34  1  0  0  0  0
 40 38  1  0  0  0  0
 41 35  1  0  0  0  0
 41 42  1  0  0  0  0
 41 36  1  0  0  0  0
 42 37  1  0  0  0  0
M  END
>  <MODEL>
8

>  <REMARK>
 VINA RESULT:      -8.0      2.771      6.868
  Name = 
  11 active torsions:
  status: ('A' for Active; 'I' for Inactive)
    1  A    between atoms: C_3  and  C_10
    2  A    between atoms: C_3  and  C_15
    3  A    between atoms: O_4  and  N_7
    4  A    between atoms: O_4  and  C_37
    5  A    between atoms: C_5  and  N_21
    6  A    between atoms: C_5  and  C_31
    7  A    between atoms: O_6  and  C_12
    8  A    between atoms: O_6  and  C_26
    9  A    between atoms: C_9  and  C_22
   10  A    between atoms: C_15  and  C_17
   11  A    between atoms: C_24  and  N_28
                            x       y       z     vdW  Elec       q    Type
                         _______ _______ _______ _____ _____    ______ ____

>  <TORSDO>
F 11

$$$$
=
 OpenBabel10222419303D

 42 47  0  0  1  0  0  0  0  0999 V2000
  189.6670  176.4260  141.0420 N   0  0  0  0  0  2  0  0  0  0  0  0
  190.8370  176.7320  145.1450 C   0  0  0  0  0  0  0  0  0  0  0  0
  188.9150  176.8510  143.4170 C   0  0  2  0  0  3  0  0  0  0  0  0
  189.4030  176.8820  144.8420 C   0  0  0  0  0  0  0  0  0  0  0  0
  191.2540  176.3990  142.7950 N   0  0  0  0  0  0  0  0  0  0  0  0
  191.6970  176.5000  144.1570 C   0  0  0  0  0  3  0  0  0  0  0  0
  188.5670  177.0340  145.7740 O   0  0  0  0  0  0  0  0  0  0  0  0
  190.0120  176.5480  142.4240 C   0  0  0  0  0  0  0  0  0  0  0  0
  191.3230  176.8220  146.4960 C   0  0  0  0  0  0  0  0  0  0  0  0
  191.7150  176.8930  147.5820 N   0  0  0  0  0  0  0  0  0  0  0  0
  190.5880  176.0980  140.1010 O   0  0  0  0  0  0  0  0  0  0  0  0
  189.7560  177.8700  138.8410 C   0  0  2  0  0  3  0  0  0  0  0  0
  190.9000  177.2990  138.1150 N   0  0  0  0  0  2  0  0  0  0  0  0
  189.9940  176.4320  138.8810 C   0  0  1  0  0  3  0  0  0  0  0  0
  188.6130  178.1510  137.8830 C   0  0  0  0  0  2  0  0  0  0  0  0
  187.5280  177.1000  138.0390 C   0  0  0  0  0  2  0  0  0  0  0  0
  186.8750  176.8510  136.7190 C   0  0  0  0  0  0  0  0  0  0  0  0
  187.5480  176.9910  135.6640 O   0  0  0  0  0  0  0  0  0  0  0  0
  185.4970  176.4840  136.6270 N   0  0  0  0  0  2  0  0  0  0  0  0
  183.7000  177.5860  137.8950 C   0  0  0  0  0  2  0  0  0  0  0  0
  183.7590  175.0850  137.6870 C   0  0  2  0  0  3  0  0  0  0  0  0
  182.7180  177.6510  136.7250 C   0  0  0  0  0  2  0  0  0  0  0  0
  182.8010  175.1590  136.5000 C   0  0  0  0  0  2  0  0  0  0  0  0
  184.6140  176.3580  137.7870 C   0  0  1  0  0  3  0  0  0  0  0  0
  184.6270  173.8430  137.5810 C   0  0  0  0  0  1  0  0  0  0  0  0
  181.8870  176.3720  136.6530 C   0  0  0  0  0  2  0  0  0  0  0  0
  188.2970  178.0670  143.0970 O   0  0  0  0  0  0  0  0  0  0  0  0
  185.4980  179.3260  141.7090 C   0  0  0  0  0  2  0  0  0  0  0  0
  184.8490  178.4330  142.6550 N   0  0  0  0  0  0  0  0  0  0  0  0
  186.8230  178.6990  141.3330 C   0  0  0  0  0  2  0  0  0  0  0  0
  187.1190  177.7080  142.4360 C   0  0  2  0  0  3  0  0  0  0  0  0
  185.9430  177.8090  143.3870 C   0  0  0  0  0  2  0  0  0  0  0  0
  184.1090  179.2630  143.5940 C   0  0  0  0  0  2  0  0  0  0  0  0
  181.7630  178.7360  144.3320 C   0  0  0  0  0  2  0  0  0  0  0  0
  179.9390  178.8700  142.5730 C   0  0  0  0  0  2  0  0  0  0  0  0
  180.5700  177.5390  140.5130 C   0  0  0  0  0  2  0  0  0  0  0  0
  180.3800  178.5390  139.3860 C   0  0  0  0  0  2  0  0  0  0  0  0
  182.4220  178.5700  141.8920 C   0  0  0  0  0  2  0  0  0  0  0  0
  180.4110  178.1840  143.8520 C   0  0  0  0  0  2  0  0  0  0  0  0
  182.6400  179.3160  143.2060 C   0  0  2  0  0  3  0  0  0  0  0  0
  180.9570  178.6700  141.4430 C   0  0  0  0  0  0  0  0  0  0  0  0
  180.7660  179.6720  140.3230 C   0  0  0  0  0  2  0  0  0  0  0  0
  1  8  1  0  0  0  0
  2  9  1  0  0  0  0
  3 27  1  6  0  0  0
  3  4  1  0  0  0  0
  4  2  1  0  0  0  0
  4  7  2  0  0  0  0
  5  6  1  0  0  0  0
  6  2  2  0  0  0  0
  8  5  2  0  0  0  0
  8  3  1  0  0  0  0
  9 10  3  0  0  0  0
 11  1  1  0  0  0  0
 12 15  1  6  0  0  0
 12 14  1  0  0  0  0
 13 12  1  0  0  0  0
 13 14  1  0  0  0  0
 14 11  1  1  0  0  0
 15 16  1  0  0  0  0
 17 16  1  0  0  0  0
 18 17  2  0  0  0  0
 19 17  1  0  0  0  0
 21 25  1  6  0  0  0
 21 24  1  0  0  0  0
 22 20  1  0  0  0  0
 23 26  1  0  0  0  0
 23 21  1  0  0  0  0
 24 19  1  6  0  0  0
 24 20  1  0  0  0  0
 26 22  1  0  0  0  0
 28 29  1  0  0  0  0
 29 32  1  0  0  0  0
 29 33  1  0  0  0  0
 30 28  1  0  0  0  0
 30 31  1  0  0  0  0
 31 27  1  1  0  0  0
 31 32  1  0  0  0  0
 35 39  1  0  0  0  0
 36 41  1  0  0  0  0
 37 42  1  0  0  0  0
 37 36  1  0  0  0  0
 38 40  1  0  0  0  0
 39 34  1  0  0  0  0
 40 33  1  1  0  0  0
 40 34  1  0  0  0  0
 41 38  1  0  0  0  0
 41 35  1  0  0  0  0
 42 41  1  0  0  0  0
M  END
>  <MODEL>
9

>  <REMARK>
 VINA RESULT:      -7.8      2.432      7.422
  Name = 
  11 active torsions:
  status: ('A' for Active; 'I' for Inactive)
    1  A    between atoms: C_3  and  C_10
    2  A    between atoms: C_3  and  C_15
    3  A    between atoms: O_4  and  N_7
    4  A    between atoms: O_4  and  C_37
    5  A    between atoms: C_5  and  N_21
    6  A    between atoms: C_5  and  C_31
    7  A    between atoms: O_6  and  C_12
    8  A    between atoms: O_6  and  C_26
    9  A    between atoms: C_9  and  C_22
   10  A    between atoms: C_15  and  C_17
   11  A    between atoms: C_24  and  N_28
                            x       y       z     vdW  Elec       q    Type
                         _______ _______ _______ _____ _____    ______ ____

>  <TORSDO>
F 11

$$$$
