=
 OpenBabel10222418313D

 68 76  0  0  1  0  0  0  0  0999 V2000
  191.0690  177.1710  141.0940 C   0  0  0  0  0  1  0  0  0  0  0  0
  187.5920  177.9080  139.8940 O   0  0  0  0  0  0  0  0  0  0  0  0
  190.1740  177.8270  138.7670 C   0  0  2  0  0  3  0  0  0  0  0  0
  189.9060  177.4630  140.2090 C   0  0  0  0  0  0  0  0  0  0  0  0
  188.9890  178.3260  138.0670 N   0  0  0  0  0  0  0  0  0  0  0  0
  188.6640  177.5170  140.7100 C   0  0  0  0  0  0  0  0  0  0  0  0
  187.8010  178.3500  138.5810 C   0  0  0  0  0  0  0  0  0  0  0  0
  186.7530  178.8470  137.8070 O   0  0  0  0  0  0  0  0  0  0  0  0
  186.8690  179.1000  136.4150 C   0  0  0  0  0  2  0  0  0  0  0  0
  187.1870  177.7990  135.6820 C   0  0  0  0  0  2  0  0  0  0  0  0
  185.9360  177.0090  135.3230 C   0  0  0  0  0  2  0  0  0  0  0  0
  185.2170  174.8390  136.4190 C   0  0  1  0  0  0  0  0  0  0  0  0
  186.4780  175.2620  136.8620 O   0  0  0  0  0  0  0  0  0  0  0  0
  186.1820  175.5140  135.5070 C   0  0  2  0  0  3  0  0  0  0  0  0
  185.1800  173.3060  136.3290 C   0  0  1  0  0  0  0  0  0  0  0  0
  185.9820  172.6980  137.3050 O   0  0  0  0  0  0  0  0  0  0  0  0
  184.5980  172.7240  137.5500 C   0  0  2  0  0  3  0  0  0  0  0  0
  183.8660  172.8250  136.3610 O   0  0  0  0  0  0  0  0  0  0  0  0
  184.1180  175.6220  137.1440 C   0  0  0  0  0  2  0  0  0  0  0  0
  182.8780  175.3770  136.5480 O   0  0  0  0  0  0  0  0  0  0  0  0
  180.6760  176.9890  138.4680 C   0  0  0  0  0  2  0  0  0  0  0  0
  179.5430  178.4800  137.0710 C   0  0  0  0  0  2  0  0  0  0  0  0
  182.2180  176.6080  136.5640 C   0  0  1  0  0  3  0  0  0  0  0  0
  182.1080  177.1460  135.1500 C   0  0  0  0  0  2  0  0  0  0  0  0
  179.9030  177.2740  136.2220 C   0  0  1  0  0  3  0  0  0  0  0  0
  180.1650  178.3580  138.3910 N   0  0  2  0  0  0  0  0  0  0  0  0
  180.7000  177.7110  135.0070 C   0  0  0  0  0  2  0  0  0  0  0  0
  180.8020  176.4240  137.0730 C   0  0  2  0  0  3  0  0  0  0  0  0
  180.6460  181.3110  137.2300 C   0  0  0  0  0  3  0  0  0  0  0  0
  181.2290  180.1920  139.7650 C   0  0  2  0  0  3  0  0  0  0  0  0
  180.8400  179.5250  140.9980 N   0  0  0  0  0  0  0  0  0  0  0  0
  181.3300  180.1970  137.3120 N   0  0  0  0  0  0  0  0  0  0  0  0
  179.2850  181.1350  140.5690 N   0  0  0  0  0  0  0  0  0  0  0  0
  180.1330  181.1600  139.6000 C   0  0  0  0  0  0  0  0  0  0  0  0
  179.7710  180.1160  141.4350 C   0  0  0  0  0  3  0  0  0  0  0  0
  181.2950  179.3070  138.4950 C   0  0  2  0  0  3  0  0  0  0  0  0
  179.8870  181.7870  138.3490 N   0  0  0  0  0  2  0  0  0  0  0  0
  190.7630  176.6410  138.0030 C   0  0  0  0  0  2  0  0  0  0  0  0
  192.2360  176.4250  138.3460 C   0  0  0  0  0  2  0  0  0  0  0  0
  192.9870  175.7120  137.2280 C   0  0  2  0  0  3  0  0  0  0  0  0
  192.5560  174.2600  137.1000 C   0  0  0  0  0  1  0  0  0  0  0  0
  194.5030  175.8500  137.3810 C   0  0  0  0  0  2  0  0  0  0  0  0
  195.2570  175.6380  136.1040 C   0  0  0  0  0  0  0  0  0  0  0  0
  195.2030  176.4800  135.2190 O   0  0  0  0  0  0  0  0  0  0  0  0
  196.4770  174.2900  134.6000 O   0  0  0  0  0  1  0  0  0  0  0  0
  196.0980  174.4160  135.9360 C   0  0  1  0  0  3  0  0  0  0  0  0
  197.3380  174.4500  136.8330 C   0  0  1  0  0  3  0  0  0  0  0  0
  197.7230  175.7660  137.1200 O   0  0  0  0  0  1  0  0  0  0  0  0
  197.1090  173.6470  138.1190 C   0  0  2  0  0  3  0  0  0  0  0  0
  195.2020  172.5320  139.0830 O   0  0  0  0  0  1  0  0  0  0  0  0
  196.0610  172.5290  137.9820 C   0  0  2  0  0  3  0  0  0  0  0  0
  196.7130  171.1580  137.8620 C   0  0  0  0  0  2  0  0  0  0  0  0
  197.2730  170.1380  135.6730 C   0  0  0  0  0  1  0  0  0  0  0  0
  195.1470  171.1380  136.0460 O   0  0  0  0  0  1  0  0  0  0  0  0
  196.1580  170.3970  136.6680 C   0  0  2  0  0  3  0  0  0  0  0  0
  196.7230  174.6100  139.2290 C   0  0  0  0  0  2  0  0  0  0  0  0
  197.8930  174.8720  140.1130 C   0  0  0  0  0  0  0  0  0  0  0  0
  199.1610  174.4430  139.7350 O   0  0  0  0  0  0  0  0  0  0  0  0
  197.7440  175.5170  141.1860 O   0  0  0  0  0  1  0  0  0  0  0  0
  188.4430  177.1890  142.0500 O   0  0  0  0  0  0  0  0  0  0  0  0
  187.2260  177.4880  142.7260 C   0  0  0  0  0  2  0  0  0  0  0  0
  186.6890  177.9310  145.0950 C   0  0  0  0  0  2  0  0  0  0  0  0
  187.2030  176.8880  144.1270 C   0  0  2  0  0  3  0  0  0  0  0  0
  188.8120  177.6060  145.7350 C   0  0  1  0  0  3  0  0  0  0  0  0
  187.7910  178.5670  145.6940 O   0  0  0  0  0  0  0  0  0  0  0  0
  188.6040  176.6250  144.6040 C   0  0  0  0  0  2  0  0  0  0  0  0
  190.1620  178.2740  145.5690 C   0  0  0  0  0  2  0  0  0  0  0  0
  191.1190  177.3380  145.1820 O   0  0  0  0  0  1  0  0  0  0  0  0
  2  6  1  0  0  0  0
  3 38  1  6  0  0  0
  3  4  1  0  0  0  0
  4  6  2  0  0  0  0
  4  1  1  0  0  0  0
  5  7  2  0  0  0  0
  5  3  1  0  0  0  0
  6 60  1  0  0  0  0
  7  2  1  0  0  0  0
  8  7  1  0  0  0  0
  9  8  1  0  0  0  0
 10  9  1  0  0  0  0
 11 10  1  0  0  0  0
 12 13  1  0  0  0  0
 12 19  1  1  0  0  0
 14 11  1  1  0  0  0
 14 12  1  0  0  0  0
 14 13  1  0  0  0  0
 15 18  1  6  0  0  0
 15 12  1  0  0  0  0
 15 16  1  0  0  0  0
 15 17  1  0  0  0  0
 16 17  1  0  0  0  0
 17 18  1  6  0  0  0
 20 19  1  0  0  0  0
 23 20  1  6  0  0  0
 23 28  1  0  0  0  0
 24 23  1  0  0  0  0
 25 27  1  6  0  0  0
 25 22  1  0  0  0  0
 25 28  1  0  0  0  0
 26 22  1  6  0  0  0
 26 21  1  0  0  0  0
 26 36  1  0  0  0  0
 27 24  1  0  0  0  0
 28 21  1  1  0  0  0
 29 32  2  0  0  0  0
 29 37  1  0  0  0  0
 30 34  1  6  0  0  0
 30 31  1  0  0  0  0
 31 35  2  0  0  0  0
 33 35  1  0  0  0  0
 34 33  2  0  0  0  0
 36 32  1  6  0  0  0
 36 30  1  0  0  0  0
 37 34  1  0  0  0  0
 38 39  1  0  0  0  0
 40 41  1  1  0  0  0
 40 42  1  0  0  0  0
 40 39  1  0  0  0  0
 43 42  1  0  0  0  0
 44 43  2  0  0  0  0
 46 45  1  6  0  0  0
 46 43  1  0  0  0  0
 46 47  1  0  0  0  0
 47 48  1  1  0  0  0
 47 49  1  0  0  0  0
 49 56  1  1  0  0  0
 51 49  1  0  0  0  0
 51 50  1  1  0  0  0
 52 51  1  0  0  0  0
 54 55  1  0  0  0  0
 55 53  1  6  0  0  0
 55 52  1  0  0  0  0
 56 57  1  0  0  0  0
 57 59  1  0  0  0  0
 58 57  2  0  0  0  0
 60 61  1  0  0  0  0
 62 65  1  0  0  0  0
 63 61  1  6  0  0  0
 63 66  1  0  0  0  0
 63 62  1  0  0  0  0
 64 67  1  6  0  0  0
 65 64  1  0  0  0  0
 66 64  1  0  0  0  0
 68 67  1  0  0  0  0
M  END
>  <MODEL>
1

>  <REMARK>
 VINA RESULT:      -5.7      0.000      0.000
  Name = 
  27 active torsions:
  status: ('A' for Active; 'I' for Inactive)
    1  A    between atoms: C_2  and  C_39
    2  A    between atoms: C_5  and  C_22
    3  A    between atoms: C_5  and  C_42
    4  A    between atoms: C_6  and  C_31
    5  A    between atoms: C_8  and  C_22
    6  A    between atoms: C_8  and  C_59
    7  A    between atoms: C_11  and  C_46
    8  A    between atoms: C_11  and  C_57
    9  A    between atoms: C_15  and  C_63
   10  A    between atoms: C_16  and  C_32
   11  A    between atoms: C_18  and  C_59
   12  A    between atoms: C_21  and  O_66
   13  A    between atoms: C_24  and  C_25
   14  A    between atoms: C_24  and  C_60
   15  A    between atoms: O_26  and  C_53
   16  A    between atoms: O_26  and  C_63
   17  A    between atoms: C_31  and  C_33
   18  A    between atoms: C_33  and  O_66
   19  A    between atoms: O_35  and  C_58
   20  A    between atoms: O_35  and  C_67
   21  A    between atoms: C_39  and  C_65
   22  A    between atoms: N_41  and  C_50
   23  A    between atoms: C_42  and  C_49
   24  A    between atoms: C_45  and  C_49
   25  A    between atoms: C_45  and  C_65
   26  A    between atoms: C_46  and  C_58
   27  A    between atoms: C_60  and  C_65
                            x       y       z     vdW  Elec       q    Type
                         _______ _______ _______ _____ _____    ______ ____

>  <TORSDO>
F 27

$$$$
=
 OpenBabel10222418313D

 68 76  0  0  1  0  0  0  0  0999 V2000
  188.4780  179.0320  141.5550 C   0  0  0  0  0  1  0  0  0  0  0  0
  185.9080  177.9550  139.0440 O   0  0  0  0  0  0  0  0  0  0  0  0
  188.6160  178.7330  138.9980 C   0  0  2  0  0  3  0  0  0  0  0  0
  187.8290  178.6090  140.2820 C   0  0  0  0  0  0  0  0  0  0  0  0
  187.8030  178.5220  137.8000 N   0  0  0  0  0  0  0  0  0  0  0  0
  186.5410  178.2380  140.2640 C   0  0  0  0  0  0  0  0  0  0  0  0
  186.5620  178.1510  137.8220 C   0  0  0  0  0  0  0  0  0  0  0  0
  185.8990  177.9800  136.6080 O   0  0  0  0  0  0  0  0  0  0  0  0
  184.6780  177.2660  136.4840 C   0  0  0  0  0  2  0  0  0  0  0  0
  184.9700  175.8030  136.1610 C   0  0  0  0  0  2  0  0  0  0  0  0
  184.0060  175.2280  135.1320 C   0  0  0  0  0  2  0  0  0  0  0  0
  182.5070  173.5140  136.2470 C   0  0  1  0  0  0  0  0  0  0  0  0
  183.7850  173.5530  136.8240 O   0  0  0  0  0  0  0  0  0  0  0  0
  183.7280  173.7570  135.4310 C   0  0  2  0  0  3  0  0  0  0  0  0
  181.9800  172.0710  136.2400 C   0  0  1  0  0  0  0  0  0  0  0  0
  182.5950  171.2770  137.2180 O   0  0  0  0  0  0  0  0  0  0  0  0
  181.3060  171.7540  137.5110 C   0  0  2  0  0  3  0  0  0  0  0  0
  180.5850  172.0380  136.3450 O   0  0  0  0  0  0  0  0  0  0  0  0
  181.6570  174.6710  136.7800 C   0  0  0  0  0  2  0  0  0  0  0  0
  182.0340  174.9840  138.0890 O   0  0  0  0  0  0  0  0  0  0  0  0
  180.0280  176.3870  140.3570 C   0  0  0  0  0  2  0  0  0  0  0  0
  178.9490  178.1590  139.2840 C   0  0  0  0  0  2  0  0  0  0  0  0
  181.4640  176.2340  138.3400 C   0  0  1  0  0  3  0  0  0  0  0  0
  181.3360  177.0070  137.0420 C   0  0  0  0  0  2  0  0  0  0  0  0
  179.1890  177.0930  138.2310 C   0  0  1  0  0  3  0  0  0  0  0  0
  179.6130  177.7780  140.5330 N   0  0  2  0  0  0  0  0  0  0  0  0
  179.9660  177.6760  137.0660 C   0  0  0  0  0  2  0  0  0  0  0  0
  180.0590  176.0570  138.8840 C   0  0  2  0  0  3  0  0  0  0  0  0
  180.1800  180.9030  140.0680 C   0  0  0  0  0  3  0  0  0  0  0  0
  180.9310  179.1710  142.1780 C   0  0  2  0  0  3  0  0  0  0  0  0
  180.6200  178.2390  143.2510 N   0  0  0  0  0  0  0  0  0  0  0  0
  180.7900  179.7750  139.8030 N   0  0  0  0  0  0  0  0  0  0  0  0
  179.1450  179.9700  143.3980 N   0  0  0  0  0  0  0  0  0  0  0  0
  179.8940  180.1960  142.3740 C   0  0  0  0  0  0  0  0  0  0  0  0
  179.6420  178.7490  143.9340 C   0  0  0  0  0  3  0  0  0  0  0  0
  180.8100  178.6240  140.7340 C   0  0  2  0  0  3  0  0  0  0  0  0
  179.5690  181.1220  141.3460 N   0  0  0  0  0  2  0  0  0  0  0  0
  189.8070  177.7740  138.9900 C   0  0  0  0  0  2  0  0  0  0  0  0
  190.7710  178.0630  140.1380 C   0  0  0  0  0  2  0  0  0  0  0  0
  191.7500  176.9170  140.3680 C   0  0  2  0  0  3  0  0  0  0  0  0
  192.1090  176.7730  141.8380 C   0  0  0  0  0  1  0  0  0  0  0  0
  192.9920  177.0410  139.4830 C   0  0  0  0  0  2  0  0  0  0  0  0
  192.8770  176.3090  138.1810 C   0  0  0  0  0  0  0  0  0  0  0  0
  192.2010  176.7780  137.2770 O   0  0  0  0  0  0  0  0  0  0  0  0
  192.7110  173.9860  137.7970 O   0  0  0  0  0  1  0  0  0  0  0  0
  193.6190  175.0280  137.9860 C   0  0  1  0  0  3  0  0  0  0  0  0
  194.5850  175.1040  136.8010 C   0  0  1  0  0  3  0  0  0  0  0  0
  194.9420  176.4290  136.5200 O   0  0  0  0  0  1  0  0  0  0  0  0
  195.8250  174.2360  137.0460 C   0  0  2  0  0  3  0  0  0  0  0  0
  194.8520  172.9630  135.2460 O   0  0  0  0  0  1  0  0  0  0  0  0
  195.8590  172.9440  136.2120 C   0  0  2  0  0  3  0  0  0  0  0  0
  195.6890  171.7070  137.0850 C   0  0  0  0  0  2  0  0  0  0  0  0
  197.2280  169.8260  137.5690 C   0  0  0  0  0  1  0  0  0  0  0  0
  197.2830  170.9380  135.4670 O   0  0  0  0  0  1  0  0  0  0  0  0
  196.4220  170.5170  136.4860 C   0  0  2  0  0  3  0  0  0  0  0  0
  195.9090  173.9180  138.5300 C   0  0  0  0  0  2  0  0  0  0  0  0
  196.9720  174.7390  139.1720 C   0  0  0  0  0  0  0  0  0  0  0  0
  197.9910  175.2860  138.4000 O   0  0  0  0  0  0  0  0  0  0  0  0
  196.9300  174.9730  140.4100 O   0  0  0  0  0  1  0  0  0  0  0  0
  185.8300  178.1430  141.4630 O   0  0  0  0  0  0  0  0  0  0  0  0
  184.9230  179.1480  141.9020 C   0  0  0  0  0  2  0  0  0  0  0  0
  184.3420  179.9000  144.1810 C   0  0  0  0  0  2  0  0  0  0  0  0
  184.2360  178.7500  143.2040 C   0  0  2  0  0  3  0  0  0  0  0  0
  185.5600  178.2760  145.1290 C   0  0  1  0  0  3  0  0  0  0  0  0
  185.4440  179.6710  145.0240 O   0  0  0  0  0  0  0  0  0  0  0  0
  184.9980  177.6440  143.8780 C   0  0  0  0  0  2  0  0  0  0  0  0
  187.0180  177.8860  145.2680 C   0  0  0  0  0  2  0  0  0  0  0  0
  187.4850  178.2080  146.5410 O   0  0  0  0  0  1  0  0  0  0  0  0
  2  6  1  0  0  0  0
  3 38  1  1  0  0  0
  3  4  1  0  0  0  0
  4  1  1  0  0  0  0
  5  7  2  0  0  0  0
  5  3  1  0  0  0  0
  6  4  2  0  0  0  0
  6 60  1  0  0  0  0
  7  2  1  0  0  0  0
  8  7  1  0  0  0  0
  9  8  1  0  0  0  0
 10  9  1  0  0  0  0
 11 10  1  0  0  0  0
 12 19  1  1  0  0  0
 12 13  1  0  0  0  0
 14 11  1  1  0  0  0
 14 12  1  0  0  0  0
 14 13  1  0  0  0  0
 15 12  1  0  0  0  0
 15 18  1  6  0  0  0
 15 16  1  0  0  0  0
 15 17  1  0  0  0  0
 16 17  1  0  0  0  0
 17 18  1  6  0  0  0
 19 20  1  0  0  0  0
 21 26  1  0  0  0  0
 23 20  1  6  0  0  0
 23 28  1  0  0  0  0
 24 27  1  0  0  0  0
 24 23  1  0  0  0  0
 25 27  1  6  0  0  0
 25 28  1  0  0  0  0
 25 22  1  0  0  0  0
 26 22  1  6  0  0  0
 26 36  1  0  0  0  0
 28 21  1  1  0  0  0
 29 37  1  0  0  0  0
 30 34  1  6  0  0  0
 30 31  1  0  0  0  0
 31 35  2  0  0  0  0
 32 29  2  0  0  0  0
 33 35  1  0  0  0  0
 34 33  2  0  0  0  0
 36 32  1  6  0  0  0
 36 30  1  0  0  0  0
 37 34  1  0  0  0  0
 38 39  1  0  0  0  0
 39 40  1  0  0  0  0
 40 41  1  1  0  0  0
 42 40  1  0  0  0  0
 43 42  1  0  0  0  0
 44 43  2  0  0  0  0
 46 45  1  6  0  0  0
 46 43  1  0  0  0  0
 47 48  1  1  0  0  0
 47 49  1  0  0  0  0
 47 46  1  0  0  0  0
 49 56  1  1  0  0  0
 51 50  1  6  0  0  0
 51 49  1  0  0  0  0
 51 52  1  0  0  0  0
 54 55  1  0  0  0  0
 55 52  1  0  0  0  0
 55 53  1  1  0  0  0
 56 57  1  0  0  0  0
 57 59  1  0  0  0  0
 58 57  2  0  0  0  0
 60 61  1  0  0  0  0
 62 65  1  0  0  0  0
 63 61  1  6  0  0  0
 63 66  1  0  0  0  0
 63 62  1  0  0  0  0
 64 67  1  6  0  0  0
 65 64  1  0  0  0  0
 66 64  1  0  0  0  0
 67 68  1  0  0  0  0
M  END
>  <MODEL>
2

>  <REMARK>
 VINA RESULT:      -5.3      1.882      2.791
  Name = 
  27 active torsions:
  status: ('A' for Active; 'I' for Inactive)
    1  A    between atoms: C_2  and  C_39
    2  A    between atoms: C_5  and  C_22
    3  A    between atoms: C_5  and  C_42
    4  A    between atoms: C_6  and  C_31
    5  A    between atoms: C_8  and  C_22
    6  A    between atoms: C_8  and  C_59
    7  A    between atoms: C_11  and  C_46
    8  A    between atoms: C_11  and  C_57
    9  A    between atoms: C_15  and  C_63
   10  A    between atoms: C_16  and  C_32
   11  A    between atoms: C_18  and  C_59
   12  A    between atoms: C_21  and  O_66
   13  A    between atoms: C_24  and  C_25
   14  A    between atoms: C_24  and  C_60
   15  A    between atoms: O_26  and  C_53
   16  A    between atoms: O_26  and  C_63
   17  A    between atoms: C_31  and  C_33
   18  A    between atoms: C_33  and  O_66
   19  A    between atoms: O_35  and  C_58
   20  A    between atoms: O_35  and  C_67
   21  A    between atoms: C_39  and  C_65
   22  A    between atoms: N_41  and  C_50
   23  A    between atoms: C_42  and  C_49
   24  A    between atoms: C_45  and  C_49
   25  A    between atoms: C_45  and  C_65
   26  A    between atoms: C_46  and  C_58
   27  A    between atoms: C_60  and  C_65
                            x       y       z     vdW  Elec       q    Type
                         _______ _______ _______ _____ _____    ______ ____

>  <TORSDO>
F 27

$$$$
=
 OpenBabel10222418313D

 68 76  0  0  1  0  0  0  0  0999 V2000
  187.4670  173.8640  135.8030 C   0  0  0  0  0  1  0  0  0  0  0  0
  185.5900  176.9390  136.8460 O   0  0  0  0  0  0  0  0  0  0  0  0
  188.2070  175.9390  137.1430 C   0  0  2  0  0  3  0  0  0  0  0  0
  187.1470  175.2150  136.3450 C   0  0  0  0  0  0  0  0  0  0  0  0
  187.7030  177.1330  137.8240 N   0  0  0  0  0  0  0  0  0  0  0  0
  185.9110  175.7210  136.2290 C   0  0  0  0  0  0  0  0  0  0  0  0
  186.5040  177.5990  137.6760 C   0  0  0  0  0  0  0  0  0  0  0  0
  186.1490  178.7490  138.3790 O   0  0  0  0  0  0  0  0  0  0  0  0
  184.8010  179.1390  138.5980 C   0  0  0  0  0  2  0  0  0  0  0  0
  184.5830  179.4150  140.0840 C   0  0  0  0  0  2  0  0  0  0  0  0
  183.9220  178.2470  140.8040 C   0  0  0  0  0  2  0  0  0  0  0  0
  182.3490  178.8140  142.7100 C   0  0  1  0  0  0  0  0  0  0  0  0
  182.0020  177.6110  142.0780 O   0  0  0  0  0  0  0  0  0  0  0  0
  182.5100  178.6250  141.2420 C   0  0  2  0  0  3  0  0  0  0  0  0
  181.0810  179.5600  143.1490 C   0  0  1  0  0  0  0  0  0  0  0  0
  180.1230  179.6250  142.1270 O   0  0  0  0  0  0  0  0  0  0  0  0
  179.9130  178.6630  143.1310 C   0  0  2  0  0  3  0  0  0  0  0  0
  180.5510  179.0180  144.3260 O   0  0  0  0  0  0  0  0  0  0  0  0
  183.5120  178.5790  143.6800 C   0  0  0  0  0  2  0  0  0  0  0  0
  184.3410  179.7020  143.7190 O   0  0  0  0  0  0  0  0  0  0  0  0
  186.6800  177.3920  143.1450 C   0  0  0  0  0  2  0  0  0  0  0  0
  187.6090  176.8580  145.2210 C   0  0  0  0  0  2  0  0  0  0  0  0
  185.5280  179.2560  144.3070 C   0  0  1  0  0  3  0  0  0  0  0  0
  185.5070  179.5610  145.7920 C   0  0  0  0  0  2  0  0  0  0  0  0
  186.1560  177.2140  145.4730 C   0  0  1  0  0  3  0  0  0  0  0  0
  187.9500  177.1310  143.8230 N   0  0  2  0  0  0  0  0  0  0  0  0
  186.0610  178.3280  146.4980 C   0  0  0  0  0  2  0  0  0  0  0  0
  185.6300  177.7490  144.1710 C   0  0  2  0  0  3  0  0  0  0  0  0
  190.9050  177.7870  144.8880 C   0  0  0  0  0  3  0  0  0  0  0  0
  189.6290  178.4170  142.4410 C   0  0  2  0  0  3  0  0  0  0  0  0
  188.9400  178.0440  141.2150 N   0  0  0  0  0  0  0  0  0  0  0  0
  189.7380  178.3800  144.8930 N   0  0  0  0  0  0  0  0  0  0  0  0
  190.6850  176.6050  141.4840 N   0  0  0  0  0  0  0  0  0  0  0  0
  190.6880  177.3970  142.5000 C   0  0  0  0  0  0  0  0  0  0  0  0
  189.5930  177.0530  140.6910 C   0  0  0  0  0  3  0  0  0  0  0  0
  188.8000  178.3390  143.7480 C   0  0  2  0  0  3  0  0  0  0  0  0
  191.3890  177.1340  143.7080 N   0  0  0  0  0  2  0  0  0  0  0  0
  189.3970  176.3130  136.2590 C   0  0  0  0  0  2  0  0  0  0  0  0
  190.6800  175.6220  136.7180 C   0  0  0  0  0  2  0  0  0  0  0  0
  191.3410  174.8330  135.5930 C   0  0  2  0  0  3  0  0  0  0  0  0
  191.6670  173.4110  136.0230 C   0  0  0  0  0  1  0  0  0  0  0  0
  192.5660  175.5580  135.0320 C   0  0  0  0  0  2  0  0  0  0  0  0
  193.8260  174.7520  135.1050 C   0  0  0  0  0  0  0  0  0  0  0  0
  193.8510  173.6200  134.6450 O   0  0  0  0  0  0  0  0  0  0  0  0
  194.8420  176.7100  135.9420 O   0  0  0  0  0  1  0  0  0  0  0  0
  195.0530  175.3520  135.7090 C   0  0  1  0  0  3  0  0  0  0  0  0
  195.4500  174.6500  137.0100 C   0  0  1  0  0  3  0  0  0  0  0  0
  194.4580  173.7540  137.4280 O   0  0  0  0  0  1  0  0  0  0  0  0
  196.8060  173.9490  136.8650 C   0  0  2  0  0  3  0  0  0  0  0  0
  198.1160  172.0030  137.4160 O   0  0  0  0  0  1  0  0  0  0  0  0
  196.8090  172.4860  137.3410 C   0  0  2  0  0  3  0  0  0  0  0  0
  195.9980  171.5910  136.4130 C   0  0  0  0  0  2  0  0  0  0  0  0
  194.0190  170.1240  136.6750 C   0  0  0  0  0  1  0  0  0  0  0  0
  195.3850  170.6750  138.5420 O   0  0  0  0  0  1  0  0  0  0  0  0
  195.4240  170.4040  137.1700 C   0  0  2  0  0  3  0  0  0  0  0  0
  197.8520  174.7580  137.6140 C   0  0  0  0  0  2  0  0  0  0  0  0
  197.5240  174.8060  139.0650 C   0  0  0  0  0  0  0  0  0  0  0  0
  198.4750  174.4290  140.0070 O   0  0  0  0  0  1  0  0  0  0  0  0
  196.3980  175.2270  139.4470 O   0  0  0  0  0  0  0  0  0  0  0  0
  184.9440  175.0260  135.4990 O   0  0  0  0  0  0  0  0  0  0  0  0
  183.5640  175.0360  135.8440 C   0  0  0  0  0  2  0  0  0  0  0  0
  182.2220  173.2460  136.8900 C   0  0  0  0  0  2  0  0  0  0  0  0
  183.3060  174.2720  137.1380 C   0  0  2  0  0  3  0  0  0  0  0  0
  181.2910  174.6680  138.3510 C   0  0  1  0  0  3  0  0  0  0  0  0
  180.9910  173.7880  137.2990 O   0  0  0  0  0  0  0  0  0  0  0  0
  182.7000  175.1820  138.1690 C   0  0  0  0  0  2  0  0  0  0  0  0
  180.3300  175.8400  138.3380 C   0  0  0  0  0  2  0  0  0  0  0  0
  179.6710  175.9380  139.5620 O   0  0  0  0  0  1  0  0  0  0  0  0
  1  4  1  0  0  0  0
  2  7  1  0  0  0  0
  3 38  1  6  0  0  0
  3  5  1  0  0  0  0
  4  3  1  0  0  0  0
  6  4  2  0  0  0  0
  6  2  1  0  0  0  0
  7  5  2  0  0  0  0
  7  8  1  0  0  0  0
  8  9  1  0  0  0  0
  9 10  1  0  0  0  0
 10 11  1  0  0  0  0
 12 15  1  0  0  0  0
 12 19  1  1  0  0  0
 13 12  1  0  0  0  0
 14 11  1  1  0  0  0
 14 13  1  0  0  0  0
 14 12  1  0  0  0  0
 15 16  1  6  0  0  0
 15 18  1  0  0  0  0
 17 16  1  1  0  0  0
 17 15  1  0  0  0  0
 17 18  1  0  0  0  0
 19 20  1  0  0  0  0
 23 20  1  6  0  0  0
 23 24  1  0  0  0  0
 24 27  1  0  0  0  0
 25 22  1  6  0  0  0
 25 27  1  0  0  0  0
 26 21  1  6  0  0  0
 26 22  1  0  0  0  0
 28 21  1  6  0  0  0
 28 23  1  0  0  0  0
 28 25  1  0  0  0  0
 29 32  2  0  0  0  0
 30 31  1  6  0  0  0
 30 34  1  0  0  0  0
 30 36  1  0  0  0  0
 33 34  2  0  0  0  0
 34 37  1  0  0  0  0
 35 31  2  0  0  0  0
 35 33  1  0  0  0  0
 36 26  1  0  0  0  0
 36 32  1  1  0  0  0
 37 29  1  0  0  0  0
 38 39  1  0  0  0  0
 40 41  1  1  0  0  0
 40 39  1  0  0  0  0
 42 43  1  0  0  0  0
 42 40  1  0  0  0  0
 43 46  1  0  0  0  0
 44 43  2  0  0  0  0
 46 45  1  1  0  0  0
 46 47  1  0  0  0  0
 47 48  1  6  0  0  0
 49 47  1  0  0  0  0
 49 51  1  0  0  0  0
 49 56  1  1  0  0  0
 51 50  1  6  0  0  0
 52 55  1  0  0  0  0
 52 51  1  0  0  0  0
 55 53  1  6  0  0  0
 55 54  1  0  0  0  0
 56 57  1  0  0  0  0
 57 59  2  0  0  0  0
 57 58  1  0  0  0  0
 60 61  1  0  0  0  0
 60  6  1  0  0  0  0
 62 63  1  0  0  0  0
 62 65  1  0  0  0  0
 63 61  1  6  0  0  0
 63 66  1  0  0  0  0
 64 67  1  6  0  0  0
 65 64  1  0  0  0  0
 66 64  1  0  0  0  0
 67 68  1  0  0  0  0
M  END
>  <MODEL>
3

>  <REMARK>
 VINA RESULT:      -5.2      3.179      7.645
  Name = 
  27 active torsions:
  status: ('A' for Active; 'I' for Inactive)
    1  A    between atoms: C_2  and  C_39
    2  A    between atoms: C_5  and  C_22
    3  A    between atoms: C_5  and  C_42
    4  A    between atoms: C_6  and  C_31
    5  A    between atoms: C_8  and  C_22
    6  A    between atoms: C_8  and  C_59
    7  A    between atoms: C_11  and  C_46
    8  A    between atoms: C_11  and  C_57
    9  A    between atoms: C_15  and  C_63
   10  A    between atoms: C_16  and  C_32
   11  A    between atoms: C_18  and  C_59
   12  A    between atoms: C_21  and  O_66
   13  A    between atoms: C_24  and  C_25
   14  A    between atoms: C_24  and  C_60
   15  A    between atoms: O_26  and  C_53
   16  A    between atoms: O_26  and  C_63
   17  A    between atoms: C_31  and  C_33
   18  A    between atoms: C_33  and  O_66
   19  A    between atoms: O_35  and  C_58
   20  A    between atoms: O_35  and  C_67
   21  A    between atoms: C_39  and  C_65
   22  A    between atoms: N_41  and  C_50
   23  A    between atoms: C_42  and  C_49
   24  A    between atoms: C_45  and  C_49
   25  A    between atoms: C_45  and  C_65
   26  A    between atoms: C_46  and  C_58
   27  A    between atoms: C_60  and  C_65
                            x       y       z     vdW  Elec       q    Type
                         _______ _______ _______ _____ _____    ______ ____

>  <TORSDO>
F 27

$$$$
=
 OpenBabel10222418313D

 68 76  0  0  1  0  0  0  0  0999 V2000
  191.7080  176.2330  138.6440 C   0  0  0  0  0  1  0  0  0  0  0  0
  191.3430  174.1050  135.5770 O   0  0  0  0  0  0  0  0  0  0  0  0
  189.6300  175.1830  137.5370 C   0  0  2  0  0  3  0  0  0  0  0  0
  191.1150  175.4610  137.5160 C   0  0  0  0  0  0  0  0  0  0  0  0
  189.2070  174.2210  136.5180 N   0  0  0  0  0  0  0  0  0  0  0  0
  191.8990  174.9270  136.5680 C   0  0  0  0  0  0  0  0  0  0  0  0
  189.9920  173.7360  135.6100 C   0  0  0  0  0  0  0  0  0  0  0  0
  189.4640  172.8290  134.6920 O   0  0  0  0  0  0  0  0  0  0  0  0
  189.7020  171.4310  134.7580 C   0  0  0  0  0  2  0  0  0  0  0  0
  188.3840  170.6790  134.5940 C   0  0  0  0  0  2  0  0  0  0  0  0
  187.1760  171.6070  134.6090 C   0  0  0  0  0  2  0  0  0  0  0  0
  184.8550  171.7270  135.6210 C   0  0  1  0  0  0  0  0  0  0  0  0
  185.7670  171.0790  136.4670 O   0  0  0  0  0  0  0  0  0  0  0  0
  185.9360  170.8550  135.0860 C   0  0  2  0  0  3  0  0  0  0  0  0
  183.4710  171.0710  135.7420 C   0  0  1  0  0  0  0  0  0  0  0  0
  182.4450  172.0170  135.8700 O   0  0  0  0  0  0  0  0  0  0  0  0
  182.6160  171.4370  134.6010 C   0  0  2  0  0  3  0  0  0  0  0  0
  183.2340  170.1840  134.6870 O   0  0  0  0  0  0  0  0  0  0  0  0
  185.0290  173.2450  135.7280 C   0  0  0  0  0  2  0  0  0  0  0  0
  184.6100  173.6910  136.9840 O   0  0  0  0  0  0  0  0  0  0  0  0
  181.9210  175.6670  137.0490 C   0  0  0  0  0  2  0  0  0  0  0  0
  182.3970  177.4820  135.6580 C   0  0  0  0  0  2  0  0  0  0  0  0
  184.3090  175.0440  136.8050 C   0  0  1  0  0  3  0  0  0  0  0  0
  185.3560  175.6860  135.9150 C   0  0  0  0  0  2  0  0  0  0  0  0
  183.1270  176.2850  135.0780 C   0  0  1  0  0  3  0  0  0  0  0  0
  181.8030  177.1210  136.9470 N   0  0  2  0  0  0  0  0  0  0  0  0
  184.6070  176.5910  134.9440 C   0  0  0  0  0  2  0  0  0  0  0  0
  182.9800  175.1830  136.0880 C   0  0  2  0  0  3  0  0  0  0  0  0
  181.6180  179.9890  138.3760 C   0  0  0  0  0  3  0  0  0  0  0  0
  182.0310  177.4010  139.4480 C   0  0  2  0  0  3  0  0  0  0  0  0
  181.6340  176.0180  139.6610 N   0  0  0  0  0  0  0  0  0  0  0  0
  182.5660  179.2250  137.8940 N   0  0  0  0  0  0  0  0  0  0  0  0
  179.7870  177.3160  139.9680 N   0  0  0  0  0  0  0  0  0  0  0  0
  180.7520  178.1030  139.6390 C   0  0  0  0  0  0  0  0  0  0  0  0
  180.3800  176.0230  139.9940 C   0  0  0  0  0  3  0  0  0  0  0  0
  182.5750  177.7520  138.0400 C   0  0  2  0  0  3  0  0  0  0  0  0
  180.5660  179.4330  139.1750 N   0  0  0  0  0  2  0  0  0  0  0  0
  188.8280  176.4760  137.3900 C   0  0  0  0  0  2  0  0  0  0  0  0
  187.7770  176.6170  138.4890 C   0  0  0  0  0  2  0  0  0  0  0  0
  186.9420  177.8820  138.3260 C   0  0  2  0  0  3  0  0  0  0  0  0
  187.5000  178.7850  137.2370 C   0  0  0  0  0  1  0  0  0  0  0  0
  186.7640  178.6230  139.6520 C   0  0  0  0  0  2  0  0  0  0  0  0
  187.9580  178.5350  140.5530 C   0  0  0  0  0  0  0  0  0  0  0  0
  189.0760  178.4280  140.0720 O   0  0  0  0  0  0  0  0  0  0  0  0
  186.4740  179.0270  142.3200 O   0  0  0  0  0  1  0  0  0  0  0  0
  187.7750  178.6160  142.0330 C   0  0  1  0  0  3  0  0  0  0  0  0
  188.0670  177.2790  142.7170 C   0  0  1  0  0  3  0  0  0  0  0  0
  188.3170  176.2700  141.7780 O   0  0  0  0  0  1  0  0  0  0  0  0
  189.2260  177.4110  143.7110 C   0  0  2  0  0  3  0  0  0  0  0  0
  189.8610  177.8690  145.9900 O   0  0  0  0  0  1  0  0  0  0  0  0
  188.8240  178.0150  145.0670 C   0  0  2  0  0  3  0  0  0  0  0  0
  187.5660  177.3580  145.6230 C   0  0  0  0  0  2  0  0  0  0  0  0
  186.6760  178.4830  147.6440 C   0  0  0  0  0  1  0  0  0  0  0  0
  185.2810  178.0730  145.7620 O   0  0  0  0  0  1  0  0  0  0  0  0
  186.5890  178.4060  146.1330 C   0  0  2  0  0  3  0  0  0  0  0  0
  190.3280  178.2340  143.0640 C   0  0  0  0  0  2  0  0  0  0  0  0
  191.5520  177.4060  142.8840 C   0  0  0  0  0  0  0  0  0  0  0  0
  191.7350  176.2590  143.6490 O   0  0  0  0  0  1  0  0  0  0  0  0
  192.4060  177.7190  142.0110 O   0  0  0  0  0  0  0  0  0  0  0  0
  193.2710  175.1880  136.5770 O   0  0  0  0  0  0  0  0  0  0  0  0
  194.2490  174.1580  136.6730 C   0  0  0  0  0  2  0  0  0  0  0  0
  195.7470  172.6090  135.4650 C   0  0  0  0  0  2  0  0  0  0  0  0
  194.7630  173.7460  135.2970 C   0  0  2  0  0  3  0  0  0  0  0  0
  197.0000  174.2890  134.6720 C   0  0  1  0  0  3  0  0  0  0  0  0
  197.0480  173.1420  135.4790 O   0  0  0  0  0  0  0  0  0  0  0  0
  195.5960  174.8470  134.7020 C   0  0  0  0  0  2  0  0  0  0  0  0
  197.9600  175.3360  135.2020 C   0  0  0  0  0  2  0  0  0  0  0  0
  197.4660  175.8910  136.3810 O   0  0  0  0  0  1  0  0  0  0  0  0
  2  7  1  0  0  0  0
  2  6  1  0  0  0  0
  3 38  1  6  0  0  0
  4  3  1  0  0  0  0
  4  1  1  0  0  0  0
  5  3  1  0  0  0  0
  6 60  1  0  0  0  0
  6  4  2  0  0  0  0
  7  5  2  0  0  0  0
  8  9  1  0  0  0  0
  8  7  1  0  0  0  0
 10 11  1  0  0  0  0
 10  9  1  0  0  0  0
 12 19  1  6  0  0  0
 12 15  1  0  0  0  0
 12 13  1  0  0  0  0
 14 11  1  6  0  0  0
 14 12  1  0  0  0  0
 14 13  1  0  0  0  0
 15 18  1  1  0  0  0
 15 16  1  0  0  0  0
 17 18  1  1  0  0  0
 17 15  1  0  0  0  0
 17 16  1  0  0  0  0
 19 20  1  0  0  0  0
 23 20  1  6  0  0  0
 24 23  1  0  0  0  0
 25 27  1  1  0  0  0
 25 22  1  0  0  0  0
 25 28  1  0  0  0  0
 26 22  1  6  0  0  0
 26 21  1  0  0  0  0
 26 36  1  0  0  0  0
 27 24  1  0  0  0  0
 28 23  1  0  0  0  0
 28 21  1  1  0  0  0
 29 37  1  0  0  0  0
 30 34  1  6  0  0  0
 30 31  1  0  0  0  0
 31 35  2  0  0  0  0
 32 29  2  0  0  0  0
 33 35  1  0  0  0  0
 34 33  2  0  0  0  0
 36 32  1  6  0  0  0
 36 30  1  0  0  0  0
 37 34  1  0  0  0  0
 38 39  1  0  0  0  0
 40 41  1  6  0  0  0
 40 39  1  0  0  0  0
 40 42  1  0  0  0  0
 42 43  1  0  0  0  0
 43 46  1  0  0  0  0
 44 43  2  0  0  0  0
 46 45  1  6  0  0  0
 46 47  1  0  0  0  0
 47 48  1  6  0  0  0
 47 49  1  0  0  0  0
 49 56  1  6  0  0  0
 49 51  1  0  0  0  0
 51 52  1  0  0  0  0
 51 50  1  1  0  0  0
 52 55  1  0  0  0  0
 54 55  1  0  0  0  0
 55 53  1  1  0  0  0
 57 56  1  0  0  0  0
 57 58  1  0  0  0  0
 59 57  2  0  0  0  0
 60 61  1  0  0  0  0
 62 65  1  0  0  0  0
 63 62  1  0  0  0  0
 63 61  1  1  0  0  0
 64 66  1  0  0  0  0
 64 67  1  1  0  0  0
 64 65  1  0  0  0  0
 66 63  1  0  0  0  0
 67 68  1  0  0  0  0
M  END
>  <MODEL>
4

>  <REMARK>
 VINA RESULT:      -5.0      2.204      8.102
  Name = 
  27 active torsions:
  status: ('A' for Active; 'I' for Inactive)
    1  A    between atoms: C_2  and  C_39
    2  A    between atoms: C_5  and  C_22
    3  A    between atoms: C_5  and  C_42
    4  A    between atoms: C_6  and  C_31
    5  A    between atoms: C_8  and  C_22
    6  A    between atoms: C_8  and  C_59
    7  A    between atoms: C_11  and  C_46
    8  A    between atoms: C_11  and  C_57
    9  A    between atoms: C_15  and  C_63
   10  A    between atoms: C_16  and  C_32
   11  A    between atoms: C_18  and  C_59
   12  A    between atoms: C_21  and  O_66
   13  A    between atoms: C_24  and  C_25
   14  A    between atoms: C_24  and  C_60
   15  A    between atoms: O_26  and  C_53
   16  A    between atoms: O_26  and  C_63
   17  A    between atoms: C_31  and  C_33
   18  A    between atoms: C_33  and  O_66
   19  A    between atoms: O_35  and  C_58
   20  A    between atoms: O_35  and  C_67
   21  A    between atoms: C_39  and  C_65
   22  A    between atoms: N_41  and  C_50
   23  A    between atoms: C_42  and  C_49
   24  A    between atoms: C_45  and  C_49
   25  A    between atoms: C_45  and  C_65
   26  A    between atoms: C_46  and  C_58
   27  A    between atoms: C_60  and  C_65
                            x       y       z     vdW  Elec       q    Type
                         _______ _______ _______ _____ _____    ______ ____

>  <TORSDO>
F 27

$$$$
=
 OpenBabel10222418313D

 68 76  0  0  1  0  0  0  0  0999 V2000
  187.6800  173.9020  135.8810 C   0  0  0  0  0  1  0  0  0  0  0  0
  185.8390  177.0070  136.9010 O   0  0  0  0  0  0  0  0  0  0  0  0
  188.4230  175.9450  137.2680 C   0  0  2  0  0  3  0  0  0  0  0  0
  187.3730  175.2530  136.4290 C   0  0  0  0  0  0  0  0  0  0  0  0
  187.9250  177.1410  137.9470 N   0  0  0  0  0  0  0  0  0  0  0  0
  186.1530  175.7890  136.2810 C   0  0  0  0  0  0  0  0  0  0  0  0
  186.7420  177.6360  137.7680 C   0  0  0  0  0  0  0  0  0  0  0  0
  186.3900  178.7860  138.4730 O   0  0  0  0  0  0  0  0  0  0  0  0
  185.0520  179.2480  138.5860 C   0  0  0  0  0  2  0  0  0  0  0  0
  184.7090  179.4710  140.0570 C   0  0  0  0  0  2  0  0  0  0  0  0
  184.0220  178.2670  140.6870 C   0  0  0  0  0  2  0  0  0  0  0  0
  182.4340  178.7810  142.5950 C   0  0  1  0  0  0  0  0  0  0  0  0
  182.0910  177.5960  141.9270 O   0  0  0  0  0  0  0  0  0  0  0  0
  182.6060  178.6340  141.1230 C   0  0  2  0  0  3  0  0  0  0  0  0
  181.1620  179.5150  143.0440 C   0  0  1  0  0  0  0  0  0  0  0  0
  180.1090  179.3610  142.1310 O   0  0  0  0  0  0  0  0  0  0  0  0
  180.0660  178.5630  143.2870 C   0  0  2  0  0  3  0  0  0  0  0  0
  180.7870  179.1390  144.3390 O   0  0  0  0  0  0  0  0  0  0  0  0
  183.5890  178.5190  143.5670 C   0  0  0  0  0  2  0  0  0  0  0  0
  184.3410  179.6820  143.7470 O   0  0  0  0  0  0  0  0  0  0  0  0
  186.6960  177.3720  143.2450 C   0  0  0  0  0  2  0  0  0  0  0  0
  187.6140  176.8950  145.3390 C   0  0  0  0  0  2  0  0  0  0  0  0
  185.5260  179.2570  144.3530 C   0  0  1  0  0  3  0  0  0  0  0  0
  185.4930  179.5980  145.8300 C   0  0  0  0  0  2  0  0  0  0  0  0
  186.1570  177.2480  145.5720 C   0  0  1  0  0  3  0  0  0  0  0  0
  187.9630  177.1350  143.9370 N   0  0  2  0  0  0  0  0  0  0  0  0
  186.0500  178.3860  146.5690 C   0  0  0  0  0  2  0  0  0  0  0  0
  185.6380  177.7480  144.2550 C   0  0  2  0  0  3  0  0  0  0  0  0
  190.9200  177.8230  144.9770 C   0  0  0  0  0  3  0  0  0  0  0  0
  189.6290  178.4070  142.5260 C   0  0  2  0  0  3  0  0  0  0  0  0
  188.9350  178.0110  141.3100 N   0  0  0  0  0  0  0  0  0  0  0  0
  189.7500  178.4100  144.9780 N   0  0  0  0  0  0  0  0  0  0  0  0
  190.6890  176.5850  141.5930 N   0  0  0  0  0  0  0  0  0  0  0  0
  190.6930  177.3930  142.5960 C   0  0  0  0  0  0  0  0  0  0  0  0
  189.5900  177.0150  140.7980 C   0  0  0  0  0  3  0  0  0  0  0  0
  188.8070  178.3460  143.8380 C   0  0  2  0  0  3  0  0  0  0  0  0
  191.4010  177.1530  143.8040 N   0  0  0  0  0  2  0  0  0  0  0  0
  189.6490  176.3010  136.4270 C   0  0  0  0  0  2  0  0  0  0  0  0
  190.8500  175.4280  136.7810 C   0  0  0  0  0  2  0  0  0  0  0  0
  191.2760  174.5380  135.6190 C   0  0  2  0  0  3  0  0  0  0  0  0
  191.3040  173.0710  136.0180 C   0  0  0  0  0  1  0  0  0  0  0  0
  192.6030  174.9930  135.0090 C   0  0  0  0  0  2  0  0  0  0  0  0
  193.6390  173.9120  134.9510 C   0  0  0  0  0  0  0  0  0  0  0  0
  193.3230  172.7860  134.5940 O   0  0  0  0  0  0  0  0  0  0  0  0
  195.3140  175.5720  135.0300 O   0  0  0  0  0  1  0  0  0  0  0  0
  195.0570  174.2270  135.2970 C   0  0  1  0  0  3  0  0  0  0  0  0
  195.3700  173.9120  136.7610 C   0  0  1  0  0  3  0  0  0  0  0  0
  194.2740  173.3190  137.4000 O   0  0  0  0  0  1  0  0  0  0  0  0
  196.6230  173.0350  136.8790 C   0  0  2  0  0  3  0  0  0  0  0  0
  198.6020  173.3230  135.5350 O   0  0  0  0  0  1  0  0  0  0  0  0
  197.9430  173.7960  136.6710 C   0  0  2  0  0  3  0  0  0  0  0  0
  198.8650  173.6610  137.8760 C   0  0  0  0  0  2  0  0  0  0  0  0
  197.3470  174.4170  139.6830 C   0  0  0  0  0  1  0  0  0  0  0  0
  198.4080  175.9860  138.2440 O   0  0  0  0  0  1  0  0  0  0  0  0
  198.5940  174.7600  138.8920 C   0  0  2  0  0  3  0  0  0  0  0  0
  196.5050  171.8870  135.8900 C   0  0  0  0  0  2  0  0  0  0  0  0
  196.3780  170.5930  136.6150 C   0  0  0  0  0  0  0  0  0  0  0  0
  197.2500  170.2900  137.6550 O   0  0  0  0  0  1  0  0  0  0  0  0
  195.4560  169.7870  136.3150 O   0  0  0  0  0  0  0  0  0  0  0  0
  185.1940  175.1240  135.5120 O   0  0  0  0  0  0  0  0  0  0  0  0
  184.0270  174.5380  136.0750 C   0  0  0  0  0  2  0  0  0  0  0  0
  182.9030  175.8220  137.8610 C   0  0  0  0  0  2  0  0  0  0  0  0
  182.9590  175.5870  136.3670 C   0  0  2  0  0  3  0  0  0  0  0  0
  180.9080  174.9200  137.3850 C   0  0  1  0  0  3  0  0  0  0  0  0
  181.8710  175.0340  138.3990 O   0  0  0  0  0  0  0  0  0  0  0  0
  181.5950  175.0450  136.0440 C   0  0  0  0  0  2  0  0  0  0  0  0
  180.2260  173.5680  137.4660 C   0  0  0  0  0  2  0  0  0  0  0  0
  179.8990  173.2720  138.7880 O   0  0  0  0  0  1  0  0  0  0  0  0
  1  4  1  0  0  0  0
  2  7  1  0  0  0  0
  3 38  1  6  0  0  0
  3  5  1  0  0  0  0
  4  3  1  0  0  0  0
  6  4  2  0  0  0  0
  6  2  1  0  0  0  0
  7  5  2  0  0  0  0
  7  8  1  0  0  0  0
  8  9  1  0  0  0  0
  9 10  1  0  0  0  0
 10 11  1  0  0  0  0
 12 15  1  0  0  0  0
 12 19  1  1  0  0  0
 13 12  1  0  0  0  0
 14 11  1  1  0  0  0
 14 13  1  0  0  0  0
 14 12  1  0  0  0  0
 15 16  1  6  0  0  0
 15 17  1  0  0  0  0
 15 18  1  0  0  0  0
 17 16  1  1  0  0  0
 17 18  1  0  0  0  0
 19 20  1  0  0  0  0
 23 20  1  6  0  0  0
 23 24  1  0  0  0  0
 24 27  1  0  0  0  0
 25 22  1  6  0  0  0
 25 27  1  0  0  0  0
 26 21  1  6  0  0  0
 26 22  1  0  0  0  0
 28 21  1  6  0  0  0
 28 23  1  0  0  0  0
 28 25  1  0  0  0  0
 29 32  2  0  0  0  0
 30 31  1  6  0  0  0
 30 34  1  0  0  0  0
 30 36  1  0  0  0  0
 33 34  2  0  0  0  0
 34 37  1  0  0  0  0
 35 31  2  0  0  0  0
 35 33  1  0  0  0  0
 36 26  1  0  0  0  0
 36 32  1  1  0  0  0
 37 29  1  0  0  0  0
 38 39  1  0  0  0  0
 40 41  1  1  0  0  0
 40 39  1  0  0  0  0
 42 40  1  0  0  0  0
 43 42  1  0  0  0  0
 43 46  1  0  0  0  0
 44 43  2  0  0  0  0
 46 45  1  1  0  0  0
 46 47  1  0  0  0  0
 47 49  1  0  0  0  0
 47 48  1  6  0  0  0
 49 56  1  6  0  0  0
 51 50  1  6  0  0  0
 51 49  1  0  0  0  0
 51 52  1  0  0  0  0
 52 55  1  0  0  0  0
 54 55  1  0  0  0  0
 55 53  1  6  0  0  0
 56 57  1  0  0  0  0
 57 58  1  0  0  0  0
 59 57  2  0  0  0  0
 60 61  1  0  0  0  0
 60  6  1  0  0  0  0
 62 65  1  0  0  0  0
 63 61  1  1  0  0  0
 63 62  1  0  0  0  0
 64 67  1  6  0  0  0
 64 65  1  0  0  0  0
 66 63  1  0  0  0  0
 66 64  1  0  0  0  0
 67 68  1  0  0  0  0
M  END
>  <MODEL>
5

>  <REMARK>
 VINA RESULT:      -4.8      3.206      7.909
  Name = 
  27 active torsions:
  status: ('A' for Active; 'I' for Inactive)
    1  A    between atoms: C_2  and  C_39
    2  A    between atoms: C_5  and  C_22
    3  A    between atoms: C_5  and  C_42
    4  A    between atoms: C_6  and  C_31
    5  A    between atoms: C_8  and  C_22
    6  A    between atoms: C_8  and  C_59
    7  A    between atoms: C_11  and  C_46
    8  A    between atoms: C_11  and  C_57
    9  A    between atoms: C_15  and  C_63
   10  A    between atoms: C_16  and  C_32
   11  A    between atoms: C_18  and  C_59
   12  A    between atoms: C_21  and  O_66
   13  A    between atoms: C_24  and  C_25
   14  A    between atoms: C_24  and  C_60
   15  A    between atoms: O_26  and  C_53
   16  A    between atoms: O_26  and  C_63
   17  A    between atoms: C_31  and  C_33
   18  A    between atoms: C_33  and  O_66
   19  A    between atoms: O_35  and  C_58
   20  A    between atoms: O_35  and  C_67
   21  A    between atoms: C_39  and  C_65
   22  A    between atoms: N_41  and  C_50
   23  A    between atoms: C_42  and  C_49
   24  A    between atoms: C_45  and  C_49
   25  A    between atoms: C_45  and  C_65
   26  A    between atoms: C_46  and  C_58
   27  A    between atoms: C_60  and  C_65
                            x       y       z     vdW  Elec       q    Type
                         _______ _______ _______ _____ _____    ______ ____

>  <TORSDO>
F 27

$$$$
=
 OpenBabel10222418313D

 68 76  0  0  1  0  0  0  0  0999 V2000
  182.5480  180.5150  139.1160 C   0  0  0  0  0  1  0  0  0  0  0  0
  183.5720  177.4100  137.2780 O   0  0  0  0  0  0  0  0  0  0  0  0
  184.7730  179.2130  139.0790 C   0  0  2  0  0  3  0  0  0  0  0  0
  183.3270  179.3310  138.6570 C   0  0  0  0  0  0  0  0  0  0  0  0
  185.4960  178.1520  138.3760 N   0  0  0  0  0  0  0  0  0  0  0  0
  182.7910  178.4550  137.7950 C   0  0  0  0  0  0  0  0  0  0  0  0
  184.9410  177.3160  137.5590 C   0  0  0  0  0  0  0  0  0  0  0  0
  185.7410  176.3470  136.9570 O   0  0  0  0  0  0  0  0  0  0  0  0
  187.0190  175.9770  137.4520 C   0  0  0  0  0  2  0  0  0  0  0  0
  187.6190  177.1400  138.2380 C   0  0  0  0  0  2  0  0  0  0  0  0
  189.0080  177.5240  137.7460 C   0  0  0  0  0  2  0  0  0  0  0  0
  191.2790  177.1840  138.8190 C   0  0  1  0  0  0  0  0  0  0  0  0
  190.2490  176.5870  139.5610 O   0  0  0  0  0  0  0  0  0  0  0  0
  189.9300  177.8050  138.9290 C   0  0  2  0  0  3  0  0  0  0  0  0
  192.3490  177.7470  139.7670 C   0  0  1  0  0  0  0  0  0  0  0  0
  191.8850  177.8560  141.0860 O   0  0  0  0  0  0  0  0  0  0  0  0
  192.7110  176.7570  140.7950 C   0  0  2  0  0  3  0  0  0  0  0  0
  193.5360  177.0100  139.6910 O   0  0  0  0  0  0  0  0  0  0  0  0
  191.6550  176.2910  137.6330 C   0  0  0  0  0  2  0  0  0  0  0  0
  193.0350  176.0690  137.6160 O   0  0  0  0  0  0  0  0  0  0  0  0
  195.2010  174.1350  135.9720 C   0  0  0  0  0  2  0  0  0  0  0  0
  193.9890  172.3010  135.1840 C   0  0  0  0  0  2  0  0  0  0  0  0
  193.1800  174.7190  137.2850 C   0  0  1  0  0  3  0  0  0  0  0  0
  191.8180  174.0540  137.2480 C   0  0  0  0  0  2  0  0  0  0  0  0
  193.0360  173.4810  135.1940 C   0  0  1  0  0  3  0  0  0  0  0  0
  195.2550  172.6820  135.8140 N   0  0  2  0  0  0  0  0  0  0  0  0
  191.8060  173.1510  136.0200 C   0  0  0  0  0  2  0  0  0  0  0  0
  193.7650  174.5940  135.8910 C   0  0  2  0  0  3  0  0  0  0  0  0
  195.7730  169.6600  136.7640 C   0  0  0  0  0  3  0  0  0  0  0  0
  196.7790  172.1160  137.7480 C   0  0  2  0  0  3  0  0  0  0  0  0
  197.4920  173.3740  137.5840 N   0  0  0  0  0  0  0  0  0  0  0  0
  194.9470  170.6280  137.0750 N   0  0  0  0  0  0  0  0  0  0  0  0
  198.7000  171.7590  136.5250 N   0  0  0  0  0  0  0  0  0  0  0  0
  197.6430  171.1930  136.9960 C   0  0  0  0  0  0  0  0  0  0  0  0
  198.5830  173.1170  136.9310 C   0  0  0  0  0  3  0  0  0  0  0  0
  195.3520  172.0500  137.1480 C   0  0  2  0  0  3  0  0  0  0  0  0
  197.1680  169.9230  136.5690 N   0  0  0  0  0  2  0  0  0  0  0  0
  184.8870  179.0040  140.5890 C   0  0  0  0  0  2  0  0  0  0  0  0
  183.9440  177.9070  141.0790 C   0  0  0  0  0  2  0  0  0  0  0  0
  183.2380  178.2940  142.3740 C   0  0  2  0  0  3  0  0  0  0  0  0
  181.7830  178.6650  142.1290 C   0  0  0  0  0  1  0  0  0  0  0  0
  183.9910  179.3910  143.1290 C   0  0  0  0  0  2  0  0  0  0  0  0
  184.3800  179.0020  144.5220 C   0  0  0  0  0  0  0  0  0  0  0  0
  183.5210  178.6610  145.3210 O   0  0  0  0  0  0  0  0  0  0  0  0
  185.9650  179.5830  146.1710 O   0  0  0  0  0  1  0  0  0  0  0  0
  185.8220  178.9990  144.9130 C   0  0  1  0  0  3  0  0  0  0  0  0
  186.4070  177.5850  144.9200 C   0  0  1  0  0  3  0  0  0  0  0  0
  186.0770  176.8910  143.7480 O   0  0  0  0  0  1  0  0  0  0  0  0
  187.9250  177.6190  145.1350 C   0  0  2  0  0  3  0  0  0  0  0  0
  188.1520  176.0160  143.3500 O   0  0  0  0  0  1  0  0  0  0  0  0
  188.7410  177.1460  143.9200 C   0  0  2  0  0  3  0  0  0  0  0  0
  190.1790  176.8190  144.3030 C   0  0  0  0  0  2  0  0  0  0  0  0
  191.5480  178.8730  144.0780 C   0  0  0  0  0  1  0  0  0  0  0  0
  191.7200  177.4980  146.0100 O   0  0  0  0  0  1  0  0  0  0  0  0
  190.8150  177.9760  145.0570 C   0  0  2  0  0  3  0  0  0  0  0  0
  188.2590  176.7870  146.3620 C   0  0  0  0  0  2  0  0  0  0  0  0
  188.2850  177.6470  147.5770 C   0  0  0  0  0  0  0  0  0  0  0  0
  189.1900  178.6990  147.6650 O   0  0  0  0  0  0  0  0  0  0  0  0
  187.4600  177.4500  148.5100 O   0  0  0  0  0  1  0  0  0  0  0  0
  181.4550  178.5920  137.4080 O   0  0  0  0  0  0  0  0  0  0  0  0
  180.7940  177.6460  136.5760 C   0  0  0  0  0  2  0  0  0  0  0  0
  178.9460  178.5170  137.9640 C   0  0  0  0  0  2  0  0  0  0  0  0
  179.3660  177.3890  137.0470 C   0  0  2  0  0  3  0  0  0  0  0  0
  178.9790  176.7210  139.3030 C   0  0  1  0  0  3  0  0  0  0  0  0
  179.1550  178.1130  139.2940 O   0  0  0  0  0  0  0  0  0  0  0  0
  179.3210  176.1780  137.9350 C   0  0  0  0  0  2  0  0  0  0  0  0
  179.8970  176.0890  140.3300 C   0  0  0  0  0  2  0  0  0  0  0  0
  180.5460  174.9840  139.7820 O   0  0  0  0  0  1  0  0  0  0  0  0
  2  7  1  0  0  0  0
  2  6  1  0  0  0  0
  3 38  1  1  0  0  0
  4  3  1  0  0  0  0
  4  1  1  0  0  0  0
  5  3  1  0  0  0  0
  6  4  2  0  0  0  0
  7  5  2  0  0  0  0
  8  9  1  0  0  0  0
  8  7  1  0  0  0  0
  9 10  1  0  0  0  0
 11 10  1  0  0  0  0
 12 19  1  6  0  0  0
 12 14  1  0  0  0  0
 12 13  1  0  0  0  0
 12 15  1  0  0  0  0
 14 11  1  6  0  0  0
 14 13  1  0  0  0  0
 15 18  1  6  0  0  0
 15 17  1  0  0  0  0
 15 16  1  0  0  0  0
 17 18  1  1  0  0  0
 17 16  1  0  0  0  0
 20 19  1  0  0  0  0
 23 20  1  6  0  0  0
 24 23  1  0  0  0  0
 25 22  1  1  0  0  0
 25 28  1  0  0  0  0
 25 27  1  0  0  0  0
 26 22  1  1  0  0  0
 26 21  1  0  0  0  0
 26 36  1  0  0  0  0
 27 24  1  0  0  0  0
 28 21  1  1  0  0  0
 28 23  1  0  0  0  0
 29 32  2  0  0  0  0
 30 34  1  6  0  0  0
 31 30  1  0  0  0  0
 33 35  1  0  0  0  0
 33 34  2  0  0  0  0
 35 31  2  0  0  0  0
 36 32  1  6  0  0  0
 36 30  1  0  0  0  0
 37 29  1  0  0  0  0
 37 34  1  0  0  0  0
 38 39  1  0  0  0  0
 39 40  1  0  0  0  0
 40 41  1  6  0  0  0
 40 42  1  0  0  0  0
 42 43  1  0  0  0  0
 43 46  1  0  0  0  0
 43 44  2  0  0  0  0
 46 47  1  0  0  0  0
 46 45  1  1  0  0  0
 47 48  1  6  0  0  0
 47 49  1  0  0  0  0
 49 56  1  1  0  0  0
 51 50  1  1  0  0  0
 51 52  1  0  0  0  0
 51 49  1  0  0  0  0
 52 55  1  0  0  0  0
 55 53  1  6  0  0  0
 55 54  1  0  0  0  0
 56 57  1  0  0  0  0
 57 58  2  0  0  0  0
 57 59  1  0  0  0  0
 60  6  1  0  0  0  0
 61 60  1  0  0  0  0
 62 65  1  0  0  0  0
 63 61  1  1  0  0  0
 63 66  1  0  0  0  0
 63 62  1  0  0  0  0
 64 67  1  1  0  0  0
 65 64  1  0  0  0  0
 66 64  1  0  0  0  0
 68 67  1  0  0  0  0
M  END
>  <MODEL>
6

>  <REMARK>
 VINA RESULT:      -4.7      3.641     12.243
  Name = 
  27 active torsions:
  status: ('A' for Active; 'I' for Inactive)
    1  A    between atoms: C_2  and  C_39
    2  A    between atoms: C_5  and  C_22
    3  A    between atoms: C_5  and  C_42
    4  A    between atoms: C_6  and  C_31
    5  A    between atoms: C_8  and  C_22
    6  A    between atoms: C_8  and  C_59
    7  A    between atoms: C_11  and  C_46
    8  A    between atoms: C_11  and  C_57
    9  A    between atoms: C_15  and  C_63
   10  A    between atoms: C_16  and  C_32
   11  A    between atoms: C_18  and  C_59
   12  A    between atoms: C_21  and  O_66
   13  A    between atoms: C_24  and  C_25
   14  A    between atoms: C_24  and  C_60
   15  A    between atoms: O_26  and  C_53
   16  A    between atoms: O_26  and  C_63
   17  A    between atoms: C_31  and  C_33
   18  A    between atoms: C_33  and  O_66
   19  A    between atoms: O_35  and  C_58
   20  A    between atoms: O_35  and  C_67
   21  A    between atoms: C_39  and  C_65
   22  A    between atoms: N_41  and  C_50
   23  A    between atoms: C_42  and  C_49
   24  A    between atoms: C_45  and  C_49
   25  A    between atoms: C_45  and  C_65
   26  A    between atoms: C_46  and  C_58
   27  A    between atoms: C_60  and  C_65
                            x       y       z     vdW  Elec       q    Type
                         _______ _______ _______ _____ _____    ______ ____

>  <TORSDO>
F 27

$$$$
=
 OpenBabel10222418313D

 68 76  0  0  1  0  0  0  0  0999 V2000
  191.1390  176.9580  138.6390 C   0  0  0  0  0  1  0  0  0  0  0  0
  189.4710  175.7740  135.4950 O   0  0  0  0  0  0  0  0  0  0  0  0
  188.7280  176.1670  138.1850 C   0  0  2  0  0  3  0  0  0  0  0  0
  190.1040  176.5110  137.6650 C   0  0  0  0  0  0  0  0  0  0  0  0
  187.8790  175.5140  137.1870 N   0  0  0  0  0  0  0  0  0  0  0  0
  190.4220  176.3070  136.3780 C   0  0  0  0  0  0  0  0  0  0  0  0
  188.2160  175.3460  135.9480 C   0  0  0  0  0  0  0  0  0  0  0  0
  187.3140  174.7130  135.0950 O   0  0  0  0  0  0  0  0  0  0  0  0
  187.5090  173.3970  134.5980 C   0  0  0  0  0  2  0  0  0  0  0  0
  186.2280  172.5870  134.7780 C   0  0  0  0  0  2  0  0  0  0  0  0
  185.0400  173.4520  135.1780 C   0  0  0  0  0  2  0  0  0  0  0  0
  182.7270  173.2450  136.1940 C   0  0  1  0  0  0  0  0  0  0  0  0
  183.6480  172.3730  136.7940 O   0  0  0  0  0  0  0  0  0  0  0  0
  183.8060  172.5840  135.4100 C   0  0  2  0  0  3  0  0  0  0  0  0
  181.3460  172.5760  136.1180 C   0  0  1  0  0  0  0  0  0  0  0  0
  180.4820  173.0260  137.1270 O   0  0  0  0  0  0  0  0  0  0  0  0
  180.2970  173.5720  135.8450 C   0  0  2  0  0  3  0  0  0  0  0  0
  180.7800  172.7180  134.8460 O   0  0  0  0  0  0  0  0  0  0  0  0
  182.8990  174.6580  136.7600 C   0  0  0  0  0  2  0  0  0  0  0  0
  182.5520  174.6800  138.1130 O   0  0  0  0  0  0  0  0  0  0  0  0
  180.5480  176.1340  140.3510 C   0  0  0  0  0  2  0  0  0  0  0  0
  179.3740  177.7990  139.2090 C   0  0  0  0  0  2  0  0  0  0  0  0
  181.9390  175.9210  138.3090 C   0  0  1  0  0  3  0  0  0  0  0  0
  181.7500  176.6120  136.9730 C   0  0  0  0  0  2  0  0  0  0  0  0
  179.6310  176.6840  138.2120 C   0  0  1  0  0  3  0  0  0  0  0  0
  180.0820  177.5160  140.4590 N   0  0  2  0  0  0  0  0  0  0  0  0
  180.3560  177.2290  136.9950 C   0  0  0  0  0  2  0  0  0  0  0  0
  180.5560  175.7210  138.8990 C   0  0  2  0  0  3  0  0  0  0  0  0
  180.5100  180.6310  139.8160 C   0  0  0  0  0  3  0  0  0  0  0  0
  181.3880  179.0440  141.9910 C   0  0  2  0  0  3  0  0  0  0  0  0
  181.1440  178.1590  143.1190 N   0  0  0  0  0  0  0  0  0  0  0  0
  181.1570  179.5160  139.5930 N   0  0  0  0  0  0  0  0  0  0  0  0
  179.6060  179.8360  143.2200 N   0  0  0  0  0  0  0  0  0  0  0  0
  180.3160  180.0370  142.1640 C   0  0  0  0  0  0  0  0  0  0  0  0
  180.1660  178.6660  143.8040 C   0  0  0  0  0  3  0  0  0  0  0  0
  181.2500  178.4170  140.5800 C   0  0  2  0  0  3  0  0  0  0  0  0
  179.9260  180.8930  141.0990 N   0  0  0  0  0  2  0  0  0  0  0  0
  188.0220  177.4080  138.7300 C   0  0  0  0  0  2  0  0  0  0  0  0
  187.1100  177.0670  139.9070 C   0  0  0  0  0  2  0  0  0  0  0  0
  186.0110  178.1060  140.1000 C   0  0  2  0  0  3  0  0  0  0  0  0
  185.8180  178.9560  138.8540 C   0  0  0  0  0  1  0  0  0  0  0  0
  186.2460  178.9600  141.3470 C   0  0  0  0  0  2  0  0  0  0  0  0
  187.4890  178.5940  142.0990 C   0  0  0  0  0  0  0  0  0  0  0  0
  188.5730  178.6360  141.5380 O   0  0  0  0  0  0  0  0  0  0  0  0
  186.0560  178.1700  143.9260 O   0  0  0  0  0  1  0  0  0  0  0  0
  187.3950  178.2160  143.5410 C   0  0  1  0  0  3  0  0  0  0  0  0
  188.0700  176.8720  143.8220 C   0  0  1  0  0  3  0  0  0  0  0  0
  188.1500  176.0900  142.6630 O   0  0  0  0  0  1  0  0  0  0  0  0
  189.4540  177.0720  144.4530 C   0  0  2  0  0  3  0  0  0  0  0  0
  190.6040  177.4130  146.5430 O   0  0  0  0  0  1  0  0  0  0  0  0
  189.4170  177.6900  145.8610 C   0  0  2  0  0  3  0  0  0  0  0  0
  188.2410  177.1650  146.6740 C   0  0  0  0  0  2  0  0  0  0  0  0
  187.6950  177.8170  149.0020 C   0  0  0  0  0  1  0  0  0  0  0  0
  186.3360  178.5290  147.1850 O   0  0  0  0  0  1  0  0  0  0  0  0
  187.6590  178.2610  147.5530 C   0  0  2  0  0  3  0  0  0  0  0  0
  190.2940  177.9240  143.5160 C   0  0  0  0  0  2  0  0  0  0  0  0
  191.3440  177.0910  142.8660 C   0  0  0  0  0  0  0  0  0  0  0  0
  191.9550  177.5300  141.6970 O   0  0  0  0  0  0  0  0  0  0  0  0
  191.7100  176.0070  143.3950 O   0  0  0  0  0  1  0  0  0  0  0  0
  191.7050  176.6200  135.9230 O   0  0  0  0  0  0  0  0  0  0  0  0
  192.5880  175.6460  135.3780 C   0  0  0  0  0  2  0  0  0  0  0  0
  193.4550  174.7290  137.5010 C   0  0  0  0  0  2  0  0  0  0  0  0
  192.6590  174.4020  136.2570 C   0  0  2  0  0  3  0  0  0  0  0  0
  194.7190  173.2140  136.4400 C   0  0  1  0  0  3  0  0  0  0  0  0
  194.7850  174.3190  137.3030 O   0  0  0  0  0  0  0  0  0  0  0  0
  193.4790  173.3360  135.5850 C   0  0  0  0  0  2  0  0  0  0  0  0
  195.9390  173.1840  135.5410 C   0  0  0  0  0  2  0  0  0  0  0  0
  195.8430  172.1310  134.6330 O   0  0  0  0  0  1  0  0  0  0  0  0
  2  7  1  0  0  0  0
  2  6  1  0  0  0  0
  3 38  1  6  0  0  0
  4  3  1  0  0  0  0
  4  1  1  0  0  0  0
  5  3  1  0  0  0  0
  6  4  2  0  0  0  0
  7  5  2  0  0  0  0
  8  7  1  0  0  0  0
  9 10  1  0  0  0  0
  9  8  1  0  0  0  0
 10 11  1  0  0  0  0
 12 19  1  1  0  0  0
 12 13  1  0  0  0  0
 14 11  1  1  0  0  0
 14 12  1  0  0  0  0
 14 13  1  0  0  0  0
 15 18  1  6  0  0  0
 15 12  1  0  0  0  0
 15 16  1  0  0  0  0
 17 18  1  6  0  0  0
 17 15  1  0  0  0  0
 17 16  1  0  0  0  0
 19 20  1  0  0  0  0
 21 26  1  0  0  0  0
 23 20  1  6  0  0  0
 23 28  1  0  0  0  0
 24 27  1  0  0  0  0
 24 23  1  0  0  0  0
 25 27  1  6  0  0  0
 25 28  1  0  0  0  0
 25 22  1  0  0  0  0
 26 22  1  6  0  0  0
 26 36  1  0  0  0  0
 28 21  1  1  0  0  0
 29 37  1  0  0  0  0
 30 34  1  6  0  0  0
 30 31  1  0  0  0  0
 31 35  2  0  0  0  0
 32 29  2  0  0  0  0
 33 35  1  0  0  0  0
 34 33  2  0  0  0  0
 36 32  1  6  0  0  0
 36 30  1  0  0  0  0
 37 34  1  0  0  0  0
 38 39  1  0  0  0  0
 39 40  1  0  0  0  0
 40 41  1  6  0  0  0
 40 42  1  0  0  0  0
 42 43  1  0  0  0  0
 43 46  1  0  0  0  0
 44 43  2  0  0  0  0
 46 47  1  0  0  0  0
 46 45  1  6  0  0  0
 47 48  1  6  0  0  0
 47 49  1  0  0  0  0
 49 56  1  6  0  0  0
 49 51  1  0  0  0  0
 51 50  1  1  0  0  0
 51 52  1  0  0  0  0
 52 55  1  0  0  0  0
 54 55  1  0  0  0  0
 55 53  1  1  0  0  0
 57 59  1  0  0  0  0
 57 56  1  0  0  0  0
 58 57  2  0  0  0  0
 60  6  1  0  0  0  0
 61 60  1  0  0  0  0
 63 61  1  6  0  0  0
 63 62  1  0  0  0  0
 64 67  1  6  0  0  0
 64 65  1  0  0  0  0
 65 62  1  0  0  0  0
 66 63  1  0  0  0  0
 66 64  1  0  0  0  0
 68 67  1  0  0  0  0
M  END
>  <MODEL>
7

>  <REMARK>
 VINA RESULT:      -4.2      2.265      7.823
  Name = 
  27 active torsions:
  status: ('A' for Active; 'I' for Inactive)
    1  A    between atoms: C_2  and  C_39
    2  A    between atoms: C_5  and  C_22
    3  A    between atoms: C_5  and  C_42
    4  A    between atoms: C_6  and  C_31
    5  A    between atoms: C_8  and  C_22
    6  A    between atoms: C_8  and  C_59
    7  A    between atoms: C_11  and  C_46
    8  A    between atoms: C_11  and  C_57
    9  A    between atoms: C_15  and  C_63
   10  A    between atoms: C_16  and  C_32
   11  A    between atoms: C_18  and  C_59
   12  A    between atoms: C_21  and  O_66
   13  A    between atoms: C_24  and  C_25
   14  A    between atoms: C_24  and  C_60
   15  A    between atoms: O_26  and  C_53
   16  A    between atoms: O_26  and  C_63
   17  A    between atoms: C_31  and  C_33
   18  A    between atoms: C_33  and  O_66
   19  A    between atoms: O_35  and  C_58
   20  A    between atoms: O_35  and  C_67
   21  A    between atoms: C_39  and  C_65
   22  A    between atoms: N_41  and  C_50
   23  A    between atoms: C_42  and  C_49
   24  A    between atoms: C_45  and  C_49
   25  A    between atoms: C_45  and  C_65
   26  A    between atoms: C_46  and  C_58
   27  A    between atoms: C_60  and  C_65
                            x       y       z     vdW  Elec       q    Type
                         _______ _______ _______ _____ _____    ______ ____

>  <TORSDO>
F 27

$$$$
=
 OpenBabel10222418313D

 68 76  0  0  1  0  0  0  0  0999 V2000
  190.7610  177.4830  141.4130 C   0  0  0  0  0  1  0  0  0  0  0  0
  187.0710  177.8210  140.8310 O   0  0  0  0  0  0  0  0  0  0  0  0
  189.4240  178.1870  139.3240 C   0  0  2  0  0  3  0  0  0  0  0  0
  189.4420  177.6790  140.7470 C   0  0  0  0  0  0  0  0  0  0  0  0
  188.0880  178.5690  138.8640 N   0  0  0  0  0  0  0  0  0  0  0  0
  188.3010  177.5200  141.4330 C   0  0  0  0  0  0  0  0  0  0  0  0
  187.0060  178.3890  139.5520 C   0  0  0  0  0  0  0  0  0  0  0  0
  185.7930  178.7930  138.9980 O   0  0  0  0  0  0  0  0  0  0  0  0
  185.5700  178.8850  137.5980 C   0  0  0  0  0  2  0  0  0  0  0  0
  186.0100  177.5880  136.9240 C   0  0  0  0  0  2  0  0  0  0  0  0
  184.8750  176.5800  136.7980 C   0  0  0  0  0  2  0  0  0  0  0  0
  184.7920  174.0470  136.8360 C   0  0  1  0  0  0  0  0  0  0  0  0
  186.0370  174.5410  137.2540 O   0  0  0  0  0  0  0  0  0  0  0  0
  185.3960  175.2640  136.2270 C   0  0  2  0  0  3  0  0  0  0  0  0
  184.9840  172.7440  136.0460 C   0  0  1  0  0  0  0  0  0  0  0  0
  185.3690  171.6760  136.8690 O   0  0  0  0  0  0  0  0  0  0  0  0
  184.0190  171.7200  136.4810 C   0  0  2  0  0  3  0  0  0  0  0  0
  183.8490  172.4350  135.2880 O   0  0  0  0  0  0  0  0  0  0  0  0
  183.7800  174.1430  137.9810 C   0  0  0  0  0  2  0  0  0  0  0  0
  182.4980  173.8320  137.5190 O   0  0  0  0  0  0  0  0  0  0  0  0
  181.8560  175.5460  140.3100 C   0  0  0  0  0  2  0  0  0  0  0  0
  179.7010  176.4140  140.0750 C   0  0  0  0  0  2  0  0  0  0  0  0
  181.6990  174.9070  137.9190 C   0  0  1  0  0  3  0  0  0  0  0  0
  180.5000  175.0200  136.9980 C   0  0  0  0  0  2  0  0  0  0  0  0
  179.7230  175.0940  139.3270 C   0  0  1  0  0  3  0  0  0  0  0  0
  181.0520  176.7490  140.5270 N   0  0  2  0  0  0  0  0  0  0  0  0
  179.2940  175.3030  137.8870 C   0  0  0  0  0  2  0  0  0  0  0  0
  181.1580  174.6520  139.3130 C   0  0  2  0  0  3  0  0  0  0  0  0
  179.6580  179.1570  138.9280 C   0  0  0  0  0  3  0  0  0  0  0  0
  181.9880  179.0960  140.5360 C   0  0  2  0  0  3  0  0  0  0  0  0
  182.6810  178.8390  141.7890 N   0  0  0  0  0  0  0  0  0  0  0  0
  180.5930  178.2720  138.6910 N   0  0  0  0  0  0  0  0  0  0  0  0
  180.7360  179.9150  142.2890 N   0  0  0  0  0  0  0  0  0  0  0  0
  180.7580  179.7480  141.0120 C   0  0  0  0  0  0  0  0  0  0  0  0
  181.9640  179.3550  142.7390 C   0  0  0  0  0  3  0  0  0  0  0  0
  181.5900  177.8520  139.7010 C   0  0  2  0  0  3  0  0  0  0  0  0
  179.6110  179.8540  140.1800 N   0  0  0  0  0  2  0  0  0  0  0  0
  190.0250  177.1580  138.3670 C   0  0  0  0  0  2  0  0  0  0  0  0
  191.5110  176.9350  138.6390 C   0  0  0  0  0  2  0  0  0  0  0  0
  192.2090  176.2410  137.4750 C   0  0  2  0  0  3  0  0  0  0  0  0
  191.9510  174.7420  137.4800 C   0  0  0  0  0  1  0  0  0  0  0  0
  193.7040  176.5650  137.4310 C   0  0  0  0  0  2  0  0  0  0  0  0
  194.3210  176.3650  136.0810 C   0  0  0  0  0  0  0  0  0  0  0  0
  194.4520  177.3170  135.3250 O   0  0  0  0  0  0  0  0  0  0  0  0
  193.9520  174.4730  134.7200 O   0  0  0  0  0  1  0  0  0  0  0  0
  194.8060  175.0100  135.6830 C   0  0  1  0  0  3  0  0  0  0  0  0
  196.2390  175.0510  135.1490 C   0  0  1  0  0  3  0  0  0  0  0  0
  196.6170  176.3550  134.8020 O   0  0  0  0  0  1  0  0  0  0  0  0
  197.2200  174.4400  136.1580 C   0  0  2  0  0  3  0  0  0  0  0  0
  197.0290  172.4400  134.8270 O   0  0  0  0  0  1  0  0  0  0  0  0
  197.8880  173.1420  135.6750 C   0  0  2  0  0  3  0  0  0  0  0  0
  198.2810  172.2450  136.8420 C   0  0  0  0  0  2  0  0  0  0  0  0
  196.2890  170.8760  137.3890 C   0  0  0  0  0  1  0  0  0  0  0  0
  198.4550  169.8970  137.2980 O   0  0  0  0  0  1  0  0  0  0  0  0
  197.6430  170.8710  136.7060 C   0  0  2  0  0  3  0  0  0  0  0  0
  196.4850  174.2090  137.4680 C   0  0  0  0  0  2  0  0  0  0  0  0
  197.0510  175.0770  138.5360 C   0  0  0  0  0  0  0  0  0  0  0  0
  196.5890  174.9650  139.8430 O   0  0  0  0  0  1  0  0  0  0  0  0
  197.9780  175.8890  138.2680 O   0  0  0  0  0  0  0  0  0  0  0  0
  188.3450  177.0620  142.7520 O   0  0  0  0  0  0  0  0  0  0  0  0
  187.9570  177.8670  143.8600 C   0  0  0  0  0  2  0  0  0  0  0  0
  185.5460  177.9790  144.3840 C   0  0  0  0  0  2  0  0  0  0  0  0
  186.8270  177.2200  144.6530 C   0  0  2  0  0  3  0  0  0  0  0  0
  185.9390  178.3470  146.5590 C   0  0  1  0  0  3  0  0  0  0  0  0
  185.3540  178.9140  145.4160 O   0  0  0  0  0  0  0  0  0  0  0  0
  187.0480  177.4150  146.1270 C   0  0  0  0  0  2  0  0  0  0  0  0
  186.5220  179.4360  147.4370 C   0  0  0  0  0  2  0  0  0  0  0  0
  185.5760  180.4360  147.6570 O   0  0  0  0  0  1  0  0  0  0  0  0
  2  6  1  0  0  0  0
  3 38  1  6  0  0  0
  3  4  1  0  0  0  0
  4  1  1  0  0  0  0
  4  6  2  0  0  0  0
  5  3  1  0  0  0  0
  5  7  2  0  0  0  0
  6 60  1  0  0  0  0
  7  2  1  0  0  0  0
  8  7  1  0  0  0  0
  9  8  1  0  0  0  0
 10  9  1  0  0  0  0
 11 10  1  0  0  0  0
 12 13  1  0  0  0  0
 12 19  1  1  0  0  0
 14 11  1  1  0  0  0
 14 12  1  0  0  0  0
 14 13  1  0  0  0  0
 15 18  1  6  0  0  0
 15 17  1  0  0  0  0
 15 12  1  0  0  0  0
 15 16  1  0  0  0  0
 17 18  1  6  0  0  0
 17 16  1  0  0  0  0
 20 19  1  0  0  0  0
 21 26  1  0  0  0  0
 23 20  1  6  0  0  0
 23 28  1  0  0  0  0
 24 27  1  0  0  0  0
 24 23  1  0  0  0  0
 25 27  1  6  0  0  0
 25 22  1  0  0  0  0
 26 22  1  6  0  0  0
 28 25  1  0  0  0  0
 28 21  1  1  0  0  0
 29 37  1  0  0  0  0
 30 34  1  1  0  0  0
 30 31  1  0  0  0  0
 31 35  2  0  0  0  0
 32 29  2  0  0  0  0
 33 35  1  0  0  0  0
 34 33  2  0  0  0  0
 36 32  1  6  0  0  0
 36 26  1  0  0  0  0
 36 30  1  0  0  0  0
 37 34  1  0  0  0  0
 38 39  1  0  0  0  0
 40 41  1  1  0  0  0
 40 39  1  0  0  0  0
 42 40  1  0  0  0  0
 43 42  1  0  0  0  0
 44 43  2  0  0  0  0
 46 45  1  6  0  0  0
 46 43  1  0  0  0  0
 47 48  1  1  0  0  0
 47 46  1  0  0  0  0
 47 49  1  0  0  0  0
 49 56  1  1  0  0  0
 51 50  1  6  0  0  0
 51 49  1  0  0  0  0
 51 52  1  0  0  0  0
 55 52  1  0  0  0  0
 55 54  1  0  0  0  0
 55 53  1  1  0  0  0
 56 57  1  0  0  0  0
 57 58  1  0  0  0  0
 59 57  2  0  0  0  0
 60 61  1  0  0  0  0
 62 63  1  0  0  0  0
 62 65  1  0  0  0  0
 63 61  1  6  0  0  0
 63 66  1  0  0  0  0
 64 67  1  1  0  0  0
 65 64  1  0  0  0  0
 66 64  1  0  0  0  0
 67 68  1  0  0  0  0
M  END
>  <MODEL>
8

>  <REMARK>
 VINA RESULT:      -3.9      1.694      2.323
  Name = 
  27 active torsions:
  status: ('A' for Active; 'I' for Inactive)
    1  A    between atoms: C_2  and  C_39
    2  A    between atoms: C_5  and  C_22
    3  A    between atoms: C_5  and  C_42
    4  A    between atoms: C_6  and  C_31
    5  A    between atoms: C_8  and  C_22
    6  A    between atoms: C_8  and  C_59
    7  A    between atoms: C_11  and  C_46
    8  A    between atoms: C_11  and  C_57
    9  A    between atoms: C_15  and  C_63
   10  A    between atoms: C_16  and  C_32
   11  A    between atoms: C_18  and  C_59
   12  A    between atoms: C_21  and  O_66
   13  A    between atoms: C_24  and  C_25
   14  A    between atoms: C_24  and  C_60
   15  A    between atoms: O_26  and  C_53
   16  A    between atoms: O_26  and  C_63
   17  A    between atoms: C_31  and  C_33
   18  A    between atoms: C_33  and  O_66
   19  A    between atoms: O_35  and  C_58
   20  A    between atoms: O_35  and  C_67
   21  A    between atoms: C_39  and  C_65
   22  A    between atoms: N_41  and  C_50
   23  A    between atoms: C_42  and  C_49
   24  A    between atoms: C_45  and  C_49
   25  A    between atoms: C_45  and  C_65
   26  A    between atoms: C_46  and  C_58
   27  A    between atoms: C_60  and  C_65
                            x       y       z     vdW  Elec       q    Type
                         _______ _______ _______ _____ _____    ______ ____

>  <TORSDO>
F 27

$$$$
=
 OpenBabel10222418313D

 68 76  0  0  1  0  0  0  0  0999 V2000
  188.1920  176.2560  143.2000 C   0  0  0  0  0  1  0  0  0  0  0  0
  191.6430  177.5030  142.4220 O   0  0  0  0  0  0  0  0  0  0  0  0
  189.3630  176.7380  140.9540 C   0  0  2  0  0  3  0  0  0  0  0  0
  189.3830  176.7680  142.4650 C   0  0  0  0  0  0  0  0  0  0  0  0
  190.6650  177.0320  140.3530 N   0  0  0  0  0  0  0  0  0  0  0  0
  190.4880  177.1350  143.1290 C   0  0  0  0  0  0  0  0  0  0  0  0
  191.7080  177.3970  141.0270 C   0  0  0  0  0  0  0  0  0  0  0  0
  192.8900  177.6530  140.3340 O   0  0  0  0  0  0  0  0  0  0  0  0
  193.0620  177.3550  138.9560 C   0  0  0  0  0  2  0  0  0  0  0  0
  193.2410  175.8500  138.7770 C   0  0  0  0  0  2  0  0  0  0  0  0
  194.4580  175.3130  139.5180 C   0  0  0  0  0  2  0  0  0  0  0  0
  194.6580  174.0050  137.3560 C   0  0  1  0  0  0  0  0  0  0  0  0
  194.8800  173.2000  138.4820 O   0  0  0  0  0  0  0  0  0  0  0  0
  195.3530  174.5250  138.5660 C   0  0  2  0  0  3  0  0  0  0  0  0
  195.5730  173.5590  136.2050 C   0  0  1  0  0  0  0  0  0  0  0  0
  194.8880  173.4780  134.9840 O   0  0  0  0  0  0  0  0  0  0  0  0
  195.6880  174.6160  135.1870 C   0  0  2  0  0  3  0  0  0  0  0  0
  196.7090  174.3710  136.1120 O   0  0  0  0  0  0  0  0  0  0  0  0
  193.1550  174.2100  137.1450 C   0  0  0  0  0  2  0  0  0  0  0  0
  192.6520  173.2340  136.2800 O   0  0  0  0  0  0  0  0  0  0  0  0
  190.4190  175.4040  137.4820 C   0  0  0  0  0  2  0  0  0  0  0  0
  188.3110  174.5370  136.9730 C   0  0  0  0  0  2  0  0  0  0  0  0
  191.3400  173.6310  136.0120 C   0  0  1  0  0  3  0  0  0  0  0  0
  190.5930  172.4980  135.3350 C   0  0  0  0  0  2  0  0  0  0  0  0
  189.2290  173.3490  137.1910 C   0  0  1  0  0  3  0  0  0  0  0  0
  189.0920  175.7760  136.9930 N   0  0  2  0  0  0  0  0  0  0  0  0
  189.2100  172.4440  135.9740 C   0  0  0  0  0  2  0  0  0  0  0  0
  190.6150  173.9160  137.3140 C   0  0  2  0  0  3  0  0  0  0  0  0
  186.9770  176.1380  134.6060 C   0  0  0  0  0  3  0  0  0  0  0  0
  189.0300  177.8460  135.5460 C   0  0  2  0  0  3  0  0  0  0  0  0
  189.6820  178.6220  136.5900 N   0  0  0  0  0  0  0  0  0  0  0  0
  188.1990  175.6840  134.7350 N   0  0  0  0  0  0  0  0  0  0  0  0
  187.4420  179.0080  136.7460 N   0  0  0  0  0  0  0  0  0  0  0  0
  187.6140  178.1610  135.7910 C   0  0  0  0  0  0  0  0  0  0  0  0
  188.7570  179.2910  137.2070 C   0  0  0  0  0  3  0  0  0  0  0  0
  189.2090  176.3090  135.6180 C   0  0  2  0  0  3  0  0  0  0  0  0
  186.5770  177.3530  135.2530 N   0  0  0  0  0  2  0  0  0  0  0  0
  188.3100  177.6980  140.4010 C   0  0  0  0  0  2  0  0  0  0  0  0
  187.9560  178.7890  141.4090 C   0  0  0  0  0  2  0  0  0  0  0  0
  186.4510  179.0070  141.5150 C   0  0  2  0  0  3  0  0  0  0  0  0
  185.9040  178.5040  142.8420 C   0  0  0  0  0  1  0  0  0  0  0  0
  185.7030  178.4100  140.3220 C   0  0  0  0  0  2  0  0  0  0  0  0
  184.3040  178.9250  140.1730 C   0  0  0  0  0  0  0  0  0  0  0  0
  183.9010  179.8130  140.9090 O   0  0  0  0  0  0  0  0  0  0  0  0
  184.1590  178.2250  137.9240 O   0  0  0  0  0  1  0  0  0  0  0  0
  183.4240  178.3730  139.1000 C   0  0  1  0  0  3  0  0  0  0  0  0
  182.8040  177.0340  139.5040 C   0  0  1  0  0  3  0  0  0  0  0  0
  183.0080  176.7680  140.8640 O   0  0  0  0  0  1  0  0  0  0  0  0
  181.3130  176.9870  139.1480 C   0  0  2  0  0  3  0  0  0  0  0  0
  179.3570  176.4630  140.4520 O   0  0  0  0  0  1  0  0  0  0  0  0
  180.3800  177.4000  140.2980 C   0  0  2  0  0  3  0  0  0  0  0  0
  179.7670  178.7740  140.0590 C   0  0  0  0  0  2  0  0  0  0  0  0
  180.3460  179.5390  142.3440 C   0  0  0  0  0  1  0  0  0  0  0  0
  179.9590  181.1040  140.5950 O   0  0  0  0  0  1  0  0  0  0  0  0
  180.4940  179.8390  140.8650 C   0  0  2  0  0  3  0  0  0  0  0  0
  180.9750  175.5880  138.6590 C   0  0  0  0  0  2  0  0  0  0  0  0
  182.0370  175.0930  137.7410 C   0  0  0  0  0  0  0  0  0  0  0  0
  181.7400  174.8380  136.4060 O   0  0  0  0  0  0  0  0  0  0  0  0
  183.2170  174.9420  138.1590 O   0  0  0  0  0  1  0  0  0  0  0  0
  190.4870  177.1420  144.5260 O   0  0  0  0  0  0  0  0  0  0  0  0
  190.0290  178.2520  145.2900 C   0  0  0  0  0  2  0  0  0  0  0  0
  188.8390  176.6040  146.6930 C   0  0  0  0  0  2  0  0  0  0  0  0
  189.7010  177.8470  146.7230 C   0  0  2  0  0  3  0  0  0  0  0  0
  187.4890  178.1700  147.5540 C   0  0  1  0  0  3  0  0  0  0  0  0
  187.4910  176.9900  146.7940 O   0  0  0  0  0  0  0  0  0  0  0  0
  188.8120  178.8750  147.3640 C   0  0  0  0  0  2  0  0  0  0  0  0
  186.3710  179.0830  147.0910 C   0  0  0  0  0  2  0  0  0  0  0  0
  185.1530  178.6610  147.6210 O   0  0  0  0  0  1  0  0  0  0  0  0
  2  6  1  0  0  0  0
  3 38  1  6  0  0  0
  3  4  1  0  0  0  0
  4  6  2  0  0  0  0
  4  1  1  0  0  0  0
  5  3  1  0  0  0  0
  5  7  2  0  0  0  0
  6 60  1  0  0  0  0
  7  2  1  0  0  0  0
  8  7  1  0  0  0  0
  9  8  1  0  0  0  0
 10  9  1  0  0  0  0
 10 11  1  0  0  0  0
 12 19  1  6  0  0  0
 12 13  1  0  0  0  0
 12 14  1  0  0  0  0
 13 14  1  0  0  0  0
 14 11  1  1  0  0  0
 15 16  1  6  0  0  0
 15 12  1  0  0  0  0
 17 16  1  6  0  0  0
 17 18  1  0  0  0  0
 17 15  1  0  0  0  0
 18 15  1  0  0  0  0
 20 19  1  0  0  0  0
 22 25  1  0  0  0  0
 23 20  1  1  0  0  0
 23 28  1  0  0  0  0
 24 27  1  0  0  0  0
 24 23  1  0  0  0  0
 25 27  1  6  0  0  0
 25 28  1  0  0  0  0
 26 22  1  6  0  0  0
 26 21  1  0  0  0  0
 28 21  1  6  0  0  0
 29 32  2  0  0  0  0
 29 37  1  0  0  0  0
 30 36  1  0  0  0  0
 30 34  1  1  0  0  0
 30 31  1  0  0  0  0
 31 35  2  0  0  0  0
 33 35  1  0  0  0  0
 34 33  2  0  0  0  0
 36 32  1  6  0  0  0
 36 26  1  0  0  0  0
 37 34  1  0  0  0  0
 38 39  1  0  0  0  0
 39 40  1  0  0  0  0
 40 41  1  1  0  0  0
 42 40  1  0  0  0  0
 43 42  1  0  0  0  0
 43 44  2  0  0  0  0
 46 45  1  6  0  0  0
 46 47  1  0  0  0  0
 46 43  1  0  0  0  0
 47 48  1  1  0  0  0
 49 56  1  1  0  0  0
 49 47  1  0  0  0  0
 49 51  1  0  0  0  0
 51 50  1  6  0  0  0
 52 51  1  0  0  0  0
 52 55  1  0  0  0  0
 54 55  1  0  0  0  0
 55 53  1  1  0  0  0
 57 59  1  0  0  0  0
 57 56  1  0  0  0  0
 58 57  2  0  0  0  0
 60 61  1  0  0  0  0
 62 63  1  0  0  0  0
 62 65  1  0  0  0  0
 63 61  1  6  0  0  0
 63 66  1  0  0  0  0
 64 67  1  6  0  0  0
 65 64  1  0  0  0  0
 66 64  1  0  0  0  0
 67 68  1  0  0  0  0
M  END
>  <MODEL>
9

>  <REMARK>
 VINA RESULT:      -3.7      3.129     10.629
  Name = 
  27 active torsions:
  status: ('A' for Active; 'I' for Inactive)
    1  A    between atoms: C_2  and  C_39
    2  A    between atoms: C_5  and  C_22
    3  A    between atoms: C_5  and  C_42
    4  A    between atoms: C_6  and  C_31
    5  A    between atoms: C_8  and  C_22
    6  A    between atoms: C_8  and  C_59
    7  A    between atoms: C_11  and  C_46
    8  A    between atoms: C_11  and  C_57
    9  A    between atoms: C_15  and  C_63
   10  A    between atoms: C_16  and  C_32
   11  A    between atoms: C_18  and  C_59
   12  A    between atoms: C_21  and  O_66
   13  A    between atoms: C_24  and  C_25
   14  A    between atoms: C_24  and  C_60
   15  A    between atoms: O_26  and  C_53
   16  A    between atoms: O_26  and  C_63
   17  A    between atoms: C_31  and  C_33
   18  A    between atoms: C_33  and  O_66
   19  A    between atoms: O_35  and  C_58
   20  A    between atoms: O_35  and  C_67
   21  A    between atoms: C_39  and  C_65
   22  A    between atoms: N_41  and  C_50
   23  A    between atoms: C_42  and  C_49
   24  A    between atoms: C_45  and  C_49
   25  A    between atoms: C_45  and  C_65
   26  A    between atoms: C_46  and  C_58
   27  A    between atoms: C_60  and  C_65
                            x       y       z     vdW  Elec       q    Type
                         _______ _______ _______ _____ _____    ______ ____

>  <TORSDO>
F 27

$$$$
