=
 OpenBabel10222415123D

 34 37  0  0  1  0  0  0  0  0999 V2000
  184.7960  178.0330  142.6950 C   0  0  0  0  0  3  0  0  0  0  0  0
  186.7480  178.3060  146.9620 C   0  0  0  0  0  0  0  0  0  0  0  0
  187.0770  177.8240  145.6770 C   0  0  0  0  0  0  0  0  0  0  0  0
  186.1610  177.5570  143.2450 C   0  0  0  0  0  3  0  0  0  0  0  0
  184.6050  178.9550  146.2080 N   0  0  0  0  0  0  0  0  0  0  0  0
  185.5160  178.8580  147.1810 N   0  0  0  0  0  0  0  0  0  0  0  0
  186.1040  177.9420  144.6840 C   0  0  0  0  0  0  0  0  0  0  0  0
  187.8860  178.2110  148.2950 Cl  0  0  0  0  0  0  0  0  0  0  0  0
  184.8980  178.4930  144.9680 C   0  0  0  0  0  0  0  0  0  0  0  0
  184.0470  178.5440  143.8440 N   0  0  0  0  0  0  0  0  0  0  0  0
  188.3970  177.1790  145.3840 C   0  0  0  0  0  2  0  0  0  0  0  0
  189.4410  178.2100  144.9670 C   0  0  0  0  0  2  0  0  0  0  0  0
  189.1440  177.8810  142.4420 C   0  0  0  0  0  3  0  0  0  0  0  0
  191.8690  177.4130  142.2550 N   0  0  0  0  0  2  0  0  0  0  0  0
  190.0170  177.8850  143.6310 C   0  0  0  0  0  0  0  0  0  0  0  0
  191.2940  177.6710  143.5120 N   0  0  0  0  0  0  0  0  0  0  0  0
  189.6580  177.6500  141.2350 C   0  0  0  0  0  0  0  0  0  0  0  0
  191.0650  177.3950  141.1040 N   0  0  0  0  0  0  0  0  0  0  0  0
  188.8100  177.6740  140.0920 N   0  0  0  0  0  1  0  0  0  0  0  0
  193.1790  177.2340  139.9070 C   0  0  0  0  0  1  0  0  0  0  0  0
  191.6690  177.1350  139.8060 C   0  0  0  0  0  2  0  0  0  0  0  0
  182.8910  179.4260  143.7510 C   0  0  0  0  0  2  0  0  0  0  0  0
  181.6160  178.7060  144.1740 C   0  0  0  0  0  2  0  0  0  0  0  0
  181.2020  179.0620  141.7240 C   0  0  1  0  0  3  0  0  0  0  0  0
  179.5180  179.7800  143.3660 C   0  0  0  0  0  2  0  0  0  0  0  0
  181.1800  177.9330  140.9030 O   0  0  0  0  0  1  0  0  0  0  0  0
  179.2210  180.5090  142.0690 C   0  0  0  0  0  2  0  0  0  0  0  0
  180.4870  180.5730  139.9580 N   0  0  0  0  0  0  0  0  0  0  0  0
  180.3240  180.1110  141.1620 C   0  0  0  0  0  0  0  0  0  0  0  0
  180.5720  178.7190  143.0660 C   0  0  2  0  0  3  0  0  0  0  0  0
  179.6940  181.5890  139.3940 N   0  0  0  0  0  2  0  0  0  0  0  0
  180.1220  182.4070  138.3010 C   0  0  0  0  0  0  0  0  0  0  0  0
  179.3510  183.4920  137.9120 O   0  0  0  0  0  1  0  0  0  0  0  0
  181.1690  182.1240  137.6590 O   0  0  0  0  0  0  0  0  0  0  0  0
  1  4  2  0  0  0  0
  1 10  1  0  0  0  0
  2  6  1  0  0  0  0
  2  8  1  0  0  0  0
  3  2  2  0  0  0  0
  4  7  1  0  0  0  0
  5  6  2  0  0  0  0
  7  9  2  0  0  0  0
  7  3  1  0  0  0  0
  9  5  1  0  0  0  0
 10  9  1  0  0  0  0
 11  3  1  0  0  0  0
 12 11  1  0  0  0  0
 13 15  1  0  0  0  0
 14 16  1  0  0  0  0
 15 12  1  0  0  0  0
 16 15  2  0  0  0  0
 17 13  2  0  0  0  0
 18 17  1  0  0  0  0
 18 14  1  0  0  0  0
 19 17  1  0  0  0  0
 21 20  1  0  0  0  0
 21 18  1  0  0  0  0
 22 10  1  0  0  0  0
 22 23  1  0  0  0  0
 24 26  1  6  0  0  0
 24 30  1  0  0  0  0
 27 25  1  0  0  0  0
 28 29  2  0  0  0  0
 29 24  1  0  0  0  0
 29 27  1  0  0  0  0
 30 25  1  0  0  0  0
 30 23  1  1  0  0  0
 31 28  1  0  0  0  0
 32 31  1  0  0  0  0
 33 32  1  0  0  0  0
 34 32  2  0  0  0  0
M  END
>  <MODEL>
1

>  <REMARK>
 VINA RESULT:      -9.1      0.000      0.000
  Name = 
  8 active torsions:
  status: ('A' for Active; 'I' for Inactive)
    1  A    between atoms: N_3  and  N_22
    2  A    between atoms: C_7  and  C_11
    3  A    between atoms: C_11  and  C_13
    4  A    between atoms: C_12  and  C_13
    5  A    between atoms: C_18  and  C_28
    6  A    between atoms: C_18  and  N_32
    7  A    between atoms: N_27  and  C_30
    8  A    between atoms: C_28  and  C_29
                            x       y       z     vdW  Elec       q    Type
                         _______ _______ _______ _____ _____    ______ ____

>  <TORSDO>
F 8

$$$$
=
 OpenBabel10222415123D

 34 37  0  0  1  0  0  0  0  0999 V2000
  188.3850  176.7210  142.5170 C   0  0  0  0  0  3  0  0  0  0  0  0
  188.7180  177.7000  147.1020 C   0  0  0  0  0  0  0  0  0  0  0  0
  187.7120  177.5350  146.1260 C   0  0  0  0  0  0  0  0  0  0  0  0
  187.3170  177.0280  143.5940 C   0  0  0  0  0  3  0  0  0  0  0  0
  190.3990  177.3480  145.4800 N   0  0  0  0  0  0  0  0  0  0  0  0
  190.0320  177.5990  146.7410 N   0  0  0  0  0  0  0  0  0  0  0  0
  188.1280  177.2730  144.8200 C   0  0  0  0  0  0  0  0  0  0  0  0
  188.3200  178.0360  148.7790 Cl  0  0  0  0  0  0  0  0  0  0  0  0
  189.4500  177.1920  144.5250 C   0  0  0  0  0  0  0  0  0  0  0  0
  189.6850  176.9080  143.1630 N   0  0  0  0  0  0  0  0  0  0  0  0
  186.2560  177.6670  146.4540 C   0  0  0  0  0  2  0  0  0  0  0  0
  185.7440  179.0740  146.1620 C   0  0  0  0  0  2  0  0  0  0  0  0
  185.0780  179.1050  143.6880 C   0  0  0  0  0  3  0  0  0  0  0  0
  182.4300  178.8640  144.4710 N   0  0  0  0  0  2  0  0  0  0  0  0
  184.6880  179.0560  145.1090 C   0  0  0  0  0  0  0  0  0  0  0  0
  183.4390  178.9340  145.4480 N   0  0  0  0  0  0  0  0  0  0  0  0
  184.1480  179.0300  142.7360 C   0  0  0  0  0  0  0  0  0  0  0  0
  182.7660  178.9140  143.1080 N   0  0  0  0  0  0  0  0  0  0  0  0
  184.5370  179.0520  141.3670 N   0  0  0  0  0  1  0  0  0  0  0  0
  180.4630  179.5220  142.6060 C   0  0  0  0  0  1  0  0  0  0  0  0
  181.7160  178.8330  142.1030 C   0  0  0  0  0  2  0  0  0  0  0  0
  190.9430  176.3730  142.6600 C   0  0  0  0  0  2  0  0  0  0  0  0
  191.8810  177.4930  142.2260 C   0  0  0  0  0  2  0  0  0  0  0  0
  190.6390  176.9950  140.1020 C   0  0  1  0  0  3  0  0  0  0  0  0
  193.0930  177.1570  140.0750 C   0  0  0  0  0  2  0  0  0  0  0  0
  189.7070  177.9370  139.6640 O   0  0  0  0  0  1  0  0  0  0  0  0
  192.6770  176.4230  138.8140 C   0  0  0  0  0  2  0  0  0  0  0  0
  190.4580  175.6290  138.0980 N   0  0  0  0  0  0  0  0  0  0  0  0
  191.2080  176.2720  138.9440 C   0  0  0  0  0  0  0  0  0  0  0  0
  191.8280  177.7150  140.7210 C   0  0  2  0  0  3  0  0  0  0  0  0
  190.9580  174.9060  137.0000 N   0  0  0  0  0  2  0  0  0  0  0  0
  190.5270  173.5840  136.6660 C   0  0  0  0  0  0  0  0  0  0  0  0
  191.1860  172.8780  135.6700 O   0  0  0  0  0  0  0  0  0  0  0  0
  189.5260  173.0720  137.2350 O   0  0  0  0  0  1  0  0  0  0  0  0
  1 10  1  0  0  0  0
  1  4  2  0  0  0  0
  2  8  1  0  0  0  0
  3 11  1  0  0  0  0
  3  2  2  0  0  0  0
  4  7  1  0  0  0  0
  5  6  2  0  0  0  0
  6  2  1  0  0  0  0
  7  3  1  0  0  0  0
  9  7  2  0  0  0  0
  9  5  1  0  0  0  0
 10  9  1  0  0  0  0
 12 11  1  0  0  0  0
 13 15  1  0  0  0  0
 14 16  1  0  0  0  0
 15 16  2  0  0  0  0
 15 12  1  0  0  0  0
 17 18  1  0  0  0  0
 17 13  2  0  0  0  0
 18 14  1  0  0  0  0
 19 17  1  0  0  0  0
 21 20  1  0  0  0  0
 21 18  1  0  0  0  0
 22 10  1  0  0  0  0
 23 22  1  0  0  0  0
 24 26  1  6  0  0  0
 24 30  1  0  0  0  0
 25 30  1  0  0  0  0
 27 29  1  0  0  0  0
 27 25  1  0  0  0  0
 28 29  2  0  0  0  0
 29 24  1  0  0  0  0
 30 23  1  1  0  0  0
 31 28  1  0  0  0  0
 32 31  1  0  0  0  0
 32 34  1  0  0  0  0
 33 32  2  0  0  0  0
M  END
>  <MODEL>
2

>  <REMARK>
 VINA RESULT:      -9.0      3.673      8.966
  Name = 
  8 active torsions:
  status: ('A' for Active; 'I' for Inactive)
    1  A    between atoms: N_3  and  N_22
    2  A    between atoms: C_7  and  C_11
    3  A    between atoms: C_11  and  C_13
    4  A    between atoms: C_12  and  C_13
    5  A    between atoms: C_18  and  C_28
    6  A    between atoms: C_18  and  N_32
    7  A    between atoms: N_27  and  C_30
    8  A    between atoms: C_28  and  C_29
                            x       y       z     vdW  Elec       q    Type
                         _______ _______ _______ _____ _____    ______ ____

>  <TORSDO>
F 8

$$$$
=
 OpenBabel10222415123D

 34 37  0  0  1  0  0  0  0  0999 V2000
  189.0040  178.1140  141.2670 C   0  0  0  0  0  3  0  0  0  0  0  0
  190.9340  176.6770  145.3040 C   0  0  0  0  0  0  0  0  0  0  0  0
  189.8600  177.4850  144.8730 C   0  0  0  0  0  0  0  0  0  0  0  0
  188.6590  178.4090  142.7460 C   0  0  0  0  0  3  0  0  0  0  0  0
  191.5770  176.2780  143.0660 N   0  0  0  0  0  0  0  0  0  0  0  0
  191.7570  176.1000  144.3790 N   0  0  0  0  0  0  0  0  0  0  0  0
  189.6980  177.6500  143.4980 C   0  0  0  0  0  0  0  0  0  0  0  0
  191.2420  176.3960  147.0100 Cl  0  0  0  0  0  0  0  0  0  0  0  0
  190.5550  177.0550  142.6310 C   0  0  0  0  0  0  0  0  0  0  0  0
  190.2330  177.3190  141.2830 N   0  0  0  0  0  0  0  0  0  0  0  0
  188.9440  178.1710  145.8410 C   0  0  0  0  0  2  0  0  0  0  0  0
  187.7240  177.3120  146.1580 C   0  0  0  0  0  2  0  0  0  0  0  0
  186.1450  177.7910  144.1970 C   0  0  0  0  0  3  0  0  0  0  0  0
  184.4460  179.0750  145.9710 N   0  0  0  0  0  2  0  0  0  0  0  0
  186.4750  177.9300  145.6280 C   0  0  0  0  0  0  0  0  0  0  0  0
  185.6550  178.5300  146.4390 N   0  0  0  0  0  0  0  0  0  0  0  0
  185.0030  178.2870  143.7220 C   0  0  0  0  0  0  0  0  0  0  0  0
  184.1050  178.9660  144.6130 N   0  0  0  0  0  0  0  0  0  0  0  0
  184.6830  178.1250  142.3450 N   0  0  0  0  0  1  0  0  0  0  0  0
  181.7490  178.4870  144.2300 C   0  0  0  0  0  1  0  0  0  0  0  0
  182.8490  179.5270  144.1390 C   0  0  0  0  0  2  0  0  0  0  0  0
  190.7070  176.5070  140.1700 C   0  0  0  0  0  2  0  0  0  0  0  0
  191.0740  177.3770  138.9730 C   0  0  0  0  0  2  0  0  0  0  0  0
  189.0800  178.5590  138.0100 C   0  0  1  0  0  3  0  0  0  0  0  0
  189.1250  176.1010  138.0890 C   0  0  0  0  0  2  0  0  0  0  0  0
  189.2930  179.3900  136.9100 O   0  0  0  0  0  1  0  0  0  0  0  0
  187.6790  176.5180  137.8990 C   0  0  0  0  0  2  0  0  0  0  0  0
  186.6590  178.7600  137.9120 N   0  0  0  0  0  0  0  0  0  0  0  0
  187.7120  177.9990  137.9620 C   0  0  0  0  0  0  0  0  0  0  0  0
  189.9910  177.3440  137.9040 C   0  0  2  0  0  3  0  0  0  0  0  0
  185.3400  178.2710  137.8920 N   0  0  0  0  0  2  0  0  0  0  0  0
  184.2920  178.8010  138.7100 C   0  0  0  0  0  0  0  0  0  0  0  0
  183.0640  178.1580  138.7540 O   0  0  0  0  0  0  0  0  0  0  0  0
  184.4590  179.8710  139.3550 O   0  0  0  0  0  1  0  0  0  0  0  0
  1 10  1  0  0  0  0
  1  4  2  0  0  0  0
  2  8  1  0  0  0  0
  3  2  1  0  0  0  0
  3 11  1  0  0  0  0
  4  7  1  0  0  0  0
  5  6  1  0  0  0  0
  6  2  2  0  0  0  0
  7  3  2  0  0  0  0
  9  5  2  0  0  0  0
  9  7  1  0  0  0  0
 10  9  1  0  0  0  0
 11 12  1  0  0  0  0
 13 15  1  0  0  0  0
 14 16  1  0  0  0  0
 15 12  1  0  0  0  0
 15 16  2  0  0  0  0
 17 13  2  0  0  0  0
 17 18  1  0  0  0  0
 18 14  1  0  0  0  0
 19 17  1  0  0  0  0
 21 20  1  0  0  0  0
 21 18  1  0  0  0  0
 22 10  1  0  0  0  0
 23 22  1  0  0  0  0
 24 26  1  6  0  0  0
 27 29  1  0  0  0  0
 27 25  1  0  0  0  0
 28 29  2  0  0  0  0
 29 24  1  0  0  0  0
 30 24  1  0  0  0  0
 30 25  1  0  0  0  0
 30 23  1  1  0  0  0
 31 28  1  0  0  0  0
 31 32  1  0  0  0  0
 32 33  2  0  0  0  0
 32 34  1  0  0  0  0
M  END
>  <MODEL>
3

>  <REMARK>
 VINA RESULT:      -8.9      2.777      7.233
  Name = 
  8 active torsions:
  status: ('A' for Active; 'I' for Inactive)
    1  A    between atoms: N_3  and  N_22
    2  A    between atoms: C_7  and  C_11
    3  A    between atoms: C_11  and  C_13
    4  A    between atoms: C_12  and  C_13
    5  A    between atoms: C_18  and  C_28
    6  A    between atoms: C_18  and  N_32
    7  A    between atoms: N_27  and  C_30
    8  A    between atoms: C_28  and  C_29
                            x       y       z     vdW  Elec       q    Type
                         _______ _______ _______ _____ _____    ______ ____

>  <TORSDO>
F 8

$$$$
=
 OpenBabel10222415123D

 34 37  0  0  1  0  0  0  0  0999 V2000
  187.2890  178.3310  140.9300 C   0  0  0  0  0  3  0  0  0  0  0  0
  185.6140  178.1050  145.3160 C   0  0  0  0  0  0  0  0  0  0  0  0
  185.2750  178.7030  144.0830 C   0  0  0  0  0  0  0  0  0  0  0  0
  186.0530  178.9710  141.6040 C   0  0  0  0  0  3  0  0  0  0  0  0
  187.5770  177.1910  144.3720 N   0  0  0  0  0  0  0  0  0  0  0  0
  186.7600  177.3660  145.4150 N   0  0  0  0  0  0  0  0  0  0  0  0
  186.1480  178.5000  143.0150 C   0  0  0  0  0  0  0  0  0  0  0  0
  184.5960  178.2910  146.7350 Cl  0  0  0  0  0  0  0  0  0  0  0  0
  187.2740  177.7610  143.1810 C   0  0  0  0  0  0  0  0  0  0  0  0
  188.0290  177.6500  141.9940 N   0  0  0  0  0  0  0  0  0  0  0  0
  184.0500  179.5520  143.9220 C   0  0  0  0  0  2  0  0  0  0  0  0
  182.7890  178.6990  143.8380 C   0  0  0  0  0  2  0  0  0  0  0  0
  182.0160  178.7380  141.3950 C   0  0  0  0  0  3  0  0  0  0  0  0
  179.9720  180.4540  142.1420 N   0  0  0  0  0  2  0  0  0  0  0  0
  181.8630  179.2060  142.7850 C   0  0  0  0  0  0  0  0  0  0  0  0
  180.8890  180.0030  143.1090 N   0  0  0  0  0  0  0  0  0  0  0  0
  181.1590  179.1370  140.4560 C   0  0  0  0  0  0  0  0  0  0  0  0
  180.0940  180.0330  140.8080 N   0  0  0  0  0  0  0  0  0  0  0  0
  181.3020  178.6600  139.1230 N   0  0  0  0  0  1  0  0  0  0  0  0
  179.5780  181.8360  139.2560 C   0  0  0  0  0  1  0  0  0  0  0  0
  179.1370  180.4970  139.8150 C   0  0  0  0  0  2  0  0  0  0  0  0
  189.0290  176.6130  141.7730 C   0  0  0  0  0  2  0  0  0  0  0  0
  190.3700  177.2200  141.3770 C   0  0  0  0  0  2  0  0  0  0  0  0
  190.9350  176.3710  143.6700 C   0  0  1  0  0  3  0  0  0  0  0  0
  191.1560  178.7680  143.1640 C   0  0  0  0  0  2  0  0  0  0  0  0
  191.9460  175.4140  143.7720 O   0  0  0  0  0  1  0  0  0  0  0  0
  191.1170  178.6280  144.6740 C   0  0  0  0  0  2  0  0  0  0  0  0
  190.7130  176.6440  146.0770 N   0  0  0  0  0  0  0  0  0  0  0  0
  190.8820  177.1830  144.9050 C   0  0  0  0  0  0  0  0  0  0  0  0
  191.2950  177.3660  142.5770 C   0  0  2  0  0  3  0  0  0  0  0  0
  190.6300  177.3800  147.2730 N   0  0  0  0  0  2  0  0  0  0  0  0
  189.4270  177.5080  148.0360 C   0  0  0  0  0  0  0  0  0  0  0  0
  189.3860  178.3840  149.1110 O   0  0  0  0  0  1  0  0  0  0  0  0
  188.4190  176.7990  147.7700 O   0  0  0  0  0  0  0  0  0  0  0  0
  1  4  2  0  0  0  0
  1 10  1  0  0  0  0
  2  6  1  0  0  0  0
  2  8  1  0  0  0  0
  3  2  2  0  0  0  0
  4  7  1  0  0  0  0
  5  6  2  0  0  0  0
  7  9  2  0  0  0  0
  7  3  1  0  0  0  0
  9  5  1  0  0  0  0
 10  9  1  0  0  0  0
 11  3  1  0  0  0  0
 12 11  1  0  0  0  0
 13 15  1  0  0  0  0
 14 16  1  0  0  0  0
 15 16  2  0  0  0  0
 15 12  1  0  0  0  0
 17 18  1  0  0  0  0
 17 13  2  0  0  0  0
 18 14  1  0  0  0  0
 19 17  1  0  0  0  0
 20 21  1  0  0  0  0
 21 18  1  0  0  0  0
 22 10  1  0  0  0  0
 23 22  1  0  0  0  0
 24 26  1  1  0  0  0
 24 29  1  0  0  0  0
 25 27  1  0  0  0  0
 27 29  1  0  0  0  0
 28 31  1  0  0  0  0
 29 28  2  0  0  0  0
 30 23  1  6  0  0  0
 30 25  1  0  0  0  0
 30 24  1  0  0  0  0
 31 32  1  0  0  0  0
 32 33  1  0  0  0  0
 34 32  2  0  0  0  0
M  END
>  <MODEL>
4

>  <REMARK>
 VINA RESULT:      -8.8      4.372      9.543
  Name = 
  8 active torsions:
  status: ('A' for Active; 'I' for Inactive)
    1  A    between atoms: N_3  and  N_22
    2  A    between atoms: C_7  and  C_11
    3  A    between atoms: C_11  and  C_13
    4  A    between atoms: C_12  and  C_13
    5  A    between atoms: C_18  and  C_28
    6  A    between atoms: C_18  and  N_32
    7  A    between atoms: N_27  and  C_30
    8  A    between atoms: C_28  and  C_29
                            x       y       z     vdW  Elec       q    Type
                         _______ _______ _______ _____ _____    ______ ____

>  <TORSDO>
F 8

$$$$
=
 OpenBabel10222415123D

 34 37  0  0  1  0  0  0  0  0999 V2000
  184.6950  178.5180  144.9960 C   0  0  0  0  0  3  0  0  0  0  0  0
  186.8420  178.4730  140.8150 C   0  0  0  0  0  0  0  0  0  0  0  0
  187.0440  177.9580  142.1130 C   0  0  0  0  0  0  0  0  0  0  0  0
  186.0210  177.8820  144.5160 C   0  0  0  0  0  3  0  0  0  0  0  0
  184.8650  179.5600  141.5150 N   0  0  0  0  0  0  0  0  0  0  0  0
  185.7530  179.2600  140.5620 N   0  0  0  0  0  0  0  0  0  0  0  0
  186.0980  178.2890  143.0840 C   0  0  0  0  0  0  0  0  0  0  0  0
  187.9640  178.1300  139.5090 Cl  0  0  0  0  0  0  0  0  0  0  0  0
  185.0420  179.0810  142.7710 C   0  0  0  0  0  0  0  0  0  0  0  0
  184.1830  179.2980  143.8690 N   0  0  0  0  0  0  0  0  0  0  0  0
  188.2360  177.1180  142.4590 C   0  0  0  0  0  2  0  0  0  0  0  0
  189.4580  177.9810  142.7560 C   0  0  0  0  0  2  0  0  0  0  0  0
  189.2820  177.9590  145.3120 C   0  0  0  0  0  3  0  0  0  0  0  0
  191.7330  176.6680  145.3990 N   0  0  0  0  0  2  0  0  0  0  0  0
  190.0430  177.6500  144.0870 C   0  0  0  0  0  0  0  0  0  0  0  0
  191.1860  177.0350  144.1570 N   0  0  0  0  0  0  0  0  0  0  0  0
  189.7660  177.6150  146.5050 C   0  0  0  0  0  0  0  0  0  0  0  0
  191.0380  176.9530  146.5860 N   0  0  0  0  0  0  0  0  0  0  0  0
  189.0120  177.8950  147.6790 N   0  0  0  0  0  1  0  0  0  0  0  0
  192.6950  175.5270  147.6560 C   0  0  0  0  0  1  0  0  0  0  0  0
  191.6070  176.5620  147.8660 C   0  0  0  0  0  2  0  0  0  0  0  0
  182.8040  179.7470  143.7320 C   0  0  0  0  0  2  0  0  0  0  0  0
  181.8280  178.5970  143.9510 C   0  0  0  0  0  2  0  0  0  0  0  0
  181.1610  178.7200  141.5350 C   0  0  1  0  0  3  0  0  0  0  0  0
  179.8370  179.9100  143.2320 C   0  0  0  0  0  2  0  0  0  0  0  0
  180.8570  177.5220  140.8880 O   0  0  0  0  0  1  0  0  0  0  0  0
  179.4920  180.5180  141.8860 C   0  0  0  0  0  2  0  0  0  0  0  0
  180.4680  180.1080  139.6620 N   0  0  0  0  0  0  0  0  0  0  0  0
  180.3930  179.8300  140.9300 C   0  0  0  0  0  0  0  0  0  0  0  0
  180.6650  178.6550  142.9720 C   0  0  2  0  0  3  0  0  0  0  0  0
  179.7760  181.1690  139.0500 N   0  0  0  0  0  2  0  0  0  0  0  0
  180.4300  182.2730  138.4170 C   0  0  0  0  0  0  0  0  0  0  0  0
  179.6810  183.3580  137.9850 O   0  0  0  0  0  0  0  0  0  0  0  0
  181.6730  182.2500  138.2070 O   0  0  0  0  0  1  0  0  0  0  0  0
  2  3  1  0  0  0  0
  3 11  1  0  0  0  0
  3  7  2  0  0  0  0
  4  1  2  0  0  0  0
  5  9  2  0  0  0  0
  6  2  2  0  0  0  0
  6  5  1  0  0  0  0
  7  4  1  0  0  0  0
  8  2  1  0  0  0  0
  9  7  1  0  0  0  0
  9 10  1  0  0  0  0
 10  1  1  0  0  0  0
 11 12  1  0  0  0  0
 12 15  1  0  0  0  0
 13 17  2  0  0  0  0
 14 18  1  0  0  0  0
 15 16  2  0  0  0  0
 15 13  1  0  0  0  0
 16 14  1  0  0  0  0
 17 18  1  0  0  0  0
 17 19  1  0  0  0  0
 18 21  1  0  0  0  0
 20 21  1  0  0  0  0
 22 10  1  0  0  0  0
 22 23  1  0  0  0  0
 24 26  1  6  0  0  0
 24 30  1  0  0  0  0
 27 25  1  0  0  0  0
 28 29  2  0  0  0  0
 29 24  1  0  0  0  0
 29 27  1  0  0  0  0
 30 25  1  0  0  0  0
 30 23  1  1  0  0  0
 31 28  1  0  0  0  0
 32 31  1  0  0  0  0
 33 32  2  0  0  0  0
 34 32  1  0  0  0  0
M  END
>  <MODEL>
5

>  <REMARK>
 VINA RESULT:      -8.7      2.336      3.796
  Name = 
  8 active torsions:
  status: ('A' for Active; 'I' for Inactive)
    1  A    between atoms: N_3  and  N_22
    2  A    between atoms: C_7  and  C_11
    3  A    between atoms: C_11  and  C_13
    4  A    between atoms: C_12  and  C_13
    5  A    between atoms: C_18  and  C_28
    6  A    between atoms: C_18  and  N_32
    7  A    between atoms: N_27  and  C_30
    8  A    between atoms: C_28  and  C_29
                            x       y       z     vdW  Elec       q    Type
                         _______ _______ _______ _____ _____    ______ ____

>  <TORSDO>
F 8

$$$$
=
 OpenBabel10222415123D

 34 37  0  0  1  0  0  0  0  0999 V2000
  187.1260  178.6190  140.2240 C   0  0  0  0  0  3  0  0  0  0  0  0
  183.4860  178.7780  143.1920 C   0  0  0  0  0  0  0  0  0  0  0  0
  184.8960  178.8140  143.2440 C   0  0  0  0  0  0  0  0  0  0  0  0
  187.0470  178.7200  141.7650 C   0  0  0  0  0  3  0  0  0  0  0  0
  183.5450  178.5110  140.8460 N   0  0  0  0  0  0  0  0  0  0  0  0
  182.8580  178.6270  141.9870 N   0  0  0  0  0  0  0  0  0  0  0  0
  185.5810  178.6920  142.0360 C   0  0  0  0  0  0  0  0  0  0  0  0
  182.5110  178.9190  144.6460 Cl  0  0  0  0  0  0  0  0  0  0  0  0
  184.8990  178.5370  140.8730 C   0  0  0  0  0  0  0  0  0  0  0  0
  185.7520  178.4440  139.7530 N   0  0  0  0  0  0  0  0  0  0  0  0
  185.6400  178.9440  144.5380 C   0  0  0  0  0  2  0  0  0  0  0  0
  185.9590  177.5780  145.1370 C   0  0  0  0  0  2  0  0  0  0  0  0
  188.2230  176.7980  144.2240 C   0  0  0  0  0  3  0  0  0  0  0  0
  189.3990  177.7070  146.5640 N   0  0  0  0  0  2  0  0  0  0  0  0
  187.4280  177.3950  145.3140 C   0  0  0  0  0  0  0  0  0  0  0  0
  188.0080  177.8220  146.3960 N   0  0  0  0  0  0  0  0  0  0  0  0
  189.5450  176.6830  144.3460 C   0  0  0  0  0  0  0  0  0  0  0  0
  190.1850  177.1360  145.5490 N   0  0  0  0  0  0  0  0  0  0  0  0
  190.3060  176.1280  143.2790 N   0  0  0  0  0  1  0  0  0  0  0  0
  191.9450  175.9150  146.7050 C   0  0  0  0  0  1  0  0  0  0  0  0
  191.6250  177.0280  145.7270 C   0  0  0  0  0  2  0  0  0  0  0  0
  185.3090  178.6820  138.3850 C   0  0  0  0  0  2  0  0  0  0  0  0
  185.2550  177.3820  137.5920 C   0  0  0  0  0  2  0  0  0  0  0  0
  187.4560  176.1890  137.4050 C   0  0  1  0  0  3  0  0  0  0  0  0
  187.2530  178.5120  136.6220 C   0  0  0  0  0  2  0  0  0  0  0  0
  187.4940  175.0220  136.6410 O   0  0  0  0  0  1  0  0  0  0  0  0
  188.7310  178.2270  136.8060 C   0  0  0  0  0  2  0  0  0  0  0  0
  189.8630  176.2510  137.7450 N   0  0  0  0  0  0  0  0  0  0  0  0
  188.7750  176.8570  137.3720 C   0  0  0  0  0  0  0  0  0  0  0  0
  186.5090  177.1860  136.7520 C   0  0  2  0  0  3  0  0  0  0  0  0
  191.1330  176.8560  137.7550 N   0  0  0  0  0  2  0  0  0  0  0  0
  192.3520  176.1240  137.9090 C   0  0  0  0  0  0  0  0  0  0  0  0
  193.5480  176.8080  138.0750 O   0  0  0  0  0  1  0  0  0  0  0  0
  192.3570  174.8650  137.8500 O   0  0  0  0  0  0  0  0  0  0  0  0
  1  4  2  0  0  0  0
  2  3  1  0  0  0  0
  2  8  1  0  0  0  0
  3 11  1  0  0  0  0
  4  7  1  0  0  0  0
  5  9  2  0  0  0  0
  5  6  1  0  0  0  0
  6  2  2  0  0  0  0
  7  3  2  0  0  0  0
  9  7  1  0  0  0  0
 10  1  1  0  0  0  0
 10  9  1  0  0  0  0
 11 12  1  0  0  0  0
 12 15  1  0  0  0  0
 13 17  2  0  0  0  0
 13 15  1  0  0  0  0
 15 16  2  0  0  0  0
 16 14  1  0  0  0  0
 17 18  1  0  0  0  0
 18 21  1  0  0  0  0
 18 14  1  0  0  0  0
 19 17  1  0  0  0  0
 21 20  1  0  0  0  0
 22 10  1  0  0  0  0
 23 22  1  0  0  0  0
 24 26  1  6  0  0  0
 25 30  1  0  0  0  0
 25 27  1  0  0  0  0
 27 29  1  0  0  0  0
 28 31  1  0  0  0  0
 29 24  1  0  0  0  0
 29 28  2  0  0  0  0
 30 24  1  0  0  0  0
 30 23  1  1  0  0  0
 31 32  1  0  0  0  0
 32 33  1  0  0  0  0
 34 32  2  0  0  0  0
M  END
>  <MODEL>
6

>  <REMARK>
 VINA RESULT:      -8.6      4.537      7.531
  Name = 
  8 active torsions:
  status: ('A' for Active; 'I' for Inactive)
    1  A    between atoms: N_3  and  N_22
    2  A    between atoms: C_7  and  C_11
    3  A    between atoms: C_11  and  C_13
    4  A    between atoms: C_12  and  C_13
    5  A    between atoms: C_18  and  C_28
    6  A    between atoms: C_18  and  N_32
    7  A    between atoms: N_27  and  C_30
    8  A    between atoms: C_28  and  C_29
                            x       y       z     vdW  Elec       q    Type
                         _______ _______ _______ _____ _____    ______ ____

>  <TORSDO>
F 8

$$$$
=
 OpenBabel10222415123D

 34 37  0  0  1  0  0  0  0  0999 V2000
  189.3690  177.0310  141.3940 C   0  0  0  0  0  3  0  0  0  0  0  0
  185.2980  178.8440  142.8890 C   0  0  0  0  0  0  0  0  0  0  0  0
  186.2990  177.9630  143.3540 C   0  0  0  0  0  0  0  0  0  0  0  0
  188.5610  176.8350  142.6980 C   0  0  0  0  0  3  0  0  0  0  0  0
  186.4300  179.0990  140.8310 N   0  0  0  0  0  0  0  0  0  0  0  0
  185.4020  179.3820  141.6370 N   0  0  0  0  0  0  0  0  0  0  0  0
  187.3580  177.6890  142.4890 C   0  0  0  0  0  0  0  0  0  0  0  0
  183.9140  179.2640  143.8840 Cl  0  0  0  0  0  0  0  0  0  0  0  0
  187.3990  178.2510  141.2550 C   0  0  0  0  0  0  0  0  0  0  0  0
  188.5450  177.8740  140.5250 N   0  0  0  0  0  0  0  0  0  0  0  0
  186.2230  177.3160  144.7030 C   0  0  0  0  0  2  0  0  0  0  0  0
  186.7930  178.2230  145.7890 C   0  0  0  0  0  2  0  0  0  0  0  0
  189.3230  177.9700  145.4690 C   0  0  0  0  0  3  0  0  0  0  0  0
  189.4350  176.7000  147.9310 N   0  0  0  0  0  2  0  0  0  0  0  0
  188.1110  177.7240  146.2740 C   0  0  0  0  0  0  0  0  0  0  0  0
  188.1950  177.1340  147.4300 N   0  0  0  0  0  0  0  0  0  0  0  0
  190.5150  177.5810  145.9190 C   0  0  0  0  0  0  0  0  0  0  0  0
  190.6070  176.9120  147.1870 N   0  0  0  0  0  0  0  0  0  0  0  0
  191.6810  177.8450  145.1470 N   0  0  0  0  0  1  0  0  0  0  0  0
  192.3720  175.2520  146.9500 C   0  0  0  0  0  1  0  0  0  0  0  0
  191.8870  176.4670  147.7160 C   0  0  0  0  0  2  0  0  0  0  0  0
  189.0470  178.6180  139.3770 C   0  0  0  0  0  2  0  0  0  0  0  0
  189.5660  177.6770  138.2970 C   0  0  0  0  0  2  0  0  0  0  0  0
  187.2730  178.2600  137.4590 C   0  0  1  0  0  3  0  0  0  0  0  0
  188.0630  175.9340  137.3430 C   0  0  0  0  0  2  0  0  0  0  0  0
  187.1830  179.1930  136.4250 O   0  0  0  0  0  1  0  0  0  0  0  0
  186.5520  175.9030  137.2080 C   0  0  0  0  0  2  0  0  0  0  0  0
  184.9020  177.7210  137.4130 N   0  0  0  0  0  0  0  0  0  0  0  0
  186.1380  177.3160  137.3880 C   0  0  0  0  0  0  0  0  0  0  0  0
  188.5040  177.3920  137.2450 C   0  0  2  0  0  3  0  0  0  0  0  0
  183.7930  176.8570  137.3740 N   0  0  0  0  0  2  0  0  0  0  0  0
  183.0670  176.4550  138.5390 C   0  0  0  0  0  0  0  0  0  0  0  0
  182.0930  175.4740  138.4370 O   0  0  0  0  0  0  0  0  0  0  0  0
  183.2710  177.0170  139.6490 O   0  0  0  0  0  1  0  0  0  0  0  0
  1  4  2  0  0  0  0
  2  3  1  0  0  0  0
  2  8  1  0  0  0  0
  3 11  1  0  0  0  0
  5  9  2  0  0  0  0
  5  6  1  0  0  0  0
  6  2  2  0  0  0  0
  7  4  1  0  0  0  0
  7  3  2  0  0  0  0
  9  7  1  0  0  0  0
 10  9  1  0  0  0  0
 10  1  1  0  0  0  0
 11 12  1  0  0  0  0
 12 15  1  0  0  0  0
 13 17  2  0  0  0  0
 13 15  1  0  0  0  0
 15 16  2  0  0  0  0
 16 14  1  0  0  0  0
 17 18  1  0  0  0  0
 18 21  1  0  0  0  0
 18 14  1  0  0  0  0
 19 17  1  0  0  0  0
 20 21  1  0  0  0  0
 22 10  1  0  0  0  0
 23 22  1  0  0  0  0
 24 26  1  6  0  0  0
 27 25  1  0  0  0  0
 27 29  1  0  0  0  0
 29 28  2  0  0  0  0
 29 24  1  0  0  0  0
 30 25  1  0  0  0  0
 30 24  1  0  0  0  0
 30 23  1  1  0  0  0
 31 28  1  0  0  0  0
 31 32  1  0  0  0  0
 32 34  1  0  0  0  0
 33 32  2  0  0  0  0
M  END
>  <MODEL>
7

>  <REMARK>
 VINA RESULT:      -8.6      3.869      6.408
  Name = 
  8 active torsions:
  status: ('A' for Active; 'I' for Inactive)
    1  A    between atoms: N_3  and  N_22
    2  A    between atoms: C_7  and  C_11
    3  A    between atoms: C_11  and  C_13
    4  A    between atoms: C_12  and  C_13
    5  A    between atoms: C_18  and  C_28
    6  A    between atoms: C_18  and  N_32
    7  A    between atoms: N_27  and  C_30
    8  A    between atoms: C_28  and  C_29
                            x       y       z     vdW  Elec       q    Type
                         _______ _______ _______ _____ _____    ______ ____

>  <TORSDO>
F 8

$$$$
=
 OpenBabel10222415123D

 34 37  0  0  1  0  0  0  0  0999 V2000
  185.6200  177.9990  143.3170 C   0  0  0  0  0  3  0  0  0  0  0  0
  181.2470  179.0020  141.9150 C   0  0  0  0  0  0  0  0  0  0  0  0
  182.4400  178.4810  141.3690 C   0  0  0  0  0  0  0  0  0  0  0  0
  184.9160  177.8790  141.9450 C   0  0  0  0  0  3  0  0  0  0  0  0
  182.2990  179.3120  144.0070 N   0  0  0  0  0  0  0  0  0  0  0  0
  181.2210  179.4010  143.2220 N   0  0  0  0  0  0  0  0  0  0  0  0
  183.5460  178.4010  142.2150 C   0  0  0  0  0  0  0  0  0  0  0  0
  179.7880  179.1550  140.9500 Cl  0  0  0  0  0  0  0  0  0  0  0  0
  183.4560  178.8200  143.5020 C   0  0  0  0  0  0  0  0  0  0  0  0
  184.6640  178.6530  144.2120 N   0  0  0  0  0  0  0  0  0  0  0  0
  182.5390  178.0580  139.9350 C   0  0  0  0  0  2  0  0  0  0  0  0
  183.2930  179.0890  139.1010 C   0  0  0  0  0  2  0  0  0  0  0  0
  184.3670  177.3810  137.5220 C   0  0  0  0  0  3  0  0  0  0  0  0
  186.8360  178.4920  138.1130 N   0  0  0  0  0  2  0  0  0  0  0  0
  184.5100  178.4950  138.4780 C   0  0  0  0  0  0  0  0  0  0  0  0
  185.6800  179.0030  138.7290 N   0  0  0  0  0  0  0  0  0  0  0  0
  185.4410  176.8800  136.9120 C   0  0  0  0  0  0  0  0  0  0  0  0
  186.7360  177.4270  137.2030 N   0  0  0  0  0  0  0  0  0  0  0  0
  185.2890  175.8210  135.9730 N   0  0  0  0  0  1  0  0  0  0  0  0
  188.7400  176.0890  137.5550 C   0  0  0  0  0  1  0  0  0  0  0  0
  187.9370  176.9090  136.5640 C   0  0  0  0  0  2  0  0  0  0  0  0
  184.7430  178.6290  145.6670 C   0  0  0  0  0  2  0  0  0  0  0  0
  185.8010  177.6400  146.1420 C   0  0  0  0  0  2  0  0  0  0  0  0
  188.2840  177.5390  145.7890 C   0  0  1  0  0  3  0  0  0  0  0  0
  187.3840  178.4200  147.9020 C   0  0  0  0  0  2  0  0  0  0  0  0
  188.8120  178.2530  144.7120 O   0  0  0  0  0  1  0  0  0  0  0  0
  188.8380  178.0620  148.1460 C   0  0  0  0  0  2  0  0  0  0  0  0
  190.4650  176.9350  146.6800 N   0  0  0  0  0  0  0  0  0  0  0  0
  189.2860  177.4480  146.8730 C   0  0  0  0  0  0  0  0  0  0  0  0
  187.1350  178.3280  146.3990 C   0  0  2  0  0  3  0  0  0  0  0  0
  191.4370  176.8050  147.6880 N   0  0  0  0  0  2  0  0  0  0  0  0
  192.4030  175.7490  147.7180 C   0  0  0  0  0  0  0  0  0  0  0  0
  193.2180  175.5960  148.8300 O   0  0  0  0  0  1  0  0  0  0  0  0
  192.5520  174.9860  146.7260 O   0  0  0  0  0  0  0  0  0  0  0  0
  1 10  1  0  0  0  0
  2  6  1  0  0  0  0
  3  2  2  0  0  0  0
  3  7  1  0  0  0  0
  4  7  1  0  0  0  0
  4  1  2  0  0  0  0
  6  5  2  0  0  0  0
  7  9  2  0  0  0  0
  8  2  1  0  0  0  0
  9  5  1  0  0  0  0
  9 10  1  0  0  0  0
 10 22  1  0  0  0  0
 11  3  1  0  0  0  0
 12 11  1  0  0  0  0
 13 15  1  0  0  0  0
 14 16  1  0  0  0  0
 15 16  2  0  0  0  0
 15 12  1  0  0  0  0
 17 18  1  0  0  0  0
 17 13  2  0  0  0  0
 18 14  1  0  0  0  0
 19 17  1  0  0  0  0
 21 18  1  0  0  0  0
 21 20  1  0  0  0  0
 22 23  1  0  0  0  0
 24 26  1  6  0  0  0
 24 30  1  0  0  0  0
 24 29  1  0  0  0  0
 25 27  1  0  0  0  0
 28 29  2  0  0  0  0
 28 31  1  0  0  0  0
 29 27  1  0  0  0  0
 30 23  1  1  0  0  0
 30 25  1  0  0  0  0
 31 32  1  0  0  0  0
 32 33  1  0  0  0  0
 34 32  2  0  0  0  0
M  END
>  <MODEL>
8

>  <REMARK>
 VINA RESULT:      -8.5      5.051      8.837
  Name = 
  8 active torsions:
  status: ('A' for Active; 'I' for Inactive)
    1  A    between atoms: N_3  and  N_22
    2  A    between atoms: C_7  and  C_11
    3  A    between atoms: C_11  and  C_13
    4  A    between atoms: C_12  and  C_13
    5  A    between atoms: C_18  and  C_28
    6  A    between atoms: C_18  and  N_32
    7  A    between atoms: N_27  and  C_30
    8  A    between atoms: C_28  and  C_29
                            x       y       z     vdW  Elec       q    Type
                         _______ _______ _______ _____ _____    ______ ____

>  <TORSDO>
F 8

$$$$
=
 OpenBabel10222415123D

 34 37  0  0  1  0  0  0  0  0999 V2000
  188.1430  177.4520  141.8130 C   0  0  0  0  0  3  0  0  0  0  0  0
  188.8970  177.5040  146.4520 C   0  0  0  0  0  0  0  0  0  0  0  0
  187.8060  177.5290  145.5570 C   0  0  0  0  0  0  0  0  0  0  0  0
  187.1800  177.5310  143.0210 C   0  0  0  0  0  3  0  0  0  0  0  0
  190.4220  177.4930  144.6470 N   0  0  0  0  0  0  0  0  0  0  0  0
  190.1730  177.4860  145.9600 N   0  0  0  0  0  0  0  0  0  0  0  0
  188.1000  177.5330  144.1930 C   0  0  0  0  0  0  0  0  0  0  0  0
  188.6550  177.4980  148.1910 Cl  0  0  0  0  0  0  0  0  0  0  0  0
  189.3890  177.5230  143.7700 C   0  0  0  0  0  0  0  0  0  0  0  0
  189.4980  177.5160  142.3630 N   0  0  0  0  0  0  0  0  0  0  0  0
  186.3870  177.5820  146.0350 C   0  0  0  0  0  2  0  0  0  0  0  0
  185.8170  178.9940  145.9340 C   0  0  0  0  0  2  0  0  0  0  0  0
  184.8180  179.0320  143.5740 C   0  0  0  0  0  3  0  0  0  0  0  0
  182.2940  178.9870  144.7190 N   0  0  0  0  0  2  0  0  0  0  0  0
  184.6270  179.0330  145.0360 C   0  0  0  0  0  0  0  0  0  0  0  0
  183.4310  179.0020  145.5460 N   0  0  0  0  0  0  0  0  0  0  0  0
  183.7630  179.0070  142.7610 C   0  0  0  0  0  0  0  0  0  0  0  0
  182.4410  178.9920  143.3220 N   0  0  0  0  0  0  0  0  0  0  0  0
  183.9580  178.9810  141.3520 N   0  0  0  0  0  1  0  0  0  0  0  0
  180.0780  178.4130  143.2440 C   0  0  0  0  0  1  0  0  0  0  0  0
  181.2590  178.9680  142.4730 C   0  0  0  0  0  2  0  0  0  0  0  0
  190.7000  177.1010  141.6530 C   0  0  0  0  0  2  0  0  0  0  0  0
  190.3840  176.7290  140.2090 C   0  0  0  0  0  2  0  0  0  0  0  0
  191.8550  176.0460  138.2940 C   0  0  1  0  0  3  0  0  0  0  0  0
  192.7490  177.5000  140.0650 C   0  0  0  0  0  2  0  0  0  0  0  0
  191.4470  176.4040  137.0080 O   0  0  0  0  0  1  0  0  0  0  0  0
  193.9350  176.9060  139.3300 C   0  0  0  0  0  2  0  0  0  0  0  0
  194.0120  175.1950  137.5590 N   0  0  0  0  0  0  0  0  0  0  0  0
  193.3310  175.9690  138.3520 C   0  0  0  0  0  0  0  0  0  0  0  0
  191.4950  177.1620  139.2630 C   0  0  2  0  0  3  0  0  0  0  0  0
  195.4120  175.0710  137.5980 N   0  0  0  0  0  2  0  0  0  0  0  0
  196.0980  174.1570  138.4590 C   0  0  0  0  0  0  0  0  0  0  0  0
  197.4800  174.2130  138.5570 O   0  0  0  0  0  0  0  0  0  0  0  0
  195.4630  173.2730  139.0930 O   0  0  0  0  0  1  0  0  0  0  0  0
  1 10  1  0  0  0  0
  1  4  2  0  0  0  0
  2  8  1  0  0  0  0
  3 11  1  0  0  0  0
  3  2  2  0  0  0  0
  4  7  1  0  0  0  0
  5  6  2  0  0  0  0
  6  2  1  0  0  0  0
  7  3  1  0  0  0  0
  9  7  2  0  0  0  0
  9  5  1  0  0  0  0
 10  9  1  0  0  0  0
 12 11  1  0  0  0  0
 13 15  1  0  0  0  0
 14 16  1  0  0  0  0
 15 16  2  0  0  0  0
 15 12  1  0  0  0  0
 17 18  1  0  0  0  0
 17 13  2  0  0  0  0
 18 14  1  0  0  0  0
 19 17  1  0  0  0  0
 21 20  1  0  0  0  0
 21 18  1  0  0  0  0
 22 10  1  0  0  0  0
 23 22  1  0  0  0  0
 24 26  1  6  0  0  0
 24 29  1  0  0  0  0
 24 30  1  0  0  0  0
 27 25  1  0  0  0  0
 28 31  1  0  0  0  0
 28 29  2  0  0  0  0
 29 27  1  0  0  0  0
 30 25  1  0  0  0  0
 30 23  1  1  0  0  0
 31 32  1  0  0  0  0
 32 33  2  0  0  0  0
 32 34  1  0  0  0  0
M  END
>  <MODEL>
9

>  <REMARK>
 VINA RESULT:      -8.5      4.780     10.222
  Name = 
  8 active torsions:
  status: ('A' for Active; 'I' for Inactive)
    1  A    between atoms: N_3  and  N_22
    2  A    between atoms: C_7  and  C_11
    3  A    between atoms: C_11  and  C_13
    4  A    between atoms: C_12  and  C_13
    5  A    between atoms: C_18  and  C_28
    6  A    between atoms: C_18  and  N_32
    7  A    between atoms: N_27  and  C_30
    8  A    between atoms: C_28  and  C_29
                            x       y       z     vdW  Elec       q    Type
                         _______ _______ _______ _____ _____    ______ ____

>  <TORSDO>
F 8

$$$$
