=
 OpenBabel10222420123D

 27 29  0  0  1  0  0  0  0  0999 V2000
  190.7250  176.7120  138.6780 C   0  0  0  0  0  0  0  0  0  0  0  0
  187.3510  178.1130  141.3820 C   0  0  0  0  0  0  0  0  0  0  0  0
  191.9640  176.0230  138.2350 C   0  0  0  0  0  1  0  0  0  0  0  0
  190.0460  177.4310  137.8200 N   0  0  0  0  0  0  0  0  0  0  0  0
  186.4360  178.4030  142.3900 C   0  0  0  0  0  3  0  0  0  0  0  0
  188.7090  176.7520  142.8640 C   0  0  0  0  0  0  0  0  0  0  0  0
  188.8000  178.1740  138.1060 C   0  0  2  0  0  3  0  0  0  0  0  0
  190.2940  176.5780  140.0430 N   0  0  0  0  0  2  0  0  0  0  0  0
  186.6620  177.8530  143.6700 C   0  0  0  0  0  0  0  0  0  0  0  0
  188.4500  177.3150  141.6150 C   0  0  0  0  0  0  0  0  0  0  0  0
  187.7940  177.0330  143.8990 C   0  0  0  0  0  3  0  0  0  0  0  0
  188.9980  179.5810  137.8110 N   0  0  0  0  0  1  0  0  0  0  0  0
  187.3200  178.5250  140.1280 O   0  0  0  0  0  0  0  0  0  0  0  0
  188.3800  178.0120  139.5330 C   0  0  0  0  0  0  0  0  0  0  0  0
  189.1040  177.2590  140.4120 C   0  0  0  0  0  0  0  0  0  0  0  0
  185.7190  178.1350  144.7640 C   0  0  0  0  0  0  0  0  0  0  0  0
  186.1190  177.9970  146.0880 O   0  0  0  0  0  1  0  0  0  0  0  0
  184.5400  178.5020  144.5120 O   0  0  0  0  0  0  0  0  0  0  0  0
  189.8580  175.9250  143.0720 N   0  0  0  0  0  2  0  0  0  0  0  0
  191.1740  176.4510  143.4100 C   0  0  0  0  0  2  0  0  0  0  0  0
  191.5080  178.9000  143.8800 C   0  0  0  0  0  1  0  0  0  0  0  0
  191.0560  177.5630  144.4460 C   0  0  2  0  0  3  0  0  0  0  0  0
  191.8000  177.2310  145.6580 N   0  0  0  0  0  2  0  0  0  0  0  0
  191.2280  176.8110  146.9050 C   0  0  0  0  0  0  0  0  0  0  0  0
  192.0100  176.5390  147.8960 N   0  0  0  0  0  2  0  0  0  0  0  0
  189.2630  177.8490  147.9840 C   0  0  0  0  0  1  0  0  0  0  0  0
  189.7500  176.7180  147.0980 C   0  0  0  0  0  2  0  0  0  0  0  0
  1  8  1  0  0  0  0
  2 10  2  0  0  0  0
  2  5  1  0  0  0  0
  3  1  1  0  0  0  0
  4  7  1  0  0  0  0
  4  1  2  0  0  0  0
  5  9  2  0  0  0  0
  6 19  1  0  0  0  0
  6 11  2  0  0  0  0
  7 12  1  1  0  0  0
  7 14  1  0  0  0  0
  8 15  1  0  0  0  0
  9 11  1  0  0  0  0
  9 16  1  0  0  0  0
 10  6  1  0  0  0  0
 13  2  1  0  0  0  0
 14 13  1  0  0  0  0
 14 15  2  0  0  0  0
 15 10  1  0  0  0  0
 16 17  1  0  0  0  0
 18 16  2  0  0  0  0
 19 20  1  0  0  0  0
 20 22  1  0  0  0  0
 22 21  1  6  0  0  0
 22 23  1  0  0  0  0
 23 24  1  0  0  0  0
 24 27  1  0  0  0  0
 24 25  2  0  0  0  0
 27 26  1  0  0  0  0
M  END
>  <MODEL>
1

>  <REMARK>
 VINA RESULT:      -9.1      0.000      0.000
  Name = 
  6 active torsions:
  status: ('A' for Active; 'I' for Inactive)
    1  A    between atoms: N_3  and  C_13
    2  A    between atoms: C_7  and  N_16
    3  A    between atoms: C_11  and  C_27
    4  A    between atoms: C_13  and  C_21
    5  A    between atoms: C_15  and  C_20
    6  A    between atoms: N_16  and  C_21
                            x       y       z     vdW  Elec       q    Type
                         _______ _______ _______ _____ _____    ______ ____

>  <TORSDO>
F 6

$$$$
=
 OpenBabel10222420123D

 27 29  0  0  1  0  0  0  0  0999 V2000
  185.7110  178.2760  143.2210 C   0  0  0  0  0  0  0  0  0  0  0  0
  188.6280  177.2410  146.5500 C   0  0  0  0  0  0  0  0  0  0  0  0
  185.1910  178.5590  141.8580 C   0  0  0  0  0  1  0  0  0  0  0  0
  184.8920  178.3090  144.2430 N   0  0  0  0  0  0  0  0  0  0  0  0
  189.6940  176.9100  147.3800 C   0  0  0  0  0  3  0  0  0  0  0  0
  190.0300  177.2190  144.5680 C   0  0  0  0  0  0  0  0  0  0  0  0
  185.2550  178.0510  145.6520 C   0  0  2  0  0  3  0  0  0  0  0  0
  187.1050  177.9720  143.3940 N   0  0  0  0  0  2  0  0  0  0  0  0
  190.9640  176.7270  146.7910 C   0  0  0  0  0  0  0  0  0  0  0  0
  188.7940  177.3900  145.1900 C   0  0  0  0  0  0  0  0  0  0  0  0
  191.1230  176.8820  145.3920 C   0  0  0  0  0  3  0  0  0  0  0  0
  184.9230  179.2130  146.4570 N   0  0  0  0  0  1  0  0  0  0  0  0
  187.3730  177.4520  146.9010 O   0  0  0  0  0  0  0  0  0  0  0  0
  186.7110  177.7380  145.7950 C   0  0  0  0  0  0  0  0  0  0  0  0
  187.5480  177.7110  144.7170 C   0  0  0  0  0  0  0  0  0  0  0  0
  192.1180  176.3760  147.6340 C   0  0  0  0  0  0  0  0  0  0  0  0
  192.8690  175.2400  147.3560 O   0  0  0  0  0  0  0  0  0  0  0  0
  192.4360  177.1000  148.6150 O   0  0  0  0  0  1  0  0  0  0  0  0
  190.1680  177.3780  143.1530 N   0  0  0  0  0  2  0  0  0  0  0  0
  190.2460  176.2590  142.2240 C   0  0  0  0  0  2  0  0  0  0  0  0
  191.6820  177.4390  140.5290 C   0  0  0  0  0  1  0  0  0  0  0  0
  190.3470  176.7590  140.7890 C   0  0  2  0  0  3  0  0  0  0  0  0
  189.2350  177.6500  140.4650 N   0  0  0  0  0  2  0  0  0  0  0  0
  188.4860  177.6470  139.2420 C   0  0  0  0  0  0  0  0  0  0  0  0
  187.5180  178.4890  139.0960 N   0  0  0  0  0  2  0  0  0  0  0  0
  189.7010  177.4250  137.1040 C   0  0  0  0  0  1  0  0  0  0  0  0
  188.8210  176.7210  138.1190 C   0  0  0  0  0  2  0  0  0  0  0  0
  1  8  1  0  0  0  0
  1  4  2  0  0  0  0
  2 13  1  0  0  0  0
  2  5  1  0  0  0  0
  3  1  1  0  0  0  0
  4  7  1  0  0  0  0
  6 10  1  0  0  0  0
  6 11  2  0  0  0  0
  7 14  1  0  0  0  0
  7 12  1  1  0  0  0
  8 15  1  0  0  0  0
  9  5  2  0  0  0  0
  9 16  1  0  0  0  0
 10  2  2  0  0  0  0
 11  9  1  0  0  0  0
 14 13  1  0  0  0  0
 15 10  1  0  0  0  0
 15 14  2  0  0  0  0
 16 18  1  0  0  0  0
 17 16  2  0  0  0  0
 19  6  1  0  0  0  0
 20 19  1  0  0  0  0
 22 21  1  1  0  0  0
 22 20  1  0  0  0  0
 23 22  1  0  0  0  0
 24 23  1  0  0  0  0
 25 24  2  0  0  0  0
 26 27  1  0  0  0  0
 27 24  1  0  0  0  0
M  END
>  <MODEL>
2

>  <REMARK>
 VINA RESULT:      -8.8      2.947      6.742
  Name = 
  6 active torsions:
  status: ('A' for Active; 'I' for Inactive)
    1  A    between atoms: N_3  and  C_13
    2  A    between atoms: C_7  and  N_16
    3  A    between atoms: C_11  and  C_27
    4  A    between atoms: C_13  and  C_21
    5  A    between atoms: C_15  and  C_20
    6  A    between atoms: N_16  and  C_21
                            x       y       z     vdW  Elec       q    Type
                         _______ _______ _______ _____ _____    ______ ____

>  <TORSDO>
F 6

$$$$
=
 OpenBabel10222420123D

 27 29  0  0  1  0  0  0  0  0999 V2000
  186.2470  178.0410  144.5780 C   0  0  0  0  0  0  0  0  0  0  0  0
  187.9460  178.1400  140.3640 C   0  0  0  0  0  0  0  0  0  0  0  0
  186.1180  177.7250  146.0240 C   0  0  0  0  0  1  0  0  0  0  0  0
  185.3350  178.7770  143.9950 N   0  0  0  0  0  0  0  0  0  0  0  0
  188.6560  178.0280  139.1720 C   0  0  0  0  0  3  0  0  0  0  0  0
  189.5590  176.7860  141.5710 C   0  0  0  0  0  0  0  0  0  0  0  0
  185.3230  179.1770  142.5720 C   0  0  2  0  0  3  0  0  0  0  0  0
  187.3730  177.5310  143.8440 N   0  0  0  0  0  2  0  0  0  0  0  0
  189.8500  177.2750  139.1770 C   0  0  0  0  0  0  0  0  0  0  0  0
  188.3860  177.5370  141.5220 C   0  0  0  0  0  0  0  0  0  0  0  0
  190.2940  176.6610  140.3740 C   0  0  0  0  0  3  0  0  0  0  0  0
  184.1000  178.7040  141.9480 N   0  0  0  0  0  1  0  0  0  0  0  0
  186.8180  178.7940  140.5670 O   0  0  0  0  0  0  0  0  0  0  0  0
  186.5070  178.6310  141.8390 C   0  0  0  0  0  0  0  0  0  0  0  0
  187.4470  177.8630  142.4660 C   0  0  0  0  0  0  0  0  0  0  0  0
  190.6310  177.1320  137.9380 C   0  0  0  0  0  0  0  0  0  0  0  0
  191.9660  176.7490  137.9910 O   0  0  0  0  0  1  0  0  0  0  0  0
  190.0980  177.3570  136.8190 O   0  0  0  0  0  0  0  0  0  0  0  0
  189.9890  176.1750  142.7920 N   0  0  0  0  0  2  0  0  0  0  0  0
  191.2470  176.5000  143.4500 C   0  0  0  0  0  2  0  0  0  0  0  0
  191.3810  178.9500  144.0030 C   0  0  0  0  0  1  0  0  0  0  0  0
  191.0330  177.5640  144.5200 C   0  0  2  0  0  3  0  0  0  0  0  0
  191.7900  177.2520  145.7290 N   0  0  0  0  0  2  0  0  0  0  0  0
  191.2330  176.8530  146.9890 C   0  0  0  0  0  0  0  0  0  0  0  0
  192.0260  176.5970  147.9750 N   0  0  0  0  0  2  0  0  0  0  0  0
  189.2710  177.9400  148.0220 C   0  0  0  0  0  1  0  0  0  0  0  0
  189.7570  176.7620  147.2000 C   0  0  0  0  0  2  0  0  0  0  0  0
  1  3  1  0  0  0  0
  2 13  1  0  0  0  0
  2 10  1  0  0  0  0
  4  1  2  0  0  0  0
  5  9  1  0  0  0  0
  5  2  2  0  0  0  0
  6 19  1  0  0  0  0
  7 12  1  6  0  0  0
  7  4  1  0  0  0  0
  8  1  1  0  0  0  0
  9 11  2  0  0  0  0
 10  6  2  0  0  0  0
 10 15  1  0  0  0  0
 11  6  1  0  0  0  0
 13 14  1  0  0  0  0
 14 15  2  0  0  0  0
 14  7  1  0  0  0  0
 15  8  1  0  0  0  0
 16 17  1  0  0  0  0
 16  9  1  0  0  0  0
 18 16  2  0  0  0  0
 19 20  1  0  0  0  0
 20 22  1  0  0  0  0
 22 21  1  6  0  0  0
 22 23  1  0  0  0  0
 23 24  1  0  0  0  0
 24 27  1  0  0  0  0
 24 25  2  0  0  0  0
 27 26  1  0  0  0  0
M  END
>  <MODEL>
3

>  <REMARK>
 VINA RESULT:      -8.8      2.301      4.966
  Name = 
  6 active torsions:
  status: ('A' for Active; 'I' for Inactive)
    1  A    between atoms: N_3  and  C_13
    2  A    between atoms: C_7  and  N_16
    3  A    between atoms: C_11  and  C_27
    4  A    between atoms: C_13  and  C_21
    5  A    between atoms: C_15  and  C_20
    6  A    between atoms: N_16  and  C_21
                            x       y       z     vdW  Elec       q    Type
                         _______ _______ _______ _____ _____    ______ ____

>  <TORSDO>
F 6

$$$$
=
 OpenBabel10222420123D

 27 29  0  0  1  0  0  0  0  0999 V2000
  188.0850  178.0020  139.8980 C   0  0  0  0  0  0  0  0  0  0  0  0
  190.9490  176.9650  143.2720 C   0  0  0  0  0  0  0  0  0  0  0  0
  186.8360  178.4020  139.2010 C   0  0  0  0  0  1  0  0  0  0  0  0
  189.1620  177.7520  139.1970 N   0  0  0  0  0  0  0  0  0  0  0  0
  191.6260  176.6960  144.4570 C   0  0  0  0  0  3  0  0  0  0  0  0
  188.8800  177.4540  144.4430 C   0  0  0  0  0  0  0  0  0  0  0  0
  190.4750  177.3460  139.7410 C   0  0  2  0  0  3  0  0  0  0  0  0
  188.0880  177.8950  141.3310 N   0  0  0  0  0  2  0  0  0  0  0  0
  190.9120  176.8090  145.6700 C   0  0  0  0  0  0  0  0  0  0  0  0
  189.6210  177.3310  143.2680 C   0  0  0  0  0  0  0  0  0  0  0  0
  189.5470  177.1870  145.6550 C   0  0  0  0  0  3  0  0  0  0  0  0
  190.8590  176.0660  139.1720 N   0  0  0  0  0  1  0  0  0  0  0  0
  191.4320  176.9180  142.0440 O   0  0  0  0  0  0  0  0  0  0  0  0
  190.4430  177.2450  141.2330 C   0  0  0  0  0  0  0  0  0  0  0  0
  189.3090  177.5080  141.9460 C   0  0  0  0  0  0  0  0  0  0  0  0
  191.5900  176.5330  146.9470 C   0  0  0  0  0  0  0  0  0  0  0  0
  192.4270  175.4300  147.0730 O   0  0  0  0  0  0  0  0  0  0  0  0
  191.4200  177.2930  147.9370 O   0  0  0  0  0  1  0  0  0  0  0  0
  187.5020  177.8390  144.4050 N   0  0  0  0  0  2  0  0  0  0  0  0
  186.5560  177.5360  145.4700 C   0  0  0  0  0  2  0  0  0  0  0  0
  186.1340  179.1080  147.3890 C   0  0  0  0  0  1  0  0  0  0  0  0
  185.8420  178.8020  145.9280 C   0  0  2  0  0  3  0  0  0  0  0  0
  184.4040  178.7080  145.6920 N   0  0  0  0  0  2  0  0  0  0  0  0
  183.7410  178.9440  144.4420 C   0  0  0  0  0  0  0  0  0  0  0  0
  182.4580  178.8130  144.3760 N   0  0  0  0  0  2  0  0  0  0  0  0
  184.5450  178.2430  142.2140 C   0  0  0  0  0  1  0  0  0  0  0  0
  184.4920  179.3730  143.2250 C   0  0  0  0  0  2  0  0  0  0  0  0
  1  8  1  0  0  0  0
  2  5  1  0  0  0  0
  3  1  1  0  0  0  0
  4  7  1  0  0  0  0
  4  1  2  0  0  0  0
  5  9  2  0  0  0  0
  6 11  2  0  0  0  0
  7 12  1  6  0  0  0
  7 14  1  0  0  0  0
  8 15  1  0  0  0  0
  9 16  1  0  0  0  0
 10  2  2  0  0  0  0
 10  6  1  0  0  0  0
 11  9  1  0  0  0  0
 13  2  1  0  0  0  0
 14 15  2  0  0  0  0
 14 13  1  0  0  0  0
 15 10  1  0  0  0  0
 16 17  2  0  0  0  0
 16 18  1  0  0  0  0
 19  6  1  0  0  0  0
 19 20  1  0  0  0  0
 20 22  1  0  0  0  0
 22 21  1  1  0  0  0
 23 22  1  0  0  0  0
 24 23  1  0  0  0  0
 25 24  2  0  0  0  0
 26 27  1  0  0  0  0
 27 24  1  0  0  0  0
M  END
>  <MODEL>
4

>  <REMARK>
 VINA RESULT:      -8.7      3.200      5.433
  Name = 
  6 active torsions:
  status: ('A' for Active; 'I' for Inactive)
    1  A    between atoms: N_3  and  C_13
    2  A    between atoms: C_7  and  N_16
    3  A    between atoms: C_11  and  C_27
    4  A    between atoms: C_13  and  C_21
    5  A    between atoms: C_15  and  C_20
    6  A    between atoms: N_16  and  C_21
                            x       y       z     vdW  Elec       q    Type
                         _______ _______ _______ _____ _____    ______ ____

>  <TORSDO>
F 6

$$$$
=
 OpenBabel10222420123D

 27 29  0  0  1  0  0  0  0  0999 V2000
  189.5150  177.6050  146.2450 C   0  0  0  0  0  0  0  0  0  0  0  0
  185.0990  178.5990  145.8410 C   0  0  0  0  0  0  0  0  0  0  0  0
  190.9000  177.2200  145.8670 C   0  0  0  0  0  1  0  0  0  0  0  0
  189.2360  177.8580  147.4980 N   0  0  0  0  0  0  0  0  0  0  0  0
  183.7840  178.8620  145.4670 C   0  0  0  0  0  3  0  0  0  0  0  0
  185.7570  178.0980  143.5580 C   0  0  0  0  0  0  0  0  0  0  0  0
  187.9140  178.2510  148.0290 C   0  0  2  0  0  3  0  0  0  0  0  0
  188.5060  177.6890  145.2250 N   0  0  0  0  0  2  0  0  0  0  0  0
  183.4440  178.7400  144.1020 C   0  0  0  0  0  0  0  0  0  0  0  0
  186.0500  178.2300  144.9150 C   0  0  0  0  0  0  0  0  0  0  0  0
  184.4310  178.3600  143.1590 C   0  0  0  0  0  3  0  0  0  0  0  0
  187.4910  177.2900  149.0320 N   0  0  0  0  0  1  0  0  0  0  0  0
  185.6140  178.6570  147.0540 O   0  0  0  0  0  0  0  0  0  0  0  0
  186.8890  178.3310  146.9430 C   0  0  0  0  0  0  0  0  0  0  0  0
  187.2000  178.0600  145.6410 C   0  0  0  0  0  0  0  0  0  0  0  0
  182.0650  179.0080  143.6650 C   0  0  0  0  0  0  0  0  0  0  0  0
  180.9920  178.4410  144.3420 O   0  0  0  0  0  1  0  0  0  0  0  0
  181.8440  179.7530  142.6730 O   0  0  0  0  0  0  0  0  0  0  0  0
  186.7690  177.7150  142.6220 N   0  0  0  0  0  2  0  0  0  0  0  0
  187.2790  178.6030  141.5860 C   0  0  0  0  0  2  0  0  0  0  0  0
  188.6420  177.9710  139.5680 C   0  0  0  0  0  1  0  0  0  0  0  0
  188.6320  178.1160  141.0820 C   0  0  2  0  0  3  0  0  0  0  0  0
  189.0130  176.8630  141.7290 N   0  0  0  0  0  2  0  0  0  0  0  0
  190.2990  176.5650  142.2910 C   0  0  0  0  0  0  0  0  0  0  0  0
  190.4920  175.4150  142.8440 N   0  0  0  0  0  2  0  0  0  0  0  0
  192.0650  177.5030  140.8410 C   0  0  0  0  0  1  0  0  0  0  0  0
  191.4300  177.5380  142.2180 C   0  0  0  0  0  2  0  0  0  0  0  0
  1  4  2  0  0  0  0
  2 13  1  0  0  0  0
  3  1  1  0  0  0  0
  4  7  1  0  0  0  0
  5  2  1  0  0  0  0
  6 10  1  0  0  0  0
  7 12  1  1  0  0  0
  8 15  1  0  0  0  0
  8  1  1  0  0  0  0
  9  5  2  0  0  0  0
 10 15  1  0  0  0  0
 10  2  2  0  0  0  0
 11  6  2  0  0  0  0
 11  9  1  0  0  0  0
 14 13  1  0  0  0  0
 14  7  1  0  0  0  0
 15 14  2  0  0  0  0
 16  9  1  0  0  0  0
 16 17  1  0  0  0  0
 18 16  2  0  0  0  0
 19  6  1  0  0  0  0
 20 19  1  0  0  0  0
 22 21  1  6  0  0  0
 22 20  1  0  0  0  0
 22 23  1  0  0  0  0
 23 24  1  0  0  0  0
 24 25  2  0  0  0  0
 26 27  1  0  0  0  0
 27 24  1  0  0  0  0
M  END
>  <MODEL>
5

>  <REMARK>
 VINA RESULT:      -8.6      2.404      6.126
  Name = 
  6 active torsions:
  status: ('A' for Active; 'I' for Inactive)
    1  A    between atoms: N_3  and  C_13
    2  A    between atoms: C_7  and  N_16
    3  A    between atoms: C_11  and  C_27
    4  A    between atoms: C_13  and  C_21
    5  A    between atoms: C_15  and  C_20
    6  A    between atoms: N_16  and  C_21
                            x       y       z     vdW  Elec       q    Type
                         _______ _______ _______ _____ _____    ______ ____

>  <TORSDO>
F 6

$$$$
=
 OpenBabel10222420123D

 27 29  0  0  1  0  0  0  0  0999 V2000
  185.4840  178.1600  143.2490 C   0  0  0  0  0  0  0  0  0  0  0  0
  188.6360  177.2650  146.3990 C   0  0  0  0  0  0  0  0  0  0  0  0
  184.8460  178.3100  141.9150 C   0  0  0  0  0  1  0  0  0  0  0  0
  184.7930  178.4300  144.3280 N   0  0  0  0  0  0  0  0  0  0  0  0
  189.7500  176.9310  147.1630 C   0  0  0  0  0  3  0  0  0  0  0  0
  189.7980  176.8050  144.3180 C   0  0  0  0  0  0  0  0  0  0  0  0
  185.2830  178.3300  145.7180 C   0  0  2  0  0  3  0  0  0  0  0  0
  186.8510  177.7230  143.3300 N   0  0  0  0  0  2  0  0  0  0  0  0
  190.9200  176.5220  146.4890 C   0  0  0  0  0  0  0  0  0  0  0  0
  188.6630  177.2040  145.0230 C   0  0  0  0  0  0  0  0  0  0  0  0
  190.9370  176.4610  145.0740 C   0  0  0  0  0  3  0  0  0  0  0  0
  185.1630  179.6230  146.3670 N   0  0  0  0  0  1  0  0  0  0  0  0
  187.4560  177.6670  146.8330 O   0  0  0  0  0  0  0  0  0  0  0  0
  186.7070  177.8720  145.7660 C   0  0  0  0  0  0  0  0  0  0  0  0
  187.4110  177.5980  144.6290 C   0  0  0  0  0  0  0  0  0  0  0  0
  192.1200  176.1590  147.2600 C   0  0  0  0  0  0  0  0  0  0  0  0
  192.4910  176.9050  148.3720 O   0  0  0  0  0  1  0  0  0  0  0  0
  192.8230  175.1700  146.9190 O   0  0  0  0  0  0  0  0  0  0  0  0
  189.7920  176.7500  142.8880 N   0  0  0  0  0  2  0  0  0  0  0  0
  190.6040  177.6210  142.0490 C   0  0  0  0  0  2  0  0  0  0  0  0
  188.6380  177.8930  140.5040 C   0  0  0  0  0  1  0  0  0  0  0  0
  190.1210  177.5750  140.6050 C   0  0  2  0  0  3  0  0  0  0  0  0
  190.4220  176.2840  139.9910 N   0  0  0  0  0  2  0  0  0  0  0  0
  190.6280  176.0470  138.5920 C   0  0  0  0  0  0  0  0  0  0  0  0
  190.8970  174.8500  138.1900 N   0  0  0  0  0  2  0  0  0  0  0  0
  189.1770  177.0300  136.8520 C   0  0  0  0  0  1  0  0  0  0  0  0
  190.5010  177.1410  137.5840 C   0  0  0  0  0  2  0  0  0  0  0  0
  1  8  1  0  0  0  0
  1  4  2  0  0  0  0
  2 13  1  0  0  0  0
  2  5  1  0  0  0  0
  3  1  1  0  0  0  0
  4  7  1  0  0  0  0
  6 10  1  0  0  0  0
  6 11  2  0  0  0  0
  7 14  1  0  0  0  0
  7 12  1  6  0  0  0
  8 15  1  0  0  0  0
  9  5  2  0  0  0  0
  9 16  1  0  0  0  0
 10  2  2  0  0  0  0
 11  9  1  0  0  0  0
 14 13  1  0  0  0  0
 15 10  1  0  0  0  0
 15 14  2  0  0  0  0
 16 17  1  0  0  0  0
 18 16  2  0  0  0  0
 19  6  1  0  0  0  0
 20 19  1  0  0  0  0
 22 21  1  1  0  0  0
 22 20  1  0  0  0  0
 23 22  1  0  0  0  0
 24 23  1  0  0  0  0
 25 24  2  0  0  0  0
 26 27  1  0  0  0  0
 27 24  1  0  0  0  0
M  END
>  <MODEL>
6

>  <REMARK>
 VINA RESULT:      -8.4      2.929      6.784
  Name = 
  6 active torsions:
  status: ('A' for Active; 'I' for Inactive)
    1  A    between atoms: N_3  and  C_13
    2  A    between atoms: C_7  and  N_16
    3  A    between atoms: C_11  and  C_27
    4  A    between atoms: C_13  and  C_21
    5  A    between atoms: C_15  and  C_20
    6  A    between atoms: N_16  and  C_21
                            x       y       z     vdW  Elec       q    Type
                         _______ _______ _______ _____ _____    ______ ____

>  <TORSDO>
F 6

$$$$
=
 OpenBabel10222420123D

 27 29  0  0  1  0  0  0  0  0999 V2000
  187.2880  178.2470  138.6130 C   0  0  0  0  0  0  0  0  0  0  0  0
  185.5300  178.5010  142.7960 C   0  0  0  0  0  0  0  0  0  0  0  0
  188.2800  178.0460  137.5260 C   0  0  0  0  0  1  0  0  0  0  0  0
  186.0550  178.5670  138.3090 N   0  0  0  0  0  0  0  0  0  0  0  0
  185.2270  178.5130  144.1550 C   0  0  0  0  0  3  0  0  0  0  0  0
  187.8470  177.9110  143.2130 C   0  0  0  0  0  0  0  0  0  0  0  0
  184.9580  178.8000  139.2720 C   0  0  2  0  0  3  0  0  0  0  0  0
  187.7010  178.0890  139.9810 N   0  0  0  0  0  2  0  0  0  0  0  0
  186.2600  178.2150  145.0690 C   0  0  0  0  0  0  0  0  0  0  0  0
  186.7980  178.2100  142.3450 C   0  0  0  0  0  0  0  0  0  0  0  0
  187.5610  177.9160  144.5930 C   0  0  0  0  0  3  0  0  0  0  0  0
  184.4320  180.1410  139.0910 N   0  0  0  0  0  1  0  0  0  0  0  0
  184.7120  178.7480  141.7900 O   0  0  0  0  0  0  0  0  0  0  0  0
  185.4220  178.6260  140.6840 C   0  0  0  0  0  0  0  0  0  0  0  0
  186.7130  178.2940  140.9790 C   0  0  0  0  0  0  0  0  0  0  0  0
  185.9820  178.2170  146.5140 C   0  0  0  0  0  0  0  0  0  0  0  0
  185.5220  179.3700  147.1380 O   0  0  0  0  0  0  0  0  0  0  0  0
  186.1590  177.1740  147.1990 O   0  0  0  0  0  1  0  0  0  0  0  0
  189.1530  177.6100  142.7110 N   0  0  0  0  0  2  0  0  0  0  0  0
  190.2120  177.0310  143.5270 C   0  0  0  0  0  2  0  0  0  0  0  0
  191.3180  179.2470  143.9660 C   0  0  0  0  0  1  0  0  0  0  0  0
  190.6700  178.0210  144.5900 C   0  0  2  0  0  3  0  0  0  0  0  0
  191.5720  177.3830  145.5460 N   0  0  0  0  0  2  0  0  0  0  0  0
  191.1850  176.7550  146.7760 C   0  0  0  0  0  0  0  0  0  0  0  0
  192.0920  176.2200  147.5220 N   0  0  0  0  0  2  0  0  0  0  0  0
  189.4380  178.0100  147.9900 C   0  0  0  0  0  1  0  0  0  0  0  0
  189.7630  176.7360  147.2330 C   0  0  0  0  0  2  0  0  0  0  0  0
  1  8  1  0  0  0  0
  2  5  1  0  0  0  0
  3  1  1  0  0  0  0
  4  1  2  0  0  0  0
  4  7  1  0  0  0  0
  5  9  2  0  0  0  0
  6 11  2  0  0  0  0
  7 12  1  1  0  0  0
  7 14  1  0  0  0  0
  8 15  1  0  0  0  0
  9 16  1  0  0  0  0
 10  2  2  0  0  0  0
 10  6  1  0  0  0  0
 11  9  1  0  0  0  0
 13  2  1  0  0  0  0
 14 15  2  0  0  0  0
 14 13  1  0  0  0  0
 15 10  1  0  0  0  0
 16 17  2  0  0  0  0
 16 18  1  0  0  0  0
 19  6  1  0  0  0  0
 19 20  1  0  0  0  0
 20 22  1  0  0  0  0
 22 21  1  6  0  0  0
 22 23  1  0  0  0  0
 23 24  1  0  0  0  0
 24 27  1  0  0  0  0
 24 25  2  0  0  0  0
 27 26  1  0  0  0  0
M  END
>  <MODEL>
7

>  <REMARK>
 VINA RESULT:      -8.3      1.920      2.502
  Name = 
  6 active torsions:
  status: ('A' for Active; 'I' for Inactive)
    1  A    between atoms: N_3  and  C_13
    2  A    between atoms: C_7  and  N_16
    3  A    between atoms: C_11  and  C_27
    4  A    between atoms: C_13  and  C_21
    5  A    between atoms: C_15  and  C_20
    6  A    between atoms: N_16  and  C_21
                            x       y       z     vdW  Elec       q    Type
                         _______ _______ _______ _____ _____    ______ ____

>  <TORSDO>
F 6

$$$$
=
 OpenBabel10222420123D

 27 29  0  0  1  0  0  0  0  0999 V2000
  190.1930  177.1020  146.3710 C   0  0  0  0  0  0  0  0  0  0  0  0
  185.9320  178.3660  145.4210 C   0  0  0  0  0  0  0  0  0  0  0  0
  191.5790  176.6070  146.1720 C   0  0  0  0  0  1  0  0  0  0  0  0
  189.7960  177.4410  147.5720 N   0  0  0  0  0  0  0  0  0  0  0  0
  184.6890  178.6950  144.8880 C   0  0  0  0  0  3  0  0  0  0  0  0
  186.8000  177.7000  143.2540 C   0  0  0  0  0  0  0  0  0  0  0  0
  188.4550  177.9490  147.9300 C   0  0  2  0  0  3  0  0  0  0  0  0
  189.3110  177.2000  145.2400 N   0  0  0  0  0  2  0  0  0  0  0  0
  184.4940  178.5230  143.5010 C   0  0  0  0  0  0  0  0  0  0  0  0
  186.9500  177.8850  144.6280 C   0  0  0  0  0  0  0  0  0  0  0  0
  185.5480  178.0290  142.6940 C   0  0  0  0  0  3  0  0  0  0  0  0
  187.8550  177.0730  148.9210 N   0  0  0  0  0  1  0  0  0  0  0  0
  186.3120  178.4550  146.6810 O   0  0  0  0  0  0  0  0  0  0  0  0
  187.5640  178.0380  146.7310 C   0  0  0  0  0  0  0  0  0  0  0  0
  187.9970  177.6780  145.4870 C   0  0  0  0  0  0  0  0  0  0  0  0
  183.1950  178.8590  142.8970 C   0  0  0  0  0  0  0  0  0  0  0  0
  182.9900  178.6880  141.5330 O   0  0  0  0  0  0  0  0  0  0  0  0
  182.2560  179.3050  143.6100 O   0  0  0  0  0  1  0  0  0  0  0  0
  187.8790  177.2010  142.4580 N   0  0  0  0  0  2  0  0  0  0  0  0
  188.8250  178.0620  141.7610 C   0  0  0  0  0  2  0  0  0  0  0  0
  190.4970  176.7230  140.4420 C   0  0  0  0  0  1  0  0  0  0  0  0
  189.1780  177.4780  140.3980 C   0  0  2  0  0  3  0  0  0  0  0  0
  189.2040  178.5170  139.3730 N   0  0  0  0  0  2  0  0  0  0  0  0
  188.5920  178.4350  138.0780 C   0  0  0  0  0  0  0  0  0  0  0  0
  188.6870  179.4400  137.2730 N   0  0  0  0  0  2  0  0  0  0  0  0
  186.5890  177.5730  136.9180 C   0  0  0  0  0  1  0  0  0  0  0  0
  187.8800  177.2030  137.6240 C   0  0  0  0  0  2  0  0  0  0  0  0
  1  4  2  0  0  0  0
  2 13  1  0  0  0  0
  3  1  1  0  0  0  0
  4  7  1  0  0  0  0
  5  2  1  0  0  0  0
  6 10  1  0  0  0  0
  7 12  1  1  0  0  0
  8 15  1  0  0  0  0
  8  1  1  0  0  0  0
  9  5  2  0  0  0  0
 10  2  2  0  0  0  0
 10 15  1  0  0  0  0
 11  6  2  0  0  0  0
 11  9  1  0  0  0  0
 13 14  1  0  0  0  0
 14  7  1  0  0  0  0
 15 14  2  0  0  0  0
 16  9  1  0  0  0  0
 16 18  1  0  0  0  0
 17 16  2  0  0  0  0
 19  6  1  0  0  0  0
 20 19  1  0  0  0  0
 22 21  1  1  0  0  0
 22 20  1  0  0  0  0
 23 22  1  0  0  0  0
 24 23  1  0  0  0  0
 25 24  2  0  0  0  0
 26 27  1  0  0  0  0
 27 24  1  0  0  0  0
M  END
>  <MODEL>
8

>  <REMARK>
 VINA RESULT:      -8.3      1.954      6.799
  Name = 
  6 active torsions:
  status: ('A' for Active; 'I' for Inactive)
    1  A    between atoms: N_3  and  C_13
    2  A    between atoms: C_7  and  N_16
    3  A    between atoms: C_11  and  C_27
    4  A    between atoms: C_13  and  C_21
    5  A    between atoms: C_15  and  C_20
    6  A    between atoms: N_16  and  C_21
                            x       y       z     vdW  Elec       q    Type
                         _______ _______ _______ _____ _____    ______ ____

>  <TORSDO>
F 6

$$$$
=
 OpenBabel10222420123D

 27 29  0  0  1  0  0  0  0  0999 V2000
  184.8620  178.5290  142.0060 C   0  0  0  0  0  0  0  0  0  0  0  0
  187.5500  177.5400  145.5350 C   0  0  0  0  0  0  0  0  0  0  0  0
  184.4390  178.8150  140.6110 C   0  0  0  0  0  1  0  0  0  0  0  0
  183.9680  178.5220  142.9620 N   0  0  0  0  0  0  0  0  0  0  0  0
  188.5610  177.2310  146.4410 C   0  0  0  0  0  3  0  0  0  0  0  0
  189.0990  177.5890  143.6670 C   0  0  0  0  0  0  0  0  0  0  0  0
  184.2310  178.2570  144.3920 C   0  0  2  0  0  3  0  0  0  0  0  0
  186.2490  178.2670  142.2810 N   0  0  0  0  0  2  0  0  0  0  0  0
  189.8770  177.0960  145.9480 C   0  0  0  0  0  0  0  0  0  0  0  0
  187.8140  177.7130  144.1940 C   0  0  0  0  0  0  0  0  0  0  0  0
  190.1370  177.2750  144.5670 C   0  0  0  0  0  3  0  0  0  0  0  0
  183.8020  179.3960  145.1830 N   0  0  0  0  0  1  0  0  0  0  0  0
  186.2670  177.7060  145.7920 O   0  0  0  0  0  0  0  0  0  0  0  0
  185.6810  177.9870  144.6430 C   0  0  0  0  0  0  0  0  0  0  0  0
  186.5980  178.0010  143.6310 C   0  0  0  0  0  0  0  0  0  0  0  0
  190.9740  176.7700  146.8720 C   0  0  0  0  0  0  0  0  0  0  0  0
  192.0830  176.0630  146.4220 O   0  0  0  0  0  0  0  0  0  0  0  0
  190.9190  177.1260  148.0800 O   0  0  0  0  0  1  0  0  0  0  0  0
  189.3390  177.7730  142.2680 N   0  0  0  0  0  2  0  0  0  0  0  0
  189.5680  176.6710  141.3430 C   0  0  0  0  0  2  0  0  0  0  0  0
  191.8020  177.5050  140.5440 C   0  0  0  0  0  1  0  0  0  0  0  0
  190.3820  177.1380  140.1430 C   0  0  2  0  0  3  0  0  0  0  0  0
  189.7260  178.2540  139.4670 N   0  0  0  0  0  2  0  0  0  0  0  0
  189.3230  178.2810  138.0900 C   0  0  0  0  0  0  0  0  0  0  0  0
  188.7410  179.3360  137.6270 N   0  0  0  0  0  2  0  0  0  0  0  0
  188.3820  176.2220  137.1030 C   0  0  0  0  0  1  0  0  0  0  0  0
  189.5920  177.1350  137.1720 C   0  0  0  0  0  2  0  0  0  0  0  0
  1  8  1  0  0  0  0
  1  4  2  0  0  0  0
  2 13  1  0  0  0  0
  2  5  1  0  0  0  0
  3  1  1  0  0  0  0
  4  7  1  0  0  0  0
  6 10  1  0  0  0  0
  6 11  2  0  0  0  0
  7 14  1  0  0  0  0
  7 12  1  1  0  0  0
  8 15  1  0  0  0  0
  9  5  2  0  0  0  0
  9 16  1  0  0  0  0
 10  2  2  0  0  0  0
 11  9  1  0  0  0  0
 14 13  1  0  0  0  0
 15 10  1  0  0  0  0
 15 14  2  0  0  0  0
 16 18  1  0  0  0  0
 17 16  2  0  0  0  0
 19  6  1  0  0  0  0
 20 19  1  0  0  0  0
 22 21  1  1  0  0  0
 22 20  1  0  0  0  0
 23 22  1  0  0  0  0
 24 23  1  0  0  0  0
 25 24  2  0  0  0  0
 26 27  1  0  0  0  0
 27 24  1  0  0  0  0
M  END
>  <MODEL>
9

>  <REMARK>
 VINA RESULT:      -8.0      2.902      6.522
  Name = 
  6 active torsions:
  status: ('A' for Active; 'I' for Inactive)
    1  A    between atoms: N_3  and  C_13
    2  A    between atoms: C_7  and  N_16
    3  A    between atoms: C_11  and  C_27
    4  A    between atoms: C_13  and  C_21
    5  A    between atoms: C_15  and  C_20
    6  A    between atoms: N_16  and  C_21
                            x       y       z     vdW  Elec       q    Type
                         _______ _______ _______ _____ _____    ______ ____

>  <TORSDO>
F 6

$$$$
