=
 OpenBabel10222420173D

 27 31  0  0  1  0  0  0  0  0999 V2000
  183.3600  177.3440  137.0370 C   0  0  0  0  0  3  0  0  0  0  0  0
  181.5260  180.4110  137.6780 C   0  0  0  0  0  3  0  0  0  0  0  0
  184.6210  177.1350  136.4770 C   0  0  0  0  0  3  0  0  0  0  0  0
  183.2450  177.9940  138.2690 C   0  0  0  0  0  0  0  0  0  0  0  0
  179.9570  181.3330  139.7710 C   0  0  0  0  0  3  0  0  0  0  0  0
  183.8760  178.2520  141.2760 N   0  0  1  0  0  0  0  0  0  0  0  0
  181.6390  177.4040  140.0070 O   0  0  0  0  0  0  0  0  0  0  0  0
  180.5060  180.0500  139.8380 C   0  0  0  0  0  0  0  0  0  0  0  0
  181.8630  178.1790  138.8310 C   0  0  1  0  0  3  0  0  0  0  0  0
  180.2430  179.1690  141.0120 C   0  0  1  0  0  3  0  0  0  0  0  0
  184.0000  178.3270  143.6650 C   0  0  2  0  0  3  0  0  0  0  0  0
  180.9610  181.6880  137.6490 C   0  0  0  0  0  3  0  0  0  0  0  0
  178.9310  178.4240  140.8320 C   0  0  0  0  0  1  0  0  0  0  0  0
  184.8110  178.3280  142.3880 C   0  0  0  0  0  2  0  0  0  0  0  0
  185.6560  178.1940  138.3300 C   0  0  0  0  0  3  0  0  0  0  0  0
  182.6210  178.7920  143.2660 C   0  0  0  0  0  2  0  0  0  0  0  0
  181.3090  179.5870  138.7880 C   0  0  0  0  0  0  0  0  0  0  0  0
  182.6420  178.8620  141.7510 C   0  0  2  0  0  3  0  0  0  0  0  0
  184.3850  179.1340  140.2400 C   0  0  0  0  0  2  0  0  0  0  0  0
  180.1970  182.1210  138.6890 N   0  0  0  0  0  0  0  0  0  0  0  0
  184.4150  178.4270  138.9280 C   0  0  0  0  0  0  0  0  0  0  0  0
  185.7340  177.5610  137.1300 N   0  0  0  0  0  0  0  0  0  0  0  0
  181.3950  178.1760  141.1760 C   0  0  2  0  0  3  0  0  0  0  0  0
  185.3650  179.5610  146.9530 O   0  0  0  0  0  1  0  0  0  0  0  0
  184.6030  179.2400  144.6830 C   0  0  0  0  0  0  0  0  0  0  0  0
  184.9180  180.4220  144.3760 O   0  0  0  0  0  0  0  0  0  0  0  0
  184.8200  178.7610  146.0070 N   0  0  0  0  0  2  0  0  0  0  0  0
  1  4  1  0  0  0  0
  2 17  1  0  0  0  0
  3  1  2  0  0  0  0
  3 22  1  0  0  0  0
  4 21  2  0  0  0  0
  5  8  1  0  0  0  0
  6 19  1  6  0  0  0
  6 18  1  0  0  0  0
  6 14  1  0  0  0  0
  8 10  1  0  0  0  0
  9  4  1  1  0  0  0
  9  7  1  0  0  0  0
 10 13  1  6  0  0  0
 10 23  1  0  0  0  0
 11 25  1  1  0  0  0
 12  2  2  0  0  0  0
 12 20  1  0  0  0  0
 14 11  1  0  0  0  0
 15 21  1  0  0  0  0
 16 11  1  0  0  0  0
 17  9  1  0  0  0  0
 17  8  2  0  0  0  0
 18 16  1  1  0  0  0
 20  5  2  0  0  0  0
 21 19  1  0  0  0  0
 22 15  2  0  0  0  0
 23  7  1  6  0  0  0
 23 18  1  0  0  0  0
 25 27  1  0  0  0  0
 26 25  2  0  0  0  0
 27 24  1  0  0  0  0
M  END
>  <MODEL>
1

>  <REMARK>
 VINA RESULT:      -7.1      0.000      0.000
  Name = 
  1 active torsions:
  status: ('A' for Active; 'I' for Inactive)
    1  A    between atoms: C_9  and  C_13
                            x       y       z     vdW  Elec       q    Type
                         _______ _______ _______ _____ _____    ______ ____

>  <TORSDO>
F 1

$$$$
=
 OpenBabel10222420173D

 27 31  0  0  1  0  0  0  0  0999 V2000
  180.1110  178.1500  142.4850 C   0  0  0  0  0  3  0  0  0  0  0  0
  183.5600  178.7040  141.4950 C   0  0  0  0  0  3  0  0  0  0  0  0
  179.3010  178.8330  143.3920 C   0  0  0  0  0  3  0  0  0  0  0  0
  180.5420  178.7880  141.3180 C   0  0  0  0  0  0  0  0  0  0  0  0
  184.9210  178.6330  139.0780 C   0  0  0  0  0  3  0  0  0  0  0  0
  179.9950  180.2750  138.6730 N   0  0  1  0  0  0  0  0  0  0  0  0
  180.7410  177.7130  139.1380 O   0  0  0  0  0  0  0  0  0  0  0  0
  183.5580  178.3300  139.1080 C   0  0  0  0  0  0  0  0  0  0  0  0
  181.4000  177.9990  140.3700 C   0  0  1  0  0  3  0  0  0  0  0  0
  182.8340  177.9530  137.8590 C   0  0  1  0  0  3  0  0  0  0  0  0
  179.6700  181.0920  136.4470 C   0  0  2  0  0  3  0  0  0  0  0  0
  184.9220  179.0030  141.4240 C   0  0  0  0  0  3  0  0  0  0  0  0
  182.9950  176.4680  137.5820 C   0  0  0  0  0  1  0  0  0  0  0  0
  179.3810  181.3490  137.9100 C   0  0  0  0  0  2  0  0  0  0  0  0
  179.3310  180.7640  142.0150 C   0  0  0  0  0  3  0  0  0  0  0  0
  180.8820  180.1930  136.4290 C   0  0  0  0  0  2  0  0  0  0  0  0
  182.8660  178.3780  140.3240 C   0  0  0  0  0  0  0  0  0  0  0  0
  181.1280  179.8200  137.8780 C   0  0  2  0  0  3  0  0  0  0  0  0
  180.5620  180.8800  139.8660 C   0  0  0  0  0  2  0  0  0  0  0  0
  185.5690  178.9650  140.2270 N   0  0  0  0  0  0  0  0  0  0  0  0
  180.1440  180.1210  141.0790 C   0  0  0  0  0  0  0  0  0  0  0  0
  178.9310  180.1160  143.1410 N   0  0  0  0  0  0  0  0  0  0  0  0
  181.3520  178.3060  137.9990 C   0  0  2  0  0  3  0  0  0  0  0  0
  181.0610  184.5100  135.6800 O   0  0  0  0  0  1  0  0  0  0  0  0
  179.9360  182.3710  135.7210 C   0  0  0  0  0  0  0  0  0  0  0  0
  179.4050  182.5930  134.5980 O   0  0  0  0  0  0  0  0  0  0  0  0
  180.7980  183.3410  136.3110 N   0  0  0  0  0  2  0  0  0  0  0  0
  1  3  1  0  0  0  0
  4  1  2  0  0  0  0
  5  8  2  0  0  0  0
  5 20  1  0  0  0  0
  6 14  1  6  0  0  0
  6 19  1  0  0  0  0
  8 17  1  0  0  0  0
  9  7  1  6  0  0  0
  9  4  1  0  0  0  0
 10 13  1  1  0  0  0
 10 23  1  0  0  0  0
 10  8  1  0  0  0  0
 11 25  1  6  0  0  0
 11 14  1  0  0  0  0
 12  2  1  0  0  0  0
 15 22  1  0  0  0  0
 16 11  1  0  0  0  0
 17  9  1  0  0  0  0
 17  2  2  0  0  0  0
 18 16  1  6  0  0  0
 18 23  1  0  0  0  0
 18  6  1  0  0  0  0
 19 21  1  0  0  0  0
 20 12  2  0  0  0  0
 21  4  1  0  0  0  0
 21 15  2  0  0  0  0
 22  3  2  0  0  0  0
 23  7  1  1  0  0  0
 24 27  1  0  0  0  0
 25 27  1  0  0  0  0
 26 25  2  0  0  0  0
M  END
>  <MODEL>
2

>  <REMARK>
 VINA RESULT:      -6.1      2.950      6.996
  Name = 
  1 active torsions:
  status: ('A' for Active; 'I' for Inactive)
    1  A    between atoms: C_9  and  C_13
                            x       y       z     vdW  Elec       q    Type
                         _______ _______ _______ _____ _____    ______ ____

>  <TORSDO>
F 1

$$$$
=
 OpenBabel10222420173D

 27 31  0  0  1  0  0  0  0  0999 V2000
  179.8570  180.5010  140.1790 C   0  0  0  0  0  3  0  0  0  0  0  0
  180.5290  177.0480  139.2810 C   0  0  0  0  0  3  0  0  0  0  0  0
  178.9310  181.0500  141.0660 C   0  0  0  0  0  3  0  0  0  0  0  0
  180.9020  179.7110  140.6660 C   0  0  0  0  0  0  0  0  0  0  0  0
  182.8340  175.5710  138.8350 C   0  0  0  0  0  3  0  0  0  0  0  0
  183.3720  179.2730  142.4590 N   0  0  1  0  0  0  0  0  0  0  0  0
  183.1810  179.7290  139.7960 O   0  0  0  0  0  0  0  0  0  0  0  0
  182.9380  176.9300  139.1450 C   0  0  0  0  0  0  0  0  0  0  0  0
  181.8800  179.1580  139.6670 C   0  0  1  0  0  3  0  0  0  0  0  0
  184.2710  177.5950  139.2200 C   0  0  1  0  0  3  0  0  0  0  0  0
  185.4960  178.9660  143.5190 C   0  0  2  0  0  3  0  0  0  0  0  0
  180.4670  175.6880  138.9720 C   0  0  0  0  0  3  0  0  0  0  0  0
  184.7200  178.0390  137.8380 C   0  0  0  0  0  1  0  0  0  0  0  0
  184.0370  179.2890  143.7520 C   0  0  0  0  0  2  0  0  0  0  0  0
  180.0500  180.0540  142.9050 C   0  0  0  0  0  3  0  0  0  0  0  0
  185.5420  178.2480  142.1920 C   0  0  0  0  0  2  0  0  0  0  0  0
  181.7760  177.6740  139.3830 C   0  0  0  0  0  0  0  0  0  0  0  0
  184.1380  178.3520  141.6300 C   0  0  2  0  0  3  0  0  0  0  0  0
  182.0770  178.6480  142.6600 C   0  0  0  0  0  2  0  0  0  0  0  0
  181.6110  174.9820  138.7600 N   0  0  0  0  0  0  0  0  0  0  0  0
  181.0000  179.4830  142.0550 C   0  0  0  0  0  0  0  0  0  0  0  0
  179.0450  180.8170  142.4000 N   0  0  0  0  0  0  0  0  0  0  0  0
  184.1920  178.7980  140.1620 C   0  0  2  0  0  3  0  0  0  0  0  0
  186.5370  177.8560  146.9660 O   0  0  0  0  0  1  0  0  0  0  0  0
  186.0370  178.1070  144.6160 C   0  0  0  0  0  0  0  0  0  0  0  0
  186.4720  176.9490  144.3670 O   0  0  0  0  0  0  0  0  0  0  0  0
  186.0550  178.6080  145.9490 N   0  0  0  0  0  2  0  0  0  0  0  0
  1  4  2  0  0  0  0
  1  3  1  0  0  0  0
  2 17  1  0  0  0  0
  3 22  2  0  0  0  0
  4 21  1  0  0  0  0
  5  8  1  0  0  0  0
  6 19  1  1  0  0  0
  6 14  1  0  0  0  0
  8 10  1  0  0  0  0
  8 17  2  0  0  0  0
  9 17  1  1  0  0  0
  9  7  1  0  0  0  0
  9  4  1  0  0  0  0
 10 13  1  6  0  0  0
 10 23  1  0  0  0  0
 11 14  1  0  0  0  0
 11 25  1  1  0  0  0
 12  2  2  0  0  0  0
 16 11  1  0  0  0  0
 18 16  1  1  0  0  0
 18  6  1  0  0  0  0
 20  5  2  0  0  0  0
 20 12  1  0  0  0  0
 21 19  1  0  0  0  0
 21 15  2  0  0  0  0
 22 15  1  0  0  0  0
 23  7  1  6  0  0  0
 23 18  1  0  0  0  0
 25 27  1  0  0  0  0
 26 25  2  0  0  0  0
 27 24  1  0  0  0  0
M  END
>  <MODEL>
3

>  <REMARK>
 VINA RESULT:      -6.1      2.068      4.654
  Name = 
  1 active torsions:
  status: ('A' for Active; 'I' for Inactive)
    1  A    between atoms: C_9  and  C_13
                            x       y       z     vdW  Elec       q    Type
                         _______ _______ _______ _____ _____    ______ ____

>  <TORSDO>
F 1

$$$$
=
 OpenBabel10222420173D

 27 31  0  0  1  0  0  0  0  0999 V2000
  193.2140  176.0110  136.6160 C   0  0  0  0  0  3  0  0  0  0  0  0
  191.3160  176.8740  139.5880 C   0  0  0  0  0  3  0  0  0  0  0  0
  194.1760  175.0230  136.4030 C   0  0  0  0  0  3  0  0  0  0  0  0
  191.8920  175.6470  136.8840 C   0  0  0  0  0  0  0  0  0  0  0  0
  188.6780  177.5870  140.0670 C   0  0  0  0  0  3  0  0  0  0  0  0
  189.2680  174.2030  136.1520 N   0  0  1  0  0  0  0  0  0  0  0  0
  189.9290  176.8270  136.0440 O   0  0  0  0  0  0  0  0  0  0  0  0
  189.0960  177.3420  138.7560 C   0  0  0  0  0  0  0  0  0  0  0  0
  190.8950  176.7540  137.0910 C   0  0  1  0  0  3  0  0  0  0  0  0
  188.1440  177.4760  137.6160 C   0  0  1  0  0  3  0  0  0  0  0  0
  187.0950  173.4390  135.5020 C   0  0  2  0  0  3  0  0  0  0  0  0
  190.8590  177.1260  140.8830 C   0  0  0  0  0  3  0  0  0  0  0  0
  188.0740  178.9210  137.1520 C   0  0  0  0  0  1  0  0  0  0  0  0
  188.5230  173.0160  135.7630 C   0  0  0  0  0  2  0  0  0  0  0  0
  192.5490  173.3250  136.7110 C   0  0  0  0  0  3  0  0  0  0  0  0
  186.9150  174.7340  136.2560 C   0  0  0  0  0  2  0  0  0  0  0  0
  190.4230  176.9690  138.5140 C   0  0  0  0  0  0  0  0  0  0  0  0
  188.2960  175.0980  136.7650 C   0  0  2  0  0  3  0  0  0  0  0  0
  190.1690  173.8010  137.2190 C   0  0  0  0  0  2  0  0  0  0  0  0
  189.5600  177.4710  141.0960 N   0  0  0  0  0  0  0  0  0  0  0  0
  191.5530  174.2790  136.9320 C   0  0  0  0  0  0  0  0  0  0  0  0
  193.8270  173.7110  136.4540 N   0  0  0  0  0  0  0  0  0  0  0  0
  188.5940  176.5730  136.4640 C   0  0  2  0  0  3  0  0  0  0  0  0
  184.1240  171.8800  137.2180 O   0  0  0  0  0  1  0  0  0  0  0  0
  186.1330  172.4000  135.9790 C   0  0  0  0  0  0  0  0  0  0  0  0
  186.3050  171.1850  135.6860 O   0  0  0  0  0  0  0  0  0  0  0  0
  185.0150  172.7950  136.7700 N   0  0  0  0  0  2  0  0  0  0  0  0
  1  4  1  0  0  0  0
  2 12  1  0  0  0  0
  3 22  1  0  0  0  0
  3  1  2  0  0  0  0
  4 21  2  0  0  0  0
  4  9  1  0  0  0  0
  5 20  1  0  0  0  0
  6 14  1  1  0  0  0
  6 18  1  0  0  0  0
  6 19  1  0  0  0  0
  8  5  2  0  0  0  0
  9  7  1  6  0  0  0
  9 17  1  0  0  0  0
 10 13  1  6  0  0  0
 10  8  1  0  0  0  0
 11 14  1  0  0  0  0
 11 25  1  1  0  0  0
 11 16  1  0  0  0  0
 12 20  2  0  0  0  0
 15 21  1  0  0  0  0
 17  8  1  0  0  0  0
 17  2  2  0  0  0  0
 18 16  1  6  0  0  0
 21 19  1  0  0  0  0
 22 15  2  0  0  0  0
 23  7  1  1  0  0  0
 23 18  1  0  0  0  0
 23 10  1  0  0  0  0
 25 27  1  0  0  0  0
 26 25  2  0  0  0  0
 27 24  1  0  0  0  0
M  END
>  <MODEL>
4

>  <REMARK>
 VINA RESULT:      -5.8      7.118      9.799
  Name = 
  1 active torsions:
  status: ('A' for Active; 'I' for Inactive)
    1  A    between atoms: C_9  and  C_13
                            x       y       z     vdW  Elec       q    Type
                         _______ _______ _______ _____ _____    ______ ____

>  <TORSDO>
F 1

$$$$
=
 OpenBabel10222420173D

 27 31  0  0  1  0  0  0  0  0999 V2000
  180.9730  180.1250  138.6710 C   0  0  0  0  0  3  0  0  0  0  0  0
  182.3010  176.9500  137.5170 C   0  0  0  0  0  3  0  0  0  0  0  0
  179.8220  180.4220  139.4000 C   0  0  0  0  0  3  0  0  0  0  0  0
  182.0070  179.3990  139.2670 C   0  0  0  0  0  0  0  0  0  0  0  0
  184.8400  175.8370  137.3930 C   0  0  0  0  0  3  0  0  0  0  0  0
  184.1180  178.9880  141.4760 N   0  0  1  0  0  0  0  0  0  0  0  0
  184.3840  179.8140  138.9100 O   0  0  0  0  0  0  0  0  0  0  0  0
  184.6820  177.1370  137.8820 C   0  0  0  0  0  0  0  0  0  0  0  0
  183.2300  179.1210  138.4380 C   0  0  1  0  0  3  0  0  0  0  0  0
  185.8640  177.9340  138.3210 C   0  0  1  0  0  3  0  0  0  0  0  0
  186.0170  178.7750  142.9170 C   0  0  2  0  0  3  0  0  0  0  0  0
  182.4990  175.6540  137.0350 C   0  0  0  0  0  3  0  0  0  0  0  0
  186.5030  178.6310  137.1320 C   0  0  0  0  0  1  0  0  0  0  0  0
  184.5090  178.8860  142.8730 C   0  0  0  0  0  2  0  0  0  0  0  0
  180.6950  179.2990  141.2980 C   0  0  0  0  0  3  0  0  0  0  0  0
  186.4240  178.2760  141.5520 C   0  0  0  0  0  2  0  0  0  0  0  0
  183.4010  177.6950  137.9580 C   0  0  0  0  0  0  0  0  0  0  0  0
  185.1560  178.2980  140.7210 C   0  0  2  0  0  3  0  0  0  0  0  0
  182.9130  178.1920  141.3190 C   0  0  0  0  0  2  0  0  0  0  0  0
  183.7530  175.1270  136.9860 N   0  0  0  0  0  0  0  0  0  0  0  0
  181.8650  178.9770  140.6060 C   0  0  0  0  0  0  0  0  0  0  0  0
  179.7070  180.0060  140.6890 N   0  0  0  0  0  0  0  0  0  0  0  0
  185.4290  178.9630  139.3660 C   0  0  2  0  0  3  0  0  0  0  0  0
  186.4470  177.2450  146.3340 O   0  0  0  0  0  1  0  0  0  0  0  0
  186.4530  177.8300  143.9890 C   0  0  0  0  0  0  0  0  0  0  0  0
  187.1530  176.8190  143.7060 O   0  0  0  0  0  0  0  0  0  0  0  0
  186.0700  178.0810  145.3380 N   0  0  0  0  0  2  0  0  0  0  0  0
  1  4  2  0  0  0  0
  1  3  1  0  0  0  0
  2 17  1  0  0  0  0
  3 22  2  0  0  0  0
  4 21  1  0  0  0  0
  5  8  1  0  0  0  0
  6 19  1  1  0  0  0
  6 14  1  0  0  0  0
  8 17  2  0  0  0  0
  8 10  1  0  0  0  0
  9 17  1  1  0  0  0
  9  7  1  0  0  0  0
  9  4  1  0  0  0  0
 10 13  1  6  0  0  0
 10 23  1  0  0  0  0
 11 25  1  1  0  0  0
 12  2  2  0  0  0  0
 14 11  1  0  0  0  0
 16 11  1  0  0  0  0
 18  6  1  0  0  0  0
 18 16  1  1  0  0  0
 20 12  1  0  0  0  0
 20  5  2  0  0  0  0
 21 15  2  0  0  0  0
 21 19  1  0  0  0  0
 22 15  1  0  0  0  0
 23  7  1  6  0  0  0
 23 18  1  0  0  0  0
 25 27  1  0  0  0  0
 26 25  2  0  0  0  0
 27 24  1  0  0  0  0
M  END
>  <MODEL>
5

>  <REMARK>
 VINA RESULT:      -5.6      1.864      4.694
  Name = 
  1 active torsions:
  status: ('A' for Active; 'I' for Inactive)
    1  A    between atoms: C_9  and  C_13
                            x       y       z     vdW  Elec       q    Type
                         _______ _______ _______ _____ _____    ______ ____

>  <TORSDO>
F 1

$$$$
=
 OpenBabel10222420173D

 27 31  0  0  1  0  0  0  0  0999 V2000
  179.8260  179.2640  141.6340 C   0  0  0  0  0  3  0  0  0  0  0  0
  179.7590  175.8680  140.3520 C   0  0  0  0  0  3  0  0  0  0  0  0
  180.0760  179.7500  142.9170 C   0  0  0  0  0  3  0  0  0  0  0  0
  180.8480  178.6320  140.9190 C   0  0  0  0  0  0  0  0  0  0  0  0
  180.6710  174.6500  138.0320 C   0  0  0  0  0  3  0  0  0  0  0  0
  183.6600  178.5950  139.6550 N   0  0  1  0  0  0  0  0  0  0  0  0
  181.2160  178.8680  138.5190 O   0  0  0  0  0  0  0  0  0  0  0  0
  180.8400  176.0270  138.1980 C   0  0  0  0  0  0  0  0  0  0  0  0
  180.5270  178.1410  139.5350 C   0  0  1  0  0  3  0  0  0  0  0  0
  181.4900  176.8480  137.1340 C   0  0  1  0  0  3  0  0  0  0  0  0
  185.6540  178.6020  138.3320 C   0  0  2  0  0  3  0  0  0  0  0  0
  179.6100  174.4940  140.1510 C   0  0  0  0  0  3  0  0  0  0  0  0
  180.4690  177.2610  136.0880 C   0  0  0  0  0  1  0  0  0  0  0  0
  185.1020  178.7630  139.7310 C   0  0  0  0  0  2  0  0  0  0  0  0
  182.3240  179.0030  142.8010 C   0  0  0  0  0  3  0  0  0  0  0  0
  184.6100  177.8190  137.5750 C   0  0  0  0  0  2  0  0  0  0  0  0
  180.3930  176.6420  139.3730 C   0  0  0  0  0  0  0  0  0  0  0  0
  183.4220  177.7230  138.5120 C   0  0  2  0  0  3  0  0  0  0  0  0
  183.2640  177.8330  140.8270 C   0  0  0  0  0  2  0  0  0  0  0  0
  180.0670  173.9170  139.0060 N   0  0  0  0  0  0  0  0  0  0  0  0
  182.1200  178.4990  141.5140 C   0  0  0  0  0  0  0  0  0  0  0  0
  181.3090  179.6110  143.4700 N   0  0  0  0  0  0  0  0  0  0  0  0
  182.1320  178.0860  137.7630 C   0  0  2  0  0  3  0  0  0  0  0  0
  189.1820  177.6800  139.2870 O   0  0  0  0  0  1  0  0  0  0  0  0
  186.9620  177.8780  138.3530 C   0  0  0  0  0  0  0  0  0  0  0  0
  187.1590  176.8900  137.5930 O   0  0  0  0  0  0  0  0  0  0  0  0
  187.9860  178.3140  139.2420 N   0  0  0  0  0  2  0  0  0  0  0  0
  1  3  1  0  0  0  0
  3 22  2  0  0  0  0
  4 21  1  0  0  0  0
  4  1  2  0  0  0  0
  5  8  2  0  0  0  0
  5 20  1  0  0  0  0
  6 14  1  1  0  0  0
  6 19  1  0  0  0  0
  8 17  1  0  0  0  0
  9  7  1  6  0  0  0
  9  4  1  0  0  0  0
 10 13  1  6  0  0  0
 10 23  1  0  0  0  0
 10  8  1  0  0  0  0
 11 25  1  1  0  0  0
 11 14  1  0  0  0  0
 12  2  1  0  0  0  0
 15 22  1  0  0  0  0
 16 11  1  0  0  0  0
 17  9  1  0  0  0  0
 17  2  2  0  0  0  0
 18 16  1  6  0  0  0
 18  6  1  0  0  0  0
 19 21  1  0  0  0  0
 20 12  2  0  0  0  0
 21 15  2  0  0  0  0
 23 18  1  0  0  0  0
 23  7  1  1  0  0  0
 25 27  1  0  0  0  0
 26 25  2  0  0  0  0
 27 24  1  0  0  0  0
M  END
>  <MODEL>
6

>  <REMARK>
 VINA RESULT:      -5.5      3.064      5.669
  Name = 
  1 active torsions:
  status: ('A' for Active; 'I' for Inactive)
    1  A    between atoms: C_9  and  C_13
                            x       y       z     vdW  Elec       q    Type
                         _______ _______ _______ _____ _____    ______ ____

>  <TORSDO>
F 1

$$$$
=
 OpenBabel10222420173D

 27 31  0  0  1  0  0  0  0  0999 V2000
  187.7590  177.4910  134.6780 C   0  0  0  0  0  3  0  0  0  0  0  0
  189.4030  174.2760  135.0570 C   0  0  0  0  0  3  0  0  0  0  0  0
  186.4050  177.8260  134.6530 C   0  0  0  0  0  3  0  0  0  0  0  0
  188.3300  176.9900  135.8520 C   0  0  0  0  0  0  0  0  0  0  0  0
  191.6250  173.3850  136.4580 C   0  0  0  0  0  3  0  0  0  0  0  0
  189.0250  177.2130  138.8470 N   0  0  1  0  0  0  0  0  0  0  0  0
  190.5720  177.5300  136.6470 O   0  0  0  0  0  0  0  0  0  0  0  0
  191.2770  174.7370  136.5100 C   0  0  0  0  0  0  0  0  0  0  0  0
  189.7970  176.6590  135.8250 C   0  0  1  0  0  3  0  0  0  0  0  0
  192.0960  175.7050  137.2960 C   0  0  1  0  0  3  0  0  0  0  0  0
  189.9290  177.4580  141.0500 C   0  0  2  0  0  3  0  0  0  0  0  0
  189.7820  172.9320  135.0320 C   0  0  0  0  0  3  0  0  0  0  0  0
  193.2670  176.2040  136.4650 C   0  0  0  0  0  1  0  0  0  0  0  0
  188.6530  177.4260  140.2370 C   0  0  0  0  0  2  0  0  0  0  0  0
  186.1700  177.1840  136.9240 C   0  0  0  0  0  3  0  0  0  0  0  0
  190.9560  176.7330  140.2140 C   0  0  0  0  0  2  0  0  0  0  0  0
  190.1480  175.1870  135.8150 C   0  0  0  0  0  0  0  0  0  0  0  0
  190.2830  176.4790  138.8800 C   0  0  2  0  0  3  0  0  0  0  0  0
  188.0440  176.3000  138.2860 C   0  0  0  0  0  2  0  0  0  0  0  0
  190.8740  172.5160  135.7290 N   0  0  0  0  0  0  0  0  0  0  0  0
  187.5200  176.8340  136.9960 C   0  0  0  0  0  0  0  0  0  0  0  0
  185.6440  177.6670  135.7680 N   0  0  0  0  0  0  0  0  0  0  0  0
  191.2200  176.8810  137.7340 C   0  0  2  0  0  3  0  0  0  0  0  0
  188.8110  176.8760  144.6010 O   0  0  0  0  0  1  0  0  0  0  0  0
  189.7380  176.7860  142.3710 C   0  0  0  0  0  0  0  0  0  0  0  0
  190.2210  175.6400  142.5830 O   0  0  0  0  0  0  0  0  0  0  0  0
  189.0040  177.4550  143.3930 N   0  0  0  0  0  2  0  0  0  0  0  0
  1  4  1  0  0  0  0
  2 17  1  0  0  0  0
  3  1  2  0  0  0  0
  3 22  1  0  0  0  0
  4 21  2  0  0  0  0
  5  8  1  0  0  0  0
  6 19  1  6  0  0  0
  6 18  1  0  0  0  0
  6 14  1  0  0  0  0
  8 10  1  0  0  0  0
  9 17  1  1  0  0  0
  9  4  1  0  0  0  0
  9  7  1  0  0  0  0
 10 13  1  6  0  0  0
 10 23  1  0  0  0  0
 11 25  1  1  0  0  0
 12  2  2  0  0  0  0
 12 20  1  0  0  0  0
 14 11  1  0  0  0  0
 15 21  1  0  0  0  0
 16 11  1  0  0  0  0
 17  8  2  0  0  0  0
 18 16  1  1  0  0  0
 20  5  2  0  0  0  0
 21 19  1  0  0  0  0
 22 15  2  0  0  0  0
 23  7  1  6  0  0  0
 23 18  1  0  0  0  0
 25 26  2  0  0  0  0
 25 27  1  0  0  0  0
 27 24  1  0  0  0  0
M  END
>  <MODEL>
7

>  <REMARK>
 VINA RESULT:      -5.5      5.736      8.885
  Name = 
  1 active torsions:
  status: ('A' for Active; 'I' for Inactive)
    1  A    between atoms: C_9  and  C_13
                            x       y       z     vdW  Elec       q    Type
                         _______ _______ _______ _____ _____    ______ ____

>  <TORSDO>
F 1

$$$$
=
 OpenBabel10222420173D

 27 31  0  0  1  0  0  0  0  0999 V2000
  186.8230  178.6220  137.5320 C   0  0  0  0  0  3  0  0  0  0  0  0
  187.9890  175.2070  137.1360 C   0  0  0  0  0  3  0  0  0  0  0  0
  185.6370  179.1240  138.0690 C   0  0  0  0  0  3  0  0  0  0  0  0
  187.7360  177.9620  138.3580 C   0  0  0  0  0  0  0  0  0  0  0  0
  190.4310  173.9360  137.4880 C   0  0  0  0  0  3  0  0  0  0  0  0
  189.5990  177.8570  140.8130 N   0  0  1  0  0  0  0  0  0  0  0  0
  190.1610  178.1520  138.1800 O   0  0  0  0  0  0  0  0  0  0  0  0
  190.3340  175.3130  137.7070 C   0  0  0  0  0  0  0  0  0  0  0  0
  189.0030  177.4530  137.7280 C   0  0  1  0  0  3  0  0  0  0  0  0
  191.5330  176.1050  138.1100 C   0  0  1  0  0  3  0  0  0  0  0  0
  191.3350  177.8110  142.4590 C   0  0  2  0  0  3  0  0  0  0  0  0
  188.1250  173.8320  136.9290 C   0  0  0  0  0  3  0  0  0  0  0  0
  192.3310  176.5180  136.8850 C   0  0  0  0  0  1  0  0  0  0  0  0
  189.8520  178.0040  142.2380 C   0  0  0  0  0  2  0  0  0  0  0  0
  186.2410  178.3390  140.2240 C   0  0  0  0  0  3  0  0  0  0  0  0
  191.8230  177.0320  141.2610 C   0  0  0  0  0  2  0  0  0  0  0  0
  189.1010  175.9540  137.5430 C   0  0  0  0  0  0  0  0  0  0  0  0
  190.6410  176.9710  140.3130 C   0  0  2  0  0  3  0  0  0  0  0  0
  188.3520  177.1220  140.6820 C   0  0  0  0  0  2  0  0  0  0  0  0
  189.3320  173.2290  137.1100 N   0  0  0  0  0  0  0  0  0  0  0  0
  187.4400  177.8170  139.7300 C   0  0  0  0  0  0  0  0  0  0  0  0
  185.3730  178.9740  139.3930 N   0  0  0  0  0  0  0  0  0  0  0  0
  191.0880  177.3430  138.8930 C   0  0  2  0  0  3  0  0  0  0  0  0
  191.8210  177.1290  146.1330 O   0  0  0  0  0  1  0  0  0  0  0  0
  191.5950  177.0660  143.7280 C   0  0  0  0  0  0  0  0  0  0  0  0
  191.8160  175.8240  143.7080 O   0  0  0  0  0  0  0  0  0  0  0  0
  191.5900  177.7730  144.9650 N   0  0  0  0  0  2  0  0  0  0  0  0
  1  3  2  0  0  0  0
  1  4  1  0  0  0  0
  2 17  1  0  0  0  0
  3 22  1  0  0  0  0
  4 21  2  0  0  0  0
  5  8  1  0  0  0  0
  6 19  1  1  0  0  0
  6 14  1  0  0  0  0
  8 10  1  0  0  0  0
  9 17  1  1  0  0  0
  9  7  1  0  0  0  0
  9  4  1  0  0  0  0
 10 13  1  6  0  0  0
 10 23  1  0  0  0  0
 11 25  1  1  0  0  0
 12 20  1  0  0  0  0
 12  2  2  0  0  0  0
 14 11  1  0  0  0  0
 16 11  1  0  0  0  0
 17  8  2  0  0  0  0
 18  6  1  0  0  0  0
 18 16  1  1  0  0  0
 20  5  2  0  0  0  0
 21 15  1  0  0  0  0
 21 19  1  0  0  0  0
 22 15  2  0  0  0  0
 23  7  1  6  0  0  0
 23 18  1  0  0  0  0
 25 27  1  0  0  0  0
 26 25  2  0  0  0  0
 27 24  1  0  0  0  0
M  END
>  <MODEL>
8

>  <REMARK>
 VINA RESULT:      -5.5      5.396      8.318
  Name = 
  1 active torsions:
  status: ('A' for Active; 'I' for Inactive)
    1  A    between atoms: C_9  and  C_13
                            x       y       z     vdW  Elec       q    Type
                         _______ _______ _______ _____ _____    ______ ____

>  <TORSDO>
F 1

$$$$
=
 OpenBabel10222420173D

 27 31  0  0  1  0  0  0  0  0999 V2000
  183.2740  179.3010  138.1430 C   0  0  0  0  0  3  0  0  0  0  0  0
  184.4210  175.9610  137.3000 C   0  0  0  0  0  3  0  0  0  0  0  0
  182.2820  179.7290  139.0250 C   0  0  0  0  0  3  0  0  0  0  0  0
  184.4210  178.6740  138.6370 C   0  0  0  0  0  0  0  0  0  0  0  0
  186.9100  174.8150  136.8660 C   0  0  0  0  0  3  0  0  0  0  0  0
  186.9340  178.6190  140.4230 N   0  0  1  0  0  0  0  0  0  0  0  0
  186.6710  178.9960  137.7540 O   0  0  0  0  0  0  0  0  0  0  0  0
  186.8220  176.1800  137.1520 C   0  0  0  0  0  0  0  0  0  0  0  0
  185.4640  178.2460  137.6420 C   0  0  1  0  0  3  0  0  0  0  0  0
  188.0490  177.0270  137.2080 C   0  0  1  0  0  3  0  0  0  0  0  0
  189.0830  178.6320  141.4760 C   0  0  2  0  0  3  0  0  0  0  0  0
  184.5500  174.6000  137.0130 C   0  0  0  0  0  3  0  0  0  0  0  0
  188.4270  177.5060  135.8170 C   0  0  0  0  0  1  0  0  0  0  0  0
  187.5930  178.7500  141.7130 C   0  0  0  0  0  2  0  0  0  0  0  0
  183.5360  178.9340  140.8750 C   0  0  0  0  0  3  0  0  0  0  0  0
  189.2250  177.9040  140.1610 C   0  0  0  0  0  2  0  0  0  0  0  0
  185.5690  176.7580  137.3840 C   0  0  0  0  0  0  0  0  0  0  0  0
  187.8180  177.8000  139.6060 C   0  0  2  0  0  3  0  0  0  0  0  0
  185.7390  177.8210  140.6420 C   0  0  0  0  0  2  0  0  0  0  0  0
  185.7810  174.0590  136.8070 N   0  0  0  0  0  0  0  0  0  0  0  0
  184.5540  178.4860  140.0290 C   0  0  0  0  0  0  0  0  0  0  0  0
  182.4320  179.5390  140.3620 N   0  0  0  0  0  0  0  0  0  0  0  0
  187.8040  178.2230  138.1300 C   0  0  2  0  0  3  0  0  0  0  0  0
  190.7860  175.8290  143.3320 O   0  0  0  0  0  1  0  0  0  0  0  0
  189.7420  177.8760  142.5840 C   0  0  0  0  0  0  0  0  0  0  0  0
  189.9070  178.4110  143.7150 O   0  0  0  0  0  0  0  0  0  0  0  0
  190.1850  176.5420  142.3510 N   0  0  0  0  0  2  0  0  0  0  0  0
  1  4  2  0  0  0  0
  1  3  1  0  0  0  0
  2 17  1  0  0  0  0
  3 22  2  0  0  0  0
  4 21  1  0  0  0  0
  5  8  1  0  0  0  0
  6 19  1  1  0  0  0
  6 14  1  0  0  0  0
  8 10  1  0  0  0  0
  8 17  2  0  0  0  0
  9 17  1  1  0  0  0
  9  7  1  0  0  0  0
  9  4  1  0  0  0  0
 10 13  1  6  0  0  0
 10 23  1  0  0  0  0
 11 14  1  0  0  0  0
 11 25  1  1  0  0  0
 12  2  2  0  0  0  0
 16 11  1  0  0  0  0
 18 16  1  1  0  0  0
 18  6  1  0  0  0  0
 20  5  2  0  0  0  0
 20 12  1  0  0  0  0
 21 19  1  0  0  0  0
 21 15  2  0  0  0  0
 22 15  1  0  0  0  0
 23  7  1  6  0  0  0
 23 18  1  0  0  0  0
 25 26  2  0  0  0  0
 27 25  1  0  0  0  0
 27 24  1  0  0  0  0
M  END
>  <MODEL>
9

>  <REMARK>
 VINA RESULT:      -5.0      3.488      6.218
  Name = 
  1 active torsions:
  status: ('A' for Active; 'I' for Inactive)
    1  A    between atoms: C_9  and  C_13
                            x       y       z     vdW  Elec       q    Type
                         _______ _______ _______ _____ _____    ______ ____

>  <TORSDO>
F 1

$$$$
