=
 OpenBabel10222421023D

 38 42  0  0  1  0  0  0  0  0999 V2000
  191.6730  176.8900  138.5920 C   0  0  0  0  0  0  0  0  0  0  0  0
  190.8950  177.4010  139.6650 N   0  0  0  0  0  0  0  0  0  0  0  0
  187.4220  178.4080  136.5920 C   0  0  0  0  0  3  0  0  0  0  0  0
  189.0920  176.6750  136.3320 C   0  0  0  0  0  0  0  0  0  0  0  0
  186.9020  178.0770  135.3420 C   0  0  0  0  0  3  0  0  0  0  0  0
  188.5180  177.7180  137.1230 C   0  0  0  0  0  0  0  0  0  0  0  0
  190.3040  175.9310  136.6520 C   0  0  0  0  0  3  0  0  0  0  0  0
  188.5210  176.3730  135.0900 C   0  0  0  0  0  3  0  0  0  0  0  0
  189.6620  177.8370  139.6620 C   0  0  0  0  0  0  0  0  0  0  0  0
  187.4510  177.0670  134.6250 N   0  0  0  0  0  0  0  0  0  0  0  0
  191.0630  176.3630  137.5920 C   0  0  0  0  0  0  0  0  0  0  0  0
  188.8550  178.0890  138.4840 N   0  0  0  0  0  2  0  0  0  0  0  0
  187.5780  178.5050  140.9100 C   0  0  0  0  0  1  0  0  0  0  0  0
  189.1030  178.3520  140.9520 C   0  0  1  0  0  3  0  0  0  0  0  0
  189.6060  177.5820  142.1010 N   0  0  0  0  0  0  0  0  0  0  0  0
  188.7580  177.1930  144.3050 C   0  0  2  0  0  3  0  0  0  0  0  0
  189.2010  178.2580  143.3290 C   0  0  0  0  0  2  0  0  0  0  0  0
  189.0470  176.2250  142.1400 C   0  0  0  0  0  2  0  0  0  0  0  0
  188.2860  176.0540  143.4380 C   0  0  0  0  0  2  0  0  0  0  0  0
  185.6190  178.5900  146.8890 C   0  0  0  0  0  3  0  0  0  0  0  0
  186.4260  177.9940  144.6840 C   0  0  0  0  0  3  0  0  0  0  0  0
  187.9020  177.8370  146.5990 C   0  0  0  0  0  3  0  0  0  0  0  0
  187.6830  177.6890  145.2190 C   0  0  0  0  0  0  0  0  0  0  0  0
  185.3960  178.4450  145.5160 C   0  0  0  0  0  3  0  0  0  0  0  0
  186.8710  178.2860  147.4300 C   0  0  0  0  0  3  0  0  0  0  0  0
  193.1210  176.6120  138.8040 C   0  0  0  0  0  2  0  0  0  0  0  0
  193.5270  175.4690  138.0010 N   0  0  0  0  0  2  0  0  0  0  0  0
  195.1130  173.6630  137.4060 N   0  0  0  0  0  0  0  0  0  0  0  0
  195.4700  175.0810  139.2300 O   0  0  0  0  0  0  0  0  0  0  0  0
  194.3250  173.3490  136.2880 N   0  0  0  0  0  1  0  0  0  0  0  0
  194.7370  174.7530  138.2580 C   0  0  0  0  0  0  0  0  0  0  0  0
  196.3550  172.9340  137.6480 C   0  0  1  0  0  3  0  0  0  0  0  0
  196.0980  171.4360  137.6280 C   0  0  0  0  0  1  0  0  0  0  0  0
  197.4010  173.3240  136.6110 C   0  0  0  0  0  2  0  0  0  0  0  0
  198.2460  174.4980  137.0840 C   0  0  0  0  0  0  0  0  0  0  0  0
  197.7820  175.7190  136.6630 O   0  0  0  0  0  0  0  0  0  0  0  0
  198.8830  175.1980  136.0890 O   0  0  0  0  0  0  0  0  0  0  0  0
  198.9360  174.5320  138.4340 C   0  0  0  0  0  1  0  0  0  0  0  0
  1 26  1  0  0  0  0
  1  2  1  0  0  0  0
  3  6  1  0  0  0  0
  4  7  1  0  0  0  0
  4  6  2  0  0  0  0
  5  3  2  0  0  0  0
  6 12  1  0  0  0  0
  7 11  2  0  0  0  0
  8  4  1  0  0  0  0
  9  2  2  0  0  0  0
  9 14  1  0  0  0  0
 10  8  2  0  0  0  0
 10  5  1  0  0  0  0
 11  1  2  0  0  0  0
 12  9  1  0  0  0  0
 14 13  1  6  0  0  0
 14 15  1  0  0  0  0
 15 18  1  0  0  0  0
 15 17  1  0  0  0  0
 16 23  1  6  0  0  0
 17 16  1  0  0  0  0
 18 19  1  0  0  0  0
 19 16  1  0  0  0  0
 20 25  1  0  0  0  0
 21 23  2  0  0  0  0
 21 24  1  0  0  0  0
 22 25  2  0  0  0  0
 23 22  1  0  0  0  0
 24 20  2  0  0  0  0
 27 31  1  0  0  0  0
 27 26  1  0  0  0  0
 28 32  1  0  0  0  0
 28 31  1  0  0  0  0
 30 28  1  0  0  0  0
 31 29  2  0  0  0  0
 32 33  1  6  0  0  0
 34 35  1  0  0  0  0
 34 32  1  0  0  0  0
 35 38  1  0  0  0  0
 36 35  1  0  0  0  0
 37 36  1  0  0  0  0
 37 35  1  0  0  0  0
M  END
>  <MODEL>
1

>  <REMARK>
 VINA RESULT:      -8.9      0.000      0.000
  Name = 
  8 active torsions:
  status: ('A' for Active; 'I' for Inactive)
    1  A    between atoms: N_1  and  C_9
    2  A    between atoms: C_3  and  C_19
    3  A    between atoms: N_4  and  C_19
    4  A    between atoms: N_5  and  C_10
    5  A    between atoms: C_7  and  C_33
    6  A    between atoms: C_9  and  C_29
    7  A    between atoms: C_10  and  C_33
    8  A    between atoms: C_12  and  C_28
                            x       y       z     vdW  Elec       q    Type
                         _______ _______ _______ _____ _____    ______ ____

>  <TORSDO>
F 8

$$$$
=
 OpenBabel10222421023D

 38 42  0  0  1  0  0  0  0  0999 V2000
  187.1880  178.0220  137.5750 C   0  0  0  0  0  0  0  0  0  0  0  0
  187.5620  178.3830  138.8980 N   0  0  0  0  0  0  0  0  0  0  0  0
  191.4450  175.6880  138.4770 C   0  0  0  0  0  3  0  0  0  0  0  0
  190.2490  176.7510  136.6610 C   0  0  0  0  0  0  0  0  0  0  0  0
  192.3160  175.1150  137.5520 C   0  0  0  0  0  3  0  0  0  0  0  0
  190.4000  176.5220  138.0640 C   0  0  0  0  0  0  0  0  0  0  0  0
  189.1560  177.4800  136.0290 C   0  0  0  0  0  3  0  0  0  0  0  0
  191.1590  176.1620  135.7750 C   0  0  0  0  0  3  0  0  0  0  0  0
  188.6520  178.0950  139.5600 C   0  0  0  0  0  0  0  0  0  0  0  0
  192.1630  175.3690  136.2290 N   0  0  0  0  0  0  0  0  0  0  0  0
  188.1180  177.7630  136.7270 C   0  0  0  0  0  0  0  0  0  0  0  0
  189.6680  177.1460  139.1490 N   0  0  0  0  0  2  0  0  0  0  0  0
  187.3940  178.8960  141.5900 C   0  0  0  0  0  1  0  0  0  0  0  0
  188.7620  178.5920  140.9680 C   0  0  1  0  0  3  0  0  0  0  0  0
  189.6190  177.7150  141.7820 N   0  0  0  0  0  0  0  0  0  0  0  0
  189.5620  177.0500  144.0800 C   0  0  2  0  0  3  0  0  0  0  0  0
  189.6550  178.2330  143.1460 C   0  0  0  0  0  2  0  0  0  0  0  0
  189.0970  176.3440  141.8470 C   0  0  0  0  0  2  0  0  0  0  0  0
  188.8190  176.0010  143.2960 C   0  0  0  0  0  2  0  0  0  0  0  0
  187.4870  178.0410  147.7140 C   0  0  0  0  0  3  0  0  0  0  0  0
  187.5130  177.7750  145.3060 C   0  0  0  0  0  3  0  0  0  0  0  0
  189.5200  177.3520  146.5940 C   0  0  0  0  0  3  0  0  0  0  0  0
  188.8610  177.4030  145.3550 C   0  0  0  0  0  0  0  0  0  0  0  0
  186.8270  178.0940  146.4820 C   0  0  0  0  0  3  0  0  0  0  0  0
  188.8330  177.6700  147.7700 C   0  0  0  0  0  3  0  0  0  0  0  0
  185.8120  178.3240  137.0930 C   0  0  0  0  0  2  0  0  0  0  0  0
  184.8340  177.8300  138.0510 N   0  0  0  0  0  2  0  0  0  0  0  0
  183.2590  178.1490  139.9340 N   0  0  0  0  0  0  0  0  0  0  0  0
  184.4110  179.9350  138.9610 O   0  0  0  0  0  0  0  0  0  0  0  0
  183.0580  176.7620  139.9920 N   0  0  0  0  0  1  0  0  0  0  0  0
  184.1790  178.6960  138.9800 C   0  0  0  0  0  0  0  0  0  0  0  0
  182.5960  179.0200  140.9000 C   0  0  1  0  0  3  0  0  0  0  0  0
  181.2750  179.5210  140.3380 C   0  0  0  0  0  1  0  0  0  0  0  0
  182.3840  178.2780  142.2150 C   0  0  0  0  0  2  0  0  0  0  0  0
  183.4190  178.6790  143.2550 C   0  0  0  0  0  0  0  0  0  0  0  0
  184.4840  179.3730  142.7380 O   0  0  0  0  0  0  0  0  0  0  0  0
  184.6510  178.0900  143.1120 O   0  0  0  0  0  0  0  0  0  0  0  0
  183.0590  179.0720  144.6750 C   0  0  0  0  0  1  0  0  0  0  0  0
  1  2  1  0  0  0  0
  2  9  2  0  0  0  0
  4  6  2  0  0  0  0
  5  3  2  0  0  0  0
  6  3  1  0  0  0  0
  6 12  1  0  0  0  0
  7  4  1  0  0  0  0
  7 11  2  0  0  0  0
  8 10  2  0  0  0  0
  8  4  1  0  0  0  0
  9 14  1  0  0  0  0
 10  5  1  0  0  0  0
 11  1  2  0  0  0  0
 12  9  1  0  0  0  0
 14 13  1  1  0  0  0
 14 15  1  0  0  0  0
 15 18  1  0  0  0  0
 15 17  1  0  0  0  0
 16 23  1  1  0  0  0
 17 16  1  0  0  0  0
 18 19  1  0  0  0  0
 19 16  1  0  0  0  0
 20 25  1  0  0  0  0
 21 23  2  0  0  0  0
 21 24  1  0  0  0  0
 22 25  2  0  0  0  0
 23 22  1  0  0  0  0
 24 20  2  0  0  0  0
 26  1  1  0  0  0  0
 26 27  1  0  0  0  0
 27 31  1  0  0  0  0
 28 30  1  0  0  0  0
 28 32  1  0  0  0  0
 29 31  2  0  0  0  0
 31 28  1  0  0  0  0
 32 33  1  6  0  0  0
 32 34  1  0  0  0  0
 34 35  1  0  0  0  0
 35 38  1  0  0  0  0
 36 37  1  0  0  0  0
 36 35  1  0  0  0  0
 37 35  1  0  0  0  0
M  END
>  <MODEL>
2

>  <REMARK>
 VINA RESULT:      -8.9      4.660      8.591
  Name = 
  8 active torsions:
  status: ('A' for Active; 'I' for Inactive)
    1  A    between atoms: N_1  and  C_9
    2  A    between atoms: C_3  and  C_19
    3  A    between atoms: N_4  and  C_19
    4  A    between atoms: N_5  and  C_10
    5  A    between atoms: C_7  and  C_33
    6  A    between atoms: C_9  and  C_29
    7  A    between atoms: C_10  and  C_33
    8  A    between atoms: C_12  and  C_28
                            x       y       z     vdW  Elec       q    Type
                         _______ _______ _______ _____ _____    ______ ____

>  <TORSDO>
F 8

$$$$
=
 OpenBabel10222421023D

 38 42  0  0  1  0  0  0  0  0999 V2000
  187.9380  178.5790  137.9330 C   0  0  0  0  0  0  0  0  0  0  0  0
  188.1980  178.5380  139.3290 N   0  0  0  0  0  0  0  0  0  0  0  0
  183.5430  178.9480  140.1510 C   0  0  0  0  0  3  0  0  0  0  0  0
  184.5580  178.0000  138.1690 C   0  0  0  0  0  0  0  0  0  0  0  0
  182.2840  178.7460  139.5880 C   0  0  0  0  0  3  0  0  0  0  0  0
  184.7060  178.5770  139.4680 C   0  0  0  0  0  0  0  0  0  0  0  0
  185.6430  177.6670  137.2550 C   0  0  0  0  0  3  0  0  0  0  0  0
  183.2700  177.8050  137.6550 C   0  0  0  0  0  3  0  0  0  0  0  0
  187.3560  178.5120  140.3300 C   0  0  0  0  0  0  0  0  0  0  0  0
  182.1720  178.1740  138.3640 N   0  0  0  0  0  0  0  0  0  0  0  0
  186.8200  178.1120  137.5060 C   0  0  0  0  0  0  0  0  0  0  0  0
  185.9260  178.7270  140.2390 N   0  0  0  0  0  2  0  0  0  0  0  0
  186.9780  177.8480  142.7300 C   0  0  0  0  0  1  0  0  0  0  0  0
  187.9230  178.5020  141.7150 C   0  0  1  0  0  3  0  0  0  0  0  0
  189.2950  177.9680  141.7300 N   0  0  0  0  0  0  0  0  0  0  0  0
  190.6890  177.0920  143.4670 C   0  0  2  0  0  3  0  0  0  0  0  0
  189.9130  178.3040  143.0090 C   0  0  0  0  0  2  0  0  0  0  0  0
  189.3170  176.5060  141.6020 C   0  0  0  0  0  2  0  0  0  0  0  0
  189.9820  175.9230  142.8310 C   0  0  0  0  0  2  0  0  0  0  0  0
  190.7180  176.7860  147.7560 C   0  0  0  0  0  3  0  0  0  0  0  0
  189.6700  177.5310  145.7020 C   0  0  0  0  0  3  0  0  0  0  0  0
  191.7770  176.3380  145.6260 C   0  0  0  0  0  3  0  0  0  0  0  0
  190.7240  176.9860  144.9590 C   0  0  0  0  0  0  0  0  0  0  0  0
  189.6670  177.4330  147.0970 C   0  0  0  0  0  3  0  0  0  0  0  0
  191.7720  176.2390  147.0200 C   0  0  0  0  0  3  0  0  0  0  0  0
  189.0670  178.7770  136.9820 C   0  0  0  0  0  2  0  0  0  0  0  0
  189.3720  177.5240  136.3090 N   0  0  0  0  0  2  0  0  0  0  0  0
  190.7160  175.4650  136.0180 N   0  0  0  0  0  0  0  0  0  0  0  0
  191.1050  176.9670  137.7670 O   0  0  0  0  0  0  0  0  0  0  0  0
  190.0030  175.1730  134.8460 N   0  0  0  0  0  1  0  0  0  0  0  0
  190.4280  176.6660  136.7460 C   0  0  0  0  0  0  0  0  0  0  0  0
  191.8040  174.5890  136.4430 C   0  0  1  0  0  3  0  0  0  0  0  0
  191.4450  173.1360  136.1770 C   0  0  0  0  0  1  0  0  0  0  0  0
  193.0950  174.9730  135.7300 C   0  0  0  0  0  2  0  0  0  0  0  0
  194.1530  175.4560  136.7110 C   0  0  0  0  0  0  0  0  0  0  0  0
  194.2350  176.8230  136.8090 O   0  0  0  0  0  0  0  0  0  0  0  0
  195.1970  176.1500  136.1510 O   0  0  0  0  0  0  0  0  0  0  0  0
  194.4860  174.7250  137.9980 C   0  0  0  0  0  1  0  0  0  0  0  0
  1  2  1  0  0  0  0
  2  9  2  0  0  0  0
  4  6  1  0  0  0  0
  5  3  1  0  0  0  0
  6  3  2  0  0  0  0
  6 12  1  0  0  0  0
  7 11  2  0  0  0  0
  7  4  1  0  0  0  0
  8  4  2  0  0  0  0
  8 10  1  0  0  0  0
  9 14  1  0  0  0  0
 10  5  2  0  0  0  0
 11  1  2  0  0  0  0
 12  9  1  0  0  0  0
 14 15  1  0  0  0  0
 14 13  1  1  0  0  0
 15 17  1  0  0  0  0
 16 23  1  1  0  0  0
 17 16  1  0  0  0  0
 18 15  1  0  0  0  0
 18 19  1  0  0  0  0
 19 16  1  0  0  0  0
 21 24  2  0  0  0  0
 22 25  1  0  0  0  0
 23 22  2  0  0  0  0
 23 21  1  0  0  0  0
 24 20  1  0  0  0  0
 25 20  2  0  0  0  0
 26  1  1  0  0  0  0
 27 31  1  0  0  0  0
 27 26  1  0  0  0  0
 28 32  1  0  0  0  0
 28 31  1  0  0  0  0
 30 28  1  0  0  0  0
 31 29  2  0  0  0  0
 32 33  1  6  0  0  0
 34 32  1  0  0  0  0
 34 35  1  0  0  0  0
 35 36  1  0  0  0  0
 35 38  1  0  0  0  0
 37 35  1  0  0  0  0
 37 36  1  0  0  0  0
M  END
>  <MODEL>
3

>  <REMARK>
 VINA RESULT:      -8.8      2.855      4.309
  Name = 
  8 active torsions:
  status: ('A' for Active; 'I' for Inactive)
    1  A    between atoms: N_1  and  C_9
    2  A    between atoms: C_3  and  C_19
    3  A    between atoms: N_4  and  C_19
    4  A    between atoms: N_5  and  C_10
    5  A    between atoms: C_7  and  C_33
    6  A    between atoms: C_9  and  C_29
    7  A    between atoms: C_10  and  C_33
    8  A    between atoms: C_12  and  C_28
                            x       y       z     vdW  Elec       q    Type
                         _______ _______ _______ _____ _____    ______ ____

>  <TORSDO>
F 8

$$$$
=
 OpenBabel10222421023D

 38 42  0  0  1  0  0  0  0  0999 V2000
  184.9350  178.5010  139.1060 C   0  0  0  0  0  0  0  0  0  0  0  0
  185.3130  178.7300  140.4570 N   0  0  0  0  0  0  0  0  0  0  0  0
  180.7500  178.4220  141.7250 C   0  0  0  0  0  3  0  0  0  0  0  0
  181.7640  177.3670  139.7960 C   0  0  0  0  0  0  0  0  0  0  0  0
  179.5130  177.9080  141.3400 C   0  0  0  0  0  3  0  0  0  0  0  0
  181.9040  178.1610  140.9760 C   0  0  0  0  0  0  0  0  0  0  0  0
  182.8150  177.0940  138.8230 C   0  0  0  0  0  3  0  0  0  0  0  0
  180.5010  176.8650  139.4620 C   0  0  0  0  0  3  0  0  0  0  0  0
  184.5780  178.7140  141.5380 C   0  0  0  0  0  0  0  0  0  0  0  0
  179.4150  177.1380  140.2290 N   0  0  0  0  0  0  0  0  0  0  0  0
  183.8980  177.7780  138.8770 C   0  0  0  0  0  0  0  0  0  0  0  0
  183.1300  178.6500  141.5780 N   0  0  0  0  0  2  0  0  0  0  0  0
  184.4220  179.9810  143.7100 C   0  0  0  0  0  1  0  0  0  0  0  0
  185.2480  179.0270  142.8400 C   0  0  1  0  0  3  0  0  0  0  0  0
  185.6850  177.8010  143.5270 N   0  0  0  0  0  0  0  0  0  0  0  0
  187.7920  177.0830  144.4060 C   0  0  2  0  0  3  0  0  0  0  0  0
  187.0690  177.5250  143.1550 C   0  0  0  0  0  2  0  0  0  0  0  0
  185.6430  177.9450  144.9880 C   0  0  0  0  0  2  0  0  0  0  0  0
  187.0400  177.7380  145.5350 C   0  0  0  0  0  2  0  0  0  0  0  0
  191.9170  178.2950  144.3320 C   0  0  0  0  0  3  0  0  0  0  0  0
  189.6220  178.5810  143.6100 C   0  0  0  0  0  3  0  0  0  0  0  0
  190.2000  176.7880  145.1340 C   0  0  0  0  0  3  0  0  0  0  0  0
  189.2350  177.4810  144.3840 C   0  0  0  0  0  0  0  0  0  0  0  0
  190.9600  178.9870  143.5830 C   0  0  0  0  0  3  0  0  0  0  0  0
  191.5370  177.1960  145.1070 C   0  0  0  0  0  3  0  0  0  0  0  0
  185.9220  178.7450  138.0180 C   0  0  0  0  0  2  0  0  0  0  0  0
  186.9230  177.6890  138.0130 N   0  0  0  0  0  2  0  0  0  0  0  0
  189.1690  176.7980  138.5530 N   0  0  0  0  0  0  0  0  0  0  0  0
  188.4790  178.9260  139.2320 O   0  0  0  0  0  0  0  0  0  0  0  0
  188.8760  175.6370  137.8210 N   0  0  0  0  0  1  0  0  0  0  0  0
  188.2020  177.8540  138.6270 C   0  0  0  0  0  0  0  0  0  0  0  0
  190.4860  176.9610  139.1610 C   0  0  1  0  0  3  0  0  0  0  0  0
  190.4420  176.5600  140.6270 C   0  0  0  0  0  1  0  0  0  0  0  0
  191.5200  176.1400  138.3990 C   0  0  0  0  0  2  0  0  0  0  0  0
  192.9350  176.6240  138.6800 C   0  0  0  0  0  0  0  0  0  0  0  0
  193.6530  176.9220  137.5490 O   0  0  0  0  0  0  0  0  0  0  0  0
  193.9360  175.7970  138.2330 O   0  0  0  0  0  0  0  0  0  0  0  0
  193.2960  177.4770  139.8810 C   0  0  0  0  0  1  0  0  0  0  0  0
  1  2  1  0  0  0  0
  2  9  2  0  0  0  0
  4  6  1  0  0  0  0
  5  3  1  0  0  0  0
  6 12  1  0  0  0  0
  6  3  2  0  0  0  0
  7 11  2  0  0  0  0
  7  4  1  0  0  0  0
  8  4  2  0  0  0  0
  8 10  1  0  0  0  0
  9 12  1  0  0  0  0
  9 14  1  0  0  0  0
 10  5  2  0  0  0  0
 11  1  2  0  0  0  0
 14 15  1  0  0  0  0
 14 13  1  1  0  0  0
 15 18  1  0  0  0  0
 16 23  1  6  0  0  0
 16 19  1  0  0  0  0
 17 15  1  0  0  0  0
 17 16  1  0  0  0  0
 18 19  1  0  0  0  0
 20 25  1  0  0  0  0
 21 23  2  0  0  0  0
 23 22  1  0  0  0  0
 24 21  1  0  0  0  0
 24 20  2  0  0  0  0
 25 22  2  0  0  0  0
 26  1  1  0  0  0  0
 27 26  1  0  0  0  0
 27 31  1  0  0  0  0
 28 31  1  0  0  0  0
 28 32  1  0  0  0  0
 30 28  1  0  0  0  0
 31 29  2  0  0  0  0
 32 33  1  1  0  0  0
 34 35  1  0  0  0  0
 34 32  1  0  0  0  0
 35 38  1  0  0  0  0
 36 37  1  0  0  0  0
 36 35  1  0  0  0  0
 37 35  1  0  0  0  0
M  END
>  <MODEL>
4

>  <REMARK>
 VINA RESULT:      -8.7      3.949      6.412
  Name = 
  8 active torsions:
  status: ('A' for Active; 'I' for Inactive)
    1  A    between atoms: N_1  and  C_9
    2  A    between atoms: C_3  and  C_19
    3  A    between atoms: N_4  and  C_19
    4  A    between atoms: N_5  and  C_10
    5  A    between atoms: C_7  and  C_33
    6  A    between atoms: C_9  and  C_29
    7  A    between atoms: C_10  and  C_33
    8  A    between atoms: C_12  and  C_28
                            x       y       z     vdW  Elec       q    Type
                         _______ _______ _______ _____ _____    ______ ____

>  <TORSDO>
F 8

$$$$
=
 OpenBabel10222421023D

 38 42  0  0  1  0  0  0  0  0999 V2000
  186.7140  178.0820  137.6800 C   0  0  0  0  0  0  0  0  0  0  0  0
  185.7180  178.7080  138.4780 N   0  0  0  0  0  0  0  0  0  0  0  0
  182.3860  176.2940  136.1130 C   0  0  0  0  0  3  0  0  0  0  0  0
  184.6850  175.6040  136.4320 C   0  0  0  0  0  0  0  0  0  0  0  0
  182.1630  175.1540  135.3440 C   0  0  0  0  0  3  0  0  0  0  0  0
  183.6400  176.5470  136.6820 C   0  0  0  0  0  0  0  0  0  0  0  0
  186.0790  175.7530  136.8270 C   0  0  0  0  0  3  0  0  0  0  0  0
  184.4040  174.4680  135.6640 C   0  0  0  0  0  3  0  0  0  0  0  0
  184.4270  178.5000  138.5080 C   0  0  0  0  0  0  0  0  0  0  0  0
  183.1670  174.2640  135.1430 N   0  0  0  0  0  0  0  0  0  0  0  0
  186.4860  176.8980  137.2360 C   0  0  0  0  0  0  0  0  0  0  0  0
  183.6760  177.6990  137.5620 N   0  0  0  0  0  2  0  0  0  0  0  0
  182.7280  180.3500  138.6990 C   0  0  0  0  0  1  0  0  0  0  0  0
  183.6100  179.3380  139.4410 C   0  0  1  0  0  3  0  0  0  0  0  0
  182.8900  178.5070  140.4200 N   0  0  0  0  0  0  0  0  0  0  0  0
  183.2230  178.0680  142.7480 C   0  0  2  0  0  3  0  0  0  0  0  0
  183.8540  177.9760  141.3790 C   0  0  0  0  0  2  0  0  0  0  0  0
  181.8990  179.2830  141.1760 C   0  0  0  0  0  2  0  0  0  0  0  0
  182.2530  179.2160  142.6470 C   0  0  0  0  0  2  0  0  0  0  0  0
  186.1170  178.6870  145.8680 C   0  0  0  0  0  3  0  0  0  0  0  0
  183.8370  178.7960  145.0550 C   0  0  0  0  0  3  0  0  0  0  0  0
  185.6030  177.9790  143.6110 C   0  0  0  0  0  3  0  0  0  0  0  0
  184.2480  178.2870  143.8170 C   0  0  0  0  0  0  0  0  0  0  0  0
  184.7690  178.9960  146.0780 C   0  0  0  0  0  3  0  0  0  0  0  0
  186.5330  178.1790  144.6360 C   0  0  0  0  0  3  0  0  0  0  0  0
  188.1060  178.6100  137.6980 C   0  0  0  0  0  2  0  0  0  0  0  0
  188.9340  177.7870  138.5670 N   0  0  0  0  0  2  0  0  0  0  0  0
  189.7890  177.1280  140.7960 N   0  0  0  0  0  0  0  0  0  0  0  0
  188.1420  178.7660  140.5300 O   0  0  0  0  0  0  0  0  0  0  0  0
  190.6950  176.2510  140.1810 N   0  0  0  0  0  1  0  0  0  0  0  0
  188.9180  177.9320  139.9890 C   0  0  0  0  0  0  0  0  0  0  0  0
  189.7950  177.2790  142.2480 C   0  0  1  0  0  3  0  0  0  0  0  0
  188.9500  176.1920  142.8940 C   0  0  0  0  0  1  0  0  0  0  0  0
  191.2260  177.2440  142.7720 C   0  0  0  0  0  2  0  0  0  0  0  0
  191.3360  177.9000  144.1400 C   0  0  0  0  0  0  0  0  0  0  0  0
  190.5920  179.0460  144.2660 O   0  0  0  0  0  0  0  0  0  0  0  0
  191.9300  179.1380  144.1490 O   0  0  0  0  0  0  0  0  0  0  0  0
  191.4780  177.1120  145.4280 C   0  0  0  0  0  1  0  0  0  0  0  0
  1 26  1  0  0  0  0
  1  2  1  0  0  0  0
  2  9  2  0  0  0  0
  3  6  1  0  0  0  0
  4  6  2  0  0  0  0
  4  7  1  0  0  0  0
  5  3  2  0  0  0  0
  6 12  1  0  0  0  0
  7 11  2  0  0  0  0
  8  4  1  0  0  0  0
  9 14  1  0  0  0  0
 10  5  1  0  0  0  0
 10  8  2  0  0  0  0
 11  1  2  0  0  0  0
 12  9  1  0  0  0  0
 14 13  1  6  0  0  0
 14 15  1  0  0  0  0
 15 18  1  0  0  0  0
 15 17  1  0  0  0  0
 16 23  1  1  0  0  0
 17 16  1  0  0  0  0
 18 19  1  0  0  0  0
 19 16  1  0  0  0  0
 20 24  1  0  0  0  0
 21 24  2  0  0  0  0
 22 23  2  0  0  0  0
 22 25  1  0  0  0  0
 23 21  1  0  0  0  0
 25 20  2  0  0  0  0
 26 27  1  0  0  0  0
 27 31  1  0  0  0  0
 28 32  1  0  0  0  0
 30 28  1  0  0  0  0
 31 29  2  0  0  0  0
 31 28  1  0  0  0  0
 32 34  1  0  0  0  0
 32 33  1  1  0  0  0
 34 35  1  0  0  0  0
 35 37  1  0  0  0  0
 35 36  1  0  0  0  0
 35 38  1  0  0  0  0
 37 36  1  0  0  0  0
M  END
>  <MODEL>
5

>  <REMARK>
 VINA RESULT:      -8.6      5.009      6.589
  Name = 
  8 active torsions:
  status: ('A' for Active; 'I' for Inactive)
    1  A    between atoms: N_1  and  C_9
    2  A    between atoms: C_3  and  C_19
    3  A    between atoms: N_4  and  C_19
    4  A    between atoms: N_5  and  C_10
    5  A    between atoms: C_7  and  C_33
    6  A    between atoms: C_9  and  C_29
    7  A    between atoms: C_10  and  C_33
    8  A    between atoms: C_12  and  C_28
                            x       y       z     vdW  Elec       q    Type
                         _______ _______ _______ _____ _____    ______ ____

>  <TORSDO>
F 8

$$$$
=
 OpenBabel10222421023D

 38 42  0  0  1  0  0  0  0  0999 V2000
  184.2830  178.0770  138.9830 C   0  0  0  0  0  0  0  0  0  0  0  0
  184.9680  178.2760  140.2130 N   0  0  0  0  0  0  0  0  0  0  0  0
  180.7870  178.8420  142.3850 C   0  0  0  0  0  3  0  0  0  0  0  0
  181.1790  177.5620  140.3680 C   0  0  0  0  0  0  0  0  0  0  0  0
  179.4270  178.5510  142.2910 C   0  0  0  0  0  3  0  0  0  0  0  0
  181.6970  178.3540  141.4400 C   0  0  0  0  0  0  0  0  0  0  0  0
  181.9400  177.0720  139.2260 C   0  0  0  0  0  3  0  0  0  0  0  0
  179.8070  177.2880  140.3280 C   0  0  0  0  0  3  0  0  0  0  0  0
  184.4830  178.4270  141.4180 C   0  0  0  0  0  0  0  0  0  0  0  0
  178.9680  177.7780  141.2770 N   0  0  0  0  0  0  0  0  0  0  0  0
  183.1120  177.5490  139.0150 C   0  0  0  0  0  0  0  0  0  0  0  0
  183.0860  178.6290  141.7500 N   0  0  0  0  0  2  0  0  0  0  0  0
  185.8440  180.1280  142.6820 C   0  0  0  0  0  1  0  0  0  0  0  0
  185.4540  178.6530  142.5340 C   0  0  1  0  0  3  0  0  0  0  0  0
  184.9970  178.0160  143.7800 N   0  0  0  0  0  0  0  0  0  0  0  0
  186.0640  177.5740  145.8760 C   0  0  2  0  0  3  0  0  0  0  0  0
  186.1250  177.3180  144.3890 C   0  0  0  0  0  2  0  0  0  0  0  0
  184.5130  179.0020  144.7550 C   0  0  0  0  0  2  0  0  0  0  0  0
  185.3570  178.8980  146.0080 C   0  0  0  0  0  2  0  0  0  0  0  0
  189.9560  177.6260  147.7050 C   0  0  0  0  0  3  0  0  0  0  0  0
  187.5510  177.8770  147.8580 C   0  0  0  0  0  3  0  0  0  0  0  0
  188.5810  177.3340  145.7330 C   0  0  0  0  0  3  0  0  0  0  0  0
  187.4280  177.5990  146.4910 C   0  0  0  0  0  0  0  0  0  0  0  0
  188.8110  177.8920  148.4630 C   0  0  0  0  0  3  0  0  0  0  0  0
  189.8400  177.3480  146.3410 C   0  0  0  0  0  3  0  0  0  0  0  0
  185.0470  178.1040  137.7050 C   0  0  0  0  0  2  0  0  0  0  0  0
  186.4250  178.4920  137.9630 N   0  0  0  0  0  2  0  0  0  0  0  0
  188.7660  177.9750  138.5840 N   0  0  0  0  0  0  0  0  0  0  0  0
  187.1500  176.3050  138.3300 O   0  0  0  0  0  0  0  0  0  0  0  0
  189.0550  179.3480  138.6060 N   0  0  0  0  0  1  0  0  0  0  0  0
  187.4340  177.5340  138.2930 C   0  0  0  0  0  0  0  0  0  0  0  0
  189.8010  177.0080  138.9400 C   0  0  1  0  0  3  0  0  0  0  0  0
  190.7130  176.7520  137.7500 C   0  0  0  0  0  1  0  0  0  0  0  0
  190.5950  177.5090  140.1410 C   0  0  0  0  0  2  0  0  0  0  0  0
  189.9180  177.1380  141.4520 C   0  0  0  0  0  0  0  0  0  0  0  0
  188.5480  177.2210  141.4100 O   0  0  0  0  0  0  0  0  0  0  0  0
  189.2460  178.1620  142.0730 O   0  0  0  0  0  0  0  0  0  0  0  0
  190.4430  176.0590  142.3800 C   0  0  0  0  0  1  0  0  0  0  0  0
  1 11  2  0  0  0  0
  1  2  1  0  0  0  0
  2  9  2  0  0  0  0
  4  6  1  0  0  0  0
  5  3  1  0  0  0  0
  6 12  1  0  0  0  0
  6  3  2  0  0  0  0
  7  4  1  0  0  0  0
  8  4  2  0  0  0  0
  8 10  1  0  0  0  0
  9 12  1  0  0  0  0
  9 14  1  0  0  0  0
 10  5  2  0  0  0  0
 11  7  2  0  0  0  0
 14 13  1  1  0  0  0
 14 15  1  0  0  0  0
 15 17  1  0  0  0  0
 15 18  1  0  0  0  0
 16 19  1  0  0  0  0
 16 23  1  6  0  0  0
 17 16  1  0  0  0  0
 18 19  1  0  0  0  0
 20 24  1  0  0  0  0
 21 24  2  0  0  0  0
 22 25  1  0  0  0  0
 22 23  2  0  0  0  0
 23 21  1  0  0  0  0
 25 20  2  0  0  0  0
 26 27  1  0  0  0  0
 26  1  1  0  0  0  0
 27 31  1  0  0  0  0
 28 30  1  0  0  0  0
 28 32  1  0  0  0  0
 31 29  2  0  0  0  0
 31 28  1  0  0  0  0
 32 33  1  6  0  0  0
 32 34  1  0  0  0  0
 34 35  1  0  0  0  0
 35 37  1  0  0  0  0
 35 38  1  0  0  0  0
 36 35  1  0  0  0  0
 36 37  1  0  0  0  0
M  END
>  <MODEL>
6

>  <REMARK>
 VINA RESULT:      -8.4      4.793      7.386
  Name = 
  8 active torsions:
  status: ('A' for Active; 'I' for Inactive)
    1  A    between atoms: N_1  and  C_9
    2  A    between atoms: C_3  and  C_19
    3  A    between atoms: N_4  and  C_19
    4  A    between atoms: N_5  and  C_10
    5  A    between atoms: C_7  and  C_33
    6  A    between atoms: C_9  and  C_29
    7  A    between atoms: C_10  and  C_33
    8  A    between atoms: C_12  and  C_28
                            x       y       z     vdW  Elec       q    Type
                         _______ _______ _______ _____ _____    ______ ____

>  <TORSDO>
F 8

$$$$
=
 OpenBabel10222421023D

 38 42  0  0  1  0  0  0  0  0999 V2000
  184.3840  178.6370  139.7000 C   0  0  0  0  0  0  0  0  0  0  0  0
  184.9460  178.8320  140.9910 N   0  0  0  0  0  0  0  0  0  0  0  0
  180.5650  179.0100  142.8080 C   0  0  0  0  0  3  0  0  0  0  0  0
  181.2210  177.8460  140.7890 C   0  0  0  0  0  0  0  0  0  0  0  0
  179.2440  178.6270  142.5840 C   0  0  0  0  0  3  0  0  0  0  0  0
  181.5860  178.6260  141.9290 C   0  0  0  0  0  0  0  0  0  0  0  0
  182.1100  177.4590  139.7010 C   0  0  0  0  0  3  0  0  0  0  0  0
  179.8810  177.4770  140.6190 C   0  0  0  0  0  3  0  0  0  0  0  0
  184.3510  178.8980  142.1540 C   0  0  0  0  0  0  0  0  0  0  0  0
  178.9310  177.8660  141.5070 N   0  0  0  0  0  0  0  0  0  0  0  0
  183.2570  178.0260  139.6100 C   0  0  0  0  0  0  0  0  0  0  0  0
  182.9200  178.9860  142.3690 N   0  0  0  0  0  2  0  0  0  0  0  0
  184.5520  180.1160  144.3490 C   0  0  0  0  0  1  0  0  0  0  0  0
  185.2040  179.1440  143.3580 C   0  0  1  0  0  3  0  0  0  0  0  0
  185.6640  177.8820  143.9590 N   0  0  0  0  0  0  0  0  0  0  0  0
  187.8360  176.9570  144.3550 C   0  0  2  0  0  3  0  0  0  0  0  0
  186.8950  177.4690  143.2910 C   0  0  0  0  0  2  0  0  0  0  0  0
  185.9690  178.0310  145.3870 C   0  0  0  0  0  2  0  0  0  0  0  0
  187.4270  177.6850  145.6090 C   0  0  0  0  0  2  0  0  0  0  0  0
  191.9590  177.7110  143.3950 C   0  0  0  0  0  3  0  0  0  0  0  0
  189.9220  178.3110  144.5610 C   0  0  0  0  0  3  0  0  0  0  0  0
  189.9690  176.3570  143.1300 C   0  0  0  0  0  3  0  0  0  0  0  0
  189.2670  177.2090  143.9990 C   0  0  0  0  0  0  0  0  0  0  0  0
  191.2640  178.5630  144.2600 C   0  0  0  0  0  3  0  0  0  0  0  0
  191.3110  176.6090  142.8310 C   0  0  0  0  0  3  0  0  0  0  0  0
  185.2500  178.7710  138.4960 C   0  0  0  0  0  2  0  0  0  0  0  0
  186.5780  178.2510  138.7830 N   0  0  0  0  0  2  0  0  0  0  0  0
  188.6370  177.0310  138.1470 N   0  0  0  0  0  0  0  0  0  0  0  0
  186.9070  177.4290  136.6260 O   0  0  0  0  0  0  0  0  0  0  0  0
  189.0950  177.1290  139.4700 N   0  0  0  0  0  1  0  0  0  0  0  0
  187.3540  177.5650  137.7980 C   0  0  0  0  0  0  0  0  0  0  0  0
  189.4310  176.3130  137.1550 C   0  0  1  0  0  3  0  0  0  0  0  0
  190.8850  176.7540  137.2250 C   0  0  0  0  0  1  0  0  0  0  0  0
  189.3040  174.8100  137.3690 C   0  0  0  0  0  2  0  0  0  0  0  0
  188.2400  174.2050  136.4650 C   0  0  0  0  0  0  0  0  0  0  0  0
  187.0300  174.0160  137.0830 O   0  0  0  0  0  0  0  0  0  0  0  0
  187.8120  172.9510  136.8240 O   0  0  0  0  0  0  0  0  0  0  0  0
  188.1350  174.5190  134.9840 C   0  0  0  0  0  1  0  0  0  0  0  0
  1  2  1  0  0  0  0
  2  9  2  0  0  0  0
  4  6  1  0  0  0  0
  5  3  1  0  0  0  0
  6 12  1  0  0  0  0
  6  3  2  0  0  0  0
  7  4  1  0  0  0  0
  8  4  2  0  0  0  0
  8 10  1  0  0  0  0
  9 12  1  0  0  0  0
  9 14  1  0  0  0  0
 10  5  2  0  0  0  0
 11  1  2  0  0  0  0
 11  7  2  0  0  0  0
 14 15  1  0  0  0  0
 14 13  1  1  0  0  0
 15 18  1  0  0  0  0
 16 23  1  6  0  0  0
 16 19  1  0  0  0  0
 17 15  1  0  0  0  0
 17 16  1  0  0  0  0
 18 19  1  0  0  0  0
 20 24  1  0  0  0  0
 22 23  2  0  0  0  0
 23 21  1  0  0  0  0
 24 21  2  0  0  0  0
 25 22  1  0  0  0  0
 25 20  2  0  0  0  0
 26 27  1  0  0  0  0
 26  1  1  0  0  0  0
 28 30  1  0  0  0  0
 29 31  2  0  0  0  0
 31 28  1  0  0  0  0
 31 27  1  0  0  0  0
 32 33  1  1  0  0  0
 32 34  1  0  0  0  0
 32 28  1  0  0  0  0
 35 37  1  0  0  0  0
 35 36  1  0  0  0  0
 35 34  1  0  0  0  0
 37 36  1  0  0  0  0
 38 35  1  0  0  0  0
M  END
>  <MODEL>
7

>  <REMARK>
 VINA RESULT:      -8.4      4.669      7.638
  Name = 
  8 active torsions:
  status: ('A' for Active; 'I' for Inactive)
    1  A    between atoms: N_1  and  C_9
    2  A    between atoms: C_3  and  C_19
    3  A    between atoms: N_4  and  C_19
    4  A    between atoms: N_5  and  C_10
    5  A    between atoms: C_7  and  C_33
    6  A    between atoms: C_9  and  C_29
    7  A    between atoms: C_10  and  C_33
    8  A    between atoms: C_12  and  C_28
                            x       y       z     vdW  Elec       q    Type
                         _______ _______ _______ _____ _____    ______ ____

>  <TORSDO>
F 8

$$$$
=
 OpenBabel10222421023D

 38 42  0  0  1  0  0  0  0  0999 V2000
  187.0680  177.4990  137.6210 C   0  0  0  0  0  0  0  0  0  0  0  0
  187.4250  177.9860  138.9080 N   0  0  0  0  0  0  0  0  0  0  0  0
  191.7300  176.0610  138.3770 C   0  0  0  0  0  3  0  0  0  0  0  0
  190.2700  176.7920  136.5900 C   0  0  0  0  0  0  0  0  0  0  0  0
  192.6520  175.6230  137.4280 C   0  0  0  0  0  3  0  0  0  0  0  0
  190.5270  176.6620  137.9900 C   0  0  0  0  0  0  0  0  0  0  0  0
  189.0300  177.2700  135.9920 C   0  0  0  0  0  3  0  0  0  0  0  0
  191.2350  176.3480  135.6790 C   0  0  0  0  0  3  0  0  0  0  0  0
  188.5790  177.9410  139.5210 C   0  0  0  0  0  0  0  0  0  0  0  0
  192.3920  175.7820  136.1070 N   0  0  0  0  0  0  0  0  0  0  0  0
  187.9900  177.3830  136.7340 C   0  0  0  0  0  0  0  0  0  0  0  0
  189.7390  177.1840  139.0900 N   0  0  0  0  0  2  0  0  0  0  0  0
  187.2790  178.6280  141.5650 C   0  0  0  0  0  1  0  0  0  0  0  0
  188.6560  178.5140  140.9010 C   0  0  1  0  0  3  0  0  0  0  0  0
  189.6680  177.8210  141.7150 N   0  0  0  0  0  0  0  0  0  0  0  0
  189.7560  177.1840  144.0200 C   0  0  2  0  0  3  0  0  0  0  0  0
  189.6190  178.3530  143.0730 C   0  0  0  0  0  2  0  0  0  0  0  0
  189.4120  176.3780  141.7990 C   0  0  0  0  0  2  0  0  0  0  0  0
  189.2140  176.0060  143.2540 C   0  0  0  0  0  2  0  0  0  0  0  0
  187.6760  177.8780  147.7190 C   0  0  0  0  0  3  0  0  0  0  0  0
  189.7210  177.4200  146.5040 C   0  0  0  0  0  3  0  0  0  0  0  0
  187.6250  177.6440  145.3100 C   0  0  0  0  0  3  0  0  0  0  0  0
  189.0120  177.4150  145.2980 C   0  0  0  0  0  0  0  0  0  0  0  0
  189.0550  177.6500  147.7130 C   0  0  0  0  0  3  0  0  0  0  0  0
  186.9610  177.8750  146.5190 C   0  0  0  0  0  3  0  0  0  0  0  0
  185.6380  177.5120  137.2030 C   0  0  0  0  0  2  0  0  0  0  0  0
  184.8060  177.9630  138.3080 N   0  0  0  0  0  2  0  0  0  0  0  0
  182.6180  178.5780  139.2920 N   0  0  0  0  0  0  0  0  0  0  0  0
  182.8140  177.7550  137.1120 O   0  0  0  0  0  0  0  0  0  0  0  0
  183.2710  179.0030  140.4590 N   0  0  0  0  0  1  0  0  0  0  0  0
  183.3860  178.0830  138.1880 C   0  0  0  0  0  0  0  0  0  0  0  0
  181.1700  178.7220  139.1760 C   0  0  1  0  0  3  0  0  0  0  0  0
  180.4690  177.7760  140.1380 C   0  0  0  0  0  1  0  0  0  0  0  0
  180.7640  180.1680  139.4370 C   0  0  0  0  0  2  0  0  0  0  0  0
  180.9810  181.0390  138.2090 C   0  0  0  0  0  0  0  0  0  0  0  0
  182.0080  181.9390  138.3440 O   0  0  0  0  0  0  0  0  0  0  0  0
  180.7360  182.3780  138.3910 O   0  0  0  0  0  0  0  0  0  0  0  0
  180.7820  180.5380  136.7910 C   0  0  0  0  0  1  0  0  0  0  0  0
  1  2  1  0  0  0  0
  2  9  2  0  0  0  0
  4  6  2  0  0  0  0
  5  3  2  0  0  0  0
  6  3  1  0  0  0  0
  6 12  1  0  0  0  0
  7  4  1  0  0  0  0
  7 11  2  0  0  0  0
  8 10  2  0  0  0  0
  8  4  1  0  0  0  0
  9 14  1  0  0  0  0
 10  5  1  0  0  0  0
 11  1  2  0  0  0  0
 12  9  1  0  0  0  0
 14 13  1  1  0  0  0
 14 15  1  0  0  0  0
 15 18  1  0  0  0  0
 15 17  1  0  0  0  0
 16 23  1  1  0  0  0
 17 16  1  0  0  0  0
 18 19  1  0  0  0  0
 19 16  1  0  0  0  0
 21 24  2  0  0  0  0
 22 25  1  0  0  0  0
 23 22  2  0  0  0  0
 23 21  1  0  0  0  0
 24 20  1  0  0  0  0
 25 20  2  0  0  0  0
 26  1  1  0  0  0  0
 26 27  1  0  0  0  0
 28 30  1  0  0  0  0
 29 31  2  0  0  0  0
 31 27  1  0  0  0  0
 31 28  1  0  0  0  0
 32 28  1  0  0  0  0
 32 34  1  0  0  0  0
 32 33  1  1  0  0  0
 35 36  1  0  0  0  0
 35 37  1  0  0  0  0
 35 34  1  0  0  0  0
 36 37  1  0  0  0  0
 38 35  1  0  0  0  0
M  END
>  <MODEL>
8

>  <REMARK>
 VINA RESULT:      -8.3      5.291      9.318
  Name = 
  8 active torsions:
  status: ('A' for Active; 'I' for Inactive)
    1  A    between atoms: N_1  and  C_9
    2  A    between atoms: C_3  and  C_19
    3  A    between atoms: N_4  and  C_19
    4  A    between atoms: N_5  and  C_10
    5  A    between atoms: C_7  and  C_33
    6  A    between atoms: C_9  and  C_29
    7  A    between atoms: C_10  and  C_33
    8  A    between atoms: C_12  and  C_28
                            x       y       z     vdW  Elec       q    Type
                         _______ _______ _______ _____ _____    ______ ____

>  <TORSDO>
F 8

$$$$
=
 OpenBabel10222421023D

 38 42  0  0  1  0  0  0  0  0999 V2000
  188.0660  178.1110  141.8320 C   0  0  0  0  0  0  0  0  0  0  0  0
  186.8810  178.1860  142.6120 N   0  0  0  0  0  0  0  0  0  0  0  0
  189.3520  176.7520  146.4010 C   0  0  0  0  0  3  0  0  0  0  0  0
  190.2450  177.9310  144.4850 C   0  0  0  0  0  0  0  0  0  0  0  0
  190.6350  176.6830  146.9410 C   0  0  0  0  0  3  0  0  0  0  0  0
  189.1190  177.3810  145.1720 C   0  0  0  0  0  0  0  0  0  0  0  0
  190.2270  178.5080  143.1460 C   0  0  0  0  0  3  0  0  0  0  0  0
  191.5100  177.8460  145.0770 C   0  0  0  0  0  3  0  0  0  0  0  0
  186.7210  178.0110  143.8980 C   0  0  0  0  0  0  0  0  0  0  0  0
  191.6800  177.2350  146.2770 N   0  0  0  0  0  0  0  0  0  0  0  0
  189.1930  178.3270  142.4100 C   0  0  0  0  0  0  0  0  0  0  0  0
  187.7180  177.4900  144.8120 N   0  0  0  0  0  2  0  0  0  0  0  0
  185.3200  178.2850  145.9730 C   0  0  0  0  0  1  0  0  0  0  0  0
  185.3340  178.1240  144.4490 C   0  0  1  0  0  3  0  0  0  0  0  0
  184.5490  179.1360  143.7230 N   0  0  0  0  0  0  0  0  0  0  0  0
  182.8650  178.9920  142.0280 C   0  0  2  0  0  3  0  0  0  0  0  0
  184.2960  178.6490  142.3710 C   0  0  0  0  0  2  0  0  0  0  0  0
  183.2460  179.3770  144.3540 C   0  0  0  0  0  2  0  0  0  0  0  0
  182.1560  179.0430  143.3570 C   0  0  0  0  0  2  0  0  0  0  0  0
  181.0670  176.1390  139.3620 C   0  0  0  0  0  3  0  0  0  0  0  0
  180.8650  177.9090  141.0040 C   0  0  0  0  0  3  0  0  0  0  0  0
  183.0560  177.1280  140.3250 C   0  0  0  0  0  3  0  0  0  0  0  0
  182.2590  177.9840  141.1040 C   0  0  0  0  0  0  0  0  0  0  0  0
  180.2700  176.9880  140.1360 C   0  0  0  0  0  3  0  0  0  0  0  0
  182.4590  176.2090  139.4570 C   0  0  0  0  0  3  0  0  0  0  0  0
  187.9720  178.1800  140.3470 C   0  0  0  0  0  2  0  0  0  0  0  0
  189.0090  177.3530  139.7480 N   0  0  0  0  0  2  0  0  0  0  0  0
  189.8890  175.9210  137.9310 N   0  0  0  0  0  0  0  0  0  0  0  0
  187.8160  176.9890  137.7780 O   0  0  0  0  0  0  0  0  0  0  0  0
  191.0120  175.6240  138.7190 N   0  0  0  0  0  1  0  0  0  0  0  0
  188.8570  176.7660  138.4540 C   0  0  0  0  0  0  0  0  0  0  0  0
  189.7390  175.3000  136.6180 C   0  0  1  0  0  3  0  0  0  0  0  0
  190.8620  175.7440  135.6940 C   0  0  0  0  0  1  0  0  0  0  0  0
  189.7100  173.7820  136.7560 C   0  0  0  0  0  2  0  0  0  0  0  0
  188.3300  173.2190  136.4510 C   0  0  0  0  0  0  0  0  0  0  0  0
  187.9190  172.2530  137.3350 O   0  0  0  0  0  0  0  0  0  0  0  0
  188.3050  171.8940  136.0950 O   0  0  0  0  0  0  0  0  0  0  0  0
  187.2000  174.0570  135.8840 C   0  0  0  0  0  1  0  0  0  0  0  0
  1 11  2  0  0  0  0
  1  2  1  0  0  0  0
  2  9  2  0  0  0  0
  3  5  1  0  0  0  0
  4  8  2  0  0  0  0
  4  6  1  0  0  0  0
  6  3  2  0  0  0  0
  7  4  1  0  0  0  0
  8 10  1  0  0  0  0
  9 14  1  0  0  0  0
  9 12  1  0  0  0  0
 10  5  2  0  0  0  0
 11  7  2  0  0  0  0
 12  6  1  0  0  0  0
 14 13  1  1  0  0  0
 15 18  1  0  0  0  0
 15 14  1  0  0  0  0
 16 23  1  6  0  0  0
 16 17  1  0  0  0  0
 16 19  1  0  0  0  0
 17 15  1  0  0  0  0
 19 18  1  0  0  0  0
 20 25  2  0  0  0  0
 20 24  1  0  0  0  0
 21 23  1  0  0  0  0
 22 23  2  0  0  0  0
 24 21  2  0  0  0  0
 25 22  1  0  0  0  0
 26  1  1  0  0  0  0
 27 26  1  0  0  0  0
 28 31  1  0  0  0  0
 28 30  1  0  0  0  0
 29 31  2  0  0  0  0
 31 27  1  0  0  0  0
 32 33  1  6  0  0  0
 32 34  1  0  0  0  0
 32 28  1  0  0  0  0
 35 34  1  0  0  0  0
 35 36  1  0  0  0  0
 37 35  1  0  0  0  0
 37 36  1  0  0  0  0
 38 35  1  0  0  0  0
M  END
>  <MODEL>
9

>  <REMARK>
 VINA RESULT:      -8.2      4.456      7.842
  Name = 
  8 active torsions:
  status: ('A' for Active; 'I' for Inactive)
    1  A    between atoms: N_1  and  C_9
    2  A    between atoms: C_3  and  C_19
    3  A    between atoms: N_4  and  C_19
    4  A    between atoms: N_5  and  C_10
    5  A    between atoms: C_7  and  C_33
    6  A    between atoms: C_9  and  C_29
    7  A    between atoms: C_10  and  C_33
    8  A    between atoms: C_12  and  C_28
                            x       y       z     vdW  Elec       q    Type
                         _______ _______ _______ _____ _____    ______ ____

>  <TORSDO>
F 8

$$$$
