=
 OpenBabel10222418063D

 35 38  0  0  1  0  0  0  0  0999 V2000
  180.0260  177.4470  141.3900 C   0  0  0  0  0  3  0  0  0  0  0  0
  181.6220  179.0100  142.3910 C   0  0  2  0  0  3  0  0  0  0  0  0
  180.9740  178.8320  143.6950 C   0  0  0  0  0  3  0  0  0  0  0  0
  182.0440  178.3720  140.1950 C   0  0  0  0  0  2  0  0  0  0  0  0
  183.1780  178.7180  140.7980 C   0  0  0  0  0  0  0  0  0  0  0  0
  179.5710  177.1980  142.5900 N   0  0  0  0  0  0  0  0  0  0  0  0
  179.9610  177.9600  143.7550 C   0  0  0  0  0  3  0  0  0  0  0  0
  180.9080  178.6400  141.1340 C   0  0  1  0  0  3  0  0  0  0  0  0
  182.9250  179.1150  142.1820 C   0  0  0  0  0  0  0  0  0  0  0  0
  185.5150  178.2540  144.8870 C   0  0  2  0  0  3  0  0  0  0  0  0
  185.2920  178.0990  143.1140 S   0  0  0  0  0  0  0  0  0  0  0  0
  184.4890  178.7950  145.5290 C   0  0  0  0  0  2  0  0  0  0  0  0
  183.3540  179.1730  144.6500 C   0  0  0  0  0  2  0  0  0  0  0  0
  183.9500  179.3170  143.2540 C   0  0  2  0  0  3  0  0  0  0  0  0
  187.8880  177.5100  144.7920 C   0  0  0  0  0  3  0  0  0  0  0  0
  186.7870  177.9150  145.5560 C   0  0  0  0  0  0  0  0  0  0  0  0
  188.1400  177.7060  147.5670 C   0  0  0  0  0  0  0  0  0  0  0  0
  186.9230  178.0100  146.9480 C   0  0  0  0  0  3  0  0  0  0  0  0
  188.2470  177.8000  148.9500 O   0  0  0  0  0  1  0  0  0  0  0  0
  189.1080  177.2120  145.4070 C   0  0  0  0  0  3  0  0  0  0  0  0
  189.2430  177.3120  146.7980 C   0  0  0  0  0  0  0  0  0  0  0  0
  190.4860  177.0050  147.4390 N   0  0  0  0  0  2  0  0  0  0  0  0
  191.6390  176.4830  146.7190 C   0  0  0  0  0  2  0  0  0  0  0  0
  192.4720  175.6250  147.6500 C   0  0  0  0  0  1  0  0  0  0  0  0
  184.4810  178.5720  140.2280 N   0  0  0  0  0  2  0  0  0  0  0  0
  184.7500  178.8320  138.8260 C   0  0  0  0  0  2  0  0  0  0  0  0
  184.9970  177.5210  138.1070 C   0  0  0  0  0  2  0  0  0  0  0  0
  186.0030  177.7380  136.9980 C   0  0  0  0  0  2  0  0  0  0  0  0
  188.1170  178.5160  138.1280 N   0  0  0  0  0  2  0  0  0  0  0  0
  187.3770  177.4690  137.4980 C   0  0  0  0  0  0  0  0  0  0  0  0
  187.8850  176.3280  137.3370 O   0  0  0  0  0  0  0  0  0  0  0  0
  189.4320  178.3020  138.7180 C   0  0  0  0  0  2  0  0  0  0  0  0
  189.2960  177.7770  140.1100 C   0  0  0  0  0  0  0  0  0  0  0  0
  190.1240  176.9000  140.5450 N   0  0  0  0  0  2  0  0  0  0  0  0
  188.3030  178.3780  141.0380 C   0  0  0  0  0  1  0  0  0  0  0  0
  1  6  2  0  0  0  0
  2  3  1  1  0  0  0
  3  7  2  0  0  0  0
  4  5  1  0  0  0  0
  5  9  2  0  0  0  0
  6  7  1  0  0  0  0
  8  4  1  6  0  0  0
  8  1  1  0  0  0  0
  8  2  1  0  0  0  0
  9  2  1  0  0  0  0
 10 12  1  0  0  0  0
 10 16  1  6  0  0  0
 11 14  1  0  0  0  0
 11 10  1  0  0  0  0
 13 12  1  0  0  0  0
 14  9  1  6  0  0  0
 14 13  1  0  0  0  0
 15 20  2  0  0  0  0
 15 16  1  0  0  0  0
 16 18  2  0  0  0  0
 17 19  1  0  0  0  0
 18 17  1  0  0  0  0
 20 21  1  0  0  0  0
 21 22  1  0  0  0  0
 21 17  2  0  0  0  0
 23 22  1  0  0  0  0
 23 24  1  0  0  0  0
 25  5  1  0  0  0  0
 26 25  1  0  0  0  0
 27 26  1  0  0  0  0
 28 30  1  0  0  0  0
 28 27  1  0  0  0  0
 29 32  1  0  0  0  0
 30 29  1  0  0  0  0
 31 30  2  0  0  0  0
 32 33  1  0  0  0  0
 33 34  2  0  0  0  0
 33 35  1  0  0  0  0
M  END
>  <MODEL>
1

>  <REMARK>
 VINA RESULT:      -8.7      0.000      0.000
  Name = 
  11 active torsions:
  status: ('A' for Active; 'I' for Inactive)
    1  A    between atoms: C_3  and  C_8
    2  A    between atoms: C_4  and  N_9
    3  A    between atoms: N_6  and  C_26
    4  A    between atoms: C_7  and  C_30
    5  A    between atoms: N_9  and  C_25
    6  A    between atoms: C_12  and  C_17
    7  A    between atoms: C_12  and  N_19
    8  A    between atoms: C_14  and  C_26
    9  A    between atoms: C_17  and  C_30
   10  A    between atoms: N_19  and  C_27
   11  A    between atoms: C_32  and  C_35
                            x       y       z     vdW  Elec       q    Type
                         _______ _______ _______ _____ _____    ______ ____

>  <TORSDO>
F 11

$$$$
=
 OpenBabel10222418063D

 35 38  0  0  1  0  0  0  0  0999 V2000
  189.9600  176.8790  147.3840 C   0  0  0  0  0  3  0  0  0  0  0  0
  189.7950  177.5770  145.0440 C   0  0  2  0  0  3  0  0  0  0  0  0
  191.1190  177.0020  144.7820 C   0  0  0  0  0  3  0  0  0  0  0  0
  187.8750  177.8300  146.3310 C   0  0  0  0  0  2  0  0  0  0  0  0
  187.5520  177.6860  145.0490 C   0  0  0  0  0  0  0  0  0  0  0  0
  191.0630  176.2480  147.0810 N   0  0  0  0  0  0  0  0  0  0  0  0
  191.7230  176.3820  145.8020 C   0  0  0  0  0  3  0  0  0  0  0  0
  189.3680  177.8910  146.4390 C   0  0  1  0  0  3  0  0  0  0  0  0
  188.7520  177.5210  144.2310 C   0  0  0  0  0  0  0  0  0  0  0  0
  189.9130  177.3070  140.5740 C   0  0  2  0  0  3  0  0  0  0  0  0
  190.5220  176.9420  142.2210 S   0  0  0  0  0  0  0  0  0  0  0  0
  188.7060  177.8540  140.5380 C   0  0  0  0  0  2  0  0  0  0  0  0
  188.0900  178.0540  141.8740 C   0  0  0  0  0  2  0  0  0  0  0  0
  188.8040  177.0770  142.8010 C   0  0  2  0  0  3  0  0  0  0  0  0
  189.9600  176.7450  138.1500 C   0  0  0  0  0  3  0  0  0  0  0  0
  190.6500  176.9170  139.3560 C   0  0  0  0  0  0  0  0  0  0  0  0
  192.7300  176.3840  138.2100 C   0  0  0  0  0  0  0  0  0  0  0  0
  192.0400  176.7330  139.3760 C   0  0  0  0  0  3  0  0  0  0  0  0
  194.1060  176.1990  138.2580 O   0  0  0  0  0  1  0  0  0  0  0  0
  190.6470  176.4020  136.9810 C   0  0  0  0  0  3  0  0  0  0  0  0
  192.0360  176.2230  137.0030 C   0  0  0  0  0  0  0  0  0  0  0  0
  192.7490  175.8680  135.8130 N   0  0  0  0  0  2  0  0  0  0  0  0
  192.6480  174.5550  135.1930 C   0  0  0  0  0  2  0  0  0  0  0  0
  192.5810  173.4900  136.2690 C   0  0  0  0  0  1  0  0  0  0  0  0
  186.2170  177.5530  144.5560 N   0  0  0  0  0  2  0  0  0  0  0  0
  185.1290  178.3950  145.0170 C   0  0  0  0  0  2  0  0  0  0  0  0
  184.2200  178.7300  143.8520 C   0  0  0  0  0  2  0  0  0  0  0  0
  185.0540  179.2290  142.6930 C   0  0  0  0  0  2  0  0  0  0  0  0
  184.8160  179.5800  140.2080 N   0  0  0  0  0  2  0  0  0  0  0  0
  184.3550  178.9580  141.4090 C   0  0  0  0  0  0  0  0  0  0  0  0
  183.3460  178.2030  141.3960 O   0  0  0  0  0  0  0  0  0  0  0  0
  184.2340  179.2940  138.9030 C   0  0  0  0  0  2  0  0  0  0  0  0
  185.0770  178.3030  138.1670 C   0  0  0  0  0  0  0  0  0  0  0  0
  186.3190  178.5480  137.9650 N   0  0  0  0  0  2  0  0  0  0  0  0
  184.5190  176.9740  137.8080 C   0  0  0  0  0  1  0  0  0  0  0  0
  2  3  1  1  0  0  0
  2  8  1  0  0  0  0
  3  7  2  0  0  0  0
  5  4  1  0  0  0  0
  6  1  2  0  0  0  0
  7  6  1  0  0  0  0
  8  4  1  6  0  0  0
  8  1  1  0  0  0  0
  9  2  1  0  0  0  0
  9  5  2  0  0  0  0
 10 16  1  6  0  0  0
 10 11  1  0  0  0  0
 11 14  1  0  0  0  0
 12 10  1  0  0  0  0
 12 13  1  0  0  0  0
 13 14  1  0  0  0  0
 14  9  1  1  0  0  0
 15 16  1  0  0  0  0
 16 18  2  0  0  0  0
 17 19  1  0  0  0  0
 17 18  1  0  0  0  0
 20 21  1  0  0  0  0
 20 15  2  0  0  0  0
 21 17  2  0  0  0  0
 22 21  1  0  0  0  0
 23 22  1  0  0  0  0
 23 24  1  0  0  0  0
 25 26  1  0  0  0  0
 25  5  1  0  0  0  0
 27 26  1  0  0  0  0
 28 27  1  0  0  0  0
 29 30  1  0  0  0  0
 30 28  1  0  0  0  0
 31 30  2  0  0  0  0
 32 29  1  0  0  0  0
 33 32  1  0  0  0  0
 34 33  2  0  0  0  0
 35 33  1  0  0  0  0
M  END
>  <MODEL>
2

>  <REMARK>
 VINA RESULT:      -8.7      3.067      8.278
  Name = 
  11 active torsions:
  status: ('A' for Active; 'I' for Inactive)
    1  A    between atoms: C_3  and  C_8
    2  A    between atoms: C_4  and  N_9
    3  A    between atoms: N_6  and  C_26
    4  A    between atoms: C_7  and  C_30
    5  A    between atoms: N_9  and  C_25
    6  A    between atoms: C_12  and  C_17
    7  A    between atoms: C_12  and  N_19
    8  A    between atoms: C_14  and  C_26
    9  A    between atoms: C_17  and  C_30
   10  A    between atoms: N_19  and  C_27
   11  A    between atoms: C_32  and  C_35
                            x       y       z     vdW  Elec       q    Type
                         _______ _______ _______ _____ _____    ______ ____

>  <TORSDO>
F 11

$$$$
=
 OpenBabel10222418063D

 35 38  0  0  1  0  0  0  0  0999 V2000
  190.2570  176.7910  147.5250 C   0  0  0  0  0  3  0  0  0  0  0  0
  189.6960  177.6420  145.2990 C   0  0  2  0  0  3  0  0  0  0  0  0
  190.9410  177.0730  144.7710 C   0  0  0  0  0  3  0  0  0  0  0  0
  188.0400  177.8270  146.9200 C   0  0  0  0  0  2  0  0  0  0  0  0
  187.4920  177.7710  145.7090 C   0  0  0  0  0  0  0  0  0  0  0  0
  191.2770  176.1700  146.9920 N   0  0  0  0  0  0  0  0  0  0  0  0
  191.7030  176.3810  145.6270 C   0  0  0  0  0  3  0  0  0  0  0  0
  189.5290  177.8670  146.7650 C   0  0  1  0  0  3  0  0  0  0  0  0
  188.5250  177.6480  144.6830 C   0  0  0  0  0  0  0  0  0  0  0  0
  189.0750  177.5950  140.8800 C   0  0  2  0  0  3  0  0  0  0  0  0
  189.9030  177.0770  142.3840 S   0  0  0  0  0  0  0  0  0  0  0  0
  187.9270  178.2290  141.0690 C   0  0  0  0  0  2  0  0  0  0  0  0
  187.5470  178.3830  142.4960 C   0  0  0  0  0  2  0  0  0  0  0  0
  188.3150  177.2980  143.2410 C   0  0  2  0  0  3  0  0  0  0  0  0
  189.0130  177.8280  138.4020 C   0  0  0  0  0  3  0  0  0  0  0  0
  189.5770  177.2350  139.5390 C   0  0  0  0  0  0  0  0  0  0  0  0
  191.1070  176.0020  138.1030 C   0  0  0  0  0  0  0  0  0  0  0  0
  190.6260  176.3190  139.3780 C   0  0  0  0  0  3  0  0  0  0  0  0
  192.1430  175.0850  137.9700 O   0  0  0  0  0  1  0  0  0  0  0  0
  189.4950  177.5170  137.1270 C   0  0  0  0  0  3  0  0  0  0  0  0
  190.5470  176.6060  136.9690 C   0  0  0  0  0  0  0  0  0  0  0  0
  191.0450  176.2780  135.6680 N   0  0  0  0  0  2  0  0  0  0  0  0
  190.3770  175.3380  134.7790 C   0  0  0  0  0  2  0  0  0  0  0  0
  189.5660  174.3550  135.5980 C   0  0  0  0  0  1  0  0  0  0  0  0
  186.0880  177.6820  145.4530 N   0  0  0  0  0  2  0  0  0  0  0  0
  185.1120  178.4610  146.1920 C   0  0  0  0  0  2  0  0  0  0  0  0
  183.9250  178.7610  145.3000 C   0  0  0  0  0  2  0  0  0  0  0  0
  184.3950  179.5200  144.0780 C   0  0  0  0  0  2  0  0  0  0  0  0
  184.3650  178.9490  141.6230 N   0  0  0  0  0  2  0  0  0  0  0  0
  183.6740  179.0380  142.8710 C   0  0  0  0  0  0  0  0  0  0  0  0
  182.4540  178.7360  142.9530 O   0  0  0  0  0  0  0  0  0  0  0  0
  183.7480  178.4050  140.4210 C   0  0  0  0  0  2  0  0  0  0  0  0
  184.3650  179.0130  139.2030 C   0  0  0  0  0  0  0  0  0  0  0  0
  184.2390  180.2700  138.9850 N   0  0  0  0  0  2  0  0  0  0  0  0
  185.2480  178.1980  138.3310 C   0  0  0  0  0  1  0  0  0  0  0  0
  2  3  1  1  0  0  0
  2  8  1  0  0  0  0
  3  7  2  0  0  0  0
  5  4  1  0  0  0  0
  6  1  2  0  0  0  0
  7  6  1  0  0  0  0
  8  4  1  6  0  0  0
  8  1  1  0  0  0  0
  9  2  1  0  0  0  0
  9  5  2  0  0  0  0
 10 16  1  6  0  0  0
 10 12  1  0  0  0  0
 10 11  1  0  0  0  0
 11 14  1  0  0  0  0
 12 13  1  0  0  0  0
 13 14  1  0  0  0  0
 14  9  1  1  0  0  0
 15 16  1  0  0  0  0
 17 18  1  0  0  0  0
 18 16  2  0  0  0  0
 19 17  1  0  0  0  0
 20 15  2  0  0  0  0
 21 20  1  0  0  0  0
 21 17  2  0  0  0  0
 22 21  1  0  0  0  0
 23 24  1  0  0  0  0
 23 22  1  0  0  0  0
 25  5  1  0  0  0  0
 25 26  1  0  0  0  0
 27 26  1  0  0  0  0
 28 27  1  0  0  0  0
 29 30  1  0  0  0  0
 30 31  2  0  0  0  0
 30 28  1  0  0  0  0
 32 29  1  0  0  0  0
 33 32  1  0  0  0  0
 34 33  2  0  0  0  0
 35 33  1  0  0  0  0
M  END
>  <MODEL>
3

>  <REMARK>
 VINA RESULT:      -8.6      2.761      8.449
  Name = 
  11 active torsions:
  status: ('A' for Active; 'I' for Inactive)
    1  A    between atoms: C_3  and  C_8
    2  A    between atoms: C_4  and  N_9
    3  A    between atoms: N_6  and  C_26
    4  A    between atoms: C_7  and  C_30
    5  A    between atoms: N_9  and  C_25
    6  A    between atoms: C_12  and  C_17
    7  A    between atoms: C_12  and  N_19
    8  A    between atoms: C_14  and  C_26
    9  A    between atoms: C_17  and  C_30
   10  A    between atoms: N_19  and  C_27
   11  A    between atoms: C_32  and  C_35
                            x       y       z     vdW  Elec       q    Type
                         _______ _______ _______ _____ _____    ______ ____

>  <TORSDO>
F 11

$$$$
=
 OpenBabel10222418063D

 35 38  0  0  1  0  0  0  0  0999 V2000
  190.1790  176.8580  147.5050 C   0  0  0  0  0  3  0  0  0  0  0  0
  189.8520  177.5740  145.1870 C   0  0  2  0  0  3  0  0  0  0  0  0
  191.1370  176.9690  144.8220 C   0  0  0  0  0  3  0  0  0  0  0  0
  188.0430  177.8650  146.6190 C   0  0  0  0  0  2  0  0  0  0  0  0
  187.6200  177.7380  145.3650 C   0  0  0  0  0  0  0  0  0  0  0  0
  191.2390  176.2010  147.1150 N   0  0  0  0  0  0  0  0  0  0  0  0
  191.8020  176.3270  145.7900 C   0  0  0  0  0  3  0  0  0  0  0  0
  189.5410  177.8890  146.6120 C   0  0  1  0  0  3  0  0  0  0  0  0
  188.7480  177.5480  144.4570 C   0  0  0  0  0  0  0  0  0  0  0  0
  189.6250  177.3230  140.7220 C   0  0  2  0  0  3  0  0  0  0  0  0
  190.3440  176.9290  142.3170 S   0  0  0  0  0  0  0  0  0  0  0  0
  188.4370  177.9060  140.7790 C   0  0  0  0  0  2  0  0  0  0  0  0
  187.9280  178.1150  142.1580 C   0  0  0  0  0  2  0  0  0  0  0  0
  188.6790  177.1120  143.0250 C   0  0  2  0  0  3  0  0  0  0  0  0
  189.4570  176.5680  138.3560 C   0  0  0  0  0  3  0  0  0  0  0  0
  190.2570  176.9190  139.4500 C   0  0  0  0  0  0  0  0  0  0  0  0
  192.2380  176.5320  138.0900 C   0  0  0  0  0  0  0  0  0  0  0  0
  191.6520  176.8970  139.3070 C   0  0  0  0  0  3  0  0  0  0  0  0
  193.6220  176.5110  137.9770 O   0  0  0  0  0  1  0  0  0  0  0  0
  190.0390  176.2090  137.1370 C   0  0  0  0  0  3  0  0  0  0  0  0
  191.4330  176.1930  136.9950 C   0  0  0  0  0  0  0  0  0  0  0  0
  192.0400  175.8230  135.7520 N   0  0  0  0  0  2  0  0  0  0  0  0
  192.0700  174.4510  135.2640 C   0  0  0  0  0  2  0  0  0  0  0  0
  193.4020  173.8180  135.6130 C   0  0  0  0  0  1  0  0  0  0  0  0
  186.2470  177.6400  144.9750 N   0  0  0  0  0  2  0  0  0  0  0  0
  185.1700  178.1950  145.7730 C   0  0  0  0  0  2  0  0  0  0  0  0
  184.2090  178.9450  144.8740 C   0  0  0  0  0  2  0  0  0  0  0  0
  184.7430  178.9440  143.4580 C   0  0  0  0  0  2  0  0  0  0  0  0
  182.3160  178.9780  142.7780 N   0  0  0  0  0  2  0  0  0  0  0  0
  183.6600  178.5780  142.5070 C   0  0  0  0  0  0  0  0  0  0  0  0
  183.9340  177.8960  141.4830 O   0  0  0  0  0  0  0  0  0  0  0  0
  181.2200  178.7300  141.8510 C   0  0  0  0  0  2  0  0  0  0  0  0
  180.0080  178.2690  142.5940 C   0  0  0  0  0  0  0  0  0  0  0  0
  179.0690  177.6620  141.9670 N   0  0  0  0  0  2  0  0  0  0  0  0
  179.9590  178.3740  144.0750 C   0  0  0  0  0  1  0  0  0  0  0  0
  2  3  1  1  0  0  0
  2  8  1  0  0  0  0
  3  7  2  0  0  0  0
  5  4  1  0  0  0  0
  6  1  2  0  0  0  0
  7  6  1  0  0  0  0
  8  4  1  6  0  0  0
  8  1  1  0  0  0  0
  9  2  1  0  0  0  0
  9  5  2  0  0  0  0
 10 16  1  6  0  0  0
 10 12  1  0  0  0  0
 10 11  1  0  0  0  0
 11 14  1  0  0  0  0
 12 13  1  0  0  0  0
 13 14  1  0  0  0  0
 14  9  1  1  0  0  0
 15 16  1  0  0  0  0
 17 18  1  0  0  0  0
 18 16  2  0  0  0  0
 19 17  1  0  0  0  0
 20 15  2  0  0  0  0
 21 20  1  0  0  0  0
 21 17  2  0  0  0  0
 22 21  1  0  0  0  0
 23 24  1  0  0  0  0
 23 22  1  0  0  0  0
 25  5  1  0  0  0  0
 25 26  1  0  0  0  0
 27 26  1  0  0  0  0
 28 27  1  0  0  0  0
 30 29  1  0  0  0  0
 30 28  1  0  0  0  0
 31 30  2  0  0  0  0
 32 33  1  0  0  0  0
 32 29  1  0  0  0  0
 33 35  1  0  0  0  0
 34 33  2  0  0  0  0
M  END
>  <MODEL>
4

>  <REMARK>
 VINA RESULT:      -8.5      2.950      8.881
  Name = 
  11 active torsions:
  status: ('A' for Active; 'I' for Inactive)
    1  A    between atoms: C_3  and  C_8
    2  A    between atoms: C_4  and  N_9
    3  A    between atoms: N_6  and  C_26
    4  A    between atoms: C_7  and  C_30
    5  A    between atoms: N_9  and  C_25
    6  A    between atoms: C_12  and  C_17
    7  A    between atoms: C_12  and  N_19
    8  A    between atoms: C_14  and  C_26
    9  A    between atoms: C_17  and  C_30
   10  A    between atoms: N_19  and  C_27
   11  A    between atoms: C_32  and  C_35
                            x       y       z     vdW  Elec       q    Type
                         _______ _______ _______ _____ _____    ______ ____

>  <TORSDO>
F 11

$$$$
=
 OpenBabel10222418063D

 35 38  0  0  1  0  0  0  0  0999 V2000
  190.1810  177.5600  147.8380 C   0  0  0  0  0  3  0  0  0  0  0  0
  188.5530  177.3380  146.0240 C   0  0  2  0  0  3  0  0  0  0  0  0
  187.4750  177.6970  146.9510 C   0  0  0  0  0  3  0  0  0  0  0  0
  190.7950  177.2140  145.4170 C   0  0  0  0  0  2  0  0  0  0  0  0
  190.0640  177.6430  144.3910 C   0  0  0  0  0  0  0  0  0  0  0  0
  189.2220  178.0220  148.5950 N   0  0  0  0  0  0  0  0  0  0  0  0
  187.8300  178.0020  148.2050 C   0  0  0  0  0  3  0  0  0  0  0  0
  189.8690  176.8610  146.5410 C   0  0  1  0  0  3  0  0  0  0  0  0
  188.6540  177.7300  144.7640 C   0  0  0  0  0  0  0  0  0  0  0  0
  185.3300  178.1960  142.8940 C   0  0  2  0  0  3  0  0  0  0  0  0
  185.9260  177.8600  144.5520 S   0  0  0  0  0  0  0  0  0  0  0  0
  186.2780  178.2910  141.9730 C   0  0  0  0  0  2  0  0  0  0  0  0
  187.6540  178.1060  142.4970 C   0  0  0  0  0  2  0  0  0  0  0  0
  187.5660  178.4070  143.9880 C   0  0  2  0  0  3  0  0  0  0  0  0
  183.0580  178.8970  143.6320 C   0  0  0  0  0  3  0  0  0  0  0  0
  183.9060  178.4630  142.6060 C   0  0  0  0  0  0  0  0  0  0  0  0
  182.0390  178.5850  141.0490 C   0  0  0  0  0  0  0  0  0  0  0  0
  183.3860  178.3080  141.3130 C   0  0  0  0  0  3  0  0  0  0  0  0
  181.5460  178.4160  139.7610 O   0  0  0  0  0  1  0  0  0  0  0  0
  181.7140  179.1800  143.3700 C   0  0  0  0  0  3  0  0  0  0  0  0
  181.1970  179.0290  142.0770 C   0  0  0  0  0  0  0  0  0  0  0  0
  179.8220  179.3120  141.7980 N   0  0  0  0  0  2  0  0  0  0  0  0
  179.2870  180.6660  141.7490 C   0  0  0  0  0  2  0  0  0  0  0  0
  179.6250  181.2970  140.4130 C   0  0  0  0  0  1  0  0  0  0  0  0
  190.5990  178.1070  143.1480 N   0  0  0  0  0  2  0  0  0  0  0  0
  191.8230  177.5730  142.5810 C   0  0  0  0  0  2  0  0  0  0  0  0
  191.6790  177.4690  141.0760 C   0  0  0  0  0  2  0  0  0  0  0  0
  190.4480  176.6530  140.7450 C   0  0  0  0  0  2  0  0  0  0  0  0
  189.6560  177.6270  138.5590 N   0  0  0  0  0  2  0  0  0  0  0  0
  190.2830  176.5580  139.2710 C   0  0  0  0  0  0  0  0  0  0  0  0
  190.6730  175.5240  138.6660 O   0  0  0  0  0  0  0  0  0  0  0  0
  189.5370  177.6400  137.1070 C   0  0  0  0  0  2  0  0  0  0  0  0
  188.1390  177.3080  136.7000 C   0  0  0  0  0  0  0  0  0  0  0  0
  187.5950  176.2230  137.1140 N   0  0  0  0  0  2  0  0  0  0  0  0
  187.3270  178.2990  135.9480 C   0  0  0  0  0  1  0  0  0  0  0  0
  1  6  2  0  0  0  0
  2  8  1  0  0  0  0
  2  3  1  1  0  0  0
  3  7  2  0  0  0  0
  5  9  2  0  0  0  0
  5  4  1  0  0  0  0
  7  6  1  0  0  0  0
  8  4  1  6  0  0  0
  8  1  1  0  0  0  0
  9  2  1  0  0  0  0
 10 16  1  1  0  0  0
 10 11  1  0  0  0  0
 12 13  1  0  0  0  0
 12 10  1  0  0  0  0
 13 14  1  0  0  0  0
 14 11  1  0  0  0  0
 14  9  1  1  0  0  0
 16 15  2  0  0  0  0
 17 18  2  0  0  0  0
 17 21  1  0  0  0  0
 18 16  1  0  0  0  0
 19 17  1  0  0  0  0
 20 15  1  0  0  0  0
 21 20  2  0  0  0  0
 22 21  1  0  0  0  0
 23 22  1  0  0  0  0
 24 23  1  0  0  0  0
 25  5  1  0  0  0  0
 26 25  1  0  0  0  0
 27 26  1  0  0  0  0
 28 27  1  0  0  0  0
 29 30  1  0  0  0  0
 30 28  1  0  0  0  0
 31 30  2  0  0  0  0
 32 29  1  0  0  0  0
 33 32  1  0  0  0  0
 33 34  2  0  0  0  0
 35 33  1  0  0  0  0
M  END
>  <MODEL>
5

>  <REMARK>
 VINA RESULT:      -8.2      2.656      7.912
  Name = 
  11 active torsions:
  status: ('A' for Active; 'I' for Inactive)
    1  A    between atoms: C_3  and  C_8
    2  A    between atoms: C_4  and  N_9
    3  A    between atoms: N_6  and  C_26
    4  A    between atoms: C_7  and  C_30
    5  A    between atoms: N_9  and  C_25
    6  A    between atoms: C_12  and  C_17
    7  A    between atoms: C_12  and  N_19
    8  A    between atoms: C_14  and  C_26
    9  A    between atoms: C_17  and  C_30
   10  A    between atoms: N_19  and  C_27
   11  A    between atoms: C_32  and  C_35
                            x       y       z     vdW  Elec       q    Type
                         _______ _______ _______ _____ _____    ______ ____

>  <TORSDO>
F 11

$$$$
=
 OpenBabel10222418063D

 35 38  0  0  1  0  0  0  0  0999 V2000
  190.2970  178.1250  148.0270 C   0  0  0  0  0  3  0  0  0  0  0  0
  188.4910  177.0090  146.8080 C   0  0  2  0  0  3  0  0  0  0  0  0
  187.5390  177.4260  147.8420 C   0  0  0  0  0  3  0  0  0  0  0  0
  190.5400  177.1460  145.7160 C   0  0  0  0  0  2  0  0  0  0  0  0
  189.5520  177.0660  144.8290 C   0  0  0  0  0  0  0  0  0  0  0  0
  189.3990  178.6060  148.8460 N   0  0  0  0  0  0  0  0  0  0  0  0
  188.0170  178.1840  148.8360 C   0  0  0  0  0  3  0  0  0  0  0  0
  189.9570  176.9980  147.0880 C   0  0  1  0  0  3  0  0  0  0  0  0
  188.2590  176.9860  145.5050 C   0  0  0  0  0  0  0  0  0  0  0  0
  185.4850  178.4230  143.2670 C   0  0  2  0  0  3  0  0  0  0  0  0
  187.0590  177.5780  143.1130 S   0  0  0  0  0  0  0  0  0  0  0  0
  185.1220  178.6970  144.5120 C   0  0  0  0  0  2  0  0  0  0  0  0
  186.0920  178.2450  145.5400 C   0  0  0  0  0  2  0  0  0  0  0  0
  186.9100  177.1450  144.8730 C   0  0  2  0  0  3  0  0  0  0  0  0
  183.2200  178.6210  142.2530 C   0  0  0  0  0  3  0  0  0  0  0  0
  184.6110  178.6810  142.1050 C   0  0  0  0  0  0  0  0  0  0  0  0
  184.3080  179.2690  139.7630 C   0  0  0  0  0  0  0  0  0  0  0  0
  185.1480  179.0060  140.8510 C   0  0  0  0  0  3  0  0  0  0  0  0
  184.8650  179.5810  138.5290 O   0  0  0  0  0  1  0  0  0  0  0  0
  182.3780  178.8890  141.1700 C   0  0  0  0  0  3  0  0  0  0  0  0
  182.9170  179.2190  139.9190 C   0  0  0  0  0  0  0  0  0  0  0  0
  182.0640  179.4920  138.8010 N   0  0  0  0  0  2  0  0  0  0  0  0
  181.2910  178.4590  138.1260 C   0  0  0  0  0  2  0  0  0  0  0  0
  182.1420  177.8040  137.0580 C   0  0  0  0  0  1  0  0  0  0  0  0
  189.7140  177.2000  143.4150 N   0  0  0  0  0  2  0  0  0  0  0  0
  190.8370  176.6200  142.7020 C   0  0  0  0  0  2  0  0  0  0  0  0
  191.7260  177.7260  142.1720 C   0  0  0  0  0  2  0  0  0  0  0  0
  191.9810  177.5020  140.6970 C   0  0  0  0  0  2  0  0  0  0  0  0
  189.6650  178.0940  139.8990 N   0  0  0  0  0  2  0  0  0  0  0  0
  190.7150  177.1310  140.0130 C   0  0  0  0  0  0  0  0  0  0  0  0
  190.5690  175.9640  139.5620 O   0  0  0  0  0  0  0  0  0  0  0  0
  188.4330  177.8290  139.1680 C   0  0  0  0  0  2  0  0  0  0  0  0
  188.5880  178.2220  137.7350 C   0  0  0  0  0  0  0  0  0  0  0  0
  188.6490  179.4620  137.4170 N   0  0  0  0  0  2  0  0  0  0  0  0
  188.8250  177.1820  136.7010 C   0  0  0  0  0  1  0  0  0  0  0  0
  1  6  2  0  0  0  0
  2  8  1  0  0  0  0
  2  3  1  6  0  0  0
  3  7  2  0  0  0  0
  5  9  2  0  0  0  0
  5  4  1  0  0  0  0
  7  6  1  0  0  0  0
  8  4  1  6  0  0  0
  8  1  1  0  0  0  0
  9  2  1  0  0  0  0
 10 16  1  1  0  0  0
 10 12  1  0  0  0  0
 11 10  1  0  0  0  0
 11 14  1  0  0  0  0
 12 13  1  0  0  0  0
 14  9  1  1  0  0  0
 14 13  1  0  0  0  0
 16 15  1  0  0  0  0
 17 21  2  0  0  0  0
 17 18  1  0  0  0  0
 18 16  2  0  0  0  0
 19 17  1  0  0  0  0
 20 15  2  0  0  0  0
 21 20  1  0  0  0  0
 22 21  1  0  0  0  0
 23 22  1  0  0  0  0
 24 23  1  0  0  0  0
 25  5  1  0  0  0  0
 26 25  1  0  0  0  0
 27 26  1  0  0  0  0
 28 27  1  0  0  0  0
 29 30  1  0  0  0  0
 30 28  1  0  0  0  0
 31 30  2  0  0  0  0
 32 29  1  0  0  0  0
 33 32  1  0  0  0  0
 34 33  2  0  0  0  0
 35 33  1  0  0  0  0
M  END
>  <MODEL>
6

>  <REMARK>
 VINA RESULT:      -8.1      2.612      7.872
  Name = 
  11 active torsions:
  status: ('A' for Active; 'I' for Inactive)
    1  A    between atoms: C_3  and  C_8
    2  A    between atoms: C_4  and  N_9
    3  A    between atoms: N_6  and  C_26
    4  A    between atoms: C_7  and  C_30
    5  A    between atoms: N_9  and  C_25
    6  A    between atoms: C_12  and  C_17
    7  A    between atoms: C_12  and  N_19
    8  A    between atoms: C_14  and  C_26
    9  A    between atoms: C_17  and  C_30
   10  A    between atoms: N_19  and  C_27
   11  A    between atoms: C_32  and  C_35
                            x       y       z     vdW  Elec       q    Type
                         _______ _______ _______ _____ _____    ______ ____

>  <TORSDO>
F 11

$$$$
=
 OpenBabel10222418063D

 35 38  0  0  1  0  0  0  0  0999 V2000
  190.2660  178.0800  147.8830 C   0  0  0  0  0  3  0  0  0  0  0  0
  188.4130  177.0810  146.6340 C   0  0  2  0  0  3  0  0  0  0  0  0
  187.5320  177.2750  147.7910 C   0  0  0  0  0  3  0  0  0  0  0  0
  190.3580  177.5000  145.4310 C   0  0  0  0  0  2  0  0  0  0  0  0
  189.3050  177.5120  144.6190 C   0  0  0  0  0  0  0  0  0  0  0  0
  189.4200  178.3740  148.8350 N   0  0  0  0  0  0  0  0  0  0  0  0
  188.0590  177.8870  148.8580 C   0  0  0  0  0  3  0  0  0  0  0  0
  189.8960  177.1020  146.8000 C   0  0  1  0  0  3  0  0  0  0  0  0
  188.0760  177.2550  145.3660 C   0  0  0  0  0  0  0  0  0  0  0  0
  185.1580  178.6000  143.2580 C   0  0  2  0  0  3  0  0  0  0  0  0
  186.6370  177.6060  143.0610 S   0  0  0  0  0  0  0  0  0  0  0  0
  184.9710  179.0800  144.4790 C   0  0  0  0  0  2  0  0  0  0  0  0
  186.0250  178.6940  145.4510 C   0  0  0  0  0  2  0  0  0  0  0  0
  186.6740  177.4420  144.8710 C   0  0  2  0  0  3  0  0  0  0  0  0
  184.6050  179.0150  140.8670 C   0  0  0  0  0  3  0  0  0  0  0  0
  184.1690  178.7680  142.1740 C   0  0  0  0  0  0  0  0  0  0  0  0
  181.8670  178.8050  141.3850 C   0  0  0  0  0  0  0  0  0  0  0  0
  182.7930  178.6650  142.4250 C   0  0  0  0  0  3  0  0  0  0  0  0
  180.5090  178.7070  141.6610 O   0  0  0  0  0  1  0  0  0  0  0  0
  183.6820  179.1490  139.8240 C   0  0  0  0  0  3  0  0  0  0  0  0
  182.3080  179.0410  140.0760 C   0  0  0  0  0  0  0  0  0  0  0  0
  181.3540  179.1810  139.0180 N   0  0  0  0  0  2  0  0  0  0  0  0
  180.5790  180.3950  138.8080 C   0  0  0  0  0  2  0  0  0  0  0  0
  181.5020  181.5210  138.3870 C   0  0  0  0  0  1  0  0  0  0  0  0
  189.3460  177.8800  143.2380 N   0  0  0  0  0  2  0  0  0  0  0  0
  190.4440  177.5080  142.3660 C   0  0  0  0  0  2  0  0  0  0  0  0
  189.9010  177.1270  141.0030 C   0  0  0  0  0  2  0  0  0  0  0  0
  189.0080  178.2360  140.4910 C   0  0  0  0  0  2  0  0  0  0  0  0
  187.3120  178.3480  138.6300 N   0  0  0  0  0  2  0  0  0  0  0  0
  188.6090  177.9590  139.0860 C   0  0  0  0  0  0  0  0  0  0  0  0
  189.4090  177.3610  138.3170 O   0  0  0  0  0  0  0  0  0  0  0  0
  186.8850  178.1870  137.2460 C   0  0  0  0  0  2  0  0  0  0  0  0
  186.0440  176.9610  137.1050 C   0  0  0  0  0  0  0  0  0  0  0  0
  184.7660  177.0580  137.1210 N   0  0  0  0  0  2  0  0  0  0  0  0
  186.6800  175.6550  136.7910 C   0  0  0  0  0  1  0  0  0  0  0  0
  1  6  2  0  0  0  0
  2  8  1  0  0  0  0
  2  3  1  1  0  0  0
  3  7  2  0  0  0  0
  5  9  2  0  0  0  0
  5  4  1  0  0  0  0
  6  7  1  0  0  0  0
  8  4  1  6  0  0  0
  8  1  1  0  0  0  0
  9  2  1  0  0  0  0
 10 16  1  1  0  0  0
 10 12  1  0  0  0  0
 11 10  1  0  0  0  0
 11 14  1  0  0  0  0
 12 13  1  0  0  0  0
 14  9  1  1  0  0  0
 14 13  1  0  0  0  0
 15 16  1  0  0  0  0
 16 18  2  0  0  0  0
 17 19  1  0  0  0  0
 17 18  1  0  0  0  0
 20 21  1  0  0  0  0
 20 15  2  0  0  0  0
 21 17  2  0  0  0  0
 22 21  1  0  0  0  0
 23 22  1  0  0  0  0
 24 23  1  0  0  0  0
 25  5  1  0  0  0  0
 26 25  1  0  0  0  0
 27 26  1  0  0  0  0
 28 27  1  0  0  0  0
 29 30  1  0  0  0  0
 30 28  1  0  0  0  0
 31 30  2  0  0  0  0
 32 29  1  0  0  0  0
 33 34  2  0  0  0  0
 33 32  1  0  0  0  0
 35 33  1  0  0  0  0
M  END
>  <MODEL>
7

>  <REMARK>
 VINA RESULT:      -7.9      2.519      7.784
  Name = 
  11 active torsions:
  status: ('A' for Active; 'I' for Inactive)
    1  A    between atoms: C_3  and  C_8
    2  A    between atoms: C_4  and  N_9
    3  A    between atoms: N_6  and  C_26
    4  A    between atoms: C_7  and  C_30
    5  A    between atoms: N_9  and  C_25
    6  A    between atoms: C_12  and  C_17
    7  A    between atoms: C_12  and  N_19
    8  A    between atoms: C_14  and  C_26
    9  A    between atoms: C_17  and  C_30
   10  A    between atoms: N_19  and  C_27
   11  A    between atoms: C_32  and  C_35
                            x       y       z     vdW  Elec       q    Type
                         _______ _______ _______ _____ _____    ______ ____

>  <TORSDO>
F 11

$$$$
=
 OpenBabel10222418063D

 35 38  0  0  1  0  0  0  0  0999 V2000
  190.1840  178.1000  147.9470 C   0  0  0  0  0  3  0  0  0  0  0  0
  188.4130  177.0750  146.6040 C   0  0  2  0  0  3  0  0  0  0  0  0
  187.4710  177.2530  147.7140 C   0  0  0  0  0  3  0  0  0  0  0  0
  190.4100  177.5260  145.5020 C   0  0  0  0  0  2  0  0  0  0  0  0
  189.3990  177.5230  144.6370 C   0  0  0  0  0  0  0  0  0  0  0  0
  189.2860  178.3790  148.8540 N   0  0  0  0  0  0  0  0  0  0  0  0
  187.9330  177.8710  148.8080 C   0  0  0  0  0  3  0  0  0  0  0  0
  189.8850  177.1190  146.8450 C   0  0  1  0  0  3  0  0  0  0  0  0
  188.1380  177.2470  145.3210 C   0  0  0  0  0  0  0  0  0  0  0  0
  185.3050  178.5720  143.0880 C   0  0  2  0  0  3  0  0  0  0  0  0
  186.8170  177.6160  142.9490 S   0  0  0  0  0  0  0  0  0  0  0  0
  185.0430  179.0190  144.3070 C   0  0  0  0  0  2  0  0  0  0  0  0
  186.0520  178.6360  145.3250 C   0  0  0  0  0  2  0  0  0  0  0  0
  186.7610  177.4130  144.7550 C   0  0  2  0  0  3  0  0  0  0  0  0
  184.8720  179.0030  140.6740 C   0  0  0  0  0  3  0  0  0  0  0  0
  184.3720  178.7410  141.9560 C   0  0  0  0  0  0  0  0  0  0  0  0
  182.1130  178.7680  141.0500 C   0  0  0  0  0  0  0  0  0  0  0  0
  182.9860  178.6260  142.1350 C   0  0  0  0  0  3  0  0  0  0  0  0
  180.7430  178.6570  141.2560 O   0  0  0  0  0  1  0  0  0  0  0  0
  184.0030  179.1400  139.5880 C   0  0  0  0  0  3  0  0  0  0  0  0
  182.6190  179.0190  139.7680 C   0  0  0  0  0  0  0  0  0  0  0  0
  181.7190  179.1610  138.6630 N   0  0  0  0  0  2  0  0  0  0  0  0
  181.5330  180.4180  137.9520 C   0  0  0  0  0  2  0  0  0  0  0  0
  180.2750  181.1010  138.4510 C   0  0  0  0  0  1  0  0  0  0  0  0
  189.5050  177.8950  143.2610 N   0  0  0  0  0  2  0  0  0  0  0  0
  190.7350  177.7420  142.5050 C   0  0  0  0  0  2  0  0  0  0  0  0
  190.5150  176.7550  141.3760 C   0  0  0  0  0  2  0  0  0  0  0  0
  189.7490  177.4320  140.2610 C   0  0  0  0  0  2  0  0  0  0  0  0
  191.0330  175.7760  138.8610 N   0  0  0  0  0  2  0  0  0  0  0  0
  190.2610  176.9760  138.9420 C   0  0  0  0  0  0  0  0  0  0  0  0
  190.0320  177.6650  137.9130 O   0  0  0  0  0  0  0  0  0  0  0  0
  191.4940  175.2230  137.5940 C   0  0  0  0  0  2  0  0  0  0  0  0
  192.9710  175.4020  137.4590 C   0  0  0  0  0  0  0  0  0  0  0  0
  193.5530  176.3740  138.0580 N   0  0  0  0  0  2  0  0  0  0  0  0
  193.7840  174.3720  136.7620 C   0  0  0  0  0  1  0  0  0  0  0  0
  1  6  2  0  0  0  0
  2  8  1  0  0  0  0
  2  3  1  1  0  0  0
  3  7  2  0  0  0  0
  5  9  2  0  0  0  0
  5  4  1  0  0  0  0
  7  6  1  0  0  0  0
  8  4  1  6  0  0  0
  8  1  1  0  0  0  0
  9  2  1  0  0  0  0
 10 16  1  1  0  0  0
 10 12  1  0  0  0  0
 11 10  1  0  0  0  0
 11 14  1  0  0  0  0
 12 13  1  0  0  0  0
 14  9  1  1  0  0  0
 14 13  1  0  0  0  0
 15 16  1  0  0  0  0
 16 18  2  0  0  0  0
 17 19  1  0  0  0  0
 17 18  1  0  0  0  0
 20 21  1  0  0  0  0
 20 15  2  0  0  0  0
 21 17  2  0  0  0  0
 22 21  1  0  0  0  0
 23 24  1  0  0  0  0
 23 22  1  0  0  0  0
 25  5  1  0  0  0  0
 26 25  1  0  0  0  0
 27 26  1  0  0  0  0
 28 27  1  0  0  0  0
 29 30  1  0  0  0  0
 30 28  1  0  0  0  0
 31 30  2  0  0  0  0
 32 29  1  0  0  0  0
 33 32  1  0  0  0  0
 33 34  2  0  0  0  0
 35 33  1  0  0  0  0
M  END
>  <MODEL>
8

>  <REMARK>
 VINA RESULT:      -7.8      2.827      7.942
  Name = 
  11 active torsions:
  status: ('A' for Active; 'I' for Inactive)
    1  A    between atoms: C_3  and  C_8
    2  A    between atoms: C_4  and  N_9
    3  A    between atoms: N_6  and  C_26
    4  A    between atoms: C_7  and  C_30
    5  A    between atoms: N_9  and  C_25
    6  A    between atoms: C_12  and  C_17
    7  A    between atoms: C_12  and  N_19
    8  A    between atoms: C_14  and  C_26
    9  A    between atoms: C_17  and  C_30
   10  A    between atoms: N_19  and  C_27
   11  A    between atoms: C_32  and  C_35
                            x       y       z     vdW  Elec       q    Type
                         _______ _______ _______ _____ _____    ______ ____

>  <TORSDO>
F 11

$$$$
=
 OpenBabel10222418063D

 35 38  0  0  1  0  0  0  0  0999 V2000
  181.9930  177.6860  138.8860 C   0  0  0  0  0  3  0  0  0  0  0  0
  183.4300  179.0280  140.3440 C   0  0  2  0  0  3  0  0  0  0  0  0
  182.4580  178.8820  141.4320 C   0  0  0  0  0  3  0  0  0  0  0  0
  184.3300  178.4190  138.2880 C   0  0  0  0  0  2  0  0  0  0  0  0
  185.3030  178.6170  139.1740 C   0  0  0  0  0  0  0  0  0  0  0  0
  181.2260  177.4500  139.9180 N   0  0  0  0  0  0  0  0  0  0  0  0
  181.3810  178.1260  141.1860 C   0  0  0  0  0  3  0  0  0  0  0  0
  183.0250  178.7810  138.9290 C   0  0  1  0  0  3  0  0  0  0  0  0
  184.7470  178.9950  140.4720 C   0  0  0  0  0  0  0  0  0  0  0  0
  187.0110  177.8800  143.3700 C   0  0  2  0  0  3  0  0  0  0  0  0
  187.1300  178.2950  141.6290 S   0  0  0  0  0  0  0  0  0  0  0  0
  185.7830  177.9170  143.8660 C   0  0  0  0  0  2  0  0  0  0  0  0
  184.7410  178.3010  142.8800 C   0  0  0  0  0  2  0  0  0  0  0  0
  185.4810  179.0480  141.7760 C   0  0  2  0  0  3  0  0  0  0  0  0
  189.4690  177.5660  143.6110 C   0  0  0  0  0  3  0  0  0  0  0  0
  188.2030  177.6360  144.2060 C   0  0  0  0  0  0  0  0  0  0  0  0
  189.2370  177.2800  146.3810 C   0  0  0  0  0  0  0  0  0  0  0  0
  188.0970  177.4910  145.5970 C   0  0  0  0  0  3  0  0  0  0  0  0
  189.1040  177.1310  147.7560 O   0  0  0  0  0  1  0  0  0  0  0  0
  190.6100  177.3610  144.3920 C   0  0  0  0  0  3  0  0  0  0  0  0
  190.5020  177.2210  145.7820 C   0  0  0  0  0  0  0  0  0  0  0  0
  191.6640  177.0080  146.5900 N   0  0  0  0  0  2  0  0  0  0  0  0
  192.1690  175.6810  146.9140 C   0  0  0  0  0  2  0  0  0  0  0  0
  192.7920  175.6990  148.2960 C   0  0  0  0  0  1  0  0  0  0  0  0
  186.6870  178.3460  138.9390 N   0  0  0  0  0  2  0  0  0  0  0  0
  187.2070  178.0440  137.6180 C   0  0  0  0  0  2  0  0  0  0  0  0
  188.1000  176.8230  137.6930 C   0  0  0  0  0  2  0  0  0  0  0  0
  189.4260  177.1300  137.0310 C   0  0  0  0  0  2  0  0  0  0  0  0
  191.8600  176.6340  137.4570 N   0  0  0  0  0  2  0  0  0  0  0  0
  190.5420  176.8390  137.9690 C   0  0  0  0  0  0  0  0  0  0  0  0
  190.3100  176.7500  139.2040 O   0  0  0  0  0  0  0  0  0  0  0  0
  193.0150  176.4310  138.3220 C   0  0  0  0  0  2  0  0  0  0  0  0
  193.8050  175.2500  137.8590 C   0  0  0  0  0  0  0  0  0  0  0  0
  195.0250  175.1150  138.2270 N   0  0  0  0  0  2  0  0  0  0  0  0
  193.1370  174.1580  137.1050 C   0  0  0  0  0  1  0  0  0  0  0  0
  1  8  1  0  0  0  0
  1  6  2  0  0  0  0
  2  9  1  0  0  0  0
  2  3  1  1  0  0  0
  4  5  1  0  0  0  0
  5  9  2  0  0  0  0
  6  7  1  0  0  0  0
  7  3  2  0  0  0  0
  8  4  1  6  0  0  0
  8  2  1  0  0  0  0
 10 12  1  0  0  0  0
 10 16  1  1  0  0  0
 11 14  1  0  0  0  0
 11 10  1  0  0  0  0
 13 12  1  0  0  0  0
 14  9  1  6  0  0  0
 14 13  1  0  0  0  0
 15 16  2  0  0  0  0
 15 20  1  0  0  0  0
 16 18  1  0  0  0  0
 17 19  1  0  0  0  0
 18 17  2  0  0  0  0
 20 21  2  0  0  0  0
 21 17  1  0  0  0  0
 21 22  1  0  0  0  0
 22 23  1  0  0  0  0
 23 24  1  0  0  0  0
 25  5  1  0  0  0  0
 26 27  1  0  0  0  0
 26 25  1  0  0  0  0
 28 27  1  0  0  0  0
 28 30  1  0  0  0  0
 29 30  1  0  0  0  0
 29 32  1  0  0  0  0
 30 31  2  0  0  0  0
 33 34  2  0  0  0  0
 33 32  1  0  0  0  0
 35 33  1  0  0  0  0
M  END
>  <MODEL>
9

>  <REMARK>
 VINA RESULT:      -7.8      2.383      3.117
  Name = 
  11 active torsions:
  status: ('A' for Active; 'I' for Inactive)
    1  A    between atoms: C_3  and  C_8
    2  A    between atoms: C_4  and  N_9
    3  A    between atoms: N_6  and  C_26
    4  A    between atoms: C_7  and  C_30
    5  A    between atoms: N_9  and  C_25
    6  A    between atoms: C_12  and  C_17
    7  A    between atoms: C_12  and  N_19
    8  A    between atoms: C_14  and  C_26
    9  A    between atoms: C_17  and  C_30
   10  A    between atoms: N_19  and  C_27
   11  A    between atoms: C_32  and  C_35
                            x       y       z     vdW  Elec       q    Type
                         _______ _______ _______ _____ _____    ______ ____

>  <TORSDO>
F 11

$$$$
