=
 OpenBabel10222419233D

 49 55  0  0  1  0  0  0  0  0999 V2000
  179.9460  171.5530  137.0130 S   0  0  0  0  0  0  0  0  0  0  0  0
  181.4820  176.4060  136.8710 O   0  0  0  0  0  0  0  0  0  0  0  0
  182.1040  172.4730  135.8400 N   0  0  0  0  0  0  0  0  0  0  0  0
  188.0860  178.0100  136.5710 C   0  0  0  0  0  3  0  0  0  0  0  0
  187.7400  173.3780  135.8450 C   0  0  0  0  0  2  0  0  0  0  0  0
  183.6260  176.4950  138.0080 C   0  0  1  0  0  3  0  0  0  0  0  0
  181.2880  172.7650  137.0050 C   0  0  1  0  0  3  0  0  0  0  0  0
  180.6310  170.7550  135.5300 C   0  0  2  0  0  3  0  0  0  0  0  0
  183.5140  172.7120  135.8340 C   0  0  0  0  0  0  0  0  0  0  0  0
  181.5240  171.6790  134.8500 N   0  0  0  0  0  2  0  0  0  0  0  0
  181.7950  176.6200  139.6920 C   0  0  0  0  0  3  0  0  0  0  0  0
  184.2630  172.3900  136.9320 N   0  0  0  0  0  0  0  0  0  0  0  0
  185.6140  172.5770  136.9470 C   0  0  0  0  0  3  0  0  0  0  0  0
  186.2640  173.1260  135.8350 C   0  0  0  0  0  0  0  0  0  0  0  0
  184.1320  173.2420  134.6900 C   0  0  0  0  0  3  0  0  0  0  0  0
  181.4420  175.2110  137.6140 C   0  0  1  0  0  0  0  0  0  0  0  0
  179.5030  170.3400  134.6080 C   0  0  0  0  0  1  0  0  0  0  0  0
  180.6690  174.1500  136.8530 C   0  0  0  0  0  2  0  0  0  0  0  0
  182.9530  177.0980  139.2340 C   0  0  0  0  0  0  0  0  0  0  0  0
  187.6800  175.6450  136.9330 C   0  0  0  0  0  0  0  0  0  0  0  0
  185.5120  173.4560  134.6990 C   0  0  0  0  0  3  0  0  0  0  0  0
  182.7100  175.7230  137.0370 C   0  0  1  0  0  3  0  0  0  0  0  0
  186.3240  175.9260  137.1250 C   0  0  0  0  0  3  0  0  0  0  0  0
  184.3800  177.5430  137.1890 C   0  0  0  0  0  2  0  0  0  0  0  0
  186.7280  178.2770  136.7610 C   0  0  0  0  0  3  0  0  0  0  0  0
  181.0850  175.4540  139.0810 C   0  0  0  0  0  2  0  0  0  0  0  0
  188.5730  176.6940  136.6560 C   0  0  0  0  0  0  0  0  0  0  0  0
  185.8410  177.2380  137.0490 C   0  0  0  0  0  0  0  0  0  0  0  0
  188.1640  174.2290  137.0430 C   0  0  0  0  0  2  0  0  0  0  0  0
  184.3650  177.8610  141.0500 N   0  0  0  0  0  0  0  0  0  0  0  0
  183.5870  178.1420  140.0510 C   0  0  0  0  0  3  0  0  0  0  0  0
  183.6700  178.8410  145.4020 C   0  0  0  0  0  2  0  0  0  0  0  0
  184.7520  178.9500  143.2900 N   0  0  0  0  0  0  0  0  0  0  0  0
  185.0200  178.8340  141.8760 C   0  0  0  0  0  0  0  0  0  0  0  0
  185.0030  179.5620  145.5640 C   0  0  0  0  0  2  0  0  0  0  0  0
  183.6210  178.3380  143.9780 C   0  0  0  0  0  2  0  0  0  0  0  0
  185.5720  179.7580  144.1710 C   0  0  0  0  0  2  0  0  0  0  0  0
  185.8510  179.6510  141.3130 N   0  0  0  0  0  2  0  0  0  0  0  0
  189.9320  176.4130  136.4770 O   0  0  0  0  0  0  0  0  0  0  0  0
  190.9230  176.7720  137.4320 C   0  0  0  0  0  2  0  0  0  0  0  0
  190.5930  176.1570  138.7820 C   0  0  0  0  0  2  0  0  0  0  0  0
  190.5160  177.2450  139.8380 C   0  0  0  0  0  2  0  0  0  0  0  0
  188.5040  177.4940  141.2760 C   0  0  0  0  0  3  0  0  0  0  0  0
  189.0790  177.6030  140.0790 C   0  0  0  0  0  3  0  0  0  0  0  0
  189.2440  177.0110  142.4880 C   0  0  0  0  0  2  0  0  0  0  0  0
  188.3420  177.0140  143.7080 C   0  0  0  0  0  2  0  0  0  0  0  0
  188.7450  177.1000  146.2040 N   0  0  0  0  0  1  0  0  0  0  0  0
  189.0470  177.5800  144.8940 C   0  0  0  0  0  0  0  0  0  0  0  0
  189.9120  178.4780  144.7390 O   0  0  0  0  0  0  0  0  0  0  0  0
  2 16  1  0  0  0  0
  3  7  1  0  0  0  0
  4 27  2  0  0  0  0
  4 25  1  0  0  0  0
  5 29  1  0  0  0  0
  6 24  1  6  0  0  0
  6 19  1  0  0  0  0
  7 18  1  6  0  0  0
  7  1  1  0  0  0  0
  8 17  1  6  0  0  0
  8  1  1  0  0  0  0
  9  3  1  0  0  0  0
  9 12  1  0  0  0  0
 10  8  1  0  0  0  0
 10  3  1  0  0  0  0
 12 13  2  0  0  0  0
 14  5  1  0  0  0  0
 14 13  1  0  0  0  0
 15 21  1  0  0  0  0
 15  9  2  0  0  0  0
 16 18  1  6  0  0  0
 16 26  1  0  0  0  0
 19 11  2  0  0  0  0
 19 31  1  0  0  0  0
 20 29  1  0  0  0  0
 20 23  2  0  0  0  0
 21 14  2  0  0  0  0
 22  2  1  6  0  0  0
 22 16  1  0  0  0  0
 22  6  1  0  0  0  0
 25 28  2  0  0  0  0
 26 11  1  0  0  0  0
 27 20  1  0  0  0  0
 28 23  1  0  0  0  0
 28 24  1  0  0  0  0
 30 34  1  0  0  0  0
 31 30  2  0  0  0  0
 32 35  1  0  0  0  0
 33 36  1  0  0  0  0
 33 37  1  0  0  0  0
 34 33  1  0  0  0  0
 36 32  1  0  0  0  0
 37 35  1  0  0  0  0
 38 34  2  0  0  0  0
 39 27  1  0  0  0  0
 39 40  1  0  0  0  0
 40 41  1  0  0  0  0
 41 42  1  0  0  0  0
 42 44  1  0  0  0  0
 43 45  1  0  0  0  0
 44 43  2  0  0  0  0
 45 46  1  0  0  0  0
 46 48  1  0  0  0  0
 48 47  1  0  0  0  0
 49 48  2  0  0  0  0
M  END
>  <MODEL>
1

>  <REMARK>
 VINA RESULT:      -7.3      0.000      0.000
  Name = 
  10 active torsions:
  status: ('A' for Active; 'I' for Inactive)
    1  A    between atoms: C_8  and  C_24
    2  A    between atoms: C_8  and  O_32
    3  A    between atoms: C_9  and  C_14
    4  A    between atoms: C_9  and  C_31
    5  A    between atoms: N_11  and  C_16
    6  A    between atoms: C_15  and  C_17
    7  A    between atoms: C_17  and  C_24
    8  A    between atoms: C_31  and  C_44
    9  A    between atoms: O_32  and  C_45
   10  A    between atoms: C_34  and  C_46
                            x       y       z     vdW  Elec       q    Type
                         _______ _______ _______ _____ _____    ______ ____

>  <TORSDO>
F 10

$$$$
=
 OpenBabel10222419233D

 49 55  0  0  1  0  0  0  0  0999 V2000
  180.3620  177.5290  138.7540 S   0  0  0  0  0  0  0  0  0  0  0  0
  184.8910  179.8390  139.0400 O   0  0  0  0  0  0  0  0  0  0  0  0
  182.4150  177.1390  137.1690 N   0  0  0  0  0  0  0  0  0  0  0  0
  190.5860  176.6990  137.0430 C   0  0  0  0  0  3  0  0  0  0  0  0
  186.9650  174.0580  135.6240 C   0  0  0  0  0  2  0  0  0  0  0  0
  186.5360  178.1030  139.4670 C   0  0  1  0  0  3  0  0  0  0  0  0
  182.1590  177.4690  138.5600 C   0  0  1  0  0  3  0  0  0  0  0  0
  180.1380  177.0540  137.0140 C   0  0  2  0  0  3  0  0  0  0  0  0
  183.5620  176.3790  136.7780 C   0  0  0  0  0  0  0  0  0  0  0  0
  181.3600  177.3250  136.2740 N   0  0  0  0  0  2  0  0  0  0  0  0
  185.5020  178.8060  141.6210 C   0  0  0  0  0  3  0  0  0  0  0  0
  183.9430  175.2940  137.5170 N   0  0  0  0  0  0  0  0  0  0  0  0
  185.0130  174.5300  137.1540 C   0  0  0  0  0  3  0  0  0  0  0  0
  185.7620  174.8580  136.0180 C   0  0  0  0  0  0  0  0  0  0  0  0
  184.2720  176.7260  135.6170 C   0  0  0  0  0  3  0  0  0  0  0  0
  184.0700  178.8040  139.5290 C   0  0  1  0  0  0  0  0  0  0  0  0
  178.9810  177.8310  136.4190 C   0  0  0  0  0  1  0  0  0  0  0  0
  182.7100  178.8580  138.8590 C   0  0  0  0  0  2  0  0  0  0  0  0
  186.6060  178.5270  140.9280 C   0  0  0  0  0  0  0  0  0  0  0  0
  188.6410  175.2480  137.0730 C   0  0  0  0  0  0  0  0  0  0  0  0
  185.3820  175.9640  135.2440 C   0  0  0  0  0  3  0  0  0  0  0  0
  185.2650  178.5180  138.6970 C   0  0  1  0  0  3  0  0  0  0  0  0
  187.9200  176.2590  137.7170 C   0  0  0  0  0  3  0  0  0  0  0  0
  187.7390  178.5970  138.6640 C   0  0  0  0  0  2  0  0  0  0  0  0
  189.8540  177.7020  137.6830 C   0  0  0  0  0  3  0  0  0  0  0  0
  184.1220  178.6960  141.0540 C   0  0  0  0  0  2  0  0  0  0  0  0
  189.9870  175.4650  136.7340 C   0  0  0  0  0  0  0  0  0  0  0  0
  188.5200  177.4840  138.0320 C   0  0  0  0  0  0  0  0  0  0  0  0
  187.9700  173.9410  136.7700 C   0  0  0  0  0  2  0  0  0  0  0  0
  188.1000  177.6840  142.6410 N   0  0  0  0  0  0  0  0  0  0  0  0
  187.8630  178.5330  141.6900 C   0  0  0  0  0  3  0  0  0  0  0  0
  188.6240  177.5490  147.1230 C   0  0  0  0  0  2  0  0  0  0  0  0
  189.3020  177.4850  144.8470 N   0  0  0  0  0  0  0  0  0  0  0  0
  189.3090  177.6330  143.4110 C   0  0  0  0  0  0  0  0  0  0  0  0
  190.0640  177.0550  147.0480 C   0  0  0  0  0  2  0  0  0  0  0  0
  188.1320  177.6640  145.6990 C   0  0  0  0  0  2  0  0  0  0  0  0
  190.5050  177.1950  145.6030 C   0  0  0  0  0  2  0  0  0  0  0  0
  190.4350  177.7610  142.7870 N   0  0  0  0  0  2  0  0  0  0  0  0
  190.7110  174.4490  136.1030 O   0  0  0  0  0  0  0  0  0  0  0  0
  191.7770  173.7530  136.7390 C   0  0  0  0  0  2  0  0  0  0  0  0
  192.2010  172.5640  135.8940 C   0  0  0  0  0  2  0  0  0  0  0  0
  193.6480  172.2140  136.1880 C   0  0  0  0  0  2  0  0  0  0  0  0
  195.6690  173.6610  136.2210 C   0  0  0  0  0  3  0  0  0  0  0  0
  194.5420  173.2770  135.6210 C   0  0  0  0  0  3  0  0  0  0  0  0
  196.1450  173.0580  137.5100 C   0  0  0  0  0  2  0  0  0  0  0  0
  195.6640  173.8740  138.6970 C   0  0  0  0  0  2  0  0  0  0  0  0
  197.8680  175.0810  138.4090 N   0  0  0  0  0  1  0  0  0  0  0  0
  196.7580  174.7310  139.2360 C   0  0  0  0  0  0  0  0  0  0  0  0
  196.7000  175.1500  140.4190 O   0  0  0  0  0  0  0  0  0  0  0  0
  2 16  1  0  0  0  0
  3  7  1  0  0  0  0
  4 25  1  0  0  0  0
  5 14  1  0  0  0  0
  5 29  1  0  0  0  0
  6 24  1  6  0  0  0
  6 19  1  0  0  0  0
  7  1  1  0  0  0  0
  7 18  1  6  0  0  0
  8 17  1  6  0  0  0
  8  1  1  0  0  0  0
  9  3  1  0  0  0  0
  9 12  1  0  0  0  0
 10  8  1  0  0  0  0
 10  3  1  0  0  0  0
 13 12  2  0  0  0  0
 14 13  1  0  0  0  0
 15  9  2  0  0  0  0
 16 18  1  6  0  0  0
 16 26  1  0  0  0  0
 19 11  2  0  0  0  0
 19 31  1  0  0  0  0
 20 23  2  0  0  0  0
 21 15  1  0  0  0  0
 21 14  2  0  0  0  0
 22  2  1  1  0  0  0
 22  6  1  0  0  0  0
 22 16  1  0  0  0  0
 23 28  1  0  0  0  0
 25 28  2  0  0  0  0
 26 11  1  0  0  0  0
 27  4  2  0  0  0  0
 27 20  1  0  0  0  0
 28 24  1  0  0  0  0
 29 20  1  0  0  0  0
 30 34  1  0  0  0  0
 31 30  2  0  0  0  0
 33 37  1  0  0  0  0
 33 36  1  0  0  0  0
 34 33  1  0  0  0  0
 35 32  1  0  0  0  0
 36 32  1  0  0  0  0
 37 35  1  0  0  0  0
 38 34  2  0  0  0  0
 39 27  1  0  0  0  0
 39 40  1  0  0  0  0
 41 42  1  0  0  0  0
 41 40  1  0  0  0  0
 43 45  1  0  0  0  0
 44 42  1  0  0  0  0
 44 43  2  0  0  0  0
 45 46  1  0  0  0  0
 46 48  1  0  0  0  0
 47 48  1  0  0  0  0
 48 49  2  0  0  0  0
M  END
>  <MODEL>
2

>  <REMARK>
 VINA RESULT:      -7.1      3.749      5.496
  Name = 
  10 active torsions:
  status: ('A' for Active; 'I' for Inactive)
    1  A    between atoms: C_8  and  C_24
    2  A    between atoms: C_8  and  O_32
    3  A    between atoms: C_9  and  C_14
    4  A    between atoms: C_9  and  C_31
    5  A    between atoms: N_11  and  C_16
    6  A    between atoms: C_15  and  C_17
    7  A    between atoms: C_17  and  C_24
    8  A    between atoms: C_31  and  C_44
    9  A    between atoms: O_32  and  C_45
   10  A    between atoms: C_34  and  C_46
                            x       y       z     vdW  Elec       q    Type
                         _______ _______ _______ _____ _____    ______ ____

>  <TORSDO>
F 10

$$$$
=
 OpenBabel10222419233D

 49 55  0  0  1  0  0  0  0  0999 V2000
  180.6730  178.7590  143.2950 S   0  0  0  0  0  0  0  0  0  0  0  0
  185.6180  179.9460  143.0310 O   0  0  0  0  0  0  0  0  0  0  0  0
  182.0710  179.1410  141.1100 N   0  0  0  0  0  0  0  0  0  0  0  0
  189.4500  177.9480  137.7780 C   0  0  0  0  0  3  0  0  0  0  0  0
  184.9730  177.0540  136.6590 C   0  0  0  0  0  2  0  0  0  0  0  0
  186.7150  178.1170  141.8690 C   0  0  1  0  0  3  0  0  0  0  0  0
  182.2670  178.6240  142.4520 C   0  0  1  0  0  3  0  0  0  0  0  0
  179.9070  179.4170  141.7840 C   0  0  2  0  0  3  0  0  0  0  0  0
  182.8070  178.6290  139.9950 C   0  0  0  0  0  0  0  0  0  0  0  0
  180.9390  179.9290  140.8990 N   0  0  0  0  0  2  0  0  0  0  0  0
  186.4890  177.5430  144.2820 C   0  0  0  0  0  3  0  0  0  0  0  0
  183.0090  177.2820  139.8740 N   0  0  0  0  0  0  0  0  0  0  0  0
  183.6800  176.7590  138.8070 C   0  0  0  0  0  3  0  0  0  0  0  0
  184.1970  177.6020  137.8170 C   0  0  0  0  0  0  0  0  0  0  0  0
  183.2900  179.5050  139.0090 C   0  0  0  0  0  3  0  0  0  0  0  0
  184.6660  178.9200  143.1840 C   0  0  1  0  0  0  0  0  0  0  0  0
  178.9310  180.5180  142.1460 C   0  0  0  0  0  1  0  0  0  0  0  0
  183.2660  179.5060  143.1920 C   0  0  0  0  0  2  0  0  0  0  0  0
  187.2580  177.5990  143.1950 C   0  0  0  0  0  0  0  0  0  0  0  0
  187.2260  176.9800  137.7750 C   0  0  0  0  0  0  0  0  0  0  0  0
  183.9950  178.9850  137.9210 C   0  0  0  0  0  3  0  0  0  0  0  0
  185.4830  179.0410  141.9520 C   0  0  1  0  0  3  0  0  0  0  0  0
  187.0180  177.4990  139.0570 C   0  0  0  0  0  3  0  0  0  0  0  0
  187.7820  178.8490  141.0550 C   0  0  0  0  0  2  0  0  0  0  0  0
  189.2300  178.4640  139.0570 C   0  0  0  0  0  3  0  0  0  0  0  0
  185.0460  177.9390  144.2930 C   0  0  0  0  0  2  0  0  0  0  0  0
  188.4520  177.2020  137.1270 C   0  0  0  0  0  0  0  0  0  0  0  0
  188.0170  178.2340  139.7080 C   0  0  0  0  0  0  0  0  0  0  0  0
  186.1400  176.1790  137.1190 C   0  0  0  0  0  2  0  0  0  0  0  0
  189.2900  177.1120  144.4220 N   0  0  0  0  0  0  0  0  0  0  0  0
  188.6030  177.0200  143.3260 C   0  0  0  0  0  3  0  0  0  0  0  0
  191.6940  176.7290  148.2240 C   0  0  0  0  0  2  0  0  0  0  0  0
  191.1890  176.4130  145.9240 N   0  0  0  0  0  0  0  0  0  0  0  0
  190.6000  176.5600  144.6140 C   0  0  0  0  0  0  0  0  0  0  0  0
  192.6440  175.6860  147.6460 C   0  0  0  0  0  2  0  0  0  0  0  0
  190.6940  177.0500  147.1380 C   0  0  0  0  0  2  0  0  0  0  0  0
  192.3990  175.6460  146.1500 C   0  0  0  0  0  2  0  0  0  0  0  0
  191.2780  176.2180  143.5660 N   0  0  0  0  0  2  0  0  0  0  0  0
  188.6630  176.6710  135.8510 O   0  0  0  0  0  0  0  0  0  0  0  0
  189.5030  175.5480  135.6130 C   0  0  0  0  0  2  0  0  0  0  0  0
  189.8160  174.8460  136.9240 C   0  0  0  0  0  2  0  0  0  0  0  0
  191.2490  174.3440  136.9090 C   0  0  0  0  0  2  0  0  0  0  0  0
  193.1810  175.8420  137.3600 C   0  0  0  0  0  3  0  0  0  0  0  0
  192.0900  175.2130  137.7970 C   0  0  0  0  0  3  0  0  0  0  0  0
  193.6590  175.7400  135.9420 C   0  0  0  0  0  2  0  0  0  0  0  0
  194.7980  174.7440  135.8270 C   0  0  0  0  0  2  0  0  0  0  0  0
  196.5350  174.6890  137.6650 N   0  0  0  0  0  1  0  0  0  0  0  0
  196.0400  175.2740  136.4610 C   0  0  0  0  0  0  0  0  0  0  0  0
  196.6520  176.2350  135.9320 O   0  0  0  0  0  0  0  0  0  0  0  0
  2 16  1  0  0  0  0
  3  7  1  0  0  0  0
  4 25  1  0  0  0  0
  5 29  1  0  0  0  0
  5 14  1  0  0  0  0
  6 24  1  1  0  0  0
  6 22  1  0  0  0  0
  6 19  1  0  0  0  0
  7 18  1  1  0  0  0
  7  1  1  0  0  0  0
  8 17  1  1  0  0  0
  8  1  1  0  0  0  0
  9  3  1  0  0  0  0
 10  3  1  0  0  0  0
 10  8  1  0  0  0  0
 11 26  1  0  0  0  0
 12  9  1  0  0  0  0
 13 12  2  0  0  0  0
 14 21  2  0  0  0  0
 14 13  1  0  0  0  0
 15  9  2  0  0  0  0
 16 18  1  6  0  0  0
 16 26  1  0  0  0  0
 19 31  1  0  0  0  0
 19 11  2  0  0  0  0
 20 23  2  0  0  0  0
 21 15  1  0  0  0  0
 22  2  1  1  0  0  0
 22 16  1  0  0  0  0
 23 28  1  0  0  0  0
 25 28  2  0  0  0  0
 27 20  1  0  0  0  0
 27  4  2  0  0  0  0
 28 24  1  0  0  0  0
 29 20  1  0  0  0  0
 30 34  1  0  0  0  0
 31 30  2  0  0  0  0
 33 37  1  0  0  0  0
 33 36  1  0  0  0  0
 34 33  1  0  0  0  0
 35 32  1  0  0  0  0
 36 32  1  0  0  0  0
 37 35  1  0  0  0  0
 38 34  2  0  0  0  0
 39 27  1  0  0  0  0
 40 39  1  0  0  0  0
 40 41  1  0  0  0  0
 42 41  1  0  0  0  0
 42 44  1  0  0  0  0
 43 44  2  0  0  0  0
 45 43  1  0  0  0  0
 46 45  1  0  0  0  0
 46 48  1  0  0  0  0
 48 47  1  0  0  0  0
 49 48  2  0  0  0  0
M  END
>  <MODEL>
3

>  <REMARK>
 VINA RESULT:      -7.0      3.705      7.146
  Name = 
  10 active torsions:
  status: ('A' for Active; 'I' for Inactive)
    1  A    between atoms: C_8  and  C_24
    2  A    between atoms: C_8  and  O_32
    3  A    between atoms: C_9  and  C_14
    4  A    between atoms: C_9  and  C_31
    5  A    between atoms: N_11  and  C_16
    6  A    between atoms: C_15  and  C_17
    7  A    between atoms: C_17  and  C_24
    8  A    between atoms: C_31  and  C_44
    9  A    between atoms: O_32  and  C_45
   10  A    between atoms: C_34  and  C_46
                            x       y       z     vdW  Elec       q    Type
                         _______ _______ _______ _____ _____    ______ ____

>  <TORSDO>
F 10

$$$$
=
 OpenBabel10222419233D

 49 55  0  0  1  0  0  0  0  0999 V2000
  180.6210  178.8840  143.3310 S   0  0  0  0  0  0  0  0  0  0  0  0
  185.5940  179.9570  143.1370 O   0  0  0  0  0  0  0  0  0  0  0  0
  182.0460  179.2860  141.1670 N   0  0  0  0  0  0  0  0  0  0  0  0
  189.4240  177.9990  137.8660 C   0  0  0  0  0  3  0  0  0  0  0  0
  184.9360  177.2420  136.6890 C   0  0  0  0  0  2  0  0  0  0  0  0
  186.6580  178.1310  141.9380 C   0  0  1  0  0  3  0  0  0  0  0  0
  182.2180  178.7310  142.4980 C   0  0  1  0  0  3  0  0  0  0  0  0
  179.8830  179.5970  141.8310 C   0  0  2  0  0  3  0  0  0  0  0  0
  182.7800  178.7850  140.0460 C   0  0  0  0  0  0  0  0  0  0  0  0
  180.9360  180.1070  140.9670 N   0  0  0  0  0  2  0  0  0  0  0  0
  186.3960  177.5020  144.3340 C   0  0  0  0  0  3  0  0  0  0  0  0
  182.9500  177.4370  139.8920 N   0  0  0  0  0  0  0  0  0  0  0  0
  183.6180  176.9250  138.8180 C   0  0  0  0  0  3  0  0  0  0  0  0
  184.1640  177.7790  137.8540 C   0  0  0  0  0  0  0  0  0  0  0  0
  183.2910  179.6740  139.0860 C   0  0  0  0  0  3  0  0  0  0  0  0
  184.6160  178.9510  143.2560 C   0  0  1  0  0  0  0  0  0  0  0  0
  178.9310  180.7120  142.2120 C   0  0  0  0  0  1  0  0  0  0  0  0
  183.2310  179.5700  143.2670 C   0  0  0  0  0  2  0  0  0  0  0  0
  187.1760  177.5670  143.2550 C   0  0  0  0  0  0  0  0  0  0  0  0
  187.1770  177.0850  137.8210 C   0  0  0  0  0  0  0  0  0  0  0  0
  183.9930  179.1640  137.9910 C   0  0  0  0  0  3  0  0  0  0  0  0
  185.4480  179.0830  142.0340 C   0  0  1  0  0  3  0  0  0  0  0  0
  186.9700  177.5770  139.1140 C   0  0  0  0  0  3  0  0  0  0  0  0
  187.7490  178.8580  141.1520 C   0  0  0  0  0  2  0  0  0  0  0  0
  189.2040  178.4880  139.1560 C   0  0  0  0  0  3  0  0  0  0  0  0
  184.9630  177.9330  144.3430 C   0  0  0  0  0  2  0  0  0  0  0  0
  188.4130  177.2940  137.1890 C   0  0  0  0  0  0  0  0  0  0  0  0
  187.9800  178.2710  139.7910 C   0  0  0  0  0  0  0  0  0  0  0  0
  186.0780  176.3280  137.1360 C   0  0  0  0  0  2  0  0  0  0  0  0
  189.3570  177.3310  144.2850 N   0  0  0  0  0  0  0  0  0  0  0  0
  188.5050  176.9530  143.3820 C   0  0  0  0  0  3  0  0  0  0  0  0
  191.6260  176.5570  148.1100 C   0  0  0  0  0  2  0  0  0  0  0  0
  191.2050  176.4820  145.7740 N   0  0  0  0  0  0  0  0  0  0  0  0
  190.6620  176.7640  144.4650 C   0  0  0  0  0  0  0  0  0  0  0  0
  192.6010  175.5820  147.4610 C   0  0  0  0  0  2  0  0  0  0  0  0
  190.6630  176.9880  147.0280 C   0  0  0  0  0  2  0  0  0  0  0  0
  192.4100  175.6970  145.9610 C   0  0  0  0  0  2  0  0  0  0  0  0
  191.3790  176.5340  143.4130 N   0  0  0  0  0  2  0  0  0  0  0  0
  188.6230  176.7900  135.9010 O   0  0  0  0  0  0  0  0  0  0  0  0
  189.8620  176.2280  135.4860 C   0  0  0  0  0  2  0  0  0  0  0  0
  189.9260  174.7620  135.8770 C   0  0  0  0  0  2  0  0  0  0  0  0
  188.5850  174.1010  135.6150 C   0  0  0  0  0  2  0  0  0  0  0  0
  187.0600  172.5800  136.8580 C   0  0  0  0  0  3  0  0  0  0  0  0
  188.1770  173.3070  136.8220 C   0  0  0  0  0  3  0  0  0  0  0  0
  186.1170  172.4880  135.6950 C   0  0  0  0  0  2  0  0  0  0  0  0
  184.8220  171.8090  136.1030 C   0  0  0  0  0  2  0  0  0  0  0  0
  183.6370  173.6190  137.4150 N   0  0  0  0  0  1  0  0  0  0  0  0
  183.7190  172.8030  136.2460 C   0  0  0  0  0  0  0  0  0  0  0  0
  182.8640  172.9240  135.3340 O   0  0  0  0  0  0  0  0  0  0  0  0
  2 16  1  0  0  0  0
  3  7  1  0  0  0  0
  4 25  1  0  0  0  0
  5 29  1  0  0  0  0
  5 14  1  0  0  0  0
  6 24  1  1  0  0  0
  6 22  1  0  0  0  0
  6 19  1  0  0  0  0
  7 18  1  1  0  0  0
  7  1  1  0  0  0  0
  8 17  1  1  0  0  0
  8  1  1  0  0  0  0
  9  3  1  0  0  0  0
 10  3  1  0  0  0  0
 10  8  1  0  0  0  0
 11 26  1  0  0  0  0
 12  9  1  0  0  0  0
 13 12  2  0  0  0  0
 14 21  2  0  0  0  0
 14 13  1  0  0  0  0
 15  9  2  0  0  0  0
 16 18  1  6  0  0  0
 16 26  1  0  0  0  0
 19 31  1  0  0  0  0
 19 11  2  0  0  0  0
 20 23  2  0  0  0  0
 21 15  1  0  0  0  0
 22  2  1  1  0  0  0
 22 16  1  0  0  0  0
 23 28  1  0  0  0  0
 25 28  2  0  0  0  0
 27 20  1  0  0  0  0
 27  4  2  0  0  0  0
 28 24  1  0  0  0  0
 29 20  1  0  0  0  0
 30 34  1  0  0  0  0
 31 30  2  0  0  0  0
 33 37  1  0  0  0  0
 33 36  1  0  0  0  0
 34 33  1  0  0  0  0
 35 32  1  0  0  0  0
 36 32  1  0  0  0  0
 37 35  1  0  0  0  0
 38 34  2  0  0  0  0
 39 27  1  0  0  0  0
 40 41  1  0  0  0  0
 40 39  1  0  0  0  0
 42 41  1  0  0  0  0
 42 44  1  0  0  0  0
 44 43  2  0  0  0  0
 45 46  1  0  0  0  0
 45 43  1  0  0  0  0
 46 48  1  0  0  0  0
 48 47  1  0  0  0  0
 49 48  2  0  0  0  0
M  END
>  <MODEL>
4

>  <REMARK>
 VINA RESULT:      -7.0      2.750      7.266
  Name = 
  10 active torsions:
  status: ('A' for Active; 'I' for Inactive)
    1  A    between atoms: C_8  and  C_24
    2  A    between atoms: C_8  and  O_32
    3  A    between atoms: C_9  and  C_14
    4  A    between atoms: C_9  and  C_31
    5  A    between atoms: N_11  and  C_16
    6  A    between atoms: C_15  and  C_17
    7  A    between atoms: C_17  and  C_24
    8  A    between atoms: C_31  and  C_44
    9  A    between atoms: O_32  and  C_45
   10  A    between atoms: C_34  and  C_46
                            x       y       z     vdW  Elec       q    Type
                         _______ _______ _______ _____ _____    ______ ____

>  <TORSDO>
F 10

$$$$
=
 OpenBabel10222419233D

 49 55  0  0  1  0  0  0  0  0999 V2000
  191.6670  173.7700  135.3690 S   0  0  0  0  0  0  0  0  0  0  0  0
  186.9990  175.7450  134.8800 O   0  0  0  0  0  0  0  0  0  0  0  0
  190.7690  175.9540  136.5100 N   0  0  0  0  0  0  0  0  0  0  0  0
  184.1200  179.2890  139.9220 C   0  0  0  0  0  3  0  0  0  0  0  0
  188.6320  178.6400  141.0710 C   0  0  0  0  0  2  0  0  0  0  0  0
  185.9940  175.7220  137.0910 C   0  0  1  0  0  3  0  0  0  0  0  0
  190.2660  174.6590  136.0880 C   0  0  1  0  0  3  0  0  0  0  0  0
  192.7730  175.1590  135.7560 C   0  0  2  0  0  3  0  0  0  0  0  0
  190.2260  176.6350  137.6440 C   0  0  0  0  0  0  0  0  0  0  0  0
  191.9870  176.3640  135.9640 N   0  0  0  0  0  2  0  0  0  0  0  0
  185.6860  173.4940  136.0230 C   0  0  0  0  0  3  0  0  0  0  0  0
  189.9330  175.9360  138.7820 N   0  0  0  0  0  0  0  0  0  0  0  0
  189.4420  176.5600  139.8910 C   0  0  0  0  0  3  0  0  0  0  0  0
  189.2090  177.9400  139.8790 C   0  0  0  0  0  0  0  0  0  0  0  0
  190.0290  178.0260  137.6010 C   0  0  0  0  0  3  0  0  0  0  0  0
  187.8060  174.7930  135.5320 C   0  0  1  0  0  0  0  0  0  0  0  0
  193.7530  175.3620  134.6180 C   0  0  0  0  0  1  0  0  0  0  0  0
  189.2230  174.8560  134.9930 C   0  0  0  0  0  2  0  0  0  0  0  0
  185.1560  174.5130  136.6990 C   0  0  0  0  0  0  0  0  0  0  0  0
  186.2060  178.2240  140.5570 C   0  0  0  0  0  0  0  0  0  0  0  0
  189.5100  178.6750  138.7240 C   0  0  0  0  0  3  0  0  0  0  0  0
  187.2630  175.9730  136.2510 C   0  0  1  0  0  3  0  0  0  0  0  0
  186.2000  177.5310  139.3420 C   0  0  0  0  0  3  0  0  0  0  0  0
  185.1800  177.0160  137.0860 C   0  0  0  0  0  2  0  0  0  0  0  0
  184.1290  178.5950  138.7100 C   0  0  0  0  0  3  0  0  0  0  0  0
  187.1270  173.4270  135.6280 C   0  0  0  0  0  2  0  0  0  0  0  0
  185.1570  179.1100  140.8550 C   0  0  0  0  0  0  0  0  0  0  0  0
  185.1630  177.7040  138.4180 C   0  0  0  0  0  0  0  0  0  0  0  0
  187.3240  177.9960  141.5310 C   0  0  0  0  0  2  0  0  0  0  0  0
  182.7660  174.3740  136.3160 N   0  0  0  0  0  0  0  0  0  0  0  0
  183.7650  174.3380  137.1430 C   0  0  0  0  0  3  0  0  0  0  0  0
  180.1190  170.7500  135.8300 C   0  0  0  0  0  2  0  0  0  0  0  0
  180.7150  172.9310  136.5590 N   0  0  0  0  0  0  0  0  0  0  0  0
  181.3920  174.2000  136.6870 C   0  0  0  0  0  0  0  0  0  0  0  0
  179.0880  171.2340  136.8420 C   0  0  0  0  0  2  0  0  0  0  0  0
  181.2110  171.7930  135.7950 C   0  0  0  0  0  2  0  0  0  0  0  0
  179.4120  172.6840  137.1460 C   0  0  0  0  0  2  0  0  0  0  0  0
  180.7400  175.2320  137.1160 N   0  0  0  0  0  2  0  0  0  0  0  0
  185.1570  179.7910  142.0760 O   0  0  0  0  0  0  0  0  0  0  0  0
  184.3720  179.3780  143.1880 C   0  0  0  0  0  2  0  0  0  0  0  0
  185.2280  179.3350  144.4420 C   0  0  0  0  0  2  0  0  0  0  0  0
  185.7860  177.9360  144.6370 C   0  0  0  0  0  2  0  0  0  0  0  0
  187.7890  177.5310  146.0530 C   0  0  0  0  0  3  0  0  0  0  0  0
  186.5020  177.8660  145.9540 C   0  0  0  0  0  3  0  0  0  0  0  0
  188.6330  177.2020  144.8570 C   0  0  0  0  0  2  0  0  0  0  0  0
  189.8150  178.1490  144.7540 C   0  0  0  0  0  2  0  0  0  0  0  0
  191.5410  177.4700  143.0340 N   0  0  0  0  0  1  0  0  0  0  0  0
  191.0570  177.4160  144.3760 C   0  0  0  0  0  0  0  0  0  0  0  0
  191.6810  176.7530  145.2420 O   0  0  0  0  0  0  0  0  0  0  0  0
  1  8  1  0  0  0  0
  1  7  1  0  0  0  0
  2 16  1  0  0  0  0
  3  9  1  0  0  0  0
  4 27  1  0  0  0  0
  5 29  1  0  0  0  0
  6 24  1  6  0  0  0
  7 18  1  6  0  0  0
  7  3  1  0  0  0  0
  8 17  1  6  0  0  0
  8 10  1  0  0  0  0
  9 12  1  0  0  0  0
 10  3  1  0  0  0  0
 11 19  2  0  0  0  0
 12 13  2  0  0  0  0
 14 13  1  0  0  0  0
 14  5  1  0  0  0  0
 15  9  2  0  0  0  0
 15 21  1  0  0  0  0
 16 18  1  6  0  0  0
 16 26  1  0  0  0  0
 16 22  1  0  0  0  0
 19  6  1  0  0  0  0
 19 31  1  0  0  0  0
 20 27  2  0  0  0  0
 20 29  1  0  0  0  0
 21 14  2  0  0  0  0
 22  2  1  6  0  0  0
 22  6  1  0  0  0  0
 23 20  1  0  0  0  0
 24 28  1  0  0  0  0
 25  4  2  0  0  0  0
 26 11  1  0  0  0  0
 27 39  1  0  0  0  0
 28 25  1  0  0  0  0
 28 23  2  0  0  0  0
 30 34  1  0  0  0  0
 30 31  2  0  0  0  0
 32 35  1  0  0  0  0
 33 34  1  0  0  0  0
 33 37  1  0  0  0  0
 34 38  2  0  0  0  0
 35 37  1  0  0  0  0
 36 32  1  0  0  0  0
 36 33  1  0  0  0  0
 39 40  1  0  0  0  0
 40 41  1  0  0  0  0
 41 42  1  0  0  0  0
 42 44  1  0  0  0  0
 44 43  2  0  0  0  0
 45 43  1  0  0  0  0
 46 45  1  0  0  0  0
 47 48  1  0  0  0  0
 48 46  1  0  0  0  0
 48 49  2  0  0  0  0
M  END
>  <MODEL>
5

>  <REMARK>
 VINA RESULT:      -6.7      3.208      7.716
  Name = 
  10 active torsions:
  status: ('A' for Active; 'I' for Inactive)
    1  A    between atoms: C_8  and  C_24
    2  A    between atoms: C_8  and  O_32
    3  A    between atoms: C_9  and  C_14
    4  A    between atoms: C_9  and  C_31
    5  A    between atoms: N_11  and  C_16
    6  A    between atoms: C_15  and  C_17
    7  A    between atoms: C_17  and  C_24
    8  A    between atoms: C_31  and  C_44
    9  A    between atoms: O_32  and  C_45
   10  A    between atoms: C_34  and  C_46
                            x       y       z     vdW  Elec       q    Type
                         _______ _______ _______ _____ _____    ______ ____

>  <TORSDO>
F 10

$$$$
=
 OpenBabel10222419233D

 49 55  0  0  1  0  0  0  0  0999 V2000
  191.8510  173.8760  135.4010 S   0  0  0  0  0  0  0  0  0  0  0  0
  187.1740  175.8190  134.8720 O   0  0  0  0  0  0  0  0  0  0  0  0
  190.9200  176.0370  136.5590 N   0  0  0  0  0  0  0  0  0  0  0  0
  184.1950  179.2690  139.9210 C   0  0  0  0  0  3  0  0  0  0  0  0
  188.6960  178.6420  141.1250 C   0  0  0  0  0  2  0  0  0  0  0  0
  186.1390  175.7580  137.0690 C   0  0  1  0  0  3  0  0  0  0  0  0
  190.4330  174.7440  136.1120 C   0  0  1  0  0  3  0  0  0  0  0  0
  192.9400  175.2690  135.8220 C   0  0  2  0  0  3  0  0  0  0  0  0
  190.3550  176.6980  137.6940 C   0  0  0  0  0  0  0  0  0  0  0  0
  192.1410  176.4640  136.0360 N   0  0  0  0  0  2  0  0  0  0  0  0
  185.8650  173.5410  135.9660 C   0  0  0  0  0  3  0  0  0  0  0  0
  190.0510  175.9800  138.8180 N   0  0  0  0  0  0  0  0  0  0  0  0
  189.5400  176.5850  139.9280 C   0  0  0  0  0  3  0  0  0  0  0  0
  189.2950  177.9630  139.9320 C   0  0  0  0  0  0  0  0  0  0  0  0
  190.1470  178.0870  137.6680 C   0  0  0  0  0  3  0  0  0  0  0  0
  187.9800  174.8660  135.5230 C   0  0  1  0  0  0  0  0  0  0  0  0
  193.9340  175.4960  134.7010 C   0  0  0  0  0  1  0  0  0  0  0  0
  189.4040  174.9470  135.0050 C   0  0  0  0  0  2  0  0  0  0  0  0
  185.3160  174.5470  136.6480 C   0  0  0  0  0  0  0  0  0  0  0  0
  186.2800  178.2120  140.5710 C   0  0  0  0  0  0  0  0  0  0  0  0
  189.6060  178.7160  138.7910 C   0  0  0  0  0  3  0  0  0  0  0  0
  187.4170  176.0310  136.2500 C   0  0  1  0  0  3  0  0  0  0  0  0
  186.2980  177.5370  139.3470 C   0  0  0  0  0  3  0  0  0  0  0  0
  185.3140  177.0450  137.0690 C   0  0  0  0  0  2  0  0  0  0  0  0
  184.2260  178.5920  138.7010 C   0  0  0  0  0  3  0  0  0  0  0  0
  187.3120  173.4920  135.5900 C   0  0  0  0  0  2  0  0  0  0  0  0
  185.2200  179.0850  140.8660 C   0  0  0  0  0  0  0  0  0  0  0  0
  185.2720  177.7140  138.4110 C   0  0  0  0  0  0  0  0  0  0  0  0
  187.3870  177.9800  141.5580 C   0  0  0  0  0  2  0  0  0  0  0  0
  182.9240  174.8460  136.4020 N   0  0  0  0  0  0  0  0  0  0  0  0
  183.9210  174.3540  137.0700 C   0  0  0  0  0  3  0  0  0  0  0  0
  180.6430  176.6090  139.8770 C   0  0  0  0  0  2  0  0  0  0  0  0
  180.9380  175.4090  137.8480 N   0  0  0  0  0  0  0  0  0  0  0  0
  181.5430  174.6830  136.7560 C   0  0  0  0  0  0  0  0  0  0  0  0
  179.2770  176.3440  139.2550 C   0  0  0  0  0  2  0  0  0  0  0  0
  181.6720  176.1330  138.8780 C   0  0  0  0  0  2  0  0  0  0  0  0
  179.5040  175.4330  138.0630 C   0  0  0  0  0  2  0  0  0  0  0  0
  180.8380  173.8290  136.0870 N   0  0  0  0  0  2  0  0  0  0  0  0
  185.1970  179.7500  142.0970 O   0  0  0  0  0  0  0  0  0  0  0  0
  184.3850  179.3250  143.1860 C   0  0  0  0  0  2  0  0  0  0  0  0
  185.1950  179.3300  144.4710 C   0  0  0  0  0  2  0  0  0  0  0  0
  185.8370  177.9710  144.6800 C   0  0  0  0  0  2  0  0  0  0  0  0
  187.8390  177.6010  146.1070 C   0  0  0  0  0  3  0  0  0  0  0  0
  186.5600  177.9590  145.9950 C   0  0  0  0  0  3  0  0  0  0  0  0
  188.6690  177.1860  144.9280 C   0  0  0  0  0  2  0  0  0  0  0  0
  189.8170  178.1540  144.7090 C   0  0  0  0  0  2  0  0  0  0  0  0
  191.6460  177.4550  143.1060 N   0  0  0  0  0  1  0  0  0  0  0  0
  191.0850  177.4230  144.4190 C   0  0  0  0  0  0  0  0  0  0  0  0
  191.6620  176.7830  145.3320 O   0  0  0  0  0  0  0  0  0  0  0  0
  1  8  1  0  0  0  0
  1  7  1  0  0  0  0
  2 16  1  0  0  0  0
  3  9  1  0  0  0  0
  4 27  1  0  0  0  0
  5 29  1  0  0  0  0
  6 24  1  6  0  0  0
  7 18  1  6  0  0  0
  7  3  1  0  0  0  0
  8 17  1  6  0  0  0
  8 10  1  0  0  0  0
  9 12  1  0  0  0  0
 10  3  1  0  0  0  0
 11 19  2  0  0  0  0
 12 13  2  0  0  0  0
 13 14  1  0  0  0  0
 14  5  1  0  0  0  0
 15  9  2  0  0  0  0
 15 21  1  0  0  0  0
 16 18  1  6  0  0  0
 16 26  1  0  0  0  0
 16 22  1  0  0  0  0
 19  6  1  0  0  0  0
 19 31  1  0  0  0  0
 20 27  2  0  0  0  0
 20 29  1  0  0  0  0
 21 14  2  0  0  0  0
 22  2  1  6  0  0  0
 22  6  1  0  0  0  0
 23 20  1  0  0  0  0
 24 28  1  0  0  0  0
 25  4  2  0  0  0  0
 26 11  1  0  0  0  0
 27 39  1  0  0  0  0
 28 25  1  0  0  0  0
 28 23  2  0  0  0  0
 30 34  1  0  0  0  0
 30 31  2  0  0  0  0
 33 37  1  0  0  0  0
 33 36  1  0  0  0  0
 34 33  1  0  0  0  0
 35 32  1  0  0  0  0
 36 32  1  0  0  0  0
 37 35  1  0  0  0  0
 38 34  2  0  0  0  0
 39 40  1  0  0  0  0
 40 41  1  0  0  0  0
 41 42  1  0  0  0  0
 42 44  1  0  0  0  0
 44 43  2  0  0  0  0
 45 43  1  0  0  0  0
 46 45  1  0  0  0  0
 47 48  1  0  0  0  0
 48 46  1  0  0  0  0
 48 49  2  0  0  0  0
M  END
>  <MODEL>
6

>  <REMARK>
 VINA RESULT:      -6.6      3.257      7.275
  Name = 
  10 active torsions:
  status: ('A' for Active; 'I' for Inactive)
    1  A    between atoms: C_8  and  C_24
    2  A    between atoms: C_8  and  O_32
    3  A    between atoms: C_9  and  C_14
    4  A    between atoms: C_9  and  C_31
    5  A    between atoms: N_11  and  C_16
    6  A    between atoms: C_15  and  C_17
    7  A    between atoms: C_17  and  C_24
    8  A    between atoms: C_31  and  C_44
    9  A    between atoms: O_32  and  C_45
   10  A    between atoms: C_34  and  C_46
                            x       y       z     vdW  Elec       q    Type
                         _______ _______ _______ _____ _____    ______ ____

>  <TORSDO>
F 10

$$$$
=
 OpenBabel10222419233D

 49 55  0  0  1  0  0  0  0  0999 V2000
  193.0540  173.4970  136.4670 S   0  0  0  0  0  0  0  0  0  0  0  0
  188.6230  175.1670  134.5940 O   0  0  0  0  0  0  0  0  0  0  0  0
  191.8180  175.7130  137.1260 N   0  0  0  0  0  0  0  0  0  0  0  0
  184.4000  178.9430  138.3590 C   0  0  0  0  0  3  0  0  0  0  0  0
  188.4640  178.6380  140.7020 C   0  0  0  0  0  2  0  0  0  0  0  0
  187.0690  175.2680  136.4590 C   0  0  1  0  0  3  0  0  0  0  0  0
  191.4860  174.3630  136.7090 C   0  0  1  0  0  3  0  0  0  0  0  0
  193.9740  174.9720  136.9990 C   0  0  2  0  0  3  0  0  0  0  0  0
  190.9720  176.4540  138.0110 C   0  0  0  0  0  0  0  0  0  0  0  0
  193.1230  176.1450  136.8820 N   0  0  0  0  0  2  0  0  0  0  0  0
  187.1260  172.9460  135.5580 C   0  0  0  0  0  3  0  0  0  0  0  0
  190.4100  175.8330  139.0930 N   0  0  0  0  0  0  0  0  0  0  0  0
  189.6240  176.5180  139.9720 C   0  0  0  0  0  3  0  0  0  0  0  0
  189.3580  177.8770  139.7720 C   0  0  0  0  0  0  0  0  0  0  0  0
  190.7500  177.8230  137.7900 C   0  0  0  0  0  3  0  0  0  0  0  0
  189.2590  174.3170  135.5200 C   0  0  1  0  0  0  0  0  0  0  0  0
  195.2140  175.1350  136.1430 C   0  0  0  0  0  1  0  0  0  0  0  0
  190.7650  174.4140  135.3670 C   0  0  0  0  0  2  0  0  0  0  0  0
  186.4040  173.9860  135.9750 C   0  0  0  0  0  0  0  0  0  0  0  0
  186.2750  178.0490  139.6130 C   0  0  0  0  0  0  0  0  0  0  0  0
  189.9310  178.5310  138.6730 C   0  0  0  0  0  3  0  0  0  0  0  0
  188.5070  175.5190  135.9600 C   0  0  1  0  0  3  0  0  0  0  0  0
  186.6140  177.2610  138.5080 C   0  0  0  0  0  3  0  0  0  0  0  0
  186.2450  176.5100  136.1210 C   0  0  0  0  0  2  0  0  0  0  0  0
  184.7510  178.1540  137.2610 C   0  0  0  0  0  3  0  0  0  0  0  0
  188.6220  172.9270  135.5610 C   0  0  0  0  0  2  0  0  0  0  0  0
  185.1580  178.8970  139.5430 C   0  0  0  0  0  0  0  0  0  0  0  0
  185.8540  177.3010  137.3330 C   0  0  0  0  0  0  0  0  0  0  0  0
  187.1020  177.9620  140.8620 C   0  0  0  0  0  2  0  0  0  0  0  0
  184.3550  173.4860  137.1700 N   0  0  0  0  0  0  0  0  0  0  0  0
  184.9520  173.7710  136.0540 C   0  0  0  0  0  3  0  0  0  0  0  0
  181.2270  176.2270  138.9250 C   0  0  0  0  0  2  0  0  0  0  0  0
  182.0570  174.3060  137.8020 N   0  0  0  0  0  0  0  0  0  0  0  0
  182.9430  173.2760  137.3120 C   0  0  0  0  0  0  0  0  0  0  0  0
  180.0620  175.4890  138.2780 C   0  0  0  0  0  2  0  0  0  0  0  0
  182.4870  175.5280  138.4710 C   0  0  0  0  0  2  0  0  0  0  0  0
  180.6140  174.1880  137.7250 C   0  0  0  0  0  2  0  0  0  0  0  0
  182.4670  172.1090  137.0210 N   0  0  0  0  0  2  0  0  0  0  0  0
  184.8120  179.6740  140.6530 O   0  0  0  0  0  0  0  0  0  0  0  0
  183.7730  179.3100  141.5540 C   0  0  0  0  0  2  0  0  0  0  0  0
  184.3070  178.3500  142.6040 C   0  0  0  0  0  2  0  0  0  0  0  0
  185.3610  179.0430  143.4470 C   0  0  0  0  0  2  0  0  0  0  0  0
  185.9980  177.9490  145.5870 C   0  0  0  0  0  3  0  0  0  0  0  0
  185.1450  178.7030  144.8920 C   0  0  0  0  0  3  0  0  0  0  0  0
  187.2490  177.3810  144.9860 C   0  0  0  0  0  2  0  0  0  0  0  0
  188.3250  177.2090  146.0420 C   0  0  0  0  0  2  0  0  0  0  0  0
  190.8520  177.1150  146.1090 N   0  0  0  0  0  1  0  0  0  0  0  0
  189.6580  177.6330  145.5240 C   0  0  0  0  0  0  0  0  0  0  0  0
  189.7280  178.4440  144.5670 O   0  0  0  0  0  0  0  0  0  0  0  0
  1  7  1  0  0  0  0
  1  8  1  0  0  0  0
  2 16  1  0  0  0  0
  3  9  1  0  0  0  0
  4 27  1  0  0  0  0
  5 29  1  0  0  0  0
  6 24  1  6  0  0  0
  7 18  1  6  0  0  0
  7  3  1  0  0  0  0
  8 17  1  6  0  0  0
  9 12  1  0  0  0  0
 10  8  1  0  0  0  0
 10  3  1  0  0  0  0
 11 26  1  0  0  0  0
 11 19  2  0  0  0  0
 12 13  2  0  0  0  0
 14 13  1  0  0  0  0
 14  5  1  0  0  0  0
 15  9  2  0  0  0  0
 15 21  1  0  0  0  0
 16 18  1  1  0  0  0
 16 26  1  0  0  0  0
 16 22  1  0  0  0  0
 19 31  1  0  0  0  0
 19  6  1  0  0  0  0
 20 29  1  0  0  0  0
 21 14  2  0  0  0  0
 22  2  1  6  0  0  0
 22  6  1  0  0  0  0
 23 20  1  0  0  0  0
 24 28  1  0  0  0  0
 25 28  1  0  0  0  0
 25  4  2  0  0  0  0
 27 20  2  0  0  0  0
 27 39  1  0  0  0  0
 28 23  2  0  0  0  0
 30 34  1  0  0  0  0
 31 30  2  0  0  0  0
 33 36  1  0  0  0  0
 34 33  1  0  0  0  0
 35 32  1  0  0  0  0
 36 32  1  0  0  0  0
 37 33  1  0  0  0  0
 37 35  1  0  0  0  0
 38 34  2  0  0  0  0
 39 40  1  0  0  0  0
 40 41  1  0  0  0  0
 41 42  1  0  0  0  0
 42 44  1  0  0  0  0
 44 43  2  0  0  0  0
 45 43  1  0  0  0  0
 45 46  1  0  0  0  0
 48 46  1  0  0  0  0
 48 47  1  0  0  0  0
 49 48  2  0  0  0  0
M  END
>  <MODEL>
7

>  <REMARK>
 VINA RESULT:      -5.6      3.322      7.618
  Name = 
  10 active torsions:
  status: ('A' for Active; 'I' for Inactive)
    1  A    between atoms: C_8  and  C_24
    2  A    between atoms: C_8  and  O_32
    3  A    between atoms: C_9  and  C_14
    4  A    between atoms: C_9  and  C_31
    5  A    between atoms: N_11  and  C_16
    6  A    between atoms: C_15  and  C_17
    7  A    between atoms: C_17  and  C_24
    8  A    between atoms: C_31  and  C_44
    9  A    between atoms: O_32  and  C_45
   10  A    between atoms: C_34  and  C_46
                            x       y       z     vdW  Elec       q    Type
                         _______ _______ _______ _____ _____    ______ ____

>  <TORSDO>
F 10

$$$$
=
 OpenBabel10222419233D

 49 55  0  0  1  0  0  0  0  0999 V2000
  190.2210  177.7620  147.6340 S   0  0  0  0  0  0  0  0  0  0  0  0
  185.7510  176.7730  145.4030 O   0  0  0  0  0  0  0  0  0  0  0  0
  189.8530  176.9710  145.1610 N   0  0  0  0  0  0  0  0  0  0  0  0
  184.8510  177.7330  138.7290 C   0  0  0  0  0  3  0  0  0  0  0  0
  189.4530  178.1510  139.5900 C   0  0  0  0  0  2  0  0  0  0  0  0
  185.5220  178.3490  143.5680 C   0  0  1  0  0  3  0  0  0  0  0  0
  189.1760  177.7800  146.1580 C   0  0  1  0  0  3  0  0  0  0  0  0
  191.4600  176.7520  146.7690 C   0  0  2  0  0  3  0  0  0  0  0  0
  189.7430  177.2560  143.7640 C   0  0  0  0  0  0  0  0  0  0  0  0
  190.8440  176.1030  145.6220 N   0  0  0  0  0  2  0  0  0  0  0  0
  184.7730  179.4320  145.6820 C   0  0  0  0  0  3  0  0  0  0  0  0
  189.8020  178.5500  143.3270 N   0  0  0  0  0  0  0  0  0  0  0  0
  189.7310  178.8540  141.9990 C   0  0  0  0  0  3  0  0  0  0  0  0
  189.5750  177.8380  141.0500 C   0  0  0  0  0  0  0  0  0  0  0  0
  189.6120  176.2060  142.8400 C   0  0  0  0  0  3  0  0  0  0  0  0
  186.6790  177.7630  145.7800 C   0  0  1  0  0  0  0  0  0  0  0  0
  192.0240  175.7150  147.7180 C   0  0  0  0  0  1  0  0  0  0  0  0
  187.8450  177.1300  146.5170 C   0  0  0  0  0  2  0  0  0  0  0  0
  184.5430  179.1720  144.3950 C   0  0  0  0  0  0  0  0  0  0  0  0
  186.9740  178.5740  139.5480 C   0  0  0  0  0  0  0  0  0  0  0  0
  189.5190  176.5040  141.4780 C   0  0  0  0  0  3  0  0  0  0  0  0
  186.4590  177.4100  144.3550 C   0  0  1  0  0  3  0  0  0  0  0  0
  186.5390  178.3420  140.8570 C   0  0  0  0  0  3  0  0  0  0  0  0
  184.8150  177.5040  142.5080 C   0  0  0  0  0  2  0  0  0  0  0  0
  184.4300  177.5030  140.0400 C   0  0  0  0  0  3  0  0  0  0  0  0
  186.0020  178.9820  146.4070 C   0  0  0  0  0  2  0  0  0  0  0  0
  186.1250  178.2700  138.4720 C   0  0  0  0  0  0  0  0  0  0  0  0
  185.2670  177.8160  141.1120 C   0  0  0  0  0  0  0  0  0  0  0  0
  188.3360  179.1590  139.3160 C   0  0  0  0  0  2  0  0  0  0  0  0
  182.3260  179.1560  143.4150 N   0  0  0  0  0  0  0  0  0  0  0  0
  183.3660  179.8260  143.8060 C   0  0  0  0  0  3  0  0  0  0  0  0
  180.8900  179.0760  139.1360 C   0  0  0  0  0  2  0  0  0  0  0  0
  180.7740  179.5280  141.4650 N   0  0  0  0  0  0  0  0  0  0  0  0
  181.1460  179.7380  142.8440 C   0  0  0  0  0  0  0  0  0  0  0  0
  179.4610  179.4660  139.4950 C   0  0  0  0  0  2  0  0  0  0  0  0
  181.6520  178.9820  140.4380 C   0  0  0  0  0  2  0  0  0  0  0  0
  179.4740  179.9090  140.9450 C   0  0  0  0  0  2  0  0  0  0  0  0
  180.4190  180.5030  143.5940 N   0  0  0  0  0  2  0  0  0  0  0  0
  186.5560  178.5140  137.1640 O   0  0  0  0  0  0  0  0  0  0  0  0
  186.7920  177.4730  136.2240 C   0  0  0  0  0  2  0  0  0  0  0  0
  187.8990  177.8780  135.2650 C   0  0  0  0  0  2  0  0  0  0  0  0
  189.1390  177.0430  135.5270 C   0  0  0  0  0  2  0  0  0  0  0  0
  189.7400  175.3140  137.2100 C   0  0  0  0  0  3  0  0  0  0  0  0
  188.8070  175.9540  136.5050 C   0  0  0  0  0  3  0  0  0  0  0  0
  191.2020  175.6310  137.0910 C   0  0  0  0  0  2  0  0  0  0  0  0
  191.8180  175.8560  138.4590 C   0  0  0  0  0  2  0  0  0  0  0  0
  193.9020  176.3900  137.1280 N   0  0  0  0  0  1  0  0  0  0  0  0
  193.1610  176.4940  138.3440 C   0  0  0  0  0  0  0  0  0  0  0  0
  193.6390  177.1280  139.3170 O   0  0  0  0  0  0  0  0  0  0  0  0
  2 16  1  0  0  0  0
  3 10  1  0  0  0  0
  3  7  1  0  0  0  0
  4 25  1  0  0  0  0
  5 14  1  0  0  0  0
  6 24  1  6  0  0  0
  6 22  1  0  0  0  0
  6 19  1  0  0  0  0
  7 18  1  1  0  0  0
  7  1  1  0  0  0  0
  8  1  1  0  0  0  0
  8 17  1  1  0  0  0
  9  3  1  0  0  0  0
 10  8  1  0  0  0  0
 11 26  1  0  0  0  0
 12  9  1  0  0  0  0
 13 12  2  0  0  0  0
 14 21  2  0  0  0  0
 14 13  1  0  0  0  0
 15  9  2  0  0  0  0
 16 26  1  1  0  0  0
 16 18  1  0  0  0  0
 19 11  2  0  0  0  0
 20 23  2  0  0  0  0
 21 15  1  0  0  0  0
 22  2  1  1  0  0  0
 22 16  1  0  0  0  0
 23 28  1  0  0  0  0
 25 28  2  0  0  0  0
 27  4  2  0  0  0  0
 27 20  1  0  0  0  0
 28 24  1  0  0  0  0
 29 20  1  0  0  0  0
 29  5  1  0  0  0  0
 30 31  2  0  0  0  0
 31 19  1  0  0  0  0
 32 35  1  0  0  0  0
 32 36  1  0  0  0  0
 33 34  1  0  0  0  0
 34 30  1  0  0  0  0
 34 38  2  0  0  0  0
 35 37  1  0  0  0  0
 36 33  1  0  0  0  0
 37 33  1  0  0  0  0
 39 27  1  0  0  0  0
 40 39  1  0  0  0  0
 41 42  1  0  0  0  0
 41 40  1  0  0  0  0
 42 44  1  0  0  0  0
 44 43  2  0  0  0  0
 45 43  1  0  0  0  0
 45 46  1  0  0  0  0
 47 48  1  0  0  0  0
 48 46  1  0  0  0  0
 48 49  2  0  0  0  0
M  END
>  <MODEL>
8

>  <REMARK>
 VINA RESULT:      -5.5      4.728      8.472
  Name = 
  10 active torsions:
  status: ('A' for Active; 'I' for Inactive)
    1  A    between atoms: C_8  and  C_24
    2  A    between atoms: C_8  and  O_32
    3  A    between atoms: C_9  and  C_14
    4  A    between atoms: C_9  and  C_31
    5  A    between atoms: N_11  and  C_16
    6  A    between atoms: C_15  and  C_17
    7  A    between atoms: C_17  and  C_24
    8  A    between atoms: C_31  and  C_44
    9  A    between atoms: O_32  and  C_45
   10  A    between atoms: C_34  and  C_46
                            x       y       z     vdW  Elec       q    Type
                         _______ _______ _______ _____ _____    ______ ____

>  <TORSDO>
F 10

$$$$
=
 OpenBabel10222419233D

 49 55  0  0  1  0  0  0  0  0999 V2000
  185.5140  179.1650  145.5090 S   0  0  0  0  0  0  0  0  0  0  0  0
  183.3580  177.1750  141.3470 O   0  0  0  0  0  0  0  0  0  0  0  0
  186.7540  177.9920  143.5180 N   0  0  0  0  0  0  0  0  0  0  0  0
  186.6390  177.0500  135.3900 C   0  0  0  0  0  3  0  0  0  0  0  0
  189.7560  178.3150  138.6740 C   0  0  0  0  0  2  0  0  0  0  0  0
  184.2150  178.4250  139.4490 C   0  0  1  0  0  3  0  0  0  0  0  0
  185.5760  178.8120  143.7360 C   0  0  1  0  0  3  0  0  0  0  0  0
  187.0680  178.2570  145.7650 C   0  0  2  0  0  3  0  0  0  0  0  0
  187.5000  178.0610  142.3000 C   0  0  0  0  0  0  0  0  0  0  0  0
  187.3020  177.3670  144.6400 N   0  0  0  0  0  2  0  0  0  0  0  0
  182.2920  179.6550  140.4450 C   0  0  0  0  0  3  0  0  0  0  0  0
  187.7530  179.2760  141.7240 N   0  0  0  0  0  0  0  0  0  0  0  0
  188.4870  179.3780  140.5800 C   0  0  0  0  0  3  0  0  0  0  0  0
  188.9830  178.2290  139.9530 C   0  0  0  0  0  0  0  0  0  0  0  0
  188.0030  176.8860  141.7150 C   0  0  0  0  0  3  0  0  0  0  0  0
  183.8220  178.3430  141.9820 C   0  0  1  0  0  0  0  0  0  0  0  0
  186.9880  177.4650  147.0540 C   0  0  0  0  0  1  0  0  0  0  0  0
  184.3310  178.0120  143.3730 C   0  0  0  0  0  2  0  0  0  0  0  0
  182.8990  179.1860  139.3540 C   0  0  0  0  0  0  0  0  0  0  0  0
  187.7920  178.3250  137.1020 C   0  0  0  0  0  0  0  0  0  0  0  0
  188.7400  176.9760  140.5320 C   0  0  0  0  0  3  0  0  0  0  0  0
  184.5250  177.7660  140.8090 C   0  0  1  0  0  3  0  0  0  0  0  0
  186.6650  178.2090  137.9210 C   0  0  0  0  0  3  0  0  0  0  0  0
  184.3330  177.3400  138.3790 C   0  0  0  0  0  2  0  0  0  0  0  0
  185.5210  176.9380  136.2190 C   0  0  0  0  0  3  0  0  0  0  0  0
  182.8490  179.5120  141.8260 C   0  0  0  0  0  2  0  0  0  0  0  0
  187.7830  177.7430  135.8230 C   0  0  0  0  0  0  0  0  0  0  0  0
  185.5230  177.5260  137.4850 C   0  0  0  0  0  0  0  0  0  0  0  0
  188.9890  179.0830  137.5960 C   0  0  0  0  0  2  0  0  0  0  0  0
  181.4610  180.5470  137.9560 N   0  0  0  0  0  0  0  0  0  0  0  0
  182.2910  179.5560  138.0680 C   0  0  0  0  0  3  0  0  0  0  0  0
  180.7450  184.7210  136.3940 C   0  0  0  0  0  2  0  0  0  0  0  0
  180.7880  182.3470  136.3260 N   0  0  0  0  0  0  0  0  0  0  0  0
  180.8440  180.9620  136.7290 C   0  0  0  0  0  0  0  0  0  0  0  0
  180.5210  184.2620  134.9580 C   0  0  0  0  0  2  0  0  0  0  0  0
  181.0600  183.4820  137.2000 C   0  0  0  0  0  2  0  0  0  0  0  0
  180.3860  182.7510  134.9930 C   0  0  0  0  0  2  0  0  0  0  0  0
  180.2940  180.0560  135.9860 N   0  0  0  0  0  2  0  0  0  0  0  0
  188.9060  177.8710  135.0000 O   0  0  0  0  0  0  0  0  0  0  0  0
  189.7090  176.7620  134.6150 C   0  0  0  0  0  2  0  0  0  0  0  0
  190.1630  175.9960  135.8460 C   0  0  0  0  0  2  0  0  0  0  0  0
  191.6660  175.7890  135.7980 C   0  0  0  0  0  2  0  0  0  0  0  0
  193.3840  175.4630  137.5650 C   0  0  0  0  0  3  0  0  0  0  0  0
  192.2440  176.0250  137.1630 C   0  0  0  0  0  3  0  0  0  0  0  0
  194.1910  174.5520  136.6880 C   0  0  0  0  0  2  0  0  0  0  0  0
  195.6430  174.5250  137.1280 C   0  0  0  0  0  2  0  0  0  0  0  0
  196.0280  174.8710  139.6040 N   0  0  0  0  0  1  0  0  0  0  0  0
  195.7720  173.9870  138.5130 C   0  0  0  0  0  0  0  0  0  0  0  0
  195.6520  172.7540  138.7200 O   0  0  0  0  0  0  0  0  0  0  0  0
  1  8  1  0  0  0  0
  2 16  1  0  0  0  0
  3  7  1  0  0  0  0
  3 10  1  0  0  0  0
  4 27  2  0  0  0  0
  4 25  1  0  0  0  0
  5 14  1  0  0  0  0
  6 24  1  6  0  0  0
  6 22  1  0  0  0  0
  7 18  1  1  0  0  0
  7  1  1  0  0  0  0
  8 17  1  1  0  0  0
  9  3  1  0  0  0  0
 10  8  1  0  0  0  0
 11 26  1  0  0  0  0
 12  9  1  0  0  0  0
 13 12  2  0  0  0  0
 14 21  2  0  0  0  0
 14 13  1  0  0  0  0
 15  9  2  0  0  0  0
 16 26  1  6  0  0  0
 16 18  1  0  0  0  0
 19  6  1  0  0  0  0
 19 11  2  0  0  0  0
 20 29  1  0  0  0  0
 20 23  2  0  0  0  0
 21 15  1  0  0  0  0
 22  2  1  6  0  0  0
 22 16  1  0  0  0  0
 25 28  2  0  0  0  0
 27 20  1  0  0  0  0
 28 23  1  0  0  0  0
 28 24  1  0  0  0  0
 29  5  1  0  0  0  0
 30 31  2  0  0  0  0
 31 19  1  0  0  0  0
 32 36  1  0  0  0  0
 33 34  1  0  0  0  0
 33 36  1  0  0  0  0
 34 30  1  0  0  0  0
 35 37  1  0  0  0  0
 35 32  1  0  0  0  0
 37 33  1  0  0  0  0
 38 34  2  0  0  0  0
 39 27  1  0  0  0  0
 40 39  1  0  0  0  0
 40 41  1  0  0  0  0
 42 41  1  0  0  0  0
 42 44  1  0  0  0  0
 44 43  2  0  0  0  0
 45 46  1  0  0  0  0
 45 43  1  0  0  0  0
 46 48  1  0  0  0  0
 48 49  2  0  0  0  0
 48 47  1  0  0  0  0
M  END
>  <MODEL>
9

>  <REMARK>
 VINA RESULT:      -5.3      4.269      7.792
  Name = 
  10 active torsions:
  status: ('A' for Active; 'I' for Inactive)
    1  A    between atoms: C_8  and  C_24
    2  A    between atoms: C_8  and  O_32
    3  A    between atoms: C_9  and  C_14
    4  A    between atoms: C_9  and  C_31
    5  A    between atoms: N_11  and  C_16
    6  A    between atoms: C_15  and  C_17
    7  A    between atoms: C_17  and  C_24
    8  A    between atoms: C_31  and  C_44
    9  A    between atoms: O_32  and  C_45
   10  A    between atoms: C_34  and  C_46
                            x       y       z     vdW  Elec       q    Type
                         _______ _______ _______ _____ _____    ______ ____

>  <TORSDO>
F 10

$$$$
