=
 OpenBabel10222419153D

 35 43  0  0  1  0  0  0  0  0999 V2000
  183.4910  178.0490  140.7560 C   0  0  0  0  0  0  0  0  0  0  0  0
  182.3740  178.7350  140.0980 C   0  0  0  0  0  0  0  0  0  0  0  0
  183.7040  177.9600  142.0910 C   0  0  0  0  0  3  0  0  0  0  0  0
  181.8020  176.2600  138.3510 C   0  0  2  0  0  3  0  0  0  0  0  0
  184.0880  176.6700  137.5300 O   0  0  0  0  0  0  0  0  0  0  0  0
  183.3670  178.0800  139.3640 C   0  0  2  0  0  0  0  0  0  0  0  0
  182.6580  178.6470  142.8120 C   0  0  0  0  0  0  0  0  0  0  0  0
  181.5340  179.3320  142.1400 C   0  0  0  0  0  0  0  0  0  0  0  0
  183.1950  176.7870  138.6180 C   0  0  1  0  0  0  0  0  0  0  0  0
  181.2700  175.6000  139.6100 C   0  0  0  0  0  2  0  0  0  0  0  0
  184.4000  178.7720  138.6180 C   0  0  0  0  0  0  0  0  0  0  0  0
  182.7460  175.5000  139.2750 C   0  0  1  0  0  3  0  0  0  0  0  0
  184.8530  177.8790  137.5010 C   0  0  1  0  0  3  0  0  0  0  0  0
  181.3630  179.3990  140.7120 C   0  0  0  0  0  3  0  0  0  0  0  0
  184.8090  179.9030  138.8290 O   0  0  0  0  0  0  0  0  0  0  0  0
  188.2880  177.8880  136.1410 C   0  0  2  0  0  3  0  0  0  0  0  0
  188.6100  178.8320  137.3120 C   0  0  1  0  0  3  0  0  0  0  0  0
  187.1600  178.6360  136.8450 C   0  0  2  0  0  3  0  0  0  0  0  0
  186.3500  177.5850  137.6000 C   0  0  2  0  0  3  0  0  0  0  0  0
  186.7180  176.2380  137.0110 C   0  0  0  0  0  2  0  0  0  0  0  0
  188.1250  176.4110  136.4940 C   0  0  0  0  0  2  0  0  0  0  0  0
  189.7780  177.1340  141.1010 C   0  0  0  0  0  3  0  0  0  0  0  0
  190.2080  177.5010  138.7470 C   0  0  0  0  0  3  0  0  0  0  0  0
  188.1890  178.3750  139.7610 C   0  0  0  0  0  3  0  0  0  0  0  0
  188.9890  178.1830  138.6240 C   0  0  0  0  0  0  0  0  0  0  0  0
  188.5770  177.8410  140.9930 C   0  0  0  0  0  3  0  0  0  0  0  0
  190.5950  176.9680  139.9810 C   0  0  0  0  0  3  0  0  0  0  0  0
  183.8730  178.7720  145.0490 C   0  0  0  0  0  0  0  0  0  0  0  0
  184.0960  178.7830  146.3730 N   0  0  0  0  0  0  0  0  0  0  0  0
  185.5150  178.9330  146.1590 C   0  0  0  0  0  2  0  0  0  0  0  0
  182.6930  178.6660  144.2460 N   0  0  0  0  0  2  0  0  0  0  0  0
  185.3410  178.9280  144.7690 C   0  0  0  0  0  2  0  0  0  0  0  0
  180.5080  180.0290  142.9700 C   0  0  0  0  0  2  0  0  0  0  0  0
  179.3510  179.1890  143.1190 N   0  0  0  0  0  0  0  0  0  0  0  0
  179.1280  178.6260  144.2050 N   0  0  0  0  0  2  0  0  0  0  0  0
  1  3  1  0  0  0  0
  2 14  1  0  0  0  0
  2  1  2  0  0  0  0
  3  7  2  0  0  0  0
  4  9  1  0  0  0  0
  4 12  1  0  0  0  0
  4 10  1  1  0  0  0
  5  9  1  0  0  0  0
  6 11  1  6  0  0  0
  6  2  1  0  0  0  0
  6  1  1  0  0  0  0
  7 31  1  0  0  0  0
  8  7  1  0  0  0  0
  8 33  1  0  0  0  0
  9 12  1  0  0  0  0
  9  6  1  0  0  0  0
 11 15  2  0  0  0  0
 12 10  1  1  0  0  0
 13  5  1  1  0  0  0
 13 19  1  0  0  0  0
 13 11  1  0  0  0  0
 14  8  2  0  0  0  0
 16 21  1  1  0  0  0
 16 18  1  0  0  0  0
 16 17  1  0  0  0  0
 17 25  1  1  0  0  0
 18 17  1  0  0  0  0
 18 19  1  0  0  0  0
 20 19  1  0  0  0  0
 21 20  1  0  0  0  0
 23 27  1  0  0  0  0
 24 26  2  0  0  0  0
 25 23  2  0  0  0  0
 25 24  1  0  0  0  0
 26 22  1  0  0  0  0
 27 22  2  0  0  0  0
 28 29  2  0  0  0  0
 30 29  1  0  0  0  0
 31 28  1  0  0  0  0
 32 28  1  0  0  0  0
 32 30  1  0  0  0  0
 33 34  1  0  0  0  0
 34 35  2  0  0  0  0
M  END
>  <MODEL>
1

>  <REMARK>
 VINA RESULT:      -8.7      0.000      0.000
  Name = 
  5 active torsions:
  status: ('A' for Active; 'I' for Inactive)
    1  A    between atoms: C_11  and  C_25
    2  A    between atoms: C_13  and  N_31
    3  A    between atoms: C_15  and  C_27
    4  A    between atoms: C_16  and  C_17
    5  A    between atoms: C_17  and  N_28
                            x       y       z     vdW  Elec       q    Type
                         _______ _______ _______ _____ _____    ______ ____

>  <TORSDO>
F 5

$$$$
=
 OpenBabel10222419153D

 35 43  0  0  1  0  0  0  0  0999 V2000
  183.6300  177.8590  140.0270 C   0  0  0  0  0  0  0  0  0  0  0  0
  182.6290  178.4970  139.1650 C   0  0  0  0  0  0  0  0  0  0  0  0
  183.6510  177.8770  141.3830 C   0  0  0  0  0  3  0  0  0  0  0  0
  182.2630  175.8910  137.5580 C   0  0  2  0  0  3  0  0  0  0  0  0
  184.6490  176.2180  137.0390 O   0  0  0  0  0  0  0  0  0  0  0  0
  183.7030  177.7770  138.6340 C   0  0  2  0  0  0  0  0  0  0  0  0
  182.5270  178.6280  141.8900 C   0  0  0  0  0  0  0  0  0  0  0  0
  181.5210  179.2630  141.0140 C   0  0  0  0  0  0  0  0  0  0  0  0
  183.6140  176.4290  137.9770 C   0  0  1  0  0  0  0  0  0  0  0  0
  181.5470  175.3400  138.7780 C   0  0  0  0  0  2  0  0  0  0  0  0
  184.8440  178.3990  137.9890 C   0  0  0  0  0  0  0  0  0  0  0  0
  183.0540  175.2030  138.6640 C   0  0  1  0  0  3  0  0  0  0  0  0
  185.4320  177.4150  137.0230 C   0  0  1  0  0  3  0  0  0  0  0  0
  181.5540  179.2150  139.5750 C   0  0  0  0  0  3  0  0  0  0  0  0
  185.2390  179.5410  138.1650 O   0  0  0  0  0  0  0  0  0  0  0  0
  189.0000  177.1090  136.1130 C   0  0  2  0  0  3  0  0  0  0  0  0
  189.2200  178.2510  137.1180 C   0  0  1  0  0  3  0  0  0  0  0  0
  187.8280  177.9950  136.5230 C   0  0  2  0  0  3  0  0  0  0  0  0
  186.8950  177.1200  137.3560 C   0  0  2  0  0  3  0  0  0  0  0  0
  187.2760  175.6800  137.0750 C   0  0  0  0  0  2  0  0  0  0  0  0
  188.7390  175.7280  136.7110 C   0  0  0  0  0  2  0  0  0  0  0  0
  189.8740  177.2790  141.2690 C   0  0  0  0  0  3  0  0  0  0  0  0
  190.5790  177.1740  138.9560 C   0  0  0  0  0  3  0  0  0  0  0  0
  188.5100  178.2860  139.5420 C   0  0  0  0  0  3  0  0  0  0  0  0
  189.4190  177.8560  138.5640 C   0  0  0  0  0  0  0  0  0  0  0  0
  188.7310  177.9880  140.8900 C   0  0  0  0  0  3  0  0  0  0  0  0
  190.8000  176.8760  140.3040 C   0  0  0  0  0  3  0  0  0  0  0  0
  183.4190  178.8420  144.2680 C   0  0  0  0  0  0  0  0  0  0  0  0
  183.4530  178.9450  145.6070 N   0  0  0  0  0  0  0  0  0  0  0  0
  184.8960  178.9640  145.5950 C   0  0  0  0  0  2  0  0  0  0  0  0
  182.3610  178.7640  143.3090 N   0  0  0  0  0  2  0  0  0  0  0  0
  184.9200  178.8570  144.1990 C   0  0  0  0  0  2  0  0  0  0  0  0
  180.4020  180.0330  141.6320 C   0  0  0  0  0  2  0  0  0  0  0  0
  180.0130  181.1090  140.7600 N   0  0  0  0  0  0  0  0  0  0  0  0
  178.9310  181.6940  140.9400 N   0  0  0  0  0  2  0  0  0  0  0  0
  1  3  1  0  0  0  0
  2 14  1  0  0  0  0
  2  1  2  0  0  0  0
  3  7  2  0  0  0  0
  4  9  1  0  0  0  0
  4 12  1  0  0  0  0
  4 10  1  1  0  0  0
  5  9  1  0  0  0  0
  6 11  1  6  0  0  0
  6  2  1  0  0  0  0
  6  1  1  0  0  0  0
  7 31  1  0  0  0  0
  8 33  1  0  0  0  0
  8  7  1  0  0  0  0
  9  6  1  0  0  0  0
  9 12  1  0  0  0  0
 11 15  2  0  0  0  0
 12 10  1  1  0  0  0
 13  5  1  1  0  0  0
 13 19  1  0  0  0  0
 13 11  1  0  0  0  0
 14  8  2  0  0  0  0
 16 18  1  0  0  0  0
 16 21  1  1  0  0  0
 16 17  1  0  0  0  0
 17 25  1  1  0  0  0
 18 17  1  0  0  0  0
 18 19  1  0  0  0  0
 20 19  1  0  0  0  0
 21 20  1  0  0  0  0
 23 27  1  0  0  0  0
 24 26  2  0  0  0  0
 25 23  2  0  0  0  0
 25 24  1  0  0  0  0
 26 22  1  0  0  0  0
 27 22  2  0  0  0  0
 28 29  2  0  0  0  0
 30 29  1  0  0  0  0
 31 28  1  0  0  0  0
 32 28  1  0  0  0  0
 32 30  1  0  0  0  0
 34 35  2  0  0  0  0
 34 33  1  0  0  0  0
M  END
>  <MODEL>
2

>  <REMARK>
 VINA RESULT:      -7.8      1.104      1.242
  Name = 
  5 active torsions:
  status: ('A' for Active; 'I' for Inactive)
    1  A    between atoms: C_11  and  C_25
    2  A    between atoms: C_13  and  N_31
    3  A    between atoms: C_15  and  C_27
    4  A    between atoms: C_16  and  C_17
    5  A    between atoms: C_17  and  N_28
                            x       y       z     vdW  Elec       q    Type
                         _______ _______ _______ _____ _____    ______ ____

>  <TORSDO>
F 5

$$$$
=
 OpenBabel10222419153D

 35 43  0  0  1  0  0  0  0  0999 V2000
  188.7760  177.5990  144.0230 C   0  0  0  0  0  0  0  0  0  0  0  0
  189.7410  176.9350  144.9060 C   0  0  0  0  0  0  0  0  0  0  0  0
  187.5540  178.0680  144.3760 C   0  0  0  0  0  3  0  0  0  0  0  0
  192.0010  178.7920  143.9310 C   0  0  2  0  0  3  0  0  0  0  0  0
  191.5050  177.7700  141.7450 O   0  0  0  0  0  0  0  0  0  0  0  0
  190.0130  177.1510  143.5520 C   0  0  2  0  0  0  0  0  0  0  0  0
  187.3130  177.8270  145.7800 C   0  0  0  0  0  0  0  0  0  0  0  0
  188.2940  177.1620  146.6630 C   0  0  0  0  0  0  0  0  0  0  0  0
  190.9910  178.1530  143.0040 C   0  0  1  0  0  0  0  0  0  0  0  0
  191.3220  179.8940  144.7230 C   0  0  0  0  0  2  0  0  0  0  0  0
  190.0060  176.0980  142.5550 C   0  0  0  0  0  0  0  0  0  0  0  0
  190.9090  179.6370  143.2870 C   0  0  1  0  0  3  0  0  0  0  0  0
  190.9140  176.5050  141.4340 C   0  0  1  0  0  3  0  0  0  0  0  0
  189.5780  176.6770  146.2270 C   0  0  0  0  0  3  0  0  0  0  0  0
  189.4000  175.0400  142.6270 O   0  0  0  0  0  0  0  0  0  0  0  0
  189.8400  178.2350  138.3500 C   0  0  2  0  0  3  0  0  0  0  0  0
  190.6280  177.1380  137.6160 C   0  0  1  0  0  3  0  0  0  0  0  0
  190.9030  177.4350  139.0970 C   0  0  2  0  0  3  0  0  0  0  0  0
  190.1600  176.5620  140.1040 C   0  0  2  0  0  3  0  0  0  0  0  0
  188.7690  177.1450  140.2500 C   0  0  0  0  0  2  0  0  0  0  0  0
  188.4890  177.8190  138.9290 C   0  0  0  0  0  2  0  0  0  0  0  0
  188.5850  173.4810  136.5850 C   0  0  0  0  0  3  0  0  0  0  0  0
  188.6160  175.8980  136.7210 C   0  0  0  0  0  3  0  0  0  0  0  0
  190.5200  174.6160  137.4950 C   0  0  0  0  0  3  0  0  0  0  0  0
  189.8870  175.8550  137.3120 C   0  0  0  0  0  0  0  0  0  0  0  0
  189.8660  173.4320  137.1430 C   0  0  0  0  0  3  0  0  0  0  0  0
  187.9630  174.7130  136.3690 C   0  0  0  0  0  3  0  0  0  0  0  0
  184.8790  178.5700  145.6360 C   0  0  0  0  0  0  0  0  0  0  0  0
  183.6600  178.9990  145.9990 N   0  0  0  0  0  0  0  0  0  0  0  0
  183.2200  178.9920  144.6240 C   0  0  0  0  0  2  0  0  0  0  0  0
  186.0720  178.2550  146.3600 N   0  0  0  0  0  2  0  0  0  0  0  0
  184.4740  178.5450  144.1890 C   0  0  0  0  0  2  0  0  0  0  0  0
  187.9480  176.9420  148.0980 C   0  0  0  0  0  2  0  0  0  0  0  0
  188.2820  178.1120  148.8630 N   0  0  0  0  0  0  0  0  0  0  0  0
  189.4420  178.5590  148.8400 N   0  0  0  0  0  2  0  0  0  0  0  0
  1  3  2  0  0  0  0
  1  2  1  0  0  0  0
  2 14  2  0  0  0  0
  3  7  1  0  0  0  0
  4 10  1  1  0  0  0
  5  9  1  0  0  0  0
  6 11  1  6  0  0  0
  6  1  1  0  0  0  0
  6  2  1  0  0  0  0
  7 31  1  0  0  0  0
  7  8  2  0  0  0  0
  8 33  1  0  0  0  0
  9 12  1  0  0  0  0
  9  6  1  0  0  0  0
  9  4  1  0  0  0  0
 11 15  2  0  0  0  0
 12  4  1  0  0  0  0
 12 10  1  1  0  0  0
 13  5  1  1  0  0  0
 13 11  1  0  0  0  0
 14  8  1  0  0  0  0
 16 21  1  1  0  0  0
 16 18  1  0  0  0  0
 17 25  1  1  0  0  0
 17 16  1  0  0  0  0
 17 18  1  0  0  0  0
 18 19  1  0  0  0  0
 19 20  1  0  0  0  0
 19 13  1  0  0  0  0
 21 20  1  0  0  0  0
 22 26  1  0  0  0  0
 23 25  2  0  0  0  0
 25 24  1  0  0  0  0
 26 24  2  0  0  0  0
 27 22  2  0  0  0  0
 27 23  1  0  0  0  0
 28 29  2  0  0  0  0
 28 31  1  0  0  0  0
 30 29  1  0  0  0  0
 32 30  1  0  0  0  0
 32 28  1  0  0  0  0
 33 34  1  0  0  0  0
 35 34  2  0  0  0  0
M  END
>  <MODEL>
3

>  <REMARK>
 VINA RESULT:      -7.7      3.751      6.964
  Name = 
  5 active torsions:
  status: ('A' for Active; 'I' for Inactive)
    1  A    between atoms: C_11  and  C_25
    2  A    between atoms: C_13  and  N_31
    3  A    between atoms: C_15  and  C_27
    4  A    between atoms: C_16  and  C_17
    5  A    between atoms: C_17  and  N_28
                            x       y       z     vdW  Elec       q    Type
                         _______ _______ _______ _____ _____    ______ ____

>  <TORSDO>
F 5

$$$$
=
 OpenBabel10222419153D

 35 43  0  0  1  0  0  0  0  0999 V2000
  188.7530  176.1760  138.2960 C   0  0  0  0  0  0  0  0  0  0  0  0
  189.0550  177.2900  137.3900 C   0  0  0  0  0  0  0  0  0  0  0  0
  187.8550  175.1840  138.0780 C   0  0  0  0  0  3  0  0  0  0  0  0
  192.0800  176.7490  137.6360 C   0  0  2  0  0  3  0  0  0  0  0  0
  191.6800  177.2390  140.0170 O   0  0  0  0  0  0  0  0  0  0  0  0
  189.7020  177.1490  138.6210 C   0  0  2  0  0  0  0  0  0  0  0  0
  187.2110  175.3650  136.7970 C   0  0  0  0  0  0  0  0  0  0  0  0
  187.5250  176.4880  135.8900 C   0  0  0  0  0  0  0  0  0  0  0  0
  191.1330  176.7350  138.8160 C   0  0  1  0  0  0  0  0  0  0  0  0
  191.8420  175.5110  136.7920 C   0  0  0  0  0  2  0  0  0  0  0  0
  189.4280  177.9890  139.7720 C   0  0  0  0  0  0  0  0  0  0  0  0
  191.7010  175.4310  138.3000 C   0  0  1  0  0  3  0  0  0  0  0  0
  190.6520  178.0160  140.6370 C   0  0  1  0  0  3  0  0  0  0  0  0
  188.4880  177.5190  136.1800 C   0  0  0  0  0  3  0  0  0  0  0  0
  188.3950  178.6050  139.9860 O   0  0  0  0  0  0  0  0  0  0  0  0
  191.6540  177.0500  144.0600 C   0  0  2  0  0  3  0  0  0  0  0  0
  190.7450  178.2050  144.5120 C   0  0  1  0  0  3  0  0  0  0  0  0
  191.2730  178.1480  143.0710 C   0  0  2  0  0  3  0  0  0  0  0  0
  190.3460  177.5020  142.0440 C   0  0  2  0  0  3  0  0  0  0  0  0
  190.5300  176.0020  142.1670 C   0  0  0  0  0  2  0  0  0  0  0  0
  190.9450  175.7780  143.6000 C   0  0  0  0  0  2  0  0  0  0  0  0
  186.5390  177.4560  145.1110 C   0  0  0  0  0  3  0  0  0  0  0  0
  188.8000  177.5270  145.9750 C   0  0  0  0  0  3  0  0  0  0  0  0
  188.3730  178.0660  143.6530 C   0  0  0  0  0  3  0  0  0  0  0  0
  189.2810  177.8820  144.7070 C   0  0  0  0  0  0  0  0  0  0  0  0
  187.0070  177.8420  143.8520 C   0  0  0  0  0  3  0  0  0  0  0  0
  187.4340  177.3030  146.1730 C   0  0  0  0  0  3  0  0  0  0  0  0
  184.8490  174.4100  136.7580 C   0  0  0  0  0  0  0  0  0  0  0  0
  183.8100  173.6040  136.4840 N   0  0  0  0  0  0  0  0  0  0  0  0
  182.9320  174.4180  137.2910 C   0  0  0  0  0  2  0  0  0  0  0  0
  186.2250  174.4140  136.3700 N   0  0  0  0  0  2  0  0  0  0  0  0
  183.9800  175.2910  137.6110 C   0  0  0  0  0  2  0  0  0  0  0  0
  186.7950  176.6010  134.5940 C   0  0  0  0  0  2  0  0  0  0  0  0
  185.7330  177.5620  134.7160 N   0  0  0  0  0  0  0  0  0  0  0  0
  184.5500  177.2010  134.5950 N   0  0  0  0  0  2  0  0  0  0  0  0
  1  6  1  0  0  0  0
  2  1  2  0  0  0  0
  3  1  1  0  0  0  0
  4 10  1  6  0  0  0
  4 12  1  0  0  0  0
  4  9  1  0  0  0  0
  5 13  1  0  0  0  0
  6  2  1  6  0  0  0
  6  9  1  0  0  0  0
  6 11  1  0  0  0  0
  7  3  2  0  0  0  0
  8 14  2  0  0  0  0
  8  7  1  0  0  0  0
  9  5  1  0  0  0  0
 11 15  2  0  0  0  0
 12 10  1  6  0  0  0
 12  9  1  0  0  0  0
 13 11  1  6  0  0  0
 13 19  1  0  0  0  0
 14  2  1  0  0  0  0
 16 21  1  6  0  0  0
 16 17  1  0  0  0  0
 17 25  1  6  0  0  0
 18 16  1  0  0  0  0
 18 17  1  0  0  0  0
 19 20  1  0  0  0  0
 19 18  1  0  0  0  0
 20 21  1  0  0  0  0
 22 27  1  0  0  0  0
 23 27  2  0  0  0  0
 24 26  1  0  0  0  0
 24 25  2  0  0  0  0
 25 23  1  0  0  0  0
 26 22  2  0  0  0  0
 28 32  1  0  0  0  0
 29 28  2  0  0  0  0
 29 30  1  0  0  0  0
 30 32  1  0  0  0  0
 31 28  1  0  0  0  0
 31  7  1  0  0  0  0
 33 34  1  0  0  0  0
 33  8  1  0  0  0  0
 35 34  2  0  0  0  0
M  END
>  <MODEL>
4

>  <REMARK>
 VINA RESULT:      -6.9      4.600      8.059
  Name = 
  5 active torsions:
  status: ('A' for Active; 'I' for Inactive)
    1  A    between atoms: C_11  and  C_25
    2  A    between atoms: C_13  and  N_31
    3  A    between atoms: C_15  and  C_27
    4  A    between atoms: C_16  and  C_17
    5  A    between atoms: C_17  and  N_28
                            x       y       z     vdW  Elec       q    Type
                         _______ _______ _______ _____ _____    ______ ____

>  <TORSDO>
F 5

$$$$
=
 OpenBabel10222419153D

 35 43  0  0  1  0  0  0  0  0999 V2000
  183.3220  177.2160  138.8340 C   0  0  0  0  0  0  0  0  0  0  0  0
  182.8280  177.9870  137.6870 C   0  0  0  0  0  0  0  0  0  0  0  0
  182.6230  176.9040  139.9530 C   0  0  0  0  0  3  0  0  0  0  0  0
  183.8460  175.8360  135.7260 C   0  0  2  0  0  3  0  0  0  0  0  0
  186.0400  176.4160  136.6820 O   0  0  0  0  0  0  0  0  0  0  0  0
  184.1310  177.4810  137.7260 C   0  0  2  0  0  0  0  0  0  0  0  0
  181.2850  177.4410  139.8720 C   0  0  0  0  0  0  0  0  0  0  0  0
  180.7950  178.2130  138.7110 C   0  0  0  0  0  0  0  0  0  0  0  0
  184.6490  176.3320  136.9080 C   0  0  1  0  0  0  0  0  0  0  0  0
  182.7100  174.9630  136.2270 C   0  0  0  0  0  2  0  0  0  0  0  0
  185.3040  178.3070  137.9400 C   0  0  0  0  0  0  0  0  0  0  0  0
  184.0460  174.9450  136.9460 C   0  0  1  0  0  3  0  0  0  0  0  0
  186.4810  177.6240  137.3090 C   0  0  1  0  0  3  0  0  0  0  0  0
  181.5890  178.5190  137.5500 C   0  0  0  0  0  3  0  0  0  0  0  0
  185.3310  179.3920  138.5000 O   0  0  0  0  0  0  0  0  0  0  0  0
  189.9800  177.7520  138.4910 C   0  0  2  0  0  3  0  0  0  0  0  0
  189.4270  178.6280  139.6270 C   0  0  1  0  0  3  0  0  0  0  0  0
  188.6300  178.4440  138.3270 C   0  0  2  0  0  3  0  0  0  0  0  0
  187.5740  177.3420  138.3400 C   0  0  2  0  0  3  0  0  0  0  0  0
  188.2980  176.0360  138.0760 C   0  0  0  0  0  2  0  0  0  0  0  0
  189.6970  176.2550  138.5980 C   0  0  0  0  0  2  0  0  0  0  0  0
  187.9990  176.7010  143.2130 C   0  0  0  0  0  3  0  0  0  0  0  0
  189.7140  176.9870  141.5280 C   0  0  0  0  0  3  0  0  0  0  0  0
  187.6530  178.2520  141.3860 C   0  0  0  0  0  3  0  0  0  0  0  0
  188.9020  177.9070  140.8480 C   0  0  0  0  0  0  0  0  0  0  0  0
  187.1980  177.6420  142.5580 C   0  0  0  0  0  3  0  0  0  0  0  0
  189.2580  176.3780  142.7010 C   0  0  0  0  0  3  0  0  0  0  0  0
  180.3410  177.9560  142.1830 C   0  0  0  0  0  0  0  0  0  0  0  0
  179.5930  177.8750  143.2960 N   0  0  0  0  0  0  0  0  0  0  0  0
  180.2900  178.9970  143.8770 C   0  0  0  0  0  2  0  0  0  0  0  0
  180.3750  177.2170  140.9600 N   0  0  0  0  0  2  0  0  0  0  0  0
  181.0980  179.1280  142.7410 C   0  0  0  0  0  2  0  0  0  0  0  0
  179.4000  178.7430  138.7270 C   0  0  0  0  0  2  0  0  0  0  0  0
  179.3860  180.0580  139.3070 N   0  0  0  0  0  0  0  0  0  0  0  0
  179.3220  181.0600  138.5740 N   0  0  0  0  0  2  0  0  0  0  0  0
  1  3  1  0  0  0  0
  2  1  2  0  0  0  0
  4 10  1  1  0  0  0
  4  9  1  0  0  0  0
  4 12  1  0  0  0  0
  5  9  1  0  0  0  0
  6  2  1  6  0  0  0
  6 11  1  0  0  0  0
  6  1  1  0  0  0  0
  7  3  2  0  0  0  0
  7 31  1  0  0  0  0
  8 33  1  0  0  0  0
  8  7  1  0  0  0  0
  9 12  1  0  0  0  0
  9  6  1  0  0  0  0
 11 15  2  0  0  0  0
 12 10  1  1  0  0  0
 13  5  1  1  0  0  0
 13 11  1  0  0  0  0
 13 19  1  0  0  0  0
 14  2  1  0  0  0  0
 14  8  2  0  0  0  0
 16 21  1  1  0  0  0
 16 17  1  0  0  0  0
 17 25  1  1  0  0  0
 18 19  1  0  0  0  0
 18 16  1  0  0  0  0
 18 17  1  0  0  0  0
 20 19  1  0  0  0  0
 20 21  1  0  0  0  0
 23 27  2  0  0  0  0
 24 26  1  0  0  0  0
 25 24  2  0  0  0  0
 25 23  1  0  0  0  0
 26 22  2  0  0  0  0
 27 22  1  0  0  0  0
 28 32  1  0  0  0  0
 28 29  2  0  0  0  0
 29 30  1  0  0  0  0
 31 28  1  0  0  0  0
 32 30  1  0  0  0  0
 33 34  1  0  0  0  0
 35 34  2  0  0  0  0
M  END
>  <MODEL>
5

>  <REMARK>
 VINA RESULT:      -6.9      2.021      3.266
  Name = 
  5 active torsions:
  status: ('A' for Active; 'I' for Inactive)
    1  A    between atoms: C_11  and  C_25
    2  A    between atoms: C_13  and  N_31
    3  A    between atoms: C_15  and  C_27
    4  A    between atoms: C_16  and  C_17
    5  A    between atoms: C_17  and  N_28
                            x       y       z     vdW  Elec       q    Type
                         _______ _______ _______ _____ _____    ______ ____

>  <TORSDO>
F 5

$$$$
=
 OpenBabel10222419153D

 35 43  0  0  1  0  0  0  0  0999 V2000
  184.4780  177.9770  140.3200 C   0  0  0  0  0  0  0  0  0  0  0  0
  184.4220  179.2810  139.6520 C   0  0  0  0  0  0  0  0  0  0  0  0
  183.4390  177.1290  140.5160 C   0  0  0  0  0  3  0  0  0  0  0  0
  186.8370  178.5460  137.8810 C   0  0  2  0  0  3  0  0  0  0  0  0
  188.0030  178.3770  140.0430 O   0  0  0  0  0  0  0  0  0  0  0  0
  185.6170  178.7740  140.1710 C   0  0  2  0  0  0  0  0  0  0  0  0
  182.2270  177.6890  139.9640 C   0  0  0  0  0  0  0  0  0  0  0  0
  182.1810  179.0020  139.2890 C   0  0  0  0  0  0  0  0  0  0  0  0
  186.7720  178.2530  139.3640 C   0  0  1  0  0  0  0  0  0  0  0  0
  185.9020  177.6020  137.1450 C   0  0  0  0  0  2  0  0  0  0  0  0
  186.2420  179.2750  141.3800 C   0  0  0  0  0  0  0  0  0  0  0  0
  186.6490  177.1160  138.3730 C   0  0  1  0  0  3  0  0  0  0  0  0
  187.7130  179.0020  141.2970 C   0  0  1  0  0  3  0  0  0  0  0  0
  183.3210  179.8640  139.1160 C   0  0  0  0  0  3  0  0  0  0  0  0
  185.6800  179.8590  142.2950 O   0  0  0  0  0  0  0  0  0  0  0  0
  190.2740  177.0400  143.0990 C   0  0  2  0  0  3  0  0  0  0  0  0
  190.0990  178.0820  144.2160 C   0  0  1  0  0  3  0  0  0  0  0  0
  189.6520  178.3960  142.7810 C   0  0  2  0  0  3  0  0  0  0  0  0
  188.1820  178.1340  142.4660 C   0  0  2  0  0  3  0  0  0  0  0  0
  188.0510  176.6520  142.1780 C   0  0  0  0  0  2  0  0  0  0  0  0
  189.1610  176.0030  142.9670 C   0  0  0  0  0  2  0  0  0  0  0  0
  186.9980  177.5030  147.1580 C   0  0  0  0  0  3  0  0  0  0  0  0
  189.3080  177.2660  146.4730 C   0  0  0  0  0  3  0  0  0  0  0  0
  187.6930  178.2580  144.9660 C   0  0  0  0  0  3  0  0  0  0  0  0
  189.0020  177.8220  145.2230 C   0  0  0  0  0  0  0  0  0  0  0  0
  186.6920  178.0880  145.9270 C   0  0  0  0  0  3  0  0  0  0  0  0
  188.3060  177.0960  147.4340 C   0  0  0  0  0  3  0  0  0  0  0  0
  180.6680  175.7900  139.2850 C   0  0  0  0  0  0  0  0  0  0  0  0
  179.5870  174.9960  139.2240 N   0  0  0  0  0  0  0  0  0  0  0  0
  180.2120  174.1790  138.2110 C   0  0  0  0  0  2  0  0  0  0  0  0
  181.0040  176.9430  140.0620 N   0  0  0  0  0  2  0  0  0  0  0  0
  181.3650  174.9740  138.2330 C   0  0  0  0  0  2  0  0  0  0  0  0
  180.8770  179.5050  138.7650 C   0  0  0  0  0  2  0  0  0  0  0  0
  180.5890  180.7940  139.3340 N   0  0  0  0  0  0  0  0  0  0  0  0
  180.0350  180.8730  140.4430 N   0  0  0  0  0  2  0  0  0  0  0  0
  1  3  1  0  0  0  0
  2  1  2  0  0  0  0
  4 10  1  6  0  0  0
  4 12  1  0  0  0  0
  4  9  1  0  0  0  0
  6  2  1  6  0  0  0
  6  1  1  0  0  0  0
  6 11  1  0  0  0  0
  7 31  1  0  0  0  0
  7  3  2  0  0  0  0
  8  7  1  0  0  0  0
  9  5  1  0  0  0  0
  9  6  1  0  0  0  0
 11 15  2  0  0  0  0
 12 10  1  6  0  0  0
 12  9  1  0  0  0  0
 13  5  1  6  0  0  0
 13 11  1  0  0  0  0
 13 19  1  0  0  0  0
 14  8  2  0  0  0  0
 14  2  1  0  0  0  0
 16 21  1  1  0  0  0
 16 17  1  0  0  0  0
 17 25  1  1  0  0  0
 18 16  1  0  0  0  0
 18 17  1  0  0  0  0
 19 18  1  0  0  0  0
 20 19  1  0  0  0  0
 20 21  1  0  0  0  0
 22 27  1  0  0  0  0
 23 27  2  0  0  0  0
 24 25  2  0  0  0  0
 24 26  1  0  0  0  0
 25 23  1  0  0  0  0
 26 22  2  0  0  0  0
 28 31  1  0  0  0  0
 29 28  2  0  0  0  0
 30 32  1  0  0  0  0
 30 29  1  0  0  0  0
 32 28  1  0  0  0  0
 33  8  1  0  0  0  0
 33 34  1  0  0  0  0
 34 35  2  0  0  0  0
M  END
>  <MODEL>
6

>  <REMARK>
 VINA RESULT:      -6.8      2.778      5.667
  Name = 
  5 active torsions:
  status: ('A' for Active; 'I' for Inactive)
    1  A    between atoms: C_11  and  C_25
    2  A    between atoms: C_13  and  N_31
    3  A    between atoms: C_15  and  C_27
    4  A    between atoms: C_16  and  C_17
    5  A    between atoms: C_17  and  N_28
                            x       y       z     vdW  Elec       q    Type
                         _______ _______ _______ _____ _____    ______ ____

>  <TORSDO>
F 5

$$$$
=
 OpenBabel10222419153D

 35 43  0  0  1  0  0  0  0  0999 V2000
  187.1870  176.3330  137.9220 C   0  0  0  0  0  0  0  0  0  0  0  0
  187.2630  177.4950  137.0290 C   0  0  0  0  0  0  0  0  0  0  0  0
  186.3340  175.2860  137.8070 C   0  0  0  0  0  3  0  0  0  0  0  0
  190.3170  177.1670  136.7610 C   0  0  2  0  0  3  0  0  0  0  0  0
  190.2800  177.5490  139.1940 O   0  0  0  0  0  0  0  0  0  0  0  0
  188.1110  177.3610  138.1320 C   0  0  2  0  0  0  0  0  0  0  0  0
  185.4790  175.4620  136.6570 C   0  0  0  0  0  0  0  0  0  0  0  0
  185.5650  176.6330  135.7600 C   0  0  0  0  0  0  0  0  0  0  0  0
  189.5790  177.0460  138.0760 C   0  0  1  0  0  0  0  0  0  0  0  0
  190.0260  175.9420  135.9130 C   0  0  0  0  0  2  0  0  0  0  0  0
  187.9730  178.1420  139.3470 C   0  0  0  0  0  0  0  0  0  0  0  0
  190.1390  175.8040  137.4190 C   0  0  1  0  0  3  0  0  0  0  0  0
  189.3170  178.2300  140.0040 C   0  0  1  0  0  3  0  0  0  0  0  0
  186.4920  177.7210  135.9370 C   0  0  0  0  0  3  0  0  0  0  0  0
  186.9510  178.6750  139.7510 O   0  0  0  0  0  0  0  0  0  0  0  0
  190.9430  177.1130  143.1290 C   0  0  2  0  0  3  0  0  0  0  0  0
  190.1390  178.2410  143.7970 C   0  0  1  0  0  3  0  0  0  0  0  0
  190.3860  178.2520  142.2810 C   0  0  2  0  0  3  0  0  0  0  0  0
  189.2810  177.6490  141.4190 C   0  0  2  0  0  3  0  0  0  0  0  0
  189.4790  176.1470  141.4360 C   0  0  0  0  0  2  0  0  0  0  0  0
  190.1560  175.8590  142.7530 C   0  0  0  0  0  2  0  0  0  0  0  0
  186.1220  177.4400  145.1500 C   0  0  0  0  0  3  0  0  0  0  0  0
  188.5090  177.4340  145.5520 C   0  0  0  0  0  3  0  0  0  0  0  0
  187.6420  178.1790  143.4160 C   0  0  0  0  0  3  0  0  0  0  0  0
  188.7370  177.9010  144.2490 C   0  0  0  0  0  0  0  0  0  0  0  0
  186.3390  177.9380  143.8620 C   0  0  0  0  0  3  0  0  0  0  0  0
  187.2060  177.1930  145.9960 C   0  0  0  0  0  3  0  0  0  0  0  0
  183.1760  174.3930  136.8890 C   0  0  0  0  0  0  0  0  0  0  0  0
  182.1560  173.5330  136.7400 N   0  0  0  0  0  0  0  0  0  0  0  0
  181.3310  174.3190  137.6270 C   0  0  0  0  0  2  0  0  0  0  0  0
  184.5010  174.4560  136.3520 N   0  0  0  0  0  2  0  0  0  0  0  0
  182.3620  175.2470  137.8190 C   0  0  0  0  0  2  0  0  0  0  0  0
  184.6270  176.7350  134.6040 C   0  0  0  0  0  2  0  0  0  0  0  0
  183.4720  177.5040  134.9810 N   0  0  0  0  0  0  0  0  0  0  0  0
  182.3420  177.1560  134.5990 N   0  0  0  0  0  2  0  0  0  0  0  0
  1  6  1  0  0  0  0
  2  1  2  0  0  0  0
  3  1  1  0  0  0  0
  4 10  1  6  0  0  0
  4 12  1  0  0  0  0
  4  9  1  0  0  0  0
  6  2  1  6  0  0  0
  6 11  1  0  0  0  0
  7  3  2  0  0  0  0
  8 14  2  0  0  0  0
  8  7  1  0  0  0  0
  9  6  1  0  0  0  0
  9  5  1  0  0  0  0
 11 15  2  0  0  0  0
 11 13  1  0  0  0  0
 12 10  1  6  0  0  0
 12  9  1  0  0  0  0
 13  5  1  6  0  0  0
 13 19  1  0  0  0  0
 14  2  1  0  0  0  0
 16 21  1  6  0  0  0
 16 17  1  0  0  0  0
 17 25  1  6  0  0  0
 18 16  1  0  0  0  0
 18 17  1  0  0  0  0
 19 20  1  0  0  0  0
 19 18  1  0  0  0  0
 20 21  1  0  0  0  0
 22 27  1  0  0  0  0
 23 27  2  0  0  0  0
 24 26  1  0  0  0  0
 24 25  2  0  0  0  0
 25 23  1  0  0  0  0
 26 22  2  0  0  0  0
 28 32  1  0  0  0  0
 29 28  2  0  0  0  0
 29 30  1  0  0  0  0
 30 32  1  0  0  0  0
 31  7  1  0  0  0  0
 31 28  1  0  0  0  0
 33 34  1  0  0  0  0
 33  8  1  0  0  0  0
 35 34  2  0  0  0  0
M  END
>  <MODEL>
7

>  <REMARK>
 VINA RESULT:      -6.1      4.224      7.228
  Name = 
  5 active torsions:
  status: ('A' for Active; 'I' for Inactive)
    1  A    between atoms: C_11  and  C_25
    2  A    between atoms: C_13  and  N_31
    3  A    between atoms: C_15  and  C_27
    4  A    between atoms: C_16  and  C_17
    5  A    between atoms: C_17  and  N_28
                            x       y       z     vdW  Elec       q    Type
                         _______ _______ _______ _____ _____    ______ ____

>  <TORSDO>
F 5

$$$$
=
 OpenBabel10222419153D

 35 43  0  0  1  0  0  0  0  0999 V2000
  184.0600  177.1870  137.5870 C   0  0  0  0  0  0  0  0  0  0  0  0
  183.3900  177.1890  136.2820 C   0  0  0  0  0  0  0  0  0  0  0  0
  183.6680  177.8650  138.6930 C   0  0  0  0  0  3  0  0  0  0  0  0
  183.4530  174.1080  136.1760 C   0  0  2  0  0  3  0  0  0  0  0  0
  185.8920  174.4450  136.2500 O   0  0  0  0  0  0  0  0  0  0  0  0
  184.5530  176.4470  136.5080 C   0  0  2  0  0  0  0  0  0  0  0  0
  182.4650  178.6160  138.4190 C   0  0  0  0  0  0  0  0  0  0  0  0
  181.7940  178.6090  137.1020 C   0  0  0  0  0  0  0  0  0  0  0  0
  184.6280  174.9510  136.6230 C   0  0  1  0  0  0  0  0  0  0  0  0
  182.3840  174.1330  137.2520 C   0  0  0  0  0  2  0  0  0  0  0  0
  185.8530  176.8170  135.9850 C   0  0  0  0  0  0  0  0  0  0  0  0
  183.8490  174.1540  137.6470 C   0  0  1  0  0  3  0  0  0  0  0  0
  186.6790  175.5720  135.8520 C   0  0  1  0  0  3  0  0  0  0  0  0
  182.2630  177.8710  135.9590 C   0  0  0  0  0  3  0  0  0  0  0  0
  186.2100  177.9400  135.6640 O   0  0  0  0  0  0  0  0  0  0  0  0
  190.3570  175.6620  136.1930 C   0  0  2  0  0  3  0  0  0  0  0  0
  190.1400  177.0780  136.7510 C   0  0  1  0  0  3  0  0  0  0  0  0
  189.0530  176.4000  135.9040 C   0  0  2  0  0  3  0  0  0  0  0  0
  187.9610  175.6680  136.6790 C   0  0  2  0  0  3  0  0  0  0  0  0
  188.5190  174.3070  137.0460 C   0  0  0  0  0  2  0  0  0  0  0  0
  190.0110  174.5090  137.1330 C   0  0  0  0  0  2  0  0  0  0  0  0
  189.4380  177.5620  140.9800 C   0  0  0  0  0  3  0  0  0  0  0  0
  190.8410  176.7950  139.1620 C   0  0  0  0  0  3  0  0  0  0  0  0
  188.6960  177.8150  138.6890 C   0  0  0  0  0  3  0  0  0  0  0  0
  189.8680  177.1900  138.2340 C   0  0  0  0  0  0  0  0  0  0  0  0
  188.4770  177.9890  140.0590 C   0  0  0  0  0  3  0  0  0  0  0  0
  190.6210  176.9700  140.5320 C   0  0  0  0  0  3  0  0  0  0  0  0
  181.0050  178.9130  140.4870 C   0  0  0  0  0  0  0  0  0  0  0  0
  180.3570  179.4930  141.5100 N   0  0  0  0  0  0  0  0  0  0  0  0
  179.8010  178.2230  141.9110 C   0  0  0  0  0  2  0  0  0  0  0  0
  181.8790  179.4030  139.4660 N   0  0  0  0  0  2  0  0  0  0  0  0
  180.4530  177.5660  140.8600 C   0  0  0  0  0  2  0  0  0  0  0  0
  180.5630  179.4300  136.9100 C   0  0  0  0  0  2  0  0  0  0  0  0
  180.8960  180.6520  136.2280 N   0  0  0  0  0  0  0  0  0  0  0  0
  180.8360  181.7370  136.8320 N   0  0  0  0  0  2  0  0  0  0  0  0
  1  3  1  0  0  0  0
  2  6  1  0  0  0  0
  2  1  2  0  0  0  0
  4  9  1  0  0  0  0
  4 10  1  1  0  0  0
  4 12  1  0  0  0  0
  5  9  1  0  0  0  0
  6 11  1  6  0  0  0
  6  9  1  0  0  0  0
  6  1  1  0  0  0  0
  7  3  2  0  0  0  0
  7 31  1  0  0  0  0
  8  7  1  0  0  0  0
  9 12  1  0  0  0  0
 12 10  1  1  0  0  0
 13 11  1  1  0  0  0
 13  5  1  0  0  0  0
 13 19  1  0  0  0  0
 14  2  1  0  0  0  0
 14  8  2  0  0  0  0
 15 11  2  0  0  0  0
 16 17  1  0  0  0  0
 16 21  1  1  0  0  0
 17 25  1  1  0  0  0
 18 16  1  0  0  0  0
 18 19  1  0  0  0  0
 18 17  1  0  0  0  0
 19 20  1  0  0  0  0
 20 21  1  0  0  0  0
 23 27  2  0  0  0  0
 24 26  1  0  0  0  0
 25 24  2  0  0  0  0
 25 23  1  0  0  0  0
 26 22  2  0  0  0  0
 27 22  1  0  0  0  0
 28 32  1  0  0  0  0
 28 29  2  0  0  0  0
 29 30  1  0  0  0  0
 31 28  1  0  0  0  0
 32 30  1  0  0  0  0
 33  8  1  0  0  0  0
 34 35  2  0  0  0  0
 34 33  1  0  0  0  0
M  END
>  <MODEL>
8

>  <REMARK>
 VINA RESULT:      -6.0      2.778      4.147
  Name = 
  5 active torsions:
  status: ('A' for Active; 'I' for Inactive)
    1  A    between atoms: C_11  and  C_25
    2  A    between atoms: C_13  and  N_31
    3  A    between atoms: C_15  and  C_27
    4  A    between atoms: C_16  and  C_17
    5  A    between atoms: C_17  and  N_28
                            x       y       z     vdW  Elec       q    Type
                         _______ _______ _______ _____ _____    ______ ____

>  <TORSDO>
F 5

$$$$
=
 OpenBabel10222419153D

 35 43  0  0  1  0  0  0  0  0999 V2000
  181.5940  179.8070  139.5780 C   0  0  0  0  0  0  0  0  0  0  0  0
  181.8320  179.1850  138.2710 C   0  0  0  0  0  0  0  0  0  0  0  0
  180.7970  180.8750  139.8260 C   0  0  0  0  0  3  0  0  0  0  0  0
  181.2440  176.3880  139.4270 C   0  0  2  0  0  3  0  0  0  0  0  0
  183.1800  176.8930  140.8630 O   0  0  0  0  0  0  0  0  0  0  0  0
  182.4390  178.7030  139.4340 C   0  0  2  0  0  0  0  0  0  0  0  0
  180.1900  181.3410  138.6010 C   0  0  0  0  0  0  0  0  0  0  0  0
  180.4320  180.7050  137.2890 C   0  0  0  0  0  0  0  0  0  0  0  0
  182.0910  177.4210  140.1370 C   0  0  1  0  0  0  0  0  0  0  0  0
  179.7880  176.8110  139.4850 C   0  0  0  0  0  2  0  0  0  0  0  0
  183.8430  178.8940  139.7430 C   0  0  0  0  0  0  0  0  0  0  0  0
  180.7050  177.1070  140.6570 C   0  0  1  0  0  3  0  0  0  0  0  0
  184.2810  177.7800  140.6460 C   0  0  1  0  0  3  0  0  0  0  0  0
  181.2970  179.5720  137.0860 C   0  0  0  0  0  3  0  0  0  0  0  0
  184.5630  179.7810  139.3130 O   0  0  0  0  0  0  0  0  0  0  0  0
  183.8990  179.6030  143.8380 C   0  0  2  0  0  3  0  0  0  0  0  0
  184.2260  178.2530  144.4970 C   0  0  1  0  0  3  0  0  0  0  0  0
  183.7350  178.3110  143.0440 C   0  0  2  0  0  3  0  0  0  0  0  0
  184.8210  178.3220  141.9710 C   0  0  2  0  0  3  0  0  0  0  0  0
  185.3130  179.7510  141.8570 C   0  0  0  0  0  2  0  0  0  0  0  0
  185.0780  180.3520  143.2200 C   0  0  0  0  0  2  0  0  0  0  0  0
  188.3530  177.1870  145.1620 C   0  0  0  0  0  3  0  0  0  0  0  0
  186.3320  178.3010  145.8930 C   0  0  0  0  0  3  0  0  0  0  0  0
  186.3780  177.1500  143.7640 C   0  0  0  0  0  3  0  0  0  0  0  0
  185.6900  177.9330  144.7030 C   0  0  0  0  0  0  0  0  0  0  0  0
  187.7090  176.7880  143.9880 C   0  0  0  0  0  3  0  0  0  0  0  0
  187.6640  177.9390  146.1170 C   0  0  0  0  0  3  0  0  0  0  0  0
  179.6230  183.7990  138.2380 C   0  0  0  0  0  0  0  0  0  0  0  0
  178.9430  184.9570  138.2300 N   0  0  0  0  0  0  0  0  0  0  0  0
  180.0730  185.6470  137.6560 C   0  0  0  0  0  2  0  0  0  0  0  0
  179.3010  182.4670  138.6460 N   0  0  0  0  0  2  0  0  0  0  0  0
  180.8290  184.4680  137.6410 C   0  0  0  0  0  2  0  0  0  0  0  0
  179.7710  181.2680  136.0760 C   0  0  0  0  0  2  0  0  0  0  0  0
  180.7420  181.4390  135.0290 N   0  0  0  0  0  0  0  0  0  0  0  0
  180.9920  182.5770  134.5940 N   0  0  0  0  0  2  0  0  0  0  0  0
  1  3  1  0  0  0  0
  2  1  2  0  0  0  0
  4 10  1  6  0  0  0
  4  9  1  0  0  0  0
  4 12  1  0  0  0  0
  6  2  1  6  0  0  0
  6  1  1  0  0  0  0
  6 11  1  0  0  0  0
  6  9  1  0  0  0  0
  7 31  1  0  0  0  0
  7  3  2  0  0  0  0
  8  7  1  0  0  0  0
  9 12  1  0  0  0  0
  9  5  1  0  0  0  0
 12 10  1  6  0  0  0
 13 11  1  6  0  0  0
 13  5  1  0  0  0  0
 13 19  1  0  0  0  0
 14  8  2  0  0  0  0
 14  2  1  0  0  0  0
 15 11  2  0  0  0  0
 16 21  1  6  0  0  0
 16 17  1  0  0  0  0
 17 25  1  6  0  0  0
 18 16  1  0  0  0  0
 18 17  1  0  0  0  0
 19 18  1  0  0  0  0
 20 19  1  0  0  0  0
 20 21  1  0  0  0  0
 22 27  1  0  0  0  0
 23 27  2  0  0  0  0
 24 26  1  0  0  0  0
 24 25  2  0  0  0  0
 25 23  1  0  0  0  0
 26 22  2  0  0  0  0
 28 31  1  0  0  0  0
 29 28  2  0  0  0  0
 30 29  1  0  0  0  0
 32 30  1  0  0  0  0
 32 28  1  0  0  0  0
 33  8  1  0  0  0  0
 34 33  1  0  0  0  0
 35 34  2  0  0  0  0
M  END
>  <MODEL>
9

>  <REMARK>
 VINA RESULT:      -6.0      3.998      6.443
  Name = 
  5 active torsions:
  status: ('A' for Active; 'I' for Inactive)
    1  A    between atoms: C_11  and  C_25
    2  A    between atoms: C_13  and  N_31
    3  A    between atoms: C_15  and  C_27
    4  A    between atoms: C_16  and  C_17
    5  A    between atoms: C_17  and  N_28
                            x       y       z     vdW  Elec       q    Type
                         _______ _______ _______ _____ _____    ______ ____

>  <TORSDO>
F 5

$$$$
