=
 OpenBabel10222418253D

 26 29  0  0  1  0  0  0  0  0999 V2000
  186.5830  177.1290  143.5310 O   0  0  0  0  0  1  0  0  0  0  0  0
  189.4300  177.1700  145.6290 C   0  0  0  0  0  0  0  0  0  0  0  0
  185.7110  179.1500  146.6370 C   0  0  0  0  0  2  0  0  0  0  0  0
  189.6320  176.9240  147.0210 C   0  0  0  0  0  3  0  0  0  0  0  0
  187.1810  177.7180  145.6960 C   0  0  2  0  0  3  0  0  0  0  0  0
  186.4700  178.1810  144.5260 C   0  0  2  0  0  3  0  0  0  0  0  0
  187.0910  178.6160  146.8180 C   0  0  2  0  0  3  0  0  0  0  0  0
  188.7960  177.1940  148.0750 C   0  0  0  0  0  2  0  0  0  0  0  0
  185.0920  178.4820  145.2300 C   0  0  2  0  0  3  0  0  0  0  0  0
  188.4080  177.6510  145.1100 C   0  0  0  0  0  2  0  0  0  0  0  0
  187.4030  177.7700  148.0810 C   0  0  0  0  0  2  0  0  0  0  0  0
  184.3550  179.4580  144.3850 N   0  0  0  0  0  2  0  0  0  0  0  0
  183.8440  178.8310  142.2380 O   0  0  0  0  0  1  0  0  0  0  0  0
  182.0030  179.0010  143.7370 C   0  0  0  0  0  1  0  0  0  0  0  0
  183.4790  178.6290  143.5940 C   0  0  2  0  0  3  0  0  0  0  0  0
  190.6620  177.0280  144.7590 C   0  0  0  0  0  2  0  0  0  0  0  0
  191.7720  177.0790  142.5340 N   0  0  0  0  0  2  0  0  0  0  0  0
  190.4800  177.7720  142.3230 C   0  0  2  0  0  3  0  0  0  0  0  0
  190.5420  176.5620  143.2410 C   0  0  2  0  0  3  0  0  0  0  0  0
  188.8040  177.9220  140.4490 N   0  0  0  0  0  0  0  0  0  0  0  0
  190.9370  176.9160  139.9230 C   0  0  0  0  0  3  0  0  0  0  0  0
  189.2110  177.2740  138.1980 C   0  0  0  0  0  3  0  0  0  0  0  0
  187.0860  178.3270  138.8030 N   0  0  0  0  0  1  0  0  0  0  0  0
  188.4180  177.8180  139.1770 C   0  0  0  0  0  0  0  0  0  0  0  0
  190.5120  176.7960  138.6050 C   0  0  0  0  0  3  0  0  0  0  0  0
  190.0860  177.5050  140.8750 C   0  0  0  0  0  0  0  0  0  0  0  0
  2  4  2  0  0  0  0
  4  8  1  0  0  0  0
  5 10  1  6  0  0  0
  5  7  1  0  0  0  0
  6  1  1  6  0  0  0
  6  9  1  0  0  0  0
  6  5  1  0  0  0  0
  7  3  1  1  0  0  0
  7 11  1  0  0  0  0
  8 11  1  0  0  0  0
  9 12  1  6  0  0  0
  9  3  1  0  0  0  0
 10  2  1  0  0  0  0
 13 15  1  0  0  0  0
 15 14  1  6  0  0  0
 15 12  1  0  0  0  0
 16  2  1  0  0  0  0
 17 19  1  0  0  0  0
 18 26  1  6  0  0  0
 18 17  1  0  0  0  0
 18 19  1  0  0  0  0
 19 16  1  1  0  0  0
 20 26  1  0  0  0  0
 21 26  2  0  0  0  0
 22 25  2  0  0  0  0
 22 24  1  0  0  0  0
 23 24  1  0  0  0  0
 24 20  2  0  0  0  0
 25 21  1  0  0  0  0
M  END
>  <MODEL>
1

>  <REMARK>
 VINA RESULT:      -8.9      0.000      0.000
  Name = 
  5 active torsions:
  status: ('A' for Active; 'I' for Inactive)
    1  A    between atoms: C_2  and  C_26
    2  A    between atoms: C_3  and  C_18
    3  A    between atoms: C_5  and  C_18
    4  A    between atoms: N_7  and  C_13
    5  A    between atoms: N_7  and  C_21
                            x       y       z     vdW  Elec       q    Type
                         _______ _______ _______ _____ _____    ______ ____

>  <TORSDO>
F 5

$$$$
=
 OpenBabel10222418253D

 26 29  0  0  1  0  0  0  0  0999 V2000
  186.5250  177.2250  143.5280 O   0  0  0  0  0  1  0  0  0  0  0  0
  189.4710  177.2450  145.4840 C   0  0  0  0  0  0  0  0  0  0  0  0
  185.7550  179.0610  146.7720 C   0  0  0  0  0  2  0  0  0  0  0  0
  189.7490  176.9360  146.8500 C   0  0  0  0  0  3  0  0  0  0  0  0
  187.2140  177.7220  145.6890 C   0  0  2  0  0  3  0  0  0  0  0  0
  186.4330  178.2220  144.5800 C   0  0  2  0  0  3  0  0  0  0  0  0
  187.1560  178.5600  146.8580 C   0  0  2  0  0  3  0  0  0  0  0  0
  188.9590  177.1280  147.9560 C   0  0  0  0  0  2  0  0  0  0  0  0
  185.0840  178.4470  145.3640 C   0  0  2  0  0  3  0  0  0  0  0  0
  188.4110  177.7210  145.0410 C   0  0  0  0  0  2  0  0  0  0  0  0
  187.5530  177.6610  148.0590 C   0  0  0  0  0  2  0  0  0  0  0  0
  184.2800  179.4410  144.6080 N   0  0  0  0  0  2  0  0  0  0  0  0
  183.7540  178.8680  142.4490 O   0  0  0  0  0  1  0  0  0  0  0  0
  181.9250  178.9840  143.9680 C   0  0  0  0  0  1  0  0  0  0  0  0
  183.4030  178.6280  143.8030 C   0  0  2  0  0  3  0  0  0  0  0  0
  190.6610  177.1830  144.5490 C   0  0  0  0  0  2  0  0  0  0  0  0
  191.7080  177.1280  142.2940 N   0  0  0  0  0  2  0  0  0  0  0  0
  190.4000  177.7920  142.0820 C   0  0  2  0  0  3  0  0  0  0  0  0
  190.5060  176.6340  143.0630 C   0  0  2  0  0  3  0  0  0  0  0  0
  190.7530  176.5110  139.9430 N   0  0  0  0  0  0  0  0  0  0  0  0
  188.8140  177.9490  140.0430 C   0  0  0  0  0  3  0  0  0  0  0  0
  189.2650  176.5140  138.0880 C   0  0  0  0  0  3  0  0  0  0  0  0
  191.2350  175.0610  138.0740 N   0  0  0  0  0  1  0  0  0  0  0  0
  190.3920  176.0740  138.7350 C   0  0  0  0  0  0  0  0  0  0  0  0
  188.4630  177.5000  138.7750 C   0  0  0  0  0  3  0  0  0  0  0  0
  189.9700  177.4420  140.6620 C   0  0  0  0  0  0  0  0  0  0  0  0
  2  4  2  0  0  0  0
  4  8  1  0  0  0  0
  5 10  1  6  0  0  0
  5  7  1  0  0  0  0
  6  1  1  6  0  0  0
  6  9  1  0  0  0  0
  6  5  1  0  0  0  0
  7  3  1  1  0  0  0
  7 11  1  0  0  0  0
  8 11  1  0  0  0  0
  9 12  1  6  0  0  0
  9  3  1  0  0  0  0
 10  2  1  0  0  0  0
 13 15  1  0  0  0  0
 15 14  1  6  0  0  0
 15 12  1  0  0  0  0
 16  2  1  0  0  0  0
 17 19  1  0  0  0  0
 18 26  1  6  0  0  0
 18 17  1  0  0  0  0
 18 19  1  0  0  0  0
 19 16  1  1  0  0  0
 20 26  1  0  0  0  0
 21 26  2  0  0  0  0
 22 24  1  0  0  0  0
 22 25  2  0  0  0  0
 23 24  1  0  0  0  0
 24 20  2  0  0  0  0
 25 21  1  0  0  0  0
M  END
>  <MODEL>
2

>  <REMARK>
 VINA RESULT:      -8.8      1.054      1.431
  Name = 
  5 active torsions:
  status: ('A' for Active; 'I' for Inactive)
    1  A    between atoms: C_2  and  C_26
    2  A    between atoms: C_3  and  C_18
    3  A    between atoms: C_5  and  C_18
    4  A    between atoms: N_7  and  C_13
    5  A    between atoms: N_7  and  C_21
                            x       y       z     vdW  Elec       q    Type
                         _______ _______ _______ _____ _____    ______ ____

>  <TORSDO>
F 5

$$$$
=
 OpenBabel10222418253D

 26 29  0  0  1  0  0  0  0  0999 V2000
  188.4700  178.2870  143.6000 O   0  0  0  0  0  1  0  0  0  0  0  0
  186.8270  178.2050  146.7300 C   0  0  0  0  0  0  0  0  0  0  0  0
  190.7240  176.4420  146.0500 C   0  0  0  0  0  2  0  0  0  0  0  0
  187.2360  178.5010  148.0660 C   0  0  0  0  0  3  0  0  0  0  0  0
  188.9090  177.7640  145.8190 C   0  0  2  0  0  3  0  0  0  0  0  0
  189.0670  177.2840  144.4650 C   0  0  2  0  0  3  0  0  0  0  0  0
  189.5310  176.9190  146.8050 C   0  0  2  0  0  3  0  0  0  0  0  0
  188.4610  178.3140  148.6540 C   0  0  0  0  0  2  0  0  0  0  0  0
  190.6290  177.0760  144.5020 C   0  0  2  0  0  3  0  0  0  0  0  0
  187.5480  177.7490  145.8260 C   0  0  0  0  0  2  0  0  0  0  0  0
  189.7500  177.8030  148.0620 C   0  0  0  0  0  2  0  0  0  0  0  0
  190.9820  176.1010  143.4380 N   0  0  0  0  0  2  0  0  0  0  0  0
  191.8510  178.1840  143.0270 O   0  0  0  0  0  1  0  0  0  0  0  0
  190.8140  177.1060  141.1750 C   0  0  0  0  0  1  0  0  0  0  0  0
  191.6450  176.9070  142.4430 C   0  0  2  0  0  3  0  0  0  0  0  0
  185.3330  178.2540  146.4820 C   0  0  0  0  0  2  0  0  0  0  0  0
  184.7750  179.5700  144.4470 N   0  0  0  0  0  2  0  0  0  0  0  0
  183.4800  179.0040  144.8920 C   0  0  2  0  0  3  0  0  0  0  0  0
  184.7450  178.1670  145.0050 C   0  0  2  0  0  3  0  0  0  0  0  0
  181.2430  178.7070  143.7750 N   0  0  0  0  0  0  0  0  0  0  0  0
  183.1810  178.7700  142.3320 C   0  0  0  0  0  3  0  0  0  0  0  0
  180.8920  178.6160  141.4250 C   0  0  0  0  0  3  0  0  0  0  0  0
  178.9780  178.5870  142.9500 N   0  0  0  0  0  1  0  0  0  0  0  0
  180.4330  178.6340  142.7180 C   0  0  0  0  0  0  0  0  0  0  0  0
  182.3240  178.6720  141.2420 C   0  0  0  0  0  3  0  0  0  0  0  0
  182.6460  178.8070  143.6320 C   0  0  0  0  0  0  0  0  0  0  0  0
  2  4  2  0  0  0  0
  4  8  1  0  0  0  0
  5 10  1  1  0  0  0
  5  7  1  0  0  0  0
  6  1  1  6  0  0  0
  6  9  1  0  0  0  0
  6  5  1  0  0  0  0
  7  3  1  6  0  0  0
  7 11  1  0  0  0  0
  9 12  1  6  0  0  0
  9  3  1  0  0  0  0
 10  2  1  0  0  0  0
 11  8  1  0  0  0  0
 15 14  1  6  0  0  0
 15 13  1  0  0  0  0
 15 12  1  0  0  0  0
 16  2  1  0  0  0  0
 17 18  1  0  0  0  0
 17 19  1  0  0  0  0
 18 26  1  6  0  0  0
 18 19  1  0  0  0  0
 19 16  1  1  0  0  0
 21 26  2  0  0  0  0
 22 24  1  0  0  0  0
 24 23  1  0  0  0  0
 24 20  2  0  0  0  0
 25 22  2  0  0  0  0
 25 21  1  0  0  0  0
 26 20  1  0  0  0  0
M  END
>  <MODEL>
3

>  <REMARK>
 VINA RESULT:      -8.6      2.242      6.525
  Name = 
  5 active torsions:
  status: ('A' for Active; 'I' for Inactive)
    1  A    between atoms: C_2  and  C_26
    2  A    between atoms: C_3  and  C_18
    3  A    between atoms: C_5  and  C_18
    4  A    between atoms: N_7  and  C_13
    5  A    between atoms: N_7  and  C_21
                            x       y       z     vdW  Elec       q    Type
                         _______ _______ _______ _____ _____    ______ ____

>  <TORSDO>
F 5

$$$$
=
 OpenBabel10222418253D

 26 29  0  0  1  0  0  0  0  0999 V2000
  188.9980  178.5970  142.9470 O   0  0  0  0  0  1  0  0  0  0  0  0
  188.7420  177.6670  146.3490 C   0  0  0  0  0  0  0  0  0  0  0  0
  191.4760  175.7760  143.5720 C   0  0  0  0  0  2  0  0  0  0  0  0
  189.6990  177.4440  147.3840 C   0  0  0  0  0  3  0  0  0  0  0  0
  190.1170  177.3090  144.5200 C   0  0  2  0  0  3  0  0  0  0  0  0
  189.6070  177.2980  143.1690 C   0  0  2  0  0  3  0  0  0  0  0  0
  190.8360  176.1120  144.8750 C   0  0  2  0  0  3  0  0  0  0  0  0
  190.9650  176.9230  147.2910 C   0  0  0  0  0  2  0  0  0  0  0  0
  190.9510  176.9010  142.4460 C   0  0  2  0  0  3  0  0  0  0  0  0
  188.9110  177.4580  145.1350 C   0  0  0  0  0  2  0  0  0  0  0  0
  191.7450  176.4890  146.0760 C   0  0  0  0  0  2  0  0  0  0  0  0
  190.6000  176.3050  141.1310 N   0  0  0  0  0  2  0  0  0  0  0  0
  189.8330  177.9050  139.6760 O   0  0  0  0  0  1  0  0  0  0  0  0
  191.7890  176.7320  138.9930 C   0  0  0  0  0  1  0  0  0  0  0  0
  191.0170  177.3070  140.1810 C   0  0  2  0  0  3  0  0  0  0  0  0
  187.3350  177.9770  146.8200 C   0  0  0  0  0  2  0  0  0  0  0  0
  184.9910  178.7810  146.6160 N   0  0  0  0  0  2  0  0  0  0  0  0
  185.1570  177.8250  145.4970 C   0  0  2  0  0  3  0  0  0  0  0  0
  186.3070  178.7440  145.8770 C   0  0  2  0  0  3  0  0  0  0  0  0
  184.7160  178.2410  143.0530 N   0  0  0  0  0  0  0  0  0  0  0  0
  182.9290  178.7800  144.5880 C   0  0  0  0  0  3  0  0  0  0  0  0
  182.6500  178.9930  142.1470 C   0  0  0  0  0  3  0  0  0  0  0  0
  184.4960  178.4000  140.6540 N   0  0  0  0  0  1  0  0  0  0  0  0
  183.9420  178.5530  142.0120 C   0  0  0  0  0  0  0  0  0  0  0  0
  182.1430  179.1200  143.4940 C   0  0  0  0  0  3  0  0  0  0  0  0
  184.2390  178.3120  144.3810 C   0  0  0  0  0  0  0  0  0  0  0  0
  2 16  1  0  0  0  0
  2  4  2  0  0  0  0
  5  7  1  0  0  0  0
  5 10  1  1  0  0  0
  6  1  1  6  0  0  0
  6  5  1  0  0  0  0
  7  3  1  6  0  0  0
  7 11  1  0  0  0  0
  8  4  1  0  0  0  0
  9 12  1  6  0  0  0
  9  6  1  0  0  0  0
  9  3  1  0  0  0  0
 10  2  1  0  0  0  0
 11  8  1  0  0  0  0
 13 15  1  0  0  0  0
 15 14  1  6  0  0  0
 15 12  1  0  0  0  0
 18 26  1  6  0  0  0
 18 19  1  0  0  0  0
 18 17  1  0  0  0  0
 19 17  1  0  0  0  0
 19 16  1  1  0  0  0
 20 26  1  0  0  0  0
 22 25  2  0  0  0  0
 23 24  1  0  0  0  0
 24 22  1  0  0  0  0
 24 20  2  0  0  0  0
 25 21  1  0  0  0  0
 26 21  2  0  0  0  0
M  END
>  <MODEL>
4

>  <REMARK>
 VINA RESULT:      -8.6      1.876      6.175
  Name = 
  5 active torsions:
  status: ('A' for Active; 'I' for Inactive)
    1  A    between atoms: C_2  and  C_26
    2  A    between atoms: C_3  and  C_18
    3  A    between atoms: C_5  and  C_18
    4  A    between atoms: N_7  and  C_13
    5  A    between atoms: N_7  and  C_21
                            x       y       z     vdW  Elec       q    Type
                         _______ _______ _______ _____ _____    ______ ____

>  <TORSDO>
F 5

$$$$
=
 OpenBabel10222418253D

 26 29  0  0  1  0  0  0  0  0999 V2000
  188.4610  178.4180  143.3880 O   0  0  0  0  0  1  0  0  0  0  0  0
  186.4520  178.4270  146.2990 C   0  0  0  0  0  0  0  0  0  0  0  0
  190.3260  176.5000  146.0960 C   0  0  0  0  0  2  0  0  0  0  0  0
  186.7090  178.7150  147.6730 C   0  0  0  0  0  3  0  0  0  0  0  0
  188.6090  177.8940  145.6450 C   0  0  2  0  0  3  0  0  0  0  0  0
  188.9070  177.3990  144.3210 C   0  0  2  0  0  3  0  0  0  0  0  0
  189.0710  177.0320  146.7020 C   0  0  2  0  0  3  0  0  0  0  0  0
  187.8460  178.4830  148.4050 C   0  0  0  0  0  2  0  0  0  0  0  0
  190.4440  177.1270  144.5460 C   0  0  2  0  0  3  0  0  0  0  0  0
  187.2570  177.9360  145.4880 C   0  0  0  0  0  2  0  0  0  0  0  0
  189.1740  177.9150  147.9730 C   0  0  0  0  0  2  0  0  0  0  0  0
  190.8810  176.1300  143.5350 N   0  0  0  0  0  2  0  0  0  0  0  0
  191.9660  178.1350  143.2790 O   0  0  0  0  0  1  0  0  0  0  0  0
  191.0290  177.2000  141.3000 C   0  0  0  0  0  1  0  0  0  0  0  0
  191.7080  176.8970  142.6370 C   0  0  2  0  0  3  0  0  0  0  0  0
  185.0020  178.5350  145.8720 C   0  0  0  0  0  2  0  0  0  0  0  0
  183.1240  178.9590  144.2980 N   0  0  0  0  0  2  0  0  0  0  0  0
  184.0770  178.1260  143.5270 C   0  0  2  0  0  3  0  0  0  0  0  0
  184.6050  179.1900  144.4770 C   0  0  2  0  0  3  0  0  0  0  0  0
  185.0740  178.5560  141.2550 N   0  0  0  0  0  0  0  0  0  0  0  0
  182.6850  178.8490  141.4680 C   0  0  0  0  0  3  0  0  0  0  0  0
  183.8340  179.0940  139.2990 C   0  0  0  0  0  3  0  0  0  0  0  0
  186.2530  178.7530  139.1580 N   0  0  0  0  0  1  0  0  0  0  0  0
  185.0090  178.8060  139.9470 C   0  0  0  0  0  0  0  0  0  0  0  0
  182.6360  179.1270  140.1070 C   0  0  0  0  0  3  0  0  0  0  0  0
  183.9180  178.5370  142.0680 C   0  0  0  0  0  0  0  0  0  0  0  0
  2  4  2  0  0  0  0
  4  8  1  0  0  0  0
  5 10  1  6  0  0  0
  5  7  1  0  0  0  0
  6  1  1  6  0  0  0
  6  9  1  0  0  0  0
  6  5  1  0  0  0  0
  7  3  1  6  0  0  0
  7 11  1  0  0  0  0
  9 12  1  6  0  0  0
  9  3  1  0  0  0  0
 10  2  1  0  0  0  0
 11  8  1  0  0  0  0
 15 14  1  6  0  0  0
 15 13  1  0  0  0  0
 15 12  1  0  0  0  0
 16  2  1  0  0  0  0
 17 19  1  0  0  0  0
 18 26  1  6  0  0  0
 18 17  1  0  0  0  0
 18 19  1  0  0  0  0
 19 16  1  1  0  0  0
 20 26  1  0  0  0  0
 21 26  2  0  0  0  0
 22 24  1  0  0  0  0
 22 25  2  0  0  0  0
 23 24  1  0  0  0  0
 24 20  2  0  0  0  0
 25 21  1  0  0  0  0
M  END
>  <MODEL>
5

>  <REMARK>
 VINA RESULT:      -8.6      2.108      5.700
  Name = 
  5 active torsions:
  status: ('A' for Active; 'I' for Inactive)
    1  A    between atoms: C_2  and  C_26
    2  A    between atoms: C_3  and  C_18
    3  A    between atoms: C_5  and  C_18
    4  A    between atoms: N_7  and  C_13
    5  A    between atoms: N_7  and  C_21
                            x       y       z     vdW  Elec       q    Type
                         _______ _______ _______ _____ _____    ______ ____

>  <TORSDO>
F 5

$$$$
=
 OpenBabel10222418253D

 26 29  0  0  1  0  0  0  0  0999 V2000
  188.6470  178.3010  143.1930 O   0  0  0  0  0  1  0  0  0  0  0  0
  185.1160  178.4350  143.3390 C   0  0  0  0  0  0  0  0  0  0  0  0
  187.5770  177.0930  146.6400 C   0  0  0  0  0  2  0  0  0  0  0  0
  184.1880  178.9550  144.2910 C   0  0  0  0  0  3  0  0  0  0  0  0
  186.9300  178.1380  144.7470 C   0  0  2  0  0  3  0  0  0  0  0  0
  188.1500  177.5050  144.3010 C   0  0  2  0  0  3  0  0  0  0  0  0
  186.3490  177.5160  145.9090 C   0  0  2  0  0  3  0  0  0  0  0  0
  184.2910  179.0030  145.6580 C   0  0  0  0  0  2  0  0  0  0  0  0
  188.8970  177.4980  145.6900 C   0  0  2  0  0  3  0  0  0  0  0  0
  186.2350  177.9560  143.5900 C   0  0  0  0  0  2  0  0  0  0  0  0
  185.4250  178.5810  146.5580 C   0  0  0  0  0  2  0  0  0  0  0  0
  189.9390  176.4400  145.6400 N   0  0  0  0  0  2  0  0  0  0  0  0
  191.8080  177.7390  145.3550 O   0  0  0  0  0  1  0  0  0  0  0  0
  191.9870  176.0020  146.9730 C   0  0  0  0  0  1  0  0  0  0  0  0
  191.0580  177.0330  146.3300 C   0  0  2  0  0  3  0  0  0  0  0  0
  184.5770  178.2650  141.9330 C   0  0  0  0  0  2  0  0  0  0  0  0
  184.7840  179.5970  139.8430 N   0  0  0  0  0  2  0  0  0  0  0  0
  184.7540  178.1880  139.3860 C   0  0  2  0  0  3  0  0  0  0  0  0
  185.4960  178.5490  140.6640 C   0  0  2  0  0  3  0  0  0  0  0  0
  186.8750  178.7160  138.1350 N   0  0  0  0  0  0  0  0  0  0  0  0
  185.1710  177.5030  136.9250 C   0  0  0  0  0  3  0  0  0  0  0  0
  187.3680  178.0030  135.9210 C   0  0  0  0  0  3  0  0  0  0  0  0
  189.0540  179.2100  137.2210 N   0  0  0  0  0  1  0  0  0  0  0  0
  187.7060  178.6270  137.0960 C   0  0  0  0  0  0  0  0  0  0  0  0
  186.0410  177.4370  135.8430 C   0  0  0  0  0  3  0  0  0  0  0  0
  185.5860  178.1360  138.1100 C   0  0  0  0  0  0  0  0  0  0  0  0
  2 10  1  0  0  0  0
  2  4  2  0  0  0  0
  4  8  1  0  0  0  0
  5 10  1  6  0  0  0
  5  7  1  0  0  0  0
  6  1  1  6  0  0  0
  6  5  1  0  0  0  0
  6  9  1  0  0  0  0
  7 11  1  1  0  0  0
  7  3  1  0  0  0  0
  8 11  1  0  0  0  0
  9 12  1  6  0  0  0
  9  3  1  0  0  0  0
 12 15  1  0  0  0  0
 13 15  1  0  0  0  0
 15 14  1  6  0  0  0
 16  2  1  0  0  0  0
 17 19  1  0  0  0  0
 18 26  1  6  0  0  0
 18 17  1  0  0  0  0
 18 19  1  0  0  0  0
 19 16  1  1  0  0  0
 21 26  2  0  0  0  0
 22 24  1  0  0  0  0
 24 23  1  0  0  0  0
 24 20  2  0  0  0  0
 25 22  2  0  0  0  0
 25 21  1  0  0  0  0
 26 20  1  0  0  0  0
M  END
>  <MODEL>
6

>  <REMARK>
 VINA RESULT:      -8.5      2.605      5.428
  Name = 
  5 active torsions:
  status: ('A' for Active; 'I' for Inactive)
    1  A    between atoms: C_2  and  C_26
    2  A    between atoms: C_3  and  C_18
    3  A    between atoms: C_5  and  C_18
    4  A    between atoms: N_7  and  C_13
    5  A    between atoms: N_7  and  C_21
                            x       y       z     vdW  Elec       q    Type
                         _______ _______ _______ _____ _____    ______ ____

>  <TORSDO>
F 5

$$$$
=
 OpenBabel10222418253D

 26 29  0  0  1  0  0  0  0  0999 V2000
  187.7170  176.9640  143.1920 O   0  0  0  0  0  1  0  0  0  0  0  0
  185.4800  178.3880  145.5310 C   0  0  0  0  0  0  0  0  0  0  0  0
  185.4180  179.3400  141.3050 C   0  0  0  0  0  2  0  0  0  0  0  0
  184.0640  178.5730  145.5540 C   0  0  0  0  0  3  0  0  0  0  0  0
  185.7710  178.2300  143.2390 C   0  0  2  0  0  3  0  0  0  0  0  0
  187.0830  178.1470  142.6380 C   0  0  2  0  0  3  0  0  0  0  0  0
  184.9700  179.3110  142.7270 C   0  0  2  0  0  3  0  0  0  0  0  0
  183.2110  178.8340  144.5120 C   0  0  0  0  0  2  0  0  0  0  0  0
  186.6200  178.1850  141.1310 C   0  0  2  0  0  3  0  0  0  0  0  0
  186.2040  178.3920  144.5200 C   0  0  0  0  0  2  0  0  0  0  0  0
  183.4940  178.9440  143.0350 C   0  0  0  0  0  2  0  0  0  0  0  0
  187.7720  178.6470  140.3140 N   0  0  0  0  0  2  0  0  0  0  0  0
  189.7750  177.5320  140.4120 O   0  0  0  0  0  1  0  0  0  0  0  0
  188.4950  177.1970  138.4330 C   0  0  0  0  0  1  0  0  0  0  0  0
  188.4400  177.4240  139.9440 C   0  0  2  0  0  3  0  0  0  0  0  0
  186.1610  178.4110  146.8840 C   0  0  0  0  0  2  0  0  0  0  0  0
  188.3130  178.2470  148.1180 N   0  0  0  0  0  2  0  0  0  0  0  0
  188.6910  178.1270  146.6910 C   0  0  2  0  0  3  0  0  0  0  0  0
  187.4110  177.4730  147.1870 C   0  0  2  0  0  3  0  0  0  0  0  0
  190.3520  176.7460  145.3970 N   0  0  0  0  0  0  0  0  0  0  0  0
  190.7160  176.9370  147.7790 C   0  0  0  0  0  3  0  0  0  0  0  0
  192.3000  175.7380  146.3170 C   0  0  0  0  0  3  0  0  0  0  0  0
  191.8780  175.6120  143.9090 N   0  0  0  0  0  1  0  0  0  0  0  0
  191.4820  176.0500  145.2600 C   0  0  0  0  0  0  0  0  0  0  0  0
  191.8800  176.1940  147.6220 C   0  0  0  0  0  3  0  0  0  0  0  0
  189.9330  177.2440  146.6520 C   0  0  0  0  0  0  0  0  0  0  0  0
  2  4  2  0  0  0  0
  2 16  1  0  0  0  0
  5 10  1  1  0  0  0
  6  1  1  6  0  0  0
  6  5  1  0  0  0  0
  7  3  1  6  0  0  0
  7 11  1  0  0  0  0
  7  5  1  0  0  0  0
  8  4  1  0  0  0  0
  9 12  1  6  0  0  0
  9  3  1  0  0  0  0
  9  6  1  0  0  0  0
 10  2  1  0  0  0  0
 11  8  1  0  0  0  0
 15 14  1  6  0  0  0
 15 12  1  0  0  0  0
 15 13  1  0  0  0  0
 18 26  1  1  0  0  0
 18 19  1  0  0  0  0
 18 17  1  0  0  0  0
 19 16  1  6  0  0  0
 19 17  1  0  0  0  0
 20 26  1  0  0  0  0
 22 25  2  0  0  0  0
 23 24  1  0  0  0  0
 24 20  2  0  0  0  0
 24 22  1  0  0  0  0
 25 21  1  0  0  0  0
 26 21  2  0  0  0  0
M  END
>  <MODEL>
7

>  <REMARK>
 VINA RESULT:      -8.5      2.147      5.959
  Name = 
  5 active torsions:
  status: ('A' for Active; 'I' for Inactive)
    1  A    between atoms: C_2  and  C_26
    2  A    between atoms: C_3  and  C_18
    3  A    between atoms: C_5  and  C_18
    4  A    between atoms: N_7  and  C_13
    5  A    between atoms: N_7  and  C_21
                            x       y       z     vdW  Elec       q    Type
                         _______ _______ _______ _____ _____    ______ ____

>  <TORSDO>
F 5

$$$$
=
 OpenBabel10222418253D

 26 29  0  0  1  0  0  0  0  0999 V2000
  186.4760  177.3700  143.8260 O   0  0  0  0  0  1  0  0  0  0  0  0
  189.9170  177.3990  144.6430 C   0  0  0  0  0  0  0  0  0  0  0  0
  186.7970  178.4120  147.4730 C   0  0  0  0  0  2  0  0  0  0  0  0
  190.6760  176.8670  145.7290 C   0  0  0  0  0  3  0  0  0  0  0  0
  187.8540  177.5200  145.6890 C   0  0  2  0  0  3  0  0  0  0  0  0
  186.7050  178.1190  145.0490 C   0  0  2  0  0  3  0  0  0  0  0  0
  188.1650  178.0960  146.9710 C   0  0  2  0  0  3  0  0  0  0  0  0
  190.3180  176.7300  147.0460 C   0  0  0  0  0  2  0  0  0  0  0  0
  185.7090  178.0030  146.2660 C   0  0  2  0  0  3  0  0  0  0  0  0
  188.7430  177.8070  144.6990 C   0  0  0  0  0  2  0  0  0  0  0  0
  189.0110  177.0400  147.7300 C   0  0  0  0  0  2  0  0  0  0  0  0
  184.6340  179.0090  146.0700 N   0  0  0  0  0  2  0  0  0  0  0  0
  184.6560  180.2080  144.1140 O   0  0  0  0  0  1  0  0  0  0  0  0
  182.8810  178.6400  144.3520 C   0  0  0  0  0  1  0  0  0  0  0  0
  184.3500  178.9340  144.6590 C   0  0  2  0  0  3  0  0  0  0  0  0
  190.7010  177.6830  143.3780 C   0  0  0  0  0  2  0  0  0  0  0  0
  191.6520  177.0880  141.1590 N   0  0  0  0  0  2  0  0  0  0  0  0
  190.3510  177.7260  140.8490 C   0  0  2  0  0  3  0  0  0  0  0  0
  190.4730  176.8170  142.0620 C   0  0  2  0  0  3  0  0  0  0  0  0
  190.5940  175.9920  139.0390 N   0  0  0  0  0  0  0  0  0  0  0  0
  188.6790  177.4590  138.8910 C   0  0  0  0  0  3  0  0  0  0  0  0
  189.0260  175.6140  137.2910 C   0  0  0  0  0  3  0  0  0  0  0  0
  190.9760  174.1530  137.5230 N   0  0  0  0  0  1  0  0  0  0  0  0
  190.1750  175.3060  137.9750 C   0  0  0  0  0  0  0  0  0  0  0  0
  188.2670  176.7460  137.7720 C   0  0  0  0  0  3  0  0  0  0  0  0
  189.8550  177.0770  139.5620 C   0  0  0  0  0  0  0  0  0  0  0  0
  2 10  1  0  0  0  0
  2  4  2  0  0  0  0
  4  8  1  0  0  0  0
  5 10  1  6  0  0  0
  5  7  1  0  0  0  0
  6  1  1  6  0  0  0
  6  5  1  0  0  0  0
  6  9  1  0  0  0  0
  7  3  1  1  0  0  0
  7 11  1  0  0  0  0
  8 11  1  0  0  0  0
  9 12  1  6  0  0  0
  9  3  1  0  0  0  0
 13 15  1  0  0  0  0
 15 14  1  1  0  0  0
 15 12  1  0  0  0  0
 16  2  1  0  0  0  0
 17 19  1  0  0  0  0
 18 26  1  6  0  0  0
 18 17  1  0  0  0  0
 18 19  1  0  0  0  0
 19 16  1  1  0  0  0
 20 26  1  0  0  0  0
 21 26  2  0  0  0  0
 22 25  2  0  0  0  0
 22 24  1  0  0  0  0
 23 24  1  0  0  0  0
 24 20  2  0  0  0  0
 25 21  1  0  0  0  0
M  END
>  <MODEL>
8

>  <REMARK>
 VINA RESULT:      -8.2      1.620      2.055
  Name = 
  5 active torsions:
  status: ('A' for Active; 'I' for Inactive)
    1  A    between atoms: C_2  and  C_26
    2  A    between atoms: C_3  and  C_18
    3  A    between atoms: C_5  and  C_18
    4  A    between atoms: N_7  and  C_13
    5  A    between atoms: N_7  and  C_21
                            x       y       z     vdW  Elec       q    Type
                         _______ _______ _______ _____ _____    ______ ____

>  <TORSDO>
F 5

$$$$
=
 OpenBabel10222418253D

 26 29  0  0  1  0  0  0  0  0999 V2000
  188.2250  178.6350  141.9520 O   0  0  0  0  0  1  0  0  0  0  0  0
  184.8080  178.6590  142.8630 C   0  0  0  0  0  0  0  0  0  0  0  0
  187.9360  177.1010  145.4230 C   0  0  0  0  0  2  0  0  0  0  0  0
  184.1040  179.0680  144.0360 C   0  0  0  0  0  3  0  0  0  0  0  0
  186.8860  178.2890  143.8170 C   0  0  2  0  0  3  0  0  0  0  0  0
  187.9860  177.7320  143.0630 C   0  0  2  0  0  3  0  0  0  0  0  0
  186.5750  177.5520  145.0140 C   0  0  2  0  0  3  0  0  0  0  0  0
  184.5000  178.9980  145.3480 C   0  0  0  0  0  2  0  0  0  0  0  0
  189.0150  177.6240  144.2530 C   0  0  2  0  0  3  0  0  0  0  0  0
  185.9590  178.1900  142.8240 C   0  0  0  0  0  2  0  0  0  0  0  0
  185.8050  178.5300  145.9410 C   0  0  0  0  0  2  0  0  0  0  0  0
  190.0310  176.6040  143.8840 N   0  0  0  0  0  2  0  0  0  0  0  0
  191.5860  176.9900  145.5260 O   0  0  0  0  0  1  0  0  0  0  0  0
  191.2310  178.7740  143.9910 C   0  0  0  0  0  1  0  0  0  0  0  0
  191.2860  177.2560  144.1650 C   0  0  2  0  0  3  0  0  0  0  0  0
  183.9800  178.5980  141.5960 C   0  0  0  0  0  2  0  0  0  0  0  0
  183.5240  178.7830  139.1590 N   0  0  0  0  0  2  0  0  0  0  0  0
  184.6240  177.7970  139.2590 C   0  0  2  0  0  3  0  0  0  0  0  0
  184.6060  179.0000  140.1890 C   0  0  2  0  0  3  0  0  0  0  0  0
  186.6790  178.6190  138.0570 N   0  0  0  0  0  0  0  0  0  0  0  0
  185.0650  177.3940  136.7400 C   0  0  0  0  0  3  0  0  0  0  0  0
  187.2010  178.1700  135.7810 C   0  0  0  0  0  3  0  0  0  0  0  0
  188.7980  179.3790  137.1860 N   0  0  0  0  0  1  0  0  0  0  0  0
  187.5010  178.7010  137.0090 C   0  0  0  0  0  0  0  0  0  0  0  0
  185.9230  177.5060  135.6530 C   0  0  0  0  0  3  0  0  0  0  0  0
  185.4420  177.9400  137.9800 C   0  0  0  0  0  0  0  0  0  0  0  0
  2  4  2  0  0  0  0
  4  8  1  0  0  0  0
  5 10  1  6  0  0  0
  5  7  1  0  0  0  0
  6  1  1  6  0  0  0
  6  5  1  0  0  0  0
  6  9  1  0  0  0  0
  7  3  1  1  0  0  0
  7 11  1  0  0  0  0
  8 11  1  0  0  0  0
  9 12  1  6  0  0  0
  9  3  1  0  0  0  0
 10  2  1  0  0  0  0
 12 15  1  0  0  0  0
 15 14  1  1  0  0  0
 15 13  1  0  0  0  0
 16  2  1  0  0  0  0
 17 18  1  0  0  0  0
 17 19  1  0  0  0  0
 18 26  1  6  0  0  0
 18 19  1  0  0  0  0
 19 16  1  1  0  0  0
 21 26  2  0  0  0  0
 22 24  1  0  0  0  0
 24 23  1  0  0  0  0
 24 20  2  0  0  0  0
 25 22  2  0  0  0  0
 25 21  1  0  0  0  0
 26 20  1  0  0  0  0
M  END
>  <MODEL>
9

>  <REMARK>
 VINA RESULT:      -8.2      2.599      5.576
  Name = 
  5 active torsions:
  status: ('A' for Active; 'I' for Inactive)
    1  A    between atoms: C_2  and  C_26
    2  A    between atoms: C_3  and  C_18
    3  A    between atoms: C_5  and  C_18
    4  A    between atoms: N_7  and  C_13
    5  A    between atoms: N_7  and  C_21
                            x       y       z     vdW  Elec       q    Type
                         _______ _______ _______ _____ _____    ______ ____

>  <TORSDO>
F 5

$$$$
