=
 OpenBabel10222418583D

 43 47  0  0  1  0  0  0  0  0999 V2000
  189.2940  177.0080  140.2810 C   0  0  0  0  0  0  0  0  0  0  0  0
  188.2430  177.8050  139.7700 C   0  0  0  0  0  0  0  0  0  0  0  0
  187.2150  177.7500  141.9420 C   0  0  0  0  0  0  0  0  0  0  0  0
  188.2200  176.9840  142.4370 N   0  0  0  0  0  0  0  0  0  0  0  0
  189.2500  176.6050  141.6310 C   0  0  0  0  0  3  0  0  0  0  0  0
  182.7360  177.0550  138.4280 O   0  0  0  0  0  0  0  0  0  0  0  0
  186.0800  178.2760  142.7270 C   0  0  0  0  0  2  0  0  0  0  0  0
  182.6950  177.5120  139.6020 C   0  0  0  0  0  0  0  0  0  0  0  0
  185.0640  178.3700  139.4090 C   0  0  0  0  0  2  0  0  0  0  0  0
  185.3210  179.1570  141.7240 C   0  0  2  0  0  3  0  0  0  0  0  0
  183.9170  178.6150  141.5330 C   0  0  0  0  0  2  0  0  0  0  0  0
  183.8460  178.1560  140.1610 N   0  0  0  0  0  0  0  0  0  0  0  0
  187.2000  178.1620  140.6380 C   0  0  0  0  0  0  0  0  0  0  0  0
  186.0390  179.0460  140.3590 C   0  0  1  0  0  3  0  0  0  0  0  0
  192.8080  176.5880  138.8960 C   0  0  0  0  0  3  0  0  0  0  0  0
  191.2580  175.3480  137.5200 C   0  0  0  0  0  3  0  0  0  0  0  0
  190.2040  175.7630  138.3360 C   0  0  0  0  0  3  0  0  0  0  0  0
  192.5690  175.7600  137.7920 C   0  0  0  0  0  0  0  0  0  0  0  0
  191.7600  177.0010  139.7250 C   0  0  0  0  0  0  0  0  0  0  0  0
  190.4380  176.5930  139.4400 C   0  0  0  0  0  0  0  0  0  0  0  0
  196.4190  173.4660  136.0800 O   0  0  0  0  0  1  0  0  0  0  0  0
  193.6630  175.3400  136.9600 N   0  0  0  0  0  0  0  0  0  0  0  0
  195.7550  174.6850  136.2470 C   0  0  1  0  0  3  0  0  0  0  0  0
  193.6700  175.6230  135.6290 O   0  0  0  0  0  0  0  0  0  0  0  0
  194.7690  174.9070  135.1190 C   0  0  0  0  0  2  0  0  0  0  0  0
  194.8740  174.7280  137.4750 C   0  0  2  0  0  3  0  0  0  0  0  0
  194.5490  173.3440  138.0400 C   0  0  0  0  0  2  0  0  0  0  0  0
  195.3430  173.0890  139.1590 O   0  0  0  0  0  1  0  0  0  0  0  0
  192.0730  177.9290  140.8530 C   0  0  0  0  0  2  0  0  0  0  0  0
  192.3140  177.1650  142.0650 N   0  0  0  0  0  2  0  0  0  0  0  0
  191.8270  177.9720  143.1680 C   0  0  0  0  0  1  0  0  0  0  0  0
  187.5930  177.6190  137.3640 C   0  0  0  0  0  0  0  0  0  0  0  0
  187.6010  178.1490  136.0420 N   0  0  0  0  0  1  0  0  0  0  0  0
  186.9900  176.5350  137.5880 O   0  0  0  0  0  0  0  0  0  0  0  0
  188.2720  178.3040  138.4270 N   0  0  0  0  0  0  0  0  0  0  0  0
  189.0330  179.5140  138.1500 C   0  0  0  0  0  1  0  0  0  0  0  0
  181.4280  177.3770  140.3920 C   0  0  0  0  0  2  0  0  0  0  0  0
  180.2970  178.2810  139.8870 C   0  0  1  0  0  3  0  0  0  0  0  0
  179.0480  177.6970  140.1080 O   0  0  0  0  0  1  0  0  0  0  0  0
  179.0810  180.2730  140.4350 F   0  0  0  0  0  0  0  0  0  0  0  0
  180.8280  179.6900  141.7420 F   0  0  0  0  0  0  0  0  0  0  0  0
  180.3420  179.7040  140.4460 C   0  0  0  0  0  0  0  0  0  0  0  0
  181.1840  180.4710  139.6630 F   0  0  0  0  0  0  0  0  0  0  0  0
  1  5  1  0  0  0  0
  2  1  2  0  0  0  0
  2 13  1  0  0  0  0
  3  4  1  0  0  0  0
  3  7  1  0  0  0  0
  5  4  2  0  0  0  0
  6  8  2  0  0  0  0
  8 12  1  0  0  0  0
  8 37  1  0  0  0  0
  9 12  1  0  0  0  0
 10 11  1  6  0  0  0
 10  7  1  0  0  0  0
 12 11  1  0  0  0  0
 13  3  2  0  0  0  0
 14  9  1  6  0  0  0
 14 13  1  0  0  0  0
 14 10  1  0  0  0  0
 15 19  1  0  0  0  0
 16 18  1  0  0  0  0
 16 17  2  0  0  0  0
 17 20  1  0  0  0  0
 18 15  2  0  0  0  0
 19 29  1  0  0  0  0
 20 19  2  0  0  0  0
 20  1  1  0  0  0  0
 22 26  1  0  0  0  0
 22 18  1  0  0  0  0
 23 21  1  6  0  0  0
 23 26  1  0  0  0  0
 24 22  1  0  0  0  0
 25 24  1  0  0  0  0
 25 23  1  0  0  0  0
 26 27  1  6  0  0  0
 27 28  1  0  0  0  0
 29 30  1  0  0  0  0
 30 31  1  0  0  0  0
 32 34  2  0  0  0  0
 32 35  1  0  0  0  0
 33 32  1  0  0  0  0
 35  2  1  0  0  0  0
 36 35  1  0  0  0  0
 38 39  1  1  0  0  0
 38 37  1  0  0  0  0
 38 42  1  0  0  0  0
 40 42  1  0  0  0  0
 42 41  1  0  0  0  0
 43 42  1  0  0  0  0
M  END
>  <MODEL>
1

>  <REMARK>
 VINA RESULT:      -6.0      0.000      0.000
  Name = 
  9 active torsions:
  status: ('A' for Active; 'I' for Inactive)
    1  A    between atoms: N_2  and  C_23
    2  A    between atoms: C_3  and  C_42
    3  A    between atoms: C_4  and  N_40
    4  A    between atoms: C_5  and  C_43
    5  A    between atoms: N_7  and  C_35
    6  A    between atoms: C_18  and  C_27
    7  A    between atoms: C_18  and  C_31
    8  A    between atoms: C_19  and  C_31
    9  A    between atoms: C_23  and  C_36
                            x       y       z     vdW  Elec       q    Type
                         _______ _______ _______ _____ _____    ______ ____

>  <TORSDO>
F 9

$$$$
=
 OpenBabel10222418583D

 43 47  0  0  1  0  0  0  0  0999 V2000
  183.8520  177.1380  136.2070 C   0  0  0  0  0  0  0  0  0  0  0  0
  183.0670  177.6690  137.2570 C   0  0  0  0  0  0  0  0  0  0  0  0
  181.2530  177.9260  135.7010 C   0  0  0  0  0  0  0  0  0  0  0  0
  182.0020  177.4190  134.6900 N   0  0  0  0  0  0  0  0  0  0  0  0
  183.2870  177.0290  134.9210 C   0  0  0  0  0  3  0  0  0  0  0  0
  181.0070  182.8000  138.7150 O   0  0  0  0  0  0  0  0  0  0  0  0
  179.8350  178.3230  135.5930 C   0  0  0  0  0  2  0  0  0  0  0  0
  180.0530  182.2640  138.0900 C   0  0  0  0  0  0  0  0  0  0  0  0
  181.0730  179.9720  138.3870 C   0  0  0  0  0  2  0  0  0  0  0  0
  179.4550  178.7110  137.0300 C   0  0  2  0  0  3  0  0  0  0  0  0
  179.0440  180.1710  137.0700 C   0  0  0  0  0  2  0  0  0  0  0  0
  180.0460  180.8490  137.8650 N   0  0  0  0  0  0  0  0  0  0  0  0
  181.7530  178.0650  136.9670 C   0  0  0  0  0  0  0  0  0  0  0  0
  180.7210  178.5730  137.9070 C   0  0  1  0  0  3  0  0  0  0  0  0
  186.8750  175.0130  137.0950 C   0  0  0  0  0  3  0  0  0  0  0  0
  187.6220  177.1810  136.3350 C   0  0  0  0  0  3  0  0  0  0  0  0
  186.2950  177.5700  136.1440 C   0  0  0  0  0  3  0  0  0  0  0  0
  187.9230  175.8990  136.8150 C   0  0  0  0  0  0  0  0  0  0  0  0
  185.5430  175.3910  136.8990 C   0  0  0  0  0  0  0  0  0  0  0  0
  185.2440  176.6880  136.4250 C   0  0  0  0  0  0  0  0  0  0  0  0
  192.4200  175.5420  138.4480 O   0  0  0  0  0  1  0  0  0  0  0  0
  189.2850  175.4860  137.0160 N   0  0  0  0  0  0  0  0  0  0  0  0
  191.5670  175.5250  137.3400 C   0  0  1  0  0  3  0  0  0  0  0  0
  189.7060  174.2590  136.6040 O   0  0  0  0  0  0  0  0  0  0  0  0
  191.0050  174.1340  137.1280 C   0  0  0  0  0  2  0  0  0  0  0  0
  190.3230  176.3640  137.5250 C   0  0  2  0  0  3  0  0  0  0  0  0
  190.0320  176.7070  138.9880 C   0  0  0  0  0  2  0  0  0  0  0  0
  189.8170  178.0800  139.1190 O   0  0  0  0  0  1  0  0  0  0  0  0
  184.4700  174.4200  137.2700 C   0  0  0  0  0  2  0  0  0  0  0  0
  185.0620  173.1340  137.5940 N   0  0  0  0  0  2  0  0  0  0  0  0
  184.1300  172.1200  137.1370 C   0  0  0  0  0  1  0  0  0  0  0  0
  184.3580  178.8450  139.0450 C   0  0  0  0  0  0  0  0  0  0  0  0
  184.8130  178.9120  140.3930 N   0  0  0  0  0  1  0  0  0  0  0  0
  184.6680  179.7680  138.2450 O   0  0  0  0  0  0  0  0  0  0  0  0
  183.5650  177.7350  138.6000 N   0  0  0  0  0  0  0  0  0  0  0  0
  183.2740  176.6330  139.5040 C   0  0  0  0  0  1  0  0  0  0  0  0
  178.9310  183.1280  137.5950 C   0  0  0  0  0  2  0  0  0  0  0  0
  179.4120  184.3810  136.8530 C   0  0  1  0  0  3  0  0  0  0  0  0
  179.9440  185.3190  137.7400 O   0  0  0  0  0  1  0  0  0  0  0  0
  180.3820  182.7460  135.3920 F   0  0  0  0  0  0  0  0  0  0  0  0
  180.0470  184.8310  134.5940 F   0  0  0  0  0  0  0  0  0  0  0  0
  180.3890  184.0920  135.7120 C   0  0  0  0  0  0  0  0  0  0  0  0
  181.6640  184.4490  136.1090 F   0  0  0  0  0  0  0  0  0  0  0  0
  1 20  1  0  0  0  0
  1  2  1  0  0  0  0
  2 35  1  0  0  0  0
  3 13  1  0  0  0  0
  4  5  1  0  0  0  0
  4  3  2  0  0  0  0
  5  1  2  0  0  0  0
  7  3  1  0  0  0  0
  8  6  2  0  0  0  0
 10  7  1  6  0  0  0
 10 11  1  0  0  0  0
 10 14  1  0  0  0  0
 11 12  1  0  0  0  0
 12  8  1  0  0  0  0
 12  9  1  0  0  0  0
 13  2  2  0  0  0  0
 13 14  1  0  0  0  0
 14  9  1  6  0  0  0
 16 18  1  0  0  0  0
 17 16  2  0  0  0  0
 17 20  1  0  0  0  0
 18 22  1  0  0  0  0
 18 15  2  0  0  0  0
 19 15  1  0  0  0  0
 19 29  1  0  0  0  0
 20 19  2  0  0  0  0
 22 26  1  0  0  0  0
 23 26  1  0  0  0  0
 23 21  1  1  0  0  0
 24 22  1  0  0  0  0
 24 25  1  0  0  0  0
 25 23  1  0  0  0  0
 26 27  1  1  0  0  0
 27 28  1  0  0  0  0
 29 30  1  0  0  0  0
 31 30  1  0  0  0  0
 32 33  1  0  0  0  0
 34 32  2  0  0  0  0
 35 32  1  0  0  0  0
 35 36  1  0  0  0  0
 37  8  1  0  0  0  0
 38 37  1  0  0  0  0
 38 39  1  1  0  0  0
 40 42  1  0  0  0  0
 41 42  1  0  0  0  0
 42 43  1  0  0  0  0
 42 38  1  0  0  0  0
M  END
>  <MODEL>
2

>  <REMARK>
 VINA RESULT:      -5.9      3.952      6.626
  Name = 
  9 active torsions:
  status: ('A' for Active; 'I' for Inactive)
    1  A    between atoms: N_2  and  C_23
    2  A    between atoms: C_3  and  C_42
    3  A    between atoms: C_4  and  N_40
    4  A    between atoms: C_5  and  C_43
    5  A    between atoms: N_7  and  C_35
    6  A    between atoms: C_18  and  C_27
    7  A    between atoms: C_18  and  C_31
    8  A    between atoms: C_19  and  C_31
    9  A    between atoms: C_23  and  C_36
                            x       y       z     vdW  Elec       q    Type
                         _______ _______ _______ _____ _____    ______ ____

>  <TORSDO>
F 9

$$$$
=
 OpenBabel10222418583D

 43 47  0  0  1  0  0  0  0  0999 V2000
  185.1770  175.8000  137.1540 C   0  0  0  0  0  0  0  0  0  0  0  0
  186.3960  176.1300  136.5170 C   0  0  0  0  0  0  0  0  0  0  0  0
  186.9520  173.7920  136.4820 C   0  0  0  0  0  0  0  0  0  0  0  0
  185.7850  173.4700  137.0940 N   0  0  0  0  0  0  0  0  0  0  0  0
  184.9000  174.4480  137.4360 C   0  0  0  0  0  3  0  0  0  0  0  0
  191.9320  176.2310  137.9430 O   0  0  0  0  0  0  0  0  0  0  0  0
  187.9590  172.8230  136.0060 C   0  0  0  0  0  2  0  0  0  0  0  0
  191.7900  175.1080  137.3890 C   0  0  0  0  0  0  0  0  0  0  0  0
  189.6270  175.8520  136.3150 C   0  0  0  0  0  2  0  0  0  0  0  0
  189.0040  173.7000  135.3010 C   0  0  2  0  0  3  0  0  0  0  0  0
  190.3430  173.5550  135.9990 C   0  0  0  0  0  2  0  0  0  0  0  0
  190.6340  174.8470  136.5840 N   0  0  0  0  0  0  0  0  0  0  0  0
  187.2780  175.0890  136.1930 C   0  0  0  0  0  0  0  0  0  0  0  0
  188.5670  175.1750  135.4600 C   0  0  1  0  0  3  0  0  0  0  0  0
  182.1930  178.1510  137.0700 C   0  0  0  0  0  3  0  0  0  0  0  0
  183.4030  178.4760  139.1350 C   0  0  0  0  0  3  0  0  0  0  0  0
  184.3200  177.4960  138.7500 C   0  0  0  0  0  3  0  0  0  0  0  0
  182.3320  178.8140  138.2960 C   0  0  0  0  0  0  0  0  0  0  0  0
  183.1010  177.1630  136.6790 C   0  0  0  0  0  0  0  0  0  0  0  0
  184.1860  176.8330  137.5240 C   0  0  0  0  0  0  0  0  0  0  0  0
  179.0430  181.3410  140.7050 O   0  0  0  0  0  1  0  0  0  0  0  0
  181.3810  179.8200  138.6800 N   0  0  0  0  0  0  0  0  0  0  0  0
  179.4800  180.8590  139.4670 C   0  0  1  0  0  3  0  0  0  0  0  0
  181.4130  181.0570  138.1140 O   0  0  0  0  0  0  0  0  0  0  0  0
  180.4870  181.8120  138.8550 C   0  0  0  0  0  2  0  0  0  0  0  0
  180.2600  179.5670  139.5660 C   0  0  2  0  0  3  0  0  0  0  0  0
  180.7750  179.2730  140.9760 C   0  0  0  0  0  2  0  0  0  0  0  0
  180.0070  178.2660  141.5610 O   0  0  0  0  0  1  0  0  0  0  0  0
  182.9290  176.5340  135.3350 C   0  0  0  0  0  2  0  0  0  0  0  0
  181.5810  176.0100  135.2070 N   0  0  0  0  0  2  0  0  0  0  0  0
  181.5960  174.6780  135.7800 C   0  0  0  0  0  1  0  0  0  0  0  0
  187.3440  178.3800  137.0530 C   0  0  0  0  0  0  0  0  0  0  0  0
  187.6700  179.7060  136.6480 N   0  0  0  0  0  1  0  0  0  0  0  0
  187.6210  178.0090  138.2250 O   0  0  0  0  0  0  0  0  0  0  0  0
  186.6980  177.4800  136.1400 N   0  0  0  0  0  0  0  0  0  0  0  0
  186.3090  177.9350  134.8130 C   0  0  0  0  0  1  0  0  0  0  0  0
  192.8460  174.0620  137.5820 C   0  0  0  0  0  2  0  0  0  0  0  0
  194.2420  174.6470  137.8340 C   0  0  1  0  0  3  0  0  0  0  0  0
  195.0150  173.7880  138.6180 O   0  0  0  0  0  1  0  0  0  0  0  0
  194.7000  174.1650  135.5300 F   0  0  0  0  0  0  0  0  0  0  0  0
  194.6340  176.3260  136.1800 F   0  0  0  0  0  0  0  0  0  0  0  0
  194.9890  175.0430  136.5590 C   0  0  0  0  0  0  0  0  0  0  0  0
  196.3480  175.0120  136.8040 F   0  0  0  0  0  0  0  0  0  0  0  0
  1  5  1  0  0  0  0
  1 20  1  0  0  0  0
  2  1  2  0  0  0  0
  3  4  1  0  0  0  0
  4  5  2  0  0  0  0
  7  3  1  0  0  0  0
  8 37  1  0  0  0  0
  8  6  2  0  0  0  0
  9 12  1  0  0  0  0
 10 14  1  0  0  0  0
 10 11  1  1  0  0  0
 10  7  1  0  0  0  0
 11 12  1  0  0  0  0
 12  8  1  0  0  0  0
 13  3  2  0  0  0  0
 13  2  1  0  0  0  0
 14 13  1  0  0  0  0
 14  9  1  1  0  0  0
 15 18  1  0  0  0  0
 17 16  1  0  0  0  0
 18 22  1  0  0  0  0
 18 16  2  0  0  0  0
 19 15  2  0  0  0  0
 19 20  1  0  0  0  0
 20 17  2  0  0  0  0
 22 26  1  0  0  0  0
 23 26  1  0  0  0  0
 23 21  1  1  0  0  0
 24 22  1  0  0  0  0
 24 25  1  0  0  0  0
 25 23  1  0  0  0  0
 26 27  1  1  0  0  0
 27 28  1  0  0  0  0
 29 19  1  0  0  0  0
 30 29  1  0  0  0  0
 30 31  1  0  0  0  0
 32 34  2  0  0  0  0
 33 32  1  0  0  0  0
 35  2  1  0  0  0  0
 35 32  1  0  0  0  0
 36 35  1  0  0  0  0
 37 38  1  0  0  0  0
 38 39  1  6  0  0  0
 40 42  1  0  0  0  0
 41 42  1  0  0  0  0
 42 43  1  0  0  0  0
 42 38  1  0  0  0  0
M  END
>  <MODEL>
3

>  <REMARK>
 VINA RESULT:      -5.8      5.071     11.324
  Name = 
  9 active torsions:
  status: ('A' for Active; 'I' for Inactive)
    1  A    between atoms: N_2  and  C_23
    2  A    between atoms: C_3  and  C_42
    3  A    between atoms: C_4  and  N_40
    4  A    between atoms: C_5  and  C_43
    5  A    between atoms: N_7  and  C_35
    6  A    between atoms: C_18  and  C_27
    7  A    between atoms: C_18  and  C_31
    8  A    between atoms: C_19  and  C_31
    9  A    between atoms: C_23  and  C_36
                            x       y       z     vdW  Elec       q    Type
                         _______ _______ _______ _____ _____    ______ ____

>  <TORSDO>
F 9

$$$$
=
 OpenBabel10222418583D

 43 47  0  0  1  0  0  0  0  0999 V2000
  184.6770  176.1970  137.2520 C   0  0  0  0  0  0  0  0  0  0  0  0
  185.8850  176.4120  136.5460 C   0  0  0  0  0  0  0  0  0  0  0  0
  186.4400  174.1000  136.8950 C   0  0  0  0  0  0  0  0  0  0  0  0
  185.2840  173.8890  137.5730 N   0  0  0  0  0  0  0  0  0  0  0  0
  184.4060  174.9120  137.7620 C   0  0  0  0  0  3  0  0  0  0  0  0
  191.4460  176.7360  137.8340 O   0  0  0  0  0  0  0  0  0  0  0  0
  187.4390  173.0610  136.5710 C   0  0  0  0  0  2  0  0  0  0  0  0
  191.2940  175.5360  137.4800 C   0  0  0  0  0  0  0  0  0  0  0  0
  189.1110  176.0950  136.3350 C   0  0  0  0  0  2  0  0  0  0  0  0
  188.4700  173.8050  135.7100 C   0  0  2  0  0  3  0  0  0  0  0  0
  189.8220  173.7750  136.3980 C   0  0  0  0  0  2  0  0  0  0  0  0
  190.1230  175.1470  136.7510 N   0  0  0  0  0  0  0  0  0  0  0  0
  186.7610  175.3280  136.3860 C   0  0  0  0  0  0  0  0  0  0  0  0
  188.0360  175.2870  135.6260 C   0  0  1  0  0  3  0  0  0  0  0  0
  182.8360  179.1880  138.7020 C   0  0  0  0  0  3  0  0  0  0  0  0
  181.6870  178.4340  136.7150 C   0  0  0  0  0  3  0  0  0  0  0  0
  182.6350  177.4220  136.5530 C   0  0  0  0  0  3  0  0  0  0  0  0
  181.7790  179.3250  137.7930 C   0  0  0  0  0  0  0  0  0  0  0  0
  183.7950  178.1830  138.5430 C   0  0  0  0  0  0  0  0  0  0  0  0
  183.6920  177.2810  137.4600 C   0  0  0  0  0  0  0  0  0  0  0  0
  178.9310  183.1180  137.0720 O   0  0  0  0  0  1  0  0  0  0  0  0
  180.8090  180.3710  137.9720 N   0  0  0  0  0  0  0  0  0  0  0  0
  179.7700  182.4290  137.9530 C   0  0  1  0  0  3  0  0  0  0  0  0
  179.8570  180.2770  138.9390 O   0  0  0  0  0  0  0  0  0  0  0  0
  178.9930  181.3590  138.6940 C   0  0  0  0  0  2  0  0  0  0  0  0
  180.8520  181.6330  137.2570 C   0  0  2  0  0  3  0  0  0  0  0  0
  180.5710  181.3920  135.7720 C   0  0  0  0  0  2  0  0  0  0  0  0
  181.0760  182.4510  135.0160 O   0  0  0  0  0  1  0  0  0  0  0  0
  184.8660  178.0560  139.5770 C   0  0  0  0  0  2  0  0  0  0  0  0
  185.0590  179.3320  140.2430 N   0  0  0  0  0  2  0  0  0  0  0  0
  185.8900  179.0730  141.4030 C   0  0  0  0  0  1  0  0  0  0  0  0
  186.9100  178.6890  136.6520 C   0  0  0  0  0  0  0  0  0  0  0  0
  187.2260  179.9270  136.0220 N   0  0  0  0  0  1  0  0  0  0  0  0
  187.2730  178.4940  137.8430 O   0  0  0  0  0  0  0  0  0  0  0  0
  186.1790  177.6780  135.9420 N   0  0  0  0  0  0  0  0  0  0  0  0
  185.6940  177.9350  134.5940 C   0  0  0  0  0  1  0  0  0  0  0  0
  192.3540  174.5340  137.8270 C   0  0  0  0  0  2  0  0  0  0  0  0
  193.7790  175.0690  137.6400 C   0  0  1  0  0  3  0  0  0  0  0  0
  194.7080  174.2760  138.3170 O   0  0  0  0  0  1  0  0  0  0  0  0
  195.5310  174.9900  136.0050 F   0  0  0  0  0  0  0  0  0  0  0  0
  193.4430  174.4160  135.3660 F   0  0  0  0  0  0  0  0  0  0  0  0
  194.1850  175.2570  136.1770 C   0  0  0  0  0  0  0  0  0  0  0  0
  193.9390  176.5650  135.8050 F   0  0  0  0  0  0  0  0  0  0  0  0
  1 20  1  0  0  0  0
  1  5  1  0  0  0  0
  2  1  2  0  0  0  0
  3  4  1  0  0  0  0
  4  5  2  0  0  0  0
  7  3  1  0  0  0  0
  8 37  1  0  0  0  0
  8  6  2  0  0  0  0
  9 12  1  0  0  0  0
 10 11  1  1  0  0  0
 10  7  1  0  0  0  0
 11 12  1  0  0  0  0
 12  8  1  0  0  0  0
 13  2  1  0  0  0  0
 13  3  2  0  0  0  0
 14 10  1  0  0  0  0
 14  9  1  1  0  0  0
 14 13  1  0  0  0  0
 16 18  1  0  0  0  0
 17 16  2  0  0  0  0
 17 20  1  0  0  0  0
 18 22  1  0  0  0  0
 18 15  2  0  0  0  0
 19 15  1  0  0  0  0
 19 29  1  0  0  0  0
 20 19  2  0  0  0  0
 22 24  1  0  0  0  0
 23 21  1  6  0  0  0
 23 25  1  0  0  0  0
 25 24  1  0  0  0  0
 26 27  1  6  0  0  0
 26 23  1  0  0  0  0
 26 22  1  0  0  0  0
 28 27  1  0  0  0  0
 29 30  1  0  0  0  0
 30 31  1  0  0  0  0
 32 34  2  0  0  0  0
 33 32  1  0  0  0  0
 35  2  1  0  0  0  0
 35 32  1  0  0  0  0
 36 35  1  0  0  0  0
 38 37  1  0  0  0  0
 38 39  1  6  0  0  0
 40 42  1  0  0  0  0
 41 42  1  0  0  0  0
 42 38  1  0  0  0  0
 43 42  1  0  0  0  0
M  END
>  <MODEL>
4

>  <REMARK>
 VINA RESULT:      -5.6      4.916     11.045
  Name = 
  9 active torsions:
  status: ('A' for Active; 'I' for Inactive)
    1  A    between atoms: N_2  and  C_23
    2  A    between atoms: C_3  and  C_42
    3  A    between atoms: C_4  and  N_40
    4  A    between atoms: C_5  and  C_43
    5  A    between atoms: N_7  and  C_35
    6  A    between atoms: C_18  and  C_27
    7  A    between atoms: C_18  and  C_31
    8  A    between atoms: C_19  and  C_31
    9  A    between atoms: C_23  and  C_36
                            x       y       z     vdW  Elec       q    Type
                         _______ _______ _______ _____ _____    ______ ____

>  <TORSDO>
F 9

$$$$
=
 OpenBabel10222418583D

 43 47  0  0  1  0  0  0  0  0999 V2000
  185.6830  175.2810  136.9020 C   0  0  0  0  0  0  0  0  0  0  0  0
  186.8670  175.8400  136.3660 C   0  0  0  0  0  0  0  0  0  0  0  0
  187.7690  173.6200  136.1770 C   0  0  0  0  0  0  0  0  0  0  0  0
  186.6370  173.0790  136.6920 N   0  0  0  0  0  0  0  0  0  0  0  0
  185.6010  173.8830  137.0580 C   0  0  0  0  0  3  0  0  0  0  0  0
  192.2530  176.6230  138.1180 O   0  0  0  0  0  0  0  0  0  0  0  0
  188.9320  172.8540  135.6860 C   0  0  0  0  0  2  0  0  0  0  0  0
  192.3070  175.5450  137.4690 C   0  0  0  0  0  0  0  0  0  0  0  0
  190.1090  176.0560  136.3320 C   0  0  0  0  0  2  0  0  0  0  0  0
  189.8640  173.9330  135.1150 C   0  0  2  0  0  3  0  0  0  0  0  0
  191.1760  173.9240  135.8770 C   0  0  0  0  0  2  0  0  0  0  0  0
  191.2420  175.1890  136.5790 N   0  0  0  0  0  0  0  0  0  0  0  0
  187.9100  174.9710  136.0120 C   0  0  0  0  0  0  0  0  0  0  0  0
  189.2040  175.3090  135.3660 C   0  0  1  0  0  3  0  0  0  0  0  0
  182.3880  177.1720  136.8290 C   0  0  0  0  0  3  0  0  0  0  0  0
  183.4350  177.4820  138.9830 C   0  0  0  0  0  3  0  0  0  0  0  0
  184.5060  176.6840  138.5760 C   0  0  0  0  0  3  0  0  0  0  0  0
  182.3680  177.7350  138.1110 C   0  0  0  0  0  0  0  0  0  0  0  0
  183.4520  176.3650  136.4150 C   0  0  0  0  0  0  0  0  0  0  0  0
  184.5320  176.1220  137.2940 C   0  0  0  0  0  0  0  0  0  0  0  0
  179.6630  181.4590  139.4620 O   0  0  0  0  0  1  0  0  0  0  0  0
  181.2590  178.5540  138.5180 N   0  0  0  0  0  0  0  0  0  0  0  0
  179.9650  180.1050  139.6300 C   0  0  1  0  0  3  0  0  0  0  0  0
  179.9790  178.1520  138.2890 O   0  0  0  0  0  0  0  0  0  0  0  0
  179.1900  179.2640  138.6350 C   0  0  0  0  0  2  0  0  0  0  0  0
  181.4030  179.7640  139.3060 C   0  0  2  0  0  3  0  0  0  0  0  0
  182.1100  180.8360  138.4750 C   0  0  0  0  0  2  0  0  0  0  0  0
  183.4570  180.9040  138.8370 O   0  0  0  0  0  1  0  0  0  0  0  0
  183.4410  175.8410  135.0160 C   0  0  0  0  0  2  0  0  0  0  0  0
  182.2880  174.9780  134.8230 N   0  0  0  0  0  2  0  0  0  0  0  0
  182.8030  173.6420  134.5940 C   0  0  0  0  0  1  0  0  0  0  0  0
  187.4480  178.1480  137.1310 C   0  0  0  0  0  0  0  0  0  0  0  0
  187.5900  179.5370  136.8530 N   0  0  0  0  0  1  0  0  0  0  0  0
  187.7320  177.7180  138.2820 O   0  0  0  0  0  0  0  0  0  0  0  0
  186.9790  177.2470  136.1160 N   0  0  0  0  0  0  0  0  0  0  0  0
  186.5790  177.7560  134.8130 C   0  0  0  0  0  1  0  0  0  0  0  0
  193.4990  174.6510  137.6400 C   0  0  0  0  0  2  0  0  0  0  0  0
  194.5080  174.7580  136.4900 C   0  0  1  0  0  3  0  0  0  0  0  0
  195.5770  175.5900  136.8330 O   0  0  0  0  0  1  0  0  0  0  0  0
  196.2820  173.1460  136.4510 F   0  0  0  0  0  0  0  0  0  0  0  0
  194.1530  172.3990  136.3750 F   0  0  0  0  0  0  0  0  0  0  0  0
  195.0100  173.4080  135.9750 C   0  0  0  0  0  0  0  0  0  0  0  0
  195.0480  173.4380  134.5940 F   0  0  0  0  0  0  0  0  0  0  0  0
  1  5  1  0  0  0  0
  1 20  1  0  0  0  0
  2  1  2  0  0  0  0
  3  4  1  0  0  0  0
  4  5  2  0  0  0  0
  7  3  1  0  0  0  0
  8 37  1  0  0  0  0
  8  6  2  0  0  0  0
  9 12  1  0  0  0  0
 10 14  1  0  0  0  0
 10  7  1  1  0  0  0
 10 11  1  0  0  0  0
 11 12  1  0  0  0  0
 12  8  1  0  0  0  0
 13  3  2  0  0  0  0
 13  2  1  0  0  0  0
 14 13  1  0  0  0  0
 14  9  1  1  0  0  0
 15 18  1  0  0  0  0
 17 16  1  0  0  0  0
 18 22  1  0  0  0  0
 18 16  2  0  0  0  0
 19 15  2  0  0  0  0
 19 20  1  0  0  0  0
 20 17  2  0  0  0  0
 22 26  1  0  0  0  0
 23 21  1  6  0  0  0
 24 22  1  0  0  0  0
 24 25  1  0  0  0  0
 25 23  1  0  0  0  0
 26 27  1  6  0  0  0
 26 23  1  0  0  0  0
 27 28  1  0  0  0  0
 29 19  1  0  0  0  0
 30 29  1  0  0  0  0
 31 30  1  0  0  0  0
 32 34  2  0  0  0  0
 33 32  1  0  0  0  0
 35  2  1  0  0  0  0
 35 32  1  0  0  0  0
 36 35  1  0  0  0  0
 38 39  1  1  0  0  0
 38 37  1  0  0  0  0
 42 41  1  0  0  0  0
 42 40  1  0  0  0  0
 42 38  1  0  0  0  0
 43 42  1  0  0  0  0
M  END
>  <MODEL>
5

>  <REMARK>
 VINA RESULT:      -5.5      5.252     11.344
  Name = 
  9 active torsions:
  status: ('A' for Active; 'I' for Inactive)
    1  A    between atoms: N_2  and  C_23
    2  A    between atoms: C_3  and  C_42
    3  A    between atoms: C_4  and  N_40
    4  A    between atoms: C_5  and  C_43
    5  A    between atoms: N_7  and  C_35
    6  A    between atoms: C_18  and  C_27
    7  A    between atoms: C_18  and  C_31
    8  A    between atoms: C_19  and  C_31
    9  A    between atoms: C_23  and  C_36
                            x       y       z     vdW  Elec       q    Type
                         _______ _______ _______ _____ _____    ______ ____

>  <TORSDO>
F 9

$$$$
=
 OpenBabel10222418583D

 43 47  0  0  1  0  0  0  0  0999 V2000
  188.9640  177.1380  139.5570 C   0  0  0  0  0  0  0  0  0  0  0  0
  187.9030  177.7060  138.8130 C   0  0  0  0  0  0  0  0  0  0  0  0
  186.7690  178.1670  140.8820 C   0  0  0  0  0  0  0  0  0  0  0  0
  187.7830  177.6220  141.5990 N   0  0  0  0  0  0  0  0  0  0  0  0
  188.8710  177.1060  140.9620 C   0  0  0  0  0  3  0  0  0  0  0  0
  182.5140  176.2950  137.5230 O   0  0  0  0  0  0  0  0  0  0  0  0
  185.5720  178.8130  141.4560 C   0  0  0  0  0  2  0  0  0  0  0  0
  182.3910  177.0440  138.5290 C   0  0  0  0  0  0  0  0  0  0  0  0
  184.7230  177.9610  138.1990 C   0  0  0  0  0  2  0  0  0  0  0  0
  184.8230  179.3480  140.2260 C   0  0  2  0  0  3  0  0  0  0  0  0
  183.4580  178.6910  140.1370 C   0  0  0  0  0  2  0  0  0  0  0  0
  183.4800  177.8810  138.9370 N   0  0  0  0  0  0  0  0  0  0  0  0
  186.8010  178.2160  139.5150 C   0  0  0  0  0  0  0  0  0  0  0  0
  185.6140  178.9230  138.9680 C   0  0  1  0  0  3  0  0  0  0  0  0
  192.5790  176.3440  138.6960 C   0  0  0  0  0  3  0  0  0  0  0  0
  191.1220  175.1860  137.1560 C   0  0  0  0  0  3  0  0  0  0  0  0
  190.0100  175.7300  137.8010 C   0  0  0  0  0  3  0  0  0  0  0  0
  192.4170  175.4910  137.5970 C   0  0  0  0  0  0  0  0  0  0  0  0
  191.4710  176.8860  139.3540 C   0  0  0  0  0  0  0  0  0  0  0  0
  190.1680  176.5850  138.8990 C   0  0  0  0  0  0  0  0  0  0  0  0
  196.7840  173.7100  136.7130 O   0  0  0  0  0  1  0  0  0  0  0  0
  193.5710  174.9380  136.9410 N   0  0  0  0  0  0  0  0  0  0  0  0
  195.7440  174.5410  136.2840 C   0  0  1  0  0  3  0  0  0  0  0  0
  193.4510  174.3090  135.7410 O   0  0  0  0  0  0  0  0  0  0  0  0
  194.7170  173.7430  135.5070 C   0  0  0  0  0  2  0  0  0  0  0  0
  194.9290  175.1210  137.4180 C   0  0  2  0  0  3  0  0  0  0  0  0
  195.1130  174.3780  138.7420 C   0  0  0  0  0  2  0  0  0  0  0  0
  195.9930  175.0830  139.5640 O   0  0  0  0  0  1  0  0  0  0  0  0
  191.7130  177.8330  140.4850 C   0  0  0  0  0  2  0  0  0  0  0  0
  192.4260  177.1530  141.5510 N   0  0  0  0  0  2  0  0  0  0  0  0
  191.7550  177.5020  142.7890 C   0  0  0  0  0  1  0  0  0  0  0  0
  187.4180  176.8310  136.5230 C   0  0  0  0  0  0  0  0  0  0  0  0
  187.4670  176.9910  135.1080 N   0  0  0  0  0  1  0  0  0  0  0  0
  186.8870  175.7950  137.0070 O   0  0  0  0  0  0  0  0  0  0  0  0
  187.9760  177.8320  137.3870 N   0  0  0  0  0  0  0  0  0  0  0  0
  188.6570  178.9880  136.8250 C   0  0  0  0  0  1  0  0  0  0  0  0
  181.0940  177.0460  139.2800 C   0  0  0  0  0  2  0  0  0  0  0  0
  180.7080  175.6670  139.8310 C   0  0  1  0  0  3  0  0  0  0  0  0
  179.9070  175.7840  140.9680 O   0  0  0  0  0  1  0  0  0  0  0  0
  180.9810  173.8410  138.3010 F   0  0  0  0  0  0  0  0  0  0  0  0
  179.0040  174.0570  139.3700 F   0  0  0  0  0  0  0  0  0  0  0  0
  180.0590  174.7450  138.7970 C   0  0  0  0  0  0  0  0  0  0  0  0
  179.5760  175.5080  137.7510 F   0  0  0  0  0  0  0  0  0  0  0  0
  1  5  1  0  0  0  0
  2 13  1  0  0  0  0
  2  1  2  0  0  0  0
  3  7  1  0  0  0  0
  3  4  1  0  0  0  0
  5  4  2  0  0  0  0
  6  8  2  0  0  0  0
  8 12  1  0  0  0  0
  8 37  1  0  0  0  0
  9 12  1  0  0  0  0
 10 11  1  6  0  0  0
 10  7  1  0  0  0  0
 12 11  1  0  0  0  0
 13  3  2  0  0  0  0
 14  9  1  6  0  0  0
 14 13  1  0  0  0  0
 14 10  1  0  0  0  0
 15 19  1  0  0  0  0
 16 18  1  0  0  0  0
 16 17  2  0  0  0  0
 17 20  1  0  0  0  0
 18 15  2  0  0  0  0
 19 29  1  0  0  0  0
 20 19  2  0  0  0  0
 20  1  1  0  0  0  0
 22 26  1  0  0  0  0
 22 18  1  0  0  0  0
 23 21  1  1  0  0  0
 23 26  1  0  0  0  0
 24 22  1  0  0  0  0
 25 24  1  0  0  0  0
 25 23  1  0  0  0  0
 26 27  1  1  0  0  0
 27 28  1  0  0  0  0
 29 30  1  0  0  0  0
 30 31  1  0  0  0  0
 32 34  2  0  0  0  0
 32 35  1  0  0  0  0
 33 32  1  0  0  0  0
 35  2  1  0  0  0  0
 36 35  1  0  0  0  0
 37 38  1  0  0  0  0
 38 39  1  1  0  0  0
 40 42  1  0  0  0  0
 42 41  1  0  0  0  0
 42 38  1  0  0  0  0
 43 42  1  0  0  0  0
M  END
>  <MODEL>
6

>  <REMARK>
 VINA RESULT:      -4.9      2.017      2.185
  Name = 
  9 active torsions:
  status: ('A' for Active; 'I' for Inactive)
    1  A    between atoms: N_2  and  C_23
    2  A    between atoms: C_3  and  C_42
    3  A    between atoms: C_4  and  N_40
    4  A    between atoms: C_5  and  C_43
    5  A    between atoms: N_7  and  C_35
    6  A    between atoms: C_18  and  C_27
    7  A    between atoms: C_18  and  C_31
    8  A    between atoms: C_19  and  C_31
    9  A    between atoms: C_23  and  C_36
                            x       y       z     vdW  Elec       q    Type
                         _______ _______ _______ _____ _____    ______ ____

>  <TORSDO>
F 9

$$$$
=
 OpenBabel10222418583D

 43 47  0  0  1  0  0  0  0  0999 V2000
  186.9820  177.8940  138.5170 C   0  0  0  0  0  0  0  0  0  0  0  0
  185.9130  177.6640  137.6190 C   0  0  0  0  0  0  0  0  0  0  0  0
  184.4860  178.9400  139.0730 C   0  0  0  0  0  0  0  0  0  0  0  0
  185.5080  179.1620  139.9370 N   0  0  0  0  0  0  0  0  0  0  0  0
  186.7430  178.6500  139.6810 C   0  0  0  0  0  3  0  0  0  0  0  0
  181.1240  174.5410  137.5790 O   0  0  0  0  0  0  0  0  0  0  0  0
  183.1230  179.4920  139.2060 C   0  0  0  0  0  2  0  0  0  0  0  0
  180.7340  175.6750  137.9660 C   0  0  0  0  0  0  0  0  0  0  0  0
  182.8390  176.7590  137.0830 C   0  0  0  0  0  2  0  0  0  0  0  0
  182.4170  179.0320  137.9220 C   0  0  2  0  0  3  0  0  0  0  0  0
  181.2420  178.1410  138.2790 C   0  0  0  0  0  2  0  0  0  0  0  0
  181.5680  176.8240  137.7730 N   0  0  0  0  0  0  0  0  0  0  0  0
  184.6570  178.2050  137.9320 C   0  0  0  0  0  0  0  0  0  0  0  0
  183.4150  178.1660  137.1180 C   0  0  1  0  0  3  0  0  0  0  0  0
  190.4850  176.5100  139.0240 C   0  0  0  0  0  3  0  0  0  0  0  0
  190.0520  176.7330  136.6580 C   0  0  0  0  0  3  0  0  0  0  0  0
  188.7770  177.2270  136.9390 C   0  0  0  0  0  3  0  0  0  0  0  0
  190.9180  176.3720  137.6990 C   0  0  0  0  0  0  0  0  0  0  0  0
  189.2060  176.9960  139.3150 C   0  0  0  0  0  0  0  0  0  0  0  0
  188.3410  177.3690  138.2620 C   0  0  0  0  0  0  0  0  0  0  0  0
  194.5730  173.5030  136.5040 O   0  0  0  0  0  1  0  0  0  0  0  0
  192.2330  175.8620  137.4240 N   0  0  0  0  0  0  0  0  0  0  0  0
  194.0910  174.4990  137.3590 C   0  0  1  0  0  3  0  0  0  0  0  0
  193.2640  176.7090  137.1560 O   0  0  0  0  0  0  0  0  0  0  0  0
  194.3190  175.8700  136.7540 C   0  0  0  0  0  2  0  0  0  0  0  0
  192.5910  174.4600  137.5450 C   0  0  2  0  0  3  0  0  0  0  0  0
  191.8650  173.6510  136.4690 C   0  0  0  0  0  2  0  0  0  0  0  0
  190.5960  173.2880  136.9230 O   0  0  0  0  0  1  0  0  0  0  0  0
  188.8250  177.1720  140.7490 C   0  0  0  0  0  2  0  0  0  0  0  0
  189.7920  176.5010  141.6000 N   0  0  0  0  0  2  0  0  0  0  0  0
  189.1920  176.4090  142.9180 C   0  0  0  0  0  1  0  0  0  0  0  0
  186.0640  175.5310  136.3240 C   0  0  0  0  0  0  0  0  0  0  0  0
  186.2280  174.8550  135.0810 N   0  0  0  0  0  1  0  0  0  0  0  0
  185.8810  174.8560  137.3720 O   0  0  0  0  0  0  0  0  0  0  0  0
  186.1150  176.9650  136.3840 N   0  0  0  0  0  0  0  0  0  0  0  0
  186.4020  177.7390  135.1860 C   0  0  0  0  0  1  0  0  0  0  0  0
  179.3910  175.7990  138.6210 C   0  0  0  0  0  2  0  0  0  0  0  0
  179.4140  175.4710  140.1190 C   0  0  1  0  0  3  0  0  0  0  0  0
  180.3030  174.4290  140.3940 O   0  0  0  0  0  1  0  0  0  0  0  0
  179.3610  176.3980  142.3300 F   0  0  0  0  0  0  0  0  0  0  0  0
  181.0300  177.0250  140.9440 F   0  0  0  0  0  0  0  0  0  0  0  0
  179.6920  176.6780  141.0160 C   0  0  0  0  0  0  0  0  0  0  0  0
  178.9310  177.7480  140.5830 F   0  0  0  0  0  0  0  0  0  0  0  0
  1  5  1  0  0  0  0
  2 13  1  0  0  0  0
  2  1  2  0  0  0  0
  3  7  1  0  0  0  0
  3  4  1  0  0  0  0
  5  4  2  0  0  0  0
  6  8  2  0  0  0  0
  8 37  1  0  0  0  0
  9 12  1  0  0  0  0
 10 11  1  1  0  0  0
 10  7  1  0  0  0  0
 12  8  1  0  0  0  0
 12 11  1  0  0  0  0
 13  3  2  0  0  0  0
 14  9  1  1  0  0  0
 14 10  1  0  0  0  0
 14 13  1  0  0  0  0
 15 19  1  0  0  0  0
 16 17  2  0  0  0  0
 16 18  1  0  0  0  0
 17 20  1  0  0  0  0
 18 15  2  0  0  0  0
 19 29  1  0  0  0  0
 20  1  1  0  0  0  0
 20 19  2  0  0  0  0
 22 26  1  0  0  0  0
 22 18  1  0  0  0  0
 23 21  1  6  0  0  0
 23 26  1  0  0  0  0
 24 22  1  0  0  0  0
 25 24  1  0  0  0  0
 25 23  1  0  0  0  0
 26 27  1  6  0  0  0
 27 28  1  0  0  0  0
 29 30  1  0  0  0  0
 30 31  1  0  0  0  0
 32 35  1  0  0  0  0
 32 34  2  0  0  0  0
 33 32  1  0  0  0  0
 35  2  1  0  0  0  0
 36 35  1  0  0  0  0
 37 38  1  0  0  0  0
 38 39  1  6  0  0  0
 38 42  1  0  0  0  0
 41 42  1  0  0  0  0
 42 40  1  0  0  0  0
 43 42  1  0  0  0  0
M  END
>  <MODEL>
7

>  <REMARK>
 VINA RESULT:      -4.6      2.246      3.288
  Name = 
  9 active torsions:
  status: ('A' for Active; 'I' for Inactive)
    1  A    between atoms: N_2  and  C_23
    2  A    between atoms: C_3  and  C_42
    3  A    between atoms: C_4  and  N_40
    4  A    between atoms: C_5  and  C_43
    5  A    between atoms: N_7  and  C_35
    6  A    between atoms: C_18  and  C_27
    7  A    between atoms: C_18  and  C_31
    8  A    between atoms: C_19  and  C_31
    9  A    between atoms: C_23  and  C_36
                            x       y       z     vdW  Elec       q    Type
                         _______ _______ _______ _____ _____    ______ ____

>  <TORSDO>
F 9

$$$$
=
 OpenBabel10222418583D

 43 47  0  0  1  0  0  0  0  0999 V2000
  185.1940  178.2880  139.4700 C   0  0  0  0  0  0  0  0  0  0  0  0
  185.2280  177.7920  138.1450 C   0  0  0  0  0  0  0  0  0  0  0  0
  182.9240  178.4320  137.9020 C   0  0  0  0  0  0  0  0  0  0  0  0
  182.8860  178.9070  139.1710 N   0  0  0  0  0  0  0  0  0  0  0  0
  183.9940  178.8400  139.9600 C   0  0  0  0  0  3  0  0  0  0  0  0
  183.0700  173.3070  135.3320 O   0  0  0  0  0  0  0  0  0  0  0  0
  181.8130  178.5050  136.9320 C   0  0  0  0  0  2  0  0  0  0  0  0
  182.2340  174.2240  135.1120 C   0  0  0  0  0  0  0  0  0  0  0  0
  183.9130  175.9890  135.7840 C   0  0  0  0  0  2  0  0  0  0  0  0
  182.4200  177.9380  135.6400 C   0  0  2  0  0  3  0  0  0  0  0  0
  181.6580  176.6930  135.2250 C   0  0  0  0  0  2  0  0  0  0  0  0
  182.5900  175.5910  135.3520 N   0  0  0  0  0  0  0  0  0  0  0  0
  184.0580  177.8760  137.3760 C   0  0  0  0  0  0  0  0  0  0  0  0
  183.8700  177.4990  135.9510 C   0  0  1  0  0  3  0  0  0  0  0  0
  187.4240  178.1650  142.5440 C   0  0  0  0  0  3  0  0  0  0  0  0
  188.8040  178.2110  140.5630 C   0  0  0  0  0  3  0  0  0  0  0  0
  187.6580  178.2500  139.7670 C   0  0  0  0  0  3  0  0  0  0  0  0
  188.6960  178.1710  141.9600 C   0  0  0  0  0  0  0  0  0  0  0  0
  186.2700  178.1960  141.7550 C   0  0  0  0  0  0  0  0  0  0  0  0
  186.3840  178.2480  140.3480 C   0  0  0  0  0  0  0  0  0  0  0  0
  191.6830  177.5260  145.6580 O   0  0  0  0  0  1  0  0  0  0  0  0
  189.8680  178.1290  142.7900 N   0  0  0  0  0  0  0  0  0  0  0  0
  191.2940  178.3390  144.5900 C   0  0  1  0  0  3  0  0  0  0  0  0
  191.1110  178.1410  142.2370 O   0  0  0  0  0  0  0  0  0  0  0  0
  191.9830  177.8990  143.3140 C   0  0  0  0  0  2  0  0  0  0  0  0
  189.8280  178.2130  144.2380 C   0  0  2  0  0  3  0  0  0  0  0  0
  189.1720  176.9530  144.8070 C   0  0  0  0  0  2  0  0  0  0  0  0
  188.5410  177.2520  146.0150 O   0  0  0  0  0  1  0  0  0  0  0  0
  184.9430  178.2450  142.4420 C   0  0  0  0  0  2  0  0  0  0  0  0
  185.0730  178.9400  143.7110 N   0  0  0  0  0  2  0  0  0  0  0  0
  183.7360  179.3480  144.0990 C   0  0  0  0  0  1  0  0  0  0  0  0
  187.3550  178.1550  136.8820 C   0  0  0  0  0  0  0  0  0  0  0  0
  188.5730  177.6430  136.3500 N   0  0  0  0  0  1  0  0  0  0  0  0
  187.0840  179.3770  136.7340 O   0  0  0  0  0  0  0  0  0  0  0  0
  186.4400  177.2870  137.5690 N   0  0  0  0  0  0  0  0  0  0  0  0
  186.7180  175.8630  137.6710 C   0  0  0  0  0  1  0  0  0  0  0  0
  180.8740  173.8610  134.5950 C   0  0  0  0  0  2  0  0  0  0  0  0
  180.0730  172.9780  135.5590 C   0  0  1  0  0  3  0  0  0  0  0  0
  180.6200  171.6950  135.6400 O   0  0  0  0  0  1  0  0  0  0  0  0
  179.5130  174.9110  136.8620 F   0  0  0  0  0  0  0  0  0  0  0  0
  178.9310  172.8790  137.6550 F   0  0  0  0  0  0  0  0  0  0  0  0
  179.8920  173.5840  136.9520 C   0  0  0  0  0  0  0  0  0  0  0  0
  181.0900  173.5070  137.6370 F   0  0  0  0  0  0  0  0  0  0  0  0
  1  5  1  0  0  0  0
  1 20  1  0  0  0  0
  2  1  2  0  0  0  0
  3  4  1  0  0  0  0
  4  5  2  0  0  0  0
  7  3  1  0  0  0  0
  8  6  2  0  0  0  0
  8 12  1  0  0  0  0
 10 11  1  1  0  0  0
 10 14  1  0  0  0  0
 10  7  1  0  0  0  0
 11 12  1  0  0  0  0
 12  9  1  0  0  0  0
 13  3  2  0  0  0  0
 13  2  1  0  0  0  0
 14  9  1  1  0  0  0
 14 13  1  0  0  0  0
 16 18  2  0  0  0  0
 17 20  2  0  0  0  0
 17 16  1  0  0  0  0
 18 15  1  0  0  0  0
 18 22  1  0  0  0  0
 19 29  1  0  0  0  0
 19 15  2  0  0  0  0
 20 19  1  0  0  0  0
 22 26  1  0  0  0  0
 23 21  1  1  0  0  0
 24 22  1  0  0  0  0
 24 25  1  0  0  0  0
 25 23  1  0  0  0  0
 26 23  1  0  0  0  0
 26 27  1  1  0  0  0
 27 28  1  0  0  0  0
 29 30  1  0  0  0  0
 30 31  1  0  0  0  0
 32 35  1  0  0  0  0
 33 32  1  0  0  0  0
 34 32  2  0  0  0  0
 35 36  1  0  0  0  0
 35  2  1  0  0  0  0
 37  8  1  0  0  0  0
 37 38  1  0  0  0  0
 38 39  1  1  0  0  0
 38 42  1  0  0  0  0
 40 42  1  0  0  0  0
 42 43  1  0  0  0  0
 42 41  1  0  0  0  0
M  END
>  <MODEL>
8

>  <REMARK>
 VINA RESULT:      -4.5      4.536      6.666
  Name = 
  9 active torsions:
  status: ('A' for Active; 'I' for Inactive)
    1  A    between atoms: N_2  and  C_23
    2  A    between atoms: C_3  and  C_42
    3  A    between atoms: C_4  and  N_40
    4  A    between atoms: C_5  and  C_43
    5  A    between atoms: N_7  and  C_35
    6  A    between atoms: C_18  and  C_27
    7  A    between atoms: C_18  and  C_31
    8  A    between atoms: C_19  and  C_31
    9  A    between atoms: C_23  and  C_36
                            x       y       z     vdW  Elec       q    Type
                         _______ _______ _______ _____ _____    ______ ____

>  <TORSDO>
F 9

$$$$
=
 OpenBabel10222418583D

 43 47  0  0  1  0  0  0  0  0999 V2000
  188.2910  177.1920  137.8570 C   0  0  0  0  0  0  0  0  0  0  0  0
  187.2230  176.8340  137.0010 C   0  0  0  0  0  0  0  0  0  0  0  0
  185.7820  178.2650  138.2840 C   0  0  0  0  0  0  0  0  0  0  0  0
  186.8010  178.6110  139.1090 N   0  0  0  0  0  0  0  0  0  0  0  0
  188.0430  178.0870  138.9160 C   0  0  0  0  0  3  0  0  0  0  0  0
  182.4790  173.6650  137.3780 O   0  0  0  0  0  0  0  0  0  0  0  0
  184.4110  178.8110  138.3510 C   0  0  0  0  0  2  0  0  0  0  0  0
  182.0740  174.8340  137.6180 C   0  0  0  0  0  0  0  0  0  0  0  0
  184.1620  175.8250  136.5960 C   0  0  0  0  0  2  0  0  0  0  0  0
  183.7090  178.1810  137.1380 C   0  0  2  0  0  3  0  0  0  0  0  0
  182.5480  177.3270  137.6110 C   0  0  0  0  0  2  0  0  0  0  0  0
  182.8910  175.9600  137.2760 N   0  0  0  0  0  0  0  0  0  0  0  0
  185.9600  177.3930  137.2460 C   0  0  0  0  0  0  0  0  0  0  0  0
  184.7180  177.2320  136.4480 C   0  0  1  0  0  3  0  0  0  0  0  0
  191.9250  176.2470  138.4410 C   0  0  0  0  0  3  0  0  0  0  0  0
  191.2520  175.4990  136.2450 C   0  0  0  0  0  3  0  0  0  0  0  0
  189.9740  176.0180  136.4610 C   0  0  0  0  0  3  0  0  0  0  0  0
  192.2390  175.6110  137.2330 C   0  0  0  0  0  0  0  0  0  0  0  0
  190.6460  176.7630  138.6700 C   0  0  0  0  0  0  0  0  0  0  0  0
  189.6570  176.6570  137.6670 C   0  0  0  0  0  0  0  0  0  0  0  0
  196.6270  174.7730  135.4850 O   0  0  0  0  0  1  0  0  0  0  0  0
  193.5590  175.0800  137.0240 N   0  0  0  0  0  0  0  0  0  0  0  0
  195.4510  174.2350  136.0150 C   0  0  1  0  0  3  0  0  0  0  0  0
  194.2090  174.4240  138.0220 O   0  0  0  0  0  0  0  0  0  0  0  0
  195.5110  174.2250  137.5290 C   0  0  0  0  0  2  0  0  0  0  0  0
  194.2250  175.0740  135.7340 C   0  0  2  0  0  3  0  0  0  0  0  0
  194.5510  176.5090  135.3180 C   0  0  0  0  0  2  0  0  0  0  0  0
  194.6610  177.3180  136.4510 O   0  0  0  0  0  1  0  0  0  0  0  0
  190.3910  177.4790  139.9570 C   0  0  0  0  0  2  0  0  0  0  0  0
  190.5000  176.5480  141.0670 N   0  0  0  0  0  2  0  0  0  0  0  0
  190.9650  177.3140  142.2070 C   0  0  0  0  0  1  0  0  0  0  0  0
  187.3080  174.5580  135.9690 C   0  0  0  0  0  0  0  0  0  0  0  0
  187.4830  173.7330  134.8210 N   0  0  0  0  0  1  0  0  0  0  0  0
  187.0520  174.0210  137.0800 O   0  0  0  0  0  0  0  0  0  0  0  0
  187.4330  175.9850  135.8640 N   0  0  0  0  0  0  0  0  0  0  0  0
  187.8040  176.5970  134.5980 C   0  0  0  0  0  1  0  0  0  0  0  0
  180.7300  175.0220  138.2570 C   0  0  0  0  0  2  0  0  0  0  0  0
  180.8060  175.2650  139.7690 C   0  0  1  0  0  3  0  0  0  0  0  0
  180.7330  176.6270  140.0660 O   0  0  0  0  0  1  0  0  0  0  0  0
  180.4030  173.5620  141.4090 F   0  0  0  0  0  0  0  0  0  0  0  0
  179.0060  175.3350  141.3380 F   0  0  0  0  0  0  0  0  0  0  0  0
  179.7760  174.4730  140.5770 C   0  0  0  0  0  0  0  0  0  0  0  0
  178.9490  173.7870  139.7080 F   0  0  0  0  0  0  0  0  0  0  0  0
  1  5  1  0  0  0  0
  2 13  1  0  0  0  0
  2  1  2  0  0  0  0
  3  7  1  0  0  0  0
  3  4  1  0  0  0  0
  5  4  2  0  0  0  0
  6  8  2  0  0  0  0
  8 37  1  0  0  0  0
  9 12  1  0  0  0  0
 10 11  1  1  0  0  0
 10  7  1  0  0  0  0
 12 11  1  0  0  0  0
 12  8  1  0  0  0  0
 13  3  2  0  0  0  0
 14  9  1  1  0  0  0
 14 10  1  0  0  0  0
 14 13  1  0  0  0  0
 15 19  1  0  0  0  0
 16 17  2  0  0  0  0
 16 18  1  0  0  0  0
 17 20  1  0  0  0  0
 18 15  2  0  0  0  0
 19 29  1  0  0  0  0
 20  1  1  0  0  0  0
 20 19  2  0  0  0  0
 22 18  1  0  0  0  0
 22 24  1  0  0  0  0
 23 21  1  6  0  0  0
 23 25  1  0  0  0  0
 25 24  1  0  0  0  0
 26 27  1  1  0  0  0
 26 23  1  0  0  0  0
 26 22  1  0  0  0  0
 27 28  1  0  0  0  0
 29 30  1  0  0  0  0
 30 31  1  0  0  0  0
 32 34  2  0  0  0  0
 33 32  1  0  0  0  0
 35 32  1  0  0  0  0
 35  2  1  0  0  0  0
 36 35  1  0  0  0  0
 37 38  1  0  0  0  0
 38 39  1  6  0  0  0
 38 42  1  0  0  0  0
 42 41  1  0  0  0  0
 42 40  1  0  0  0  0
 43 42  1  0  0  0  0
M  END
>  <MODEL>
9

>  <REMARK>
 VINA RESULT:      -4.5      2.651      3.560
  Name = 
  9 active torsions:
  status: ('A' for Active; 'I' for Inactive)
    1  A    between atoms: N_2  and  C_23
    2  A    between atoms: C_3  and  C_42
    3  A    between atoms: C_4  and  N_40
    4  A    between atoms: C_5  and  C_43
    5  A    between atoms: N_7  and  C_35
    6  A    between atoms: C_18  and  C_27
    7  A    between atoms: C_18  and  C_31
    8  A    between atoms: C_19  and  C_31
    9  A    between atoms: C_23  and  C_36
                            x       y       z     vdW  Elec       q    Type
                         _______ _______ _______ _____ _____    ______ ____

>  <TORSDO>
F 9

$$$$
