=
 OpenBabel10222417183D

 46 49  0  0  1  0  0  0  0  0999 V2000
  188.5710  177.7130  140.1670 C   0  0  2  0  0  3  0  0  0  0  0  0
  187.2650  178.4280  140.2250 C   0  0  0  0  0  3  0  0  0  0  0  0
  186.6910  178.6780  141.3920 C   0  0  0  0  0  3  0  0  0  0  0  0
  185.4350  179.3510  141.4420 N   0  0  0  0  0  2  0  0  0  0  0  0
  184.4940  179.1570  142.5010 C   0  0  0  0  0  0  0  0  0  0  0  0
  183.1430  178.9640  142.1890 C   0  0  0  0  0  3  0  0  0  0  0  0
  182.6080  178.7930  144.5460 C   0  0  0  0  0  3  0  0  0  0  0  0
  183.9570  178.9840  144.8650 C   0  0  0  0  0  3  0  0  0  0  0  0
  184.8970  179.1640  143.8460 C   0  0  0  0  0  3  0  0  0  0  0  0
  182.2020  178.7820  143.2080 C   0  0  0  0  0  3  0  0  0  0  0  0
  189.2340  177.8000  141.5290 C   0  0  0  0  0  2  0  0  0  0  0  0
  190.6830  177.3560  141.4350 C   0  0  0  0  0  2  0  0  0  0  0  0
  191.2580  177.2460  142.7680 N   0  0  0  0  0  2  0  0  0  0  0  0
  191.1430  176.0640  143.5620 C   0  0  0  0  0  0  0  0  0  0  0  0
  190.5350  175.0510  143.1230 O   0  0  0  0  0  0  0  0  0  0  0  0
  191.7870  176.0100  144.9010 C   0  0  0  0  0  2  0  0  0  0  0  0
  191.5780  177.2160  145.5720 O   0  0  0  0  0  0  0  0  0  0  0  0
  192.2890  175.7490  147.3270 C   0  0  0  0  0  1  0  0  0  0  0  0
  191.3350  176.8520  146.9000 C   0  0  2  0  0  3  0  0  0  0  0  0
  189.8750  176.4350  147.0930 C   0  0  0  0  0  2  0  0  0  0  0  0
  188.9560  177.6040  147.4390 C   0  0  0  0  0  2  0  0  0  0  0  0
  187.9110  177.5980  145.1920 C   0  0  0  0  0  1  0  0  0  0  0  0
  186.8080  178.5730  147.0570 O   0  0  0  0  0  1  0  0  0  0  0  0
  187.6420  177.5190  146.6810 C   0  0  2  0  0  3  0  0  0  0  0  0
  189.4160  178.3240  139.1950 O   0  0  0  0  0  0  0  0  0  0  0  0
  188.9890  179.7150  137.4010 O   0  0  0  0  0  0  0  0  0  0  0  0
  189.0190  178.5470  137.8720 C   0  0  0  0  0  0  0  0  0  0  0  0
  189.3100  175.4810  135.7330 C   0  0  0  0  0  0  0  0  0  0  0  0
  188.0620  175.1460  135.4060 C   0  0  0  0  0  3  0  0  0  0  0  0
  186.9400  175.9690  135.8600 C   0  0  0  0  0  0  0  0  0  0  0  0
  188.6320  177.4050  137.0350 C   0  0  0  0  0  0  0  0  0  0  0  0
  185.7660  175.6610  135.5260 O   0  0  0  0  0  0  0  0  0  0  0  0
  187.1700  177.1690  136.7290 C   0  0  0  0  0  2  0  0  0  0  0  0
  189.5610  176.6200  136.5700 N   0  0  0  0  0  0  0  0  0  0  0  0
  191.5850  174.7090  136.2530 C   0  0  1  0  0  3  0  0  0  0  0  0
  190.4550  174.5880  135.3330 C   0  0  1  0  0  3  0  0  0  0  0  0
  190.7420  173.5070  136.3100 N   0  0  0  0  0  0  0  0  0  0  0  0
  189.9990  173.6340  137.4360 F   0  0  0  0  0  0  0  0  0  0  0  0
  192.8170  174.4030  135.5430 N   0  0  0  0  0  2  0  0  0  0  0  0
  193.5870  176.3420  136.8680 C   0  0  0  0  0  2  0  0  0  0  0  0
  194.5160  176.2540  135.6610 C   0  0  0  0  0  2  0  0  0  0  0  0
  193.9340  174.9960  136.2720 C   0  0  0  0  0  0  0  0  0  0  0  0
  195.9980  174.7690  137.4600 F   0  0  0  0  0  0  0  0  0  0  0  0
  195.1930  172.8320  136.3710 C   0  0  0  0  0  1  0  0  0  0  0  0
  194.1890  173.7370  138.3110 F   0  0  0  0  0  0  0  0  0  0  0  0
  194.8320  174.0950  137.1360 C   0  0  0  0  0  0  0  0  0  0  0  0
  1  2  1  1  0  0  0
  1 11  1  0  0  0  0
  2  3  2  0  0  0  0
  3  4  1  0  0  0  0
  4  5  1  0  0  0  0
  5  9  1  0  0  0  0
  6  5  2  0  0  0  0
  6 10  1  0  0  0  0
  7  8  1  0  0  0  0
  9  8  2  0  0  0  0
 10  7  2  0  0  0  0
 12 11  1  0  0  0  0
 12 13  1  0  0  0  0
 13 14  1  0  0  0  0
 14 16  1  0  0  0  0
 15 14  2  0  0  0  0
 16 17  1  0  0  0  0
 17 19  1  0  0  0  0
 19 20  1  0  0  0  0
 19 18  1  6  0  0  0
 20 21  1  0  0  0  0
 24 22  1  6  0  0  0
 24 23  1  0  0  0  0
 24 21  1  0  0  0  0
 25  1  1  0  0  0  0
 26 27  2  0  0  0  0
 27 25  1  0  0  0  0
 28 34  1  0  0  0  0
 29 28  2  0  0  0  0
 29 30  1  0  0  0  0
 30 33  1  0  0  0  0
 31 27  1  0  0  0  0
 32 30  2  0  0  0  0
 33 31  1  0  0  0  0
 34 31  2  0  0  0  0
 35 39  1  6  0  0  0
 35 37  1  0  0  0  0
 36 28  1  1  0  0  0
 36 35  1  0  0  0  0
 36 37  1  0  0  0  0
 37 38  1  0  0  0  0
 39 42  1  0  0  0  0
 41 42  1  0  0  0  0
 41 40  1  0  0  0  0
 42 40  1  0  0  0  0
 42 46  1  0  0  0  0
 44 46  1  0  0  0  0
 46 43  1  0  0  0  0
 46 45  1  0  0  0  0
M  END
>  <MODEL>
1

>  <REMARK>
 VINA RESULT:      -7.7      0.000      0.000
  Name = 
  19 active torsions:
  status: ('A' for Active; 'I' for Inactive)
    1  A    between atoms: C_2  and  C_22
    2  A    between atoms: C_2  and  O_38
    3  A    between atoms: C_3  and  N_40
    4  A    between atoms: C_7  and  C_21
    5  A    between atoms: C_8  and  C_35
    6  A    between atoms: C_8  and  C_39
    7  A    between atoms: C_12  and  N_17
    8  A    between atoms: C_12  and  C_36
    9  A    between atoms: C_14  and  C_35
   10  A    between atoms: C_14  and  O_38
   11  A    between atoms: C_16  and  N_42
   12  A    between atoms: C_18  and  C_29
   13  A    between atoms: C_18  and  N_42
   14  A    between atoms: O_19  and  C_43
   15  A    between atoms: O_19  and  C_44
   16  A    between atoms: C_24  and  C_44
   17  A    between atoms: C_27  and  C_43
   18  A    between atoms: C_31  and  N_40
   19  A    between atoms: C_36  and  C_44
                            x       y       z     vdW  Elec       q    Type
                         _______ _______ _______ _____ _____    ______ ____

>  <TORSDO>
F 19

$$$$
=
 OpenBabel10222417183D

 46 49  0  0  1  0  0  0  0  0999 V2000
  184.2810  179.4120  143.3670 C   0  0  2  0  0  3  0  0  0  0  0  0
  184.7030  178.5080  144.4750 C   0  0  0  0  0  3  0  0  0  0  0  0
  185.2990  179.0010  145.5490 C   0  0  0  0  0  3  0  0  0  0  0  0
  185.7130  178.1310  146.6000 N   0  0  0  0  0  2  0  0  0  0  0  0
  187.0860  177.9310  146.9450 C   0  0  0  0  0  0  0  0  0  0  0  0
  187.9560  177.3770  145.9970 C   0  0  0  0  0  3  0  0  0  0  0  0
  189.7840  177.4990  147.5820 C   0  0  0  0  0  3  0  0  0  0  0  0
  188.9210  178.0540  148.5340 C   0  0  0  0  0  3  0  0  0  0  0  0
  187.5770  178.2710  148.2160 C   0  0  0  0  0  3  0  0  0  0  0  0
  189.3010  177.1610  146.3150 C   0  0  0  0  0  3  0  0  0  0  0  0
  183.3440  178.6500  142.4480 C   0  0  0  0  0  2  0  0  0  0  0  0
  181.9000  178.9790  142.7850 C   0  0  0  0  0  2  0  0  0  0  0  0
  181.1350  179.1780  141.5620 N   0  0  0  0  0  2  0  0  0  0  0  0
  180.1050  180.1600  141.4490 C   0  0  0  0  0  0  0  0  0  0  0  0
  179.8220  180.9110  142.4210 O   0  0  0  0  0  0  0  0  0  0  0  0
  179.3900  180.3320  140.1570 C   0  0  0  0  0  2  0  0  0  0  0  0
  179.8470  179.3870  139.2380 O   0  0  0  0  0  0  0  0  0  0  0  0
  181.3390  179.6830  137.3870 C   0  0  0  0  0  1  0  0  0  0  0  0
  180.0370  180.1010  138.0510 C   0  0  2  0  0  3  0  0  0  0  0  0
  180.0000  181.6090  138.3090 C   0  0  0  0  0  2  0  0  0  0  0  0
  181.1000  182.3730  137.5760 C   0  0  0  0  0  2  0  0  0  0  0  0
  179.6810  184.0460  136.4240 C   0  0  0  0  0  1  0  0  0  0  0  0
  181.9050  184.5640  137.0820 O   0  0  0  0  0  1  0  0  0  0  0  0
  180.7680  183.8510  137.4620 C   0  0  2  0  0  3  0  0  0  0  0  0
  185.4210  179.8380  142.6270 O   0  0  0  0  0  0  0  0  0  0  0  0
  184.9650  179.5950  140.3750 O   0  0  0  0  0  0  0  0  0  0  0  0
  185.7260  179.3540  141.3500 C   0  0  0  0  0  0  0  0  0  0  0  0
  188.6650  177.7590  139.6550 C   0  0  0  0  0  0  0  0  0  0  0  0
  189.2980  177.0650  140.6010 C   0  0  0  0  0  3  0  0  0  0  0  0
  188.7640  177.0280  141.9640 C   0  0  0  0  0  0  0  0  0  0  0  0
  186.9410  178.5550  141.1560 C   0  0  0  0  0  0  0  0  0  0  0  0
  189.3520  176.3500  142.8450 O   0  0  0  0  0  0  0  0  0  0  0  0
  187.5290  177.7980  142.3250 C   0  0  0  0  0  2  0  0  0  0  0  0
  187.4860  178.5120  139.9730 N   0  0  0  0  0  0  0  0  0  0  0  0
  189.6850  176.5570  137.7700 C   0  0  1  0  0  3  0  0  0  0  0  0
  189.2620  177.8610  138.2760 C   0  0  1  0  0  3  0  0  0  0  0  0
  188.4680  177.1750  137.2260 N   0  0  0  0  0  0  0  0  0  0  0  0
  187.4350  176.4740  137.7530 F   0  0  0  0  0  0  0  0  0  0  0  0
  190.7810  176.7390  136.8300 N   0  0  0  0  0  2  0  0  0  0  0  0
  191.8130  174.6540  135.9950 C   0  0  0  0  0  2  0  0  0  0  0  0
  191.2370  174.3240  137.3690 C   0  0  0  0  0  2  0  0  0  0  0  0
  191.7830  175.7070  137.0790 C   0  0  0  0  0  0  0  0  0  0  0  0
  193.9100  174.9770  137.8970 F   0  0  0  0  0  0  0  0  0  0  0  0
  192.9660  176.8640  138.9610 C   0  0  0  0  0  1  0  0  0  0  0  0
  193.8420  176.9210  136.7660 F   0  0  0  0  0  0  0  0  0  0  0  0
  193.1510  176.1110  137.6540 C   0  0  0  0  0  0  0  0  0  0  0  0
  1 11  1  6  0  0  0
  1  2  1  0  0  0  0
  2  3  2  0  0  0  0
  3  4  1  0  0  0  0
  4  5  1  0  0  0  0
  5  9  1  0  0  0  0
  6 10  1  0  0  0  0
  6  5  2  0  0  0  0
  7  8  1  0  0  0  0
  9  8  2  0  0  0  0
 10  7  2  0  0  0  0
 11 12  1  0  0  0  0
 13 12  1  0  0  0  0
 14 13  1  0  0  0  0
 14 15  2  0  0  0  0
 16 14  1  0  0  0  0
 17 16  1  0  0  0  0
 19 18  1  1  0  0  0
 19 20  1  0  0  0  0
 19 17  1  0  0  0  0
 21 20  1  0  0  0  0
 23 24  1  0  0  0  0
 24 22  1  6  0  0  0
 24 21  1  0  0  0  0
 25  1  1  0  0  0  0
 26 27  2  0  0  0  0
 27 25  1  0  0  0  0
 28 34  1  0  0  0  0
 28 29  2  0  0  0  0
 29 30  1  0  0  0  0
 30 33  1  0  0  0  0
 30 32  2  0  0  0  0
 31 27  1  0  0  0  0
 31 33  1  0  0  0  0
 34 31  2  0  0  0  0
 35 39  1  6  0  0  0
 35 36  1  0  0  0  0
 36 28  1  1  0  0  0
 37 38  1  0  0  0  0
 37 35  1  0  0  0  0
 37 36  1  0  0  0  0
 39 42  1  0  0  0  0
 40 42  1  0  0  0  0
 40 41  1  0  0  0  0
 42 41  1  0  0  0  0
 42 46  1  0  0  0  0
 45 46  1  0  0  0  0
 46 43  1  0  0  0  0
 46 44  1  0  0  0  0
M  END
>  <MODEL>
2

>  <REMARK>
 VINA RESULT:      -7.5      3.763      8.184
  Name = 
  19 active torsions:
  status: ('A' for Active; 'I' for Inactive)
    1  A    between atoms: C_2  and  C_22
    2  A    between atoms: C_2  and  O_38
    3  A    between atoms: C_3  and  N_40
    4  A    between atoms: C_7  and  C_21
    5  A    between atoms: C_8  and  C_35
    6  A    between atoms: C_8  and  C_39
    7  A    between atoms: C_12  and  N_17
    8  A    between atoms: C_12  and  C_36
    9  A    between atoms: C_14  and  C_35
   10  A    between atoms: C_14  and  O_38
   11  A    between atoms: C_16  and  N_42
   12  A    between atoms: C_18  and  C_29
   13  A    between atoms: C_18  and  N_42
   14  A    between atoms: O_19  and  C_43
   15  A    between atoms: O_19  and  C_44
   16  A    between atoms: C_24  and  C_44
   17  A    between atoms: C_27  and  C_43
   18  A    between atoms: C_31  and  N_40
   19  A    between atoms: C_36  and  C_44
                            x       y       z     vdW  Elec       q    Type
                         _______ _______ _______ _____ _____    ______ ____

>  <TORSDO>
F 19

$$$$
=
 OpenBabel10222417183D

 46 49  0  0  1  0  0  0  0  0999 V2000
  184.1170  179.1840  143.0910 C   0  0  2  0  0  3  0  0  0  0  0  0
  184.4280  178.6020  144.4280 C   0  0  0  0  0  3  0  0  0  0  0  0
  185.2980  179.1970  145.2290 C   0  0  0  0  0  3  0  0  0  0  0  0
  185.6020  178.6290  146.5020 N   0  0  0  0  0  2  0  0  0  0  0  0
  186.9160  178.1980  146.8640 C   0  0  0  0  0  0  0  0  0  0  0  0
  187.7270  177.5900  145.8990 C   0  0  0  0  0  3  0  0  0  0  0  0
  189.4940  177.3160  147.5340 C   0  0  0  0  0  3  0  0  0  0  0  0
  188.6890  177.9250  148.5040 C   0  0  0  0  0  3  0  0  0  0  0  0
  187.4050  178.3650  148.1700 C   0  0  0  0  0  3  0  0  0  0  0  0
  189.0130  177.1500  146.2320 C   0  0  0  0  0  3  0  0  0  0  0  0
  183.5410  178.0940  142.2080 C   0  0  0  0  0  2  0  0  0  0  0  0
  182.1950  178.5270  141.6530 C   0  0  0  0  0  2  0  0  0  0  0  0
  181.9450  177.8690  140.3790 N   0  0  0  0  0  2  0  0  0  0  0  0
  181.7330  178.5940  139.1670 C   0  0  0  0  0  0  0  0  0  0  0  0
  181.7640  179.8530  139.1560 O   0  0  0  0  0  0  0  0  0  0  0  0
  181.5200  177.8540  137.8940 C   0  0  0  0  0  2  0  0  0  0  0  0
  182.5520  178.1500  137.0010 O   0  0  0  0  0  0  0  0  0  0  0  0
  184.8060  177.4970  137.4830 C   0  0  0  0  0  1  0  0  0  0  0  0
  183.4130  177.0510  137.0700 C   0  0  2  0  0  3  0  0  0  0  0  0
  183.4400  176.2940  135.7390 C   0  0  0  0  0  2  0  0  0  0  0  0
  184.1630  174.9510  135.8250 C   0  0  0  0  0  2  0  0  0  0  0  0
  184.7780  173.4660  137.7100 C   0  0  0  0  0  1  0  0  0  0  0  0
  182.7890  173.1060  136.4600 O   0  0  0  0  0  1  0  0  0  0  0  0
  183.6230  174.1040  136.9650 C   0  0  2  0  0  3  0  0  0  0  0  0
  185.3070  179.6930  142.4940 O   0  0  0  0  0  0  0  0  0  0  0  0
  185.0480  179.6830  140.1990 O   0  0  0  0  0  0  0  0  0  0  0  0
  185.7240  179.3410  141.2060 C   0  0  0  0  0  0  0  0  0  0  0  0
  188.6480  177.6830  139.5450 C   0  0  0  0  0  0  0  0  0  0  0  0
  189.3390  177.0990  140.5250 C   0  0  0  0  0  3  0  0  0  0  0  0
  188.8580  177.1730  141.9060 C   0  0  0  0  0  0  0  0  0  0  0  0
  186.9570  178.5640  141.0360 C   0  0  0  0  0  0  0  0  0  0  0  0
  189.5020  176.5970  142.8210 O   0  0  0  0  0  0  0  0  0  0  0  0
  187.6130  177.9370  142.2450 C   0  0  0  0  0  2  0  0  0  0  0  0
  187.4570  178.4270  139.8410 N   0  0  0  0  0  0  0  0  0  0  0  0
  189.8630  176.4170  137.8260 C   0  0  1  0  0  3  0  0  0  0  0  0
  189.1880  177.6750  138.1400 C   0  0  1  0  0  3  0  0  0  0  0  0
  188.5360  176.6790  137.2520 N   0  0  0  0  0  0  0  0  0  0  0  0
  187.6790  175.8810  137.9340 F   0  0  0  0  0  0  0  0  0  0  0  0
  190.8830  176.6570  136.8160 N   0  0  0  0  0  2  0  0  0  0  0  0
  191.7250  174.6170  135.7030 C   0  0  0  0  0  2  0  0  0  0  0  0
  191.2790  174.1900  137.0990 C   0  0  0  0  0  2  0  0  0  0  0  0
  191.8560  175.5710  136.8700 C   0  0  0  0  0  0  0  0  0  0  0  0
  193.2950  176.9670  138.1760 F   0  0  0  0  0  0  0  0  0  0  0  0
  194.1700  176.1810  136.1260 C   0  0  0  0  0  1  0  0  0  0  0  0
  193.8320  174.7890  138.0060 F   0  0  0  0  0  0  0  0  0  0  0  0
  193.2930  175.8710  137.3280 C   0  0  0  0  0  0  0  0  0  0  0  0
  1 11  1  6  0  0  0
  1  2  1  0  0  0  0
  2  3  2  0  0  0  0
  3  4  1  0  0  0  0
  4  5  1  0  0  0  0
  5  9  1  0  0  0  0
  6 10  1  0  0  0  0
  6  5  2  0  0  0  0
  7  8  1  0  0  0  0
  9  8  2  0  0  0  0
 10  7  2  0  0  0  0
 12 11  1  0  0  0  0
 13 12  1  0  0  0  0
 14 13  1  0  0  0  0
 15 14  2  0  0  0  0
 16 14  1  0  0  0  0
 17 19  1  0  0  0  0
 17 16  1  0  0  0  0
 19 18  1  6  0  0  0
 20 21  1  0  0  0  0
 20 19  1  0  0  0  0
 21 24  1  0  0  0  0
 23 24  1  0  0  0  0
 24 22  1  6  0  0  0
 25  1  1  0  0  0  0
 26 27  2  0  0  0  0
 27 25  1  0  0  0  0
 28 34  1  0  0  0  0
 28 29  2  0  0  0  0
 29 30  1  0  0  0  0
 30 33  1  0  0  0  0
 30 32  2  0  0  0  0
 31 27  1  0  0  0  0
 31 33  1  0  0  0  0
 34 31  2  0  0  0  0
 35 39  1  6  0  0  0
 35 36  1  0  0  0  0
 36 28  1  1  0  0  0
 37 35  1  0  0  0  0
 37 38  1  0  0  0  0
 37 36  1  0  0  0  0
 39 42  1  0  0  0  0
 40 42  1  0  0  0  0
 40 41  1  0  0  0  0
 42 41  1  0  0  0  0
 42 46  1  0  0  0  0
 44 46  1  0  0  0  0
 46 45  1  0  0  0  0
 46 43  1  0  0  0  0
M  END
>  <MODEL>
3

>  <REMARK>
 VINA RESULT:      -7.5      2.715      7.417
  Name = 
  19 active torsions:
  status: ('A' for Active; 'I' for Inactive)
    1  A    between atoms: C_2  and  C_22
    2  A    between atoms: C_2  and  O_38
    3  A    between atoms: C_3  and  N_40
    4  A    between atoms: C_7  and  C_21
    5  A    between atoms: C_8  and  C_35
    6  A    between atoms: C_8  and  C_39
    7  A    between atoms: C_12  and  N_17
    8  A    between atoms: C_12  and  C_36
    9  A    between atoms: C_14  and  C_35
   10  A    between atoms: C_14  and  O_38
   11  A    between atoms: C_16  and  N_42
   12  A    between atoms: C_18  and  C_29
   13  A    between atoms: C_18  and  N_42
   14  A    between atoms: O_19  and  C_43
   15  A    between atoms: O_19  and  C_44
   16  A    between atoms: C_24  and  C_44
   17  A    between atoms: C_27  and  C_43
   18  A    between atoms: C_31  and  N_40
   19  A    between atoms: C_36  and  C_44
                            x       y       z     vdW  Elec       q    Type
                         _______ _______ _______ _____ _____    ______ ____

>  <TORSDO>
F 19

$$$$
=
 OpenBabel10222417183D

 46 49  0  0  1  0  0  0  0  0999 V2000
  184.7910  178.8780  141.9280 C   0  0  2  0  0  3  0  0  0  0  0  0
  186.1310  178.2270  141.9370 C   0  0  0  0  0  3  0  0  0  0  0  0
  187.1570  178.8010  141.3280 C   0  0  0  0  0  3  0  0  0  0  0  0
  188.4350  178.1680  141.3280 N   0  0  0  0  0  2  0  0  0  0  0  0
  189.1220  177.8100  140.1270 C   0  0  0  0  0  0  0  0  0  0  0  0
  190.1060  176.8150  140.1720 C   0  0  0  0  0  3  0  0  0  0  0  0
  190.5130  177.0880  137.7990 C   0  0  0  0  0  3  0  0  0  0  0  0
  189.5300  178.0830  137.7450 C   0  0  0  0  0  3  0  0  0  0  0  0
  188.8360  178.4420  138.9050 C   0  0  0  0  0  3  0  0  0  0  0  0
  190.8000  176.4550  139.0110 C   0  0  0  0  0  3  0  0  0  0  0  0
  184.0660  178.5180  143.2110 C   0  0  0  0  0  2  0  0  0  0  0  0
  184.2690  179.6070  144.2510 C   0  0  0  0  0  2  0  0  0  0  0  0
  185.4860  179.3530  145.0080 N   0  0  0  0  0  2  0  0  0  0  0  0
  185.4770  178.7270  146.2920 C   0  0  0  0  0  0  0  0  0  0  0  0
  184.3950  178.3560  146.8210 O   0  0  0  0  0  0  0  0  0  0  0  0
  186.7620  178.4670  146.9930 C   0  0  0  0  0  2  0  0  0  0  0  0
  187.3850  177.3510  146.4320 O   0  0  0  0  0  0  0  0  0  0  0  0
  188.5770  178.1450  148.3530 C   0  0  0  0  0  1  0  0  0  0  0  0
  188.5450  177.1650  147.1910 C   0  0  2  0  0  3  0  0  0  0  0  0
  189.7960  177.2920  146.3180 C   0  0  0  0  0  2  0  0  0  0  0  0
  189.4790  177.4650  144.8340 C   0  0  0  0  0  2  0  0  0  0  0  0
  191.3880  176.1440  143.9680 C   0  0  0  0  0  1  0  0  0  0  0  0
  191.6420  178.4330  144.5540 O   0  0  0  0  0  1  0  0  0  0  0  0
  190.7470  177.5170  144.0000 C   0  0  2  0  0  3  0  0  0  0  0  0
  184.0330  178.4140  140.8150 O   0  0  0  0  0  0  0  0  0  0  0  0
  184.6390  180.1510  139.4180 O   0  0  0  0  0  0  0  0  0  0  0  0
  183.9610  179.1050  139.6000 C   0  0  0  0  0  0  0  0  0  0  0  0
  182.7440  177.0640  136.7000 C   0  0  0  0  0  0  0  0  0  0  0  0
  181.5120  177.5020  136.4390 C   0  0  0  0  0  3  0  0  0  0  0  0
  180.9440  178.6020  137.2210 C   0  0  0  0  0  0  0  0  0  0  0  0
  183.0820  178.6020  138.5380 C   0  0  0  0  0  0  0  0  0  0  0  0
  179.7910  179.0270  136.9510 O   0  0  0  0  0  0  0  0  0  0  0  0
  181.7160  179.2210  138.3470 C   0  0  0  0  0  2  0  0  0  0  0  0
  183.5040  177.6320  137.7770 N   0  0  0  0  0  0  0  0  0  0  0  0
  184.3480  175.2030  136.7000 C   0  0  1  0  0  3  0  0  0  0  0  0
  183.2920  175.8800  135.9490 C   0  0  1  0  0  3  0  0  0  0  0  0
  183.0220  174.5760  136.6040 N   0  0  0  0  0  0  0  0  0  0  0  0
  182.4540  174.7330  137.8240 F   0  0  0  0  0  0  0  0  0  0  0  0
  185.2580  174.5530  135.7700 N   0  0  0  0  0  2  0  0  0  0  0  0
  186.5940  172.5220  136.2180 C   0  0  0  0  0  2  0  0  0  0  0  0
  185.9920  172.9410  137.5560 C   0  0  0  0  0  2  0  0  0  0  0  0
  186.3700  173.9860  136.5270 C   0  0  0  0  0  0  0  0  0  0  0  0
  187.7790  175.7360  135.7050 F   0  0  0  0  0  0  0  0  0  0  0  0
  188.8640  173.9230  136.7630 C   0  0  0  0  0  1  0  0  0  0  0  0
  187.5780  175.5230  137.9350 F   0  0  0  0  0  0  0  0  0  0  0  0
  187.6410  174.8250  136.7390 C   0  0  0  0  0  0  0  0  0  0  0  0
  1  2  1  1  0  0  0
  1 11  1  0  0  0  0
  3  2  2  0  0  0  0
  4  3  1  0  0  0  0
  5  6  1  0  0  0  0
  5  4  1  0  0  0  0
  7 10  1  0  0  0  0
  8  7  2  0  0  0  0
  8  9  1  0  0  0  0
  9  5  2  0  0  0  0
 10  6  2  0  0  0  0
 11 12  1  0  0  0  0
 12 13  1  0  0  0  0
 13 14  1  0  0  0  0
 14 15  2  0  0  0  0
 14 16  1  0  0  0  0
 17 16  1  0  0  0  0
 17 19  1  0  0  0  0
 19 18  1  1  0  0  0
 20 19  1  0  0  0  0
 21 20  1  0  0  0  0
 24 22  1  1  0  0  0
 24 23  1  0  0  0  0
 24 21  1  0  0  0  0
 25  1  1  0  0  0  0
 26 27  2  0  0  0  0
 27 25  1  0  0  0  0
 28 34  1  0  0  0  0
 29 28  2  0  0  0  0
 29 30  1  0  0  0  0
 30 33  1  0  0  0  0
 31 27  1  0  0  0  0
 32 30  2  0  0  0  0
 33 31  1  0  0  0  0
 34 31  2  0  0  0  0
 35 39  1  6  0  0  0
 36 37  1  0  0  0  0
 36 28  1  1  0  0  0
 36 35  1  0  0  0  0
 37 35  1  0  0  0  0
 37 38  1  0  0  0  0
 39 42  1  0  0  0  0
 40 42  1  0  0  0  0
 40 41  1  0  0  0  0
 42 46  1  0  0  0  0
 42 41  1  0  0  0  0
 43 46  1  0  0  0  0
 46 44  1  0  0  0  0
 46 45  1  0  0  0  0
M  END
>  <MODEL>
4

>  <REMARK>
 VINA RESULT:      -7.5      3.454      6.474
  Name = 
  19 active torsions:
  status: ('A' for Active; 'I' for Inactive)
    1  A    between atoms: C_2  and  C_22
    2  A    between atoms: C_2  and  O_38
    3  A    between atoms: C_3  and  N_40
    4  A    between atoms: C_7  and  C_21
    5  A    between atoms: C_8  and  C_35
    6  A    between atoms: C_8  and  C_39
    7  A    between atoms: C_12  and  N_17
    8  A    between atoms: C_12  and  C_36
    9  A    between atoms: C_14  and  C_35
   10  A    between atoms: C_14  and  O_38
   11  A    between atoms: C_16  and  N_42
   12  A    between atoms: C_18  and  C_29
   13  A    between atoms: C_18  and  N_42
   14  A    between atoms: O_19  and  C_43
   15  A    between atoms: O_19  and  C_44
   16  A    between atoms: C_24  and  C_44
   17  A    between atoms: C_27  and  C_43
   18  A    between atoms: C_31  and  N_40
   19  A    between atoms: C_36  and  C_44
                            x       y       z     vdW  Elec       q    Type
                         _______ _______ _______ _____ _____    ______ ____

>  <TORSDO>
F 19

$$$$
=
 OpenBabel10222417183D

 46 49  0  0  1  0  0  0  0  0999 V2000
  184.0230  179.3030  143.4500 C   0  0  2  0  0  3  0  0  0  0  0  0
  184.7410  179.5260  144.7370 C   0  0  0  0  0  3  0  0  0  0  0  0
  184.8620  178.5420  145.6140 C   0  0  0  0  0  3  0  0  0  0  0  0
  185.5400  178.7630  146.8490 N   0  0  0  0  0  2  0  0  0  0  0  0
  186.8710  178.3030  147.0950 C   0  0  0  0  0  0  0  0  0  0  0  0
  187.5700  177.6490  146.0730 C   0  0  0  0  0  3  0  0  0  0  0  0
  189.4770  177.3640  147.5390 C   0  0  0  0  0  3  0  0  0  0  0  0
  188.7860  178.0180  148.5650 C   0  0  0  0  0  3  0  0  0  0  0  0
  187.4880  178.4870  148.3430 C   0  0  0  0  0  3  0  0  0  0  0  0
  188.8700  177.1810  146.2940 C   0  0  0  0  0  3  0  0  0  0  0  0
  182.6850  178.6510  143.7470 C   0  0  0  0  0  2  0  0  0  0  0  0
  181.5700  179.3980  143.0360 C   0  0  0  0  0  2  0  0  0  0  0  0
  181.4490  178.9260  141.6640 N   0  0  0  0  0  2  0  0  0  0  0  0
  180.4740  177.9620  141.2650 C   0  0  0  0  0  0  0  0  0  0  0  0
  179.6610  177.4840  142.1010 O   0  0  0  0  0  0  0  0  0  0  0  0
  180.3840  177.5530  139.8380 C   0  0  0  0  0  2  0  0  0  0  0  0
  180.6270  176.1830  139.7260 O   0  0  0  0  0  0  0  0  0  0  0  0
  180.8150  174.4420  138.0910 C   0  0  0  0  0  1  0  0  0  0  0  0
  180.5220  175.9090  138.3590 C   0  0  2  0  0  3  0  0  0  0  0  0
  181.4440  176.8210  137.5460 C   0  0  0  0  0  2  0  0  0  0  0  0
  182.8140  176.2030  137.2730 C   0  0  0  0  0  2  0  0  0  0  0  0
  184.8100  176.7880  135.9260 C   0  0  0  0  0  1  0  0  0  0  0  0
  184.5770  177.5380  138.1690 O   0  0  0  0  0  1  0  0  0  0  0  0
  183.8590  177.2720  137.0030 C   0  0  2  0  0  3  0  0  0  0  0  0
  184.7870  178.4440  142.6100 O   0  0  0  0  0  0  0  0  0  0  0  0
  184.9850  179.7090  140.6870 O   0  0  0  0  0  0  0  0  0  0  0  0
  185.5090  178.9040  141.5030 C   0  0  0  0  0  0  0  0  0  0  0  0
  188.6620  177.8850  139.7500 C   0  0  0  0  0  0  0  0  0  0  0  0
  189.5250  177.5590  140.7140 C   0  0  0  0  0  3  0  0  0  0  0  0
  189.1110  177.6160  142.1170 C   0  0  0  0  0  0  0  0  0  0  0  0
  186.8850  178.4380  141.2970 C   0  0  0  0  0  0  0  0  0  0  0  0
  189.9220  177.2810  143.0190 O   0  0  0  0  0  0  0  0  0  0  0  0
  187.7350  178.0780  142.4930 C   0  0  0  0  0  2  0  0  0  0  0  0
  187.3420  178.3390  140.0800 N   0  0  0  0  0  0  0  0  0  0  0  0
  189.7070  176.6280  137.9150 C   0  0  1  0  0  3  0  0  0  0  0  0
  189.1160  177.9050  138.3140 C   0  0  1  0  0  3  0  0  0  0  0  0
  188.3630  176.9760  137.4340 N   0  0  0  0  0  0  0  0  0  0  0  0
  187.5080  176.1960  138.1390 F   0  0  0  0  0  0  0  0  0  0  0  0
  190.6750  176.8580  136.8530 N   0  0  0  0  0  2  0  0  0  0  0  0
  191.3980  174.8450  135.6150 C   0  0  0  0  0  2  0  0  0  0  0  0
  190.9810  174.3660  137.0020 C   0  0  0  0  0  2  0  0  0  0  0  0
  191.6050  175.7340  136.8210 C   0  0  0  0  0  0  0  0  0  0  0  0
  193.1550  177.0720  138.0580 F   0  0  0  0  0  0  0  0  0  0  0  0
  193.9380  176.1730  136.0170 C   0  0  0  0  0  1  0  0  0  0  0  0
  193.5500  174.8610  137.9450 F   0  0  0  0  0  0  0  0  0  0  0  0
  193.0670  175.9550  137.2440 C   0  0  0  0  0  0  0  0  0  0  0  0
  1 11  1  1  0  0  0
  1  2  1  0  0  0  0
  2  3  2  0  0  0  0
  3  4  1  0  0  0  0
  4  5  1  0  0  0  0
  5  9  1  0  0  0  0
  6 10  1  0  0  0  0
  6  5  2  0  0  0  0
  7  8  1  0  0  0  0
  9  8  2  0  0  0  0
 10  7  2  0  0  0  0
 12 11  1  0  0  0  0
 13 12  1  0  0  0  0
 14 13  1  0  0  0  0
 14 15  2  0  0  0  0
 16 14  1  0  0  0  0
 17 16  1  0  0  0  0
 19 18  1  1  0  0  0
 19 17  1  0  0  0  0
 20 19  1  0  0  0  0
 21 20  1  0  0  0  0
 24 22  1  6  0  0  0
 24 21  1  0  0  0  0
 24 23  1  0  0  0  0
 25  1  1  0  0  0  0
 26 27  2  0  0  0  0
 27 25  1  0  0  0  0
 28 34  1  0  0  0  0
 28 29  2  0  0  0  0
 29 30  1  0  0  0  0
 30 33  1  0  0  0  0
 30 32  2  0  0  0  0
 31 27  1  0  0  0  0
 31 33  1  0  0  0  0
 34 31  2  0  0  0  0
 35 39  1  6  0  0  0
 35 36  1  0  0  0  0
 36 28  1  1  0  0  0
 37 35  1  0  0  0  0
 37 38  1  0  0  0  0
 37 36  1  0  0  0  0
 40 42  1  0  0  0  0
 40 41  1  0  0  0  0
 42 39  1  0  0  0  0
 42 41  1  0  0  0  0
 42 46  1  0  0  0  0
 44 46  1  0  0  0  0
 46 45  1  0  0  0  0
 46 43  1  0  0  0  0
M  END
>  <MODEL>
5

>  <REMARK>
 VINA RESULT:      -7.4      3.149      7.587
  Name = 
  19 active torsions:
  status: ('A' for Active; 'I' for Inactive)
    1  A    between atoms: C_2  and  C_22
    2  A    between atoms: C_2  and  O_38
    3  A    between atoms: C_3  and  N_40
    4  A    between atoms: C_7  and  C_21
    5  A    between atoms: C_8  and  C_35
    6  A    between atoms: C_8  and  C_39
    7  A    between atoms: C_12  and  N_17
    8  A    between atoms: C_12  and  C_36
    9  A    between atoms: C_14  and  C_35
   10  A    between atoms: C_14  and  O_38
   11  A    between atoms: C_16  and  N_42
   12  A    between atoms: C_18  and  C_29
   13  A    between atoms: C_18  and  N_42
   14  A    between atoms: O_19  and  C_43
   15  A    between atoms: O_19  and  C_44
   16  A    between atoms: C_24  and  C_44
   17  A    between atoms: C_27  and  C_43
   18  A    between atoms: C_31  and  N_40
   19  A    between atoms: C_36  and  C_44
                            x       y       z     vdW  Elec       q    Type
                         _______ _______ _______ _____ _____    ______ ____

>  <TORSDO>
F 19

$$$$
=
 OpenBabel10222417183D

 46 49  0  0  1  0  0  0  0  0999 V2000
  187.8170  177.8050  141.2320 C   0  0  2  0  0  3  0  0  0  0  0  0
  188.1960  177.1130  142.4970 C   0  0  0  0  0  3  0  0  0  0  0  0
  188.9690  177.7190  143.3840 C   0  0  0  0  0  3  0  0  0  0  0  0
  189.3390  177.0490  144.5870 N   0  0  0  0  0  2  0  0  0  0  0  0
  188.8300  177.4230  145.8700 C   0  0  0  0  0  0  0  0  0  0  0  0
  189.6960  177.4390  146.9710 C   0  0  0  0  0  3  0  0  0  0  0  0
  187.8740  178.1300  148.4120 C   0  0  0  0  0  3  0  0  0  0  0  0
  187.0040  178.1190  147.3160 C   0  0  0  0  0  3  0  0  0  0  0  0
  187.4810  177.7670  146.0490 C   0  0  0  0  0  3  0  0  0  0  0  0
  189.2190  177.7910  148.2390 C   0  0  0  0  0  3  0  0  0  0  0  0
  189.0760  178.3370  140.5740 C   0  0  0  0  0  2  0  0  0  0  0  0
  189.4910  177.4300  139.4280 C   0  0  0  0  0  2  0  0  0  0  0  0
  188.4530  177.4080  138.4080 N   0  0  0  0  0  2  0  0  0  0  0  0
  188.2830  178.4610  137.4580 C   0  0  0  0  0  0  0  0  0  0  0  0
  189.0480  179.4620  137.4640 O   0  0  0  0  0  0  0  0  0  0  0  0
  187.2240  178.3540  136.4210 C   0  0  0  0  0  2  0  0  0  0  0  0
  186.0200  177.9760  137.0170 O   0  0  0  0  0  0  0  0  0  0  0  0
  185.1040  177.1630  134.9570 C   0  0  0  0  0  1  0  0  0  0  0  0
  185.6310  176.8150  136.3400 C   0  0  2  0  0  3  0  0  0  0  0  0
  184.5980  176.0290  137.1510 C   0  0  0  0  0  2  0  0  0  0  0  0
  183.5060  176.9120  137.7500 C   0  0  0  0  0  2  0  0  0  0  0  0
  182.0500  174.9190  137.9650 C   0  0  0  0  0  1  0  0  0  0  0  0
  181.8690  176.3780  136.0980 O   0  0  0  0  0  1  0  0  0  0  0  0
  182.1230  176.3490  137.4700 C   0  0  2  0  0  3  0  0  0  0  0  0
  186.9400  178.8910  141.5170 O   0  0  0  0  0  0  0  0  0  0  0  0
  185.4650  179.0790  139.7490 O   0  0  0  0  0  0  0  0  0  0  0  0
  185.6470  178.9850  140.9930 C   0  0  0  0  0  0  0  0  0  0  0  0
  182.0950  178.9680  142.1940 C   0  0  0  0  0  0  0  0  0  0  0  0
  182.1620  178.9540  143.5260 C   0  0  0  0  0  3  0  0  0  0  0  0
  183.4640  178.9850  144.1940 C   0  0  0  0  0  0  0  0  0  0  0  0
  184.4990  178.9770  141.9060 C   0  0  0  0  0  0  0  0  0  0  0  0
  183.5180  178.9980  145.4510 O   0  0  0  0  0  0  0  0  0  0  0  0
  184.7350  178.9900  143.3990 C   0  0  0  0  0  2  0  0  0  0  0  0
  183.2950  178.9640  141.4060 N   0  0  0  0  0  0  0  0  0  0  0  0
  180.8920  178.8630  140.0540 C   0  0  1  0  0  3  0  0  0  0  0  0
  180.7590  178.8530  141.5100 C   0  0  1  0  0  3  0  0  0  0  0  0
  180.5860  177.5980  140.7370 N   0  0  0  0  0  0  0  0  0  0  0  0
  181.7290  176.8720  140.6920 F   0  0  0  0  0  0  0  0  0  0  0  0
  179.6750  179.4000  139.4640 N   0  0  0  0  0  2  0  0  0  0  0  0
  181.0000  181.3890  138.8300 C   0  0  0  0  0  2  0  0  0  0  0  0
  179.5440  181.7280  138.5210 C   0  0  0  0  0  2  0  0  0  0  0  0
  180.0450  180.3060  138.3800 C   0  0  0  0  0  0  0  0  0  0  0  0
  181.6560  179.5220  136.7950 F   0  0  0  0  0  0  0  0  0  0  0  0
  179.8100  180.7090  135.9180 C   0  0  0  0  0  1  0  0  0  0  0  0
  179.6390  178.5260  136.8070 F   0  0  0  0  0  0  0  0  0  0  0  0
  180.2990  179.7330  136.9760 C   0  0  0  0  0  0  0  0  0  0  0  0
  1 11  1  1  0  0  0
  1 25  1  0  0  0  0
  1  2  1  0  0  0  0
  2  3  2  0  0  0  0
  3  4  1  0  0  0  0
  4  5  1  0  0  0  0
  5  9  2  0  0  0  0
  5  6  1  0  0  0  0
  6 10  2  0  0  0  0
  8  7  2  0  0  0  0
  9  8  1  0  0  0  0
 10  7  1  0  0  0  0
 12 11  1  0  0  0  0
 13 12  1  0  0  0  0
 14 15  2  0  0  0  0
 14 13  1  0  0  0  0
 16 17  1  0  0  0  0
 16 14  1  0  0  0  0
 19 18  1  6  0  0  0
 19 17  1  0  0  0  0
 19 20  1  0  0  0  0
 20 21  1  0  0  0  0
 23 24  1  0  0  0  0
 24 21  1  0  0  0  0
 24 22  1  6  0  0  0
 26 27  2  0  0  0  0
 27 25  1  0  0  0  0
 27 31  1  0  0  0  0
 28 29  2  0  0  0  0
 29 30  1  0  0  0  0
 30 32  2  0  0  0  0
 31 33  1  0  0  0  0
 33 30  1  0  0  0  0
 34 31  2  0  0  0  0
 34 28  1  0  0  0  0
 35 39  1  6  0  0  0
 35 37  1  0  0  0  0
 35 36  1  0  0  0  0
 36 28  1  1  0  0  0
 37 36  1  0  0  0  0
 38 37  1  0  0  0  0
 41 40  1  0  0  0  0
 42 41  1  0  0  0  0
 42 40  1  0  0  0  0
 42 39  1  0  0  0  0
 43 46  1  0  0  0  0
 44 46  1  0  0  0  0
 45 46  1  0  0  0  0
 46 42  1  0  0  0  0
M  END
>  <MODEL>
6

>  <REMARK>
 VINA RESULT:      -7.4      4.626     10.072
  Name = 
  19 active torsions:
  status: ('A' for Active; 'I' for Inactive)
    1  A    between atoms: C_2  and  C_22
    2  A    between atoms: C_2  and  O_38
    3  A    between atoms: C_3  and  N_40
    4  A    between atoms: C_7  and  C_21
    5  A    between atoms: C_8  and  C_35
    6  A    between atoms: C_8  and  C_39
    7  A    between atoms: C_12  and  N_17
    8  A    between atoms: C_12  and  C_36
    9  A    between atoms: C_14  and  C_35
   10  A    between atoms: C_14  and  O_38
   11  A    between atoms: C_16  and  N_42
   12  A    between atoms: C_18  and  C_29
   13  A    between atoms: C_18  and  N_42
   14  A    between atoms: O_19  and  C_43
   15  A    between atoms: O_19  and  C_44
   16  A    between atoms: C_24  and  C_44
   17  A    between atoms: C_27  and  C_43
   18  A    between atoms: C_31  and  N_40
   19  A    between atoms: C_36  and  C_44
                            x       y       z     vdW  Elec       q    Type
                         _______ _______ _______ _____ _____    ______ ____

>  <TORSDO>
F 19

$$$$
=
 OpenBabel10222417183D

 46 49  0  0  1  0  0  0  0  0999 V2000
  183.7590  177.7370  141.1930 C   0  0  2  0  0  3  0  0  0  0  0  0
  182.6860  178.7610  141.3360 C   0  0  0  0  0  3  0  0  0  0  0  0
  181.5780  178.6740  140.6160 C   0  0  0  0  0  3  0  0  0  0  0  0
  180.5600  179.6630  140.7470 N   0  0  0  0  0  2  0  0  0  0  0  0
  180.3890  180.7270  139.8070 C   0  0  0  0  0  0  0  0  0  0  0  0
  181.3210  180.8860  138.7750 C   0  0  0  0  0  3  0  0  0  0  0  0
  180.1050  182.8130  137.9530 C   0  0  0  0  0  3  0  0  0  0  0  0
  179.1680  182.6600  138.9800 C   0  0  0  0  0  3  0  0  0  0  0  0
  179.3080  181.6190  139.9040 C   0  0  0  0  0  3  0  0  0  0  0  0
  181.1800  181.9260  137.8500 C   0  0  0  0  0  3  0  0  0  0  0  0
  184.9250  178.1260  142.0820 C   0  0  0  0  0  2  0  0  0  0  0  0
  184.4160  178.6730  143.4040 C   0  0  0  0  0  2  0  0  0  0  0  0
  185.4180  178.4820  144.4420 N   0  0  0  0  0  2  0  0  0  0  0  0
  185.1350  178.6680  145.8300 C   0  0  0  0  0  0  0  0  0  0  0  0
  183.9820  179.0020  146.2120 O   0  0  0  0  0  0  0  0  0  0  0  0
  186.1990  178.4200  146.8380 C   0  0  0  0  0  2  0  0  0  0  0  0
  187.4080  178.1590  146.1910 O   0  0  0  0  0  0  0  0  0  0  0  0
  188.0390  177.8300  148.4790 C   0  0  0  0  0  1  0  0  0  0  0  0
  188.1020  177.3050  147.0540 C   0  0  2  0  0  3  0  0  0  0  0  0
  189.5490  177.1170  146.5900 C   0  0  0  0  0  2  0  0  0  0  0  0
  190.5060  176.7730  147.7290 C   0  0  0  0  0  2  0  0  0  0  0  0
  191.9580  175.3370  146.3260 C   0  0  0  0  0  1  0  0  0  0  0  0
  192.7910  176.3780  148.2940 O   0  0  0  0  0  1  0  0  0  0  0  0
  191.9210  176.5610  147.2180 C   0  0  2  0  0  3  0  0  0  0  0  0
  184.1990  177.6790  139.8390 O   0  0  0  0  0  0  0  0  0  0  0  0
  184.8270  179.8780  139.5110 O   0  0  0  0  0  0  0  0  0  0  0  0
  185.0150  178.6570  139.2610 C   0  0  0  0  0  0  0  0  0  0  0  0
  188.4540  177.8460  138.0080 C   0  0  0  0  0  0  0  0  0  0  0  0
  188.3000  177.4770  136.7360 C   0  0  0  0  0  3  0  0  0  0  0  0
  186.9700  177.4940  136.1240 C   0  0  0  0  0  0  0  0  0  0  0  0
  186.0930  178.2490  138.3530 C   0  0  0  0  0  0  0  0  0  0  0  0
  186.8360  177.1700  134.9160 O   0  0  0  0  0  0  0  0  0  0  0  0
  185.7630  177.8840  136.9230 C   0  0  0  0  0  2  0  0  0  0  0  0
  187.3160  178.2160  138.8000 N   0  0  0  0  0  0  0  0  0  0  0  0
  189.7540  177.0170  139.9210 C   0  0  1  0  0  3  0  0  0  0  0  0
  189.8100  177.7490  138.6570 C   0  0  1  0  0  3  0  0  0  0  0  0
  190.3370  176.3640  138.7410 N   0  0  0  0  0  0  0  0  0  0  0  0
  189.4200  175.4500  138.3390 F   0  0  0  0  0  0  0  0  0  0  0  0
  190.8230  177.4830  140.7930 N   0  0  0  0  0  2  0  0  0  0  0  0
  191.5610  176.6890  143.0140 C   0  0  0  0  0  2  0  0  0  0  0  0
  190.3970  175.7910  142.6050 C   0  0  0  0  0  2  0  0  0  0  0  0
  190.4300  177.2440  142.1780 C   0  0  0  0  0  0  0  0  0  0  0  0
  188.9670  179.1240  141.9530 F   0  0  0  0  0  0  0  0  0  0  0  0
  190.3100  179.0640  143.8970 C   0  0  0  0  0  1  0  0  0  0  0  0
  188.4790  177.6110  143.5440 F   0  0  0  0  0  0  0  0  0  0  0  0
  189.5130  178.2570  142.8850 C   0  0  0  0  0  0  0  0  0  0  0  0
  1  2  1  6  0  0  0
  1 11  1  0  0  0  0
  3  4  1  0  0  0  0
  3  2  2  0  0  0  0
  5  9  1  0  0  0  0
  5  4  1  0  0  0  0
  6  5  2  0  0  0  0
  7  8  1  0  0  0  0
  8  9  2  0  0  0  0
 10  7  2  0  0  0  0
 10  6  1  0  0  0  0
 11 12  1  0  0  0  0
 12 13  1  0  0  0  0
 13 14  1  0  0  0  0
 14 15  2  0  0  0  0
 14 16  1  0  0  0  0
 17 16  1  0  0  0  0
 17 19  1  0  0  0  0
 19 18  1  1  0  0  0
 20 19  1  0  0  0  0
 20 21  1  0  0  0  0
 24 22  1  6  0  0  0
 24 21  1  0  0  0  0
 24 23  1  0  0  0  0
 25  1  1  0  0  0  0
 27 26  2  0  0  0  0
 27 25  1  0  0  0  0
 28 34  1  0  0  0  0
 29 28  2  0  0  0  0
 30 29  1  0  0  0  0
 30 33  1  0  0  0  0
 31 34  2  0  0  0  0
 31 27  1  0  0  0  0
 32 30  2  0  0  0  0
 33 31  1  0  0  0  0
 35 39  1  1  0  0  0
 36 28  1  6  0  0  0
 36 37  1  0  0  0  0
 36 35  1  0  0  0  0
 37 35  1  0  0  0  0
 38 37  1  0  0  0  0
 39 42  1  0  0  0  0
 41 40  1  0  0  0  0
 42 41  1  0  0  0  0
 42 46  1  0  0  0  0
 42 40  1  0  0  0  0
 43 46  1  0  0  0  0
 46 45  1  0  0  0  0
 46 44  1  0  0  0  0
M  END
>  <MODEL>
7

>  <REMARK>
 VINA RESULT:      -7.4      3.240      5.737
  Name = 
  19 active torsions:
  status: ('A' for Active; 'I' for Inactive)
    1  A    between atoms: C_2  and  C_22
    2  A    between atoms: C_2  and  O_38
    3  A    between atoms: C_3  and  N_40
    4  A    between atoms: C_7  and  C_21
    5  A    between atoms: C_8  and  C_35
    6  A    between atoms: C_8  and  C_39
    7  A    between atoms: C_12  and  N_17
    8  A    between atoms: C_12  and  C_36
    9  A    between atoms: C_14  and  C_35
   10  A    between atoms: C_14  and  O_38
   11  A    between atoms: C_16  and  N_42
   12  A    between atoms: C_18  and  C_29
   13  A    between atoms: C_18  and  N_42
   14  A    between atoms: O_19  and  C_43
   15  A    between atoms: O_19  and  C_44
   16  A    between atoms: C_24  and  C_44
   17  A    between atoms: C_27  and  C_43
   18  A    between atoms: C_31  and  N_40
   19  A    between atoms: C_36  and  C_44
                            x       y       z     vdW  Elec       q    Type
                         _______ _______ _______ _____ _____    ______ ____

>  <TORSDO>
F 19

$$$$
=
 OpenBabel10222417183D

 46 49  0  0  1  0  0  0  0  0999 V2000
  189.2330  177.2070  139.8660 C   0  0  2  0  0  3  0  0  0  0  0  0
  188.6780  177.2880  141.2470 C   0  0  0  0  0  3  0  0  0  0  0  0
  189.4540  177.6430  142.2590 C   0  0  0  0  0  3  0  0  0  0  0  0
  188.9220  177.7070  143.5800 N   0  0  0  0  0  2  0  0  0  0  0  0
  189.6680  177.3180  144.7360 C   0  0  0  0  0  0  0  0  0  0  0  0
  189.1000  177.4820  146.0050 C   0  0  0  0  0  3  0  0  0  0  0  0
  191.1030  176.5870  147.0340 C   0  0  0  0  0  3  0  0  0  0  0  0
  191.6770  176.4180  145.7690 C   0  0  0  0  0  3  0  0  0  0  0  0
  190.9610  176.7810  144.6230 C   0  0  0  0  0  3  0  0  0  0  0  0
  189.8150  177.1170  147.1510 C   0  0  0  0  0  3  0  0  0  0  0  0
  190.5870  176.5250  139.9250 C   0  0  0  0  0  2  0  0  0  0  0  0
  191.3340  176.7310  138.6190 C   0  0  0  0  0  2  0  0  0  0  0  0
  191.8200  175.4550  138.1160 N   0  0  0  0  0  2  0  0  0  0  0  0
  193.0790  175.3160  137.4560 C   0  0  0  0  0  0  0  0  0  0  0  0
  193.8340  176.3120  137.2930 O   0  0  0  0  0  0  0  0  0  0  0  0
  193.5280  173.9730  137.0000 C   0  0  0  0  0  2  0  0  0  0  0  0
  194.8100  173.7150  137.4890 O   0  0  0  0  0  0  0  0  0  0  0  0
  195.6880  171.4990  137.7290 C   0  0  0  0  0  1  0  0  0  0  0  0
  195.2500  172.5980  136.7740 C   0  0  2  0  0  3  0  0  0  0  0  0
  196.3730  172.9770  135.8050 C   0  0  0  0  0  2  0  0  0  0  0  0
  196.4700  174.4800  135.5550 C   0  0  0  0  0  2  0  0  0  0  0  0
  198.8170  173.9050  136.1050 C   0  0  0  0  0  1  0  0  0  0  0  0
  197.6670  175.6260  137.2730 O   0  0  0  0  0  1  0  0  0  0  0  0
  197.8080  175.0320  136.0180 C   0  0  2  0  0  3  0  0  0  0  0  0
  189.3900  178.5170  139.3290 O   0  0  0  0  0  0  0  0  0  0  0  0
  189.0540  179.9850  137.5760 O   0  0  0  0  0  0  0  0  0  0  0  0
  188.6570  178.9840  138.2320 C   0  0  0  0  0  0  0  0  0  0  0  0
  185.1290  177.7290  138.4020 C   0  0  0  0  0  0  0  0  0  0  0  0
  184.9320  177.0430  137.2760 C   0  0  0  0  0  3  0  0  0  0  0  0
  186.0220  176.8920  136.3100 C   0  0  0  0  0  0  0  0  0  0  0  0
  187.4150  178.3010  137.8530 C   0  0  0  0  0  0  0  0  0  0  0  0
  185.8370  176.2210  135.2620 O   0  0  0  0  0  0  0  0  0  0  0  0
  187.3550  177.5370  136.5500 C   0  0  0  0  0  2  0  0  0  0  0  0
  186.3900  178.3640  138.6560 N   0  0  0  0  0  0  0  0  0  0  0  0
  184.3710  178.7920  140.4840 C   0  0  1  0  0  3  0  0  0  0  0  0
  183.9820  177.9510  139.3530 C   0  0  1  0  0  3  0  0  0  0  0  0
  183.5270  179.3620  139.4250 N   0  0  0  0  0  0  0  0  0  0  0  0
  184.3340  180.1890  138.7190 F   0  0  0  0  0  0  0  0  0  0  0  0
  183.5450  178.4610  141.6360 N   0  0  0  0  0  2  0  0  0  0  0  0
  185.6490  179.3630  142.5690 C   0  0  0  0  0  2  0  0  0  0  0  0
  185.6100  177.8860  142.9520 C   0  0  0  0  0  2  0  0  0  0  0  0
  184.3270  178.6840  142.8480 C   0  0  0  0  0  0  0  0  0  0  0  0
  183.5390  180.5070  144.1820 F   0  0  0  0  0  0  0  0  0  0  0  0
  184.3740  178.6310  145.3530 C   0  0  0  0  0  1  0  0  0  0  0  0
  182.3210  178.6160  144.1810 F   0  0  0  0  0  0  0  0  0  0  0  0
  183.6090  179.1240  144.1350 C   0  0  0  0  0  0  0  0  0  0  0  0
  1 11  1  1  0  0  0
  1  2  1  0  0  0  0
  2  3  2  0  0  0  0
  3  4  1  0  0  0  0
  4  5  1  0  0  0  0
  5  6  1  0  0  0  0
  6 10  2  0  0  0  0
  7 10  1  0  0  0  0
  8  7  2  0  0  0  0
  9  5  2  0  0  0  0
  9  8  1  0  0  0  0
 12 11  1  0  0  0  0
 13 12  1  0  0  0  0
 14 13  1  0  0  0  0
 15 14  2  0  0  0  0
 16 14  1  0  0  0  0
 16 17  1  0  0  0  0
 19 17  1  0  0  0  0
 19 18  1  1  0  0  0
 20 19  1  0  0  0  0
 21 20  1  0  0  0  0
 21 24  1  0  0  0  0
 24 22  1  1  0  0  0
 24 23  1  0  0  0  0
 25  1  1  0  0  0  0
 26 27  2  0  0  0  0
 27 25  1  0  0  0  0
 28 34  1  0  0  0  0
 29 28  2  0  0  0  0
 30 33  1  0  0  0  0
 30 29  1  0  0  0  0
 31 27  1  0  0  0  0
 31 34  2  0  0  0  0
 32 30  2  0  0  0  0
 33 31  1  0  0  0  0
 35 39  1  1  0  0  0
 36 28  1  6  0  0  0
 36 37  1  0  0  0  0
 36 35  1  0  0  0  0
 37 35  1  0  0  0  0
 38 37  1  0  0  0  0
 39 42  1  0  0  0  0
 40 42  1  0  0  0  0
 40 41  1  0  0  0  0
 42 41  1  0  0  0  0
 42 46  1  0  0  0  0
 46 45  1  0  0  0  0
 46 43  1  0  0  0  0
 46 44  1  0  0  0  0
M  END
>  <MODEL>
8

>  <REMARK>
 VINA RESULT:      -7.1      3.725      9.059
  Name = 
  19 active torsions:
  status: ('A' for Active; 'I' for Inactive)
    1  A    between atoms: C_2  and  C_22
    2  A    between atoms: C_2  and  O_38
    3  A    between atoms: C_3  and  N_40
    4  A    between atoms: C_7  and  C_21
    5  A    between atoms: C_8  and  C_35
    6  A    between atoms: C_8  and  C_39
    7  A    between atoms: C_12  and  N_17
    8  A    between atoms: C_12  and  C_36
    9  A    between atoms: C_14  and  C_35
   10  A    between atoms: C_14  and  O_38
   11  A    between atoms: C_16  and  N_42
   12  A    between atoms: C_18  and  C_29
   13  A    between atoms: C_18  and  N_42
   14  A    between atoms: O_19  and  C_43
   15  A    between atoms: O_19  and  C_44
   16  A    between atoms: C_24  and  C_44
   17  A    between atoms: C_27  and  C_43
   18  A    between atoms: C_31  and  N_40
   19  A    between atoms: C_36  and  C_44
                            x       y       z     vdW  Elec       q    Type
                         _______ _______ _______ _____ _____    ______ ____

>  <TORSDO>
F 19

$$$$
=
 OpenBabel10222417183D

 46 49  0  0  1  0  0  0  0  0999 V2000
  182.7330  178.2330  138.7670 C   0  0  2  0  0  3  0  0  0  0  0  0
  181.5210  178.4750  139.5990 C   0  0  0  0  0  3  0  0  0  0  0  0
  180.4280  177.7510  139.4120 C   0  0  0  0  0  3  0  0  0  0  0  0
  179.2660  177.9940  140.2020 N   0  0  0  0  0  2  0  0  0  0  0  0
  179.3260  178.5480  141.5190 C   0  0  0  0  0  0  0  0  0  0  0  0
  178.9320  179.8760  141.7220 C   0  0  0  0  0  3  0  0  0  0  0  0
  179.4470  179.6850  144.0820 C   0  0  0  0  0  3  0  0  0  0  0  0
  179.8410  178.3560  143.8870 C   0  0  0  0  0  3  0  0  0  0  0  0
  179.7800  177.7900  142.6100 C   0  0  0  0  0  3  0  0  0  0  0  0
  178.9920  180.4430  143.0000 C   0  0  0  0  0  3  0  0  0  0  0  0
  182.4400  177.1040  137.7970 C   0  0  0  0  0  2  0  0  0  0  0  0
  183.3760  175.9360  138.0550 C   0  0  0  0  0  2  0  0  0  0  0  0
  184.5460  176.0340  137.1940 N   0  0  0  0  0  2  0  0  0  0  0  0
  185.4430  174.9420  136.9850 C   0  0  0  0  0  0  0  0  0  0  0  0
  185.2420  173.8290  137.5410 O   0  0  0  0  0  0  0  0  0  0  0  0
  186.5980  175.1040  136.0630 C   0  0  0  0  0  2  0  0  0  0  0  0
  187.7850  175.1290  136.7980 O   0  0  0  0  0  0  0  0  0  0  0  0
  189.2300  176.7300  135.7540 C   0  0  0  0  0  1  0  0  0  0  0  0
  188.1700  176.4730  136.8130 C   0  0  2  0  0  3  0  0  0  0  0  0
  188.6580  176.8860  138.2040 C   0  0  0  0  0  2  0  0  0  0  0  0
  190.1280  176.5560  138.4490 C   0  0  0  0  0  2  0  0  0  0  0  0
  189.4880  177.7540  140.5210 C   0  0  0  0  0  1  0  0  0  0  0  0
  191.7670  177.5170  139.8930 O   0  0  0  0  0  1  0  0  0  0  0  0
  190.5340  176.8650  139.8800 C   0  0  2  0  0  3  0  0  0  0  0  0
  183.8280  177.8630  139.6000 O   0  0  0  0  0  0  0  0  0  0  0  0
  185.1760  179.7400  139.5710 O   0  0  0  0  0  0  0  0  0  0  0  0
  184.6580  178.7980  140.2290 C   0  0  0  0  0  0  0  0  0  0  0  0
  186.5370  178.3500  143.4420 C   0  0  0  0  0  0  0  0  0  0  0  0
  185.6220  178.4120  144.4100 C   0  0  0  0  0  3  0  0  0  0  0  0
  184.2070  178.5850  144.0720 C   0  0  0  0  0  0  0  0  0  0  0  0
  184.9240  178.6710  141.6670 C   0  0  0  0  0  0  0  0  0  0  0  0
  183.3470  178.6160  144.9890 O   0  0  0  0  0  0  0  0  0  0  0  0
  183.7730  178.7350  142.6450 C   0  0  0  0  0  2  0  0  0  0  0  0
  186.1510  178.4990  142.0680 N   0  0  0  0  0  0  0  0  0  0  0  0
  188.2000  177.5930  145.0850 C   0  0  1  0  0  3  0  0  0  0  0  0
  187.9970  178.2550  143.7980 C   0  0  1  0  0  3  0  0  0  0  0  0
  188.5130  176.8640  143.8480 N   0  0  0  0  0  0  0  0  0  0  0  0
  187.5220  175.9530  143.6980 F   0  0  0  0  0  0  0  0  0  0  0  0
  189.4330  178.0780  145.6860 N   0  0  0  0  0  2  0  0  0  0  0  0
  188.3110  176.8730  147.5300 C   0  0  0  0  0  2  0  0  0  0  0  0
  188.9370  178.1180  148.1520 C   0  0  0  0  0  2  0  0  0  0  0  0
  189.6060  177.4280  146.9810 C   0  0  0  0  0  0  0  0  0  0  0  0
  191.6700  177.1860  148.1670 F   0  0  0  0  0  0  0  0  0  0  0  0
  191.6410  176.4020  145.9380 C   0  0  0  0  0  1  0  0  0  0  0  0
  190.5100  175.3140  147.7060 F   0  0  0  0  0  0  0  0  0  0  0  0
  190.8580  176.5690  147.2300 C   0  0  0  0  0  0  0  0  0  0  0  0
  1 11  1  6  0  0  0
  1  2  1  0  0  0  0
  1 25  1  0  0  0  0
  3  2  2  0  0  0  0
  3  4  1  0  0  0  0
  4  5  1  0  0  0  0
  5  6  2  0  0  0  0
  5  9  1  0  0  0  0
  6 10  1  0  0  0  0
  8  7  1  0  0  0  0
  9  8  2  0  0  0  0
 10  7  2  0  0  0  0
 11 12  1  0  0  0  0
 13 12  1  0  0  0  0
 14 13  1  0  0  0  0
 14 15  2  0  0  0  0
 16 17  1  0  0  0  0
 16 14  1  0  0  0  0
 17 19  1  0  0  0  0
 19 18  1  6  0  0  0
 19 20  1  0  0  0  0
 20 21  1  0  0  0  0
 21 24  1  0  0  0  0
 24 23  1  0  0  0  0
 24 22  1  6  0  0  0
 25 27  1  0  0  0  0
 26 27  2  0  0  0  0
 27 31  1  0  0  0  0
 28 29  2  0  0  0  0
 30 29  1  0  0  0  0
 30 32  2  0  0  0  0
 31 34  2  0  0  0  0
 31 33  1  0  0  0  0
 33 30  1  0  0  0  0
 34 28  1  0  0  0  0
 35 39  1  1  0  0  0
 36 28  1  6  0  0  0
 36 37  1  0  0  0  0
 36 35  1  0  0  0  0
 37 35  1  0  0  0  0
 38 37  1  0  0  0  0
 39 42  1  0  0  0  0
 40 41  1  0  0  0  0
 42 46  1  0  0  0  0
 42 40  1  0  0  0  0
 42 41  1  0  0  0  0
 44 46  1  0  0  0  0
 46 45  1  0  0  0  0
 46 43  1  0  0  0  0
M  END
>  <MODEL>
9

>  <REMARK>
 VINA RESULT:      -7.1      3.886      8.542
  Name = 
  19 active torsions:
  status: ('A' for Active; 'I' for Inactive)
    1  A    between atoms: C_2  and  C_22
    2  A    between atoms: C_2  and  O_38
    3  A    between atoms: C_3  and  N_40
    4  A    between atoms: C_7  and  C_21
    5  A    between atoms: C_8  and  C_35
    6  A    between atoms: C_8  and  C_39
    7  A    between atoms: C_12  and  N_17
    8  A    between atoms: C_12  and  C_36
    9  A    between atoms: C_14  and  C_35
   10  A    between atoms: C_14  and  O_38
   11  A    between atoms: C_16  and  N_42
   12  A    between atoms: C_18  and  C_29
   13  A    between atoms: C_18  and  N_42
   14  A    between atoms: O_19  and  C_43
   15  A    between atoms: O_19  and  C_44
   16  A    between atoms: C_24  and  C_44
   17  A    between atoms: C_27  and  C_43
   18  A    between atoms: C_31  and  N_40
   19  A    between atoms: C_36  and  C_44
                            x       y       z     vdW  Elec       q    Type
                         _______ _______ _______ _____ _____    ______ ____

>  <TORSDO>
F 19

$$$$
