=
 OpenBabel10222417393D

 30 35  0  0  1  0  0  0  0  0999 V2000
  180.5010  175.4120  137.0940 C   0  0  2  0  0  3  0  0  0  0  0  0
  184.1770  178.5390  141.1890 C   0  0  1  0  0  0  0  0  0  0  0  0
  186.4450  177.9310  143.9240 C   0  0  0  0  0  1  0  0  0  0  0  0
  179.7160  177.3990  139.5140 C   0  0  0  0  0  0  0  0  0  0  0  0
  181.3830  174.1780  136.8840 C   0  0  0  0  0  2  0  0  0  0  0  0
  181.7520  178.4830  141.6780 C   0  0  1  0  0  3  0  0  0  0  0  0
  181.6880  178.2390  144.0460 O   0  0  0  0  0  1  0  0  0  0  0  0
  180.3840  179.0390  141.2770 C   0  0  1  0  0  0  0  0  0  0  0  0
  179.4520  177.8860  140.9100 C   0  0  0  0  0  2  0  0  0  0  0  0
  182.7170  174.5550  137.3060 N   0  0  0  0  0  0  0  0  0  0  0  0
  184.4570  178.0750  142.5290 N   0  0  0  0  0  0  0  0  0  0  0  0
  180.0130  180.9180  142.8180 O   0  0  0  0  0  1  0  0  0  0  0  0
  183.4110  177.6610  140.3500 C   0  0  2  0  0  3  0  0  0  0  0  0
  183.9270  177.7670  138.9330 C   0  0  1  0  0  3  0  0  0  0  0  0
  185.6840  178.2510  139.0150 S   0  0  0  0  0  0  0  0  0  0  0  0
  182.8200  178.9520  140.8040 N   0  0  2  0  0  0  0  0  0  0  0  0
  186.3860  178.8780  141.5500 N   0  0  0  0  0  2  0  0  0  0  0  0
  180.8490  176.6270  139.2270 O   0  0  0  0  0  0  0  0  0  0  0  0
  178.9310  177.7430  138.5950 O   0  0  0  0  0  0  0  0  0  0  0  0
  181.6490  179.1860  143.0220 C   0  0  2  0  0  3  0  0  0  0  0  0
  183.8300  176.4160  138.3040 C   0  0  0  0  0  2  0  0  0  0  0  0
  180.1990  179.5390  142.7150 C   0  0  2  0  0  3  0  0  0  0  0  0
  185.3710  179.1650  140.5490 C   0  0  2  0  0  3  0  0  0  0  0  0
  181.3330  176.4450  137.8920 C   0  0  1  0  0  3  0  0  0  0  0  0
  185.7260  178.2770  142.6710 C   0  0  0  0  0  0  0  0  0  0  0  0
  182.6960  175.8410  137.8910 C   0  0  0  0  0  0  0  0  0  0  0  0
  180.3610  180.1620  140.2040 C   0  0  0  0  0  2  0  0  0  0  0  0
  179.0790  180.6820  140.0030 O   0  0  0  0  0  1  0  0  0  0  0  0
  179.3200  175.0490  137.7510 O   0  0  0  0  0  0  0  0  0  0  0  0
  179.2970  173.6550  137.7120 C   0  0  0  0  0  1  0  0  0  0  0  0
  1 29  1  1  0  0  0
  1 24  1  0  0  0  0
  2 11  1  1  0  0  0
  4  9  1  0  0  0  0
  5  1  1  0  0  0  0
  5 10  1  0  0  0  0
  6 20  1  0  0  0  0
  8  6  1  0  0  0  0
  8 22  1  0  0  0  0
  9  8  1  0  0  0  0
 10 26  2  0  0  0  0
 11 25  2  0  0  0  0
 13 16  1  0  0  0  0
 13  2  1  0  0  0  0
 14 15  1  0  0  0  0
 14 13  1  0  0  0  0
 15 23  1  0  0  0  0
 16  2  1  0  0  0  0
 16  6  1  0  0  0  0
 17 25  1  0  0  0  0
 18  4  1  0  0  0  0
 19  4  2  0  0  0  0
 20  7  1  0  0  0  0
 21 14  1  0  0  0  0
 22 12  1  0  0  0  0
 22 20  1  0  0  0  0
 23  2  1  0  0  0  0
 23 17  1  0  0  0  0
 24 18  1  0  0  0  0
 25  3  1  0  0  0  0
 26 24  1  0  0  0  0
 26 21  1  0  0  0  0
 27  8  1  0  0  0  0
 28 27  1  0  0  0  0
 30 29  1  0  0  0  0
M  END
>  <MODEL>
1

>  <REMARK>
 VINA RESULT:      -6.0      0.000      0.000
  Name = 
  2 active torsions:
  status: ('A' for Active; 'I' for Inactive)
    1  A    between atoms: C_1  and  O_16
    2  A    between atoms: C_8  and  C_13
                            x       y       z     vdW  Elec       q    Type
                         _______ _______ _______ _____ _____    ______ ____

>  <TORSDO>
F 2

$$$$
=
 OpenBabel10222417393D

 30 35  0  0  1  0  0  0  0  0999 V2000
  188.6260  178.1230  142.5840 C   0  0  2  0  0  3  0  0  0  0  0  0
  184.0080  177.8730  138.2630 C   0  0  1  0  0  0  0  0  0  0  0  0
  181.1290  175.8960  137.3730 C   0  0  0  0  0  1  0  0  0  0  0  0
  188.7570  177.5220  139.4150 C   0  0  0  0  0  0  0  0  0  0  0  0
  187.8360  177.6250  143.7980 C   0  0  0  0  0  3  0  0  0  0  0  0
  186.2320  177.0330  137.5760 C   0  0  1  0  0  3  0  0  0  0  0  0
  185.6980  175.1340  136.2420 O   0  0  0  0  0  1  0  0  0  0  0  0
  187.6520  177.4400  137.1760 C   0  0  1  0  0  0  0  0  0  0  0  0
  188.6560  176.7760  138.1150 C   0  0  0  0  0  2  0  0  0  0  0  0
  186.4360  177.8110  143.4760 N   0  0  0  0  0  0  0  0  0  0  0  0
  183.4030  176.6410  137.8080 N   0  0  0  0  0  0  0  0  0  0  0  0
  187.6050  177.4860  134.7180 O   0  0  0  0  0  1  0  0  0  0  0  0
  184.9690  177.7660  139.3240 C   0  0  2  0  0  3  0  0  0  0  0  0
  184.8260  178.9640  140.2350 C   0  0  1  0  0  3  0  0  0  0  0  0
  183.1010  179.5470  140.1220 S   0  0  0  0  0  0  0  0  0  0  0  0
  185.4140  178.1760  137.9630 N   0  0  2  0  0  0  0  0  0  0  0  0
  181.7770  178.2400  138.1600 N   0  0  0  0  0  2  0  0  0  0  0  0
  187.7400  177.4310  140.3730 O   0  0  0  0  0  0  0  0  0  0  0  0
  189.7460  178.2740  139.6050 O   0  0  0  0  0  0  0  0  0  0  0  0
  185.9860  176.4970  136.1740 C   0  0  2  0  0  3  0  0  0  0  0  0
  185.0900  178.5140  141.6350 C   0  0  0  0  0  3  0  0  0  0  0  0
  187.4630  176.6870  135.8540 C   0  0  2  0  0  3  0  0  0  0  0  0
  183.0090  178.9720  138.4050 C   0  0  2  0  0  3  0  0  0  0  0  0
  187.6110  178.3740  141.4440 C   0  0  1  0  0  3  0  0  0  0  0  0
  182.1380  176.9060  137.7850 C   0  0  0  0  0  0  0  0  0  0  0  0
  186.2970  178.2280  142.1340 C   0  0  0  0  0  0  0  0  0  0  0  0
  187.9350  178.9580  137.0090 C   0  0  0  0  0  2  0  0  0  0  0  0
  189.2780  179.2230  136.7300 O   0  0  0  0  0  1  0  0  0  0  0  0
  189.6060  177.1860  142.2350 O   0  0  0  0  0  0  0  0  0  0  0  0
  189.4550  176.1450  143.1500 C   0  0  0  0  0  1  0  0  0  0  0  0
  1 29  1  6  0  0  0
  1  5  1  0  0  0  0
  2 11  1  6  0  0  0
  2 23  1  0  0  0  0
  2 13  1  0  0  0  0
  3 25  1  0  0  0  0
  4 19  2  0  0  0  0
  4 18  1  0  0  0  0
  6 16  1  0  0  0  0
  8  6  1  0  0  0  0
  8  9  1  0  0  0  0
  9  4  1  0  0  0  0
 10  5  2  0  0  0  0
 12 22  1  0  0  0  0
 13 14  1  0  0  0  0
 14 21  1  0  0  0  0
 15 14  1  0  0  0  0
 16  2  1  0  0  0  0
 16 13  1  0  0  0  0
 17 23  1  0  0  0  0
 18 24  1  0  0  0  0
 20  7  1  0  0  0  0
 20  6  1  0  0  0  0
 21 26  2  0  0  0  0
 22 20  1  0  0  0  0
 22  8  1  0  0  0  0
 23 15  1  0  0  0  0
 24 26  1  0  0  0  0
 24  1  1  0  0  0  0
 25 11  2  0  0  0  0
 25 17  1  0  0  0  0
 26 10  1  0  0  0  0
 27  8  1  0  0  0  0
 28 27  1  0  0  0  0
 29 30  1  0  0  0  0
M  END
>  <MODEL>
2

>  <REMARK>
 VINA RESULT:      -5.6      4.358      7.986
  Name = 
  2 active torsions:
  status: ('A' for Active; 'I' for Inactive)
    1  A    between atoms: C_1  and  O_16
    2  A    between atoms: C_8  and  C_13
                            x       y       z     vdW  Elec       q    Type
                         _______ _______ _______ _____ _____    ______ ____

>  <TORSDO>
F 2

$$$$
=
 OpenBabel10222417393D

 30 35  0  0  1  0  0  0  0  0999 V2000
  179.0260  182.2560  136.9160 C   0  0  2  0  0  3  0  0  0  0  0  0
  181.1550  178.8090  141.7790 C   0  0  1  0  0  0  0  0  0  0  0  0
  183.4510  179.0190  144.5490 C   0  0  0  0  0  1  0  0  0  0  0  0
  180.8110  179.5680  136.9500 C   0  0  0  0  0  0  0  0  0  0  0  0
  179.0440  183.6350  137.5830 C   0  0  0  0  0  2  0  0  0  0  0  0
  182.0950  178.2990  139.5470 C   0  0  1  0  0  3  0  0  0  0  0  0
  184.3870  177.8570  140.0200 O   0  0  0  0  0  1  0  0  0  0  0  0
  181.8120  177.6450  138.1930 C   0  0  1  0  0  0  0  0  0  0  0  0
  182.0100  178.6720  137.0790 C   0  0  0  0  0  2  0  0  0  0  0  0
  179.0630  183.3960  139.0110 N   0  0  0  0  0  0  0  0  0  0  0  0
  182.4920  178.9220  142.3150 N   0  0  0  0  0  0  0  0  0  0  0  0
  182.7340  175.3750  138.4060 O   0  0  0  0  0  1  0  0  0  0  0  0
  180.7950  179.7370  140.7440 C   0  0  2  0  0  3  0  0  0  0  0  0
  179.3430  180.1230  140.9180 C   0  0  1  0  0  3  0  0  0  0  0  0
  178.9310  179.9520  142.6870 S   0  0  0  0  0  0  0  0  0  0  0  0
  180.9300  178.2880  140.4230 N   0  0  2  0  0  0  0  0  0  0  0  0
  180.9590  178.7770  144.0330 N   0  0  0  0  0  2  0  0  0  0  0  0
  180.5660  180.5750  137.8910 O   0  0  0  0  0  0  0  0  0  0  0  0
  180.0010  179.3610  136.0120 O   0  0  0  0  0  0  0  0  0  0  0  0
  183.1470  177.2420  139.8440 C   0  0  2  0  0  3  0  0  0  0  0  0
  179.1970  181.5570  140.5270 C   0  0  0  0  0  2  0  0  0  0  0  0
  183.0310  176.7390  138.4100 C   0  0  2  0  0  3  0  0  0  0  0  0
  180.1340  178.6060  142.8480 C   0  0  2  0  0  3  0  0  0  0  0  0
  179.2870  181.2050  138.0220 C   0  0  1  0  0  3  0  0  0  0  0  0
  182.3160  178.9150  143.5960 C   0  0  0  0  0  0  0  0  0  0  0  0
  179.2100  182.0160  139.2710 C   0  0  0  0  0  0  0  0  0  0  0  0
  180.4700  176.8800  138.0400 C   0  0  0  0  0  2  0  0  0  0  0  0
  180.3650  176.2250  136.8100 O   0  0  0  0  0  1  0  0  0  0  0  0
  179.9780  182.2080  135.8920 O   0  0  0  0  0  0  0  0  0  0  0  0
  180.4190  183.5230  135.7450 C   0  0  0  0  0  1  0  0  0  0  0  0
  1 29  1  6  0  0  0
  1  5  1  0  0  0  0
  1 24  1  0  0  0  0
  2 11  1  1  0  0  0
  2 23  1  0  0  0  0
  4  9  1  0  0  0  0
  4 18  1  0  0  0  0
  5 10  1  0  0  0  0
  6 20  1  0  0  0  0
  6 16  1  0  0  0  0
  8 22  1  0  0  0  0
  8  6  1  0  0  0  0
  9  8  1  0  0  0  0
 10 26  2  0  0  0  0
 11 25  2  0  0  0  0
 12 22  1  0  0  0  0
 13 14  1  0  0  0  0
 13  2  1  0  0  0  0
 14 15  1  0  0  0  0
 15 23  1  0  0  0  0
 16 13  1  0  0  0  0
 16  2  1  0  0  0  0
 18 24  1  0  0  0  0
 19  4  2  0  0  0  0
 20  7  1  0  0  0  0
 21 14  1  0  0  0  0
 22 20  1  0  0  0  0
 23 17  1  0  0  0  0
 24 26  1  0  0  0  0
 25 17  1  0  0  0  0
 25  3  1  0  0  0  0
 26 21  1  0  0  0  0
 27  8  1  0  0  0  0
 28 27  1  0  0  0  0
 30 29  1  0  0  0  0
M  END
>  <MODEL>
3

>  <REMARK>
 VINA RESULT:      -5.5      3.158      5.779
  Name = 
  2 active torsions:
  status: ('A' for Active; 'I' for Inactive)
    1  A    between atoms: C_1  and  O_16
    2  A    between atoms: C_8  and  C_13
                            x       y       z     vdW  Elec       q    Type
                         _______ _______ _______ _____ _____    ______ ____

>  <TORSDO>
F 2

$$$$
=
 OpenBabel10222417393D

 30 35  0  0  1  0  0  0  0  0999 V2000
  185.6790  179.1710  142.2210 C   0  0  2  0  0  3  0  0  0  0  0  0
  184.2040  176.7820  136.5480 C   0  0  1  0  0  0  0  0  0  0  0  0
  182.7500  173.8410  135.0560 C   0  0  0  0  0  1  0  0  0  0  0  0
  187.5810  178.2290  139.7900 C   0  0  0  0  0  0  0  0  0  0  0  0
  184.5060  178.6020  143.0250 C   0  0  0  0  0  3  0  0  0  0  0  0
  186.5800  176.6660  137.2300 C   0  0  1  0  0  3  0  0  0  0  0  0
  187.2670  174.5370  136.4130 O   0  0  0  0  0  1  0  0  0  0  0  0
  187.8640  177.4750  137.4240 C   0  0  1  0  0  0  0  0  0  0  0  0
  188.3470  177.3260  138.8660 C   0  0  0  0  0  2  0  0  0  0  0  0
  183.4820  178.2540  142.0610 N   0  0  0  0  0  0  0  0  0  0  0  0
  184.2230  175.3690  136.2460 N   0  0  0  0  0  0  0  0  0  0  0  0
  189.1030  177.1700  135.3230 O   0  0  0  0  0  1  0  0  0  0  0  0
  184.4620  177.1530  137.9110 C   0  0  2  0  0  3  0  0  0  0  0  0
  183.5970  178.3420  138.2650 C   0  0  1  0  0  3  0  0  0  0  0  0
  182.1080  178.2810  137.2130 S   0  0  0  0  0  0  0  0  0  0  0  0
  185.4480  177.5030  136.8510 N   0  0  2  0  0  0  0  0  0  0  0  0
  182.3420  176.3490  135.3360 N   0  0  0  0  0  2  0  0  0  0  0  0
  186.2640  177.9280  140.1570 O   0  0  0  0  0  0  0  0  0  0  0  0
  188.1250  179.2920  140.1830 O   0  0  0  0  0  0  0  0  0  0  0  0
  187.2330  175.8940  136.0930 C   0  0  2  0  0  3  0  0  0  0  0  0
  183.1820  178.2020  139.6930 C   0  0  0  0  0  3  0  0  0  0  0  0
  188.5710  176.5310  136.4440 C   0  0  2  0  0  3  0  0  0  0  0  0
  183.0610  177.4830  135.8930 C   0  0  2  0  0  3  0  0  0  0  0  0
  185.3850  178.9050  140.7250 C   0  0  1  0  0  3  0  0  0  0  0  0
  183.1350  175.1800  135.5710 C   0  0  0  0  0  0  0  0  0  0  0  0
  183.9770  178.4140  140.7480 C   0  0  0  0  0  0  0  0  0  0  0  0
  187.8430  178.9610  136.9750 C   0  0  0  0  0  2  0  0  0  0  0  0
  189.0560  179.6100  137.2190 O   0  0  0  0  0  1  0  0  0  0  0  0
  186.8770  178.5860  142.6470 O   0  0  0  0  0  0  0  0  0  0  0  0
  186.5460  177.8780  143.8010 C   0  0  0  0  0  1  0  0  0  0  0  0
  1 29  1  1  0  0  0
  1  5  1  0  0  0  0
  2 11  1  6  0  0  0
  2 16  1  0  0  0  0
  2 13  1  0  0  0  0
  3 25  1  0  0  0  0
  4 18  1  0  0  0  0
  4 19  2  0  0  0  0
  6  8  1  0  0  0  0
  8  9  1  0  0  0  0
  9  4  1  0  0  0  0
 10  5  2  0  0  0  0
 12 22  1  0  0  0  0
 13 14  1  0  0  0  0
 14 21  1  0  0  0  0
 15 14  1  0  0  0  0
 16  6  1  0  0  0  0
 16 13  1  0  0  0  0
 17 25  1  0  0  0  0
 17 23  1  0  0  0  0
 18 24  1  0  0  0  0
 20  7  1  0  0  0  0
 20 22  1  0  0  0  0
 20  6  1  0  0  0  0
 21 26  2  0  0  0  0
 22  8  1  0  0  0  0
 23  2  1  0  0  0  0
 23 15  1  0  0  0  0
 24 26  1  0  0  0  0
 24  1  1  0  0  0  0
 25 11  2  0  0  0  0
 26 10  1  0  0  0  0
 27 28  1  0  0  0  0
 27  8  1  0  0  0  0
 29 30  1  0  0  0  0
M  END
>  <MODEL>
4

>  <REMARK>
 VINA RESULT:      -5.4      4.153      7.831
  Name = 
  2 active torsions:
  status: ('A' for Active; 'I' for Inactive)
    1  A    between atoms: C_1  and  O_16
    2  A    between atoms: C_8  and  C_13
                            x       y       z     vdW  Elec       q    Type
                         _______ _______ _______ _____ _____    ______ ____

>  <TORSDO>
F 2

$$$$
=
 OpenBabel10222417393D

 30 35  0  0  1  0  0  0  0  0999 V2000
  184.1030  179.3260  139.4770 C   0  0  2  0  0  3  0  0  0  0  0  0
  183.9230  173.9960  136.0680 C   0  0  1  0  0  0  0  0  0  0  0  0
  183.4290  170.4480  136.4680 C   0  0  0  0  0  1  0  0  0  0  0  0
  186.4420  177.7950  137.8640 C   0  0  0  0  0  0  0  0  0  0  0  0
  183.0270  178.9780  140.5090 C   0  0  0  0  0  3  0  0  0  0  0  0
  186.1600  174.9090  136.6020 C   0  0  1  0  0  3  0  0  0  0  0  0
  187.4460  172.9530  137.0400 O   0  0  0  0  0  1  0  0  0  0  0  0
  187.1700  176.0100  136.2740 C   0  0  1  0  0  0  0  0  0  0  0  0
  187.5090  176.7870  137.5440 C   0  0  0  0  0  2  0  0  0  0  0  0
  182.2380  177.9090  139.9310 N   0  0  0  0  0  0  0  0  0  0  0  0
  184.3290  172.7060  136.5780 N   0  0  0  0  0  0  0  0  0  0  0  0
  188.6750  174.9860  134.6210 O   0  0  0  0  0  1  0  0  0  0  0  0
  183.9240  175.0870  137.0010 C   0  0  2  0  0  3  0  0  0  0  0  0
  182.7550  175.9950  136.6910 C   0  0  1  0  0  3  0  0  0  0  0  0
  181.4570  174.9840  135.9040 S   0  0  0  0  0  0  0  0  0  0  0  0
  184.9050  175.0730  135.8790 N   0  0  2  0  0  0  0  0  0  0  0  0
  182.3780  172.5000  135.3620 N   0  0  0  0  0  2  0  0  0  0  0  0
  185.2100  177.3910  138.3910 O   0  0  0  0  0  0  0  0  0  0  0  0
  186.6550  179.0050  137.5960 O   0  0  0  0  0  0  0  0  0  0  0  0
  187.1090  173.8630  136.0380 C   0  0  2  0  0  3  0  0  0  0  0  0
  182.2300  176.5290  137.9840 C   0  0  0  0  0  3  0  0  0  0  0  0
  188.1970  174.9240  135.9310 C   0  0  2  0  0  3  0  0  0  0  0  0
  182.7220  173.9010  135.1860 C   0  0  2  0  0  3  0  0  0  0  0  0
  184.0560  178.2380  138.3770 C   0  0  1  0  0  3  0  0  0  0  0  0
  183.4070  171.9010  136.1600 C   0  0  0  0  0  0  0  0  0  0  0  0
  182.8220  177.4750  138.7210 C   0  0  0  0  0  0  0  0  0  0  0  0
  186.8280  176.9580  135.0930 C   0  0  0  0  0  2  0  0  0  0  0  0
  187.8570  177.8630  134.8190 O   0  0  0  0  0  1  0  0  0  0  0  0
  185.3540  179.4080  140.1000 O   0  0  0  0  0  0  0  0  0  0  0  0
  185.1280  179.0150  141.4180 C   0  0  0  0  0  1  0  0  0  0  0  0
  1 29  1  1  0  0  0
  1  5  1  0  0  0  0
  2 11  1  1  0  0  0
  2 13  1  0  0  0  0
  4 18  1  0  0  0  0
  8  6  1  0  0  0  0
  8  9  1  0  0  0  0
  9  4  1  0  0  0  0
 10  5  2  0  0  0  0
 12 22  1  0  0  0  0
 14 13  1  0  0  0  0
 14 21  1  0  0  0  0
 15 14  1  0  0  0  0
 16  2  1  0  0  0  0
 16  6  1  0  0  0  0
 16 13  1  0  0  0  0
 17 25  1  0  0  0  0
 19  4  2  0  0  0  0
 20  6  1  0  0  0  0
 20  7  1  0  0  0  0
 21 26  2  0  0  0  0
 22 20  1  0  0  0  0
 22  8  1  0  0  0  0
 23 17  1  0  0  0  0
 23 15  1  0  0  0  0
 23  2  1  0  0  0  0
 24 18  1  0  0  0  0
 24 26  1  0  0  0  0
 24  1  1  0  0  0  0
 25  3  1  0  0  0  0
 25 11  2  0  0  0  0
 26 10  1  0  0  0  0
 27  8  1  0  0  0  0
 28 27  1  0  0  0  0
 29 30  1  0  0  0  0
M  END
>  <MODEL>
5

>  <REMARK>
 VINA RESULT:      -5.3      4.240      7.950
  Name = 
  2 active torsions:
  status: ('A' for Active; 'I' for Inactive)
    1  A    between atoms: C_1  and  O_16
    2  A    between atoms: C_8  and  C_13
                            x       y       z     vdW  Elec       q    Type
                         _______ _______ _______ _____ _____    ______ ____

>  <TORSDO>
F 2

$$$$
=
 OpenBabel10222417393D

 30 35  0  0  1  0  0  0  0  0999 V2000
  181.8870  172.9590  136.8440 C   0  0  2  0  0  3  0  0  0  0  0  0
  186.0680  177.6990  137.1930 C   0  0  1  0  0  0  0  0  0  0  0  0
  189.0880  178.6280  138.9270 C   0  0  0  0  0  1  0  0  0  0  0  0
  181.5390  175.9800  137.9270 C   0  0  0  0  0  0  0  0  0  0  0  0
  182.8480  171.7860  137.0550 C   0  0  0  0  0  3  0  0  0  0  0  0
  183.9210  178.0080  138.3850 C   0  0  1  0  0  3  0  0  0  0  0  0
  184.5760  179.1190  140.3870 O   0  0  0  0  0  1  0  0  0  0  0  0
  182.4280  178.2970  138.2140 C   0  0  1  0  0  0  0  0  0  0  0  0
  181.6150  177.1680  138.8430 C   0  0  0  0  0  2  0  0  0  0  0  0
  184.1740  172.2860  136.7550 N   0  0  0  0  0  0  0  0  0  0  0  0
  186.7860  178.0450  138.3990 N   0  0  0  0  0  0  0  0  0  0  0  0
  182.2360  180.7270  138.5350 O   0  0  0  0  0  1  0  0  0  0  0  0
  185.2350  176.5310  137.2520 C   0  0  2  0  0  3  0  0  0  0  0  0
  185.3020  175.8160  135.9220 C   0  0  1  0  0  3  0  0  0  0  0  0
  186.9150  176.2020  135.1630 S   0  0  0  0  0  0  0  0  0  0  0  0
  184.6110  177.8770  137.1080 N   0  0  2  0  0  0  0  0  0  0  0  0
  188.2100  178.1030  136.5840 N   0  0  0  0  0  2  0  0  0  0  0  0
  182.6450  175.1400  137.7510 O   0  0  0  0  0  0  0  0  0  0  0  0
  180.4810  175.7850  137.2770 O   0  0  0  0  0  0  0  0  0  0  0  0
  184.1030  179.3410  139.0940 C   0  0  2  0  0  3  0  0  0  0  0  0
  185.2340  174.3470  136.1830 C   0  0  0  0  0  3  0  0  0  0  0  0
  182.5900  179.5160  139.1300 C   0  0  2  0  0  3  0  0  0  0  0  0
  186.9200  177.8230  135.9750 C   0  0  2  0  0  3  0  0  0  0  0  0
  182.7480  174.2310  136.6490 C   0  0  1  0  0  3  0  0  0  0  0  0
  187.9970  178.2470  137.9930 C   0  0  0  0  0  0  0  0  0  0  0  0
  184.1290  173.6800  136.5320 C   0  0  0  0  0  0  0  0  0  0  0  0
  181.9300  178.6380  136.7830 C   0  0  0  0  0  2  0  0  0  0  0  0
  180.5810  179.0020  136.7600 O   0  0  0  0  0  1  0  0  0  0  0  0
  181.0130  173.0630  137.9320 O   0  0  0  0  0  0  0  0  0  0  0  0
  179.9170  172.2690  137.5930 C   0  0  0  0  0  1  0  0  0  0  0  0
  1  5  1  0  0  0  0
  1 29  1  1  0  0  0
  2 13  1  0  0  0  0
  2 11  1  1  0  0  0
  4  9  1  0  0  0  0
  6 20  1  0  0  0  0
  8  6  1  0  0  0  0
  8  9  1  0  0  0  0
  8 22  1  0  0  0  0
 10  5  2  0  0  0  0
 12 22  1  0  0  0  0
 14 21  1  0  0  0  0
 14 13  1  0  0  0  0
 15 14  1  0  0  0  0
 15 23  1  0  0  0  0
 16  2  1  0  0  0  0
 16 13  1  0  0  0  0
 16  6  1  0  0  0  0
 17 25  1  0  0  0  0
 18  4  1  0  0  0  0
 19  4  2  0  0  0  0
 20 22  1  0  0  0  0
 20  7  1  0  0  0  0
 21 26  2  0  0  0  0
 23 17  1  0  0  0  0
 23  2  1  0  0  0  0
 24  1  1  0  0  0  0
 24 18  1  0  0  0  0
 25 11  2  0  0  0  0
 25  3  1  0  0  0  0
 26 24  1  0  0  0  0
 26 10  1  0  0  0  0
 27  8  1  0  0  0  0
 28 27  1  0  0  0  0
 30 29  1  0  0  0  0
M  END
>  <MODEL>
6

>  <REMARK>
 VINA RESULT:      -5.3      3.139      3.935
  Name = 
  2 active torsions:
  status: ('A' for Active; 'I' for Inactive)
    1  A    between atoms: C_1  and  O_16
    2  A    between atoms: C_8  and  C_13
                            x       y       z     vdW  Elec       q    Type
                         _______ _______ _______ _____ _____    ______ ____

>  <TORSDO>
F 2

$$$$
=
 OpenBabel10222417393D

 30 35  0  0  1  0  0  0  0  0999 V2000
  184.2530  179.0000  142.7970 C   0  0  2  0  0  3  0  0  0  0  0  0
  189.7760  177.3530  140.1800 C   0  0  1  0  0  0  0  0  0  0  0  0
  191.2250  174.7730  138.1230 C   0  0  0  0  0  1  0  0  0  0  0  0
  187.0160  178.0510  144.1680 C   0  0  0  0  0  0  0  0  0  0  0  0
  183.3160  178.5150  141.6870 C   0  0  0  0  0  3  0  0  0  0  0  0
  189.4900  176.8710  142.5910 C   0  0  1  0  0  3  0  0  0  0  0  0
  190.5550  174.7560  142.8440 O   0  0  0  0  0  1  0  0  0  0  0  0
  189.4440  177.4880  143.9910 C   0  0  1  0  0  0  0  0  0  0  0  0
  188.1120  177.1460  144.6550 C   0  0  0  0  0  2  0  0  0  0  0  0
  184.1280  178.3910  140.4930 N   0  0  0  0  0  0  0  0  0  0  0  0
  190.1770  175.9830  139.9550 N   0  0  0  0  0  0  0  0  0  0  0  0
  191.7320  177.2220  144.8510 O   0  0  0  0  0  1  0  0  0  0  0  0
  188.4480  177.5610  140.6860 C   0  0  2  0  0  3  0  0  0  0  0  0
  187.8770  178.8130  140.0590 C   0  0  1  0  0  3  0  0  0  0  0  0
  188.6820  179.0400  138.4380 S   0  0  0  0  0  0  0  0  0  0  0  0
  189.6240  177.8780  141.5450 N   0  0  2  0  0  0  0  0  0  0  0  0
  190.7050  177.2760  138.1180 N   0  0  0  0  0  2  0  0  0  0  0  0
  186.4670  177.8880  142.8910 O   0  0  0  0  0  0  0  0  0  0  0  0
  186.6390  178.9940  144.9080 O   0  0  0  0  0  0  0  0  0  0  0  0
  190.7670  176.1310  142.9540 C   0  0  2  0  0  3  0  0  0  0  0  0
  186.4150  178.5960  139.8440 C   0  0  0  0  0  3  0  0  0  0  0  0
  190.5890  176.5560  144.4050 C   0  0  2  0  0  3  0  0  0  0  0  0
  190.1900  178.2530  139.0640 C   0  0  2  0  0  3  0  0  0  0  0  0
  185.6980  178.9130  142.2510 C   0  0  1  0  0  3  0  0  0  0  0  0
  190.6830  175.9980  138.7650 C   0  0  0  0  0  0  0  0  0  0  0  0
  185.4880  178.6070  140.8070 C   0  0  0  0  0  0  0  0  0  0  0  0
  189.7770  178.9990  144.1120 C   0  0  0  0  0  2  0  0  0  0  0  0
  191.0390  179.3110  143.5990 O   0  0  0  0  0  1  0  0  0  0  0  0
  184.0650  178.2300  143.9510 O   0  0  0  0  0  0  0  0  0  0  0  0
  183.1530  178.9490  144.7230 C   0  0  0  0  0  1  0  0  0  0  0  0
  1 29  1  1  0  0  0
  2 11  1  6  0  0  0
  2 13  1  0  0  0  0
  2 16  1  0  0  0  0
  3 25  1  0  0  0  0
  4  9  1  0  0  0  0
  4 19  2  0  0  0  0
  5  1  1  0  0  0  0
  6 20  1  0  0  0  0
  6  8  1  0  0  0  0
  7 20  1  0  0  0  0
  8 27  1  0  0  0  0
  8 22  1  0  0  0  0
  8  9  1  0  0  0  0
 10 26  1  0  0  0  0
 10  5  2  0  0  0  0
 13 16  1  0  0  0  0
 14 13  1  0  0  0  0
 15 23  1  0  0  0  0
 15 14  1  0  0  0  0
 16  6  1  0  0  0  0
 17 25  1  0  0  0  0
 17 23  1  0  0  0  0
 18  4  1  0  0  0  0
 20 22  1  0  0  0  0
 21 14  1  0  0  0  0
 21 26  2  0  0  0  0
 22 12  1  0  0  0  0
 23  2  1  0  0  0  0
 24  1  1  0  0  0  0
 24 18  1  0  0  0  0
 25 11  2  0  0  0  0
 26 24  1  0  0  0  0
 28 27  1  0  0  0  0
 29 30  1  0  0  0  0
M  END
>  <MODEL>
7

>  <REMARK>
 VINA RESULT:      -5.3      4.759      7.993
  Name = 
  2 active torsions:
  status: ('A' for Active; 'I' for Inactive)
    1  A    between atoms: C_1  and  O_16
    2  A    between atoms: C_8  and  C_13
                            x       y       z     vdW  Elec       q    Type
                         _______ _______ _______ _____ _____    ______ ____

>  <TORSDO>
F 2

$$$$
=
 OpenBabel10222417393D

 30 35  0  0  1  0  0  0  0  0999 V2000
  187.7660  177.5880  137.1800 C   0  0  2  0  0  3  0  0  0  0  0  0
  181.8330  175.3920  137.3860 C   0  0  1  0  0  0  0  0  0  0  0  0
  178.9310  175.0060  135.2840 C   0  0  0  0  0  1  0  0  0  0  0  0
  185.1940  178.6620  138.8070 C   0  0  0  0  0  0  0  0  0  0  0  0
  188.1100  177.1930  135.7410 C   0  0  0  0  0  2  0  0  0  0  0  0
  182.2390  177.6210  138.3820 C   0  0  1  0  0  3  0  0  0  0  0  0
  180.2960  178.8480  137.7560 O   0  0  0  0  0  1  0  0  0  0  0  0
  182.8360  178.3640  139.5790 C   0  0  1  0  0  0  0  0  0  0  0  0
  183.8910  179.3540  139.0890 C   0  0  0  0  0  2  0  0  0  0  0  0
  187.1600  176.1670  135.3620 N   0  0  0  0  0  0  0  0  0  0  0  0
  180.7500  175.9400  136.6020 N   0  0  0  0  0  0  0  0  0  0  0  0
  180.9280  178.7320  141.0850 O   0  0  0  0  0  1  0  0  0  0  0  0
  183.1410  175.9340  137.1450 C   0  0  2  0  0  3  0  0  0  0  0  0
  184.1590  174.8220  137.2610 C   0  0  1  0  0  3  0  0  0  0  0  0
  183.3230  173.2560  136.8410 S   0  0  0  0  0  0  0  0  0  0  0  0
  182.4670  176.1830  138.4510 N   0  0  2  0  0  0  0  0  0  0  0  0
  180.6590  173.6350  136.5760 N   0  0  0  0  0  2  0  0  0  0  0  0
  185.3500  177.8680  137.6650 O   0  0  0  0  0  0  0  0  0  0  0  0
  186.1250  178.7630  139.6450 O   0  0  0  0  0  0  0  0  0  0  0  0
  180.8470  178.0830  138.7840 C   0  0  2  0  0  3  0  0  0  0  0  0
  185.2360  175.0760  136.2580 C   0  0  0  0  0  2  0  0  0  0  0  0
  181.4660  179.0060  139.8260 C   0  0  2  0  0  3  0  0  0  0  0  0
  181.7590  173.9050  137.4880 C   0  0  2  0  0  3  0  0  0  0  0  0
  186.4150  176.9200  137.5310 C   0  0  1  0  0  3  0  0  0  0  0  0
  180.1290  174.8970  136.1560 C   0  0  0  0  0  0  0  0  0  0  0  0
  186.1850  176.0110  136.3710 C   0  0  0  0  0  0  0  0  0  0  0  0
  183.3590  177.5030  140.7600 C   0  0  0  0  0  2  0  0  0  0  0  0
  183.8080  178.2810  141.8310 O   0  0  0  0  0  1  0  0  0  0  0  0
  187.7240  178.9820  137.2960 O   0  0  0  0  0  0  0  0  0  0  0  0
  189.0560  179.3760  137.4200 C   0  0  0  0  0  1  0  0  0  0  0  0
  1 29  1  6  0  0  0
  1 24  1  0  0  0  0
  2 11  1  6  0  0  0
  2 23  1  0  0  0  0
  2 16  1  0  0  0  0
  3 25  1  0  0  0  0
  4  9  1  0  0  0  0
  4 19  2  0  0  0  0
  5  1  1  0  0  0  0
  6 16  1  0  0  0  0
  6 20  1  0  0  0  0
  6  8  1  0  0  0  0
  7 20  1  0  0  0  0
  8 22  1  0  0  0  0
  8 27  1  0  0  0  0
  9  8  1  0  0  0  0
 10  5  1  0  0  0  0
 10 26  2  0  0  0  0
 13 14  1  0  0  0  0
 13  2  1  0  0  0  0
 13 16  1  0  0  0  0
 15 14  1  0  0  0  0
 15 23  1  0  0  0  0
 17 23  1  0  0  0  0
 18  4  1  0  0  0  0
 20 22  1  0  0  0  0
 21 26  1  0  0  0  0
 21 14  1  0  0  0  0
 22 12  1  0  0  0  0
 24 18  1  0  0  0  0
 25 17  1  0  0  0  0
 25 11  2  0  0  0  0
 26 24  1  0  0  0  0
 27 28  1  0  0  0  0
 29 30  1  0  0  0  0
M  END
>  <MODEL>
8

>  <REMARK>
 VINA RESULT:      -5.3      3.320      6.335
  Name = 
  2 active torsions:
  status: ('A' for Active; 'I' for Inactive)
    1  A    between atoms: C_1  and  O_16
    2  A    between atoms: C_8  and  C_13
                            x       y       z     vdW  Elec       q    Type
                         _______ _______ _______ _____ _____    ______ ____

>  <TORSDO>
F 2

$$$$
=
 OpenBabel10222417393D

 30 35  0  0  1  0  0  0  0  0999 V2000
  186.7580  176.6320  136.9480 C   0  0  2  0  0  3  0  0  0  0  0  0
  181.1460  178.1350  139.4610 C   0  0  1  0  0  0  0  0  0  0  0  0
  179.5680  178.6210  142.6650 C   0  0  0  0  0  1  0  0  0  0  0  0
  183.9670  175.0110  136.9530 C   0  0  0  0  0  0  0  0  0  0  0  0
  187.6640  177.3280  137.9680 C   0  0  0  0  0  2  0  0  0  0  0  0
  181.4310  175.8100  138.6640 C   0  0  1  0  0  3  0  0  0  0  0  0
  180.2760  174.5350  140.3110 O   0  0  0  0  0  1  0  0  0  0  0  0
  181.5160  174.9150  137.4260 C   0  0  1  0  0  0  0  0  0  0  0  0
  182.8370  174.1490  137.4390 C   0  0  0  0  0  2  0  0  0  0  0  0
  186.8370  178.3070  138.6460 N   0  0  0  0  0  0  0  0  0  0  0  0
  180.6830  177.6400  140.7370 N   0  0  0  0  0  0  0  0  0  0  0  0
  179.2250  174.0740  137.1220 O   0  0  0  0  0  1  0  0  0  0  0  0
  182.4860  177.7850  139.0820 C   0  0  2  0  0  3  0  0  0  0  0  0
  183.1060  178.9510  138.3460 C   0  0  1  0  0  3  0  0  0  0  0  0
  182.2990  180.4760  138.9390 S   0  0  0  0  0  0  0  0  0  0  0  0
  181.3330  177.2230  138.3230 N   0  0  2  0  0  0  0  0  0  0  0  0
  180.1970  179.8870  140.5340 N   0  0  0  0  0  2  0  0  0  0  0  0
  184.4980  176.0210  137.7640 O   0  0  0  0  0  0  0  0  0  0  0  0
  184.3920  174.8460  135.7810 O   0  0  0  0  0  0  0  0  0  0  0  0
  180.1250  175.1400  139.0640 C   0  0  2  0  0  3  0  0  0  0  0  0
  184.5560  179.0050  138.7030 C   0  0  0  0  0  2  0  0  0  0  0  0
  180.3340  174.1030  137.9690 C   0  0  2  0  0  3  0  0  0  0  0  0
  180.7630  179.5600  139.2360 C   0  0  2  0  0  3  0  0  0  0  0  0
  185.3060  177.0800  137.2390 C   0  0  1  0  0  3  0  0  0  0  0  0
  180.1690  178.6810  141.3070 C   0  0  0  0  0  0  0  0  0  0  0  0
  185.4900  178.1660  138.2440 C   0  0  0  0  0  0  0  0  0  0  0  0
  181.2500  175.5820  136.0490 C   0  0  0  0  0  2  0  0  0  0  0  0
  181.2380  174.6580  135.0010 O   0  0  0  0  0  1  0  0  0  0  0  0
  186.9210  175.2450  137.0330 O   0  0  0  0  0  0  0  0  0  0  0  0
  188.2850  175.0270  136.8430 C   0  0  0  0  0  1  0  0  0  0  0  0
  1 29  1  1  0  0  0
  1 24  1  0  0  0  0
  1  5  1  0  0  0  0
  2 11  1  1  0  0  0
  4  9  1  0  0  0  0
  4 18  1  0  0  0  0
  5 10  1  0  0  0  0
  6 20  1  0  0  0  0
  8  9  1  0  0  0  0
  8 22  1  0  0  0  0
  8  6  1  0  0  0  0
 11 25  2  0  0  0  0
 12 22  1  0  0  0  0
 13  2  1  0  0  0  0
 14 21  1  0  0  0  0
 14 15  1  0  0  0  0
 14 13  1  0  0  0  0
 15 23  1  0  0  0  0
 16  6  1  0  0  0  0
 16 13  1  0  0  0  0
 16  2  1  0  0  0  0
 17 25  1  0  0  0  0
 19  4  2  0  0  0  0
 20  7  1  0  0  0  0
 22 20  1  0  0  0  0
 23  2  1  0  0  0  0
 23 17  1  0  0  0  0
 24 18  1  0  0  0  0
 24 26  1  0  0  0  0
 25  3  1  0  0  0  0
 26 10  2  0  0  0  0
 26 21  1  0  0  0  0
 27  8  1  0  0  0  0
 28 27  1  0  0  0  0
 30 29  1  0  0  0  0
M  END
>  <MODEL>
9

>  <REMARK>
 VINA RESULT:      -5.0      3.094      5.750
  Name = 
  2 active torsions:
  status: ('A' for Active; 'I' for Inactive)
    1  A    between atoms: C_1  and  O_16
    2  A    between atoms: C_8  and  C_13
                            x       y       z     vdW  Elec       q    Type
                         _______ _______ _______ _____ _____    ______ ____

>  <TORSDO>
F 2

$$$$
