=
 OpenBabel10222420063D

 27 29  0  0  1  0  0  0  0  0999 V2000
  186.8040  178.1560  141.9680 N   0  0  0  0  0  0  0  0  0  0  0  0
  188.0850  177.9170  141.9380 C   0  0  0  0  0  0  0  0  0  0  0  0
  191.1330  177.2440  144.8830 C   0  0  0  0  0  0  0  0  0  0  0  0
  190.0510  178.8410  143.2510 C   0  0  0  0  0  2  0  0  0  0  0  0
  190.2160  176.3430  144.6750 N   0  0  0  0  0  0  0  0  0  0  0  0
  189.3920  176.3630  143.4660 C   0  0  0  0  0  2  0  0  0  0  0  0
  191.3640  178.3280  143.8650 C   0  0  0  0  0  2  0  0  0  0  0  0
  188.9310  177.7940  143.1760 C   0  0  2  0  0  3  0  0  0  0  0  0
  191.9600  177.1880  146.0510 N   0  0  0  0  0  2  0  0  0  0  0  0
  191.7980  175.2970  147.7720 N   0  0  0  0  0  0  0  0  0  0  0  0
  191.8690  176.1530  146.9940 C   0  0  0  0  0  0  0  0  0  0  0  0
  189.9380  176.7540  140.1830 S   0  0  0  0  0  0  0  0  0  0  0  0
  190.0740  177.3670  138.6270 C   0  0  0  0  0  0  0  0  0  0  0  0
  188.7660  177.8750  140.6330 C   0  0  0  0  0  0  0  0  0  0  0  0
  189.2000  178.4370  138.4950 C   0  0  0  0  0  3  0  0  0  0  0  0
  188.4740  178.7070  139.6120 N   0  0  0  0  0  0  0  0  0  0  0  0
  190.5290  176.6370  136.4180 O   0  0  0  0  0  0  0  0  0  0  0  0
  190.9670  176.8530  137.5810 C   0  0  0  0  0  0  0  0  0  0  0  0
  192.3080  176.6250  137.8640 O   0  0  0  0  0  1  0  0  0  0  0  0
  185.9580  178.2270  143.1220 C   0  0  0  0  0  0  0  0  0  0  0  0
  186.4480  178.0940  144.2770 O   0  0  0  0  0  0  0  0  0  0  0  0
  184.5050  178.4270  142.9600 C   0  0  0  0  0  0  0  0  0  0  0  0
  182.5440  178.6080  141.5590 C   0  0  0  0  0  3  0  0  0  0  0  0
  181.7930  178.9160  142.6540 N   0  0  0  0  0  0  0  0  0  0  0  0
  182.3410  178.9830  143.8970 C   0  0  0  0  0  3  0  0  0  0  0  0
  183.7040  178.7410  144.0710 C   0  0  0  0  0  3  0  0  0  0  0  0
  183.9160  178.3630  141.6900 C   0  0  0  0  0  3  0  0  0  0  0  0
  1 20  1  0  0  0  0
  2  1  2  0  0  0  0
  3  9  1  0  0  0  0
  4  7  1  0  0  0  0
  5  3  2  0  0  0  0
  6  5  1  0  0  0  0
  7  3  1  0  0  0  0
  8  2  1  6  0  0  0
  8  4  1  0  0  0  0
  8  6  1  0  0  0  0
  9 11  1  0  0  0  0
 11 10  3  0  0  0  0
 12 14  1  0  0  0  0
 13 12  1  0  0  0  0
 14  2  1  0  0  0  0
 15 13  2  0  0  0  0
 15 16  1  0  0  0  0
 16 14  2  0  0  0  0
 17 18  2  0  0  0  0
 18 19  1  0  0  0  0
 18 13  1  0  0  0  0
 20 21  2  0  0  0  0
 22 20  1  0  0  0  0
 22 26  1  0  0  0  0
 23 27  1  0  0  0  0
 23 24  2  0  0  0  0
 24 25  1  0  0  0  0
 25 26  2  0  0  0  0
 27 22  2  0  0  0  0
M  END
>  <MODEL>
1

>  <REMARK>
 VINA RESULT:      -7.7      0.000      0.000
  Name = 
  6 active torsions:
  status: ('A' for Active; 'I' for Inactive)
    1  A    between atoms: C_1  and  C_8
    2  A    between atoms: N_6  and  C_8
    3  A    between atoms: C_9  and  N_25
    4  A    between atoms: C_10  and  C_11
    5  A    between atoms: C_15  and  C_16
    6  A    between atoms: C_15  and  C_24
                            x       y       z     vdW  Elec       q    Type
                         _______ _______ _______ _____ _____    ______ ____

>  <TORSDO>
F 6

$$$$
=
 OpenBabel10222420063D

 27 29  0  0  1  0  0  0  0  0999 V2000
  188.8400  178.4590  143.3310 N   0  0  0  0  0  0  0  0  0  0  0  0
  188.4460  178.2320  142.1100 C   0  0  0  0  0  0  0  0  0  0  0  0
  190.4770  176.7820  138.6190 C   0  0  0  0  0  0  0  0  0  0  0  0
  188.9360  178.5080  139.6350 C   0  0  0  0  0  2  0  0  0  0  0  0
  190.7200  176.2510  139.7830 N   0  0  0  0  0  0  0  0  0  0  0  0
  189.8160  176.4560  140.9150 C   0  0  0  0  0  2  0  0  0  0  0  0
  189.2410  177.6180  138.4190 C   0  0  0  0  0  2  0  0  0  0  0  0
  189.3920  177.9250  140.9800 C   0  0  2  0  0  3  0  0  0  0  0  0
  191.3490  176.5390  137.5080 N   0  0  0  0  0  2  0  0  0  0  0  0
  193.3870  174.9940  137.6670 N   0  0  0  0  0  0  0  0  0  0  0  0
  192.4640  175.6920  137.5930 C   0  0  0  0  0  0  0  0  0  0  0  0
  185.7460  178.1770  142.8690 S   0  0  0  0  0  0  0  0  0  0  0  0
  184.5800  178.6110  141.7440 C   0  0  0  0  0  0  0  0  0  0  0  0
  187.0180  178.3890  141.7870 C   0  0  0  0  0  0  0  0  0  0  0  0
  185.2120  178.9100  140.5450 C   0  0  0  0  0  3  0  0  0  0  0  0
  186.5660  178.7900  140.5810 N   0  0  0  0  0  0  0  0  0  0  0  0
  182.3190  178.5000  141.0410 O   0  0  0  0  0  0  0  0  0  0  0  0
  183.1340  178.6670  141.9890 C   0  0  0  0  0  0  0  0  0  0  0  0
  182.6550  178.8790  143.2760 O   0  0  0  0  0  1  0  0  0  0  0  0
  190.1710  178.3520  143.8510 C   0  0  0  0  0  0  0  0  0  0  0  0
  191.1360  178.8920  143.2430 O   0  0  0  0  0  0  0  0  0  0  0  0
  190.4210  177.5840  145.0860 C   0  0  0  0  0  0  0  0  0  0  0  0
  189.7690  176.8910  147.3080 C   0  0  0  0  0  3  0  0  0  0  0  0
  190.9520  176.2290  147.4460 N   0  0  0  0  0  0  0  0  0  0  0  0
  191.8780  176.2090  146.4500 C   0  0  0  0  0  3  0  0  0  0  0  0
  191.6290  176.8860  145.2540 C   0  0  0  0  0  3  0  0  0  0  0  0
  189.4830  177.5860  146.1270 C   0  0  0  0  0  3  0  0  0  0  0  0
  1 20  1  0  0  0  0
  2  1  2  0  0  0  0
  3  5  2  0  0  0  0
  4  8  1  0  0  0  0
  5  6  1  0  0  0  0
  6  8  1  0  0  0  0
  7  3  1  0  0  0  0
  7  4  1  0  0  0  0
  8  2  1  1  0  0  0
  9 11  1  0  0  0  0
  9  3  1  0  0  0  0
 11 10  3  0  0  0  0
 13 18  1  0  0  0  0
 13 12  1  0  0  0  0
 14  2  1  0  0  0  0
 14 12  1  0  0  0  0
 15 16  1  0  0  0  0
 15 13  2  0  0  0  0
 16 14  2  0  0  0  0
 17 18  2  0  0  0  0
 18 19  1  0  0  0  0
 20 22  1  0  0  0  0
 21 20  2  0  0  0  0
 22 26  2  0  0  0  0
 22 27  1  0  0  0  0
 23 24  1  0  0  0  0
 25 24  2  0  0  0  0
 26 25  1  0  0  0  0
 27 23  2  0  0  0  0
M  END
>  <MODEL>
2

>  <REMARK>
 VINA RESULT:      -7.0      2.756      6.963
  Name = 
  6 active torsions:
  status: ('A' for Active; 'I' for Inactive)
    1  A    between atoms: C_1  and  C_8
    2  A    between atoms: N_6  and  C_8
    3  A    between atoms: C_9  and  N_25
    4  A    between atoms: C_10  and  C_11
    5  A    between atoms: C_15  and  C_16
    6  A    between atoms: C_15  and  C_24
                            x       y       z     vdW  Elec       q    Type
                         _______ _______ _______ _____ _____    ______ ____

>  <TORSDO>
F 6

$$$$
=
 OpenBabel10222420063D

 27 29  0  0  1  0  0  0  0  0999 V2000
  189.0290  177.9970  139.7670 N   0  0  0  0  0  0  0  0  0  0  0  0
  190.1500  177.3660  139.9760 C   0  0  0  0  0  0  0  0  0  0  0  0
  193.0730  175.5310  137.4240 C   0  0  0  0  0  0  0  0  0  0  0  0
  190.6690  175.6300  138.1970 C   0  0  0  0  0  2  0  0  0  0  0  0
  193.3860  176.5840  138.1240 N   0  0  0  0  0  0  0  0  0  0  0  0
  192.5620  177.0190  139.2510 C   0  0  0  0  0  2  0  0  0  0  0  0
  191.8450  174.7340  137.7770 C   0  0  0  0  0  2  0  0  0  0  0  0
  191.0810  176.9470  138.8690 C   0  0  2  0  0  3  0  0  0  0  0  0
  193.9110  175.0910  136.3490 N   0  0  0  0  0  2  0  0  0  0  0  0
  196.1180  176.2520  135.7600 N   0  0  0  0  0  0  0  0  0  0  0  0
  195.1200  175.7250  136.0250 C   0  0  0  0  0  0  0  0  0  0  0  0
  191.2560  177.8820  142.5010 S   0  0  0  0  0  0  0  0  0  0  0  0
  191.1360  176.7070  143.6920 C   0  0  0  0  0  0  0  0  0  0  0  0
  190.4760  176.9380  141.3460 C   0  0  0  0  0  0  0  0  0  0  0  0
  190.4910  175.6000  143.1590 C   0  0  0  0  0  3  0  0  0  0  0  0
  190.1230  175.7410  141.8570 N   0  0  0  0  0  0  0  0  0  0  0  0
  191.6820  177.9620  145.6280 O   0  0  0  0  0  0  0  0  0  0  0  0
  191.6310  176.8320  145.0680 C   0  0  0  0  0  0  0  0  0  0  0  0
  192.0240  175.7000  145.7710 O   0  0  0  0  0  1  0  0  0  0  0  0
  188.5340  178.5060  138.5220 C   0  0  0  0  0  0  0  0  0  0  0  0
  189.0500  179.5360  138.0070 O   0  0  0  0  0  0  0  0  0  0  0  0
  187.3990  177.8420  137.8530 C   0  0  0  0  0  0  0  0  0  0  0  0
  185.0230  177.4860  137.5860 C   0  0  0  0  0  3  0  0  0  0  0  0
  185.2760  176.5060  136.6720 N   0  0  0  0  0  0  0  0  0  0  0  0
  186.5460  176.1720  136.3180 C   0  0  0  0  0  3  0  0  0  0  0  0
  187.6280  176.8320  136.9030 C   0  0  0  0  0  3  0  0  0  0  0  0
  186.0810  178.1680  138.1980 C   0  0  0  0  0  3  0  0  0  0  0  0
  1  2  2  0  0  0  0
  2 14  1  0  0  0  0
  3  7  1  0  0  0  0
  3  5  2  0  0  0  0
  4  8  1  0  0  0  0
  5  6  1  0  0  0  0
  7  4  1  0  0  0  0
  8  6  1  0  0  0  0
  8  2  1  1  0  0  0
  9  3  1  0  0  0  0
 10 11  3  0  0  0  0
 11  9  1  0  0  0  0
 12 13  1  0  0  0  0
 13 18  1  0  0  0  0
 14 16  2  0  0  0  0
 14 12  1  0  0  0  0
 15 13  2  0  0  0  0
 16 15  1  0  0  0  0
 18 17  2  0  0  0  0
 18 19  1  0  0  0  0
 20  1  1  0  0  0  0
 21 20  2  0  0  0  0
 22 27  1  0  0  0  0
 22 20  1  0  0  0  0
 23 27  2  0  0  0  0
 24 23  1  0  0  0  0
 25 24  2  0  0  0  0
 25 26  1  0  0  0  0
 26 22  2  0  0  0  0
M  END
>  <MODEL>
3

>  <REMARK>
 VINA RESULT:      -7.0      3.922      7.001
  Name = 
  6 active torsions:
  status: ('A' for Active; 'I' for Inactive)
    1  A    between atoms: C_1  and  C_8
    2  A    between atoms: N_6  and  C_8
    3  A    between atoms: C_9  and  N_25
    4  A    between atoms: C_10  and  C_11
    5  A    between atoms: C_15  and  C_16
    6  A    between atoms: C_15  and  C_24
                            x       y       z     vdW  Elec       q    Type
                         _______ _______ _______ _____ _____    ______ ____

>  <TORSDO>
F 6

$$$$
=
 OpenBabel10222420063D

 27 29  0  0  1  0  0  0  0  0999 V2000
  186.5930  178.6600  140.4290 N   0  0  0  0  0  0  0  0  0  0  0  0
  187.7500  178.2640  140.8810 C   0  0  0  0  0  0  0  0  0  0  0  0
  189.2710  177.5720  144.8340 C   0  0  0  0  0  0  0  0  0  0  0  0
  189.5840  178.6820  142.5860 C   0  0  0  0  0  2  0  0  0  0  0  0
  188.0790  177.1570  144.5110 N   0  0  0  0  0  0  0  0  0  0  0  0
  187.6660  177.0490  143.1120 C   0  0  0  0  0  2  0  0  0  0  0  0
  190.2540  177.9430  143.7550 C   0  0  0  0  0  2  0  0  0  0  0  0
  188.1200  178.2910  142.3400 C   0  0  2  0  0  3  0  0  0  0  0  0
  189.6770  177.6330  146.2060 N   0  0  0  0  0  2  0  0  0  0  0  0
  188.1660  176.8640  148.1280 N   0  0  0  0  0  0  0  0  0  0  0  0
  188.8510  177.2100  147.2590 C   0  0  0  0  0  0  0  0  0  0  0  0
  189.9360  176.6670  140.1530 S   0  0  0  0  0  0  0  0  0  0  0  0
  190.5970  176.8490  138.6210 C   0  0  0  0  0  0  0  0  0  0  0  0
  188.7900  177.8760  139.9150 C   0  0  0  0  0  0  0  0  0  0  0  0
  189.9080  177.8540  137.9580 C   0  0  0  0  0  3  0  0  0  0  0  0
  188.9020  178.4140  138.6830 N   0  0  0  0  0  0  0  0  0  0  0  0
  192.7610  176.6540  137.6740 O   0  0  0  0  0  0  0  0  0  0  0  0
  191.7170  176.0710  138.0760 C   0  0  0  0  0  0  0  0  0  0  0  0
  191.6400  174.6850  138.0230 O   0  0  0  0  0  1  0  0  0  0  0  0
  185.4520  179.0660  141.1950 C   0  0  0  0  0  0  0  0  0  0  0  0
  185.5950  179.8140  142.2010 O   0  0  0  0  0  0  0  0  0  0  0  0
  184.1070  178.5860  140.8240 C   0  0  0  0  0  0  0  0  0  0  0  0
  182.5710  177.6550  139.2070 C   0  0  0  0  0  3  0  0  0  0  0  0
  181.5500  177.7920  140.1010 N   0  0  0  0  0  0  0  0  0  0  0  0
  181.7570  178.3030  141.3440 C   0  0  0  0  0  3  0  0  0  0  0  0
  183.0370  178.7090  141.7270 C   0  0  0  0  0  3  0  0  0  0  0  0
  183.8670  178.0550  139.5500 C   0  0  0  0  0  3  0  0  0  0  0  0
  1  2  2  0  0  0  0
  1 20  1  0  0  0  0
  3  9  1  0  0  0  0
  4  7  1  0  0  0  0
  5  3  2  0  0  0  0
  6  5  1  0  0  0  0
  7  3  1  0  0  0  0
  8  2  1  6  0  0  0
  8  4  1  0  0  0  0
  8  6  1  0  0  0  0
  9 11  1  0  0  0  0
 11 10  3  0  0  0  0
 13 12  1  0  0  0  0
 14 12  1  0  0  0  0
 14  2  1  0  0  0  0
 15 13  2  0  0  0  0
 15 16  1  0  0  0  0
 16 14  2  0  0  0  0
 17 18  2  0  0  0  0
 18 13  1  0  0  0  0
 19 18  1  0  0  0  0
 20 21  2  0  0  0  0
 22 20  1  0  0  0  0
 22 26  1  0  0  0  0
 23 27  1  0  0  0  0
 23 24  2  0  0  0  0
 24 25  1  0  0  0  0
 25 26  2  0  0  0  0
 27 22  2  0  0  0  0
M  END
>  <MODEL>
4

>  <REMARK>
 VINA RESULT:      -6.9      1.851      2.080
  Name = 
  6 active torsions:
  status: ('A' for Active; 'I' for Inactive)
    1  A    between atoms: C_1  and  C_8
    2  A    between atoms: N_6  and  C_8
    3  A    between atoms: C_9  and  N_25
    4  A    between atoms: C_10  and  C_11
    5  A    between atoms: C_15  and  C_16
    6  A    between atoms: C_15  and  C_24
                            x       y       z     vdW  Elec       q    Type
                         _______ _______ _______ _____ _____    ______ ____

>  <TORSDO>
F 6

$$$$
=
 OpenBabel10222420063D

 27 29  0  0  1  0  0  0  0  0999 V2000
  188.2660  178.4810  144.5610 N   0  0  0  0  0  0  0  0  0  0  0  0
  187.4750  178.1070  143.5950 C   0  0  0  0  0  0  0  0  0  0  0  0
  189.6740  176.9390  140.0990 C   0  0  0  0  0  0  0  0  0  0  0  0
  188.9810  176.4010  142.4690 C   0  0  0  0  0  2  0  0  0  0  0  0
  188.8900  177.9780  140.0600 N   0  0  0  0  0  0  0  0  0  0  0  0
  188.4120  178.6150  141.2870 C   0  0  0  0  0  2  0  0  0  0  0  0
  190.1100  176.3780  141.4270 C   0  0  0  0  0  2  0  0  0  0  0  0
  187.9730  177.5450  142.2900 C   0  0  2  0  0  3  0  0  0  0  0  0
  190.1690  176.3500  138.8910 N   0  0  0  0  0  2  0  0  0  0  0  0
  189.6470  177.3120  136.5740 N   0  0  0  0  0  0  0  0  0  0  0  0
  189.8850  176.8770  137.6210 C   0  0  0  0  0  0  0  0  0  0  0  0
  184.9290  178.4230  142.4620 S   0  0  0  0  0  0  0  0  0  0  0  0
  183.6100  178.6250  143.4790 C   0  0  0  0  0  0  0  0  0  0  0  0
  186.0290  178.3460  143.7330 C   0  0  0  0  0  0  0  0  0  0  0  0
  184.0600  178.6310  144.7910 C   0  0  0  0  0  3  0  0  0  0  0  0
  185.4040  178.4690  144.9220 N   0  0  0  0  0  0  0  0  0  0  0  0
  181.9400  179.0030  141.8390 O   0  0  0  0  0  0  0  0  0  0  0  0
  182.2140  178.7700  143.0490 C   0  0  0  0  0  0  0  0  0  0  0  0
  181.1850  178.6280  143.9710 O   0  0  0  0  0  1  0  0  0  0  0  0
  189.6900  178.3300  144.6280 C   0  0  0  0  0  0  0  0  0  0  0  0
  190.4360  179.0060  143.8670 O   0  0  0  0  0  0  0  0  0  0  0  0
  190.2850  177.3630  145.5700 C   0  0  0  0  0  0  0  0  0  0  0  0
  190.3220  176.2620  147.7210 C   0  0  0  0  0  3  0  0  0  0  0  0
  191.4770  175.6270  147.3740 N   0  0  0  0  0  0  0  0  0  0  0  0
  192.0570  175.8180  146.1580 C   0  0  0  0  0  3  0  0  0  0  0  0
  191.4720  176.6890  145.2370 C   0  0  0  0  0  3  0  0  0  0  0  0
  189.7080  177.1470  146.8280 C   0  0  0  0  0  3  0  0  0  0  0  0
  1 20  1  0  0  0  0
  2 14  1  0  0  0  0
  2  1  2  0  0  0  0
  3  7  1  0  0  0  0
  5  3  2  0  0  0  0
  5  6  1  0  0  0  0
  6  8  1  0  0  0  0
  7  4  1  0  0  0  0
  8  4  1  0  0  0  0
  8  2  1  1  0  0  0
  9  3  1  0  0  0  0
 10 11  3  0  0  0  0
 11  9  1  0  0  0  0
 12 13  1  0  0  0  0
 12 14  1  0  0  0  0
 13 15  2  0  0  0  0
 14 16  2  0  0  0  0
 15 16  1  0  0  0  0
 17 18  2  0  0  0  0
 18 13  1  0  0  0  0
 18 19  1  0  0  0  0
 20 22  1  0  0  0  0
 21 20  2  0  0  0  0
 22 27  1  0  0  0  0
 24 23  1  0  0  0  0
 25 24  2  0  0  0  0
 26 22  2  0  0  0  0
 26 25  1  0  0  0  0
 27 23  2  0  0  0  0
M  END
>  <MODEL>
5

>  <REMARK>
 VINA RESULT:      -6.8      2.872      7.511
  Name = 
  6 active torsions:
  status: ('A' for Active; 'I' for Inactive)
    1  A    between atoms: C_1  and  C_8
    2  A    between atoms: N_6  and  C_8
    3  A    between atoms: C_9  and  N_25
    4  A    between atoms: C_10  and  C_11
    5  A    between atoms: C_15  and  C_16
    6  A    between atoms: C_15  and  C_24
                            x       y       z     vdW  Elec       q    Type
                         _______ _______ _______ _____ _____    ______ ____

>  <TORSDO>
F 6

$$$$
=
 OpenBabel10222420063D

 27 29  0  0  1  0  0  0  0  0999 V2000
  189.6470  177.7370  140.2110 N   0  0  0  0  0  0  0  0  0  0  0  0
  188.8750  177.8320  141.2560 C   0  0  0  0  0  0  0  0  0  0  0  0
  189.4730  177.0730  145.4380 C   0  0  0  0  0  0  0  0  0  0  0  0
  188.0940  176.6500  143.3630 C   0  0  0  0  0  2  0  0  0  0  0  0
  190.3630  177.7420  144.7620 N   0  0  0  0  0  0  0  0  0  0  0  0
  190.0460  178.3240  143.4580 C   0  0  0  0  0  2  0  0  0  0  0  0
  188.0850  176.8950  144.8800 C   0  0  0  0  0  2  0  0  0  0  0  0
  189.2590  177.3160  142.6170 C   0  0  2  0  0  3  0  0  0  0  0  0
  189.7830  176.5440  146.7320 N   0  0  0  0  0  2  0  0  0  0  0  0
  192.0460  176.9250  147.8720 N   0  0  0  0  0  0  0  0  0  0  0  0
  191.0220  176.7540  147.3580 C   0  0  0  0  0  0  0  0  0  0  0  0
  186.5930  178.2530  139.6810 S   0  0  0  0  0  0  0  0  0  0  0  0
  185.2610  179.0050  140.3710 C   0  0  0  0  0  0  0  0  0  0  0  0
  187.5150  178.3700  141.0840 C   0  0  0  0  0  0  0  0  0  0  0  0
  185.5690  179.3340  141.6840 C   0  0  0  0  0  3  0  0  0  0  0  0
  186.8210  178.9710  142.0720 N   0  0  0  0  0  0  0  0  0  0  0  0
  183.0780  178.3920  139.6810 O   0  0  0  0  0  1  0  0  0  0  0  0
  183.9840  179.2700  139.6960 C   0  0  0  0  0  0  0  0  0  0  0  0
  183.7600  180.5000  139.0910 O   0  0  0  0  0  0  0  0  0  0  0  0
  190.9970  177.2570  140.1650 C   0  0  0  0  0  0  0  0  0  0  0  0
  191.7800  177.4740  141.1300 O   0  0  0  0  0  0  0  0  0  0  0  0
  191.4820  176.5330  138.9750 C   0  0  0  0  0  0  0  0  0  0  0  0
  191.1520  174.9140  137.2110 C   0  0  0  0  0  3  0  0  0  0  0  0
  192.4420  175.0920  136.8090 N   0  0  0  0  0  0  0  0  0  0  0  0
  193.2700  175.9670  137.4410 C   0  0  0  0  0  3  0  0  0  0  0  0
  192.8060  176.7000  138.5340 C   0  0  0  0  0  3  0  0  0  0  0  0
  190.6490  175.6270  138.3050 C   0  0  0  0  0  3  0  0  0  0  0  0
  1  2  2  0  0  0  0
  3  9  1  0  0  0  0
  4  7  1  0  0  0  0
  5  3  2  0  0  0  0
  6  5  1  0  0  0  0
  7  3  1  0  0  0  0
  8  2  1  6  0  0  0
  8  4  1  0  0  0  0
  8  6  1  0  0  0  0
  9 11  1  0  0  0  0
 11 10  3  0  0  0  0
 12 13  1  0  0  0  0
 12 14  1  0  0  0  0
 13 15  2  0  0  0  0
 14  2  1  0  0  0  0
 14 16  2  0  0  0  0
 15 16  1  0  0  0  0
 17 18  1  0  0  0  0
 18 13  1  0  0  0  0
 19 18  2  0  0  0  0
 20  1  1  0  0  0  0
 20 21  2  0  0  0  0
 22 20  1  0  0  0  0
 23 27  1  0  0  0  0
 24 23  2  0  0  0  0
 24 25  1  0  0  0  0
 25 26  2  0  0  0  0
 26 22  1  0  0  0  0
 27 22  2  0  0  0  0
M  END
>  <MODEL>
6

>  <REMARK>
 VINA RESULT:      -6.8      2.680      6.420
  Name = 
  6 active torsions:
  status: ('A' for Active; 'I' for Inactive)
    1  A    between atoms: C_1  and  C_8
    2  A    between atoms: N_6  and  C_8
    3  A    between atoms: C_9  and  N_25
    4  A    between atoms: C_10  and  C_11
    5  A    between atoms: C_15  and  C_16
    6  A    between atoms: C_15  and  C_24
                            x       y       z     vdW  Elec       q    Type
                         _______ _______ _______ _____ _____    ______ ____

>  <TORSDO>
F 6

$$$$
=
 OpenBabel10222420063D

 27 29  0  0  1  0  0  0  0  0999 V2000
  185.6290  178.6570  143.3570 N   0  0  0  0  0  0  0  0  0  0  0  0
  186.7910  178.0860  143.5020 C   0  0  0  0  0  0  0  0  0  0  0  0
  189.7370  176.8270  140.6460 C   0  0  0  0  0  0  0  0  0  0  0  0
  188.4640  176.3220  142.7690 C   0  0  0  0  0  2  0  0  0  0  0  0
  189.0250  177.8940  140.4220 N   0  0  0  0  0  0  0  0  0  0  0  0
  188.2840  178.5520  141.4980 C   0  0  0  0  0  2  0  0  0  0  0  0
  189.8130  176.2540  142.0370 C   0  0  0  0  0  2  0  0  0  0  0  0
  187.5730  177.5020  142.3560 C   0  0  2  0  0  3  0  0  0  0  0  0
  190.4920  176.2170  139.5920 N   0  0  0  0  0  2  0  0  0  0  0  0
  190.5930  177.1940  137.2250 N   0  0  0  0  0  0  0  0  0  0  0  0
  190.5490  176.7510  138.2960 C   0  0  0  0  0  0  0  0  0  0  0  0
  188.9480  177.9760  145.2910 S   0  0  0  0  0  0  0  0  0  0  0  0
  188.6340  177.7460  146.9230 C   0  0  0  0  0  0  0  0  0  0  0  0
  187.3220  177.8990  144.8620 C   0  0  0  0  0  0  0  0  0  0  0  0
  187.2640  177.6100  147.0960 C   0  0  0  0  0  3  0  0  0  0  0  0
  186.5440  177.7030  145.9460 N   0  0  0  0  0  0  0  0  0  0  0  0
  189.4300  178.2660  149.0950 O   0  0  0  0  0  1  0  0  0  0  0  0
  189.6430  177.6980  147.9890 C   0  0  0  0  0  0  0  0  0  0  0  0
  190.8300  177.0030  147.7910 O   0  0  0  0  0  0  0  0  0  0  0  0
  184.9450  178.9420  142.1300 C   0  0  0  0  0  0  0  0  0  0  0  0
  185.5720  179.4380  141.1540 O   0  0  0  0  0  0  0  0  0  0  0  0
  183.4970  178.6830  142.0160 C   0  0  0  0  0  0  0  0  0  0  0  0
  181.5720  177.9990  140.7230 C   0  0  0  0  0  3  0  0  0  0  0  0
  180.7600  178.3080  141.7730 N   0  0  0  0  0  0  0  0  0  0  0  0
  181.2610  178.7890  142.9430 C   0  0  0  0  0  3  0  0  0  0  0  0
  182.6350  178.9860  143.0840 C   0  0  0  0  0  3  0  0  0  0  0  0
  182.9560  178.1860  140.8220 C   0  0  0  0  0  3  0  0  0  0  0  0
  1  2  2  0  0  0  0
  2 14  1  0  0  0  0
  3  7  1  0  0  0  0
  5  3  2  0  0  0  0
  5  6  1  0  0  0  0
  6  8  1  0  0  0  0
  7  4  1  0  0  0  0
  8  4  1  0  0  0  0
  8  2  1  1  0  0  0
  9  3  1  0  0  0  0
 10 11  3  0  0  0  0
 11  9  1  0  0  0  0
 12 13  1  0  0  0  0
 13 15  2  0  0  0  0
 13 18  1  0  0  0  0
 14 12  1  0  0  0  0
 14 16  2  0  0  0  0
 16 15  1  0  0  0  0
 18 17  1  0  0  0  0
 19 18  2  0  0  0  0
 20  1  1  0  0  0  0
 21 20  2  0  0  0  0
 22 20  1  0  0  0  0
 22 26  1  0  0  0  0
 23 27  1  0  0  0  0
 23 24  2  0  0  0  0
 24 25  1  0  0  0  0
 25 26  2  0  0  0  0
 27 22  2  0  0  0  0
M  END
>  <MODEL>
7

>  <REMARK>
 VINA RESULT:      -6.8      3.356      5.982
  Name = 
  6 active torsions:
  status: ('A' for Active; 'I' for Inactive)
    1  A    between atoms: C_1  and  C_8
    2  A    between atoms: N_6  and  C_8
    3  A    between atoms: C_9  and  N_25
    4  A    between atoms: C_10  and  C_11
    5  A    between atoms: C_15  and  C_16
    6  A    between atoms: C_15  and  C_24
                            x       y       z     vdW  Elec       q    Type
                         _______ _______ _______ _____ _____    ______ ____

>  <TORSDO>
F 6

$$$$
=
 OpenBabel10222420063D

 27 29  0  0  1  0  0  0  0  0999 V2000
  187.2320  178.4540  142.6220 N   0  0  0  0  0  0  0  0  0  0  0  0
  188.3950  178.0050  142.2420 C   0  0  0  0  0  0  0  0  0  0  0  0
  189.9920  177.1280  138.3560 C   0  0  0  0  0  0  0  0  0  0  0  0
  189.7710  176.4510  140.7810 C   0  0  0  0  0  2  0  0  0  0  0  0
  189.1530  178.1130  138.5110 N   0  0  0  0  0  0  0  0  0  0  0  0
  188.8680  178.6670  139.8340 C   0  0  0  0  0  2  0  0  0  0  0  0
  190.6930  176.5460  139.5550 C   0  0  0  0  0  2  0  0  0  0  0  0
  188.6810  177.5300  140.8430 C   0  0  2  0  0  3  0  0  0  0  0  0
  190.2940  176.6230  137.0500 N   0  0  0  0  0  2  0  0  0  0  0  0
  189.3110  177.6370  134.9120 N   0  0  0  0  0  0  0  0  0  0  0  0
  189.7550  177.1800  135.8810 C   0  0  0  0  0  0  0  0  0  0  0  0
  189.4000  176.7940  144.5640 S   0  0  0  0  0  0  0  0  0  0  0  0
  190.9470  177.1930  145.0790 C   0  0  0  0  0  0  0  0  0  0  0  0
  189.4550  177.8470  143.2520 C   0  0  0  0  0  0  0  0  0  0  0  0
  191.4710  178.1430  144.2150 C   0  0  0  0  0  3  0  0  0  0  0  0
  190.6370  178.4950  143.2000 N   0  0  0  0  0  0  0  0  0  0  0  0
  191.6040  177.2330  147.3570 O   0  0  0  0  0  1  0  0  0  0  0  0
  191.6290  176.6270  146.2500 C   0  0  0  0  0  0  0  0  0  0  0  0
  192.2860  175.4070  146.1490 O   0  0  0  0  0  0  0  0  0  0  0  0
  186.0800  178.6910  141.8030 C   0  0  0  0  0  0  0  0  0  0  0  0
  186.2130  178.8970  140.5640 O   0  0  0  0  0  0  0  0  0  0  0  0
  184.7360  178.7230  142.4110 C   0  0  0  0  0  0  0  0  0  0  0  0
  182.3280  178.7050  142.2070 C   0  0  0  0  0  3  0  0  0  0  0  0
  182.2150  178.8990  143.5510 N   0  0  0  0  0  0  0  0  0  0  0  0
  183.3110  179.0010  144.3500 C   0  0  0  0  0  3  0  0  0  0  0  0
  184.5890  178.9160  143.7950 C   0  0  0  0  0  3  0  0  0  0  0  0
  183.5910  178.6190  141.6100 C   0  0  0  0  0  3  0  0  0  0  0  0
  2  1  2  0  0  0  0
  2 14  1  0  0  0  0
  3  5  2  0  0  0  0
  3  7  1  0  0  0  0
  4  8  1  0  0  0  0
  5  6  1  0  0  0  0
  6  8  1  0  0  0  0
  7  4  1  0  0  0  0
  8  2  1  1  0  0  0
  9  3  1  0  0  0  0
 10 11  3  0  0  0  0
 11  9  1  0  0  0  0
 12 13  1  0  0  0  0
 13 18  1  0  0  0  0
 14 12  1  0  0  0  0
 15 13  2  0  0  0  0
 16 14  2  0  0  0  0
 16 15  1  0  0  0  0
 18 17  1  0  0  0  0
 19 18  2  0  0  0  0
 20 22  1  0  0  0  0
 20  1  1  0  0  0  0
 21 20  2  0  0  0  0
 22 26  1  0  0  0  0
 23 24  2  0  0  0  0
 24 25  1  0  0  0  0
 26 25  2  0  0  0  0
 27 23  1  0  0  0  0
 27 22  2  0  0  0  0
M  END
>  <MODEL>
8

>  <REMARK>
 VINA RESULT:      -6.8      2.672      5.925
  Name = 
  6 active torsions:
  status: ('A' for Active; 'I' for Inactive)
    1  A    between atoms: C_1  and  C_8
    2  A    between atoms: N_6  and  C_8
    3  A    between atoms: C_9  and  N_25
    4  A    between atoms: C_10  and  C_11
    5  A    between atoms: C_15  and  C_16
    6  A    between atoms: C_15  and  C_24
                            x       y       z     vdW  Elec       q    Type
                         _______ _______ _______ _____ _____    ______ ____

>  <TORSDO>
F 6

$$$$
=
 OpenBabel10222420063D

 27 29  0  0  1  0  0  0  0  0999 V2000
  189.8580  177.6270  137.2290 N   0  0  0  0  0  0  0  0  0  0  0  0
  190.5070  177.0670  138.2110 C   0  0  0  0  0  0  0  0  0  0  0  0
  190.1470  177.2770  142.4830 C   0  0  0  0  0  0  0  0  0  0  0  0
  191.6270  177.5030  140.4470 C   0  0  0  0  0  2  0  0  0  0  0  0
  189.0860  177.1090  141.7460 N   0  0  0  0  0  0  0  0  0  0  0  0
  189.1910  176.6800  140.3510 C   0  0  0  0  0  2  0  0  0  0  0  0
  191.5120  177.0200  141.9020 C   0  0  0  0  0  2  0  0  0  0  0  0
  190.3140  177.4520  139.6540 C   0  0  2  0  0  3  0  0  0  0  0  0
  190.0280  177.6570  143.8590 N   0  0  0  0  0  2  0  0  0  0  0  0
  187.7620  177.9500  145.0180 N   0  0  0  0  0  0  0  0  0  0  0  0
  188.7880  177.8180  144.4950 C   0  0  0  0  0  0  0  0  0  0  0  0
  193.1800  176.4570  137.6230 S   0  0  0  0  0  0  0  0  0  0  0  0
  193.6210  174.8480  137.4400 C   0  0  0  0  0  0  0  0  0  0  0  0
  191.5600  176.0890  137.8960 C   0  0  0  0  0  0  0  0  0  0  0  0
  192.4900  174.0590  137.5940 C   0  0  0  0  0  3  0  0  0  0  0  0
  191.3520  174.7570  137.8530 N   0  0  0  0  0  0  0  0  0  0  0  0
  195.2300  173.1250  137.1940 O   0  0  0  0  0  1  0  0  0  0  0  0
  194.9780  174.3610  137.1640 C   0  0  0  0  0  0  0  0  0  0  0  0
  195.9880  175.2600  136.8440 O   0  0  0  0  0  0  0  0  0  0  0  0
  188.7970  178.5860  137.3200 C   0  0  0  0  0  0  0  0  0  0  0  0
  189.0530  179.7910  137.5930 O   0  0  0  0  0  0  0  0  0  0  0  0
  187.3990  178.1600  137.1220 C   0  0  0  0  0  0  0  0  0  0  0  0
  185.1650  177.7930  137.9710 C   0  0  0  0  0  3  0  0  0  0  0  0
  184.8020  177.2510  136.7750 N   0  0  0  0  0  0  0  0  0  0  0  0
  185.6820  177.1510  135.7420 C   0  0  0  0  0  3  0  0  0  0  0  0
  186.9930  177.6020  135.8980 C   0  0  0  0  0  3  0  0  0  0  0  0
  186.4730  178.2530  138.1700 C   0  0  0  0  0  3  0  0  0  0  0  0
  1 20  1  0  0  0  0
  1  2  2  0  0  0  0
  3  9  1  0  0  0  0
  4  7  1  0  0  0  0
  5  3  2  0  0  0  0
  6  5  1  0  0  0  0
  7  3  1  0  0  0  0
  8  2  1  6  0  0  0
  8  6  1  0  0  0  0
  8  4  1  0  0  0  0
  9 11  1  0  0  0  0
 11 10  3  0  0  0  0
 12 14  1  0  0  0  0
 13 15  2  0  0  0  0
 13 12  1  0  0  0  0
 14  2  1  0  0  0  0
 15 16  1  0  0  0  0
 16 14  2  0  0  0  0
 18 17  1  0  0  0  0
 18 13  1  0  0  0  0
 19 18  2  0  0  0  0
 20 21  2  0  0  0  0
 22 20  1  0  0  0  0
 22 27  1  0  0  0  0
 23 27  2  0  0  0  0
 24 23  1  0  0  0  0
 25 26  1  0  0  0  0
 25 24  2  0  0  0  0
 26 22  2  0  0  0  0
M  END
>  <MODEL>
9

>  <REMARK>
 VINA RESULT:      -6.7      3.729      5.242
  Name = 
  6 active torsions:
  status: ('A' for Active; 'I' for Inactive)
    1  A    between atoms: C_1  and  C_8
    2  A    between atoms: N_6  and  C_8
    3  A    between atoms: C_9  and  N_25
    4  A    between atoms: C_10  and  C_11
    5  A    between atoms: C_15  and  C_16
    6  A    between atoms: C_15  and  C_24
                            x       y       z     vdW  Elec       q    Type
                         _______ _______ _______ _____ _____    ______ ____

>  <TORSDO>
F 6

$$$$
