=
 OpenBabel10222420263D

 31 36  0  0  1  0  0  0  0  0999 V2000
  190.5460  176.9440  143.4850 N   0  0  2  0  0  0  0  0  0  0  0  0
  186.2700  178.1970  147.0860 O   0  0  0  0  0  0  0  0  0  0  0  0
  187.0630  177.4000  144.3450 C   0  0  1  0  0  3  0  0  0  0  0  0
  190.7820  176.0690  144.6590 C   0  0  2  0  0  3  0  0  0  0  0  0
  190.0150  176.0980  142.3940 C   0  0  1  0  0  3  0  0  0  0  0  0
  192.2120  177.6020  145.8050 O   0  0  0  0  0  1  0  0  0  0  0  0
  185.2080  178.2810  143.5570 C   0  0  0  0  0  0  0  0  0  0  0  0
  184.2130  178.9510  146.0350 C   0  0  0  0  0  3  0  0  0  0  0  0
  188.2030  177.8310  142.2700 N   0  0  0  0  0  2  0  0  0  0  0  0
  185.4920  178.3810  145.9430 C   0  0  0  0  0  0  0  0  0  0  0  0
  190.9400  177.8090  140.1280 C   0  0  1  0  0  3  0  0  0  0  0  0
  187.6650  178.4800  147.0730 C   0  0  0  0  0  2  0  0  0  0  0  0
  191.0040  176.9100  145.9360 C   0  0  1  0  0  0  0  0  0  0  0  0
  185.9640  178.0470  144.6730 C   0  0  0  0  0  0  0  0  0  0  0  0
  189.8820  177.9480  146.1230 C   0  0  0  0  0  2  0  0  0  0  0  0
  187.9300  176.7500  145.2740 N   0  0  0  0  0  2  0  0  0  0  0  0
  188.9600  176.8330  141.5260 C   0  0  1  0  0  3  0  0  0  0  0  0
  187.0680  177.1470  142.8710 C   0  0  2  0  0  3  0  0  0  0  0  0
  185.7790  177.8110  142.4580 C   0  0  0  0  0  2  0  0  0  0  0  0
  189.5000  177.4150  140.2500 C   0  0  0  0  0  0  0  0  0  0  0  0
  188.5150  177.3600  146.4680 C   0  0  2  0  0  3  0  0  0  0  0  0
  191.5940  177.8990  141.5010 C   0  0  0  0  0  2  0  0  0  0  0  0
  183.4700  179.1870  144.8600 C   0  0  0  0  0  3  0  0  0  0  0  0
  191.6890  176.8360  139.2320 C   0  0  0  0  0  1  0  0  0  0  0  0
  188.7470  177.5860  139.3050 O   0  0  0  0  0  0  0  0  0  0  0  0
  191.8950  175.0130  144.4920 C   0  0  0  0  0  1  0  0  0  0  0  0
  183.9790  178.8520  143.6370 N   0  0  0  0  0  0  0  0  0  0  0  0
  191.4010  176.6240  142.3240 C   0  0  1  0  0  3  0  0  0  0  0  0
  191.0790  175.9820  147.1620 C   0  0  0  0  0  2  0  0  0  0  0  0
  192.7460  176.6750  148.7370 O   0  0  0  0  0  1  0  0  0  0  0  0
  192.4970  175.7870  147.6910 C   0  0  0  0  0  2  0  0  0  0  0  0
  1  4  1  0  0  0  0
  3 14  1  0  0  0  0
  3 16  1  0  0  0  0
  4 13  1  0  0  0  0
  5  1  1  0  0  0  0
  6 13  1  0  0  0  0
  7 27  2  0  0  0  0
  7 14  1  0  0  0  0
  9 18  1  0  0  0  0
 10  8  1  0  0  0  0
 10  2  1  0  0  0  0
 11 20  1  0  0  0  0
 11 22  1  0  0  0  0
 12  2  1  0  0  0  0
 13 15  1  0  0  0  0
 13 29  1  0  0  0  0
 14 10  2  0  0  0  0
 15 21  1  0  0  0  0
 16 21  1  0  0  0  0
 17  9  1  0  0  0  0
 17  5  1  0  0  0  0
 18  3  1  0  0  0  0
 19 18  1  0  0  0  0
 19  7  1  0  0  0  0
 20 17  1  0  0  0  0
 21 12  1  0  0  0  0
 22 28  1  0  0  0  0
 23  8  2  0  0  0  0
 24 11  1  0  0  0  0
 25 20  2  0  0  0  0
 26  4  1  0  0  0  0
 27 23  1  0  0  0  0
 28  5  1  0  0  0  0
 28  1  1  0  0  0  0
 29 31  1  0  0  0  0
 31 30  1  0  0  0  0
M  END
>  <MODEL>
1

>  <REMARK>
 VINA RESULT:      -8.8      0.000      0.000
  Name = 
  2 active torsions:
  status: ('A' for Active; 'I' for Inactive)
    1  A    between atoms: C_14  and  C_24
    2  A    between atoms: C_19  and  C_24
                            x       y       z     vdW  Elec       q    Type
                         _______ _______ _______ _____ _____    ______ ____

>  <TORSDO>
F 2

$$$$
=
 OpenBabel10222420263D

 31 36  0  0  1  0  0  0  0  0999 V2000
  190.0390  176.8630  140.8640 N   0  0  2  0  0  0  0  0  0  0  0  0
  185.6800  177.9380  137.3060 O   0  0  0  0  0  0  0  0  0  0  0  0
  186.9060  178.4270  139.9590 C   0  0  1  0  0  3  0  0  0  0  0  0
  190.6880  177.2990  139.6040 C   0  0  2  0  0  3  0  0  0  0  0  0
  190.1460  177.9760  141.8330 C   0  0  1  0  0  3  0  0  0  0  0  0
  190.9100  175.1030  138.6890 O   0  0  0  0  0  1  0  0  0  0  0  0
  184.9210  178.8850  140.7880 C   0  0  0  0  0  0  0  0  0  0  0  0
  183.6150  178.6460  138.3750 C   0  0  0  0  0  3  0  0  0  0  0  0
  187.6720  177.6490  142.1030 N   0  0  0  0  0  2  0  0  0  0  0  0
  184.9900  178.3710  138.4390 C   0  0  0  0  0  0  0  0  0  0  0  0
  190.0020  176.3140  144.3100 C   0  0  1  0  0  3  0  0  0  0  0  0
  186.6490  176.9000  137.3950 C   0  0  0  0  0  2  0  0  0  0  0  0
  190.3240  176.3490  138.4420 C   0  0  1  0  0  0  0  0  0  0  0  0
  185.6230  178.5090  139.6750 C   0  0  0  0  0  0  0  0  0  0  0  0
  188.8010  176.1440  138.3420 C   0  0  0  0  0  2  0  0  0  0  0  0
  187.9480  178.3410  138.9870 N   0  0  0  0  0  2  0  0  0  0  0  0
  188.9000  178.0950  142.7480 C   0  0  1  0  0  3  0  0  0  0  0  0
  187.1210  178.7930  141.3920 C   0  0  2  0  0  3  0  0  0  0  0  0
  185.7060  179.0550  141.8410 C   0  0  0  0  0  2  0  0  0  0  0  0
  189.0560  177.4560  144.0990 C   0  0  0  0  0  0  0  0  0  0  0  0
  188.0170  177.3750  137.8910 C   0  0  2  0  0  3  0  0  0  0  0  0
  190.4220  175.7060  142.9770 C   0  0  0  0  0  2  0  0  0  0  0  0
  182.9250  179.0200  139.5460 C   0  0  0  0  0  3  0  0  0  0  0  0
  191.2150  176.7630  145.1080 C   0  0  0  0  0  1  0  0  0  0  0  0
  188.3860  177.8620  145.0350 O   0  0  0  0  0  0  0  0  0  0  0  0
  192.2140  177.5200  139.6810 C   0  0  0  0  0  1  0  0  0  0  0  0
  183.5870  179.1310  140.7370 N   0  0  0  0  0  0  0  0  0  0  0  0
  190.9700  176.7530  142.0060 C   0  0  1  0  0  3  0  0  0  0  0  0
  190.8720  176.9150  137.1180 C   0  0  0  0  0  2  0  0  0  0  0  0
  193.0840  176.2760  136.4560 O   0  0  0  0  0  1  0  0  0  0  0  0
  191.7380  175.9250  136.3460 C   0  0  0  0  0  2  0  0  0  0  0  0
  1  5  1  0  0  0  0
  1 28  1  0  0  0  0
  2 12  1  0  0  0  0
  2 10  1  0  0  0  0
  3 18  1  0  0  0  0
  4 26  1  0  0  0  0
  4  1  1  0  0  0  0
  5 28  1  0  0  0  0
  5 17  1  0  0  0  0
  7 19  1  0  0  0  0
  8 10  2  0  0  0  0
  8 23  1  0  0  0  0
  9 17  1  0  0  0  0
 10 14  1  0  0  0  0
 11 24  1  0  0  0  0
 12 21  1  0  0  0  0
 13  6  1  0  0  0  0
 13  4  1  0  0  0  0
 14  3  1  0  0  0  0
 14  7  2  0  0  0  0
 15 13  1  0  0  0  0
 16  3  1  0  0  0  0
 17 20  1  0  0  0  0
 18 19  1  0  0  0  0
 18  9  1  0  0  0  0
 20 11  1  0  0  0  0
 20 25  2  0  0  0  0
 21 15  1  0  0  0  0
 21 16  1  0  0  0  0
 22 11  1  0  0  0  0
 23 27  2  0  0  0  0
 27  7  1  0  0  0  0
 28 22  1  0  0  0  0
 29 13  1  0  0  0  0
 31 30  1  0  0  0  0
 31 29  1  0  0  0  0
M  END
>  <MODEL>
2

>  <REMARK>
 VINA RESULT:      -8.3      2.741      6.396
  Name = 
  2 active torsions:
  status: ('A' for Active; 'I' for Inactive)
    1  A    between atoms: C_14  and  C_24
    2  A    between atoms: C_19  and  C_24
                            x       y       z     vdW  Elec       q    Type
                         _______ _______ _______ _____ _____    ______ ____

>  <TORSDO>
F 2

$$$$
=
 OpenBabel10222420263D

 31 36  0  0  1  0  0  0  0  0999 V2000
  188.2770  177.6400  139.4000 N   0  0  2  0  0  0  0  0  0  0  0  0
  182.6010  178.3500  139.1050 O   0  0  0  0  0  0  0  0  0  0  0  0
  185.0890  178.8030  140.6480 C   0  0  1  0  0  3  0  0  0  0  0  0
  188.0510  178.2590  138.0720 C   0  0  2  0  0  3  0  0  0  0  0  0
  188.8400  178.6780  140.2910 C   0  0  1  0  0  3  0  0  0  0  0  0
  187.8660  176.1950  136.8840 O   0  0  0  0  0  1  0  0  0  0  0  0
  183.9140  178.9070  142.5040 C   0  0  0  0  0  0  0  0  0  0  0  0
  181.4800  178.6700  141.2370 C   0  0  0  0  0  3  0  0  0  0  0  0
  187.0030  177.9800  141.8530 N   0  0  0  0  0  2  0  0  0  0  0  0
  182.6580  178.5910  140.4780 C   0  0  0  0  0  0  0  0  0  0  0  0
  190.2680  176.8270  142.1480 C   0  0  1  0  0  3  0  0  0  0  0  0
  183.5180  177.4570  138.4820 C   0  0  0  0  0  2  0  0  0  0  0  0
  187.1550  177.3590  137.1920 C   0  0  1  0  0  0  0  0  0  0  0  0
  183.8740  178.7220  141.1490 C   0  0  0  0  0  0  0  0  0  0  0  0
  185.8720  176.9470  137.9360 C   0  0  0  0  0  2  0  0  0  0  0  0
  185.3860  178.9420  139.2580 N   0  0  0  0  0  2  0  0  0  0  0  0
  188.3420  178.5470  141.7530 C   0  0  1  0  0  3  0  0  0  0  0  0
  186.0610  179.0850  141.7480 C   0  0  2  0  0  3  0  0  0  0  0  0
  185.1460  179.1050  142.9470 C   0  0  0  0  0  2  0  0  0  0  0  0
  189.2920  177.8340  142.6740 C   0  0  0  0  0  0  0  0  0  0  0  0
  184.8830  178.0840  138.1870 C   0  0  2  0  0  3  0  0  0  0  0  0
  189.8890  176.3900  140.7390 C   0  0  0  0  0  2  0  0  0  0  0  0
  181.5640  178.8500  142.6330 C   0  0  0  0  0  3  0  0  0  0  0  0
  191.6830  177.3820  142.1830 C   0  0  0  0  0  1  0  0  0  0  0  0
  189.2530  178.0670  143.8710 O   0  0  0  0  0  0  0  0  0  0  0  0
  189.3220  178.6900  137.3110 C   0  0  0  0  0  1  0  0  0  0  0  0
  182.7800  178.9630  143.2480 N   0  0  0  0  0  0  0  0  0  0  0  0
  189.7000  177.5760  139.7910 C   0  0  1  0  0  3  0  0  0  0  0  0
  186.8000  178.0980  135.8880 C   0  0  0  0  0  2  0  0  0  0  0  0
  184.9590  177.2770  134.5940 O   0  0  0  0  0  1  0  0  0  0  0  0
  186.3390  177.1700  134.7690 C   0  0  0  0  0  2  0  0  0  0  0  0
  1 28  1  0  0  0  0
  1  5  1  0  0  0  0
  2 10  1  0  0  0  0
  3 14  1  0  0  0  0
  3 18  1  0  0  0  0
  4  1  1  0  0  0  0
  5 17  1  0  0  0  0
  6 13  1  0  0  0  0
  7 19  1  0  0  0  0
  7 27  1  0  0  0  0
  8 23  1  0  0  0  0
 10 14  1  0  0  0  0
 10  8  2  0  0  0  0
 11 24  1  0  0  0  0
 11 20  1  0  0  0  0
 12  2  1  0  0  0  0
 13 15  1  0  0  0  0
 13  4  1  0  0  0  0
 14  7  2  0  0  0  0
 15 21  1  0  0  0  0
 16  3  1  0  0  0  0
 17  9  1  0  0  0  0
 17 20  1  0  0  0  0
 18  9  1  0  0  0  0
 18 19  1  0  0  0  0
 20 25  2  0  0  0  0
 21 12  1  0  0  0  0
 21 16  1  0  0  0  0
 22 11  1  0  0  0  0
 23 27  2  0  0  0  0
 26  4  1  0  0  0  0
 28  5  1  0  0  0  0
 28 22  1  0  0  0  0
 29 13  1  0  0  0  0
 30 31  1  0  0  0  0
 31 29  1  0  0  0  0
M  END
>  <MODEL>
3

>  <REMARK>
 VINA RESULT:      -8.2      3.375      7.059
  Name = 
  2 active torsions:
  status: ('A' for Active; 'I' for Inactive)
    1  A    between atoms: C_14  and  C_24
    2  A    between atoms: C_19  and  C_24
                            x       y       z     vdW  Elec       q    Type
                         _______ _______ _______ _____ _____    ______ ____

>  <TORSDO>
F 2

$$$$
=
 OpenBabel10222420263D

 31 36  0  0  1  0  0  0  0  0999 V2000
  185.6160  178.1610  142.5640 N   0  0  2  0  0  0  0  0  0  0  0  0
  191.1000  176.7790  141.6520 O   0  0  0  0  0  0  0  0  0  0  0  0
  188.6440  178.0500  140.5890 C   0  0  1  0  0  3  0  0  0  0  0  0
  186.3350  178.7000  143.7440 C   0  0  2  0  0  3  0  0  0  0  0  0
  185.2630  179.3020  141.6920 C   0  0  1  0  0  3  0  0  0  0  0  0
  186.0550  176.7500  145.0950 O   0  0  0  0  0  1  0  0  0  0  0  0
  189.3340  177.6600  138.5380 C   0  0  0  0  0  0  0  0  0  0  0  0
  191.7530  176.6010  139.3180 C   0  0  0  0  0  3  0  0  0  0  0  0
  186.3450  177.9360  139.8860 N   0  0  0  0  0  2  0  0  0  0  0  0
  190.8230  176.9780  140.2990 C   0  0  0  0  0  0  0  0  0  0  0  0
  182.9050  178.0330  140.3720 C   0  0  1  0  0  3  0  0  0  0  0  0
  190.0950  176.3000  142.5390 C   0  0  0  0  0  2  0  0  0  0  0  0
  187.0370  177.5670  144.5250 C   0  0  1  0  0  0  0  0  0  0  0  0
  189.6100  177.5180  139.8710 C   0  0  0  0  0  0  0  0  0  0  0  0
  187.8970  176.6940  143.5930 C   0  0  0  0  0  2  0  0  0  0  0  0
  188.7330  178.3330  141.9860 N   0  0  0  0  0  2  0  0  0  0  0  0
  185.3440  178.9510  140.1840 C   0  0  1  0  0  3  0  0  0  0  0  0
  187.6080  178.6280  139.6790 C   0  0  2  0  0  3  0  0  0  0  0  0
  188.1810  178.2760  138.3290 C   0  0  0  0  0  2  0  0  0  0  0  0
  184.0250  178.6000  139.5550 C   0  0  0  0  0  0  0  0  0  0  0  0
  189.1350  177.3880  143.0260 C   0  0  2  0  0  3  0  0  0  0  0  0
  183.4150  177.5350  141.7180 C   0  0  0  0  0  2  0  0  0  0  0  0
  191.4260  176.7530  137.9550 C   0  0  0  0  0  3  0  0  0  0  0  0
  181.8000  179.0600  140.5560 C   0  0  0  0  0  1  0  0  0  0  0  0
  183.8720  178.7640  138.3550 O   0  0  0  0  0  0  0  0  0  0  0  0
  185.4970  179.5870  144.6890 C   0  0  0  0  0  1  0  0  0  0  0  0
  190.2200  177.2770  137.5840 N   0  0  0  0  0  0  0  0  0  0  0  0
  184.2100  178.6040  142.4710 C   0  0  1  0  0  3  0  0  0  0  0  0
  187.9090  178.1700  145.6420 C   0  0  0  0  0  2  0  0  0  0  0  0
  188.8360  176.7590  147.3420 O   0  0  0  0  0  1  0  0  0  0  0  0
  187.7070  177.5030  146.9990 C   0  0  0  0  0  2  0  0  0  0  0  0
  1  4  1  0  0  0  0
  2 12  1  0  0  0  0
  3 16  1  0  0  0  0
  4 13  1  0  0  0  0
  4 26  1  0  0  0  0
  5 28  1  0  0  0  0
  5  1  1  0  0  0  0
  7 14  1  0  0  0  0
  8 10  1  0  0  0  0
  9 17  1  0  0  0  0
 10  2  1  0  0  0  0
 11 24  1  0  0  0  0
 11 22  1  0  0  0  0
 12 21  1  0  0  0  0
 13  6  1  0  0  0  0
 13 29  1  0  0  0  0
 14 10  2  0  0  0  0
 14  3  1  0  0  0  0
 15 13  1  0  0  0  0
 16 21  1  0  0  0  0
 17  5  1  0  0  0  0
 18  9  1  0  0  0  0
 18  3  1  0  0  0  0
 19  7  1  0  0  0  0
 19 18  1  0  0  0  0
 20 17  1  0  0  0  0
 20 11  1  0  0  0  0
 21 15  1  0  0  0  0
 22 28  1  0  0  0  0
 23  8  2  0  0  0  0
 25 20  2  0  0  0  0
 27 23  1  0  0  0  0
 27  7  2  0  0  0  0
 28  1  1  0  0  0  0
 29 31  1  0  0  0  0
 31 30  1  0  0  0  0
M  END
>  <MODEL>
4

>  <REMARK>
 VINA RESULT:      -7.3      2.451      6.392
  Name = 
  2 active torsions:
  status: ('A' for Active; 'I' for Inactive)
    1  A    between atoms: C_14  and  C_24
    2  A    between atoms: C_19  and  C_24
                            x       y       z     vdW  Elec       q    Type
                         _______ _______ _______ _____ _____    ______ ____

>  <TORSDO>
F 2

$$$$
=
 OpenBabel10222420263D

 31 36  0  0  1  0  0  0  0  0999 V2000
  188.5970  177.2970  140.4310 N   0  0  2  0  0  0  0  0  0  0  0  0
  183.2810  178.3820  138.5950 O   0  0  0  0  0  0  0  0  0  0  0  0
  185.2730  178.6820  140.7670 C   0  0  1  0  0  3  0  0  0  0  0  0
  188.7860  177.9190  139.0980 C   0  0  2  0  0  3  0  0  0  0  0  0
  188.9610  178.3040  141.4520 C   0  0  1  0  0  3  0  0  0  0  0  0
  188.7980  175.8610  137.8850 O   0  0  0  0  0  1  0  0  0  0  0  0
  183.6430  178.8800  142.2290 C   0  0  0  0  0  0  0  0  0  0  0  0
  181.6410  178.7950  140.3400 C   0  0  0  0  0  3  0  0  0  0  0  0
  186.7230  177.7440  142.4420 N   0  0  0  0  0  2  0  0  0  0  0  0
  182.9740  178.6310  139.9330 C   0  0  0  0  0  0  0  0  0  0  0  0
  189.6980  176.3780  143.6120 C   0  0  1  0  0  3  0  0  0  0  0  0
  184.2730  177.4250  138.2390 C   0  0  0  0  0  2  0  0  0  0  0  0
  188.1090  177.0730  137.9970 C   0  0  1  0  0  0  0  0  0  0  0  0
  183.9650  178.6870  140.9140 C   0  0  0  0  0  0  0  0  0  0  0  0
  186.6460  176.7540  138.3560 C   0  0  0  0  0  2  0  0  0  0  0  0
  185.9490  178.7890  139.5130 N   0  0  0  0  0  2  0  0  0  0  0  0
  188.0730  178.2190  142.7200 C   0  0  1  0  0  3  0  0  0  0  0  0
  185.9220  178.9080  142.0940 C   0  0  2  0  0  3  0  0  0  0  0  0
  184.7170  179.0000  142.9950 C   0  0  0  0  0  2  0  0  0  0  0  0
  188.6840  177.4530  143.8590 C   0  0  0  0  0  0  0  0  0  0  0  0
  185.7040  177.9570  138.3370 C   0  0  2  0  0  3  0  0  0  0  0  0
  189.6920  175.9550  142.1490 C   0  0  0  0  0  2  0  0  0  0  0  0
  181.3500  178.9820  141.7070 C   0  0  0  0  0  3  0  0  0  0  0  0
  191.0820  176.8380  144.0400 C   0  0  0  0  0  1  0  0  0  0  0  0
  188.3330  177.6980  145.0020 O   0  0  0  0  0  0  0  0  0  0  0  0
  190.2430  178.2580  138.7190 C   0  0  0  0  0  1  0  0  0  0  0  0
  182.3540  179.0190  142.6330 N   0  0  0  0  0  0  0  0  0  0  0  0
  189.8500  177.1430  141.1980 C   0  0  1  0  0  3  0  0  0  0  0  0
  188.1750  177.8220  136.6530 C   0  0  0  0  0  2  0  0  0  0  0  0
  189.3250  176.9720  134.7310 O   0  0  0  0  0  1  0  0  0  0  0  0
  188.1250  176.9000  135.4390 C   0  0  0  0  0  2  0  0  0  0  0  0
  1 28  1  0  0  0  0
  1  5  1  0  0  0  0
  2 10  1  0  0  0  0
  3 14  1  0  0  0  0
  3 18  1  0  0  0  0
  4  1  1  0  0  0  0
  5 17  1  0  0  0  0
  6 13  1  0  0  0  0
  7 27  1  0  0  0  0
  7 19  1  0  0  0  0
  8 23  1  0  0  0  0
  9 17  1  0  0  0  0
 10  8  2  0  0  0  0
 10 14  1  0  0  0  0
 11 20  1  0  0  0  0
 11 24  1  0  0  0  0
 12 21  1  0  0  0  0
 12  2  1  0  0  0  0
 13 15  1  0  0  0  0
 13  4  1  0  0  0  0
 14  7  2  0  0  0  0
 16  3  1  0  0  0  0
 17 20  1  0  0  0  0
 18  9  1  0  0  0  0
 18 19  1  0  0  0  0
 20 25  2  0  0  0  0
 21 15  1  0  0  0  0
 21 16  1  0  0  0  0
 22 11  1  0  0  0  0
 23 27  2  0  0  0  0
 26  4  1  0  0  0  0
 28  5  1  0  0  0  0
 28 22  1  0  0  0  0
 29 13  1  0  0  0  0
 30 31  1  0  0  0  0
 31 29  1  0  0  0  0
M  END
>  <MODEL>
5

>  <REMARK>
 VINA RESULT:      -7.1      2.960      6.639
  Name = 
  2 active torsions:
  status: ('A' for Active; 'I' for Inactive)
    1  A    between atoms: C_14  and  C_24
    2  A    between atoms: C_19  and  C_24
                            x       y       z     vdW  Elec       q    Type
                         _______ _______ _______ _____ _____    ______ ____

>  <TORSDO>
F 2

$$$$
=
 OpenBabel10222420263D

 31 36  0  0  1  0  0  0  0  0999 V2000
  185.2340  177.9140  139.2290 N   0  0  2  0  0  0  0  0  0  0  0  0
  188.0710  178.0020  144.2040 O   0  0  0  0  0  0  0  0  0  0  0  0
  188.2210  178.1730  141.2510 C   0  0  1  0  0  3  0  0  0  0  0  0
  184.5240  178.9320  140.0410 C   0  0  2  0  0  3  0  0  0  0  0  0
  186.0360  178.6290  138.2120 C   0  0  1  0  0  3  0  0  0  0  0  0
  182.9260  177.4140  140.9650 O   0  0  0  0  0  1  0  0  0  0  0  0
  190.3050  177.4730  141.3200 C   0  0  0  0  0  0  0  0  0  0  0  0
  190.4240  177.4120  144.0710 C   0  0  0  0  0  3  0  0  0  0  0  0
  187.9230  177.2110  139.0650 N   0  0  0  0  0  2  0  0  0  0  0  0
  189.2130  177.7470  143.4460 C   0  0  0  0  0  0  0  0  0  0  0  0
  186.1190  176.4250  136.2000 C   0  0  1  0  0  3  0  0  0  0  0  0
  186.8000  177.5030  143.8010 C   0  0  0  0  0  2  0  0  0  0  0  0
  183.9450  178.3010  141.3280 C   0  0  1  0  0  0  0  0  0  0  0  0
  189.1880  177.7760  142.0510 C   0  0  0  0  0  0  0  0  0  0  0  0
  185.0180  177.5030  142.0910 C   0  0  0  0  0  2  0  0  0  0  0  0
  187.0280  178.8290  141.6820 N   0  0  0  0  0  2  0  0  0  0  0  0
  187.3880  177.9320  137.9170 C   0  0  1  0  0  3  0  0  0  0  0  0
  188.7100  178.1610  139.8380 C   0  0  2  0  0  3  0  0  0  0  0  0
  190.1160  177.6480  140.0210 C   0  0  0  0  0  2  0  0  0  0  0  0
  187.3840  177.0580  136.6940 C   0  0  0  0  0  0  0  0  0  0  0  0
  186.1200  178.3520  142.7240 C   0  0  2  0  0  3  0  0  0  0  0  0
  185.0360  176.4730  137.2700 C   0  0  0  0  0  2  0  0  0  0  0  0
  191.5500  177.0960  143.2820 C   0  0  0  0  0  3  0  0  0  0  0  0
  185.6480  177.0960  134.9200 C   0  0  0  0  0  1  0  0  0  0  0  0
  188.4320  176.8460  136.1060 O   0  0  0  0  0  0  0  0  0  0  0  0
  183.4510  179.7520  139.2950 C   0  0  0  0  0  1  0  0  0  0  0  0
  191.4730  177.1270  141.9180 N   0  0  0  0  0  0  0  0  0  0  0  0
  184.8150  177.8860  137.8130 C   0  0  1  0  0  3  0  0  0  0  0  0
  183.3620  179.4050  142.2290 C   0  0  0  0  0  2  0  0  0  0  0  0
  183.0930  179.0040  144.5760 O   0  0  0  0  0  1  0  0  0  0  0  0
  182.4610  178.8720  143.3380 C   0  0  0  0  0  2  0  0  0  0  0  0
  1  4  1  0  0  0  0
  3 16  1  0  0  0  0
  3 14  1  0  0  0  0
  4 13  1  0  0  0  0
  5  1  1  0  0  0  0
  6 13  1  0  0  0  0
  7 27  2  0  0  0  0
  7 14  1  0  0  0  0
  9 18  1  0  0  0  0
 10  8  1  0  0  0  0
 10  2  1  0  0  0  0
 11 20  1  0  0  0  0
 11 22  1  0  0  0  0
 12  2  1  0  0  0  0
 13 15  1  0  0  0  0
 13 29  1  0  0  0  0
 14 10  2  0  0  0  0
 15 21  1  0  0  0  0
 16 21  1  0  0  0  0
 17  5  1  0  0  0  0
 17  9  1  0  0  0  0
 18 19  1  0  0  0  0
 18  3  1  0  0  0  0
 19  7  1  0  0  0  0
 20 17  1  0  0  0  0
 21 12  1  0  0  0  0
 22 28  1  0  0  0  0
 23  8  2  0  0  0  0
 24 11  1  0  0  0  0
 25 20  2  0  0  0  0
 26  4  1  0  0  0  0
 27 23  1  0  0  0  0
 28  5  1  0  0  0  0
 28  1  1  0  0  0  0
 29 31  1  0  0  0  0
 31 30  1  0  0  0  0
M  END
>  <MODEL>
6

>  <REMARK>
 VINA RESULT:      -7.0      3.309      6.910
  Name = 
  2 active torsions:
  status: ('A' for Active; 'I' for Inactive)
    1  A    between atoms: C_14  and  C_24
    2  A    between atoms: C_19  and  C_24
                            x       y       z     vdW  Elec       q    Type
                         _______ _______ _______ _____ _____    ______ ____

>  <TORSDO>
F 2

$$$$
=
 OpenBabel10222420263D

 31 36  0  0  1  0  0  0  0  0999 V2000
  185.9390  178.5350  139.6460 N   0  0  2  0  0  0  0  0  0  0  0  0
  188.6770  177.8870  144.6360 O   0  0  0  0  0  0  0  0  0  0  0  0
  186.0840  177.8920  143.2020 C   0  0  1  0  0  3  0  0  0  0  0  0
  186.9940  177.5330  139.3620 C   0  0  2  0  0  3  0  0  0  0  0  0
  184.6460  177.8190  139.7180 C   0  0  1  0  0  3  0  0  0  0  0  0
  188.6330  179.1210  138.6540 O   0  0  0  0  0  1  0  0  0  0  0  0
  185.0530  178.4030  145.0760 C   0  0  0  0  0  0  0  0  0  0  0  0
  187.3300  178.2790  146.6200 C   0  0  0  0  0  3  0  0  0  0  0  0
  184.3900  179.0110  141.9110 N   0  0  0  0  0  2  0  0  0  0  0  0
  187.4330  178.0900  145.2330 C   0  0  0  0  0  0  0  0  0  0  0  0
  182.9090  180.1300  138.9730 C   0  0  1  0  0  3  0  0  0  0  0  0
  189.0060  178.5190  143.4030 C   0  0  0  0  0  2  0  0  0  0  0  0
  188.3980  178.1280  139.6110 C   0  0  1  0  0  0  0  0  0  0  0  0
  186.2590  178.1520  144.4810 C   0  0  0  0  0  0  0  0  0  0  0  0
  188.4900  178.7810  141.0030 C   0  0  0  0  0  2  0  0  0  0  0  0
  187.0740  177.3150  142.3480 N   0  0  0  0  0  2  0  0  0  0  0  0
  183.6890  178.4140  140.7820 C   0  0  1  0  0  3  0  0  0  0  0  0
  184.6260  177.9500  142.8790 C   0  0  2  0  0  3  0  0  0  0  0  0
  184.0470  178.3280  144.2190 C   0  0  0  0  0  2  0  0  0  0  0  0
  182.6590  179.3610  140.2330 C   0  0  0  0  0  0  0  0  0  0  0  0
  188.4410  177.8020  142.1750 C   0  0  2  0  0  3  0  0  0  0  0  0
  184.3890  180.1090  138.6100 C   0  0  0  0  0  2  0  0  0  0  0  0
  186.0700  178.5460  147.1940 C   0  0  0  0  0  3  0  0  0  0  0  0
  182.0630  179.5850  137.8340 C   0  0  0  0  0  1  0  0  0  0  0  0
  181.6090  179.5180  140.8360 O   0  0  0  0  0  0  0  0  0  0  0  0
  186.9180  176.8580  137.9760 C   0  0  0  0  0  1  0  0  0  0  0  0
  184.9500  178.6080  146.4140 N   0  0  0  0  0  0  0  0  0  0  0  0
  184.9550  178.6880  138.5550 C   0  0  1  0  0  3  0  0  0  0  0  0
  189.4620  177.0240  139.4710 C   0  0  0  0  0  2  0  0  0  0  0  0
  191.5900  177.3120  140.5330 O   0  0  0  0  0  1  0  0  0  0  0  0
  190.8850  177.5620  139.3550 C   0  0  0  0  0  2  0  0  0  0  0  0
  1  5  1  0  0  0  0
  2 10  1  0  0  0  0
  3 14  1  0  0  0  0
  4 13  1  0  0  0  0
  4  1  1  0  0  0  0
  5 17  1  0  0  0  0
  6 13  1  0  0  0  0
  7 27  1  0  0  0  0
  8 23  1  0  0  0  0
  9 18  1  0  0  0  0
 10  8  2  0  0  0  0
 11 20  1  0  0  0  0
 12  2  1  0  0  0  0
 13 15  1  0  0  0  0
 14  7  2  0  0  0  0
 14 10  1  0  0  0  0
 15 21  1  0  0  0  0
 16  3  1  0  0  0  0
 17  9  1  0  0  0  0
 18  3  1  0  0  0  0
 18 19  1  0  0  0  0
 19  7  1  0  0  0  0
 20 17  1  0  0  0  0
 20 25  2  0  0  0  0
 21 16  1  0  0  0  0
 21 12  1  0  0  0  0
 22 11  1  0  0  0  0
 24 11  1  0  0  0  0
 26  4  1  0  0  0  0
 27 23  2  0  0  0  0
 28 22  1  0  0  0  0
 28  1  1  0  0  0  0
 28  5  1  0  0  0  0
 29 13  1  0  0  0  0
 31 29  1  0  0  0  0
 31 30  1  0  0  0  0
M  END
>  <MODEL>
7

>  <REMARK>
 VINA RESULT:      -6.8      3.033      5.972
  Name = 
  2 active torsions:
  status: ('A' for Active; 'I' for Inactive)
    1  A    between atoms: C_14  and  C_24
    2  A    between atoms: C_19  and  C_24
                            x       y       z     vdW  Elec       q    Type
                         _______ _______ _______ _____ _____    ______ ____

>  <TORSDO>
F 2

$$$$
=
 OpenBabel10222420263D

 31 36  0  0  1  0  0  0  0  0999 V2000
  189.3410  177.6070  143.9370 N   0  0  2  0  0  0  0  0  0  0  0  0
  187.3780  177.9920  138.5700 O   0  0  0  0  0  0  0  0  0  0  0  0
  186.9430  178.6280  141.4300 C   0  0  1  0  0  3  0  0  0  0  0  0
  190.4760  178.1740  143.1680 C   0  0  2  0  0  3  0  0  0  0  0  0
  188.7500  178.7010  144.7380 C   0  0  1  0  0  3  0  0  0  0  0  0
  191.4840  176.0680  142.6610 O   0  0  0  0  0  1  0  0  0  0  0  0
  184.7750  178.7210  141.0760 C   0  0  0  0  0  0  0  0  0  0  0  0
  184.9780  178.3130  138.3600 C   0  0  0  0  0  3  0  0  0  0  0  0
  186.5870  177.9490  143.7110 N   0  0  0  0  0  2  0  0  0  0  0  0
  186.1400  178.2760  139.1460 C   0  0  0  0  0  0  0  0  0  0  0  0
  187.5970  176.9880  146.8950 C   0  0  1  0  0  3  0  0  0  0  0  0
  188.3080  177.1340  139.2220 C   0  0  0  0  0  2  0  0  0  0  0  0
  190.9270  177.2000  142.0570 C   0  0  1  0  0  0  0  0  0  0  0  0
  186.0030  178.4950  140.5180 C   0  0  0  0  0  0  0  0  0  0  0  0
  189.7350  176.7390  141.1990 C   0  0  0  0  0  2  0  0  0  0  0  0
  188.3380  178.7420  141.1480 N   0  0  0  0  0  2  0  0  0  0  0  0
  187.2090  178.5860  144.8640 C   0  0  1  0  0  3  0  0  0  0  0  0
  186.3170  178.9960  142.7370 C   0  0  2  0  0  3  0  0  0  0  0  0
  184.8550  179.0010  142.3670 C   0  0  0  0  0  2  0  0  0  0  0  0
  186.7340  177.9540  146.1430 C   0  0  0  0  0  0  0  0  0  0  0  0
  189.1200  177.8260  140.3190 C   0  0  2  0  0  3  0  0  0  0  0  0
  188.7400  176.4890  146.0200 C   0  0  0  0  0  2  0  0  0  0  0  0
  183.7300  178.5380  138.9740 C   0  0  0  0  0  3  0  0  0  0  0  0
  188.1260  177.6210  148.1710 C   0  0  0  0  0  1  0  0  0  0  0  0
  185.6200  178.2200  146.5640 O   0  0  0  0  0  0  0  0  0  0  0  0
  191.6790  178.6520  144.0080 C   0  0  0  0  0  1  0  0  0  0  0  0
  183.6450  178.7360  140.3240 N   0  0  0  0  0  0  0  0  0  0  0  0
  189.5420  177.6340  145.4000 C   0  0  1  0  0  3  0  0  0  0  0  0
  191.9890  177.8790  141.1720 C   0  0  0  0  0  2  0  0  0  0  0  0
  193.8840  177.2590  139.8440 O   0  0  0  0  0  1  0  0  0  0  0  0
  192.5390  176.9700  140.0780 C   0  0  0  0  0  2  0  0  0  0  0  0
  1  5  1  0  0  0  0
  1 28  1  0  0  0  0
  2 10  1  0  0  0  0
  2 12  1  0  0  0  0
  3 18  1  0  0  0  0
  4  1  1  0  0  0  0
  4 26  1  0  0  0  0
  5 17  1  0  0  0  0
  5 28  1  0  0  0  0
  7 19  1  0  0  0  0
  8 23  2  0  0  0  0
  8 10  1  0  0  0  0
  9 17  1  0  0  0  0
 10 14  2  0  0  0  0
 11 24  1  0  0  0  0
 12 21  1  0  0  0  0
 13  6  1  0  0  0  0
 13  4  1  0  0  0  0
 14  7  1  0  0  0  0
 14  3  1  0  0  0  0
 15 13  1  0  0  0  0
 16  3  1  0  0  0  0
 17 20  1  0  0  0  0
 18  9  1  0  0  0  0
 19 18  1  0  0  0  0
 20 25  2  0  0  0  0
 20 11  1  0  0  0  0
 21 16  1  0  0  0  0
 21 15  1  0  0  0  0
 22 11  1  0  0  0  0
 23 27  1  0  0  0  0
 27  7  2  0  0  0  0
 28 22  1  0  0  0  0
 29 13  1  0  0  0  0
 30 31  1  0  0  0  0
 31 29  1  0  0  0  0
M  END
>  <MODEL>
8

>  <REMARK>
 VINA RESULT:      -6.8      2.234      5.632
  Name = 
  2 active torsions:
  status: ('A' for Active; 'I' for Inactive)
    1  A    between atoms: C_14  and  C_24
    2  A    between atoms: C_19  and  C_24
                            x       y       z     vdW  Elec       q    Type
                         _______ _______ _______ _____ _____    ______ ____

>  <TORSDO>
F 2

$$$$
=
 OpenBabel10222420263D

 31 36  0  0  1  0  0  0  0  0999 V2000
  187.4080  177.9400  141.2210 N   0  0  2  0  0  0  0  0  0  0  0  0
  188.0450  177.4100  146.8890 O   0  0  0  0  0  0  0  0  0  0  0  0
  189.3570  177.8280  144.2660 C   0  0  1  0  0  3  0  0  0  0  0  0
  186.4610  178.9260  141.7940 C   0  0  2  0  0  3  0  0  0  0  0  0
  188.5650  178.6890  140.6820 C   0  0  1  0  0  3  0  0  0  0  0  0
  184.5910  177.4400  141.8530 O   0  0  0  0  0  1  0  0  0  0  0  0
  191.2250  176.9920  145.0710 C   0  0  0  0  0  0  0  0  0  0  0  0
  190.2440  176.6830  147.6260 C   0  0  0  0  0  3  0  0  0  0  0  0
  189.9250  177.0830  142.0500 N   0  0  0  0  0  2  0  0  0  0  0  0
  189.3880  177.1490  146.6160 C   0  0  0  0  0  0  0  0  0  0  0  0
  189.3840  176.6680  138.6420 C   0  0  1  0  0  3  0  0  0  0  0  0
  187.0260  177.0310  145.9700 C   0  0  0  0  0  2  0  0  0  0  0  0
  185.4040  178.2250  142.6770 C   0  0  1  0  0  0  0  0  0  0  0  0
  189.9180  177.3010  145.3340 C   0  0  0  0  0  0  0  0  0  0  0  0
  186.0670  177.2950  143.7100 C   0  0  0  0  0  2  0  0  0  0  0  0
  188.1070  178.5190  144.2630 N   0  0  0  0  0  2  0  0  0  0  0  0
  189.9060  177.9340  140.8670 C   0  0  1  0  0  3  0  0  0  0  0  0
  190.3640  177.9090  143.1650 C   0  0  2  0  0  3  0  0  0  0  0  0
  191.5700  177.2920  143.8280 C   0  0  0  0  0  2  0  0  0  0  0  0
  190.3650  177.1720  139.6550 C   0  0  0  0  0  0  0  0  0  0  0  0
  186.8490  178.0120  144.8090 C   0  0  2  0  0  3  0  0  0  0  0  0
  187.9670  176.6920  139.2020 C   0  0  0  0  0  2  0  0  0  0  0  0
  191.5820  176.3650  147.3120 C   0  0  0  0  0  3  0  0  0  0  0  0
  189.4740  177.4770  137.3580 C   0  0  0  0  0  1  0  0  0  0  0  0
  191.5550  176.9460  139.5060 O   0  0  0  0  0  0  0  0  0  0  0  0
  185.7910  179.8760  140.7790 C   0  0  0  0  0  1  0  0  0  0  0  0
  192.0520  176.5210  146.0380 N   0  0  0  0  0  0  0  0  0  0  0  0
  187.5840  178.0640  139.7600 C   0  0  1  0  0  3  0  0  0  0  0  0
  184.5400  179.2810  143.3890 C   0  0  0  0  0  2  0  0  0  0  0  0
  183.5510  179.0490  145.5590 O   0  0  0  0  0  1  0  0  0  0  0  0
  183.4100  178.6810  144.2210 C   0  0  0  0  0  2  0  0  0  0  0  0
  1  4  1  0  0  0  0
  3 14  1  0  0  0  0
  4 13  1  0  0  0  0
  5 17  1  0  0  0  0
  5  1  1  0  0  0  0
  6 13  1  0  0  0  0
  7 14  2  0  0  0  0
  7 27  1  0  0  0  0
  9 18  1  0  0  0  0
 10  2  1  0  0  0  0
 10  8  2  0  0  0  0
 11 22  1  0  0  0  0
 11 20  1  0  0  0  0
 12  2  1  0  0  0  0
 13 29  1  0  0  0  0
 13 15  1  0  0  0  0
 14 10  1  0  0  0  0
 15 21  1  0  0  0  0
 16  3  1  0  0  0  0
 16 21  1  0  0  0  0
 17  9  1  0  0  0  0
 18 19  1  0  0  0  0
 18  3  1  0  0  0  0
 19  7  1  0  0  0  0
 20 17  1  0  0  0  0
 21 12  1  0  0  0  0
 22 28  1  0  0  0  0
 23  8  1  0  0  0  0
 24 11  1  0  0  0  0
 25 20  2  0  0  0  0
 26  4  1  0  0  0  0
 27 23  2  0  0  0  0
 28  5  1  0  0  0  0
 28  1  1  0  0  0  0
 29 31  1  0  0  0  0
 31 30  1  0  0  0  0
M  END
>  <MODEL>
9

>  <REMARK>
 VINA RESULT:      -6.6      2.011      5.579
  Name = 
  2 active torsions:
  status: ('A' for Active; 'I' for Inactive)
    1  A    between atoms: C_14  and  C_24
    2  A    between atoms: C_19  and  C_24
                            x       y       z     vdW  Elec       q    Type
                         _______ _______ _______ _____ _____    ______ ____

>  <TORSDO>
F 2

$$$$
