=
 OpenBabel10222415143D

 34 37  0  0  1  0  0  0  0  0999 V2000
  188.8560  179.0130  136.9530 C   0  0  0  0  0  1  0  0  0  0  0  0
  189.4410  178.5930  139.3320 C   0  0  0  0  0  2  0  0  0  0  0  0
  188.9490  177.9510  138.0430 C   0  0  2  0  0  0  0  0  0  0  0  0
  190.0470  176.9590  137.6910 C   0  0  0  0  0  2  0  0  0  0  0  0
  190.6190  176.4820  139.0090 C   0  0  2  0  0  3  0  0  0  0  0  0
  190.3080  177.5600  140.0330 C   0  0  2  0  0  3  0  0  0  0  0  0
  185.8920  177.1960  136.0200 C   0  0  2  0  0  3  0  0  0  0  0  0
  186.0150  178.6050  139.3760 N   0  0  0  0  0  1  0  0  0  0  0  0
  187.0420  176.1840  136.0800 C   0  0  0  0  0  2  0  0  0  0  0  0
  187.5530  175.9890  137.5130 C   0  0  0  0  0  2  0  0  0  0  0  0
  187.6560  177.2560  138.2700 N   0  0  2  0  0  0  0  0  0  0  0  0
  185.4020  177.5150  137.3560 N   0  0  0  0  0  2  0  0  0  0  0  0
  186.4960  178.1590  138.0820 C   0  0  1  0  0  3  0  0  0  0  0  0
  184.7540  176.6500  135.1780 C   0  0  0  0  0  2  0  0  0  0  0  0
  185.0430  175.2830  134.7840 N   0  0  0  0  0  1  0  0  0  0  0  0
  190.4570  178.4270  142.8110 N   0  0  0  0  0  0  0  0  0  0  0  0
  190.3050  178.7170  144.1650 N   0  0  0  0  0  2  0  0  0  0  0  0
  189.6640  177.4710  142.4750 C   0  0  0  0  0  0  0  0  0  0  0  0
  188.8380  176.9560  143.5970 C   0  0  0  0  0  2  0  0  0  0  0  0
  189.2870  177.8580  144.7520 C   0  0  1  0  0  3  0  0  0  0  0  0
  189.5740  176.9690  141.1400 N   0  0  0  0  0  2  0  0  0  0  0  0
  189.8660  177.0430  145.8620 C   0  0  0  0  0  0  0  0  0  0  0  0
  189.0760  176.7180  146.9560 O   0  0  0  0  0  1  0  0  0  0  0  0
  191.0550  176.6300  145.8040 O   0  0  0  0  0  0  0  0  0  0  0  0
  192.0020  176.3190  138.8930 O   0  0  0  0  0  0  0  0  0  0  0  0
  192.2100  175.9380  137.5640 C   0  0  0  0  0  2  0  0  0  0  0  0
  192.8090  174.5450  137.5080 C   0  0  0  0  0  2  0  0  0  0  0  0
  193.5770  174.4070  136.3490 O   0  0  0  0  0  0  0  0  0  0  0  0
  197.0890  174.8570  136.5650 C   0  0  1  0  0  3  0  0  0  0  0  0
  195.2560  175.6530  135.2140 C   0  0  0  0  0  2  0  0  0  0  0  0
  194.6830  175.2330  136.5470 C   0  0  2  0  0  3  0  0  0  0  0  0
  196.7320  175.8400  135.4670 C   0  0  0  0  0  2  0  0  0  0  0  0
  197.9350  175.4730  137.4860 O   0  0  0  0  0  1  0  0  0  0  0  0
  195.7880  174.4630  137.2440 C   0  0  0  0  0  2  0  0  0  0  0  0
  2  6  1  0  0  0  0
  3  1  1  6  0  0  0
  3 11  1  0  0  0  0
  3  2  1  0  0  0  0
  4  3  1  0  0  0  0
  4  5  1  0  0  0  0
  5 25  1  6  0  0  0
  5  6  1  0  0  0  0
  6 21  1  1  0  0  0
  7 14  1  6  0  0  0
  7  9  1  0  0  0  0
  7 12  1  0  0  0  0
  9 10  1  0  0  0  0
 11 10  1  6  0  0  0
 12 13  1  0  0  0  0
 13 11  1  0  0  0  0
 13  8  1  1  0  0  0
 15 14  1  0  0  0  0
 16 17  1  0  0  0  0
 17 20  1  0  0  0  0
 18 16  2  0  0  0  0
 18 19  1  0  0  0  0
 19 20  1  0  0  0  0
 20 22  1  1  0  0  0
 21 18  1  0  0  0  0
 22 23  1  0  0  0  0
 24 22  2  0  0  0  0
 26 25  1  0  0  0  0
 27 26  1  0  0  0  0
 28 27  1  0  0  0  0
 29 34  1  0  0  0  0
 29 33  1  1  0  0  0
 30 32  1  0  0  0  0
 30 31  1  0  0  0  0
 31 28  1  6  0  0  0
 31 34  1  0  0  0  0
 32 29  1  0  0  0  0
M  END
>  <MODEL>
1

>  <REMARK>
 VINA RESULT:      -6.8      0.000      0.000
  Name = 
  9 active torsions:
  status: ('A' for Active; 'I' for Inactive)
    1  A    between atoms: C_1  and  C_10
    2  A    between atoms: C_6  and  C_30
    3  A    between atoms: O_11  and  C_12
    4  A    between atoms: O_11  and  C_31
    5  A    between atoms: C_12  and  C_26
    6  A    between atoms: O_15  and  C_16
    7  A    between atoms: O_15  and  C_26
    8  A    between atoms: N_20  and  C_25
    9  A    between atoms: N_33  and  C_34
                            x       y       z     vdW  Elec       q    Type
                         _______ _______ _______ _____ _____    ______ ____

>  <TORSDO>
F 9

$$$$
=
 OpenBabel10222415143D

 34 37  0  0  1  0  0  0  0  0999 V2000
  191.7120  176.7570  136.8940 C   0  0  0  0  0  1  0  0  0  0  0  0
  189.5480  177.9310  137.2310 C   0  0  0  0  0  2  0  0  0  0  0  0
  190.2860  176.6130  137.4120 C   0  0  2  0  0  0  0  0  0  0  0  0
  190.3120  176.4180  138.9200 C   0  0  0  0  0  2  0  0  0  0  0  0
  189.0400  177.0490  139.4470 C   0  0  2  0  0  3  0  0  0  0  0  0
  188.6020  178.0710  138.4120 C   0  0  2  0  0  3  0  0  0  0  0  0
  191.1680  173.6880  135.2510 C   0  0  2  0  0  3  0  0  0  0  0  0
  188.5390  176.1390  134.6660 N   0  0  0  0  0  1  0  0  0  0  0  0
  191.0860  173.5210  136.7730 C   0  0  0  0  0  2  0  0  0  0  0  0
  189.8330  174.1900  137.3510 C   0  0  0  0  0  2  0  0  0  0  0  0
  189.5480  175.5090  136.7460 N   0  0  2  0  0  0  0  0  0  0  0  0
  189.9160  174.2030  134.7110 N   0  0  0  0  0  2  0  0  0  0  0  0
  189.7120  175.5380  135.2720 C   0  0  1  0  0  3  0  0  0  0  0  0
  191.4980  172.3610  134.5940 C   0  0  0  0  0  2  0  0  0  0  0  0
  192.7880  171.8860  135.0600 N   0  0  0  0  0  1  0  0  0  0  0  0
  186.1840  178.9480  139.7820 N   0  0  0  0  0  0  0  0  0  0  0  0
  184.9120  179.3190  140.2130 N   0  0  0  0  0  2  0  0  0  0  0  0
  186.0980  178.2700  138.6920 C   0  0  0  0  0  0  0  0  0  0  0  0
  184.7040  178.0730  138.2190 C   0  0  0  0  0  2  0  0  0  0  0  0
  183.9040  178.8350  139.2820 C   0  0  1  0  0  3  0  0  0  0  0  0
  187.2420  177.7720  137.9940 N   0  0  0  0  0  2  0  0  0  0  0  0
  182.9470  177.9210  139.9730 C   0  0  0  0  0  0  0  0  0  0  0  0
  182.9910  176.5580  139.7140 O   0  0  0  0  0  0  0  0  0  0  0  0
  182.1140  178.3730  140.8040 O   0  0  0  0  0  1  0  0  0  0  0  0
  189.2950  177.6830  140.6650 O   0  0  0  0  0  0  0  0  0  0  0  0
  190.0330  176.7550  141.4070 C   0  0  0  0  0  2  0  0  0  0  0  0
  189.7610  176.9370  142.8890 C   0  0  0  0  0  2  0  0  0  0  0  0
  188.4420  177.3530  143.0810 O   0  0  0  0  0  0  0  0  0  0  0  0
  188.3070  177.6570  146.6130 C   0  0  1  0  0  3  0  0  0  0  0  0
  186.7670  177.4500  144.7680 C   0  0  0  0  0  2  0  0  0  0  0  0
  188.0790  176.8450  144.3280 C   0  0  2  0  0  3  0  0  0  0  0  0
  186.8390  177.4820  146.2750 C   0  0  0  0  0  2  0  0  0  0  0  0
  188.6450  176.8190  147.6740 O   0  0  0  0  0  1  0  0  0  0  0  0
  189.0950  177.2630  145.3740 C   0  0  0  0  0  2  0  0  0  0  0  0
  2  3  1  0  0  0  0
  2  6  1  0  0  0  0
  3  1  1  6  0  0  0
  3  4  1  0  0  0  0
  4  5  1  0  0  0  0
  5 25  1  1  0  0  0
  6 21  1  6  0  0  0
  6  5  1  0  0  0  0
  7 14  1  6  0  0  0
  7  9  1  0  0  0  0
  9 10  1  0  0  0  0
 11 10  1  1  0  0  0
 11  3  1  0  0  0  0
 12  7  1  0  0  0  0
 12 13  1  0  0  0  0
 13  8  1  6  0  0  0
 13 11  1  0  0  0  0
 14 15  1  0  0  0  0
 16 17  1  0  0  0  0
 18 16  2  0  0  0  0
 19 18  1  0  0  0  0
 19 20  1  0  0  0  0
 20 22  1  1  0  0  0
 20 17  1  0  0  0  0
 21 18  1  0  0  0  0
 22 24  1  0  0  0  0
 23 22  2  0  0  0  0
 25 26  1  0  0  0  0
 26 27  1  0  0  0  0
 27 28  1  0  0  0  0
 29 33  1  1  0  0  0
 30 32  1  0  0  0  0
 31 28  1  6  0  0  0
 31 30  1  0  0  0  0
 31 34  1  0  0  0  0
 32 29  1  0  0  0  0
 34 29  1  0  0  0  0
M  END
>  <MODEL>
2

>  <REMARK>
 VINA RESULT:      -6.7      3.501      7.664
  Name = 
  9 active torsions:
  status: ('A' for Active; 'I' for Inactive)
    1  A    between atoms: C_1  and  C_10
    2  A    between atoms: C_6  and  C_30
    3  A    between atoms: O_11  and  C_12
    4  A    between atoms: O_11  and  C_31
    5  A    between atoms: C_12  and  C_26
    6  A    between atoms: O_15  and  C_16
    7  A    between atoms: O_15  and  C_26
    8  A    between atoms: N_20  and  C_25
    9  A    between atoms: N_33  and  C_34
                            x       y       z     vdW  Elec       q    Type
                         _______ _______ _______ _____ _____    ______ ____

>  <TORSDO>
F 9

$$$$
=
 OpenBabel10222415143D

 34 37  0  0  1  0  0  0  0  0999 V2000
  183.1420  176.5830  135.2830 C   0  0  0  0  0  1  0  0  0  0  0  0
  182.9830  177.8840  137.3950 C   0  0  0  0  0  2  0  0  0  0  0  0
  183.5900  176.6530  136.7390 C   0  0  2  0  0  0  0  0  0  0  0  0
  185.0870  176.9140  136.7960 C   0  0  0  0  0  2  0  0  0  0  0  0
  185.3250  177.7200  138.0560 C   0  0  2  0  0  3  0  0  0  0  0  0
  184.0100  178.4040  138.3880 C   0  0  2  0  0  3  0  0  0  0  0  0
  182.8030  173.0870  135.9190 C   0  0  2  0  0  3  0  0  0  0  0  0
  180.9180  175.3080  138.1060 N   0  0  0  0  0  1  0  0  0  0  0  0
  184.2430  173.5000  136.2460 C   0  0  0  0  0  2  0  0  0  0  0  0
  184.3070  174.4120  137.4760 C   0  0  0  0  0  2  0  0  0  0  0  0
  183.2330  175.4300  137.5020 N   0  0  2  0  0  0  0  0  0  0  0  0
  181.8950  173.4440  137.0030 N   0  0  0  0  0  2  0  0  0  0  0  0
  181.9010  174.9010  137.1200 C   0  0  1  0  0  3  0  0  0  0  0  0
  182.7290  171.5940  135.6640 C   0  0  0  0  0  2  0  0  0  0  0  0
  183.8150  170.9210  136.3520 N   0  0  0  0  0  1  0  0  0  0  0  0
  185.2540  179.3960  140.8290 N   0  0  0  0  0  0  0  0  0  0  0  0
  185.6310  179.7960  142.1090 N   0  0  0  0  0  2  0  0  0  0  0  0
  184.2430  178.6020  140.8960 C   0  0  0  0  0  0  0  0  0  0  0  0
  183.7820  178.3390  142.2830 C   0  0  0  0  0  2  0  0  0  0  0  0
  184.7490  179.2020  143.1020 C   0  0  1  0  0  3  0  0  0  0  0  0
  183.6140  178.0460  139.7400 N   0  0  0  0  0  2  0  0  0  0  0  0
  185.5270  178.3580  144.0570 C   0  0  0  0  0  0  0  0  0  0  0  0
  186.4650  177.4590  143.5680 O   0  0  0  0  0  0  0  0  0  0  0  0
  185.3550  178.4680  145.3000 O   0  0  0  0  0  1  0  0  0  0  0  0
  186.3160  178.6770  137.8260 O   0  0  0  0  0  0  0  0  0  0  0  0
  187.2100  178.0650  136.9420 C   0  0  0  0  0  2  0  0  0  0  0  0
  188.6390  178.3940  137.3330 C   0  0  0  0  0  2  0  0  0  0  0  0
  189.2030  177.3150  138.0160 O   0  0  0  0  0  0  0  0  0  0  0  0
  189.5390  177.4030  141.5470 C   0  0  1  0  0  3  0  0  0  0  0  0
  190.9400  177.0310  139.6180 C   0  0  0  0  0  2  0  0  0  0  0  0
  189.7660  177.8670  139.1670 C   0  0  2  0  0  3  0  0  0  0  0  0
  190.9790  177.1940  141.1180 C   0  0  0  0  0  2  0  0  0  0  0  0
  189.4810  178.4150  142.5040 O   0  0  0  0  0  1  0  0  0  0  0  0
  188.7660  177.8210  140.3070 C   0  0  0  0  0  2  0  0  0  0  0  0
  2  6  1  0  0  0  0
  3  1  1  6  0  0  0
  3  4  1  0  0  0  0
  3  2  1  0  0  0  0
  3 11  1  0  0  0  0
  4  5  1  0  0  0  0
  5 25  1  6  0  0  0
  5  6  1  0  0  0  0
  6 21  1  1  0  0  0
  7 14  1  1  0  0  0
  7  9  1  0  0  0  0
  7 12  1  0  0  0  0
  9 10  1  0  0  0  0
 11 10  1  6  0  0  0
 12 13  1  0  0  0  0
 13 11  1  0  0  0  0
 13  8  1  1  0  0  0
 14 15  1  0  0  0  0
 16 18  2  0  0  0  0
 16 17  1  0  0  0  0
 17 20  1  0  0  0  0
 18 19  1  0  0  0  0
 19 20  1  0  0  0  0
 20 22  1  1  0  0  0
 21 18  1  0  0  0  0
 22 24  1  0  0  0  0
 23 22  2  0  0  0  0
 26 27  1  0  0  0  0
 26 25  1  0  0  0  0
 27 28  1  0  0  0  0
 29 33  1  1  0  0  0
 30 32  1  0  0  0  0
 31 28  1  6  0  0  0
 31 30  1  0  0  0  0
 31 34  1  0  0  0  0
 32 29  1  0  0  0  0
 34 29  1  0  0  0  0
M  END
>  <MODEL>
3

>  <REMARK>
 VINA RESULT:      -6.6      4.046      6.072
  Name = 
  9 active torsions:
  status: ('A' for Active; 'I' for Inactive)
    1  A    between atoms: C_1  and  C_10
    2  A    between atoms: C_6  and  C_30
    3  A    between atoms: O_11  and  C_12
    4  A    between atoms: O_11  and  C_31
    5  A    between atoms: C_12  and  C_26
    6  A    between atoms: O_15  and  C_16
    7  A    between atoms: O_15  and  C_26
    8  A    between atoms: N_20  and  C_25
    9  A    between atoms: N_33  and  C_34
                            x       y       z     vdW  Elec       q    Type
                         _______ _______ _______ _____ _____    ______ ____

>  <TORSDO>
F 9

$$$$
=
 OpenBabel10222415143D

 34 37  0  0  1  0  0  0  0  0999 V2000
  189.0860  179.1120  137.0450 C   0  0  0  0  0  1  0  0  0  0  0  0
  186.7970  178.2130  136.6810 C   0  0  0  0  0  2  0  0  0  0  0  0
  188.0560  178.0970  137.5270 C   0  0  2  0  0  0  0  0  0  0  0  0
  187.5880  178.4740  138.9240 C   0  0  0  0  0  2  0  0  0  0  0  0
  186.1490  178.0140  139.0240 C   0  0  2  0  0  3  0  0  0  0  0  0
  185.6210  177.9310  137.6010 C   0  0  2  0  0  3  0  0  0  0  0  0
  191.4230  176.4660  137.4450 C   0  0  2  0  0  3  0  0  0  0  0  0
  188.5660  175.7180  135.3140 N   0  0  0  0  0  1  0  0  0  0  0  0
  190.7320  176.7320  138.7870 C   0  0  0  0  0  2  0  0  0  0  0  0
  189.2540  176.3260  138.7550 C   0  0  0  0  0  2  0  0  0  0  0  0
  188.5750  176.7050  137.4970 N   0  0  2  0  0  0  0  0  0  0  0  0
  190.5810  175.6580  136.5710 N   0  0  0  0  0  2  0  0  0  0  0  0
  189.3770  176.4340  136.2800 C   0  0  1  0  0  3  0  0  0  0  0  0
  192.7490  175.7630  137.6660 C   0  0  0  0  0  2  0  0  0  0  0  0
  193.7340  176.7090  138.1590 N   0  0  0  0  0  1  0  0  0  0  0  0
  182.8180  177.2260  137.2300 N   0  0  0  0  0  0  0  0  0  0  0  0
  181.5710  176.6750  136.9450 N   0  0  0  0  0  2  0  0  0  0  0  0
  183.7280  176.3200  137.1440 C   0  0  0  0  0  0  0  0  0  0  0  0
  183.2040  174.9790  136.7830 C   0  0  0  0  0  2  0  0  0  0  0  0
  181.7060  175.2620  136.6250 C   0  0  1  0  0  3  0  0  0  0  0  0
  185.1150  176.5890  137.3580 N   0  0  0  0  0  2  0  0  0  0  0  0
  180.9100  174.4310  137.5770 C   0  0  0  0  0  0  0  0  0  0  0  0
  180.2250  173.3190  137.1080 O   0  0  0  0  0  0  0  0  0  0  0  0
  180.8730  174.7180  138.8040 O   0  0  0  0  0  1  0  0  0  0  0  0
  185.4040  178.9420  139.7540 O   0  0  0  0  0  0  0  0  0  0  0  0
  185.9920  178.9570  141.0230 C   0  0  0  0  0  2  0  0  0  0  0  0
  184.9210  178.8700  142.0960 C   0  0  0  0  0  2  0  0  0  0  0  0
  185.1840  177.7890  142.9390 O   0  0  0  0  0  0  0  0  0  0  0  0
  185.3350  178.3760  146.4340 C   0  0  1  0  0  3  0  0  0  0  0  0
  186.6610  177.2890  144.7370 C   0  0  0  0  0  2  0  0  0  0  0  0
  185.8240  178.3410  144.0490 C   0  0  2  0  0  3  0  0  0  0  0  0
  186.6650  177.6870  146.1940 C   0  0  0  0  0  2  0  0  0  0  0  0
  185.5340  179.5100  147.2220 O   0  0  0  0  0  1  0  0  0  0  0  0
  184.7960  178.7830  145.0740 C   0  0  0  0  0  2  0  0  0  0  0  0
  2  3  1  0  0  0  0
  2  6  1  0  0  0  0
  3  1  1  6  0  0  0
  3  4  1  0  0  0  0
  4  5  1  0  0  0  0
  5 25  1  1  0  0  0
  6 21  1  6  0  0  0
  6  5  1  0  0  0  0
  7 14  1  1  0  0  0
  7  9  1  0  0  0  0
 10  9  1  0  0  0  0
 11  3  1  0  0  0  0
 11 10  1  1  0  0  0
 12  7  1  0  0  0  0
 13  8  1  6  0  0  0
 13 12  1  0  0  0  0
 13 11  1  0  0  0  0
 14 15  1  0  0  0  0
 17 16  1  0  0  0  0
 18 16  2  0  0  0  0
 18 21  1  0  0  0  0
 19 18  1  0  0  0  0
 20 19  1  0  0  0  0
 20 17  1  0  0  0  0
 20 22  1  1  0  0  0
 22 24  1  0  0  0  0
 23 22  2  0  0  0  0
 25 26  1  0  0  0  0
 26 27  1  0  0  0  0
 27 28  1  0  0  0  0
 29 33  1  1  0  0  0
 30 32  1  0  0  0  0
 31 28  1  6  0  0  0
 31 30  1  0  0  0  0
 31 34  1  0  0  0  0
 32 29  1  0  0  0  0
 34 29  1  0  0  0  0
M  END
>  <MODEL>
4

>  <REMARK>
 VINA RESULT:      -6.4      4.349      9.378
  Name = 
  9 active torsions:
  status: ('A' for Active; 'I' for Inactive)
    1  A    between atoms: C_1  and  C_10
    2  A    between atoms: C_6  and  C_30
    3  A    between atoms: O_11  and  C_12
    4  A    between atoms: O_11  and  C_31
    5  A    between atoms: C_12  and  C_26
    6  A    between atoms: O_15  and  C_16
    7  A    between atoms: O_15  and  C_26
    8  A    between atoms: N_20  and  C_25
    9  A    between atoms: N_33  and  C_34
                            x       y       z     vdW  Elec       q    Type
                         _______ _______ _______ _____ _____    ______ ____

>  <TORSDO>
F 9

$$$$
=
 OpenBabel10222415143D

 34 37  0  0  1  0  0  0  0  0999 V2000
  191.2140  175.6070  144.0930 C   0  0  0  0  0  1  0  0  0  0  0  0
  190.0940  176.0110  141.9110 C   0  0  0  0  0  2  0  0  0  0  0  0
  190.8160  176.6710  143.0770 C   0  0  2  0  0  0  0  0  0  0  0  0
  192.0660  177.2580  142.4420 C   0  0  0  0  0  2  0  0  0  0  0  0
  191.6810  177.6400  141.0280 C   0  0  2  0  0  3  0  0  0  0  0  0
  190.4790  176.7850  140.6610 C   0  0  2  0  0  3  0  0  0  0  0  0
  188.8420  177.1160  146.2250 C   0  0  2  0  0  3  0  0  0  0  0  0
  187.7320  177.7850  142.8220 N   0  0  0  0  0  1  0  0  0  0  0  0
  190.3000  177.5860  146.1600 C   0  0  0  0  0  2  0  0  0  0  0  0
  190.5920  178.3530  144.8660 C   0  0  0  0  0  2  0  0  0  0  0  0
  189.9710  177.7380  143.6730 N   0  0  2  0  0  0  0  0  0  0  0  0
  188.0420  177.7380  145.1770 N   0  0  0  0  0  2  0  0  0  0  0  0
  188.5750  177.2880  143.8920 C   0  0  1  0  0  3  0  0  0  0  0  0
  188.2450  177.4410  147.5810 C   0  0  0  0  0  2  0  0  0  0  0  0
  189.1720  178.2530  148.3480 N   0  0  0  0  0  1  0  0  0  0  0  0
  188.7680  176.3760  138.3380 N   0  0  0  0  0  0  0  0  0  0  0  0
  187.7880  176.3390  137.3480 N   0  0  0  0  0  2  0  0  0  0  0  0
  188.5560  177.3690  139.1290 C   0  0  0  0  0  0  0  0  0  0  0  0
  187.3630  178.1760  138.7680 C   0  0  0  0  0  2  0  0  0  0  0  0
  186.8350  177.4210  137.5430 C   0  0  1  0  0  3  0  0  0  0  0  0
  189.3830  177.6520  140.2600 N   0  0  0  0  0  2  0  0  0  0  0  0
  186.8070  178.3150  136.3470 C   0  0  0  0  0  0  0  0  0  0  0  0
  187.2000  179.6400  136.4730 O   0  0  0  0  0  1  0  0  0  0  0  0
  186.4480  177.8730  135.2230 O   0  0  0  0  0  0  0  0  0  0  0  0
  192.7400  177.3710  140.1590 O   0  0  0  0  0  0  0  0  0  0  0  0
  192.1420  176.8110  139.0250 C   0  0  0  0  0  2  0  0  0  0  0  0
  193.2070  176.3480  138.0470 C   0  0  0  0  0  2  0  0  0  0  0  0
  194.3050  175.8450  138.7470 O   0  0  0  0  0  0  0  0  0  0  0  0
  195.1990  172.4840  138.0460 C   0  0  1  0  0  3  0  0  0  0  0  0
  193.7870  174.2000  137.1070 C   0  0  0  0  0  2  0  0  0  0  0  0
  194.8710  174.8920  137.8990 C   0  0  2  0  0  3  0  0  0  0  0  0
  194.3180  172.8100  136.8550 C   0  0  0  0  0  2  0  0  0  0  0  0
  196.3660  171.8600  137.6060 O   0  0  0  0  0  1  0  0  0  0  0  0
  195.5420  173.8040  138.7150 C   0  0  0  0  0  2  0  0  0  0  0  0
  2  3  1  0  0  0  0
  3 11  1  0  0  0  0
  3  1  1  1  0  0  0
  4  3  1  0  0  0  0
  5 25  1  6  0  0  0
  5  4  1  0  0  0  0
  6 21  1  1  0  0  0
  6  5  1  0  0  0  0
  6  2  1  0  0  0  0
  7 14  1  1  0  0  0
  9  7  1  0  0  0  0
 10  9  1  0  0  0  0
 11 13  1  0  0  0  0
 11 10  1  1  0  0  0
 12  7  1  0  0  0  0
 13  8  1  6  0  0  0
 13 12  1  0  0  0  0
 14 15  1  0  0  0  0
 16 18  2  0  0  0  0
 17 20  1  0  0  0  0
 17 16  1  0  0  0  0
 18 21  1  0  0  0  0
 19 18  1  0  0  0  0
 20 22  1  6  0  0  0
 20 19  1  0  0  0  0
 22 23  1  0  0  0  0
 24 22  2  0  0  0  0
 26 25  1  0  0  0  0
 27 28  1  0  0  0  0
 27 26  1  0  0  0  0
 29 33  1  6  0  0  0
 29 34  1  0  0  0  0
 30 31  1  0  0  0  0
 31 34  1  0  0  0  0
 31 28  1  1  0  0  0
 32 30  1  0  0  0  0
 32 29  1  0  0  0  0
M  END
>  <MODEL>
5

>  <REMARK>
 VINA RESULT:      -6.3      2.616      6.846
  Name = 
  9 active torsions:
  status: ('A' for Active; 'I' for Inactive)
    1  A    between atoms: C_1  and  C_10
    2  A    between atoms: C_6  and  C_30
    3  A    between atoms: O_11  and  C_12
    4  A    between atoms: O_11  and  C_31
    5  A    between atoms: C_12  and  C_26
    6  A    between atoms: O_15  and  C_16
    7  A    between atoms: O_15  and  C_26
    8  A    between atoms: N_20  and  C_25
    9  A    between atoms: N_33  and  C_34
                            x       y       z     vdW  Elec       q    Type
                         _______ _______ _______ _____ _____    ______ ____

>  <TORSDO>
F 9

$$$$
=
 OpenBabel10222415143D

 34 37  0  0  1  0  0  0  0  0999 V2000
  189.9230  176.1200  143.0170 C   0  0  0  0  0  1  0  0  0  0  0  0
  187.5490  176.7650  142.6580 C   0  0  0  0  0  2  0  0  0  0  0  0
  188.9340  177.2800  143.0220 C   0  0  2  0  0  0  0  0  0  0  0  0
  189.2710  178.2380  141.8910 C   0  0  0  0  0  2  0  0  0  0  0  0
  187.9560  178.8400  141.4430 C   0  0  2  0  0  3  0  0  0  0  0  0
  186.8690  177.8620  141.8560 C   0  0  2  0  0  3  0  0  0  0  0  0
  190.4290  176.7770  146.4160 C   0  0  2  0  0  3  0  0  0  0  0  0
  186.9480  177.5070  145.6340 N   0  0  0  0  0  1  0  0  0  0  0  0
  191.1550  177.6410  145.3780 C   0  0  0  0  0  2  0  0  0  0  0  0
  190.1960  178.6070  144.6730 C   0  0  0  0  0  2  0  0  0  0  0  0
  188.8970  177.9880  144.3270 N   0  0  2  0  0  0  0  0  0  0  0  0
  189.0790  177.2700  146.6580 N   0  0  0  0  0  2  0  0  0  0  0  0
  188.3330  177.1430  145.4060 C   0  0  1  0  0  3  0  0  0  0  0  0
  191.2050  176.7580  147.7190 C   0  0  0  0  0  2  0  0  0  0  0  0
  192.4620  176.0560  147.5360 N   0  0  0  0  0  1  0  0  0  0  0  0
  183.9770  177.7700  141.5060 N   0  0  0  0  0  0  0  0  0  0  0  0
  182.5870  177.8060  141.5820 N   0  0  0  0  0  2  0  0  0  0  0  0
  184.4890  178.4310  142.4850 C   0  0  0  0  0  0  0  0  0  0  0  0
  183.4780  179.0340  143.3910 C   0  0  0  0  0  2  0  0  0  0  0  0
  182.1670  178.5610  142.7530 C   0  0  1  0  0  3  0  0  0  0  0  0
  185.8980  178.5520  142.6890 N   0  0  0  0  0  2  0  0  0  0  0  0
  181.3270  179.7280  142.3500 C   0  0  0  0  0  0  0  0  0  0  0  0
  181.1310  179.9990  141.0030 O   0  0  0  0  0  0  0  0  0  0  0  0
  180.7790  180.4560  143.2200 O   0  0  0  0  0  1  0  0  0  0  0  0
  187.9540  178.9970  140.0560 O   0  0  0  0  0  0  0  0  0  0  0  0
  189.0720  178.2840  139.6110 C   0  0  0  0  0  2  0  0  0  0  0  0
  189.1160  178.2730  138.0940 C   0  0  0  0  0  2  0  0  0  0  0  0
  188.1640  179.1600  137.5870 O   0  0  0  0  0  0  0  0  0  0  0  0
  187.3040  176.0620  136.0880 C   0  0  1  0  0  3  0  0  0  0  0  0
  186.1910  177.8820  137.2140 C   0  0  0  0  0  2  0  0  0  0  0  0
  187.4670  178.4320  136.6230 C   0  0  2  0  0  3  0  0  0  0  0  0
  185.9360  176.5990  136.4620 C   0  0  0  0  0  2  0  0  0  0  0  0
  187.2770  175.5910  134.7760 O   0  0  0  0  0  1  0  0  0  0  0  0
  188.2790  177.2220  136.2000 C   0  0  0  0  0  2  0  0  0  0  0  0
  2  3  1  0  0  0  0
  3  1  1  1  0  0  0
  3 11  1  0  0  0  0
  4  3  1  0  0  0  0
  5 25  1  6  0  0  0
  5  6  1  0  0  0  0
  5  4  1  0  0  0  0
  6  2  1  0  0  0  0
  6 21  1  1  0  0  0
  7 12  1  0  0  0  0
  7 14  1  1  0  0  0
  9  7  1  0  0  0  0
 10  9  1  0  0  0  0
 11 10  1  1  0  0  0
 11 13  1  0  0  0  0
 13  8  1  1  0  0  0
 13 12  1  0  0  0  0
 15 14  1  0  0  0  0
 16 17  1  0  0  0  0
 16 18  2  0  0  0  0
 17 20  1  0  0  0  0
 18 21  1  0  0  0  0
 18 19  1  0  0  0  0
 20 22  1  6  0  0  0
 20 19  1  0  0  0  0
 22 24  1  0  0  0  0
 23 22  2  0  0  0  0
 26 25  1  0  0  0  0
 27 26  1  0  0  0  0
 28 27  1  0  0  0  0
 29 33  1  6  0  0  0
 29 34  1  0  0  0  0
 29 32  1  0  0  0  0
 31 30  1  0  0  0  0
 31 28  1  1  0  0  0
 32 30  1  0  0  0  0
 34 31  1  0  0  0  0
M  END
>  <MODEL>
6

>  <REMARK>
 VINA RESULT:      -6.3      4.770      8.319
  Name = 
  9 active torsions:
  status: ('A' for Active; 'I' for Inactive)
    1  A    between atoms: C_1  and  C_10
    2  A    between atoms: C_6  and  C_30
    3  A    between atoms: O_11  and  C_12
    4  A    between atoms: O_11  and  C_31
    5  A    between atoms: C_12  and  C_26
    6  A    between atoms: O_15  and  C_16
    7  A    between atoms: O_15  and  C_26
    8  A    between atoms: N_20  and  C_25
    9  A    between atoms: N_33  and  C_34
                            x       y       z     vdW  Elec       q    Type
                         _______ _______ _______ _____ _____    ______ ____

>  <TORSDO>
F 9

$$$$
=
 OpenBabel10222415143D

 34 37  0  0  1  0  0  0  0  0999 V2000
  187.1780  177.0520  142.9530 C   0  0  0  0  0  1  0  0  0  0  0  0
  189.0680  176.5830  141.4090 C   0  0  0  0  0  2  0  0  0  0  0  0
  188.3120  177.6770  142.1490 C   0  0  2  0  0  0  0  0  0  0  0  0
  189.3500  178.2520  143.1000 C   0  0  0  0  0  2  0  0  0  0  0  0
  190.6840  178.1200  142.3970 C   0  0  2  0  0  3  0  0  0  0  0  0
  190.5290  177.0010  141.3800 C   0  0  2  0  0  3  0  0  0  0  0  0
  185.0320  178.6270  140.6180 C   0  0  2  0  0  3  0  0  0  0  0  0
  188.2070  178.1540  138.8970 N   0  0  0  0  0  1  0  0  0  0  0  0
  185.4950  179.2960  141.9180 C   0  0  0  0  0  2  0  0  0  0  0  0
  186.9660  179.7200  141.8450 C   0  0  0  0  0  2  0  0  0  0  0  0
  187.8310  178.7100  141.1970 N   0  0  2  0  0  0  0  0  0  0  0  0
  186.0180  178.8000  139.5580 N   0  0  0  0  0  2  0  0  0  0  0  0
  187.2380  178.1120  139.9760 C   0  0  1  0  0  3  0  0  0  0  0  0
  183.7010  179.2040  140.1750 C   0  0  0  0  0  2  0  0  0  0  0  0
  183.9080  180.1480  139.0910 N   0  0  0  0  0  1  0  0  0  0  0  0
  191.2920  175.3610  139.0950 N   0  0  0  0  0  0  0  0  0  0  0  0
  191.5950  174.7840  137.8640 N   0  0  0  0  0  2  0  0  0  0  0  0
  191.2000  176.6390  138.9710 C   0  0  0  0  0  0  0  0  0  0  0  0
  191.4430  177.1240  137.5890 C   0  0  0  0  0  2  0  0  0  0  0  0
  191.6890  175.8100  136.8370 C   0  0  1  0  0  3  0  0  0  0  0  0
  190.8730  177.5040  140.0610 N   0  0  0  0  0  2  0  0  0  0  0  0
  193.0470  175.8070  136.2160 C   0  0  0  0  0  0  0  0  0  0  0  0
  194.1090  176.3940  136.8880 O   0  0  0  0  0  1  0  0  0  0  0  0
  193.2400  175.2600  135.0970 O   0  0  0  0  0  0  0  0  0  0  0  0
  191.6770  177.7900  143.3220 O   0  0  0  0  0  0  0  0  0  0  0  0
  191.1770  178.2180  144.5550 C   0  0  0  0  0  2  0  0  0  0  0  0
  191.3600  177.1330  145.6000 C   0  0  0  0  0  2  0  0  0  0  0  0
  190.1170  176.6020  145.9520 O   0  0  0  0  0  0  0  0  0  0  0  0
  187.2240  177.8780  147.5590 C   0  0  1  0  0  3  0  0  0  0  0  0
  189.5800  177.6460  148.0220 C   0  0  0  0  0  2  0  0  0  0  0  0
  189.4160  177.6650  146.5210 C   0  0  2  0  0  3  0  0  0  0  0  0
  188.3030  178.2450  148.5600 C   0  0  0  0  0  2  0  0  0  0  0  0
  186.3970  178.9790  147.3410 O   0  0  0  0  0  1  0  0  0  0  0  0
  187.9290  177.5000  146.2680 C   0  0  0  0  0  2  0  0  0  0  0  0
  2  3  1  0  0  0  0
  3  1  1  1  0  0  0
  3  4  1  0  0  0  0
  5  4  1  0  0  0  0
  5 25  1  1  0  0  0
  6 21  1  6  0  0  0
  6  2  1  0  0  0  0
  6  5  1  0  0  0  0
  7 14  1  6  0  0  0
  7  9  1  0  0  0  0
 10  9  1  0  0  0  0
 11 10  1  1  0  0  0
 11  3  1  0  0  0  0
 12 13  1  0  0  0  0
 12  7  1  0  0  0  0
 13  8  1  6  0  0  0
 13 11  1  0  0  0  0
 15 14  1  0  0  0  0
 17 16  1  0  0  0  0
 18 16  2  0  0  0  0
 18 21  1  0  0  0  0
 19 18  1  0  0  0  0
 20 22  1  1  0  0  0
 20 19  1  0  0  0  0
 20 17  1  0  0  0  0
 22 23  1  0  0  0  0
 24 22  2  0  0  0  0
 25 26  1  0  0  0  0
 26 27  1  0  0  0  0
 27 28  1  0  0  0  0
 29 33  1  6  0  0  0
 29 32  1  0  0  0  0
 30 32  1  0  0  0  0
 31 28  1  6  0  0  0
 31 30  1  0  0  0  0
 34 31  1  0  0  0  0
 34 29  1  0  0  0  0
M  END
>  <MODEL>
7

>  <REMARK>
 VINA RESULT:      -6.2      2.834      8.321
  Name = 
  9 active torsions:
  status: ('A' for Active; 'I' for Inactive)
    1  A    between atoms: C_1  and  C_10
    2  A    between atoms: C_6  and  C_30
    3  A    between atoms: O_11  and  C_12
    4  A    between atoms: O_11  and  C_31
    5  A    between atoms: C_12  and  C_26
    6  A    between atoms: O_15  and  C_16
    7  A    between atoms: O_15  and  C_26
    8  A    between atoms: N_20  and  C_25
    9  A    between atoms: N_33  and  C_34
                            x       y       z     vdW  Elec       q    Type
                         _______ _______ _______ _____ _____    ______ ____

>  <TORSDO>
F 9

$$$$
=
 OpenBabel10222415143D

 34 37  0  0  1  0  0  0  0  0999 V2000
  189.9290  176.1330  143.0080 C   0  0  0  0  0  1  0  0  0  0  0  0
  187.5510  176.7580  142.6450 C   0  0  0  0  0  2  0  0  0  0  0  0
  188.9300  177.2840  143.0150 C   0  0  2  0  0  0  0  0  0  0  0  0
  189.2620  178.2500  141.8880 C   0  0  0  0  0  2  0  0  0  0  0  0
  187.9420  178.8410  141.4390 C   0  0  2  0  0  3  0  0  0  0  0  0
  186.8630  177.8520  141.8450 C   0  0  2  0  0  3  0  0  0  0  0  0
  190.4400  176.7960  146.4040 C   0  0  2  0  0  3  0  0  0  0  0  0
  186.9450  177.4680  145.6300 N   0  0  0  0  0  1  0  0  0  0  0  0
  191.1480  177.6760  145.3670 C   0  0  0  0  0  2  0  0  0  0  0  0
  190.1710  178.6280  144.6680 C   0  0  0  0  0  2  0  0  0  0  0  0
  188.8830  177.9870  144.3220 N   0  0  2  0  0  0  0  0  0  0  0  0
  189.0810  177.2650  146.6500 N   0  0  0  0  0  2  0  0  0  0  0  0
  188.3360  177.1280  145.3990 C   0  0  1  0  0  3  0  0  0  0  0  0
  191.2180  176.7860  147.7060 C   0  0  0  0  0  2  0  0  0  0  0  0
  192.4300  176.0020  147.5510 N   0  0  0  0  0  1  0  0  0  0  0  0
  183.9760  177.7770  141.4550 N   0  0  0  0  0  0  0  0  0  0  0  0
  182.5850  177.8170  141.5140 N   0  0  0  0  0  2  0  0  0  0  0  0
  184.4760  178.4180  142.4530 C   0  0  0  0  0  0  0  0  0  0  0  0
  183.4560  179.0080  143.3560 C   0  0  0  0  0  2  0  0  0  0  0  0
  182.1520  178.5520  142.6920 C   0  0  1  0  0  3  0  0  0  0  0  0
  185.8830  178.5300  142.6780 N   0  0  0  0  0  2  0  0  0  0  0  0
  181.3220  179.7300  142.3000 C   0  0  0  0  0  0  0  0  0  0  0  0
  180.7220  180.5030  143.2840 O   0  0  0  0  0  1  0  0  0  0  0  0
  181.1780  180.0390  141.0870 O   0  0  0  0  0  0  0  0  0  0  0  0
  187.9430  179.0030  140.0520 O   0  0  0  0  0  0  0  0  0  0  0  0
  189.0300  178.2480  139.6010 C   0  0  0  0  0  2  0  0  0  0  0  0
  188.6080  177.3630  138.4430 C   0  0  0  0  0  2  0  0  0  0  0  0
  189.4710  176.2690  138.3450 O   0  0  0  0  0  0  0  0  0  0  0  0
  192.8260  175.9080  137.2500 C   0  0  1  0  0  3  0  0  0  0  0  0
  190.6230  176.0350  136.2760 C   0  0  0  0  0  2  0  0  0  0  0  0
  190.5650  176.7340  137.6130 C   0  0  2  0  0  3  0  0  0  0  0  0
  192.0910  175.9870  135.9260 C   0  0  0  0  0  2  0  0  0  0  0  0
  193.9350  176.7530  137.2190 O   0  0  0  0  0  1  0  0  0  0  0  0
  191.8550  176.3720  138.3230 C   0  0  0  0  0  2  0  0  0  0  0  0
  2  3  1  0  0  0  0
  3  1  1  1  0  0  0
  3 11  1  0  0  0  0
  4  3  1  0  0  0  0
  5 25  1  6  0  0  0
  5  6  1  0  0  0  0
  5  4  1  0  0  0  0
  6  2  1  0  0  0  0
  6 21  1  1  0  0  0
  7 12  1  0  0  0  0
  7 14  1  1  0  0  0
  9  7  1  0  0  0  0
 10  9  1  0  0  0  0
 11 10  1  1  0  0  0
 11 13  1  0  0  0  0
 13  8  1  1  0  0  0
 13 12  1  0  0  0  0
 15 14  1  0  0  0  0
 16 17  1  0  0  0  0
 16 18  2  0  0  0  0
 17 20  1  0  0  0  0
 18 21  1  0  0  0  0
 18 19  1  0  0  0  0
 20 22  1  6  0  0  0
 20 19  1  0  0  0  0
 22 23  1  0  0  0  0
 24 22  2  0  0  0  0
 26 25  1  0  0  0  0
 27 26  1  0  0  0  0
 28 27  1  0  0  0  0
 29 33  1  6  0  0  0
 29 34  1  0  0  0  0
 30 31  1  0  0  0  0
 31 34  1  0  0  0  0
 31 28  1  1  0  0  0
 32 30  1  0  0  0  0
 32 29  1  0  0  0  0
M  END
>  <MODEL>
8

>  <REMARK>
 VINA RESULT:      -6.2      3.890      7.443
  Name = 
  9 active torsions:
  status: ('A' for Active; 'I' for Inactive)
    1  A    between atoms: C_1  and  C_10
    2  A    between atoms: C_6  and  C_30
    3  A    between atoms: O_11  and  C_12
    4  A    between atoms: O_11  and  C_31
    5  A    between atoms: C_12  and  C_26
    6  A    between atoms: O_15  and  C_16
    7  A    between atoms: O_15  and  C_26
    8  A    between atoms: N_20  and  C_25
    9  A    between atoms: N_33  and  C_34
                            x       y       z     vdW  Elec       q    Type
                         _______ _______ _______ _____ _____    ______ ____

>  <TORSDO>
F 9

$$$$
=
 OpenBabel10222415143D

 34 37  0  0  1  0  0  0  0  0999 V2000
  192.4500  173.7050  136.0780 C   0  0  0  0  0  1  0  0  0  0  0  0
  191.5690  174.8590  138.0950 C   0  0  0  0  0  2  0  0  0  0  0  0
  192.2330  175.0610  136.7410 C   0  0  2  0  0  0  0  0  0  0  0  0
  191.2040  175.8530  135.9490 C   0  0  0  0  0  2  0  0  0  0  0  0
  190.4730  176.7160  136.9560 C   0  0  2  0  0  3  0  0  0  0  0  0
  190.6340  176.0380  138.3060 C   0  0  2  0  0  3  0  0  0  0  0  0
  195.7510  174.7510  135.5020 C   0  0  2  0  0  3  0  0  0  0  0  0
  194.6720  175.3660  138.9260 N   0  0  0  0  0  1  0  0  0  0  0  0
  194.7300  175.5800  134.7150 C   0  0  0  0  0  2  0  0  0  0  0  0
  193.9090  176.4910  135.6350 C   0  0  0  0  0  2  0  0  0  0  0  0
  193.4960  175.8280  136.8910 N   0  0  2  0  0  0  0  0  0  0  0  0
  195.8650  175.2240  136.8760 N   0  0  0  0  0  2  0  0  0  0  0  0
  194.5680  175.0220  137.5210 C   0  0  1  0  0  3  0  0  0  0  0  0
  197.1090  174.8100  134.8290 C   0  0  0  0  0  2  0  0  0  0  0  0
  198.0360  175.5650  135.6520 N   0  0  0  0  0  1  0  0  0  0  0  0
  190.1840  176.0620  141.1850 N   0  0  0  0  0  0  0  0  0  0  0  0
  190.1850  176.2110  142.5700 N   0  0  0  0  0  2  0  0  0  0  0  0
  190.9940  176.9070  140.6510 C   0  0  0  0  0  0  0  0  0  0  0  0
  191.6780  177.7830  141.6370 C   0  0  0  0  0  2  0  0  0  0  0  0
  191.1150  177.2590  142.9630 C   0  0  1  0  0  3  0  0  0  0  0  0
  191.2280  176.9780  139.2430 N   0  0  0  0  0  2  0  0  0  0  0  0
  190.4010  178.3460  143.6970 C   0  0  0  0  0  0  0  0  0  0  0  0
  189.1610  178.0890  144.2640 O   0  0  0  0  0  1  0  0  0  0  0  0
  190.9230  179.4850  143.8240 O   0  0  0  0  0  0  0  0  0  0  0  0
  189.1200  176.7930  136.6200 O   0  0  0  0  0  0  0  0  0  0  0  0
  188.4510  176.9150  137.8420 C   0  0  0  0  0  2  0  0  0  0  0  0
  188.0040  178.3500  138.0520 C   0  0  0  0  0  2  0  0  0  0  0  0
  188.1280  178.6910  139.4010 O   0  0  0  0  0  0  0  0  0  0  0  0
  185.5000  178.9960  141.7640 C   0  0  1  0  0  3  0  0  0  0  0  0
  185.7500  178.7830  139.3740 C   0  0  0  0  0  2  0  0  0  0  0  0
  186.9810  178.1820  140.0110 C   0  0  2  0  0  3  0  0  0  0  0  0
  184.7200  178.8150  140.4760 C   0  0  0  0  0  2  0  0  0  0  0  0
  184.9760  178.1590  142.7480 O   0  0  0  0  0  1  0  0  0  0  0  0
  186.9380  178.6040  141.4670 C   0  0  0  0  0  2  0  0  0  0  0  0
  2  6  1  0  0  0  0
  3  1  1  6  0  0  0
  3 11  1  0  0  0  0
  3  2  1  0  0  0  0
  4  3  1  0  0  0  0
  4  5  1  0  0  0  0
  5 25  1  6  0  0  0
  5  6  1  0  0  0  0
  6 21  1  1  0  0  0
  7 14  1  6  0  0  0
  7 12  1  0  0  0  0
  9  7  1  0  0  0  0
  9 10  1  0  0  0  0
 11 10  1  6  0  0  0
 11 13  1  0  0  0  0
 12 13  1  0  0  0  0
 13  8  1  1  0  0  0
 14 15  1  0  0  0  0
 16 17  1  0  0  0  0
 17 20  1  0  0  0  0
 18 16  2  0  0  0  0
 18 19  1  0  0  0  0
 19 20  1  0  0  0  0
 20 22  1  6  0  0  0
 21 18  1  0  0  0  0
 22 24  2  0  0  0  0
 22 23  1  0  0  0  0
 25 26  1  0  0  0  0
 26 27  1  0  0  0  0
 27 28  1  0  0  0  0
 29 33  1  1  0  0  0
 30 31  1  0  0  0  0
 30 32  1  0  0  0  0
 31 28  1  6  0  0  0
 31 34  1  0  0  0  0
 32 29  1  0  0  0  0
 34 29  1  0  0  0  0
M  END
>  <MODEL>
9

>  <REMARK>
 VINA RESULT:      -6.2      3.458      7.703
  Name = 
  9 active torsions:
  status: ('A' for Active; 'I' for Inactive)
    1  A    between atoms: C_1  and  C_10
    2  A    between atoms: C_6  and  C_30
    3  A    between atoms: O_11  and  C_12
    4  A    between atoms: O_11  and  C_31
    5  A    between atoms: C_12  and  C_26
    6  A    between atoms: O_15  and  C_16
    7  A    between atoms: O_15  and  C_26
    8  A    between atoms: N_20  and  C_25
    9  A    between atoms: N_33  and  C_34
                            x       y       z     vdW  Elec       q    Type
                         _______ _______ _______ _____ _____    ______ ____

>  <TORSDO>
F 9

$$$$
