=
 OpenBabel10222419183D

 35 38  0  0  1  0  0  0  0  0999 V2000
  190.2870  177.6920  140.9340 O   0  0  0  0  0  0  0  0  0  0  0  0
  190.5530  175.9700  142.6090 C   0  0  1  0  0  3  0  0  0  0  0  0
  190.6270  178.5780  143.9440 S   0  0  0  0  0  0  0  0  0  0  0  0
  191.7600  176.2240  144.7570 N   0  0  0  0  0  2  0  0  0  0  0  0
  189.6430  176.6120  141.5670 C   0  0  1  0  0  3  0  0  0  0  0  0
  190.5950  178.1820  145.7310 C   0  0  2  0  0  3  0  0  0  0  0  0
  191.7370  176.5320  147.0690 O   0  0  0  0  0  0  0  0  0  0  0  0
  191.9220  176.5300  142.2760 C   0  0  1  0  0  3  0  0  0  0  0  0
  191.3990  176.9370  145.9260 C   0  0  0  0  0  0  0  0  0  0  0  0
  191.6670  177.5530  141.1800 C   0  0  1  0  0  3  0  0  0  0  0  0
  191.2560  176.8990  143.5860 C   0  0  1  0  0  0  0  0  0  0  0  0
  187.3980  177.1390  147.3790 N   0  0  0  0  0  0  0  0  0  0  0  0
  189.1790  177.9840  146.1730 C   0  0  0  0  0  0  0  0  0  0  0  0
  186.7610  177.8540  146.4270 C   0  0  0  0  0  0  0  0  0  0  0  0
  187.8360  178.5930  145.3680 S   0  0  0  0  0  0  0  0  0  0  0  0
  185.2800  177.9580  146.3340 C   0  0  0  0  0  1  0  0  0  0  0  0
  188.7490  177.2010  147.2430 C   0  0  0  0  0  3  0  0  0  0  0  0
  187.7840  178.2640  140.2340 O   0  0  0  0  0  0  0  0  0  0  0  0
  188.3320  176.9900  142.1160 N   0  0  0  0  0  0  0  0  0  0  0  0
  187.5250  177.9760  141.4330 C   0  0  0  0  0  0  0  0  0  0  0  0
  187.8800  176.3930  143.3690 C   0  0  0  0  0  1  0  0  0  0  0  0
  186.3900  178.6760  142.0800 C   0  0  0  0  0  0  0  0  0  0  0  0
  186.4790  179.9130  142.3020 O   0  0  0  0  0  0  0  0  0  0  0  0
  185.1640  177.9560  142.5530 C   0  0  0  0  0  2  0  0  0  0  0  0
  183.2220  177.8220  141.0550 N   0  0  0  0  0  1  0  0  0  0  0  0
  183.8630  178.6150  142.0930 C   0  0  1  0  0  3  0  0  0  0  0  0
  183.4230  179.8210  144.1070 O   0  0  0  0  0  1  0  0  0  0  0  0
  182.9080  178.8450  143.2550 C   0  0  0  0  0  2  0  0  0  0  0  0
  192.3830  177.1680  139.9280 C   0  0  0  0  0  0  0  0  0  0  0  0
  191.6690  176.5360  138.8580 N   0  0  0  0  0  2  0  0  0  0  0  0
  193.6190  177.3900  139.8320 O   0  0  0  0  0  0  0  0  0  0  0  0
  192.6520  174.6580  137.6890 C   0  0  0  0  0  1  0  0  0  0  0  0
  193.4240  176.8740  137.3520 O   0  0  0  0  0  1  0  0  0  0  0  0
  192.2750  176.1210  137.5980 C   0  0  0  0  0  0  0  0  0  0  0  0
  191.2920  176.3040  136.4570 C   0  0  0  0  0  1  0  0  0  0  0  0
  1 10  1  0  0  0  0
  1  5  1  0  0  0  0
  2 11  1  0  0  0  0
  3  6  1  0  0  0  0
  4  9  1  0  0  0  0
  5 19  1  0  0  0  0
  5  2  1  0  0  0  0
  6  9  1  0  0  0  0
  6 13  1  0  0  0  0
  8  2  1  0  0  0  0
  8 11  1  0  0  0  0
  9  7  2  0  0  0  0
 10  8  1  0  0  0  0
 11  3  1  0  0  0  0
 11  4  1  0  0  0  0
 13 17  2  0  0  0  0
 14 12  2  0  0  0  0
 15 13  1  0  0  0  0
 15 14  1  0  0  0  0
 16 14  1  0  0  0  0
 17 12  1  0  0  0  0
 18 20  2  0  0  0  0
 19 21  1  0  0  0  0
 20 22  1  0  0  0  0
 20 19  1  0  0  0  0
 22 23  2  0  0  0  0
 22 24  1  0  0  0  0
 25 26  1  0  0  0  0
 26 24  1  0  0  0  0
 26 28  1  0  0  0  0
 28 27  1  0  0  0  0
 29 10  1  0  0  0  0
 30 29  1  0  0  0  0
 31 29  2  0  0  0  0
 33 34  1  0  0  0  0
 34 32  1  0  0  0  0
 34 30  1  0  0  0  0
 35 34  1  0  0  0  0
M  END
>  <MODEL>
1

>  <REMARK>
 VINA RESULT:      -6.9      0.000      0.000
  Name = 
  8 active torsions:
  status: ('A' for Active; 'I' for Inactive)
    1  A    between atoms: N_4  and  C_11
    2  A    between atoms: C_10  and  CA_30
    3  A    between atoms: C_12  and  C_19
    4  A    between atoms: C_12  and  C_29
    5  A    between atoms: C_14  and  C_15
    6  A    between atoms: C_20  and  C_22
    7  A    between atoms: N_23  and  C_26
    8  A    between atoms: C_29  and  CA_30
                            x       y       z     vdW  Elec       q    Type
                         _______ _______ _______ _____ _____    ______ ____

>  <TORSDO>
F 8

$$$$
=
 OpenBabel10222419183D

 35 38  0  0  1  0  0  0  0  0999 V2000
  184.6380  178.2960  141.4860 O   0  0  0  0  0  0  0  0  0  0  0  0
  185.5810  179.6210  143.2730 C   0  0  1  0  0  3  0  0  0  0  0  0
  186.4040  176.8350  143.6560 S   0  0  0  0  0  0  0  0  0  0  0  0
  186.1300  178.7970  145.5430 N   0  0  0  0  0  2  0  0  0  0  0  0
  185.5490  179.3290  141.7770 C   0  0  1  0  0  3  0  0  0  0  0  0
  187.6320  176.8990  145.0120 C   0  0  2  0  0  3  0  0  0  0  0  0
  187.6990  178.0810  147.1130 O   0  0  0  0  0  0  0  0  0  0  0  0
  184.3400  178.9260  143.7960 C   0  0  1  0  0  3  0  0  0  0  0  0
  187.1780  177.9490  145.9750 C   0  0  0  0  0  0  0  0  0  0  0  0
  183.7830  178.1720  142.5990 C   0  0  1  0  0  3  0  0  0  0  0  0
  185.7100  178.4330  144.2120 C   0  0  1  0  0  0  0  0  0  0  0  0
  190.9420  178.4020  144.1110 N   0  0  0  0  0  0  0  0  0  0  0  0
  188.9790  177.2310  144.4500 C   0  0  0  0  0  0  0  0  0  0  0  0
  191.0270  177.4570  143.1510 C   0  0  0  0  0  0  0  0  0  0  0  0
  189.6910  176.4370  143.1510 S   0  0  0  0  0  0  0  0  0  0  0  0
  192.1700  177.3500  142.2060 C   0  0  0  0  0  1  0  0  0  0  0  0
  189.7990  178.2880  144.8390 C   0  0  0  0  0  3  0  0  0  0  0  0
  186.0340  178.5920  139.0960 O   0  0  0  0  0  0  0  0  0  0  0  0
  186.8860  179.0660  141.2220 N   0  0  0  0  0  0  0  0  0  0  0  0
  187.0150  178.5300  139.8860 C   0  0  0  0  0  0  0  0  0  0  0  0
  188.0650  179.3110  142.0460 C   0  0  0  0  0  1  0  0  0  0  0  0
  188.2620  177.9020  139.3870 C   0  0  0  0  0  0  0  0  0  0  0  0
  188.5810  176.7570  139.8060 O   0  0  0  0  0  0  0  0  0  0  0  0
  189.2040  178.6080  138.4590 C   0  0  0  0  0  2  0  0  0  0  0  0
  190.3400  176.8540  137.1680 N   0  0  0  0  0  1  0  0  0  0  0  0
  189.3460  177.9140  137.1030 C   0  0  1  0  0  3  0  0  0  0  0  0
  187.2930  178.3790  135.9730 O   0  0  0  0  0  1  0  0  0  0  0  0
  188.0150  177.3680  136.6100 C   0  0  0  0  0  2  0  0  0  0  0  0
  182.4140  178.6620  142.2610 C   0  0  0  0  0  0  0  0  0  0  0  0
  181.4250  178.7930  143.2890 N   0  0  0  0  0  2  0  0  0  0  0  0
  182.1370  178.9410  141.0640 O   0  0  0  0  0  0  0  0  0  0  0  0
  179.4240  178.4190  141.9780 C   0  0  0  0  0  1  0  0  0  0  0  0
  180.0770  180.5950  142.6560 O   0  0  0  0  0  1  0  0  0  0  0  0
  180.0610  179.2600  143.0640 C   0  0  0  0  0  0  0  0  0  0  0  0
  179.2420  179.1260  144.3330 C   0  0  0  0  0  1  0  0  0  0  0  0
  1  5  1  0  0  0  0
  1 10  1  0  0  0  0
  2  8  1  0  0  0  0
  2 11  1  0  0  0  0
  3 11  1  0  0  0  0
  3  6  1  0  0  0  0
  4  9  1  0  0  0  0
  5  2  1  0  0  0  0
  6  9  1  0  0  0  0
  8 11  1  0  0  0  0
  9  7  2  0  0  0  0
 10  8  1  0  0  0  0
 11  4  1  0  0  0  0
 12 17  1  0  0  0  0
 13 17  2  0  0  0  0
 13  6  1  0  0  0  0
 14 15  1  0  0  0  0
 14 12  2  0  0  0  0
 15 13  1  0  0  0  0
 16 14  1  0  0  0  0
 18 20  2  0  0  0  0
 19  5  1  0  0  0  0
 19 21  1  0  0  0  0
 20 19  1  0  0  0  0
 22 23  2  0  0  0  0
 22 20  1  0  0  0  0
 24 22  1  0  0  0  0
 26 25  1  0  0  0  0
 26 24  1  0  0  0  0
 27 28  1  0  0  0  0
 28 26  1  0  0  0  0
 29 10  1  0  0  0  0
 29 30  1  0  0  0  0
 31 29  2  0  0  0  0
 32 34  1  0  0  0  0
 33 34  1  0  0  0  0
 34 30  1  0  0  0  0
 34 35  1  0  0  0  0
M  END
>  <MODEL>
2

>  <REMARK>
 VINA RESULT:      -6.7      2.581      7.715
  Name = 
  8 active torsions:
  status: ('A' for Active; 'I' for Inactive)
    1  A    between atoms: N_4  and  C_11
    2  A    between atoms: C_10  and  CA_30
    3  A    between atoms: C_12  and  C_19
    4  A    between atoms: C_12  and  C_29
    5  A    between atoms: C_14  and  C_15
    6  A    between atoms: C_20  and  C_22
    7  A    between atoms: N_23  and  C_26
    8  A    between atoms: C_29  and  CA_30
                            x       y       z     vdW  Elec       q    Type
                         _______ _______ _______ _____ _____    ______ ____

>  <TORSDO>
F 8

$$$$
=
 OpenBabel10222419183D

 35 38  0  0  1  0  0  0  0  0999 V2000
  184.7630  177.6470  142.2060 O   0  0  0  0  0  0  0  0  0  0  0  0
  185.5830  179.5750  143.4120 C   0  0  1  0  0  3  0  0  0  0  0  0
  185.5150  177.2940  145.2510 S   0  0  0  0  0  0  0  0  0  0  0  0
  185.3440  179.9580  145.8470 N   0  0  0  0  0  2  0  0  0  0  0  0
  185.8240  178.5700  142.2910 C   0  0  1  0  0  3  0  0  0  0  0  0
  186.3640  177.8920  146.7590 C   0  0  2  0  0  3  0  0  0  0  0  0
  186.2520  179.9590  147.9960 O   0  0  0  0  0  0  0  0  0  0  0  0
  184.1140  179.3930  143.7400 C   0  0  1  0  0  3  0  0  0  0  0  0
  185.9950  179.3300  146.9360 C   0  0  0  0  0  0  0  0  0  0  0  0
  183.6710  178.2070  142.8980 C   0  0  1  0  0  3  0  0  0  0  0  0
  185.1650  179.0220  144.7650 C   0  0  1  0  0  0  0  0  0  0  0  0
  189.9290  177.8690  145.6120 N   0  0  0  0  0  0  0  0  0  0  0  0
  187.8430  177.7310  146.5960 C   0  0  0  0  0  0  0  0  0  0  0  0
  190.1930  177.1000  146.6890 C   0  0  0  0  0  0  0  0  0  0  0  0
  188.8190  176.8160  147.6130 S   0  0  0  0  0  0  0  0  0  0  0  0
  191.5450  176.5680  147.0040 C   0  0  0  0  0  1  0  0  0  0  0  0
  188.6170  178.2230  145.5470 C   0  0  0  0  0  3  0  0  0  0  0  0
  188.2160  179.6030  141.2080 O   0  0  0  0  0  0  0  0  0  0  0  0
  187.1330  177.9060  142.3970 N   0  0  0  0  0  0  0  0  0  0  0  0
  188.2630  178.4290  141.6640 C   0  0  0  0  0  0  0  0  0  0  0  0
  187.2620  176.7010  143.2100 C   0  0  0  0  0  1  0  0  0  0  0  0
  189.4960  177.6440  141.4180 C   0  0  0  0  0  0  0  0  0  0  0  0
  190.4550  177.7370  142.2290 O   0  0  0  0  0  0  0  0  0  0  0  0
  189.6810  176.7970  140.1940 C   0  0  0  0  0  2  0  0  0  0  0  0
  191.0580  176.8340  138.1610 N   0  0  0  0  0  1  0  0  0  0  0  0
  190.1200  177.5980  138.9680 C   0  0  1  0  0  3  0  0  0  0  0  0
  188.9900  179.4130  137.9000 O   0  0  0  0  0  1  0  0  0  0  0  0
  188.9290  178.0380  138.1300 C   0  0  0  0  0  2  0  0  0  0  0  0
  182.6020  178.6150  141.9390 C   0  0  0  0  0  0  0  0  0  0  0  0
  181.3600  179.1350  142.4290 N   0  0  0  0  0  2  0  0  0  0  0  0
  182.7990  178.4820  140.7020 O   0  0  0  0  0  0  0  0  0  0  0  0
  179.4660  178.3410  141.1460 C   0  0  0  0  0  1  0  0  0  0  0  0
  180.7470  180.2080  140.4450 O   0  0  0  0  0  1  0  0  0  0  0  0
  180.2540  179.5600  141.5780 C   0  0  0  0  0  0  0  0  0  0  0  0
  179.3330  180.4950  142.3390 C   0  0  0  0  0  1  0  0  0  0  0  0
  1  5  1  0  0  0  0
  1 10  1  0  0  0  0
  2  8  1  0  0  0  0
  2 11  1  0  0  0  0
  3  6  1  0  0  0  0
  4  9  1  0  0  0  0
  5 19  1  0  0  0  0
  5  2  1  0  0  0  0
  6  9  1  0  0  0  0
  8 11  1  0  0  0  0
  9  7  2  0  0  0  0
 10  8  1  0  0  0  0
 11  3  1  0  0  0  0
 11  4  1  0  0  0  0
 12 14  2  0  0  0  0
 13  6  1  0  0  0  0
 13 15  1  0  0  0  0
 14 16  1  0  0  0  0
 14 15  1  0  0  0  0
 17 12  1  0  0  0  0
 17 13  2  0  0  0  0
 18 20  2  0  0  0  0
 19 21  1  0  0  0  0
 20 19  1  0  0  0  0
 22 20  1  0  0  0  0
 22 23  2  0  0  0  0
 24 22  1  0  0  0  0
 25 26  1  0  0  0  0
 26 24  1  0  0  0  0
 27 28  1  0  0  0  0
 28 26  1  0  0  0  0
 29 30  1  0  0  0  0
 29 10  1  0  0  0  0
 31 29  2  0  0  0  0
 32 34  1  0  0  0  0
 33 34  1  0  0  0  0
 34 35  1  0  0  0  0
 34 30  1  0  0  0  0
M  END
>  <MODEL>
3

>  <REMARK>
 VINA RESULT:      -6.7      2.521      7.460
  Name = 
  8 active torsions:
  status: ('A' for Active; 'I' for Inactive)
    1  A    between atoms: N_4  and  C_11
    2  A    between atoms: C_10  and  CA_30
    3  A    between atoms: C_12  and  C_19
    4  A    between atoms: C_12  and  C_29
    5  A    between atoms: C_14  and  C_15
    6  A    between atoms: C_20  and  C_22
    7  A    between atoms: N_23  and  C_26
    8  A    between atoms: C_29  and  CA_30
                            x       y       z     vdW  Elec       q    Type
                         _______ _______ _______ _____ _____    ______ ____

>  <TORSDO>
F 8

$$$$
=
 OpenBabel10222419183D

 35 38  0  0  1  0  0  0  0  0999 V2000
  190.9090  175.8370  138.3420 O   0  0  0  0  0  0  0  0  0  0  0  0
  189.9380  177.2690  136.6540 C   0  0  1  0  0  3  0  0  0  0  0  0
  187.8750  175.4070  137.5840 S   0  0  0  0  0  0  0  0  0  0  0  0
  188.0560  176.6660  135.1620 N   0  0  0  0  0  2  0  0  0  0  0  0
  190.5530  177.1670  138.0460 C   0  0  1  0  0  3  0  0  0  0  0  0
  186.3280  176.0100  136.8130 C   0  0  2  0  0  3  0  0  0  0  0  0
  185.7960  176.7980  134.5970 O   0  0  0  0  0  0  0  0  0  0  0  0
  190.3000  175.9460  136.0090 C   0  0  1  0  0  3  0  0  0  0  0  0
  186.6780  176.5140  135.4500 C   0  0  0  0  0  0  0  0  0  0  0  0
  190.9540  175.1380  137.1190 C   0  0  1  0  0  3  0  0  0  0  0  0
  188.8490  176.2690  136.2990 C   0  0  1  0  0  0  0  0  0  0  0  0
  185.6560  179.0110  138.9510 N   0  0  0  0  0  0  0  0  0  0  0  0
  185.7410  177.0990  137.6560 C   0  0  0  0  0  0  0  0  0  0  0  0
  184.4030  178.5310  139.1010 C   0  0  0  0  0  0  0  0  0  0  0  0
  184.1710  177.0980  138.2550 S   0  0  0  0  0  0  0  0  0  0  0  0
  183.3640  179.1990  139.9280 C   0  0  0  0  0  1  0  0  0  0  0  0
  186.4140  178.2140  138.1500 C   0  0  0  0  0  3  0  0  0  0  0  0
  190.5900  176.3860  140.7570 O   0  0  0  0  0  0  0  0  0  0  0  0
  189.7010  177.7610  139.0870 N   0  0  0  0  0  0  0  0  0  0  0  0
  189.6710  177.1760  140.4090 C   0  0  0  0  0  0  0  0  0  0  0  0
  188.8630  178.9090  138.7590 C   0  0  0  0  0  1  0  0  0  0  0  0
  188.6010  177.4650  141.3930 C   0  0  0  0  0  0  0  0  0  0  0  0
  187.8750  178.4810  141.2290 O   0  0  0  0  0  0  0  0  0  0  0  0
  188.3950  176.6360  142.6250 C   0  0  0  0  0  2  0  0  0  0  0  0
  186.7650  177.3190  144.3300 N   0  0  0  0  0  1  0  0  0  0  0  0
  188.1380  177.4740  143.8790 C   0  0  1  0  0  3  0  0  0  0  0  0
  190.4230  177.2470  144.5390 O   0  0  0  0  0  1  0  0  0  0  0  0
  189.1100  177.1250  144.9950 C   0  0  0  0  0  2  0  0  0  0  0  0
  192.3650  174.8050  136.7630 C   0  0  0  0  0  0  0  0  0  0  0  0
  193.3390  174.6060  137.7960 N   0  0  0  0  0  2  0  0  0  0  0  0
  192.6910  174.7180  135.5490 O   0  0  0  0  0  0  0  0  0  0  0  0
  195.4270  174.0390  138.8810 C   0  0  0  0  0  1  0  0  0  0  0  0
  195.3690  175.3390  136.8990 O   0  0  0  0  0  1  0  0  0  0  0  0
  194.7390  174.2790  137.5530 C   0  0  0  0  0  0  0  0  0  0  0  0
  194.8480  173.0230  136.7100 C   0  0  0  0  0  1  0  0  0  0  0  0
  2  5  1  0  0  0  0
  4  9  1  0  0  0  0
  4 11  1  0  0  0  0
  5  1  1  0  0  0  0
  5 19  1  0  0  0  0
  6  3  1  0  0  0  0
  6 13  1  0  0  0  0
  7  9  2  0  0  0  0
  8 11  1  0  0  0  0
  8  2  1  0  0  0  0
  8 10  1  0  0  0  0
  9  6  1  0  0  0  0
 10  1  1  0  0  0  0
 11  2  1  0  0  0  0
 11  3  1  0  0  0  0
 12 14  2  0  0  0  0
 13 17  2  0  0  0  0
 13 15  1  0  0  0  0
 14 16  1  0  0  0  0
 15 14  1  0  0  0  0
 17 12  1  0  0  0  0
 19 20  1  0  0  0  0
 20 18  2  0  0  0  0
 20 22  1  0  0  0  0
 21 19  1  0  0  0  0
 22 24  1  0  0  0  0
 23 22  2  0  0  0  0
 24 26  1  0  0  0  0
 26 25  1  0  0  0  0
 26 28  1  0  0  0  0
 27 28  1  0  0  0  0
 29 10  1  0  0  0  0
 29 30  1  0  0  0  0
 31 29  2  0  0  0  0
 33 34  1  0  0  0  0
 34 30  1  0  0  0  0
 34 32  1  0  0  0  0
 35 34  1  0  0  0  0
M  END
>  <MODEL>
4

>  <REMARK>
 VINA RESULT:      -5.9      3.400      6.605
  Name = 
  8 active torsions:
  status: ('A' for Active; 'I' for Inactive)
    1  A    between atoms: N_4  and  C_11
    2  A    between atoms: C_10  and  CA_30
    3  A    between atoms: C_12  and  C_19
    4  A    between atoms: C_12  and  C_29
    5  A    between atoms: C_14  and  C_15
    6  A    between atoms: C_20  and  C_22
    7  A    between atoms: N_23  and  C_26
    8  A    between atoms: C_29  and  CA_30
                            x       y       z     vdW  Elec       q    Type
                         _______ _______ _______ _____ _____    ______ ____

>  <TORSDO>
F 8

$$$$
=
 OpenBabel10222419183D

 35 38  0  0  1  0  0  0  0  0999 V2000
  186.8700  176.1650  137.4840 O   0  0  0  0  0  0  0  0  0  0  0  0
  185.3340  176.0040  135.6250 C   0  0  1  0  0  3  0  0  0  0  0  0
  184.1750  174.5770  137.9070 S   0  0  0  0  0  0  0  0  0  0  0  0
  183.7250  174.1600  135.2410 N   0  0  0  0  0  2  0  0  0  0  0  0
  186.0260  176.9100  136.6360 C   0  0  1  0  0  3  0  0  0  0  0  0
  182.4710  174.1680  137.3780 C   0  0  2  0  0  3  0  0  0  0  0  0
  181.5500  173.3210  135.3160 O   0  0  0  0  0  0  0  0  0  0  0  0
  186.1230  174.7120  135.7070 C   0  0  1  0  0  3  0  0  0  0  0  0
  182.5240  173.8440  135.9190 C   0  0  0  0  0  0  0  0  0  0  0  0
  187.0980  174.9260  136.8550 C   0  0  1  0  0  3  0  0  0  0  0  0
  184.6770  174.7400  136.1560 C   0  0  1  0  0  0  0  0  0  0  0  0
  180.1610  177.1090  137.1890 N   0  0  0  0  0  0  0  0  0  0  0  0
  181.5730  175.3360  137.6380 C   0  0  0  0  0  0  0  0  0  0  0  0
  180.3580  177.2550  138.5170 C   0  0  0  0  0  0  0  0  0  0  0  0
  181.3840  176.0770  139.1350 S   0  0  0  0  0  0  0  0  0  0  0  0
  179.7400  178.3420  139.3210 C   0  0  0  0  0  1  0  0  0  0  0  0
  180.8400  176.0430  136.6870 C   0  0  0  0  0  3  0  0  0  0  0  0
  186.7410  178.5200  138.8410 O   0  0  0  0  0  0  0  0  0  0  0  0
  185.0790  177.7470  137.3890 N   0  0  0  0  0  0  0  0  0  0  0  0
  185.5090  178.4000  138.6050 C   0  0  0  0  0  0  0  0  0  0  0  0
  183.7040  177.8730  136.9190 C   0  0  0  0  0  1  0  0  0  0  0  0
  184.5600  178.9470  139.6030 C   0  0  0  0  0  0  0  0  0  0  0  0
  184.1410  180.1280  139.4680 O   0  0  0  0  0  0  0  0  0  0  0  0
  184.1340  178.1770  140.8170 C   0  0  0  0  0  2  0  0  0  0  0  0
  183.6230  178.7780  143.1430 N   0  0  0  0  0  1  0  0  0  0  0  0
  184.6600  178.7750  142.1240 C   0  0  1  0  0  3  0  0  0  0  0  0
  187.0440  178.6280  142.0940 O   0  0  0  0  0  1  0  0  0  0  0  0
  185.8940  178.0380  142.6210 C   0  0  0  0  0  2  0  0  0  0  0  0
  188.5070  174.8410  136.3680 C   0  0  0  0  0  0  0  0  0  0  0  0
  189.5780  175.3370  137.1810 N   0  0  0  0  0  2  0  0  0  0  0  0
  188.7390  174.3450  135.2340 O   0  0  0  0  0  0  0  0  0  0  0  0
  191.7890  176.1070  137.7970 C   0  0  0  0  0  1  0  0  0  0  0  0
  191.1460  175.8600  135.5280 O   0  0  0  0  0  1  0  0  0  0  0  0
  190.9850  175.3030  136.7970 C   0  0  0  0  0  0  0  0  0  0  0  0
  191.4940  173.8730  136.7940 C   0  0  0  0  0  1  0  0  0  0  0  0
  2  8  1  0  0  0  0
  2 11  1  0  0  0  0
  2  5  1  0  0  0  0
  4  9  1  0  0  0  0
  4 11  1  0  0  0  0
  5 19  1  0  0  0  0
  5  1  1  0  0  0  0
  6 13  1  0  0  0  0
  6  3  1  0  0  0  0
  7  9  2  0  0  0  0
  8 11  1  0  0  0  0
  8 10  1  0  0  0  0
  9  6  1  0  0  0  0
 10  1  1  0  0  0  0
 11  3  1  0  0  0  0
 12 14  2  0  0  0  0
 13 15  1  0  0  0  0
 14 15  1  0  0  0  0
 14 16  1  0  0  0  0
 17 12  1  0  0  0  0
 17 13  2  0  0  0  0
 19 20  1  0  0  0  0
 20 18  2  0  0  0  0
 20 22  1  0  0  0  0
 21 19  1  0  0  0  0
 22 24  1  0  0  0  0
 23 22  2  0  0  0  0
 24 26  1  0  0  0  0
 26 28  1  0  0  0  0
 26 25  1  0  0  0  0
 27 28  1  0  0  0  0
 29 10  1  0  0  0  0
 29 30  1  0  0  0  0
 31 29  2  0  0  0  0
 33 34  1  0  0  0  0
 34 30  1  0  0  0  0
 34 32  1  0  0  0  0
 35 34  1  0  0  0  0
M  END
>  <MODEL>
5

>  <REMARK>
 VINA RESULT:      -5.7      5.064      8.008
  Name = 
  8 active torsions:
  status: ('A' for Active; 'I' for Inactive)
    1  A    between atoms: N_4  and  C_11
    2  A    between atoms: C_10  and  CA_30
    3  A    between atoms: C_12  and  C_19
    4  A    between atoms: C_12  and  C_29
    5  A    between atoms: C_14  and  C_15
    6  A    between atoms: C_20  and  C_22
    7  A    between atoms: N_23  and  C_26
    8  A    between atoms: C_29  and  CA_30
                            x       y       z     vdW  Elec       q    Type
                         _______ _______ _______ _____ _____    ______ ____

>  <TORSDO>
F 8

$$$$
=
 OpenBabel10222419183D

 35 38  0  0  1  0  0  0  0  0999 V2000
  188.4440  177.4880  140.8250 O   0  0  0  0  0  0  0  0  0  0  0  0
  189.4140  178.3910  138.8030 C   0  0  1  0  0  3  0  0  0  0  0  0
  188.3360  175.7330  138.2040 S   0  0  0  0  0  0  0  0  0  0  0  0
  190.3700  177.0610  136.9460 N   0  0  0  0  0  2  0  0  0  0  0  0
  188.3260  178.5120  139.8650 C   0  0  1  0  0  3  0  0  0  0  0  0
  188.4610  175.5840  136.3840 C   0  0  2  0  0  3  0  0  0  0  0  0
  190.1930  176.1530  134.8040 O   0  0  0  0  0  0  0  0  0  0  0  0
  190.4080  177.4280  139.4230 C   0  0  1  0  0  3  0  0  0  0  0  0
  189.7240  176.2680  135.9670 C   0  0  0  0  0  0  0  0  0  0  0  0
  189.7460  176.9610  140.7100 C   0  0  1  0  0  3  0  0  0  0  0  0
  189.6350  177.0200  138.1860 C   0  0  1  0  0  0  0  0  0  0  0  0
  186.0230  177.7930  134.5940 N   0  0  0  0  0  0  0  0  0  0  0  0
  187.2670  176.2240  135.7480 C   0  0  0  0  0  0  0  0  0  0  0  0
  185.0580  176.9560  135.0300 C   0  0  0  0  0  0  0  0  0  0  0  0
  185.6860  175.6870  135.9350 S   0  0  0  0  0  0  0  0  0  0  0  0
  183.6130  177.1520  134.7420 C   0  0  0  0  0  1  0  0  0  0  0  0
  187.2610  177.3960  134.9940 C   0  0  0  0  0  3  0  0  0  0  0  0
  185.9750  178.9010  141.3760 O   0  0  0  0  0  0  0  0  0  0  0  0
  186.9760  178.5810  139.2870 N   0  0  0  0  0  0  0  0  0  0  0  0
  185.8230  178.6110  140.1590 C   0  0  0  0  0  0  0  0  0  0  0  0
  186.8150  178.5750  137.8370 C   0  0  0  0  0  1  0  0  0  0  0  0
  184.4490  178.3160  139.6880 C   0  0  0  0  0  0  0  0  0  0  0  0
  184.0870  178.7290  138.5540 O   0  0  0  0  0  0  0  0  0  0  0  0
  183.4400  177.6080  140.5410 C   0  0  0  0  0  2  0  0  0  0  0  0
  181.1220  177.3150  139.7820 N   0  0  0  0  0  1  0  0  0  0  0  0
  182.0410  178.2210  140.4530 C   0  0  1  0  0  3  0  0  0  0  0  0
  182.5650  178.9580  142.6640 O   0  0  0  0  0  1  0  0  0  0  0  0
  181.5080  178.6020  141.8250 C   0  0  0  0  0  2  0  0  0  0  0  0
  190.5700  177.3460  141.8930 C   0  0  0  0  0  0  0  0  0  0  0  0
  189.9470  177.5400  143.1690 N   0  0  0  0  0  2  0  0  0  0  0  0
  191.8110  177.5130  141.7520 O   0  0  0  0  0  0  0  0  0  0  0  0
  191.4690  176.7330  144.8700 C   0  0  0  0  0  1  0  0  0  0  0  0
  189.7520  178.2860  145.3750 O   0  0  0  0  0  1  0  0  0  0  0  0
  190.6610  177.9170  144.3840 C   0  0  0  0  0  0  0  0  0  0  0  0
  191.6050  179.0720  144.1020 C   0  0  0  0  0  1  0  0  0  0  0  0
  2  8  1  0  0  0  0
  2  5  1  0  0  0  0
  4 11  1  0  0  0  0
  5  1  1  0  0  0  0
  6  3  1  0  0  0  0
  7  9  2  0  0  0  0
  8 10  1  0  0  0  0
  9  6  1  0  0  0  0
  9  4  1  0  0  0  0
 10  1  1  0  0  0  0
 10 29  1  0  0  0  0
 11  3  1  0  0  0  0
 11  2  1  0  0  0  0
 11  8  1  0  0  0  0
 12 17  1  0  0  0  0
 12 14  2  0  0  0  0
 13 15  1  0  0  0  0
 13  6  1  0  0  0  0
 14 15  1  0  0  0  0
 16 14  1  0  0  0  0
 17 13  2  0  0  0  0
 19  5  1  0  0  0  0
 19 20  1  0  0  0  0
 20 18  2  0  0  0  0
 21 19  1  0  0  0  0
 22 20  1  0  0  0  0
 22 24  1  0  0  0  0
 23 22  2  0  0  0  0
 25 26  1  0  0  0  0
 26 24  1  0  0  0  0
 26 28  1  0  0  0  0
 28 27  1  0  0  0  0
 29 30  1  0  0  0  0
 30 34  1  0  0  0  0
 31 29  2  0  0  0  0
 34 32  1  0  0  0  0
 34 33  1  0  0  0  0
 35 34  1  0  0  0  0
M  END
>  <MODEL>
6

>  <REMARK>
 VINA RESULT:      -5.6      3.752      7.092
  Name = 
  8 active torsions:
  status: ('A' for Active; 'I' for Inactive)
    1  A    between atoms: N_4  and  C_11
    2  A    between atoms: C_10  and  CA_30
    3  A    between atoms: C_12  and  C_19
    4  A    between atoms: C_12  and  C_29
    5  A    between atoms: C_14  and  C_15
    6  A    between atoms: C_20  and  C_22
    7  A    between atoms: N_23  and  C_26
    8  A    between atoms: C_29  and  CA_30
                            x       y       z     vdW  Elec       q    Type
                         _______ _______ _______ _____ _____    ______ ____

>  <TORSDO>
F 8

$$$$
=
 OpenBabel10222419183D

 35 38  0  0  1  0  0  0  0  0999 V2000
  190.6180  178.0780  141.7030 O   0  0  0  0  0  0  0  0  0  0  0  0
  190.4640  175.9730  142.8790 C   0  0  1  0  0  3  0  0  0  0  0  0
  191.6710  177.9490  144.6750 S   0  0  0  0  0  0  0  0  0  0  0  0
  191.9650  175.2290  144.7040 N   0  0  0  0  0  2  0  0  0  0  0  0
  189.7170  177.1310  142.2270 C   0  0  1  0  0  3  0  0  0  0  0  0
  191.7440  177.1110  146.3010 C   0  0  2  0  0  3  0  0  0  0  0  0
  192.3760  174.8820  146.9740 O   0  0  0  0  0  0  0  0  0  0  0  0
  191.8830  176.1350  142.3700 C   0  0  1  0  0  3  0  0  0  0  0  0
  192.0550  175.6710  146.0460 C   0  0  0  0  0  0  0  0  0  0  0  0
  191.8710  177.4440  141.5970 C   0  0  1  0  0  3  0  0  0  0  0  0
  191.5860  176.3230  143.8430 C   0  0  1  0  0  0  0  0  0  0  0  0
  188.1520  177.1080  147.3620 N   0  0  0  0  0  0  0  0  0  0  0  0
  190.4290  177.2620  147.0000 C   0  0  0  0  0  0  0  0  0  0  0  0
  188.5360  177.8790  148.4010 C   0  0  0  0  0  0  0  0  0  0  0  0
  190.1890  178.1750  148.3900 S   0  0  0  0  0  0  0  0  0  0  0  0
  187.5920  178.4040  149.4230 C   0  0  0  0  0  1  0  0  0  0  0  0
  189.2020  176.7620  146.5690 C   0  0  0  0  0  3  0  0  0  0  0  0
  187.4410  175.7890  143.2180 O   0  0  0  0  0  0  0  0  0  0  0  0
  188.7240  177.7420  143.1230 N   0  0  0  0  0  0  0  0  0  0  0  0
  187.5060  177.0290  143.4370 C   0  0  0  0  0  0  0  0  0  0  0  0
  188.9630  179.0810  143.6510 C   0  0  0  0  0  1  0  0  0  0  0  0
  186.3130  177.6900  144.0160 C   0  0  0  0  0  0  0  0  0  0  0  0
  185.9360  177.3700  145.1740 O   0  0  0  0  0  0  0  0  0  0  0  0
  185.4840  178.6730  143.2450 C   0  0  0  0  0  2  0  0  0  0  0  0
  183.4870  178.3440  141.8530 N   0  0  0  0  0  1  0  0  0  0  0  0
  184.9160  178.0950  141.9470 C   0  0  1  0  0  3  0  0  0  0  0  0
  184.9410  179.7450  140.2200 O   0  0  0  0  0  1  0  0  0  0  0  0
  185.6360  178.6460  140.7260 C   0  0  0  0  0  2  0  0  0  0  0  0
  192.2160  177.2090  140.1640 C   0  0  0  0  0  0  0  0  0  0  0  0
  191.2470  176.6360  139.2770 N   0  0  0  0  0  2  0  0  0  0  0  0
  193.3690  177.5040  139.7510 O   0  0  0  0  0  0  0  0  0  0  0  0
  191.3290  174.8820  137.6110 C   0  0  0  0  0  1  0  0  0  0  0  0
  192.7790  176.7540  137.5160 O   0  0  0  0  0  1  0  0  0  0  0  0
  191.4840  176.3670  137.8630 C   0  0  0  0  0  0  0  0  0  0  0  0
  190.4810  177.1180  137.0080 C   0  0  0  0  0  1  0  0  0  0  0  0
  1  5  1  0  0  0  0
  2 11  1  0  0  0  0
  3  6  1  0  0  0  0
  4  9  1  0  0  0  0
  5  2  1  0  0  0  0
  5 19  1  0  0  0  0
  6 13  1  0  0  0  0
  8  2  1  0  0  0  0
  8 11  1  0  0  0  0
  9  6  1  0  0  0  0
  9  7  2  0  0  0  0
 10  1  1  0  0  0  0
 10  8  1  0  0  0  0
 11  3  1  0  0  0  0
 11  4  1  0  0  0  0
 12 14  2  0  0  0  0
 13 15  1  0  0  0  0
 14 16  1  0  0  0  0
 15 14  1  0  0  0  0
 17 13  2  0  0  0  0
 17 12  1  0  0  0  0
 18 20  2  0  0  0  0
 19 20  1  0  0  0  0
 19 21  1  0  0  0  0
 20 22  1  0  0  0  0
 22 23  2  0  0  0  0
 24 22  1  0  0  0  0
 25 26  1  0  0  0  0
 26 24  1  0  0  0  0
 27 28  1  0  0  0  0
 28 26  1  0  0  0  0
 29 10  1  0  0  0  0
 30 29  1  0  0  0  0
 31 29  2  0  0  0  0
 32 34  1  0  0  0  0
 33 34  1  0  0  0  0
 34 30  1  0  0  0  0
 35 34  1  0  0  0  0
M  END
>  <MODEL>
7

>  <REMARK>
 VINA RESULT:      -5.6      1.672      2.033
  Name = 
  8 active torsions:
  status: ('A' for Active; 'I' for Inactive)
    1  A    between atoms: N_4  and  C_11
    2  A    between atoms: C_10  and  CA_30
    3  A    between atoms: C_12  and  C_19
    4  A    between atoms: C_12  and  C_29
    5  A    between atoms: C_14  and  C_15
    6  A    between atoms: C_20  and  C_22
    7  A    between atoms: N_23  and  C_26
    8  A    between atoms: C_29  and  CA_30
                            x       y       z     vdW  Elec       q    Type
                         _______ _______ _______ _____ _____    ______ ____

>  <TORSDO>
F 8

$$$$
=
 OpenBabel10222419183D

 35 38  0  0  1  0  0  0  0  0999 V2000
  190.9080  176.6540  142.2450 O   0  0  0  0  0  0  0  0  0  0  0  0
  189.5080  178.6230  142.2260 C   0  0  1  0  0  3  0  0  0  0  0  0
  187.9310  176.3780  143.2550 S   0  0  0  0  0  0  0  0  0  0  0  0
  187.0430  178.6360  141.9920 N   0  0  0  0  0  2  0  0  0  0  0  0
  190.7360  177.9330  142.8090 C   0  0  1  0  0  3  0  0  0  0  0  0
  186.3780  177.1410  143.8520 C   0  0  2  0  0  3  0  0  0  0  0  0
  184.9180  178.8290  142.9370 O   0  0  0  0  0  0  0  0  0  0  0  0
  189.1820  177.7930  141.0010 C   0  0  1  0  0  3  0  0  0  0  0  0
  186.0380  178.2530  142.9130 C   0  0  0  0  0  0  0  0  0  0  0  0
  190.1450  176.6170  141.0610 C   0  0  1  0  0  3  0  0  0  0  0  0
  188.2190  177.8200  142.1680 C   0  0  1  0  0  0  0  0  0  0  0  0
  186.3820  179.0560  147.0710 N   0  0  0  0  0  0  0  0  0  0  0  0
  186.5760  177.6540  145.2440 C   0  0  0  0  0  0  0  0  0  0  0  0
  187.3160  178.1820  147.5040 C   0  0  0  0  0  0  0  0  0  0  0  0
  187.6770  177.0200  146.3450 S   0  0  0  0  0  0  0  0  0  0  0  0
  187.9480  178.2580  148.8470 C   0  0  0  0  0  1  0  0  0  0  0  0
  185.9660  178.7730  145.8080 C   0  0  0  0  0  3  0  0  0  0  0  0
  192.0560  175.9770  144.3570 O   0  0  0  0  0  0  0  0  0  0  0  0
  190.7210  177.8960  144.2790 N   0  0  0  0  0  0  0  0  0  0  0  0
  191.2830  176.7590  144.9740 C   0  0  0  0  0  0  0  0  0  0  0  0
  190.0990  178.9890  145.0170 C   0  0  0  0  0  1  0  0  0  0  0  0
  190.9940  176.4620  146.3970 C   0  0  0  0  0  0  0  0  0  0  0  0
  190.1060  175.6140  146.6790 O   0  0  0  0  0  0  0  0  0  0  0  0
  191.6650  177.1890  147.5240 C   0  0  0  0  0  2  0  0  0  0  0  0
  193.5440  175.6280  147.7800 N   0  0  0  0  0  1  0  0  0  0  0  0
  192.4300  176.2610  148.4680 C   0  0  1  0  0  3  0  0  0  0  0  0
  194.3060  177.1270  149.6680 O   0  0  0  0  0  1  0  0  0  0  0  0
  192.9170  176.9970  149.7060 C   0  0  0  0  0  2  0  0  0  0  0  0
  191.0380  176.6090  139.8660 C   0  0  0  0  0  0  0  0  0  0  0  0
  190.8520  175.6280  138.8370 N   0  0  0  0  0  2  0  0  0  0  0  0
  191.9630  177.4600  139.7810 O   0  0  0  0  0  0  0  0  0  0  0  0
  193.1260  175.7060  138.0110 C   0  0  0  0  0  1  0  0  0  0  0  0
  191.3100  176.5380  136.7340 O   0  0  0  0  0  1  0  0  0  0  0  0
  191.6700  175.5340  137.6330 C   0  0  0  0  0  0  0  0  0  0  0  0
  191.4900  174.1760  136.9800 C   0  0  0  0  0  1  0  0  0  0  0  0
  1  5  1  0  0  0  0
  2  5  1  0  0  0  0
  3  6  1  0  0  0  0
  4 11  1  0  0  0  0
  4  9  1  0  0  0  0
  5 19  1  0  0  0  0
  6 13  1  0  0  0  0
  8 10  1  0  0  0  0
  8 11  1  0  0  0  0
  8  2  1  0  0  0  0
  9  7  2  0  0  0  0
  9  6  1  0  0  0  0
 10  1  1  0  0  0  0
 11  2  1  0  0  0  0
 11  3  1  0  0  0  0
 12 14  2  0  0  0  0
 13 17  2  0  0  0  0
 13 15  1  0  0  0  0
 14 16  1  0  0  0  0
 15 14  1  0  0  0  0
 17 12  1  0  0  0  0
 18 20  2  0  0  0  0
 19 20  1  0  0  0  0
 19 21  1  0  0  0  0
 20 22  1  0  0  0  0
 22 23  2  0  0  0  0
 22 24  1  0  0  0  0
 24 26  1  0  0  0  0
 25 26  1  0  0  0  0
 26 28  1  0  0  0  0
 27 28  1  0  0  0  0
 29 10  1  0  0  0  0
 30 29  1  0  0  0  0
 31 29  2  0  0  0  0
 33 34  1  0  0  0  0
 34 32  1  0  0  0  0
 34 30  1  0  0  0  0
 35 34  1  0  0  0  0
M  END
>  <MODEL>
8

>  <REMARK>
 VINA RESULT:      -5.6      1.995      5.652
  Name = 
  8 active torsions:
  status: ('A' for Active; 'I' for Inactive)
    1  A    between atoms: N_4  and  C_11
    2  A    between atoms: C_10  and  CA_30
    3  A    between atoms: C_12  and  C_19
    4  A    between atoms: C_12  and  C_29
    5  A    between atoms: C_14  and  C_15
    6  A    between atoms: C_20  and  C_22
    7  A    between atoms: N_23  and  C_26
    8  A    between atoms: C_29  and  CA_30
                            x       y       z     vdW  Elec       q    Type
                         _______ _______ _______ _____ _____    ______ ____

>  <TORSDO>
F 8

$$$$
=
 OpenBabel10222419183D

 35 38  0  0  1  0  0  0  0  0999 V2000
  181.8280  179.6050  136.9720 O   0  0  0  0  0  0  0  0  0  0  0  0
  182.0140  178.3470  139.0270 C   0  0  1  0  0  3  0  0  0  0  0  0
  180.5280  176.7310  137.0850 S   0  0  0  0  0  0  0  0  0  0  0  0
  180.4120  176.6320  139.8170 N   0  0  0  0  0  2  0  0  0  0  0  0
  182.7390  178.9740  137.8400 C   0  0  1  0  0  3  0  0  0  0  0  0
  180.3690  175.0890  137.8790 C   0  0  2  0  0  3  0  0  0  0  0  0
  179.8260  174.3950  140.1240 O   0  0  0  0  0  0  0  0  0  0  0  0
  180.6380  178.9810  138.9770 C   0  0  1  0  0  3  0  0  0  0  0  0
  180.1750  175.3190  139.3430 C   0  0  0  0  0  0  0  0  0  0  0  0
  180.6320  179.7960  137.6930 C   0  0  1  0  0  3  0  0  0  0  0  0
  180.7920  177.4950  138.7260 C   0  0  1  0  0  0  0  0  0  0  0  0
  183.8520  173.7550  137.5440 N   0  0  0  0  0  0  0  0  0  0  0  0
  181.6040  174.2860  137.6180 C   0  0  0  0  0  0  0  0  0  0  0  0
  183.3120  172.7230  136.8630 C   0  0  0  0  0  0  0  0  0  0  0  0
  181.6410  172.8510  136.7450 S   0  0  0  0  0  0  0  0  0  0  0  0
  184.1160  171.6140  136.2840 C   0  0  0  0  0  1  0  0  0  0  0  0
  182.9070  174.6380  137.9650 C   0  0  0  0  0  3  0  0  0  0  0  0
  185.1660  177.9790  138.8800 O   0  0  0  0  0  0  0  0  0  0  0  0
  183.6070  178.0170  137.1370 N   0  0  0  0  0  0  0  0  0  0  0  0
  184.9110  177.7010  137.6770 C   0  0  0  0  0  0  0  0  0  0  0  0
  183.1580  177.4310  135.8790 C   0  0  0  0  0  1  0  0  0  0  0  0
  185.9780  177.0540  136.8780 C   0  0  0  0  0  0  0  0  0  0  0  0
  186.0570  175.7970  136.8640 O   0  0  0  0  0  0  0  0  0  0  0  0
  187.0220  177.8390  136.1430 C   0  0  0  0  0  2  0  0  0  0  0  0
  189.3190  177.0600  135.7590 N   0  0  0  0  0  1  0  0  0  0  0  0
  188.4250  177.6710  136.7290 C   0  0  1  0  0  3  0  0  0  0  0  0
  189.0520  179.0030  138.6100 O   0  0  0  0  0  1  0  0  0  0  0  0
  188.9920  178.9960  137.2170 C   0  0  0  0  0  2  0  0  0  0  0  0
  180.4300  181.2440  137.9920 C   0  0  0  0  0  0  0  0  0  0  0  0
  180.2970  182.1860  136.9210 N   0  0  0  0  0  2  0  0  0  0  0  0
  180.3960  181.6270  139.1920 O   0  0  0  0  0  0  0  0  0  0  0  0
  181.4330  184.2690  137.4030 C   0  0  0  0  0  1  0  0  0  0  0  0
  179.2330  183.8450  138.1780 O   0  0  0  0  0  1  0  0  0  0  0  0
  180.0980  183.6190  137.1060 C   0  0  0  0  0  0  0  0  0  0  0  0
  179.5200  184.2380  135.8470 C   0  0  0  0  0  1  0  0  0  0  0  0
  1 10  1  0  0  0  0
  1  5  1  0  0  0  0
  3  6  1  0  0  0  0
  3 11  1  0  0  0  0
  5  2  1  0  0  0  0
  6  9  1  0  0  0  0
  8  2  1  0  0  0  0
  9  4  1  0  0  0  0
  9  7  2  0  0  0  0
 10 29  1  0  0  0  0
 10  8  1  0  0  0  0
 11  8  1  0  0  0  0
 11  2  1  0  0  0  0
 11  4  1  0  0  0  0
 12 17  1  0  0  0  0
 13  6  1  0  0  0  0
 13 17  2  0  0  0  0
 14 12  2  0  0  0  0
 15 14  1  0  0  0  0
 15 13  1  0  0  0  0
 16 14  1  0  0  0  0
 19 20  1  0  0  0  0
 19  5  1  0  0  0  0
 20 18  2  0  0  0  0
 21 19  1  0  0  0  0
 22 20  1  0  0  0  0
 23 22  2  0  0  0  0
 24 26  1  0  0  0  0
 24 22  1  0  0  0  0
 25 26  1  0  0  0  0
 26 28  1  0  0  0  0
 28 27  1  0  0  0  0
 29 31  2  0  0  0  0
 30 34  1  0  0  0  0
 30 29  1  0  0  0  0
 34 32  1  0  0  0  0
 34 33  1  0  0  0  0
 35 34  1  0  0  0  0
M  END
>  <MODEL>
9

>  <REMARK>
 VINA RESULT:      -5.5      6.819     11.022
  Name = 
  8 active torsions:
  status: ('A' for Active; 'I' for Inactive)
    1  A    between atoms: N_4  and  C_11
    2  A    between atoms: C_10  and  CA_30
    3  A    between atoms: C_12  and  C_19
    4  A    between atoms: C_12  and  C_29
    5  A    between atoms: C_14  and  C_15
    6  A    between atoms: C_20  and  C_22
    7  A    between atoms: N_23  and  C_26
    8  A    between atoms: C_29  and  CA_30
                            x       y       z     vdW  Elec       q    Type
                         _______ _______ _______ _____ _____    ______ ____

>  <TORSDO>
F 8

$$$$
