=
 OpenBabel10222416523D

 41 46  0  0  1  0  0  0  0  0999 V2000
  183.3790  178.3270  140.2320 C   0  0  0  0  0  0  0  0  0  0  0  0
  181.9840  178.5420  142.1890 N   0  0  0  0  0  0  0  0  0  0  0  0
  182.9270  177.5620  137.9280 N   0  0  0  0  0  0  0  0  0  0  0  0
  181.6560  178.7890  143.4860 C   0  0  0  0  0  0  0  0  0  0  0  0
  184.0930  178.3700  137.5210 C   0  0  0  0  0  2  0  0  0  0  0  0
  184.7110  178.5000  139.9310 C   0  0  0  0  0  0  0  0  0  0  0  0
  184.4860  178.9600  142.1240 C   0  0  0  0  0  0  0  0  0  0  0  0
  182.3350  178.0360  139.1930 C   0  0  0  0  0  2  0  0  0  0  0  0
  182.5430  179.2070  144.4880 C   0  0  0  0  0  3  0  0  0  0  0  0
  185.3960  178.8520  141.0870 C   0  0  0  0  0  0  0  0  0  0  0  0
  183.1840  178.6060  141.5690 C   0  0  0  0  0  0  0  0  0  0  0  0
  185.2450  178.3360  138.5440 C   0  0  0  0  0  2  0  0  0  0  0  0
  184.8020  179.3440  143.4120 C   0  0  0  0  0  3  0  0  0  0  0  0
  183.9130  179.4550  144.4660 C   0  0  0  0  0  3  0  0  0  0  0  0
  179.7950  177.4770  144.1860 O   0  0  0  0  0  0  0  0  0  0  0  0
  180.2420  178.6100  143.8610 C   0  0  0  0  0  0  0  0  0  0  0  0
  179.4020  179.6770  143.8620 F   0  0  0  0  0  0  0  0  0  0  0  0
  183.3020  176.1560  138.0670 C   0  0  0  0  0  2  0  0  0  0  0  0
  183.7210  175.5950  136.7200 C   0  0  0  0  0  2  0  0  0  0  0  0
  184.5460  174.4850  136.9020 O   0  0  0  0  0  0  0  0  0  0  0  0
  185.7470  174.8070  136.2680 C   0  0  1  0  0  3  0  0  0  0  0  0
  185.5060  175.9670  135.2870 C   0  0  0  0  0  2  0  0  0  0  0  0
  186.4500  178.0330  134.5940 O   0  0  0  0  0  0  0  0  0  0  0  0
  188.1040  175.4610  136.6020 C   0  0  0  0  0  2  0  0  0  0  0  0
  187.9320  176.6570  135.7740 N   0  0  0  0  0  0  0  0  0  0  0  0
  186.8050  175.1310  137.3160 C   0  0  0  0  0  2  0  0  0  0  0  0
  186.6510  176.9400  135.1790 C   0  0  0  0  0  0  0  0  0  0  0  0
  188.7970  178.6110  136.9840 C   0  0  0  0  0  2  0  0  0  0  0  0
  189.8400  177.5210  137.0440 C   0  0  0  0  0  2  0  0  0  0  0  0
  188.9840  177.6780  135.7930 C   0  0  0  0  0  3  0  0  0  0  0  0
  186.7870  179.1850  141.1850 N   0  0  0  0  0  2  0  0  0  0  0  0
  188.9590  177.0360  143.2620 N   0  0  0  0  0  0  0  0  0  0  0  0
  189.5550  176.7370  140.9990 N   0  0  0  0  0  0  0  0  0  0  0  0
  188.0140  177.9440  142.8990 C   0  0  0  0  0  3  0  0  0  0  0  0
  189.7320  176.4330  142.3130 C   0  0  0  0  0  0  0  0  0  0  0  0
  188.6190  177.6370  140.6080 C   0  0  0  0  0  3  0  0  0  0  0  0
  190.6080  175.5880  142.6400 O   0  0  0  0  0  0  0  0  0  0  0  0
  187.8310  178.2780  141.5590 C   0  0  0  0  0  0  0  0  0  0  0  0
  189.1240  176.7190  144.6770 C   0  0  0  0  0  2  0  0  0  0  0  0
  188.2070  177.5660  145.5410 C   0  0  0  0  0  2  0  0  0  0  0  0
  188.4770  177.3270  147.0080 C   0  0  0  0  0  1  0  0  0  0  0  0
  1 11  1  0  0  0  0
  2  4  1  0  0  0  0
  3 18  1  0  0  0  0
  3  8  1  0  0  0  0
  4 16  1  0  0  0  0
  4  9  2  0  0  0  0
  5  3  1  0  0  0  0
  5 12  1  0  0  0  0
  6  1  2  0  0  0  0
  6 10  1  0  0  0  0
  7 13  1  0  0  0  0
  8  1  1  0  0  0  0
 10 31  1  0  0  0  0
 10  7  2  0  0  0  0
 11  7  1  0  0  0  0
 11  2  2  0  0  0  0
 12  6  1  0  0  0  0
 13 14  2  0  0  0  0
 14  9  1  0  0  0  0
 16 17  1  0  0  0  0
 16 15  2  0  0  0  0
 19 20  1  0  0  0  0
 19 18  1  0  0  0  0
 21 20  1  1  0  0  0
 21 26  1  0  0  0  0
 22 21  1  0  0  0  0
 23 27  2  0  0  0  0
 24 26  1  0  0  0  0
 25 30  1  0  0  0  0
 25 24  1  0  0  0  0
 27 22  1  0  0  0  0
 27 25  1  0  0  0  0
 28 29  1  0  0  0  0
 30 28  1  0  0  0  0
 30 29  1  0  0  0  0
 31 38  1  0  0  0  0
 32 39  1  0  0  0  0
 33 35  1  0  0  0  0
 34 32  1  0  0  0  0
 35 37  2  0  0  0  0
 35 32  1  0  0  0  0
 36 33  2  0  0  0  0
 36 38  1  0  0  0  0
 38 34  2  0  0  0  0
 39 40  1  0  0  0  0
 40 41  1  0  0  0  0
M  END
>  <MODEL>
1

>  <REMARK>
 VINA RESULT:      -7.9      0.000      0.000
  Name = 
  10 active torsions:
  status: ('A' for Active; 'I' for Inactive)
    1  A    between atoms: C_1  and  O_13
    2  A    between atoms: N_2  and  C_32
    3  A    between atoms: C_3  and  N_15
    4  A    between atoms: C_3  and  C_37
    5  A    between atoms: C_10  and  C_32
    6  A    between atoms: O_13  and  C_37
    7  A    between atoms: N_17  and  C_29
    8  A    between atoms: N_17  and  C_40
    9  A    between atoms: C_18  and  C_22
   10  A    between atoms: N_23  and  C_39
                            x       y       z     vdW  Elec       q    Type
                         _______ _______ _______ _____ _____    ______ ____

>  <TORSDO>
F 10

$$$$
=
 OpenBabel10222416523D

 41 46  0  0  1  0  0  0  0  0999 V2000
  184.6060  178.8720  141.8660 C   0  0  0  0  0  0  0  0  0  0  0  0
  186.4490  178.6410  140.3260 N   0  0  0  0  0  0  0  0  0  0  0  0
  184.4800  179.5350  144.2410 N   0  0  0  0  0  0  0  0  0  0  0  0
  187.1000  178.3450  139.1690 C   0  0  0  0  0  0  0  0  0  0  0  0
  183.0830  179.9240  143.9710 C   0  0  0  0  0  2  0  0  0  0  0  0
  183.2490  178.6450  141.8400 C   0  0  0  0  0  0  0  0  0  0  0  0
  184.0350  178.0510  139.8150 C   0  0  0  0  0  0  0  0  0  0  0  0
  185.3040  179.5330  143.0190 C   0  0  0  0  0  2  0  0  0  0  0  0
  186.5010  177.8610  137.9970 C   0  0  0  0  0  3  0  0  0  0  0  0
  182.9000  178.1130  140.6050 C   0  0  0  0  0  0  0  0  0  0  0  0
  185.1380  178.5310  140.6400 C   0  0  0  0  0  0  0  0  0  0  0  0
  182.3610  178.9720  142.9980 C   0  0  0  0  0  2  0  0  0  0  0  0
  184.0590  177.6220  138.5030 C   0  0  0  0  0  3  0  0  0  0  0  0
  185.1790  177.5460  137.6950 C   0  0  0  0  0  3  0  0  0  0  0  0
  189.0940  179.2740  138.2570 O   0  0  0  0  0  0  0  0  0  0  0  0
  188.5570  178.5620  139.1480 C   0  0  0  0  0  0  0  0  0  0  0  0
  189.3390  177.9920  140.1000 F   0  0  0  0  0  0  0  0  0  0  0  0
  184.5310  178.2110  144.8590 C   0  0  0  0  0  2  0  0  0  0  0  0
  185.3730  178.2600  146.1220 C   0  0  0  0  0  2  0  0  0  0  0  0
  186.2960  177.2150  146.1200 O   0  0  0  0  0  0  0  0  0  0  0  0
  187.5140  177.7960  145.7640 C   0  0  1  0  0  3  0  0  0  0  0  0
  188.5490  177.5180  146.8680 C   0  0  0  0  0  2  0  0  0  0  0  0
  190.8020  176.8300  147.1640 O   0  0  0  0  0  0  0  0  0  0  0  0
  189.2670  177.9310  144.0310 C   0  0  0  0  0  2  0  0  0  0  0  0
  190.3050  177.5550  144.9930 N   0  0  0  0  0  0  0  0  0  0  0  0
  187.9500  177.2710  144.4010 C   0  0  0  0  0  2  0  0  0  0  0  0
  189.9510  177.2960  146.3660 C   0  0  0  0  0  0  0  0  0  0  0  0
  191.5900  175.8010  143.8530 C   0  0  0  0  0  2  0  0  0  0  0  0
  191.5820  177.0280  142.9710 C   0  0  0  0  0  2  0  0  0  0  0  0
  191.6300  177.1870  144.4860 C   0  0  0  0  0  3  0  0  0  0  0  0
  181.5760  177.8000  140.1540 N   0  0  0  0  0  2  0  0  0  0  0  0
  180.1450  180.6670  138.3150 N   0  0  0  0  0  0  0  0  0  0  0  0
  179.5730  178.6840  137.1720 N   0  0  0  0  0  0  0  0  0  0  0  0
  180.7950  179.9390  139.2640 C   0  0  0  0  0  3  0  0  0  0  0  0
  179.5330  180.0400  137.2700 C   0  0  0  0  0  0  0  0  0  0  0  0
  180.2140  177.9340  138.1020 C   0  0  0  0  0  3  0  0  0  0  0  0
  178.9310  180.7070  136.3840 O   0  0  0  0  0  0  0  0  0  0  0  0
  180.8320  178.5490  139.1870 C   0  0  0  0  0  0  0  0  0  0  0  0
  180.1230  182.1220  138.4360 C   0  0  0  0  0  2  0  0  0  0  0  0
  181.3930  182.7390  137.8740 C   0  0  0  0  0  2  0  0  0  0  0  0
  181.0680  183.8770  136.9370 C   0  0  0  0  0  1  0  0  0  0  0  0
  1  8  1  0  0  0  0
  2 11  1  0  0  0  0
  3 18  1  0  0  0  0
  4  2  2  0  0  0  0
  5  3  1  0  0  0  0
  6  1  1  0  0  0  0
  6 12  1  0  0  0  0
  7 10  1  0  0  0  0
  7 11  1  0  0  0  0
  8  3  1  0  0  0  0
  9  4  1  0  0  0  0
 10  6  2  0  0  0  0
 11  1  2  0  0  0  0
 12  5  1  0  0  0  0
 13  7  2  0  0  0  0
 14  9  2  0  0  0  0
 14 13  1  0  0  0  0
 15 16  2  0  0  0  0
 16  4  1  0  0  0  0
 16 17  1  0  0  0  0
 18 19  1  0  0  0  0
 20 19  1  0  0  0  0
 21 20  1  1  0  0  0
 21 22  1  0  0  0  0
 24 26  1  0  0  0  0
 24 25  1  0  0  0  0
 25 27  1  0  0  0  0
 26 21  1  0  0  0  0
 27 22  1  0  0  0  0
 27 23  2  0  0  0  0
 28 30  1  0  0  0  0
 29 28  1  0  0  0  0
 29 30  1  0  0  0  0
 30 25  1  0  0  0  0
 31 10  1  0  0  0  0
 32 39  1  0  0  0  0
 32 34  1  0  0  0  0
 33 35  1  0  0  0  0
 33 36  2  0  0  0  0
 35 32  1  0  0  0  0
 36 38  1  0  0  0  0
 37 35  2  0  0  0  0
 38 34  2  0  0  0  0
 38 31  1  0  0  0  0
 40 39  1  0  0  0  0
 41 40  1  0  0  0  0
M  END
>  <MODEL>
2

>  <REMARK>
 VINA RESULT:      -7.8      3.412      8.845
  Name = 
  10 active torsions:
  status: ('A' for Active; 'I' for Inactive)
    1  A    between atoms: C_1  and  O_13
    2  A    between atoms: N_2  and  C_32
    3  A    between atoms: C_3  and  N_15
    4  A    between atoms: C_3  and  C_37
    5  A    between atoms: C_10  and  C_32
    6  A    between atoms: O_13  and  C_37
    7  A    between atoms: N_17  and  C_29
    8  A    between atoms: N_17  and  C_40
    9  A    between atoms: C_18  and  C_22
   10  A    between atoms: N_23  and  C_39
                            x       y       z     vdW  Elec       q    Type
                         _______ _______ _______ _____ _____    ______ ____

>  <TORSDO>
F 10

$$$$
=
 OpenBabel10222416523D

 41 46  0  0  1  0  0  0  0  0999 V2000
  185.5860  178.4410  141.8530 C   0  0  0  0  0  0  0  0  0  0  0  0
  186.2590  178.1520  144.1520 N   0  0  0  0  0  0  0  0  0  0  0  0
  183.3790  178.6620  140.7680 N   0  0  0  0  0  0  0  0  0  0  0  0
  187.0910  177.9580  145.2100 C   0  0  0  0  0  0  0  0  0  0  0  0
  184.0820  179.3550  139.6710 C   0  0  0  0  0  2  0  0  0  0  0  0
  186.2120  178.4870  140.6270 C   0  0  0  0  0  0  0  0  0  0  0  0
  187.8270  178.1400  142.1570 C   0  0  0  0  0  0  0  0  0  0  0  0
  184.1250  178.7300  142.0380 C   0  0  0  0  0  2  0  0  0  0  0  0
  188.4850  177.8240  145.1390 C   0  0  0  0  0  3  0  0  0  0  0  0
  187.5720  178.2700  140.8030 C   0  0  0  0  0  0  0  0  0  0  0  0
  186.5370  178.2380  142.8310 C   0  0  0  0  0  0  0  0  0  0  0  0
  185.4670  178.7560  139.3600 C   0  0  0  0  0  2  0  0  0  0  0  0
  189.0800  177.9660  142.7100 C   0  0  0  0  0  3  0  0  0  0  0  0
  189.3610  177.8300  144.0580 C   0  0  0  0  0  3  0  0  0  0  0  0
  185.2670  178.2310  146.7180 O   0  0  0  0  0  0  0  0  0  0  0  0
  186.4690  177.8930  146.5450 C   0  0  0  0  0  0  0  0  0  0  0  0
  187.1940  177.4600  147.6080 F   0  0  0  0  0  0  0  0  0  0  0  0
  183.1450  177.2610  140.4200 C   0  0  0  0  0  2  0  0  0  0  0  0
  182.1110  177.1680  139.3120 C   0  0  0  0  0  2  0  0  0  0  0  0
  180.8530  176.9090  139.8560 O   0  0  0  0  0  0  0  0  0  0  0  0
  180.0320  177.9420  139.4010 C   0  0  1  0  0  3  0  0  0  0  0  0
  179.8240  178.9600  140.5350 C   0  0  0  0  0  2  0  0  0  0  0  0
  179.8120  181.2990  140.9460 O   0  0  0  0  0  0  0  0  0  0  0  0
  179.7260  179.6750  137.6690 C   0  0  0  0  0  2  0  0  0  0  0  0
  179.6330  180.7290  138.6820 N   0  0  0  0  0  0  0  0  0  0  0  0
  180.6450  178.5670  138.1530 C   0  0  0  0  0  2  0  0  0  0  0  0
  179.7390  180.3930  140.0790 C   0  0  0  0  0  0  0  0  0  0  0  0
  181.1480  182.5010  137.9100 C   0  0  0  0  0  2  0  0  0  0  0  0
  180.1730  182.1960  136.7970 C   0  0  0  0  0  2  0  0  0  0  0  0
  179.7090  182.1260  138.2470 C   0  0  0  0  0  3  0  0  0  0  0  0
  188.5800  178.3060  139.7850 N   0  0  0  0  0  2  0  0  0  0  0  0
  188.8130  175.5740  137.3080 N   0  0  0  0  0  0  0  0  0  0  0  0
  190.8040  175.6080  138.5740 N   0  0  0  0  0  0  0  0  0  0  0  0
  188.3260  176.6150  138.0370 C   0  0  0  0  0  3  0  0  0  0  0  0
  190.0510  175.0690  137.5780 C   0  0  0  0  0  0  0  0  0  0  0  0
  190.3430  176.6470  139.3160 C   0  0  0  0  0  3  0  0  0  0  0  0
  190.5120  174.1070  136.9050 O   0  0  0  0  0  0  0  0  0  0  0  0
  189.0770  177.1680  139.0710 C   0  0  0  0  0  0  0  0  0  0  0  0
  187.9920  175.0190  136.2370 C   0  0  0  0  0  2  0  0  0  0  0  0
  186.6410  174.5630  136.7610 C   0  0  0  0  0  2  0  0  0  0  0  0
  186.6930  173.1180  137.1990 C   0  0  0  0  0  1  0  0  0  0  0  0
  1  8  1  0  0  0  0
  1 11  1  0  0  0  0
  2  4  1  0  0  0  0
  3  8  1  0  0  0  0
  4 16  1  0  0  0  0
  5  3  1  0  0  0  0
  6 10  1  0  0  0  0
  6  1  2  0  0  0  0
  7 13  1  0  0  0  0
  7 11  1  0  0  0  0
  9  4  2  0  0  0  0
 10  7  2  0  0  0  0
 11  2  2  0  0  0  0
 12  5  1  0  0  0  0
 12  6  1  0  0  0  0
 13 14  2  0  0  0  0
 14  9  1  0  0  0  0
 16 15  2  0  0  0  0
 16 17  1  0  0  0  0
 18  3  1  0  0  0  0
 19 20  1  0  0  0  0
 19 18  1  0  0  0  0
 21 20  1  1  0  0  0
 21 22  1  0  0  0  0
 24 26  1  0  0  0  0
 24 25  1  0  0  0  0
 25 27  1  0  0  0  0
 26 21  1  0  0  0  0
 27 22  1  0  0  0  0
 27 23  2  0  0  0  0
 28 30  1  0  0  0  0
 29 28  1  0  0  0  0
 29 30  1  0  0  0  0
 30 25  1  0  0  0  0
 31 10  1  0  0  0  0
 32 35  1  0  0  0  0
 32 34  1  0  0  0  0
 33 36  2  0  0  0  0
 34 38  2  0  0  0  0
 35 33  1  0  0  0  0
 37 35  2  0  0  0  0
 38 36  1  0  0  0  0
 38 31  1  0  0  0  0
 39 40  1  0  0  0  0
 39 32  1  0  0  0  0
 40 41  1  0  0  0  0
M  END
>  <MODEL>
3

>  <REMARK>
 VINA RESULT:      -7.4      3.156      6.424
  Name = 
  10 active torsions:
  status: ('A' for Active; 'I' for Inactive)
    1  A    between atoms: C_1  and  O_13
    2  A    between atoms: N_2  and  C_32
    3  A    between atoms: C_3  and  N_15
    4  A    between atoms: C_3  and  C_37
    5  A    between atoms: C_10  and  C_32
    6  A    between atoms: O_13  and  C_37
    7  A    between atoms: N_17  and  C_29
    8  A    between atoms: N_17  and  C_40
    9  A    between atoms: C_18  and  C_22
   10  A    between atoms: N_23  and  C_39
                            x       y       z     vdW  Elec       q    Type
                         _______ _______ _______ _____ _____    ______ ____

>  <TORSDO>
F 10

$$$$
=
 OpenBabel10222416523D

 41 46  0  0  1  0  0  0  0  0999 V2000
  185.4160  176.1760  136.9880 C   0  0  0  0  0  0  0  0  0  0  0  0
  184.2960  174.0850  136.5490 N   0  0  0  0  0  0  0  0  0  0  0  0
  187.7250  176.9560  136.5880 N   0  0  0  0  0  0  0  0  0  0  0  0
  183.2950  173.1640  136.5480 C   0  0  0  0  0  0  0  0  0  0  0  0
  187.1740  178.3250  136.5990 C   0  0  0  0  0  2  0  0  0  0  0  0
  185.1000  177.3710  137.5950 C   0  0  0  0  0  0  0  0  0  0  0  0
  183.2750  176.0630  137.7680 C   0  0  0  0  0  0  0  0  0  0  0  0
  186.7040  175.9470  136.2510 C   0  0  0  0  0  2  0  0  0  0  0  0
  182.0130  173.3490  137.0860 C   0  0  0  0  0  3  0  0  0  0  0  0
  183.8090  177.2950  138.1020 C   0  0  0  0  0  0  0  0  0  0  0  0
  184.3240  175.3380  137.0590 C   0  0  0  0  0  0  0  0  0  0  0  0
  186.0520  178.5230  137.6360 C   0  0  0  0  0  2  0  0  0  0  0  0
  181.9890  175.6560  138.0620 C   0  0  0  0  0  3  0  0  0  0  0  0
  181.4330  174.4300  137.7430 C   0  0  0  0  0  3  0  0  0  0  0  0
  183.5420  171.7250  134.6650 O   0  0  0  0  0  0  0  0  0  0  0  0
  183.5860  171.8640  135.9180 C   0  0  0  0  0  0  0  0  0  0  0  0
  183.9090  170.7950  136.6900 F   0  0  0  0  0  0  0  0  0  0  0  0
  188.3130  176.6320  137.8880 C   0  0  0  0  0  2  0  0  0  0  0  0
  189.5050  177.5330  138.1560 C   0  0  0  0  0  2  0  0  0  0  0  0
  189.2750  178.2980  139.2990 O   0  0  0  0  0  0  0  0  0  0  0  0
  189.2900  177.3930  140.3620 C   0  0  1  0  0  3  0  0  0  0  0  0
  190.7420  177.1700  140.8160 C   0  0  0  0  0  2  0  0  0  0  0  0
  192.0670  177.0250  142.7820 O   0  0  0  0  0  0  0  0  0  0  0  0
  188.4140  176.8990  142.6160 C   0  0  0  0  0  2  0  0  0  0  0  0
  189.7690  176.7830  143.1620 N   0  0  0  0  0  0  0  0  0  0  0  0
  188.3930  177.9080  141.4820 C   0  0  0  0  0  2  0  0  0  0  0  0
  190.9080  176.9730  142.3000 C   0  0  0  0  0  0  0  0  0  0  0  0
  189.8020  178.1500  145.2010 C   0  0  0  0  0  2  0  0  0  0  0  0
  188.6450  177.1830  145.3010 C   0  0  0  0  0  2  0  0  0  0  0  0
  189.9370  176.7480  144.6170 C   0  0  0  0  0  3  0  0  0  0  0  0
  183.0840  178.3500  138.7460 N   0  0  0  0  0  2  0  0  0  0  0  0
  183.7380  179.0220  142.3190 N   0  0  0  0  0  0  0  0  0  0  0  0
  181.4490  178.5070  142.0610 N   0  0  0  0  0  0  0  0  0  0  0  0
  183.9340  178.8410  140.9850 C   0  0  0  0  0  3  0  0  0  0  0  0
  182.4950  178.8530  142.8580 C   0  0  0  0  0  0  0  0  0  0  0  0
  181.6160  178.3210  140.7280 C   0  0  0  0  0  3  0  0  0  0  0  0
  182.3030  179.0220  144.0930 O   0  0  0  0  0  0  0  0  0  0  0  0
  182.8770  178.4710  140.1580 C   0  0  0  0  0  0  0  0  0  0  0  0
  184.8730  179.4040  143.1530 C   0  0  0  0  0  2  0  0  0  0  0  0
  185.2300  178.3000  144.1340 C   0  0  0  0  0  2  0  0  0  0  0  0
  185.4480  178.8610  145.5190 C   0  0  0  0  0  1  0  0  0  0  0  0
  1 11  2  0  0  0  0
  1  6  1  0  0  0  0
  2 11  1  0  0  0  0
  3  5  1  0  0  0  0
  3 18  1  0  0  0  0
  4  2  2  0  0  0  0
  4  9  1  0  0  0  0
  5 12  1  0  0  0  0
  6 12  1  0  0  0  0
  6 10  2  0  0  0  0
  7 13  2  0  0  0  0
  7 10  1  0  0  0  0
  8  3  1  0  0  0  0
  8  1  1  0  0  0  0
  9 14  2  0  0  0  0
 10 31  1  0  0  0  0
 11  7  1  0  0  0  0
 14 13  1  0  0  0  0
 15 16  2  0  0  0  0
 16  4  1  0  0  0  0
 16 17  1  0  0  0  0
 18 19  1  0  0  0  0
 19 20  1  0  0  0  0
 21 20  1  6  0  0  0
 21 22  1  0  0  0  0
 21 26  1  0  0  0  0
 22 27  1  0  0  0  0
 24 25  1  0  0  0  0
 25 30  1  0  0  0  0
 26 24  1  0  0  0  0
 27 23  2  0  0  0  0
 27 25  1  0  0  0  0
 28 29  1  0  0  0  0
 30 28  1  0  0  0  0
 30 29  1  0  0  0  0
 31 38  1  0  0  0  0
 32 35  1  0  0  0  0
 32 39  1  0  0  0  0
 33 35  1  0  0  0  0
 34 32  1  0  0  0  0
 35 37  2  0  0  0  0
 36 33  2  0  0  0  0
 38 36  1  0  0  0  0
 38 34  2  0  0  0  0
 39 40  1  0  0  0  0
 40 41  1  0  0  0  0
M  END
>  <MODEL>
4

>  <REMARK>
 VINA RESULT:      -7.3      2.686      7.090
  Name = 
  10 active torsions:
  status: ('A' for Active; 'I' for Inactive)
    1  A    between atoms: C_1  and  O_13
    2  A    between atoms: N_2  and  C_32
    3  A    between atoms: C_3  and  N_15
    4  A    between atoms: C_3  and  C_37
    5  A    between atoms: C_10  and  C_32
    6  A    between atoms: O_13  and  C_37
    7  A    between atoms: N_17  and  C_29
    8  A    between atoms: N_17  and  C_40
    9  A    between atoms: C_18  and  C_22
   10  A    between atoms: N_23  and  C_39
                            x       y       z     vdW  Elec       q    Type
                         _______ _______ _______ _____ _____    ______ ____

>  <TORSDO>
F 10

$$$$
=
 OpenBabel10222416523D

 41 46  0  0  1  0  0  0  0  0999 V2000
  184.7060  178.9940  141.7920 C   0  0  0  0  0  0  0  0  0  0  0  0
  186.4380  178.6160  140.1550 N   0  0  0  0  0  0  0  0  0  0  0  0
  184.7660  179.5800  144.1900 N   0  0  0  0  0  0  0  0  0  0  0  0
  186.9960  178.2920  138.9580 C   0  0  0  0  0  0  0  0  0  0  0  0
  183.4100  180.1320  144.0020 C   0  0  0  0  0  2  0  0  0  0  0  0
  183.3320  178.9200  141.8270 C   0  0  0  0  0  0  0  0  0  0  0  0
  183.9510  178.3160  139.7480 C   0  0  0  0  0  0  0  0  0  0  0  0
  185.5270  179.5320  142.9280 C   0  0  0  0  0  2  0  0  0  0  0  0
  186.2930  177.9200  137.8030 C   0  0  0  0  0  3  0  0  0  0  0  0
  182.8690  178.4750  140.5960 C   0  0  0  0  0  0  0  0  0  0  0  0
  185.1390  178.6400  140.5310 C   0  0  0  0  0  0  0  0  0  0  0  0
  182.5420  179.3010  143.0380 C   0  0  0  0  0  2  0  0  0  0  0  0
  183.8660  177.9350  138.4240 C   0  0  0  0  0  3  0  0  0  0  0  0
  184.9320  177.7650  137.5580 C   0  0  0  0  0  3  0  0  0  0  0  0
  189.0490  179.3380  138.3540 O   0  0  0  0  0  0  0  0  0  0  0  0
  188.4660  178.3470  138.8700 C   0  0  0  0  0  0  0  0  0  0  0  0
  189.2110  177.3190  139.3520 F   0  0  0  0  0  0  0  0  0  0  0  0
  184.6970  178.2370  144.7640 C   0  0  0  0  0  2  0  0  0  0  0  0
  185.4190  178.2060  146.0990 C   0  0  0  0  0  2  0  0  0  0  0  0
  186.3380  177.1570  146.1180 O   0  0  0  0  0  0  0  0  0  0  0  0
  187.5650  177.7320  145.7830 C   0  0  1  0  0  3  0  0  0  0  0  0
  188.5890  177.4190  146.8870 C   0  0  0  0  0  2  0  0  0  0  0  0
  190.8330  176.6980  147.1820 O   0  0  0  0  0  0  0  0  0  0  0  0
  189.3300  177.8830  144.0640 C   0  0  0  0  0  2  0  0  0  0  0  0
  190.3580  177.4760  145.0250 N   0  0  0  0  0  0  0  0  0  0  0  0
  188.0040  177.2310  144.4120 C   0  0  0  0  0  2  0  0  0  0  0  0
  189.9920  177.1910  146.3890 C   0  0  0  0  0  0  0  0  0  0  0  0
  191.6780  175.6580  144.0350 C   0  0  0  0  0  2  0  0  0  0  0  0
  191.5990  176.7840  143.0300 C   0  0  0  0  0  2  0  0  0  0  0  0
  191.6820  177.1040  144.5190 C   0  0  0  0  0  3  0  0  0  0  0  0
  181.4990  178.3270  140.2030 N   0  0  0  0  0  2  0  0  0  0  0  0
  180.4850  174.9190  139.1980 N   0  0  0  0  0  0  0  0  0  0  0  0
  179.1880  175.5680  141.0600 N   0  0  0  0  0  0  0  0  0  0  0  0
  181.1170  176.1240  139.2120 C   0  0  0  0  0  3  0  0  0  0  0  0
  179.5190  174.6410  140.1210 C   0  0  0  0  0  0  0  0  0  0  0  0
  179.8020  176.7760  141.0980 C   0  0  0  0  0  3  0  0  0  0  0  0
  178.9310  173.5260  140.1170 O   0  0  0  0  0  0  0  0  0  0  0  0
  180.7790  177.0900  140.1570 C   0  0  0  0  0  0  0  0  0  0  0  0
  180.8640  173.9370  138.1880 C   0  0  0  0  0  2  0  0  0  0  0  0
  181.6240  174.5890  137.0450 C   0  0  0  0  0  2  0  0  0  0  0  0
  183.0210  174.0240  136.9370 C   0  0  0  0  0  1  0  0  0  0  0  0
  1  6  1  0  0  0  0
  1  8  1  0  0  0  0
  2 11  1  0  0  0  0
  3 18  1  0  0  0  0
  4  2  2  0  0  0  0
  5  3  1  0  0  0  0
  6 12  1  0  0  0  0
  7 11  1  0  0  0  0
  7 10  1  0  0  0  0
  8  3  1  0  0  0  0
  9  4  1  0  0  0  0
 10  6  2  0  0  0  0
 11  1  2  0  0  0  0
 12  5  1  0  0  0  0
 13  7  2  0  0  0  0
 14  9  2  0  0  0  0
 14 13  1  0  0  0  0
 15 16  2  0  0  0  0
 16  4  1  0  0  0  0
 16 17  1  0  0  0  0
 18 19  1  0  0  0  0
 19 20  1  0  0  0  0
 21 20  1  1  0  0  0
 21 22  1  0  0  0  0
 24 26  1  0  0  0  0
 24 25  1  0  0  0  0
 25 27  1  0  0  0  0
 26 21  1  0  0  0  0
 27 22  1  0  0  0  0
 27 23  2  0  0  0  0
 28 30  1  0  0  0  0
 29 28  1  0  0  0  0
 29 30  1  0  0  0  0
 30 25  1  0  0  0  0
 31 10  1  0  0  0  0
 32 34  1  0  0  0  0
 32 35  1  0  0  0  0
 33 36  2  0  0  0  0
 34 38  2  0  0  0  0
 35 33  1  0  0  0  0
 37 35  2  0  0  0  0
 38 31  1  0  0  0  0
 38 36  1  0  0  0  0
 39 32  1  0  0  0  0
 40 39  1  0  0  0  0
 41 40  1  0  0  0  0
M  END
>  <MODEL>
5

>  <REMARK>
 VINA RESULT:      -7.3      3.158      8.565
  Name = 
  10 active torsions:
  status: ('A' for Active; 'I' for Inactive)
    1  A    between atoms: C_1  and  O_13
    2  A    between atoms: N_2  and  C_32
    3  A    between atoms: C_3  and  N_15
    4  A    between atoms: C_3  and  C_37
    5  A    between atoms: C_10  and  C_32
    6  A    between atoms: O_13  and  C_37
    7  A    between atoms: N_17  and  C_29
    8  A    between atoms: N_17  and  C_40
    9  A    between atoms: C_18  and  C_22
   10  A    between atoms: N_23  and  C_39
                            x       y       z     vdW  Elec       q    Type
                         _______ _______ _______ _____ _____    ______ ____

>  <TORSDO>
F 10

$$$$
=
 OpenBabel10222416523D

 41 46  0  0  1  0  0  0  0  0999 V2000
  186.6980  178.2560  139.3290 C   0  0  0  0  0  0  0  0  0  0  0  0
  184.4030  178.2510  140.0710 N   0  0  0  0  0  0  0  0  0  0  0  0
  187.7530  177.8030  137.1430 N   0  0  0  0  0  0  0  0  0  0  0  0
  183.3520  178.3380  140.9310 C   0  0  0  0  0  0  0  0  0  0  0  0
  188.8840  178.6280  137.6130 C   0  0  0  0  0  2  0  0  0  0  0  0
  187.9350  178.4350  139.9070 C   0  0  0  0  0  0  0  0  0  0  0  0
  186.4210  178.6150  141.5650 C   0  0  0  0  0  0  0  0  0  0  0  0
  186.4980  178.1250  137.8470 C   0  0  0  0  0  2  0  0  0  0  0  0
  183.4420  178.6030  142.3050 C   0  0  0  0  0  3  0  0  0  0  0  0
  187.7740  178.6190  141.2750 C   0  0  0  0  0  0  0  0  0  0  0  0
  185.7300  178.3660  140.3050 C   0  0  0  0  0  0  0  0  0  0  0  0
  189.1980  178.4360  139.1090 C   0  0  0  0  0  2  0  0  0  0  0  0
  185.8840  178.8230  142.8200 C   0  0  0  0  0  3  0  0  0  0  0  0
  184.5370  178.8190  143.1360 C   0  0  0  0  0  3  0  0  0  0  0  0
  181.3400  179.1240  139.9280 O   0  0  0  0  0  0  0  0  0  0  0  0
  182.0070  178.1460  140.3620 C   0  0  0  0  0  0  0  0  0  0  0  0
  181.4710  176.9000  140.3000 F   0  0  0  0  0  0  0  0  0  0  0  0
  188.0530  176.3820  137.3140 C   0  0  0  0  0  2  0  0  0  0  0  0
  189.2320  175.9920  136.4410 C   0  0  0  0  0  2  0  0  0  0  0  0
  189.9160  174.9210  137.0160 O   0  0  0  0  0  0  0  0  0  0  0  0
  191.2520  175.0930  136.6490 C   0  0  1  0  0  3  0  0  0  0  0  0
  191.8920  176.1580  137.5560 C   0  0  0  0  0  2  0  0  0  0  0  0
  193.8610  176.5760  138.8160 O   0  0  0  0  0  0  0  0  0  0  0  0
  193.4180  173.9650  136.2930 C   0  0  0  0  0  2  0  0  0  0  0  0
  194.0880  174.8640  137.2350 N   0  0  0  0  0  0  0  0  0  0  0  0
  191.9740  173.7530  136.7120 C   0  0  0  0  0  2  0  0  0  0  0  0
  193.3360  175.8980  137.8990 C   0  0  0  0  0  0  0  0  0  0  0  0
  195.3860  173.4070  138.7250 C   0  0  0  0  0  2  0  0  0  0  0  0
  195.7720  173.0870  137.3000 C   0  0  0  0  0  2  0  0  0  0  0  0
  195.4400  174.5230  137.6880 C   0  0  0  0  0  3  0  0  0  0  0  0
  188.8100  178.9040  142.2240 N   0  0  0  0  0  2  0  0  0  0  0  0
  190.7220  177.0260  144.7660 N   0  0  0  0  0  0  0  0  0  0  0  0
  190.9740  175.9380  142.6870 N   0  0  0  0  0  0  0  0  0  0  0  0
  189.9480  177.9780  144.1800 C   0  0  0  0  0  3  0  0  0  0  0  0
  191.2370  176.0060  144.0190 C   0  0  0  0  0  0  0  0  0  0  0  0
  190.2040  176.8740  142.0770 C   0  0  0  0  0  3  0  0  0  0  0  0
  191.9530  175.1160  144.5550 O   0  0  0  0  0  0  0  0  0  0  0  0
  189.6820  177.9330  142.8140 C   0  0  0  0  0  0  0  0  0  0  0  0
  190.9830  177.1130  146.2000 C   0  0  0  0  0  2  0  0  0  0  0  0
  189.7460  176.7580  147.0060 C   0  0  0  0  0  2  0  0  0  0  0  0
  189.4280  177.8420  148.0080 C   0  0  0  0  0  1  0  0  0  0  0  0
  1  6  2  0  0  0  0
  1 11  1  0  0  0  0
  2 11  2  0  0  0  0
  2  4  1  0  0  0  0
  3 18  1  0  0  0  0
  3  5  1  0  0  0  0
  3  8  1  0  0  0  0
  4  9  2  0  0  0  0
  5 12  1  0  0  0  0
  6 10  1  0  0  0  0
  7 13  1  0  0  0  0
  8  1  1  0  0  0  0
  9 14  1  0  0  0  0
 10  7  2  0  0  0  0
 10 31  1  0  0  0  0
 11  7  1  0  0  0  0
 12  6  1  0  0  0  0
 13 14  2  0  0  0  0
 15 16  2  0  0  0  0
 16  4  1  0  0  0  0
 17 16  1  0  0  0  0
 19 20  1  0  0  0  0
 19 18  1  0  0  0  0
 21 26  1  0  0  0  0
 21 20  1  1  0  0  0
 21 22  1  0  0  0  0
 22 27  1  0  0  0  0
 24 26  1  0  0  0  0
 24 25  1  0  0  0  0
 25 30  1  0  0  0  0
 25 27  1  0  0  0  0
 27 23  2  0  0  0  0
 29 30  1  0  0  0  0
 29 28  1  0  0  0  0
 30 28  1  0  0  0  0
 31 38  1  0  0  0  0
 32 39  1  0  0  0  0
 33 35  1  0  0  0  0
 34 32  1  0  0  0  0
 35 37  2  0  0  0  0
 35 32  1  0  0  0  0
 36 33  2  0  0  0  0
 36 38  1  0  0  0  0
 38 34  2  0  0  0  0
 39 40  1  0  0  0  0
 40 41  1  0  0  0  0
M  END
>  <MODEL>
6

>  <REMARK>
 VINA RESULT:      -7.3      3.249      4.543
  Name = 
  10 active torsions:
  status: ('A' for Active; 'I' for Inactive)
    1  A    between atoms: C_1  and  O_13
    2  A    between atoms: N_2  and  C_32
    3  A    between atoms: C_3  and  N_15
    4  A    between atoms: C_3  and  C_37
    5  A    between atoms: C_10  and  C_32
    6  A    between atoms: O_13  and  C_37
    7  A    between atoms: N_17  and  C_29
    8  A    between atoms: N_17  and  C_40
    9  A    between atoms: C_18  and  C_22
   10  A    between atoms: N_23  and  C_39
                            x       y       z     vdW  Elec       q    Type
                         _______ _______ _______ _____ _____    ______ ____

>  <TORSDO>
F 10

$$$$
=
 OpenBabel10222416523D

 41 46  0  0  1  0  0  0  0  0999 V2000
  185.4560  178.2510  139.3500 C   0  0  0  0  0  0  0  0  0  0  0  0
  183.4530  178.4510  140.6800 N   0  0  0  0  0  0  0  0  0  0  0  0
  185.8510  177.5870  137.0050 N   0  0  0  0  0  0  0  0  0  0  0  0
  182.6830  178.6650  141.7800 C   0  0  0  0  0  0  0  0  0  0  0  0
  187.1050  178.3610  137.0850 C   0  0  0  0  0  2  0  0  0  0  0  0
  186.8110  178.3800  139.5590 C   0  0  0  0  0  0  0  0  0  0  0  0
  185.8180  178.7700  141.5420 C   0  0  0  0  0  0  0  0  0  0  0  0
  184.8530  178.0390  137.9920 C   0  0  0  0  0  2  0  0  0  0  0  0
  183.1580  179.0110  143.0540 C   0  0  0  0  0  3  0  0  0  0  0  0
  187.0390  178.6630  140.8990 C   0  0  0  0  0  0  0  0  0  0  0  0
  184.7980  178.4890  140.5380 C   0  0  0  0  0  0  0  0  0  0  0  0
  187.8070  178.2440  138.4520 C   0  0  0  0  0  2  0  0  0  0  0  0
  185.6550  179.0950  142.8740 C   0  0  0  0  0  3  0  0  0  0  0  0
  184.4470  179.2040  143.5400 C   0  0  0  0  0  3  0  0  0  0  0  0
  180.4810  178.2580  142.5920 O   0  0  0  0  0  0  0  0  0  0  0  0
  181.2260  178.5300  141.6120 C   0  0  0  0  0  0  0  0  0  0  0  0
  180.6680  178.7010  140.3850 F   0  0  0  0  0  0  0  0  0  0  0  0
  186.1160  176.1620  137.2030 C   0  0  0  0  0  2  0  0  0  0  0  0
  184.9890  175.3380  136.6060 C   0  0  0  0  0  2  0  0  0  0  0  0
  184.4070  174.5430  137.5940 O   0  0  0  0  0  0  0  0  0  0  0  0
  183.0540  174.8870  137.5970 C   0  0  1  0  0  3  0  0  0  0  0  0
  182.2180  173.6560  137.2060 C   0  0  0  0  0  2  0  0  0  0  0  0
  180.2620  172.4670  137.8410 O   0  0  0  0  0  0  0  0  0  0  0  0
  181.2050  175.8290  138.9350 C   0  0  0  0  0  2  0  0  0  0  0  0
  180.3810  174.6380  138.7100 N   0  0  0  0  0  0  0  0  0  0  0  0
  182.6750  175.4480  138.9630 C   0  0  0  0  0  2  0  0  0  0  0  0
  180.8940  173.5500  137.9160 C   0  0  0  0  0  0  0  0  0  0  0  0
  179.5370  174.0800  140.9470 C   0  0  0  0  0  2  0  0  0  0  0  0
  179.1330  175.5010  140.6320 C   0  0  0  0  0  2  0  0  0  0  0  0
  179.1710  174.4620  139.5170 C   0  0  0  0  0  3  0  0  0  0  0  0
  188.3070  178.9350  141.5090 N   0  0  0  0  0  2  0  0  0  0  0  0
  190.1740  176.9580  144.0100 N   0  0  0  0  0  0  0  0  0  0  0  0
  190.5310  176.0020  141.8830 N   0  0  0  0  0  0  0  0  0  0  0  0
  189.3960  177.9240  143.4510 C   0  0  0  0  0  3  0  0  0  0  0  0
  190.7430  175.9970  143.2260 C   0  0  0  0  0  0  0  0  0  0  0  0
  189.7600  176.9530  141.2990 C   0  0  0  0  0  3  0  0  0  0  0  0
  191.4630  175.0950  143.7360 O   0  0  0  0  0  0  0  0  0  0  0  0
  189.1820  177.9530  142.0750 C   0  0  0  0  0  0  0  0  0  0  0  0
  190.3790  176.9660  145.4550 C   0  0  0  0  0  2  0  0  0  0  0  0
  189.3820  177.8810  146.1460 C   0  0  0  0  0  2  0  0  0  0  0  0
  188.5540  177.1140  147.1500 C   0  0  0  0  0  1  0  0  0  0  0  0
  1  6  2  0  0  0  0
  1 11  1  0  0  0  0
  2  4  1  0  0  0  0
  3  5  1  0  0  0  0
  3 18  1  0  0  0  0
  3  8  1  0  0  0  0
  4  9  2  0  0  0  0
  5 12  1  0  0  0  0
  6 10  1  0  0  0  0
  7 13  1  0  0  0  0
  8  1  1  0  0  0  0
  9 14  1  0  0  0  0
 10 31  1  0  0  0  0
 10  7  2  0  0  0  0
 11  2  2  0  0  0  0
 11  7  1  0  0  0  0
 12  6  1  0  0  0  0
 13 14  2  0  0  0  0
 16  4  1  0  0  0  0
 16 15  2  0  0  0  0
 17 16  1  0  0  0  0
 19 18  1  0  0  0  0
 19 20  1  0  0  0  0
 21 20  1  1  0  0  0
 21 26  1  0  0  0  0
 22 21  1  0  0  0  0
 22 27  1  0  0  0  0
 23 27  2  0  0  0  0
 24 26  1  0  0  0  0
 25 24  1  0  0  0  0
 25 30  1  0  0  0  0
 27 25  1  0  0  0  0
 29 28  1  0  0  0  0
 30 29  1  0  0  0  0
 30 28  1  0  0  0  0
 31 38  1  0  0  0  0
 32 39  1  0  0  0  0
 33 35  1  0  0  0  0
 34 32  1  0  0  0  0
 35 37  2  0  0  0  0
 35 32  1  0  0  0  0
 36 33  2  0  0  0  0
 36 38  1  0  0  0  0
 38 34  2  0  0  0  0
 39 40  1  0  0  0  0
 40 41  1  0  0  0  0
M  END
>  <MODEL>
7

>  <REMARK>
 VINA RESULT:      -7.2      2.250      4.415
  Name = 
  10 active torsions:
  status: ('A' for Active; 'I' for Inactive)
    1  A    between atoms: C_1  and  O_13
    2  A    between atoms: N_2  and  C_32
    3  A    between atoms: C_3  and  N_15
    4  A    between atoms: C_3  and  C_37
    5  A    between atoms: C_10  and  C_32
    6  A    between atoms: O_13  and  C_37
    7  A    between atoms: N_17  and  C_29
    8  A    between atoms: N_17  and  C_40
    9  A    between atoms: C_18  and  C_22
   10  A    between atoms: N_23  and  C_39
                            x       y       z     vdW  Elec       q    Type
                         _______ _______ _______ _____ _____    ______ ____

>  <TORSDO>
F 10

$$$$
=
 OpenBabel10222416523D

 41 46  0  0  1  0  0  0  0  0999 V2000
  184.4210  178.3550  138.6360 C   0  0  0  0  0  0  0  0  0  0  0  0
  186.6480  178.3510  137.7080 N   0  0  0  0  0  0  0  0  0  0  0  0
  183.4710  179.3000  140.7100 N   0  0  0  0  0  0  0  0  0  0  0  0
  187.6570  178.0560  136.8450 C   0  0  0  0  0  0  0  0  0  0  0  0
  182.1710  179.3040  140.0130 C   0  0  0  0  0  2  0  0  0  0  0  0
  183.2000  177.8110  138.3050 C   0  0  0  0  0  0  0  0  0  0  0  0
  184.6510  177.1380  136.7200 C   0  0  0  0  0  0  0  0  0  0  0  0
  184.6070  179.3200  139.7700 C   0  0  0  0  0  2  0  0  0  0  0  0
  187.5360  177.2820  135.6820 C   0  0  0  0  0  3  0  0  0  0  0  0
  183.3420  177.0400  137.1580 C   0  0  0  0  0  0  0  0  0  0  0  0
  185.3480  177.9790  137.6870 C   0  0  0  0  0  0  0  0  0  0  0  0
  181.9640  178.0790  139.1020 C   0  0  0  0  0  2  0  0  0  0  0  0
  185.1440  176.5440  135.5750 C   0  0  0  0  0  3  0  0  0  0  0  0
  186.4480  176.6220  135.1180 C   0  0  0  0  0  3  0  0  0  0  0  0
  189.1210  179.8060  137.5300 O   0  0  0  0  0  0  0  0  0  0  0  0
  188.9860  178.6080  137.1590 C   0  0  0  0  0  0  0  0  0  0  0  0
  190.0880  177.8210  137.0510 F   0  0  0  0  0  0  0  0  0  0  0  0
  183.5820  178.1280  141.5770 C   0  0  0  0  0  2  0  0  0  0  0  0
  183.8300  178.5660  143.0100 C   0  0  0  0  0  2  0  0  0  0  0  0
  185.1690  178.9200  143.1740 O   0  0  0  0  0  0  0  0  0  0  0  0
  185.6750  178.0290  144.1220 C   0  0  1  0  0  3  0  0  0  0  0  0
  187.0400  177.5040  143.6460 C   0  0  0  0  0  2  0  0  0  0  0  0
  189.2390  177.0780  144.4340 O   0  0  0  0  0  0  0  0  0  0  0  0
  186.2860  177.7240  146.4940 C   0  0  0  0  0  2  0  0  0  0  0  0
  187.6490  177.3240  146.1350 N   0  0  0  0  0  0  0  0  0  0  0  0
  185.7490  178.7180  145.4800 C   0  0  0  0  0  2  0  0  0  0  0  0
  188.0390  177.2720  144.7490 C   0  0  0  0  0  0  0  0  0  0  0  0
  188.7350  178.5740  147.9480 C   0  0  0  0  0  2  0  0  0  0  0  0
  187.9970  177.4050  148.5580 C   0  0  0  0  0  2  0  0  0  0  0  0
  188.6600  177.2510  147.1930 C   0  0  0  0  0  3  0  0  0  0  0  0
  182.2950  176.3610  136.4530 N   0  0  0  0  0  2  0  0  0  0  0  0
  180.2280  173.7240  138.0090 N   0  0  0  0  0  0  0  0  0  0  0  0
  181.6360  172.7210  136.4030 N   0  0  0  0  0  0  0  0  0  0  0  0
  180.7710  174.9400  137.7330 C   0  0  0  0  0  3  0  0  0  0  0  0
  180.6620  172.6130  137.3460 C   0  0  0  0  0  0  0  0  0  0  0  0
  182.1940  173.9210  136.1070 C   0  0  0  0  0  3  0  0  0  0  0  0
  180.1620  171.4820  137.5930 O   0  0  0  0  0  0  0  0  0  0  0  0
  181.7800  175.0650  136.7820 C   0  0  0  0  0  0  0  0  0  0  0  0
  179.1760  173.6340  139.0170 C   0  0  0  0  0  2  0  0  0  0  0  0
  179.5260  174.4470  140.2510 C   0  0  0  0  0  2  0  0  0  0  0  0
  179.5230  173.5780  141.4860 C   0  0  0  0  0  1  0  0  0  0  0  0
  1  8  1  0  0  0  0
  3 18  1  0  0  0  0
  4 16  1  0  0  0  0
  4  2  2  0  0  0  0
  5  3  1  0  0  0  0
  6  1  1  0  0  0  0
  6 12  1  0  0  0  0
  7 10  1  0  0  0  0
  7 11  1  0  0  0  0
  8  3  1  0  0  0  0
  9  4  1  0  0  0  0
 10  6  2  0  0  0  0
 11  2  1  0  0  0  0
 11  1  2  0  0  0  0
 12  5  1  0  0  0  0
 13  7  2  0  0  0  0
 14 13  1  0  0  0  0
 14  9  2  0  0  0  0
 16 15  2  0  0  0  0
 17 16  1  0  0  0  0
 18 19  1  0  0  0  0
 19 20  1  0  0  0  0
 21 20  1  6  0  0  0
 21 26  1  0  0  0  0
 22 21  1  0  0  0  0
 22 27  1  0  0  0  0
 23 27  2  0  0  0  0
 25 24  1  0  0  0  0
 25 30  1  0  0  0  0
 26 24  1  0  0  0  0
 27 25  1  0  0  0  0
 28 29  1  0  0  0  0
 30 28  1  0  0  0  0
 30 29  1  0  0  0  0
 31 38  1  0  0  0  0
 31 10  1  0  0  0  0
 32 39  1  0  0  0  0
 33 35  1  0  0  0  0
 34 32  1  0  0  0  0
 35 37  2  0  0  0  0
 35 32  1  0  0  0  0
 36 33  2  0  0  0  0
 36 38  1  0  0  0  0
 38 34  2  0  0  0  0
 39 40  1  0  0  0  0
 40 41  1  0  0  0  0
M  END
>  <MODEL>
8

>  <REMARK>
 VINA RESULT:      -7.2      3.413      8.900
  Name = 
  10 active torsions:
  status: ('A' for Active; 'I' for Inactive)
    1  A    between atoms: C_1  and  O_13
    2  A    between atoms: N_2  and  C_32
    3  A    between atoms: C_3  and  N_15
    4  A    between atoms: C_3  and  C_37
    5  A    between atoms: C_10  and  C_32
    6  A    between atoms: O_13  and  C_37
    7  A    between atoms: N_17  and  C_29
    8  A    between atoms: N_17  and  C_40
    9  A    between atoms: C_18  and  C_22
   10  A    between atoms: N_23  and  C_39
                            x       y       z     vdW  Elec       q    Type
                         _______ _______ _______ _____ _____    ______ ____

>  <TORSDO>
F 10

$$$$
=
 OpenBabel10222416523D

 41 46  0  0  1  0  0  0  0  0999 V2000
  188.3600  177.8730  140.4600 C   0  0  0  0  0  0  0  0  0  0  0  0
  186.1220  178.7470  140.2380 N   0  0  0  0  0  0  0  0  0  0  0  0
  190.2780  177.7660  138.9090 N   0  0  0  0  0  0  0  0  0  0  0  0
  184.8370  179.0330  140.5810 C   0  0  0  0  0  0  0  0  0  0  0  0
  191.1350  177.6900  140.1090 C   0  0  0  0  0  2  0  0  0  0  0  0
  189.0760  177.1940  141.4190 C   0  0  0  0  0  0  0  0  0  0  0  0
  187.0100  177.5000  142.2610 C   0  0  0  0  0  0  0  0  0  0  0  0
  188.9760  178.3950  139.1940 C   0  0  0  0  0  2  0  0  0  0  0  0
  184.2270  178.7100  141.8010 C   0  0  0  0  0  3  0  0  0  0  0  0
  188.2490  176.9340  142.5050 C   0  0  0  0  0  0  0  0  0  0  0  0
  187.0830  178.0950  140.9310 C   0  0  0  0  0  0  0  0  0  0  0  0
  190.5200  176.8500  141.2450 C   0  0  0  0  0  2  0  0  0  0  0  0
  185.9500  177.4870  143.1460 C   0  0  0  0  0  3  0  0  0  0  0  0
  184.7020  178.0410  142.9250 C   0  0  0  0  0  3  0  0  0  0  0  0
  184.5650  180.4970  138.7210 O   0  0  0  0  0  0  0  0  0  0  0  0
  184.0250  179.7530  139.5840 C   0  0  0  0  0  0  0  0  0  0  0  0
  182.6740  179.6150  139.5860 F   0  0  0  0  0  0  0  0  0  0  0  0
  190.0590  176.4320  138.3530 C   0  0  0  0  0  2  0  0  0  0  0  0
  188.8180  176.4330  137.4780 C   0  0  0  0  0  2  0  0  0  0  0  0
  188.5490  175.1380  137.0340 O   0  0  0  0  0  0  0  0  0  0  0  0
  187.2170  175.1590  136.6150 C   0  0  1  0  0  3  0  0  0  0  0  0
  186.5460  173.8280  136.9940 C   0  0  0  0  0  2  0  0  0  0  0  0
  184.5500  172.9650  137.9490 O   0  0  0  0  0  0  0  0  0  0  0  0
  185.0740  176.3770  136.7350 C   0  0  0  0  0  2  0  0  0  0  0  0
  184.3740  175.1820  137.2140 N   0  0  0  0  0  0  0  0  0  0  0  0
  186.5130  176.3680  137.2190 C   0  0  0  0  0  2  0  0  0  0  0  0
  185.1010  173.9510  137.3990 C   0  0  0  0  0  0  0  0  0  0  0  0
  183.0560  176.0960  139.0730 C   0  0  0  0  0  2  0  0  0  0  0  0
  182.6420  176.8080  137.8070 C   0  0  0  0  0  2  0  0  0  0  0  0
  183.0200  175.3320  137.7540 C   0  0  0  0  0  3  0  0  0  0  0  0
  188.6300  176.3070  143.7360 N   0  0  0  0  0  2  0  0  0  0  0  0
  187.9690  177.8630  147.0210 N   0  0  0  0  0  0  0  0  0  0  0  0
  190.2980  177.8690  146.6450 N   0  0  0  0  0  0  0  0  0  0  0  0
  187.7700  177.2770  145.8090 C   0  0  0  0  0  3  0  0  0  0  0  0
  189.2330  178.1610  147.4390 C   0  0  0  0  0  0  0  0  0  0  0  0
  190.1290  177.2830  145.4340 C   0  0  0  0  0  3  0  0  0  0  0  0
  189.4270  178.7020  148.5620 O   0  0  0  0  0  0  0  0  0  0  0  0
  188.8490  176.9850  144.9780 C   0  0  0  0  0  0  0  0  0  0  0  0
  186.8110  178.1580  147.8590 C   0  0  0  0  0  2  0  0  0  0  0  0
  186.0590  179.3750  147.3480 C   0  0  0  0  0  2  0  0  0  0  0  0
  185.0620  178.9840  146.2840 C   0  0  0  0  0  1  0  0  0  0  0  0
  1 11  2  0  0  0  0
  1  6  1  0  0  0  0
  2  4  2  0  0  0  0
  2 11  1  0  0  0  0
  3  8  1  0  0  0  0
  3  5  1  0  0  0  0
  4  9  1  0  0  0  0
  5 12  1  0  0  0  0
  6 10  2  0  0  0  0
  7 10  1  0  0  0  0
  7 13  2  0  0  0  0
  8  1  1  0  0  0  0
  9 14  2  0  0  0  0
 10 31  1  0  0  0  0
 11  7  1  0  0  0  0
 12  6  1  0  0  0  0
 14 13  1  0  0  0  0
 15 16  2  0  0  0  0
 16 17  1  0  0  0  0
 16  4  1  0  0  0  0
 18  3  1  0  0  0  0
 19 18  1  0  0  0  0
 20 19  1  0  0  0  0
 21 22  1  0  0  0  0
 21 20  1  1  0  0  0
 21 26  1  0  0  0  0
 22 27  1  0  0  0  0
 24 25  1  0  0  0  0
 24 26  1  0  0  0  0
 25 27  1  0  0  0  0
 25 30  1  0  0  0  0
 27 23  2  0  0  0  0
 29 28  1  0  0  0  0
 30 29  1  0  0  0  0
 30 28  1  0  0  0  0
 31 38  1  0  0  0  0
 32 35  1  0  0  0  0
 32 39  1  0  0  0  0
 33 35  1  0  0  0  0
 34 32  1  0  0  0  0
 35 37  2  0  0  0  0
 36 33  2  0  0  0  0
 38 36  1  0  0  0  0
 38 34  2  0  0  0  0
 40 39  1  0  0  0  0
 41 40  1  0  0  0  0
M  END
>  <MODEL>
9

>  <REMARK>
 VINA RESULT:      -7.2      2.692      5.006
  Name = 
  10 active torsions:
  status: ('A' for Active; 'I' for Inactive)
    1  A    between atoms: C_1  and  O_13
    2  A    between atoms: N_2  and  C_32
    3  A    between atoms: C_3  and  N_15
    4  A    between atoms: C_3  and  C_37
    5  A    between atoms: C_10  and  C_32
    6  A    between atoms: O_13  and  C_37
    7  A    between atoms: N_17  and  C_29
    8  A    between atoms: N_17  and  C_40
    9  A    between atoms: C_18  and  C_22
   10  A    between atoms: N_23  and  C_39
                            x       y       z     vdW  Elec       q    Type
                         _______ _______ _______ _____ _____    ______ ____

>  <TORSDO>
F 10

$$$$
