=
 OpenBabel10222415203D

 43 46  0  0  1  0  0  0  0  0999 V2000
  184.7790  178.8590  138.3460 O   0  0  0  0  0  0  0  0  0  0  0  0
  184.9360  179.7670  142.9040 O   0  0  0  0  0  0  0  0  0  0  0  0
  184.0790  178.8390  143.5120 C   0  0  2  0  0  3  0  0  0  0  0  0
  181.6020  178.5900  143.4010 O   0  0  0  0  0  1  0  0  0  0  0  0
  186.0910  179.1520  142.6810 O   0  0  0  0  0  0  0  0  0  0  0  0
  183.8170  178.8020  140.3500 C   0  0  0  0  0  0  0  0  0  0  0  0
  183.6240  178.9670  138.9730 C   0  0  0  0  0  0  0  0  0  0  0  0
  185.1820  178.5970  140.4870 C   0  0  0  0  0  0  0  0  0  0  0  0
  182.8030  178.7310  142.7160 C   0  0  0  0  0  0  0  0  0  0  0  0
  185.8750  178.2490  141.6820 N   0  0  0  0  0  2  0  0  0  0  0  0
  185.7190  178.6220  139.2270 C   0  0  0  0  0  0  0  0  0  0  0  0
  182.7410  178.7330  141.3740 C   0  0  0  0  0  3  0  0  0  0  0  0
  181.6330  178.1440  137.6880 C   0  0  0  0  0  3  0  0  0  0  0  0
  182.3440  179.2110  138.2590 C   0  0  0  0  0  0  0  0  0  0  0  0
  180.4390  178.3650  137.0010 C   0  0  0  0  0  3  0  0  0  0  0  0
  179.9370  179.6580  136.8740 C   0  0  0  0  0  3  0  0  0  0  0  0
  181.8280  180.5190  138.1290 C   0  0  0  0  0  0  0  0  0  0  0  0
  180.6260  180.7410  137.4380 C   0  0  0  0  0  0  0  0  0  0  0  0
  182.4810  181.5770  138.6830 F   0  0  0  0  0  0  0  0  0  0  0  0
  180.0890  182.1360  137.2980 C   0  0  2  0  0  3  0  0  0  0  0  0
  180.8670  184.2130  137.3230 C   0  0  0  0  0  1  0  0  0  0  0  0
  181.0450  182.9710  136.7090 O   0  0  0  0  0  0  0  0  0  0  0  0
  179.6820  182.6710  138.6360 C   0  0  0  0  0  3  0  0  0  0  0  0
  178.9420  181.9380  139.4630 C   0  0  0  0  0  2  0  0  0  0  0  0
  187.0990  178.4130  138.9150 N   0  0  0  0  0  2  0  0  0  0  0  0
  187.5770  177.3780  138.0510 C   0  0  0  0  0  0  0  0  0  0  0  0
  189.0370  177.2550  137.7970 C   0  0  0  0  0  1  0  0  0  0  0  0
  186.7810  176.5710  137.5030 O   0  0  0  0  0  0  0  0  0  0  0  0
  183.8100  179.2650  144.9520 C   0  0  0  0  0  2  0  0  0  0  0  0
  184.4800  178.3190  145.9390 C   0  0  0  0  0  2  0  0  0  0  0  0
  185.9410  178.6040  146.0480 C   0  0  0  0  0  3  0  0  0  0  0  0
  186.8330  177.6580  145.7910 C   0  0  0  0  0  3  0  0  0  0  0  0
  188.1960  177.9380  145.8840 O   0  0  0  0  0  0  0  0  0  0  0  0
  189.1730  177.1890  145.1610 C   0  0  1  0  0  3  0  0  0  0  0  0
  189.9780  177.4680  141.7270 C   0  0  0  0  0  2  0  0  0  0  0  0
  189.4630  178.2220  142.9110 C   0  0  0  0  0  2  0  0  0  0  0  0
  188.8120  177.1170  143.6780 C   0  0  1  0  0  3  0  0  0  0  0  0
  189.3090  175.9340  143.1170 O   0  0  0  0  0  0  0  0  0  0  0  0
  189.4280  176.1830  141.8180 O   0  0  0  0  0  0  0  0  0  0  0  0
  190.5680  177.7780  145.3610 C   0  0  0  0  0  2  0  0  0  0  0  0
  191.9390  175.8320  145.2380 O   0  0  0  0  0  0  0  0  0  0  0  0
  191.8750  176.8710  147.2800 O   0  0  0  0  0  1  0  0  0  0  0  0
  191.4900  176.7670  145.9500 C   0  0  0  0  0  0  0  0  0  0  0  0
  1  7  1  0  0  0  0
  1 11  1  0  0  0  0
  2  3  1  0  0  0  0
  3 29  1  1  0  0  0
  5  2  1  0  0  0  0
  6  8  1  0  0  0  0
  6 12  1  0  0  0  0
  7  6  2  0  0  0  0
  8 10  1  0  0  0  0
  9  4  1  0  0  0  0
  9  3  1  0  0  0  0
 10  5  1  0  0  0  0
 11  8  2  0  0  0  0
 12  9  2  0  0  0  0
 13 14  1  0  0  0  0
 14  7  1  0  0  0  0
 15 13  2  0  0  0  0
 16 15  1  0  0  0  0
 16 18  2  0  0  0  0
 17 14  2  0  0  0  0
 17 19  1  0  0  0  0
 18 17  1  0  0  0  0
 20 18  1  0  0  0  0
 20 23  1  1  0  0  0
 22 20  1  0  0  0  0
 22 21  1  0  0  0  0
 23 24  2  0  0  0  0
 25 11  1  0  0  0  0
 26 25  1  0  0  0  0
 27 26  1  0  0  0  0
 28 26  2  0  0  0  0
 29 30  1  0  0  0  0
 30 31  1  0  0  0  0
 32 33  1  0  0  0  0
 32 31  2  0  0  0  0
 34 40  1  6  0  0  0
 34 33  1  0  0  0  0
 35 39  1  0  0  0  0
 35 36  1  0  0  0  0
 36 37  1  0  0  0  0
 37 34  1  1  0  0  0
 38 37  1  0  0  0  0
 39 38  1  0  0  0  0
 40 43  1  0  0  0  0
 41 43  2  0  0  0  0
 43 42  1  0  0  0  0
M  END
>  <MODEL>
1

>  <REMARK>
 VINA RESULT:      -7.9      0.000      0.000
  Name = 
  13 active torsions:
  status: ('A' for Active; 'I' for Inactive)
    1  A    between atoms: O_1  and  C_5
    2  A    between atoms: O_1  and  C_42
    3  A    between atoms: N_2  and  C_40
    4  A    between atoms: C_5  and  C_22
    5  A    between atoms: C_5  and  C_24
    6  A    between atoms: C_10  and  C_27
    7  A    between atoms: C_11  and  C_41
    8  A    between atoms: C_12  and  O_30
    9  A    between atoms: C_12  and  C_32
   10  A    between atoms: C_12  and  C_33
   11  A    between atoms: C_20  and  C_21
   12  A    between atoms: C_21  and  C_41
   13  A    between atoms: C_22  and  C_38
                            x       y       z     vdW  Elec       q    Type
                         _______ _______ _______ _____ _____    ______ ____

>  <TORSDO>
F 13

$$$$
=
 OpenBabel10222415203D

 43 46  0  0  1  0  0  0  0  0999 V2000
  189.6810  177.5860  141.6170 O   0  0  0  0  0  0  0  0  0  0  0  0
  186.3570  177.4720  138.3670 O   0  0  0  0  0  0  0  0  0  0  0  0
  185.6160  178.6500  138.5320 C   0  0  2  0  0  3  0  0  0  0  0  0
  184.1180  179.3890  140.3820 O   0  0  0  0  0  1  0  0  0  0  0  0
  187.4450  177.7840  137.6720 O   0  0  0  0  0  0  0  0  0  0  0  0
  187.6600  178.1910  140.9150 C   0  0  0  0  0  0  0  0  0  0  0  0
  188.4490  177.8320  142.0160 C   0  0  0  0  0  0  0  0  0  0  0  0
  188.5240  178.1260  139.8330 C   0  0  0  0  0  0  0  0  0  0  0  0
  185.3540  178.8830  139.9990 C   0  0  0  0  0  0  0  0  0  0  0  0
  188.2430  178.5240  138.4940 N   0  0  0  0  0  2  0  0  0  0  0  0
  189.7530  177.7700  140.3220 C   0  0  0  0  0  0  0  0  0  0  0  0
  186.2500  178.6600  140.9760 C   0  0  0  0  0  3  0  0  0  0  0  0
  186.6730  177.6660  143.7790 C   0  0  0  0  0  3  0  0  0  0  0  0
  188.0320  177.7410  143.4390 C   0  0  0  0  0  0  0  0  0  0  0  0
  186.2710  177.5980  145.1140 C   0  0  0  0  0  3  0  0  0  0  0  0
  187.2250  177.6050  146.1290 C   0  0  0  0  0  3  0  0  0  0  0  0
  188.9940  177.7460  144.4730 C   0  0  0  0  0  0  0  0  0  0  0  0
  188.5890  177.6770  145.8170 C   0  0  0  0  0  0  0  0  0  0  0  0
  190.3220  177.8020  144.1820 F   0  0  0  0  0  0  0  0  0  0  0  0
  189.6180  177.6890  146.9100 C   0  0  2  0  0  3  0  0  0  0  0  0
  191.3800  176.4040  147.3110 C   0  0  0  0  0  1  0  0  0  0  0  0
  189.9850  176.3830  147.2520 O   0  0  0  0  0  0  0  0  0  0  0  0
  189.0880  178.4130  148.1110 C   0  0  0  0  0  3  0  0  0  0  0  0
  188.1630  177.8550  148.8850 C   0  0  0  0  0  2  0  0  0  0  0  0
  190.9420  177.6290  139.5410 N   0  0  0  0  0  2  0  0  0  0  0  0
  191.2240  176.5020  138.7060 C   0  0  0  0  0  0  0  0  0  0  0  0
  192.4950  176.4630  137.9360 C   0  0  0  0  0  1  0  0  0  0  0  0
  190.4120  175.5440  138.6140 O   0  0  0  0  0  0  0  0  0  0  0  0
  184.3170  178.5480  137.7390 C   0  0  0  0  0  2  0  0  0  0  0  0
  183.8740  177.0980  137.5950 C   0  0  0  0  0  2  0  0  0  0  0  0
  182.3990  176.9660  137.7830 C   0  0  0  0  0  3  0  0  0  0  0  0
  181.7450  177.7950  138.5830 C   0  0  0  0  0  3  0  0  0  0  0  0
  180.3650  177.6710  138.7420 O   0  0  0  0  0  0  0  0  0  0  0  0
  179.7210  177.9420  139.9870 C   0  0  1  0  0  3  0  0  0  0  0  0
  179.3270  174.4590  140.4670 C   0  0  0  0  0  2  0  0  0  0  0  0
  179.0750  175.5810  139.5130 C   0  0  0  0  0  2  0  0  0  0  0  0
  178.9310  176.7240  140.4650 C   0  0  1  0  0  3  0  0  0  0  0  0
  179.4470  176.2610  141.6800 O   0  0  0  0  0  0  0  0  0  0  0  0
  179.0970  174.9810  141.7480 O   0  0  0  0  0  0  0  0  0  0  0  0
  180.7340  178.3890  141.0380 C   0  0  0  0  0  2  0  0  0  0  0  0
  180.1340  180.6660  141.4130 O   0  0  0  0  0  0  0  0  0  0  0  0
  179.6890  179.2280  143.1410 O   0  0  0  0  0  1  0  0  0  0  0  0
  180.1800  179.4950  141.8700 C   0  0  0  0  0  0  0  0  0  0  0  0
  1  7  1  0  0  0  0
  2  3  1  0  0  0  0
  3 29  1  6  0  0  0
  3  9  1  0  0  0  0
  5  2  1  0  0  0  0
  5 10  1  0  0  0  0
  6 12  1  0  0  0  0
  6  7  2  0  0  0  0
  7 14  1  0  0  0  0
  8 11  2  0  0  0  0
  8  6  1  0  0  0  0
  9  4  1  0  0  0  0
  9 12  2  0  0  0  0
 10  8  1  0  0  0  0
 11  1  1  0  0  0  0
 13 15  1  0  0  0  0
 14 13  2  0  0  0  0
 14 17  1  0  0  0  0
 15 16  2  0  0  0  0
 17 18  2  0  0  0  0
 18 16  1  0  0  0  0
 18 20  1  0  0  0  0
 19 17  1  0  0  0  0
 20 22  1  0  0  0  0
 20 23  1  1  0  0  0
 22 21  1  0  0  0  0
 23 24  2  0  0  0  0
 25 11  1  0  0  0  0
 26 25  1  0  0  0  0
 27 26  1  0  0  0  0
 28 26  2  0  0  0  0
 30 29  1  0  0  0  0
 30 31  1  0  0  0  0
 31 32  2  0  0  0  0
 32 33  1  0  0  0  0
 33 34  1  0  0  0  0
 34 40  1  1  0  0  0
 35 39  1  0  0  0  0
 36 37  1  0  0  0  0
 36 35  1  0  0  0  0
 37 34  1  6  0  0  0
 37 38  1  0  0  0  0
 38 39  1  0  0  0  0
 40 43  1  0  0  0  0
 41 43  2  0  0  0  0
 43 42  1  0  0  0  0
M  END
>  <MODEL>
2

>  <REMARK>
 VINA RESULT:      -7.6      3.065      9.431
  Name = 
  13 active torsions:
  status: ('A' for Active; 'I' for Inactive)
    1  A    between atoms: O_1  and  C_5
    2  A    between atoms: O_1  and  C_42
    3  A    between atoms: N_2  and  C_40
    4  A    between atoms: C_5  and  C_22
    5  A    between atoms: C_5  and  C_24
    6  A    between atoms: C_10  and  C_27
    7  A    between atoms: C_11  and  C_41
    8  A    between atoms: C_12  and  O_30
    9  A    between atoms: C_12  and  C_32
   10  A    between atoms: C_12  and  C_33
   11  A    between atoms: C_20  and  C_21
   12  A    between atoms: C_21  and  C_41
   13  A    between atoms: C_22  and  C_38
                            x       y       z     vdW  Elec       q    Type
                         _______ _______ _______ _____ _____    ______ ____

>  <TORSDO>
F 13

$$$$
=
 OpenBabel10222415203D

 43 46  0  0  1  0  0  0  0  0999 V2000
  189.6830  177.4900  141.7680 O   0  0  0  0  0  0  0  0  0  0  0  0
  186.3380  177.5310  138.5390 O   0  0  0  0  0  0  0  0  0  0  0  0
  185.6300  178.7260  138.7310 C   0  0  2  0  0  3  0  0  0  0  0  0
  184.1650  179.4700  140.6050 O   0  0  0  0  0  1  0  0  0  0  0  0
  187.4300  177.8260  137.8430 O   0  0  0  0  0  0  0  0  0  0  0  0
  187.6750  178.1640  141.0910 C   0  0  0  0  0  0  0  0  0  0  0  0
  188.4610  177.7630  142.1800 C   0  0  0  0  0  0  0  0  0  0  0  0
  188.5310  178.0960  140.0020 C   0  0  0  0  0  0  0  0  0  0  0  0
  185.3850  178.9370  140.2040 C   0  0  0  0  0  0  0  0  0  0  0  0
  188.2530  178.5280  138.6740 N   0  0  0  0  0  2  0  0  0  0  0  0
  189.7520  177.6970  140.4770 C   0  0  0  0  0  0  0  0  0  0  0  0
  186.2800  178.6710  141.1700 C   0  0  0  0  0  3  0  0  0  0  0  0
  186.6960  177.5220  143.9460 C   0  0  0  0  0  3  0  0  0  0  0  0
  188.0510  177.6560  143.6030 C   0  0  0  0  0  0  0  0  0  0  0  0
  186.3000  177.4390  145.2810 C   0  0  0  0  0  3  0  0  0  0  0  0
  187.2540  177.4880  146.2950 C   0  0  0  0  0  3  0  0  0  0  0  0
  189.0130  177.7040  144.6370 C   0  0  0  0  0  0  0  0  0  0  0  0
  188.6130  177.6190  145.9800 C   0  0  0  0  0  0  0  0  0  0  0  0
  190.3370  177.8170  144.3430 F   0  0  0  0  0  0  0  0  0  0  0  0
  189.6420  177.6780  147.0730 C   0  0  2  0  0  3  0  0  0  0  0  0
  191.4300  176.4200  147.4430 C   0  0  0  0  0  1  0  0  0  0  0  0
  190.0340  176.3880  147.4450 O   0  0  0  0  0  0  0  0  0  0  0  0
  189.0990  178.4200  148.2560 C   0  0  0  0  0  3  0  0  0  0  0  0
  188.1720  177.8690  149.0340 C   0  0  0  0  0  2  0  0  0  0  0  0
  190.9330  177.5380  139.6840 N   0  0  0  0  0  2  0  0  0  0  0  0
  191.1710  176.4280  138.8150 C   0  0  0  0  0  0  0  0  0  0  0  0
  192.4360  176.3670  138.0370 C   0  0  0  0  0  1  0  0  0  0  0  0
  190.3250  175.5020  138.6980 O   0  0  0  0  0  0  0  0  0  0  0  0
  184.3240  178.6750  137.9450 C   0  0  0  0  0  2  0  0  0  0  0  0
  183.6890  177.2930  138.0250 C   0  0  0  0  0  2  0  0  0  0  0  0
  182.2410  177.3880  138.3750 C   0  0  0  0  0  3  0  0  0  0  0  0
  181.7150  178.5420  138.7610 C   0  0  0  0  0  3  0  0  0  0  0  0
  180.3590  178.6220  139.0750 O   0  0  0  0  0  0  0  0  0  0  0  0
  179.7540  179.8410  139.5070 C   0  0  1  0  0  3  0  0  0  0  0  0
  180.7280  179.5080  142.8920 C   0  0  0  0  0  2  0  0  0  0  0  0
  180.2700  178.7500  141.6880 C   0  0  0  0  0  2  0  0  0  0  0  0
  179.4470  179.7930  141.0030 C   0  0  1  0  0  3  0  0  0  0  0  0
  179.8060  181.0030  141.6080 O   0  0  0  0  0  0  0  0  0  0  0  0
  180.0090  180.7110  142.8890 O   0  0  0  0  0  0  0  0  0  0  0  0
  180.6380  181.0380  139.1640 C   0  0  0  0  0  2  0  0  0  0  0  0
  179.9330  183.0570  138.1100 O   0  0  0  0  0  1  0  0  0  0  0  0
  179.7020  181.1530  136.8560 O   0  0  0  0  0  0  0  0  0  0  0  0
  180.0650  181.8090  138.0240 C   0  0  0  0  0  0  0  0  0  0  0  0
  1  7  1  0  0  0  0
  2  3  1  0  0  0  0
  3 29  1  6  0  0  0
  3  9  1  0  0  0  0
  5  2  1  0  0  0  0
  5 10  1  0  0  0  0
  6 12  1  0  0  0  0
  6  7  2  0  0  0  0
  7 14  1  0  0  0  0
  8 11  2  0  0  0  0
  8  6  1  0  0  0  0
  9  4  1  0  0  0  0
  9 12  2  0  0  0  0
 10  8  1  0  0  0  0
 11  1  1  0  0  0  0
 13 15  1  0  0  0  0
 14 13  2  0  0  0  0
 14 17  1  0  0  0  0
 15 16  2  0  0  0  0
 17 18  2  0  0  0  0
 18 16  1  0  0  0  0
 18 20  1  0  0  0  0
 19 17  1  0  0  0  0
 20 22  1  0  0  0  0
 20 23  1  1  0  0  0
 21 22  1  0  0  0  0
 23 24  2  0  0  0  0
 25 11  1  0  0  0  0
 26 25  1  0  0  0  0
 27 26  1  0  0  0  0
 28 26  2  0  0  0  0
 29 30  1  0  0  0  0
 30 31  1  0  0  0  0
 31 32  2  0  0  0  0
 32 33  1  0  0  0  0
 33 34  1  0  0  0  0
 34 40  1  1  0  0  0
 36 35  1  0  0  0  0
 37 34  1  6  0  0  0
 37 38  1  0  0  0  0
 37 36  1  0  0  0  0
 38 39  1  0  0  0  0
 39 35  1  0  0  0  0
 42 43  2  0  0  0  0
 43 41  1  0  0  0  0
 43 40  1  0  0  0  0
M  END
>  <MODEL>
3

>  <REMARK>
 VINA RESULT:      -7.5      2.671      9.714
  Name = 
  13 active torsions:
  status: ('A' for Active; 'I' for Inactive)
    1  A    between atoms: O_1  and  C_5
    2  A    between atoms: O_1  and  C_42
    3  A    between atoms: N_2  and  C_40
    4  A    between atoms: C_5  and  C_22
    5  A    between atoms: C_5  and  C_24
    6  A    between atoms: C_10  and  C_27
    7  A    between atoms: C_11  and  C_41
    8  A    between atoms: C_12  and  O_30
    9  A    between atoms: C_12  and  C_32
   10  A    between atoms: C_12  and  C_33
   11  A    between atoms: C_20  and  C_21
   12  A    between atoms: C_21  and  C_41
   13  A    between atoms: C_22  and  C_38
                            x       y       z     vdW  Elec       q    Type
                         _______ _______ _______ _____ _____    ______ ____

>  <TORSDO>
F 13

$$$$
=
 OpenBabel10222415203D

 43 46  0  0  1  0  0  0  0  0999 V2000
  191.0080  176.6140  140.2380 O   0  0  0  0  0  0  0  0  0  0  0  0
  186.9820  176.3820  137.9230 O   0  0  0  0  0  0  0  0  0  0  0  0
  186.5060  177.6980  137.8440 C   0  0  2  0  0  3  0  0  0  0  0  0
  185.6760  179.2410  139.6170 O   0  0  0  0  0  1  0  0  0  0  0  0
  187.8880  176.2320  136.9640 O   0  0  0  0  0  0  0  0  0  0  0  0
  188.9970  177.4520  139.7940 C   0  0  0  0  0  0  0  0  0  0  0  0
  189.9770  177.2370  140.7720 C   0  0  0  0  0  0  0  0  0  0  0  0
  189.5300  176.8950  138.6410 C   0  0  0  0  0  0  0  0  0  0  0  0
  186.6740  178.3790  139.1800 C   0  0  0  0  0  0  0  0  0  0  0  0
  188.9790  176.9640  137.3290 N   0  0  0  0  0  2  0  0  0  0  0  0
  190.7710  176.4140  138.9650 C   0  0  0  0  0  0  0  0  0  0  0  0
  187.7450  178.2320  139.9780 C   0  0  0  0  0  3  0  0  0  0  0  0
  190.9250  178.4770  142.7350 C   0  0  0  0  0  3  0  0  0  0  0  0
  189.9340  177.6390  142.2010 C   0  0  0  0  0  0  0  0  0  0  0  0
  190.9030  178.8460  144.0800 C   0  0  0  0  0  3  0  0  0  0  0  0
  189.8890  178.3810  144.9140 C   0  0  0  0  0  3  0  0  0  0  0  0
  188.9070  177.1720  143.0520 C   0  0  0  0  0  0  0  0  0  0  0  0
  188.8860  177.5440  144.4060 C   0  0  0  0  0  0  0  0  0  0  0  0
  187.9200  176.3700  142.5670 F   0  0  0  0  0  0  0  0  0  0  0  0
  187.7950  177.0370  145.3050 C   0  0  2  0  0  3  0  0  0  0  0  0
  186.1080  178.4310  145.6650 C   0  0  0  0  0  1  0  0  0  0  0  0
  186.5410  177.4140  144.8120 O   0  0  0  0  0  0  0  0  0  0  0  0
  187.9870  177.5580  146.6960 C   0  0  0  0  0  3  0  0  0  0  0  0
  188.6950  176.8690  147.5860 C   0  0  0  0  0  2  0  0  0  0  0  0
  191.6790  175.7930  138.0510 N   0  0  0  0  0  2  0  0  0  0  0  0
  191.4520  174.5230  137.4340 C   0  0  0  0  0  0  0  0  0  0  0  0
  192.4680  173.9740  136.4980 C   0  0  0  0  0  1  0  0  0  0  0  0
  190.4060  173.8630  137.6730 O   0  0  0  0  0  0  0  0  0  0  0  0
  185.0470  177.6840  137.4000 C   0  0  0  0  0  2  0  0  0  0  0  0
  184.3940  176.3420  137.7000 C   0  0  0  0  0  2  0  0  0  0  0  0
  183.1690  176.5160  138.5350 C   0  0  0  0  0  3  0  0  0  0  0  0
  182.7630  177.7260  138.8920 C   0  0  0  0  0  3  0  0  0  0  0  0
  181.6100  177.8780  139.6620 O   0  0  0  0  0  0  0  0  0  0  0  0
  180.7530  179.0100  139.5230 C   0  0  1  0  0  3  0  0  0  0  0  0
  180.6950  179.5400  143.0210 C   0  0  0  0  0  2  0  0  0  0  0  0
  180.5920  178.4960  141.9570 C   0  0  0  0  0  2  0  0  0  0  0  0
  180.0240  179.3020  140.8340 C   0  0  1  0  0  3  0  0  0  0  0  0
  180.2150  180.6380  141.2050 O   0  0  0  0  0  0  0  0  0  0  0  0
  180.0310  180.6680  142.5210 O   0  0  0  0  0  0  0  0  0  0  0  0
  181.5370  180.2310  139.0450 C   0  0  0  0  0  2  0  0  0  0  0  0
  181.1180  182.0060  137.5090 O   0  0  0  0  0  1  0  0  0  0  0  0
  180.1790  179.9860  136.9680 O   0  0  0  0  0  0  0  0  0  0  0  0
  180.9300  180.7980  137.8070 C   0  0  0  0  0  0  0  0  0  0  0  0
  1  7  1  0  0  0  0
  3 29  1  1  0  0  0
  3  2  1  0  0  0  0
  3  9  1  0  0  0  0
  5 10  1  0  0  0  0
  5  2  1  0  0  0  0
  6 12  1  0  0  0  0
  6  7  2  0  0  0  0
  7 14  1  0  0  0  0
  8 11  2  0  0  0  0
  8  6  1  0  0  0  0
  9  4  1  0  0  0  0
  9 12  2  0  0  0  0
 10  8  1  0  0  0  0
 11  1  1  0  0  0  0
 13 15  1  0  0  0  0
 14 13  2  0  0  0  0
 14 17  1  0  0  0  0
 15 16  2  0  0  0  0
 17 18  2  0  0  0  0
 18 16  1  0  0  0  0
 18 20  1  0  0  0  0
 19 17  1  0  0  0  0
 20 23  1  1  0  0  0
 22 20  1  0  0  0  0
 22 21  1  0  0  0  0
 23 24  2  0  0  0  0
 25 11  1  0  0  0  0
 26 28  2  0  0  0  0
 26 25  1  0  0  0  0
 27 26  1  0  0  0  0
 29 30  1  0  0  0  0
 30 31  1  0  0  0  0
 31 32  2  0  0  0  0
 32 33  1  0  0  0  0
 34 40  1  1  0  0  0
 34 33  1  0  0  0  0
 36 35  1  0  0  0  0
 37 34  1  6  0  0  0
 37 38  1  0  0  0  0
 37 36  1  0  0  0  0
 38 39  1  0  0  0  0
 39 35  1  0  0  0  0
 41 43  1  0  0  0  0
 42 43  2  0  0  0  0
 43 40  1  0  0  0  0
M  END
>  <MODEL>
4

>  <REMARK>
 VINA RESULT:      -7.3      2.737      9.387
  Name = 
  13 active torsions:
  status: ('A' for Active; 'I' for Inactive)
    1  A    between atoms: O_1  and  C_5
    2  A    between atoms: O_1  and  C_42
    3  A    between atoms: N_2  and  C_40
    4  A    between atoms: C_5  and  C_22
    5  A    between atoms: C_5  and  C_24
    6  A    between atoms: C_10  and  C_27
    7  A    between atoms: C_11  and  C_41
    8  A    between atoms: C_12  and  O_30
    9  A    between atoms: C_12  and  C_32
   10  A    between atoms: C_12  and  C_33
   11  A    between atoms: C_20  and  C_21
   12  A    between atoms: C_21  and  C_41
   13  A    between atoms: C_22  and  C_38
                            x       y       z     vdW  Elec       q    Type
                         _______ _______ _______ _____ _____    ______ ____

>  <TORSDO>
F 13

$$$$
=
 OpenBabel10222415203D

 43 46  0  0  1  0  0  0  0  0999 V2000
  187.4730  178.1750  141.0520 O   0  0  0  0  0  0  0  0  0  0  0  0
  182.8600  177.8430  140.5690 O   0  0  0  0  0  0  0  0  0  0  0  0
  182.3150  178.8550  141.3710 C   0  0  2  0  0  3  0  0  0  0  0  0
  182.2780  179.1320  143.8470 O   0  0  0  0  0  1  0  0  0  0  0  0
  183.2410  178.4050  139.4270 O   0  0  0  0  0  0  0  0  0  0  0  0
  185.4290  178.5000  141.8630 C   0  0  0  0  0  0  0  0  0  0  0  0
  186.7570  178.1670  142.1590 C   0  0  0  0  0  0  0  0  0  0  0  0
  185.4170  178.6960  140.4910 C   0  0  0  0  0  0  0  0  0  0  0  0
  183.0240  178.8850  142.7010 C   0  0  0  0  0  0  0  0  0  0  0  0
  184.3280  179.1790  139.7090 N   0  0  0  0  0  2  0  0  0  0  0  0
  186.6990  178.5040  140.0470 C   0  0  0  0  0  0  0  0  0  0  0  0
  184.3470  178.7160  142.8610 C   0  0  0  0  0  3  0  0  0  0  0  0
  186.5470  177.9170  144.6450 C   0  0  0  0  0  3  0  0  0  0  0  0
  187.3410  177.8590  143.4890 C   0  0  0  0  0  0  0  0  0  0  0  0
  187.0900  177.6460  145.9010 C   0  0  0  0  0  3  0  0  0  0  0  0
  188.4370  177.3120  146.0210 C   0  0  0  0  0  3  0  0  0  0  0  0
  188.7050  177.5170  143.6170 C   0  0  0  0  0  0  0  0  0  0  0  0
  189.2510  177.2440  144.8820 C   0  0  0  0  0  0  0  0  0  0  0  0
  189.5030  177.4350  142.5170 F   0  0  0  0  0  0  0  0  0  0  0  0
  190.7050  176.8900  145.0100 C   0  0  2  0  0  3  0  0  0  0  0  0
  192.0440  175.9820  146.5270 C   0  0  0  0  0  1  0  0  0  0  0  0
  191.1230  177.0150  146.3390 O   0  0  0  0  0  0  0  0  0  0  0  0
  191.5310  177.7640  144.1170 C   0  0  0  0  0  3  0  0  0  0  0  0
  191.6530  179.0650  144.3660 C   0  0  0  0  0  2  0  0  0  0  0  0
  187.1330  178.6480  138.6920 N   0  0  0  0  0  2  0  0  0  0  0  0
  186.7040  177.8060  137.6190 C   0  0  0  0  0  0  0  0  0  0  0  0
  187.2220  178.0500  136.2470 C   0  0  0  0  0  1  0  0  0  0  0  0
  185.8960  176.8610  137.8190 O   0  0  0  0  0  0  0  0  0  0  0  0
  180.8170  178.6180  141.5370 C   0  0  0  0  0  2  0  0  0  0  0  0
  180.0430  179.9270  141.4690 C   0  0  0  0  0  2  0  0  0  0  0  0
  179.7250  180.2900  140.0570 C   0  0  0  0  0  3  0  0  0  0  0  0
  180.0430  181.4860  139.5810 C   0  0  0  0  0  3  0  0  0  0  0  0
  179.7520  181.8120  138.2570 O   0  0  0  0  0  0  0  0  0  0  0  0
  180.7530  181.8000  137.2390 C   0  0  1  0  0  3  0  0  0  0  0  0
  180.3080  178.3360  136.6720 C   0  0  0  0  0  2  0  0  0  0  0  0
  181.3340  179.4100  136.8300 C   0  0  0  0  0  2  0  0  0  0  0  0
  180.5760  180.5920  136.3190 C   0  0  1  0  0  3  0  0  0  0  0  0
  179.2350  180.1920  136.3010 O   0  0  0  0  0  0  0  0  0  0  0  0
  179.2540  178.9110  135.9490 O   0  0  0  0  0  0  0  0  0  0  0  0
  180.7370  183.1050  136.4450 C   0  0  0  0  0  2  0  0  0  0  0  0
  182.4120  184.3570  137.5910 O   0  0  0  0  0  0  0  0  0  0  0  0
  180.2830  185.1950  137.7260 O   0  0  0  0  0  1  0  0  0  0  0  0
  181.1950  184.2430  137.2910 C   0  0  0  0  0  0  0  0  0  0  0  0
  1  7  1  0  0  0  0
  2  3  1  0  0  0  0
  3 29  1  1  0  0  0
  3  9  1  0  0  0  0
  5 10  1  0  0  0  0
  5  2  1  0  0  0  0
  6  7  2  0  0  0  0
  6 12  1  0  0  0  0
  7 14  1  0  0  0  0
  8  6  1  0  0  0  0
  9 12  2  0  0  0  0
  9  4  1  0  0  0  0
 10  8  1  0  0  0  0
 11  8  2  0  0  0  0
 11  1  1  0  0  0  0
 13 15  1  0  0  0  0
 14 17  1  0  0  0  0
 14 13  2  0  0  0  0
 15 16  2  0  0  0  0
 17 18  2  0  0  0  0
 18 20  1  0  0  0  0
 18 16  1  0  0  0  0
 19 17  1  0  0  0  0
 20 23  1  6  0  0  0
 20 22  1  0  0  0  0
 22 21  1  0  0  0  0
 23 24  2  0  0  0  0
 25 11  1  0  0  0  0
 26 28  2  0  0  0  0
 26 25  1  0  0  0  0
 27 26  1  0  0  0  0
 30 29  1  0  0  0  0
 31 30  1  0  0  0  0
 32 31  2  0  0  0  0
 33 32  1  0  0  0  0
 34 40  1  6  0  0  0
 34 33  1  0  0  0  0
 35 36  1  0  0  0  0
 37 36  1  0  0  0  0
 37 34  1  1  0  0  0
 38 37  1  0  0  0  0
 39 38  1  0  0  0  0
 39 35  1  0  0  0  0
 40 43  1  0  0  0  0
 43 41  2  0  0  0  0
 43 42  1  0  0  0  0
M  END
>  <MODEL>
5

>  <REMARK>
 VINA RESULT:      -7.3      2.218      9.751
  Name = 
  13 active torsions:
  status: ('A' for Active; 'I' for Inactive)
    1  A    between atoms: O_1  and  C_5
    2  A    between atoms: O_1  and  C_42
    3  A    between atoms: N_2  and  C_40
    4  A    between atoms: C_5  and  C_22
    5  A    between atoms: C_5  and  C_24
    6  A    between atoms: C_10  and  C_27
    7  A    between atoms: C_11  and  C_41
    8  A    between atoms: C_12  and  O_30
    9  A    between atoms: C_12  and  C_32
   10  A    between atoms: C_12  and  C_33
   11  A    between atoms: C_20  and  C_21
   12  A    between atoms: C_21  and  C_41
   13  A    between atoms: C_22  and  C_38
                            x       y       z     vdW  Elec       q    Type
                         _______ _______ _______ _____ _____    ______ ____

>  <TORSDO>
F 13

$$$$
=
 OpenBabel10222415203D

 43 46  0  0  1  0  0  0  0  0999 V2000
  188.4330  178.1100  140.9100 O   0  0  0  0  0  0  0  0  0  0  0  0
  184.0420  177.7010  142.3830 O   0  0  0  0  0  0  0  0  0  0  0  0
  183.7900  178.8370  143.1660 C   0  0  2  0  0  3  0  0  0  0  0  0
  184.7190  179.5380  145.3690 O   0  0  0  0  0  1  0  0  0  0  0  0
  183.8990  178.0570  141.1120 O   0  0  0  0  0  0  0  0  0  0  0  0
  186.8610  178.5710  142.4130 C   0  0  0  0  0  0  0  0  0  0  0  0
  188.2170  178.2940  142.1980 C   0  0  0  0  0  0  0  0  0  0  0  0
  186.2920  178.5260  141.1490 C   0  0  0  0  0  0  0  0  0  0  0  0
  184.9650  179.0970  144.0750 C   0  0  0  0  0  0  0  0  0  0  0  0
  184.9530  178.8670  140.8060 N   0  0  0  0  0  2  0  0  0  0  0  0
  187.3030  178.2600  140.2640 C   0  0  0  0  0  0  0  0  0  0  0  0
  186.2510  178.9570  143.7130 C   0  0  0  0  0  3  0  0  0  0  0  0
  190.4940  178.9360  143.0310 C   0  0  0  0  0  3  0  0  0  0  0  0
  189.3000  178.2200  143.2110 C   0  0  0  0  0  0  0  0  0  0  0  0
  191.5230  178.8600  143.9690 C   0  0  0  0  0  3  0  0  0  0  0  0
  191.3750  178.0650  145.1030 C   0  0  0  0  0  3  0  0  0  0  0  0
  189.1550  177.4180  144.3650 C   0  0  0  0  0  0  0  0  0  0  0  0
  190.1920  177.3420  145.3090 C   0  0  0  0  0  0  0  0  0  0  0  0
  188.0060  176.7220  144.5820 F   0  0  0  0  0  0  0  0  0  0  0  0
  190.0330  176.4810  146.5290 C   0  0  2  0  0  3  0  0  0  0  0  0
  189.3320  177.8910  148.0910 C   0  0  0  0  0  1  0  0  0  0  0  0
  188.8980  176.8630  147.2520 O   0  0  0  0  0  0  0  0  0  0  0  0
  191.2550  176.5710  147.3900 C   0  0  0  0  0  3  0  0  0  0  0  0
  192.1760  175.6120  147.3630 C   0  0  0  0  0  2  0  0  0  0  0  0
  187.1540  178.1670  138.8450 N   0  0  0  0  0  2  0  0  0  0  0  0
  188.0580  178.7510  137.9040 C   0  0  0  0  0  0  0  0  0  0  0  0
  187.8030  178.5900  136.4480 C   0  0  0  0  0  1  0  0  0  0  0  0
  189.0670  179.4000  138.2890 O   0  0  0  0  0  0  0  0  0  0  0  0
  182.5020  178.6330  143.9560 C   0  0  0  0  0  2  0  0  0  0  0  0
  181.3440  179.3940  143.3260 C   0  0  0  0  0  2  0  0  0  0  0  0
  181.2300  179.0890  141.8690 C   0  0  0  0  0  3  0  0  0  0  0  0
  180.3450  178.2040  141.4330 C   0  0  0  0  0  3  0  0  0  0  0  0
  180.2390  177.9350  140.0690 O   0  0  0  0  0  0  0  0  0  0  0  0
  181.0890  178.5580  139.1070 C   0  0  1  0  0  3  0  0  0  0  0  0
  183.7860  176.6090  137.9060 C   0  0  0  0  0  2  0  0  0  0  0  0
  183.0700  177.9100  137.7400 C   0  0  0  0  0  2  0  0  0  0  0  0
  181.6900  177.5200  138.1600 C   0  0  1  0  0  3  0  0  0  0  0  0
  181.8370  176.2940  138.8200 O   0  0  0  0  0  0  0  0  0  0  0  0
  182.7950  175.6510  138.1610 O   0  0  0  0  0  0  0  0  0  0  0  0
  180.3340  179.6380  138.3330 C   0  0  0  0  0  2  0  0  0  0  0  0
  180.0010  181.6060  139.6370 O   0  0  0  0  0  1  0  0  0  0  0  0
  181.8970  181.5800  138.3490 O   0  0  0  0  0  0  0  0  0  0  0  0
  180.7230  180.9960  138.8050 C   0  0  0  0  0  0  0  0  0  0  0  0
  1  7  1  0  0  0  0
  2  3  1  0  0  0  0
  3 29  1  1  0  0  0
  3  9  1  0  0  0  0
  5  2  1  0  0  0  0
  6 12  1  0  0  0  0
  7  6  2  0  0  0  0
  7 14  1  0  0  0  0
  8  6  1  0  0  0  0
  9  4  1  0  0  0  0
 10  5  1  0  0  0  0
 10  8  1  0  0  0  0
 11  1  1  0  0  0  0
 11  8  2  0  0  0  0
 12  9  2  0  0  0  0
 13 14  2  0  0  0  0
 13 15  1  0  0  0  0
 14 17  1  0  0  0  0
 15 16  2  0  0  0  0
 16 18  1  0  0  0  0
 17 19  1  0  0  0  0
 17 18  2  0  0  0  0
 18 20  1  0  0  0  0
 20 22  1  0  0  0  0
 20 23  1  1  0  0  0
 22 21  1  0  0  0  0
 24 23  2  0  0  0  0
 25 11  1  0  0  0  0
 26 28  2  0  0  0  0
 26 25  1  0  0  0  0
 27 26  1  0  0  0  0
 30 29  1  0  0  0  0
 31 30  1  0  0  0  0
 32 31  2  0  0  0  0
 33 32  1  0  0  0  0
 34 40  1  6  0  0  0
 34 33  1  0  0  0  0
 35 39  1  0  0  0  0
 36 35  1  0  0  0  0
 36 37  1  0  0  0  0
 37 38  1  0  0  0  0
 37 34  1  1  0  0  0
 39 38  1  0  0  0  0
 40 43  1  0  0  0  0
 42 43  2  0  0  0  0
 43 41  1  0  0  0  0
M  END
>  <MODEL>
6

>  <REMARK>
 VINA RESULT:      -7.3      2.520      9.208
  Name = 
  13 active torsions:
  status: ('A' for Active; 'I' for Inactive)
    1  A    between atoms: O_1  and  C_5
    2  A    between atoms: O_1  and  C_42
    3  A    between atoms: N_2  and  C_40
    4  A    between atoms: C_5  and  C_22
    5  A    between atoms: C_5  and  C_24
    6  A    between atoms: C_10  and  C_27
    7  A    between atoms: C_11  and  C_41
    8  A    between atoms: C_12  and  O_30
    9  A    between atoms: C_12  and  C_32
   10  A    between atoms: C_12  and  C_33
   11  A    between atoms: C_20  and  C_21
   12  A    between atoms: C_21  and  C_41
   13  A    between atoms: C_22  and  C_38
                            x       y       z     vdW  Elec       q    Type
                         _______ _______ _______ _____ _____    ______ ____

>  <TORSDO>
F 13

$$$$
=
 OpenBabel10222415203D

 43 46  0  0  1  0  0  0  0  0999 V2000
  186.8620  178.6180  142.3990 O   0  0  0  0  0  0  0  0  0  0  0  0
  187.8960  179.0110  137.8820 O   0  0  0  0  0  0  0  0  0  0  0  0
  188.4480  177.7790  137.5040 C   0  0  2  0  0  3  0  0  0  0  0  0
  190.5940  176.6870  138.1490 O   0  0  0  0  0  1  0  0  0  0  0  0
  186.5760  178.8700  137.8760 O   0  0  0  0  0  0  0  0  0  0  0  0
  188.0880  178.0030  140.6490 C   0  0  0  0  0  0  0  0  0  0  0  0
  188.0700  178.2420  142.0290 C   0  0  0  0  0  0  0  0  0  0  0  0
  186.7950  178.2790  140.2320 C   0  0  0  0  0  0  0  0  0  0  0  0
  189.4250  177.3170  138.5570 C   0  0  0  0  0  0  0  0  0  0  0  0
  186.2560  178.0660  138.9300 N   0  0  0  0  0  2  0  0  0  0  0  0
  186.0810  178.6320  141.3470 C   0  0  0  0  0  0  0  0  0  0  0  0
  189.2330  177.4460  139.8800 C   0  0  0  0  0  3  0  0  0  0  0  0
  190.5130  178.3550  142.5850 C   0  0  0  0  0  3  0  0  0  0  0  0
  189.1940  178.0970  142.9890 C   0  0  0  0  0  0  0  0  0  0  0  0
  191.5770  178.2050  143.4750 C   0  0  0  0  0  3  0  0  0  0  0  0
  191.3380  177.7930  144.7840 C   0  0  0  0  0  3  0  0  0  0  0  0
  188.9590  177.6820  144.3180 C   0  0  0  0  0  0  0  0  0  0  0  0
  190.0300  177.5310  145.2140 C   0  0  0  0  0  0  0  0  0  0  0  0
  187.6920  177.4370  144.7510 F   0  0  0  0  0  0  0  0  0  0  0  0
  189.7710  177.0820  146.6230 C   0  0  2  0  0  3  0  0  0  0  0  0
  188.3640  177.3190  148.3200 C   0  0  0  0  0  1  0  0  0  0  0  0
  189.0060  178.0330  147.3060 O   0  0  0  0  0  0  0  0  0  0  0  0
  191.0670  176.8430  147.3360 C   0  0  0  0  0  3  0  0  0  0  0  0
  191.5790  175.6190  147.4210 C   0  0  0  0  0  2  0  0  0  0  0  0
  184.6890  178.9580  141.3650 N   0  0  0  0  0  2  0  0  0  0  0  0
  183.8330  178.7520  142.4920 C   0  0  0  0  0  0  0  0  0  0  0  0
  182.3980  179.1300  142.3980 C   0  0  0  0  0  1  0  0  0  0  0  0
  184.2750  178.2570  143.5620 O   0  0  0  0  0  0  0  0  0  0  0  0
  189.1170  177.9190  136.1400 C   0  0  0  0  0  2  0  0  0  0  0  0
  188.2510  177.3210  135.0400 C   0  0  0  0  0  2  0  0  0  0  0  0
  187.3910  176.2220  135.5710 C   0  0  0  0  0  3  0  0  0  0  0  0
  186.1110  176.1470  135.2370 C   0  0  0  0  0  3  0  0  0  0  0  0
  185.3190  175.1100  135.7290 O   0  0  0  0  0  0  0  0  0  0  0  0
  185.0020  174.9930  137.1150 C   0  0  1  0  0  3  0  0  0  0  0  0
  181.5060  175.4060  137.4700 C   0  0  0  0  0  2  0  0  0  0  0  0
  182.6460  175.5430  136.5140 C   0  0  0  0  0  2  0  0  0  0  0  0
  183.7680  175.8240  137.4620 C   0  0  1  0  0  3  0  0  0  0  0  0
  183.2830  175.4650  138.7250 O   0  0  0  0  0  0  0  0  0  0  0  0
  181.9980  175.8060  138.7190 O   0  0  0  0  0  0  0  0  0  0  0  0
  184.8090  173.5290  137.5070 C   0  0  0  0  0  2  0  0  0  0  0  0
  185.5360  171.8250  136.0080 O   0  0  0  0  0  0  0  0  0  0  0  0
  187.1860  172.8250  137.2450 O   0  0  0  0  0  1  0  0  0  0  0  0
  185.8550  172.6720  136.8820 C   0  0  0  0  0  0  0  0  0  0  0  0
  3 29  1  6  0  0  0
  3  2  1  0  0  0  0
  3  9  1  0  0  0  0
  4  9  1  0  0  0  0
  5  2  1  0  0  0  0
  5 10  1  0  0  0  0
  6  7  2  0  0  0  0
  7  1  1  0  0  0  0
  7 14  1  0  0  0  0
  8  6  1  0  0  0  0
  8 11  2  0  0  0  0
  9 12  2  0  0  0  0
 10  8  1  0  0  0  0
 11 25  1  0  0  0  0
 11  1  1  0  0  0  0
 12  6  1  0  0  0  0
 13 14  2  0  0  0  0
 13 15  1  0  0  0  0
 14 17  1  0  0  0  0
 15 16  2  0  0  0  0
 16 18  1  0  0  0  0
 17 19  1  0  0  0  0
 17 18  2  0  0  0  0
 18 20  1  0  0  0  0
 20 22  1  0  0  0  0
 20 23  1  1  0  0  0
 22 21  1  0  0  0  0
 23 24  2  0  0  0  0
 25 26  1  0  0  0  0
 26 28  2  0  0  0  0
 27 26  1  0  0  0  0
 30 31  1  0  0  0  0
 30 29  1  0  0  0  0
 32 31  2  0  0  0  0
 32 33  1  0  0  0  0
 33 34  1  0  0  0  0
 34 40  1  6  0  0  0
 35 39  1  0  0  0  0
 36 37  1  0  0  0  0
 36 35  1  0  0  0  0
 37 34  1  6  0  0  0
 37 38  1  0  0  0  0
 39 38  1  0  0  0  0
 41 43  2  0  0  0  0
 43 42  1  0  0  0  0
 43 40  1  0  0  0  0
M  END
>  <MODEL>
7

>  <REMARK>
 VINA RESULT:      -7.2      3.537      9.846
  Name = 
  13 active torsions:
  status: ('A' for Active; 'I' for Inactive)
    1  A    between atoms: O_1  and  C_5
    2  A    between atoms: O_1  and  C_42
    3  A    between atoms: N_2  and  C_40
    4  A    between atoms: C_5  and  C_22
    5  A    between atoms: C_5  and  C_24
    6  A    between atoms: C_10  and  C_27
    7  A    between atoms: C_11  and  C_41
    8  A    between atoms: C_12  and  O_30
    9  A    between atoms: C_12  and  C_32
   10  A    between atoms: C_12  and  C_33
   11  A    between atoms: C_20  and  C_21
   12  A    between atoms: C_21  and  C_41
   13  A    between atoms: C_22  and  C_38
                            x       y       z     vdW  Elec       q    Type
                         _______ _______ _______ _____ _____    ______ ____

>  <TORSDO>
F 13

$$$$
=
 OpenBabel10222415203D

 43 46  0  0  1  0  0  0  0  0999 V2000
  187.4340  178.2220  141.5250 O   0  0  0  0  0  0  0  0  0  0  0  0
  182.9220  177.6610  140.5520 O   0  0  0  0  0  0  0  0  0  0  0  0
  182.2460  178.6630  141.2630 C   0  0  2  0  0  3  0  0  0  0  0  0
  181.9260  178.9920  143.7120 O   0  0  0  0  0  1  0  0  0  0  0  0
  183.4000  178.2160  139.4440 O   0  0  0  0  0  0  0  0  0  0  0  0
  185.3000  178.4670  142.1010 C   0  0  0  0  0  0  0  0  0  0  0  0
  186.6010  178.2030  142.5470 C   0  0  0  0  0  0  0  0  0  0  0  0
  185.4310  178.6320  140.7300 C   0  0  0  0  0  0  0  0  0  0  0  0
  182.8030  178.7560  142.6610 C   0  0  0  0  0  0  0  0  0  0  0  0
  184.4140  179.0460  139.8220 N   0  0  0  0  0  2  0  0  0  0  0  0
  186.7610  178.4910  140.4340 C   0  0  0  0  0  0  0  0  0  0  0  0
  184.1070  178.6530  142.9680 C   0  0  0  0  0  3  0  0  0  0  0  0
  186.1860  178.1980  145.0210 C   0  0  0  0  0  3  0  0  0  0  0  0
  187.0480  177.9520  143.9410 C   0  0  0  0  0  0  0  0  0  0  0  0
  186.6020  177.9810  146.3340 C   0  0  0  0  0  3  0  0  0  0  0  0
  187.8900  177.5150  146.5890 C   0  0  0  0  0  3  0  0  0  0  0  0
  188.3520  177.4770  144.2070 C   0  0  0  0  0  0  0  0  0  0  0  0
  188.7700  177.2580  145.5290 C   0  0  0  0  0  0  0  0  0  0  0  0
  189.2110  177.2120  143.1850 F   0  0  0  0  0  0  0  0  0  0  0  0
  190.1600  176.7610  145.8020 C   0  0  2  0  0  3  0  0  0  0  0  0
  191.6400  176.1720  147.3460 C   0  0  0  0  0  1  0  0  0  0  0  0
  190.2680  176.3130  147.1240 O   0  0  0  0  0  0  0  0  0  0  0  0
  191.1600  177.8440  145.5350 C   0  0  0  0  0  3  0  0  0  0  0  0
  191.6670  178.0130  144.3170 C   0  0  0  0  0  2  0  0  0  0  0  0
  187.3340  178.6270  139.1310 N   0  0  0  0  0  2  0  0  0  0  0  0
  188.5120  177.9410  138.6990 C   0  0  0  0  0  0  0  0  0  0  0  0
  189.0190  178.1580  137.3180 C   0  0  0  0  0  1  0  0  0  0  0  0
  189.1260  177.1570  139.4690 O   0  0  0  0  0  0  0  0  0  0  0  0
  180.7520  178.3590  141.2720 C   0  0  0  0  0  2  0  0  0  0  0  0
  179.9460  179.5510  140.7720 C   0  0  0  0  0  2  0  0  0  0  0  0
  180.3610  179.9390  139.3910 C   0  0  0  0  0  3  0  0  0  0  0  0
  180.8150  181.1590  139.1430 C   0  0  0  0  0  3  0  0  0  0  0  0
  181.2110  181.5080  137.8520 O   0  0  0  0  0  0  0  0  0  0  0  0
  180.2880  181.5530  136.7640 C   0  0  1  0  0  3  0  0  0  0  0  0
  181.1730  184.9720  136.5350 C   0  0  0  0  0  2  0  0  0  0  0  0
  180.4860  183.9580  137.3920 C   0  0  0  0  0  2  0  0  0  0  0  0
  180.0070  182.9980  136.3520 C   0  0  1  0  0  3  0  0  0  0  0  0
  180.7260  183.3180  135.1940 O   0  0  0  0  0  0  0  0  0  0  0  0
  180.8520  184.6400  135.2120 O   0  0  0  0  0  0  0  0  0  0  0  0
  180.8000  180.7320  135.5820 C   0  0  0  0  0  2  0  0  0  0  0  0
  179.3020  178.9330  135.1310 O   0  0  0  0  0  0  0  0  0  0  0  0
  181.1350  178.4010  136.4000 O   0  0  0  0  0  1  0  0  0  0  0  0
  180.3610  179.3130  135.6950 C   0  0  0  0  0  0  0  0  0  0  0  0
  1  7  1  0  0  0  0
  2  3  1  0  0  0  0
  3 29  1  1  0  0  0
  3  9  1  0  0  0  0
  5 10  1  0  0  0  0
  5  2  1  0  0  0  0
  6  7  2  0  0  0  0
  6 12  1  0  0  0  0
  7 14  1  0  0  0  0
  8  6  1  0  0  0  0
  9 12  2  0  0  0  0
  9  4  1  0  0  0  0
 10  8  1  0  0  0  0
 11  8  2  0  0  0  0
 11  1  1  0  0  0  0
 13 15  1  0  0  0  0
 14 17  1  0  0  0  0
 14 13  2  0  0  0  0
 15 16  2  0  0  0  0
 17 18  2  0  0  0  0
 18 20  1  0  0  0  0
 18 16  1  0  0  0  0
 19 17  1  0  0  0  0
 20 23  1  1  0  0  0
 20 22  1  0  0  0  0
 22 21  1  0  0  0  0
 24 23  2  0  0  0  0
 25 11  1  0  0  0  0
 26 25  1  0  0  0  0
 26 28  2  0  0  0  0
 27 26  1  0  0  0  0
 30 29  1  0  0  0  0
 31 30  1  0  0  0  0
 32 31  2  0  0  0  0
 33 32  1  0  0  0  0
 34 40  1  6  0  0  0
 34 33  1  0  0  0  0
 35 36  1  0  0  0  0
 37 34  1  1  0  0  0
 37 36  1  0  0  0  0
 38 39  1  0  0  0  0
 38 37  1  0  0  0  0
 39 35  1  0  0  0  0
 40 43  1  0  0  0  0
 41 43  2  0  0  0  0
 43 42  1  0  0  0  0
M  END
>  <MODEL>
8

>  <REMARK>
 VINA RESULT:      -7.2      2.294     10.003
  Name = 
  13 active torsions:
  status: ('A' for Active; 'I' for Inactive)
    1  A    between atoms: O_1  and  C_5
    2  A    between atoms: O_1  and  C_42
    3  A    between atoms: N_2  and  C_40
    4  A    between atoms: C_5  and  C_22
    5  A    between atoms: C_5  and  C_24
    6  A    between atoms: C_10  and  C_27
    7  A    between atoms: C_11  and  C_41
    8  A    between atoms: C_12  and  O_30
    9  A    between atoms: C_12  and  C_32
   10  A    between atoms: C_12  and  C_33
   11  A    between atoms: C_20  and  C_21
   12  A    between atoms: C_21  and  C_41
   13  A    between atoms: C_22  and  C_38
                            x       y       z     vdW  Elec       q    Type
                         _______ _______ _______ _____ _____    ______ ____

>  <TORSDO>
F 13

$$$$
=
 OpenBabel10222415203D

 43 46  0  0  1  0  0  0  0  0999 V2000
  191.1680  176.4090  140.2300 O   0  0  0  0  0  0  0  0  0  0  0  0
  187.1770  176.1930  137.8530 O   0  0  0  0  0  0  0  0  0  0  0  0
  186.7400  177.5180  137.7110 C   0  0  2  0  0  3  0  0  0  0  0  0
  185.9250  179.1560  139.4030 O   0  0  0  0  0  1  0  0  0  0  0  0
  188.0950  175.9770  136.9170 O   0  0  0  0  0  0  0  0  0  0  0  0
  189.1900  177.2830  139.7150 C   0  0  0  0  0  0  0  0  0  0  0  0
  190.1460  177.0830  140.7190 C   0  0  0  0  0  0  0  0  0  0  0  0
  189.7260  176.6640  138.5960 C   0  0  0  0  0  0  0  0  0  0  0  0
  186.9050  178.2480  139.0200 C   0  0  0  0  0  0  0  0  0  0  0  0
  189.2000  176.6940  137.2720 N   0  0  0  0  0  2  0  0  0  0  0  0
  190.9470  176.1620  138.9620 C   0  0  0  0  0  0  0  0  0  0  0  0
  187.9570  178.1050  139.8430 C   0  0  0  0  0  3  0  0  0  0  0  0
  191.1070  178.3590  142.6520 C   0  0  0  0  0  3  0  0  0  0  0  0
  190.0900  177.5450  142.1290 C   0  0  0  0  0  0  0  0  0  0  0  0
  191.0720  178.7840  143.9800 C   0  0  0  0  0  3  0  0  0  0  0  0
  190.0200  178.4000  144.8070 C   0  0  0  0  0  3  0  0  0  0  0  0
  189.0250  177.1610  142.9730 C   0  0  0  0  0  0  0  0  0  0  0  0
  188.9900  177.5890  144.3100 C   0  0  0  0  0  0  0  0  0  0  0  0
  188.0130  176.3850  142.4980 F   0  0  0  0  0  0  0  0  0  0  0  0
  187.8580  177.1700  145.2020 C   0  0  2  0  0  3  0  0  0  0  0  0
  186.1820  178.3980  145.9800 C   0  0  0  0  0  1  0  0  0  0  0  0
  186.6710  177.8020  144.8150 O   0  0  0  0  0  0  0  0  0  0  0  0
  188.1780  177.4900  146.6300 C   0  0  0  0  0  3  0  0  0  0  0  0
  189.0500  176.7530  147.3110 C   0  0  0  0  0  2  0  0  0  0  0  0
  191.8530  175.4790  138.0910 N   0  0  0  0  0  2  0  0  0  0  0  0
  193.1400  175.9790  137.7210 C   0  0  0  0  0  0  0  0  0  0  0  0
  193.9990  175.1810  136.8070 C   0  0  0  0  0  1  0  0  0  0  0  0
  193.5560  177.0850  138.1560 O   0  0  0  0  0  0  0  0  0  0  0  0
  185.2890  177.5260  137.2410 C   0  0  0  0  0  2  0  0  0  0  0  0
  184.6130  176.1910  137.5240 C   0  0  0  0  0  2  0  0  0  0  0  0
  183.3820  176.3770  138.3480 C   0  0  0  0  0  3  0  0  0  0  0  0
  183.2590  177.4270  139.1470 C   0  0  0  0  0  3  0  0  0  0  0  0
  182.1010  177.5980  139.9040 O   0  0  0  0  0  0  0  0  0  0  0  0
  181.6240  178.8920  140.2750 C   0  0  1  0  0  3  0  0  0  0  0  0
  180.3540  181.8010  138.7130 C   0  0  0  0  0  2  0  0  0  0  0  0
  179.9690  180.4860  139.3090 C   0  0  0  0  0  2  0  0  0  0  0  0
  181.2050  179.6900  139.0410 C   0  0  1  0  0  3  0  0  0  0  0  0
  182.1890  180.6320  138.7190 O   0  0  0  0  0  0  0  0  0  0  0  0
  181.5590  181.5790  138.0320 O   0  0  0  0  0  0  0  0  0  0  0  0
  180.4760  178.7820  141.2760 C   0  0  0  0  0  2  0  0  0  0  0  0
  180.2080  180.5090  142.8980 O   0  0  0  0  0  0  0  0  0  0  0  0
  181.8040  178.9360  143.3810 O   0  0  0  0  0  1  0  0  0  0  0  0
  180.8220  179.4650  142.5550 C   0  0  0  0  0  0  0  0  0  0  0  0
  1  7  1  0  0  0  0
  3 29  1  1  0  0  0
  3  2  1  0  0  0  0
  3  9  1  0  0  0  0
  5 10  1  0  0  0  0
  5  2  1  0  0  0  0
  6 12  1  0  0  0  0
  6  7  2  0  0  0  0
  7 14  1  0  0  0  0
  8 11  2  0  0  0  0
  8  6  1  0  0  0  0
  9  4  1  0  0  0  0
  9 12  2  0  0  0  0
 10  8  1  0  0  0  0
 11  1  1  0  0  0  0
 13 15  1  0  0  0  0
 14 13  2  0  0  0  0
 14 17  1  0  0  0  0
 15 16  2  0  0  0  0
 17 18  2  0  0  0  0
 18 16  1  0  0  0  0
 18 20  1  0  0  0  0
 19 17  1  0  0  0  0
 20 23  1  1  0  0  0
 22 20  1  0  0  0  0
 22 21  1  0  0  0  0
 23 24  2  0  0  0  0
 25 11  1  0  0  0  0
 26 25  1  0  0  0  0
 26 28  2  0  0  0  0
 27 26  1  0  0  0  0
 29 30  1  0  0  0  0
 30 31  1  0  0  0  0
 31 32  2  0  0  0  0
 32 33  1  0  0  0  0
 33 34  1  0  0  0  0
 34 40  1  1  0  0  0
 35 36  1  0  0  0  0
 37 36  1  0  0  0  0
 37 34  1  1  0  0  0
 38 37  1  0  0  0  0
 39 35  1  0  0  0  0
 39 38  1  0  0  0  0
 40 43  1  0  0  0  0
 43 41  2  0  0  0  0
 43 42  1  0  0  0  0
M  END
>  <MODEL>
9

>  <REMARK>
 VINA RESULT:      -7.2      2.722      9.199
  Name = 
  13 active torsions:
  status: ('A' for Active; 'I' for Inactive)
    1  A    between atoms: O_1  and  C_5
    2  A    between atoms: O_1  and  C_42
    3  A    between atoms: N_2  and  C_40
    4  A    between atoms: C_5  and  C_22
    5  A    between atoms: C_5  and  C_24
    6  A    between atoms: C_10  and  C_27
    7  A    between atoms: C_11  and  C_41
    8  A    between atoms: C_12  and  O_30
    9  A    between atoms: C_12  and  C_32
   10  A    between atoms: C_12  and  C_33
   11  A    between atoms: C_20  and  C_21
   12  A    between atoms: C_21  and  C_41
   13  A    between atoms: C_22  and  C_38
                            x       y       z     vdW  Elec       q    Type
                         _______ _______ _______ _____ _____    ______ ____

>  <TORSDO>
F 13

$$$$
