=
 OpenBabel10222418483D

 29 32  0  0  1  0  0  0  0  0999 V2000
  186.5590  177.8710  146.8360 C   0  0  0  0  0  2  0  0  0  0  0  0
  186.0440  177.9560  144.0290 C   0  0  1  0  0  3  0  0  0  0  0  0
  191.5840  176.7790  147.1350 C   0  0  0  0  0  3  0  0  0  0  0  0
  187.9850  176.9300  142.1670 O   0  0  0  0  0  1  0  0  0  0  0  0
  187.3020  177.5810  144.4290 C   0  0  0  0  0  0  0  0  0  0  0  0
  189.4130  177.6640  147.6140 N   0  0  0  0  0  0  0  0  0  0  0  0
  185.1060  178.5690  144.9990 C   0  0  0  0  0  3  0  0  0  0  0  0
  188.9800  177.4380  146.2400 C   0  0  0  0  0  0  0  0  0  0  0  0
  185.3570  178.5710  146.3000 C   0  0  0  0  0  3  0  0  0  0  0  0
  191.1690  176.6400  145.7340 C   0  0  0  0  0  3  0  0  0  0  0  0
  187.6510  177.6860  145.8080 C   0  0  0  0  0  0  0  0  0  0  0  0
  188.6850  178.4910  148.5660 C   0  0  0  0  0  1  0  0  0  0  0  0
  189.9280  176.9450  145.3110 C   0  0  0  0  0  0  0  0  0  0  0  0
  190.7290  177.2730  148.0220 C   0  0  0  0  0  3  0  0  0  0  0  0
  188.2850  177.1090  143.5160 C   0  0  0  0  0  0  0  0  0  0  0  0
  189.5820  176.7780  143.9520 C   0  0  1  0  0  3  0  0  0  0  0  0
  183.9690  179.1440  141.7290 C   0  0  1  0  0  3  0  0  0  0  0  0
  185.5820  177.8870  142.5920 C   0  0  1  0  0  3  0  0  0  0  0  0
  184.0720  177.8230  142.4650 C   0  0  0  0  0  2  0  0  0  0  0  0
  185.7600  179.4890  141.7490 S   0  0  0  0  0  0  0  0  0  0  0  0
  183.5010  178.8990  140.3060 C   0  0  0  0  0  2  0  0  0  0  0  0
  182.0930  179.4350  140.1210 C   0  0  0  0  0  2  0  0  0  0  0  0
  179.4270  178.0500  142.4210 O   0  0  0  0  0  1  0  0  0  0  0  0
  180.3390  178.9420  141.8750 C   0  0  0  0  0  0  0  0  0  0  0  0
  180.4620  180.0920  142.3750 O   0  0  0  0  0  0  0  0  0  0  0  0
  181.1320  178.5450  140.7560 N   0  0  0  0  0  2  0  0  0  0  0  0
  191.4310  177.1520  142.2580 N   0  0  0  0  0  1  0  0  0  0  0  0
  190.5680  176.2610  142.9590 C   0  0  0  0  0  0  0  0  0  0  0  0
  190.6610  175.0240  142.7410 O   0  0  0  0  0  0  0  0  0  0  0  0
  2  5  1  0  0  0  0
  2  7  1  6  0  0  0
  3 14  2  0  0  0  0
  4 15  1  0  0  0  0
  5 11  1  0  0  0  0
  6 14  1  0  0  0  0
  6 12  1  0  0  0  0
  7  9  2  0  0  0  0
  8  6  1  0  0  0  0
  9  1  1  0  0  0  0
 10  3  1  0  0  0  0
 11  8  2  0  0  0  0
 11  1  1  0  0  0  0
 13 10  2  0  0  0  0
 13  8  1  0  0  0  0
 15 16  1  0  0  0  0
 15  5  2  0  0  0  0
 16 28  1  6  0  0  0
 16 13  1  0  0  0  0
 17 21  1  6  0  0  0
 17 20  1  0  0  0  0
 17 19  1  0  0  0  0
 18 19  1  1  0  0  0
 18  2  1  0  0  0  0
 20 18  1  0  0  0  0
 22 21  1  0  0  0  0
 22 26  1  0  0  0  0
 24 25  2  0  0  0  0
 24 23  1  0  0  0  0
 26 24  1  0  0  0  0
 27 28  1  0  0  0  0
 29 28  2  0  0  0  0
M  END
>  <MODEL>
1

>  <REMARK>
 VINA RESULT:      -8.7      0.000      0.000
  Name = 
  5 active torsions:
  status: ('A' for Active; 'I' for Inactive)
    1  A    between atoms: C_2  and  C_5
    2  A    between atoms: C_2  and  N_29
    3  A    between atoms: C_3  and  C_17
    4  A    between atoms: C_5  and  C_10
    5  A    between atoms: C_16  and  C_28
                            x       y       z     vdW  Elec       q    Type
                         _______ _______ _______ _____ _____    ______ ____

>  <TORSDO>
F 5

$$$$
=
 OpenBabel10222418483D

 29 32  0  0  1  0  0  0  0  0999 V2000
  183.9130  178.9880  144.7940 C   0  0  0  0  0  2  0  0  0  0  0  0
  186.4040  178.2070  143.6410 C   0  0  1  0  0  3  0  0  0  0  0  0
  180.7150  179.2410  140.7650 C   0  0  0  0  0  3  0  0  0  0  0  0
  186.7810  178.3190  140.7890 O   0  0  0  0  0  1  0  0  0  0  0  0
  185.3630  178.4570  142.7830 C   0  0  0  0  0  0  0  0  0  0  0  0
  181.5740  178.9130  142.9730 N   0  0  0  0  0  0  0  0  0  0  0  0
  186.1540  178.0620  145.0940 C   0  0  0  0  0  3  0  0  0  0  0  0
  182.9370  178.8140  142.4660 C   0  0  0  0  0  0  0  0  0  0  0  0
  184.9870  178.3830  145.6320 C   0  0  0  0  0  3  0  0  0  0  0  0
  182.0780  179.0500  140.2540 C   0  0  0  0  0  3  0  0  0  0  0  0
  184.0630  178.6860  143.3210 C   0  0  0  0  0  0  0  0  0  0  0  0
  181.1820  178.5250  144.3200 C   0  0  0  0  0  1  0  0  0  0  0  0
  183.1350  178.8560  141.0640 C   0  0  0  0  0  0  0  0  0  0  0  0
  180.4920  179.1720  142.0710 C   0  0  0  0  0  3  0  0  0  0  0  0
  185.5250  178.4780  141.3700 C   0  0  0  0  0  0  0  0  0  0  0  0
  184.4260  178.6910  140.5160 C   0  0  1  0  0  3  0  0  0  0  0  0
  189.3850  176.9530  144.3830 C   0  0  1  0  0  3  0  0  0  0  0  0
  187.8160  177.9470  143.1680 C   0  0  1  0  0  3  0  0  0  0  0  0
  188.8600  178.3610  144.1870 C   0  0  0  0  0  2  0  0  0  0  0  0
  188.2260  176.1750  143.2090 S   0  0  0  0  0  0  0  0  0  0  0  0
  190.8040  176.8600  143.8530 C   0  0  0  0  0  2  0  0  0  0  0  0
  191.6960  176.1690  144.8690 C   0  0  0  0  0  2  0  0  0  0  0  0
  192.0450  177.2100  148.4910 O   0  0  0  0  0  1  0  0  0  0  0  0
  191.9490  176.3880  147.3760 C   0  0  0  0  0  0  0  0  0  0  0  0
  192.0060  175.1380  147.5170 O   0  0  0  0  0  0  0  0  0  0  0  0
  191.7830  176.9690  146.0820 N   0  0  0  0  0  2  0  0  0  0  0  0
  184.5720  177.5420  138.2610 N   0  0  0  0  0  1  0  0  0  0  0  0
  184.6530  178.7310  139.0430 C   0  0  0  0  0  0  0  0  0  0  0  0
  184.9030  179.8230  138.4680 O   0  0  0  0  0  0  0  0  0  0  0  0
  1  9  1  0  0  0  0
  2  7  1  6  0  0  0
  3 14  2  0  0  0  0
  4 15  1  0  0  0  0
  5 11  1  0  0  0  0
  5  2  1  0  0  0  0
  6 12  1  0  0  0  0
  7  9  2  0  0  0  0
  8  6  1  0  0  0  0
  8 11  2  0  0  0  0
 10  3  1  0  0  0  0
 10 13  2  0  0  0  0
 11  1  1  0  0  0  0
 13  8  1  0  0  0  0
 14  6  1  0  0  0  0
 15  5  2  0  0  0  0
 16 28  1  6  0  0  0
 16 13  1  0  0  0  0
 16 15  1  0  0  0  0
 17 21  1  6  0  0  0
 18 20  1  0  0  0  0
 18  2  1  0  0  0  0
 18 19  1  1  0  0  0
 19 17  1  0  0  0  0
 20 17  1  0  0  0  0
 21 22  1  0  0  0  0
 22 26  1  0  0  0  0
 24 25  2  0  0  0  0
 24 23  1  0  0  0  0
 26 24  1  0  0  0  0
 27 28  1  0  0  0  0
 29 28  2  0  0  0  0
M  END
>  <MODEL>
2

>  <REMARK>
 VINA RESULT:      -8.3      2.647      8.280
  Name = 
  5 active torsions:
  status: ('A' for Active; 'I' for Inactive)
    1  A    between atoms: C_2  and  C_5
    2  A    between atoms: C_2  and  N_29
    3  A    between atoms: C_3  and  C_17
    4  A    between atoms: C_5  and  C_10
    5  A    between atoms: C_16  and  C_28
                            x       y       z     vdW  Elec       q    Type
                         _______ _______ _______ _____ _____    ______ ____

>  <TORSDO>
F 5

$$$$
=
 OpenBabel10222418483D

 29 32  0  0  1  0  0  0  0  0999 V2000
  185.9310  178.0170  142.7830 C   0  0  0  0  0  2  0  0  0  0  0  0
  188.2110  178.0730  141.0670 C   0  0  1  0  0  3  0  0  0  0  0  0
  187.9520  177.6770  147.5080 C   0  0  0  0  0  3  0  0  0  0  0  0
  190.8110  177.3770  142.0870 O   0  0  0  0  0  1  0  0  0  0  0  0
  188.4340  177.8820  142.4070 C   0  0  0  0  0  0  0  0  0  0  0  0
  186.5010  178.2220  145.6860 N   0  0  0  0  0  0  0  0  0  0  0  0
  186.8820  178.5230  140.5900 C   0  0  0  0  0  3  0  0  0  0  0  0
  187.5600  177.9580  144.7190 C   0  0  0  0  0  0  0  0  0  0  0  0
  185.8280  178.5400  141.3910 C   0  0  0  0  0  3  0  0  0  0  0  0
  189.0360  177.5010  146.5340 C   0  0  0  0  0  3  0  0  0  0  0  0
  187.3450  178.0140  143.3170 C   0  0  0  0  0  0  0  0  0  0  0  0
  185.2630  178.9160  145.3610 C   0  0  0  0  0  1  0  0  0  0  0  0
  188.8460  177.6270  145.2080 C   0  0  0  0  0  0  0  0  0  0  0  0
  186.7430  178.0240  147.0830 C   0  0  0  0  0  3  0  0  0  0  0  0
  189.7200  177.5750  142.9310 C   0  0  0  0  0  0  0  0  0  0  0  0
  189.9250  177.4330  144.3170 C   0  0  1  0  0  3  0  0  0  0  0  0
  189.0060  177.1500  137.9810 C   0  0  1  0  0  3  0  0  0  0  0  0
  189.3010  177.9600  140.0260 C   0  0  1  0  0  3  0  0  0  0  0  0
  189.3310  176.6000  139.3550 C   0  0  0  0  0  2  0  0  0  0  0  0
  188.8910  178.8890  138.5170 S   0  0  0  0  0  0  0  0  0  0  0  0
  190.2010  176.9650  137.0630 C   0  0  0  0  0  2  0  0  0  0  0  0
  189.8590  175.9890  135.9520 C   0  0  0  0  0  2  0  0  0  0  0  0
  192.0180  172.9080  136.3580 O   0  0  0  0  0  0  0  0  0  0  0  0
  190.9810  173.8070  136.5660 C   0  0  0  0  0  0  0  0  0  0  0  0
  190.1000  173.5540  137.4300 O   0  0  0  0  0  1  0  0  0  0  0  0
  190.9270  175.0120  135.8010 N   0  0  0  0  0  2  0  0  0  0  0  0
  191.7330  175.7310  144.8300 N   0  0  0  0  0  1  0  0  0  0  0  0
  191.2880  177.0850  144.8140 C   0  0  0  0  0  0  0  0  0  0  0  0
  192.0690  177.9890  145.2100 O   0  0  0  0  0  0  0  0  0  0  0  0
  1 11  1  0  0  0  0
  2  7  1  1  0  0  0
  2  5  1  0  0  0  0
  4 15  1  0  0  0  0
  5 15  2  0  0  0  0
  5 11  1  0  0  0  0
  6 14  1  0  0  0  0
  7  9  2  0  0  0  0
  8 13  1  0  0  0  0
  8  6  1  0  0  0  0
  9  1  1  0  0  0  0
 10  3  1  0  0  0  0
 11  8  2  0  0  0  0
 12  6  1  0  0  0  0
 13 10  2  0  0  0  0
 14  3  2  0  0  0  0
 15 16  1  0  0  0  0
 16 28  1  1  0  0  0
 16 13  1  0  0  0  0
 17 21  1  6  0  0  0
 17 20  1  0  0  0  0
 17 19  1  0  0  0  0
 18 19  1  6  0  0  0
 18  2  1  0  0  0  0
 20 18  1  0  0  0  0
 22 21  1  0  0  0  0
 23 24  2  0  0  0  0
 24 25  1  0  0  0  0
 26 22  1  0  0  0  0
 26 24  1  0  0  0  0
 28 27  1  0  0  0  0
 28 29  2  0  0  0  0
M  END
>  <MODEL>
3

>  <REMARK>
 VINA RESULT:      -8.1      3.896      6.335
  Name = 
  5 active torsions:
  status: ('A' for Active; 'I' for Inactive)
    1  A    between atoms: C_2  and  C_5
    2  A    between atoms: C_2  and  N_29
    3  A    between atoms: C_3  and  C_17
    4  A    between atoms: C_5  and  C_10
    5  A    between atoms: C_16  and  C_28
                            x       y       z     vdW  Elec       q    Type
                         _______ _______ _______ _____ _____    ______ ____

>  <TORSDO>
F 5

$$$$
=
 OpenBabel10222418483D

 29 32  0  0  1  0  0  0  0  0999 V2000
  187.1640  177.7870  147.3340 C   0  0  0  0  0  2  0  0  0  0  0  0
  186.2750  178.5150  144.7200 C   0  0  1  0  0  3  0  0  0  0  0  0
  192.0390  176.2940  146.6070 C   0  0  0  0  0  3  0  0  0  0  0  0
  187.8200  177.7780  142.4060 O   0  0  0  0  0  1  0  0  0  0  0  0
  187.5300  177.9720  144.8320 C   0  0  0  0  0  0  0  0  0  0  0  0
  190.0600  177.2090  147.5930 N   0  0  0  0  0  0  0  0  0  0  0  0
  185.5500  178.9700  145.9300 C   0  0  0  0  0  3  0  0  0  0  0  0
  189.4200  177.3190  146.2880 C   0  0  0  0  0  0  0  0  0  0  0  0
  185.9790  178.6720  147.1480 C   0  0  0  0  0  3  0  0  0  0  0  0
  191.4210  176.4910  145.2900 C   0  0  0  0  0  3  0  0  0  0  0  0
  188.0770  177.7500  146.1300 C   0  0  0  0  0  0  0  0  0  0  0  0
  189.5630  177.8610  148.7950 C   0  0  0  0  0  1  0  0  0  0  0  0
  190.1730  176.9700  145.1400 C   0  0  0  0  0  0  0  0  0  0  0  0
  191.3720  176.6440  147.7000 C   0  0  0  0  0  3  0  0  0  0  0  0
  188.3220  177.6380  143.6980 C   0  0  0  0  0  0  0  0  0  0  0  0
  189.6250  177.1260  143.8470 C   0  0  1  0  0  3  0  0  0  0  0  0
  183.4570  178.4750  142.9700 C   0  0  1  0  0  3  0  0  0  0  0  0
  185.6130  178.7920  143.3910 C   0  0  1  0  0  3  0  0  0  0  0  0
  184.7290  177.6500  142.9280 C   0  0  0  0  0  2  0  0  0  0  0  0
  184.2660  180.0030  143.5480 S   0  0  0  0  0  0  0  0  0  0  0  0
  182.9270  178.6650  141.5610 C   0  0  0  0  0  2  0  0  0  0  0  0
  181.4090  178.6340  141.5660 C   0  0  0  0  0  2  0  0  0  0  0  0
  179.4380  176.1710  139.4770 O   0  0  0  0  0  0  0  0  0  0  0  0
  179.8670  176.8840  140.5870 C   0  0  0  0  0  0  0  0  0  0  0  0
  179.3260  176.6830  141.7060 O   0  0  0  0  0  1  0  0  0  0  0  0
  180.9230  177.8370  140.4490 N   0  0  0  0  0  2  0  0  0  0  0  0
  191.2730  177.7130  142.0130 N   0  0  0  0  0  1  0  0  0  0  0  0
  190.4040  176.7660  142.6270 C   0  0  0  0  0  0  0  0  0  0  0  0
  190.3150  175.6100  142.1350 O   0  0  0  0  0  0  0  0  0  0  0  0
  2  5  1  0  0  0  0
  2  7  1  6  0  0  0
  3 14  2  0  0  0  0
  4 15  1  0  0  0  0
  5 11  1  0  0  0  0
  6 14  1  0  0  0  0
  6 12  1  0  0  0  0
  7  9  2  0  0  0  0
  8  6  1  0  0  0  0
  9  1  1  0  0  0  0
 10  3  1  0  0  0  0
 11  8  2  0  0  0  0
 11  1  1  0  0  0  0
 13 10  2  0  0  0  0
 13  8  1  0  0  0  0
 15 16  1  0  0  0  0
 15  5  2  0  0  0  0
 16 28  1  6  0  0  0
 16 13  1  0  0  0  0
 17 21  1  6  0  0  0
 17 20  1  0  0  0  0
 18 19  1  1  0  0  0
 18 20  1  0  0  0  0
 18  2  1  0  0  0  0
 19 17  1  0  0  0  0
 21 22  1  0  0  0  0
 23 24  2  0  0  0  0
 24 25  1  0  0  0  0
 26 24  1  0  0  0  0
 26 22  1  0  0  0  0
 27 28  1  0  0  0  0
 29 28  2  0  0  0  0
M  END
>  <MODEL>
4

>  <REMARK>
 VINA RESULT:      -8.1      1.214      1.426
  Name = 
  5 active torsions:
  status: ('A' for Active; 'I' for Inactive)
    1  A    between atoms: C_2  and  C_5
    2  A    between atoms: C_2  and  N_29
    3  A    between atoms: C_3  and  C_17
    4  A    between atoms: C_5  and  C_10
    5  A    between atoms: C_16  and  C_28
                            x       y       z     vdW  Elec       q    Type
                         _______ _______ _______ _____ _____    ______ ____

>  <TORSDO>
F 5

$$$$
=
 OpenBabel10222418483D

 29 32  0  0  1  0  0  0  0  0999 V2000
  190.1310  176.4500  139.0860 C   0  0  0  0  0  2  0  0  0  0  0  0
  189.2000  177.7300  141.4610 C   0  0  1  0  0  3  0  0  0  0  0  0
  186.5090  177.5480  135.5930 C   0  0  0  0  0  3  0  0  0  0  0  0
  186.4960  178.7030  141.6190 O   0  0  0  0  0  1  0  0  0  0  0  0
  188.3780  177.7620  140.3630 C   0  0  0  0  0  0  0  0  0  0  0  0
  188.6220  177.0770  136.6120 N   0  0  0  0  0  0  0  0  0  0  0  0
  190.6150  177.3120  141.3210 C   0  0  0  0  0  3  0  0  0  0  0  0
  188.1040  177.4260  137.9290 C   0  0  2  0  0  3  0  0  0  0  0  0
  191.0660  176.7560  140.2060 C   0  0  0  0  0  3  0  0  0  0  0  0
  186.0220  177.9840  136.9070 C   0  0  0  0  0  3  0  0  0  0  0  0
  188.8720  177.2850  139.1140 C   0  0  0  0  0  0  0  0  0  0  0  0
  190.0380  176.9170  136.3160 C   0  0  0  0  0  1  0  0  0  0  0  0
  186.7790  177.9180  138.0190 C   0  0  0  0  0  0  0  0  0  0  0  0
  187.7580  177.1170  135.4700 C   0  0  0  0  0  3  0  0  0  0  0  0
  187.0530  178.2760  140.4160 C   0  0  0  0  0  0  0  0  0  0  0  0
  186.2520  178.3390  139.2600 C   0  0  0  0  0  0  0  0  0  0  0  0
  189.3180  177.2370  144.7400 C   0  0  1  0  0  3  0  0  0  0  0  0
  188.7710  178.2180  142.8260 C   0  0  1  0  0  3  0  0  0  0  0  0
  188.2240  177.1060  143.7000 C   0  0  0  0  0  2  0  0  0  0  0  0
  190.1990  178.5870  143.8890 S   0  0  0  0  0  0  0  0  0  0  0  0
  188.7240  177.7400  146.0430 C   0  0  0  0  0  2  0  0  0  0  0  0
  189.5790  177.2900  147.2140 C   0  0  0  0  0  2  0  0  0  0  0  0
  192.7020  175.1820  146.8680 O   0  0  0  0  0  0  0  0  0  0  0  0
  191.8510  176.1830  147.3140 C   0  0  0  0  0  0  0  0  0  0  0  0
  192.2510  177.0000  148.1860 O   0  0  0  0  0  1  0  0  0  0  0  0
  190.5300  176.2790  146.7780 N   0  0  0  0  0  2  0  0  0  0  0  0
  183.7700  177.9790  139.6310 N   0  0  0  0  0  1  0  0  0  0  0  0
  184.8590  178.8610  139.3730 C   0  0  0  0  0  0  0  0  0  0  0  0
  184.6320  180.0950  139.2600 O   0  0  0  0  0  0  0  0  0  0  0  0
  1 11  1  0  0  0  0
  1  9  1  0  0  0  0
  2  7  1  6  0  0  0
  2 18  1  0  0  0  0
  3 10  1  0  0  0  0
  5 15  1  0  0  0  0
  5  2  1  0  0  0  0
  6  8  1  0  0  0  0
  8 13  1  1  0  0  0
  8 11  1  0  0  0  0
  9  7  2  0  0  0  0
 10 13  2  0  0  0  0
 11  5  2  0  0  0  0
 12  6  1  0  0  0  0
 13 16  1  0  0  0  0
 14  3  2  0  0  0  0
 14  6  1  0  0  0  0
 15  4  1  0  0  0  0
 16 28  1  0  0  0  0
 16 15  2  0  0  0  0
 17 21  1  1  0  0  0
 18 19  1  1  0  0  0
 18 20  1  0  0  0  0
 19 17  1  0  0  0  0
 20 17  1  0  0  0  0
 21 22  1  0  0  0  0
 23 24  2  0  0  0  0
 24 25  1  0  0  0  0
 26 22  1  0  0  0  0
 26 24  1  0  0  0  0
 28 27  1  0  0  0  0
 29 28  2  0  0  0  0
M  END
>  <MODEL>
5

>  <REMARK>
 VINA RESULT:      -7.9      3.891      8.939
  Name = 
  5 active torsions:
  status: ('A' for Active; 'I' for Inactive)
    1  A    between atoms: C_2  and  C_5
    2  A    between atoms: C_2  and  N_29
    3  A    between atoms: C_3  and  C_17
    4  A    between atoms: C_5  and  C_10
    5  A    between atoms: C_16  and  C_28
                            x       y       z     vdW  Elec       q    Type
                         _______ _______ _______ _____ _____    ______ ____

>  <TORSDO>
F 5

$$$$
=
 OpenBabel10222418483D

 29 32  0  0  1  0  0  0  0  0999 V2000
  187.6440  178.4000  139.6290 C   0  0  0  0  0  2  0  0  0  0  0  0
  189.7010  177.7460  141.4980 C   0  0  1  0  0  3  0  0  0  0  0  0
  189.4040  176.5420  135.1590 C   0  0  0  0  0  3  0  0  0  0  0  0
  192.2830  176.8790  140.5670 O   0  0  0  0  0  1  0  0  0  0  0  0
  189.9340  177.4610  140.1770 C   0  0  0  0  0  0  0  0  0  0  0  0
  187.9390  177.2160  136.9270 N   0  0  0  0  0  0  0  0  0  0  0  0
  188.3350  178.0970  141.9540 C   0  0  0  0  0  3  0  0  0  0  0  0
  189.0350  177.2020  137.8870 C   0  0  2  0  0  3  0  0  0  0  0  0
  187.3630  178.3610  141.0930 C   0  0  0  0  0  3  0  0  0  0  0  0
  190.4820  176.4440  136.1500 C   0  0  0  0  0  3  0  0  0  0  0  0
  188.8740  177.6150  139.2360 C   0  0  0  0  0  0  0  0  0  0  0  0
  186.5340  177.2790  137.3040 C   0  0  0  0  0  1  0  0  0  0  0  0
  190.3080  176.7660  137.4460 C   0  0  0  0  0  0  0  0  0  0  0  0
  188.1910  176.9130  135.5500 C   0  0  0  0  0  3  0  0  0  0  0  0
  191.1940  176.9950  139.7070 C   0  0  0  0  0  0  0  0  0  0  0  0
  191.3870  176.6650  138.3520 C   0  0  0  0  0  0  0  0  0  0  0  0
  190.3380  177.1070  144.6900 C   0  0  1  0  0  3  0  0  0  0  0  0
  190.7570  177.6090  142.5690 C   0  0  1  0  0  3  0  0  0  0  0  0
  190.4040  178.3600  143.8390 C   0  0  0  0  0  2  0  0  0  0  0  0
  190.7340  175.9580  143.3320 S   0  0  0  0  0  0  0  0  0  0  0  0
  191.4650  177.1220  145.7070 C   0  0  0  0  0  2  0  0  0  0  0  0
  190.9380  176.7290  147.0750 C   0  0  0  0  0  2  0  0  0  0  0  0
  187.3590  177.6820  147.8520 O   0  0  0  0  0  0  0  0  0  0  0  0
  188.7460  177.6770  147.9080 C   0  0  0  0  0  0  0  0  0  0  0  0
  189.3420  178.4660  148.6890 O   0  0  0  0  0  1  0  0  0  0  0  0
  189.4840  176.7740  147.0820 N   0  0  0  0  0  2  0  0  0  0  0  0
  193.0260  174.8180  137.7800 N   0  0  0  0  0  1  0  0  0  0  0  0
  192.7340  176.2070  137.9050 C   0  0  0  0  0  0  0  0  0  0  0  0
  193.6270  177.0460  137.6140 O   0  0  0  0  0  0  0  0  0  0  0  0
  1  9  1  0  0  0  0
  2  7  1  1  0  0  0
  2 18  1  0  0  0  0
  3 14  2  0  0  0  0
  3 10  1  0  0  0  0
  5  2  1  0  0  0  0
  6 12  1  0  0  0  0
  6  8  1  0  0  0  0
  8 13  1  6  0  0  0
  8 11  1  0  0  0  0
  9  7  2  0  0  0  0
 10 13  2  0  0  0  0
 11  1  1  0  0  0  0
 11  5  2  0  0  0  0
 13 16  1  0  0  0  0
 14  6  1  0  0  0  0
 15  5  1  0  0  0  0
 15  4  1  0  0  0  0
 16 15  2  0  0  0  0
 17 21  1  1  0  0  0
 18 20  1  0  0  0  0
 18 19  1  1  0  0  0
 19 17  1  0  0  0  0
 20 17  1  0  0  0  0
 21 22  1  0  0  0  0
 22 26  1  0  0  0  0
 23 24  2  0  0  0  0
 24 25  1  0  0  0  0
 26 24  1  0  0  0  0
 27 28  1  0  0  0  0
 28 16  1  0  0  0  0
 29 28  2  0  0  0  0
M  END
>  <MODEL>
6

>  <REMARK>
 VINA RESULT:      -7.8      4.565      8.267
  Name = 
  5 active torsions:
  status: ('A' for Active; 'I' for Inactive)
    1  A    between atoms: C_2  and  C_5
    2  A    between atoms: C_2  and  N_29
    3  A    between atoms: C_3  and  C_17
    4  A    between atoms: C_5  and  C_10
    5  A    between atoms: C_16  and  C_28
                            x       y       z     vdW  Elec       q    Type
                         _______ _______ _______ _____ _____    ______ ____

>  <TORSDO>
F 5

$$$$
=
 OpenBabel10222418483D

 29 32  0  0  1  0  0  0  0  0999 V2000
  191.0870  177.4650  144.5990 C   0  0  0  0  0  2  0  0  0  0  0  0
  189.3580  177.2470  142.3380 C   0  0  1  0  0  3  0  0  0  0  0  0
  187.8600  178.1170  148.5600 C   0  0  0  0  0  3  0  0  0  0  0  0
  186.5810  177.9720  142.5610 O   0  0  0  0  0  1  0  0  0  0  0  0
  188.7800  177.5320  143.5490 C   0  0  0  0  0  0  0  0  0  0  0  0
  189.7490  177.4640  147.2450 N   0  0  0  0  0  0  0  0  0  0  0  0
  190.7650  176.7840  142.2740 C   0  0  0  0  0  3  0  0  0  0  0  0
  188.9940  177.6390  146.0110 C   0  0  0  0  0  0  0  0  0  0  0  0
  191.5620  176.8430  143.3300 C   0  0  0  0  0  3  0  0  0  0  0  0
  187.0820  178.2030  147.3190 C   0  0  0  0  0  3  0  0  0  0  0  0
  189.5810  177.4840  144.7280 C   0  0  0  0  0  0  0  0  0  0  0  0
  191.0260  176.7680  147.3210 C   0  0  0  0  0  1  0  0  0  0  0  0
  187.6240  177.9840  146.1060 C   0  0  0  0  0  0  0  0  0  0  0  0
  189.1370  177.7600  148.5060 C   0  0  0  0  0  3  0  0  0  0  0  0
  187.4010  177.8540  143.6810 C   0  0  0  0  0  0  0  0  0  0  0  0
  186.8280  178.0950  144.9440 C   0  0  1  0  0  3  0  0  0  0  0  0
  189.2800  178.2840  139.1880 C   0  0  1  0  0  3  0  0  0  0  0  0
  188.5920  177.2650  141.0360 C   0  0  1  0  0  3  0  0  0  0  0  0
  188.4970  178.6530  140.4320 C   0  0  0  0  0  2  0  0  0  0  0  0
  189.5610  176.5490  139.6730 S   0  0  0  0  0  0  0  0  0  0  0  0
  188.3690  178.3460  137.9760 C   0  0  0  0  0  2  0  0  0  0  0  0
  189.1780  178.6580  136.7300 C   0  0  0  0  0  2  0  0  0  0  0  0
  189.6500  175.5300  134.6530 O   0  0  0  0  0  0  0  0  0  0  0  0
  189.8940  176.5080  135.6070 C   0  0  0  0  0  0  0  0  0  0  0  0
  190.9110  176.4180  136.3450 O   0  0  0  0  0  1  0  0  0  0  0  0
  188.9930  177.6090  135.7390 N   0  0  0  0  0  2  0  0  0  0  0  0
  184.9030  179.6690  144.4530 N   0  0  0  0  0  1  0  0  0  0  0  0
  185.3840  178.4560  145.0260 C   0  0  0  0  0  0  0  0  0  0  0  0
  184.5660  177.6820  145.5900 O   0  0  0  0  0  0  0  0  0  0  0  0
  1 11  1  0  0  0  0
  2  7  1  1  0  0  0
  2  5  1  0  0  0  0
  4 15  1  0  0  0  0
  5 15  2  0  0  0  0
  5 11  1  0  0  0  0
  6 12  1  0  0  0  0
  6 14  1  0  0  0  0
  7  9  2  0  0  0  0
  8 13  1  0  0  0  0
  8  6  1  0  0  0  0
  9  1  1  0  0  0  0
 10  3  1  0  0  0  0
 11  8  2  0  0  0  0
 13 10  2  0  0  0  0
 14  3  2  0  0  0  0
 15 16  1  0  0  0  0
 16 28  1  1  0  0  0
 16 13  1  0  0  0  0
 17 21  1  6  0  0  0
 17 20  1  0  0  0  0
 17 19  1  0  0  0  0
 18 19  1  6  0  0  0
 18  2  1  0  0  0  0
 20 18  1  0  0  0  0
 22 21  1  0  0  0  0
 23 24  2  0  0  0  0
 24 26  1  0  0  0  0
 24 25  1  0  0  0  0
 26 22  1  0  0  0  0
 27 28  1  0  0  0  0
 28 29  2  0  0  0  0
M  END
>  <MODEL>
7

>  <REMARK>
 VINA RESULT:      -7.8      3.787      6.167
  Name = 
  5 active torsions:
  status: ('A' for Active; 'I' for Inactive)
    1  A    between atoms: C_2  and  C_5
    2  A    between atoms: C_2  and  N_29
    3  A    between atoms: C_3  and  C_17
    4  A    between atoms: C_5  and  C_10
    5  A    between atoms: C_16  and  C_28
                            x       y       z     vdW  Elec       q    Type
                         _______ _______ _______ _____ _____    ______ ____

>  <TORSDO>
F 5

$$$$
=
 OpenBabel10222418483D

 29 32  0  0  1  0  0  0  0  0999 V2000
  188.9740  177.8640  143.4280 C   0  0  0  0  0  2  0  0  0  0  0  0
  189.4310  177.6010  140.6230 C   0  0  1  0  0  3  0  0  0  0  0  0
  183.8970  178.6530  143.7820 C   0  0  0  0  0  3  0  0  0  0  0  0
  187.3860  178.3580  138.7430 O   0  0  0  0  0  1  0  0  0  0  0  0
  188.1610  177.9240  141.0280 C   0  0  0  0  0  0  0  0  0  0  0  0
  186.1310  177.9470  144.2660 N   0  0  0  0  0  0  0  0  0  0  0  0
  190.4290  177.1240  141.6090 C   0  0  0  0  0  3  0  0  0  0  0  0
  186.5170  178.0950  142.8680 C   0  0  0  0  0  0  0  0  0  0  0  0
  190.2070  177.2040  142.9130 C   0  0  0  0  0  3  0  0  0  0  0  0
  184.2700  178.7130  142.3640 C   0  0  0  0  0  3  0  0  0  0  0  0
  187.8500  177.9010  142.4190 C   0  0  0  0  0  0  0  0  0  0  0  0
  186.9320  177.2420  145.2560 C   0  0  0  0  0  1  0  0  0  0  0  0
  185.5180  178.4560  141.9310 C   0  0  0  0  0  0  0  0  0  0  0  0
  184.8020  178.2830  144.6800 C   0  0  0  0  0  3  0  0  0  0  0  0
  187.1290  178.2620  140.1090 C   0  0  0  0  0  0  0  0  0  0  0  0
  185.8220  178.5420  140.5540 C   0  0  1  0  0  3  0  0  0  0  0  0
  191.3410  176.1870  138.3080 C   0  0  1  0  0  3  0  0  0  0  0  0
  189.8550  177.5910  139.1730 C   0  0  1  0  0  3  0  0  0  0  0  0
  191.3610  177.5340  139.0040 C   0  0  0  0  0  2  0  0  0  0  0  0
  189.5310  175.9830  138.3860 S   0  0  0  0  0  0  0  0  0  0  0  0
  191.7860  176.3520  136.8660 C   0  0  0  0  0  2  0  0  0  0  0  0
  192.9210  175.3930  136.5580 C   0  0  0  0  0  2  0  0  0  0  0  0
  195.8210  174.8970  138.9380 O   0  0  0  0  0  1  0  0  0  0  0  0
  194.7470  174.5910  138.1140 C   0  0  0  0  0  0  0  0  0  0  0  0
  194.4010  173.3900  137.9600 O   0  0  0  0  0  0  0  0  0  0  0  0
  194.0430  175.6430  137.4510 N   0  0  0  0  0  2  0  0  0  0  0  0
  184.0180  177.9190  138.8870 N   0  0  0  0  0  1  0  0  0  0  0  0
  184.7830  178.9190  139.5540 C   0  0  0  0  0  0  0  0  0  0  0  0
  184.5570  180.1310  139.2980 O   0  0  0  0  0  0  0  0  0  0  0  0
  2  5  1  0  0  0  0
  2  7  1  6  0  0  0
  3 14  2  0  0  0  0
  4 15  1  0  0  0  0
  5 11  1  0  0  0  0
  6 14  1  0  0  0  0
  6 12  1  0  0  0  0
  7  9  2  0  0  0  0
  8  6  1  0  0  0  0
  9  1  1  0  0  0  0
 10  3  1  0  0  0  0
 11  8  2  0  0  0  0
 11  1  1  0  0  0  0
 13 10  2  0  0  0  0
 13  8  1  0  0  0  0
 15 16  1  0  0  0  0
 15  5  2  0  0  0  0
 16 28  1  6  0  0  0
 16 13  1  0  0  0  0
 17 21  1  6  0  0  0
 17 20  1  0  0  0  0
 17 19  1  0  0  0  0
 18 19  1  1  0  0  0
 18  2  1  0  0  0  0
 20 18  1  0  0  0  0
 22 21  1  0  0  0  0
 22 26  1  0  0  0  0
 24 23  1  0  0  0  0
 25 24  2  0  0  0  0
 26 24  1  0  0  0  0
 27 28  1  0  0  0  0
 29 28  2  0  0  0  0
M  END
>  <MODEL>
8

>  <REMARK>
 VINA RESULT:      -7.5      3.963      8.480
  Name = 
  5 active torsions:
  status: ('A' for Active; 'I' for Inactive)
    1  A    between atoms: C_2  and  C_5
    2  A    between atoms: C_2  and  N_29
    3  A    between atoms: C_3  and  C_17
    4  A    between atoms: C_5  and  C_10
    5  A    between atoms: C_16  and  C_28
                            x       y       z     vdW  Elec       q    Type
                         _______ _______ _______ _____ _____    ______ ____

>  <TORSDO>
F 5

$$$$
=
 OpenBabel10222418483D

 29 32  0  0  1  0  0  0  0  0999 V2000
  190.5550  177.6260  144.5580 C   0  0  0  0  0  2  0  0  0  0  0  0
  190.4230  177.4980  141.7090 C   0  0  1  0  0  3  0  0  0  0  0  0
  185.6440  178.2150  145.9940 C   0  0  0  0  0  3  0  0  0  0  0  0
  188.0120  178.2590  140.3340 O   0  0  0  0  0  1  0  0  0  0  0  0
  189.2570  177.7570  142.3840 C   0  0  0  0  0  0  0  0  0  0  0  0
  187.9480  177.5700  145.9700 N   0  0  0  0  0  0  0  0  0  0  0  0
  191.6170  177.0160  142.4440 C   0  0  0  0  0  3  0  0  0  0  0  0
  188.0300  177.7910  144.5310 C   0  0  0  0  0  0  0  0  0  0  0  0
  191.6700  177.0330  143.7670 C   0  0  0  0  0  3  0  0  0  0  0  0
  185.7110  178.3480  144.5340 C   0  0  0  0  0  3  0  0  0  0  0  0
  189.2440  177.6650  143.8070 C   0  0  0  0  0  0  0  0  0  0  0  0
  188.9560  176.8540  146.7370 C   0  0  0  0  0  1  0  0  0  0  0  0
  186.8480  178.1550  143.8400 C   0  0  0  0  0  0  0  0  0  0  0  0
  186.7260  177.8400  146.6660 C   0  0  0  0  0  3  0  0  0  0  0  0
  188.0480  178.0970  141.7170 C   0  0  0  0  0  0  0  0  0  0  0  0
  186.8560  178.3100  142.4360 C   0  0  1  0  0  3  0  0  0  0  0  0
  191.7960  176.2110  138.9780 C   0  0  1  0  0  3  0  0  0  0  0  0
  190.5360  177.5640  140.2040 C   0  0  1  0  0  3  0  0  0  0  0  0
  191.9730  177.5190  139.7220 C   0  0  0  0  0  2  0  0  0  0  0  0
  190.0410  175.9990  139.4210 S   0  0  0  0  0  0  0  0  0  0  0  0
  191.9320  176.4520  137.4850 C   0  0  0  0  0  2  0  0  0  0  0  0
  193.1240  175.6860  136.9400 C   0  0  0  0  0  2  0  0  0  0  0  0
  195.4400  173.6080  139.0940 O   0  0  0  0  0  1  0  0  0  0  0  0
  195.0220  174.4810  138.0990 C   0  0  0  0  0  0  0  0  0  0  0  0
  195.8730  175.0110  137.3360 O   0  0  0  0  0  0  0  0  0  0  0  0
  193.6300  174.7660  137.9480 N   0  0  0  0  0  2  0  0  0  0  0  0
  184.4550  177.8740  141.7500 N   0  0  0  0  0  1  0  0  0  0  0  0
  185.6210  178.6910  141.6920 C   0  0  0  0  0  0  0  0  0  0  0  0
  185.5890  179.7520  141.0150 O   0  0  0  0  0  0  0  0  0  0  0  0
  2  5  1  0  0  0  0
  2  7  1  6  0  0  0
  3 14  2  0  0  0  0
  4 15  1  0  0  0  0
  5 11  1  0  0  0  0
  6 14  1  0  0  0  0
  6 12  1  0  0  0  0
  7  9  2  0  0  0  0
  8  6  1  0  0  0  0
  9  1  1  0  0  0  0
 10  3  1  0  0  0  0
 11  8  2  0  0  0  0
 11  1  1  0  0  0  0
 13  8  1  0  0  0  0
 13 10  2  0  0  0  0
 15  5  2  0  0  0  0
 15 16  1  0  0  0  0
 16 28  1  6  0  0  0
 16 13  1  0  0  0  0
 17 21  1  6  0  0  0
 17 20  1  0  0  0  0
 17 19  1  0  0  0  0
 18 19  1  1  0  0  0
 18  2  1  0  0  0  0
 20 18  1  0  0  0  0
 22 21  1  0  0  0  0
 22 26  1  0  0  0  0
 24 23  1  0  0  0  0
 25 24  2  0  0  0  0
 26 24  1  0  0  0  0
 28 27  1  0  0  0  0
 29 28  2  0  0  0  0
M  END
>  <MODEL>
9

>  <REMARK>
 VINA RESULT:      -7.4      3.630      8.056
  Name = 
  5 active torsions:
  status: ('A' for Active; 'I' for Inactive)
    1  A    between atoms: C_2  and  C_5
    2  A    between atoms: C_2  and  N_29
    3  A    between atoms: C_3  and  C_17
    4  A    between atoms: C_5  and  C_10
    5  A    between atoms: C_16  and  C_28
                            x       y       z     vdW  Elec       q    Type
                         _______ _______ _______ _____ _____    ______ ____

>  <TORSDO>
F 5

$$$$
