=
 OpenBabel10222417013D

 30 33  0  0  1  0  0  0  0  0999 V2000
  188.3760  178.0180  138.7480 C   0  0  0  0  0  0  0  0  0  0  0  0
  187.9950  178.2640  136.4550 C   0  0  1  0  0  3  0  0  0  0  0  0
  189.3380  177.5490  136.6430 C   0  0  0  0  0  2  0  0  0  0  0  0
  187.0690  177.4020  135.7660 N   0  0  0  0  0  0  0  0  0  0  0  0
  188.2450  178.2840  140.0200 C   0  0  0  0  0  0  0  0  0  0  0  0
  184.8950  176.3420  135.7890 C   0  0  0  0  0  1  0  0  0  0  0  0
  187.4520  178.4830  137.7820 N   0  0  0  0  0  0  0  0  0  0  0  0
  189.6220  177.4900  138.1440 C   0  0  2  0  0  3  0  0  0  0  0  0
  188.1130  178.5490  141.2880 C   0  0  0  0  0  3  0  0  0  0  0  0
  185.7320  178.1020  137.9010 S   0  0  0  0  0  0  0  0  0  0  0  0
  185.9400  177.2420  136.3500 C   0  0  0  0  0  0  0  0  0  0  0  0
  189.0420  178.0130  142.2220 N   0  0  0  0  0  2  0  0  0  0  0  0
  188.6670  176.9020  143.0750 C   0  0  0  0  0  2  0  0  0  0  0  0
  189.7010  177.2310  146.6920 C   0  0  0  0  0  0  0  0  0  0  0  0
  188.9170  177.2420  145.5360 C   0  0  0  0  0  3  0  0  0  0  0  0
  191.0600  176.8870  146.6100 C   0  0  0  0  0  0  0  0  0  0  0  0
  189.4990  176.9250  144.3080 C   0  0  0  0  0  0  0  0  0  0  0  0
  190.8140  176.5860  144.2450 N   0  0  0  0  0  0  0  0  0  0  0  0
  191.5980  176.5630  145.3560 C   0  0  0  0  0  3  0  0  0  0  0  0
  187.6560  178.0710  147.7920 C   0  0  0  0  0  1  0  0  0  0  0  0
  189.0670  177.5540  148.0050 C   0  0  0  0  0  2  0  0  0  0  0  0
  191.8470  176.8700  147.7670 O   0  0  0  0  0  0  0  0  0  0  0  0
  192.6670  175.7650  148.1250 C   0  0  0  0  0  1  0  0  0  0  0  0
  189.8370  176.0400  138.5500 C   0  0  0  0  0  2  0  0  0  0  0  0
  193.3830  175.0850  137.2360 C   0  0  0  0  0  0  0  0  0  0  0  0
  192.5560  176.3720  137.9310 S   0  0  0  0  0  0  0  0  0  0  0  0
  194.8240  175.0820  136.8740 C   0  0  0  0  0  1  0  0  0  0  0  0
  191.2430  174.2680  137.4790 N   0  0  0  0  0  0  0  0  0  0  0  0
  192.5130  174.0180  137.0600 C   0  0  0  0  0  3  0  0  0  0  0  0
  191.1060  175.5190  137.9720 C   0  0  0  0  0  0  0  0  0  0  0  0
  1  5  2  0  0  0  0
  2  3  1  1  0  0  0
  2  7  1  0  0  0  0
  3  8  1  0  0  0  0
  4 11  2  0  0  0  0
  4  2  1  0  0  0  0
  5  9  2  0  0  0  0
  6 11  1  0  0  0  0
  7 10  1  0  0  0  0
  7  1  1  0  0  0  0
  8 24  1  1  0  0  0
  8  1  1  0  0  0  0
  9 12  1  0  0  0  0
 11 10  1  0  0  0  0
 12 13  1  0  0  0  0
 13 17  1  0  0  0  0
 14 21  1  0  0  0  0
 15 14  2  0  0  0  0
 16 14  1  0  0  0  0
 16 22  1  0  0  0  0
 17 15  1  0  0  0  0
 18 17  2  0  0  0  0
 18 19  1  0  0  0  0
 19 16  2  0  0  0  0
 20 21  1  0  0  0  0
 22 23  1  0  0  0  0
 25 26  1  0  0  0  0
 26 30  1  0  0  0  0
 27 25  1  0  0  0  0
 28 30  2  0  0  0  0
 29 25  2  0  0  0  0
 29 28  1  0  0  0  0
 30 24  1  0  0  0  0
M  END
>  <MODEL>
1

>  <REMARK>
 VINA RESULT:      -8.1      0.000      0.000
  Name = 
  7 active torsions:
  status: ('A' for Active; 'I' for Inactive)
    1  A    between atoms: C_2  and  C_28
    2  A    between atoms: N_4  and  C_23
    3  A    between atoms: N_4  and  C_26
    4  A    between atoms: C_5  and  O_14
    5  A    between atoms: C_7  and  C_26
    6  A    between atoms: C_18  and  C_21
    7  A    between atoms: C_18  and  C_30
                            x       y       z     vdW  Elec       q    Type
                         _______ _______ _______ _____ _____    ______ ____

>  <TORSDO>
F 7

$$$$
=
 OpenBabel10222417013D

 30 33  0  0  1  0  0  0  0  0999 V2000
  190.5120  176.3250  138.9570 C   0  0  0  0  0  0  0  0  0  0  0  0
  191.1850  175.0080  137.1470 C   0  0  1  0  0  3  0  0  0  0  0  0
  189.7620  175.5080  136.8720 C   0  0  0  0  0  2  0  0  0  0  0  0
  192.0900  175.5280  136.1550 N   0  0  0  0  0  0  0  0  0  0  0  0
  190.5180  176.7660  140.1860 C   0  0  0  0  0  0  0  0  0  0  0  0
  194.1230  176.7660  135.7250 C   0  0  0  0  0  1  0  0  0  0  0  0
  191.5870  175.5790  138.4180 N   0  0  0  0  0  0  0  0  0  0  0  0
  189.2980  176.2780  138.1090 C   0  0  2  0  0  3  0  0  0  0  0  0
  190.5270  177.2070  141.4120 C   0  0  0  0  0  3  0  0  0  0  0  0
  193.2320  176.2220  138.4020 S   0  0  0  0  0  0  0  0  0  0  0  0
  193.1190  176.1300  136.6220 C   0  0  0  0  0  0  0  0  0  0  0  0
  189.4440  177.9960  141.8850 N   0  0  0  0  0  2  0  0  0  0  0  0
  188.1840  177.3750  142.2450 C   0  0  0  0  0  2  0  0  0  0  0  0
  186.4900  177.9600  145.5680 C   0  0  0  0  0  0  0  0  0  0  0  0
  186.6950  177.8550  144.1900 C   0  0  0  0  0  3  0  0  0  0  0  0
  187.5530  177.7160  146.4520 C   0  0  0  0  0  0  0  0  0  0  0  0
  187.9610  177.5210  143.7080 C   0  0  0  0  0  0  0  0  0  0  0  0
  188.9790  177.2800  144.5760 N   0  0  0  0  0  0  0  0  0  0  0  0
  188.8040  177.3710  145.9220 C   0  0  0  0  0  3  0  0  0  0  0  0
  184.3040  178.9460  144.9780 C   0  0  0  0  0  1  0  0  0  0  0  0
  185.1270  178.3000  146.0780 C   0  0  0  0  0  2  0  0  0  0  0  0
  187.3490  177.8160  147.8330 O   0  0  0  0  0  0  0  0  0  0  0  0
  188.3840  178.1750  148.7400 C   0  0  0  0  0  1  0  0  0  0  0  0
  188.8860  177.6810  137.6910 C   0  0  0  0  0  2  0  0  0  0  0  0
  184.9960  177.8880  137.9060 C   0  0  0  0  0  0  0  0  0  0  0  0
  186.2160  177.2960  136.9120 S   0  0  0  0  0  0  0  0  0  0  0  0
  183.5380  177.7460  137.6580 C   0  0  0  0  0  1  0  0  0  0  0  0
  186.9230  178.5130  139.0030 N   0  0  0  0  0  0  0  0  0  0  0  0
  185.5620  178.5240  139.0030 C   0  0  0  0  0  3  0  0  0  0  0  0
  187.4280  177.8860  137.9170 C   0  0  0  0  0  0  0  0  0  0  0  0
  1  5  2  0  0  0  0
  2  3  1  6  0  0  0
  2  7  1  0  0  0  0
  3  8  1  0  0  0  0
  4 11  2  0  0  0  0
  4  2  1  0  0  0  0
  5  9  2  0  0  0  0
  6 11  1  0  0  0  0
  7  1  1  0  0  0  0
  8 24  1  6  0  0  0
  8  1  1  0  0  0  0
  9 12  1  0  0  0  0
 10  7  1  0  0  0  0
 11 10  1  0  0  0  0
 12 13  1  0  0  0  0
 13 17  1  0  0  0  0
 14 21  1  0  0  0  0
 14 16  1  0  0  0  0
 15 14  2  0  0  0  0
 16 22  1  0  0  0  0
 17 15  1  0  0  0  0
 17 18  2  0  0  0  0
 18 19  1  0  0  0  0
 19 16  2  0  0  0  0
 20 21  1  0  0  0  0
 22 23  1  0  0  0  0
 24 30  1  0  0  0  0
 25 29  2  0  0  0  0
 26 25  1  0  0  0  0
 26 30  1  0  0  0  0
 27 25  1  0  0  0  0
 29 28  1  0  0  0  0
 30 28  2  0  0  0  0
M  END
>  <MODEL>
2

>  <REMARK>
 VINA RESULT:      -7.9      2.058      5.255
  Name = 
  7 active torsions:
  status: ('A' for Active; 'I' for Inactive)
    1  A    between atoms: C_2  and  C_28
    2  A    between atoms: N_4  and  C_23
    3  A    between atoms: N_4  and  C_26
    4  A    between atoms: C_5  and  O_14
    5  A    between atoms: C_7  and  C_26
    6  A    between atoms: C_18  and  C_21
    7  A    between atoms: C_18  and  C_30
                            x       y       z     vdW  Elec       q    Type
                         _______ _______ _______ _____ _____    ______ ____

>  <TORSDO>
F 7

$$$$
=
 OpenBabel10222417013D

 30 33  0  0  1  0  0  0  0  0999 V2000
  188.2410  177.9010  138.3700 C   0  0  0  0  0  0  0  0  0  0  0  0
  187.5380  178.2910  136.1760 C   0  0  1  0  0  3  0  0  0  0  0  0
  188.9010  177.5910  136.1240 C   0  0  0  0  0  2  0  0  0  0  0  0
  186.5330  177.4600  135.5650 N   0  0  0  0  0  2  0  0  0  0  0  0
  188.2890  178.0790  139.6630 C   0  0  0  0  0  0  0  0  0  0  0  0
  184.3940  176.3590  135.8200 C   0  0  0  0  0  1  0  0  0  0  0  0
  187.1860  178.4110  137.5770 N   0  0  0  0  0  0  0  0  0  0  0  0
  189.3940  177.4380  137.5630 C   0  0  2  0  0  3  0  0  0  0  0  0
  188.3340  178.2560  140.9520 C   0  0  0  0  0  3  0  0  0  0  0  0
  185.5030  177.9900  137.9090 S   0  0  0  0  0  0  0  0  0  0  0  0
  185.4990  177.2400  136.2890 C   0  0  1  0  0  3  0  0  0  0  0  0
  189.3900  177.6760  141.7080 N   0  0  0  0  0  2  0  0  0  0  0  0
  189.1550  176.4930  142.5130 C   0  0  0  0  0  2  0  0  0  0  0  0
  187.0200  177.5280  145.4500 C   0  0  0  0  0  0  0  0  0  0  0  0
  187.4000  177.1740  144.1540 C   0  0  0  0  0  3  0  0  0  0  0  0
  187.9850  177.5920  146.4680 C   0  0  0  0  0  0  0  0  0  0  0  0
  188.7420  176.9020  143.8820 C   0  0  0  0  0  0  0  0  0  0  0  0
  189.6640  176.9610  144.8790 N   0  0  0  0  0  0  0  0  0  0  0  0
  189.3190  177.2980  146.1500 C   0  0  0  0  0  3  0  0  0  0  0  0
  185.2400  179.2390  145.3990 C   0  0  0  0  0  1  0  0  0  0  0  0
  185.5790  177.7990  145.7370 C   0  0  0  0  0  2  0  0  0  0  0  0
  187.6050  177.9420  147.7690 O   0  0  0  0  0  0  0  0  0  0  0  0
  188.5460  178.1570  148.8140 C   0  0  0  0  0  1  0  0  0  0  0  0
  189.6780  175.9680  137.8340 C   0  0  0  0  0  2  0  0  0  0  0  0
  193.4320  174.9310  137.6120 C   0  0  0  0  0  0  0  0  0  0  0  0
  191.9010  174.3750  137.1980 S   0  0  0  0  0  0  0  0  0  0  0  0
  194.7100  174.2300  137.3240 C   0  0  0  0  0  1  0  0  0  0  0  0
  192.0380  176.5900  138.3920 N   0  0  0  0  0  0  0  0  0  0  0  0
  193.3200  176.1550  138.2560 C   0  0  0  0  0  3  0  0  0  0  0  0
  191.1460  175.7180  137.8710 C   0  0  0  0  0  0  0  0  0  0  0  0
  1  5  2  0  0  0  0
  2  3  1  1  0  0  0
  2  7  1  0  0  0  0
  3  8  1  0  0  0  0
  4  2  1  0  0  0  0
  4 11  1  0  0  0  0
  5  9  2  0  0  0  0
  7 10  1  0  0  0  0
  7  1  1  0  0  0  0
  8 24  1  1  0  0  0
  8  1  1  0  0  0  0
  9 12  1  0  0  0  0
 11  6  1  1  0  0  0
 11 10  1  0  0  0  0
 12 13  1  0  0  0  0
 13 17  1  0  0  0  0
 14 21  1  0  0  0  0
 14 16  1  0  0  0  0
 15 14  2  0  0  0  0
 16 22  1  0  0  0  0
 17 15  1  0  0  0  0
 17 18  2  0  0  0  0
 18 19  1  0  0  0  0
 19 16  2  0  0  0  0
 20 21  1  0  0  0  0
 22 23  1  0  0  0  0
 24 30  1  0  0  0  0
 25 29  2  0  0  0  0
 26 25  1  0  0  0  0
 26 30  1  0  0  0  0
 27 25  1  0  0  0  0
 29 28  1  0  0  0  0
 30 28  2  0  0  0  0
M  END
>  <MODEL>
3

>  <REMARK>
 VINA RESULT:      -7.8      1.559      2.071
  Name = 
  7 active torsions:
  status: ('A' for Active; 'I' for Inactive)
    1  A    between atoms: C_2  and  C_28
    2  A    between atoms: N_4  and  C_23
    3  A    between atoms: N_4  and  C_26
    4  A    between atoms: C_5  and  O_14
    5  A    between atoms: C_7  and  C_26
    6  A    between atoms: C_18  and  C_21
    7  A    between atoms: C_18  and  C_30
                            x       y       z     vdW  Elec       q    Type
                         _______ _______ _______ _____ _____    ______ ____

>  <TORSDO>
F 7

$$$$
=
 OpenBabel10222417013D

 30 33  0  0  1  0  0  0  0  0999 V2000
  189.5650  177.4450  138.9210 C   0  0  0  0  0  0  0  0  0  0  0  0
  191.8110  176.9550  138.5000 C   0  0  1  0  0  3  0  0  0  0  0  0
  191.6290  177.0990  140.0150 C   0  0  0  0  0  2  0  0  0  0  0  0
  192.2240  175.6140  138.1780 N   0  0  0  0  0  0  0  0  0  0  0  0
  188.3600  177.8730  138.6520 C   0  0  0  0  0  0  0  0  0  0  0  0
  191.7760  173.6160  136.8900 C   0  0  0  0  0  1  0  0  0  0  0  0
  190.5020  177.1420  137.9050 N   0  0  0  0  0  0  0  0  0  0  0  0
  190.1810  177.5220  140.2660 C   0  0  2  0  0  3  0  0  0  0  0  0
  187.1590  178.2980  138.3830 C   0  0  0  0  0  3  0  0  0  0  0  0
  190.1370  175.9620  136.6430 S   0  0  0  0  0  0  0  0  0  0  0  0
  191.5080  175.0230  137.2950 C   0  0  0  0  0  0  0  0  0  0  0  0
  186.2410  178.5360  139.4410 N   0  0  0  0  0  2  0  0  0  0  0  0
  186.7020  178.6010  140.8140 C   0  0  0  0  0  2  0  0  0  0  0  0
  184.6150  178.6710  143.9600 C   0  0  0  0  0  0  0  0  0  0  0  0
  185.7240  178.6430  143.1110 C   0  0  0  0  0  3  0  0  0  0  0  0
  183.3200  178.6690  143.4170 C   0  0  0  0  0  0  0  0  0  0  0  0
  185.5300  178.5980  141.7300 C   0  0  0  0  0  0  0  0  0  0  0  0
  184.2710  178.6050  141.2180 N   0  0  0  0  0  0  0  0  0  0  0  0
  183.1750  178.6370  142.0230 C   0  0  0  0  0  3  0  0  0  0  0  0
  186.2440  178.3020  145.7790 C   0  0  0  0  0  1  0  0  0  0  0  0
  184.8310  178.7380  145.4370 C   0  0  0  0  0  2  0  0  0  0  0  0
  182.2080  178.7020  144.2660 O   0  0  0  0  0  0  0  0  0  0  0  0
  180.8770  178.8390  143.7850 C   0  0  0  0  0  1  0  0  0  0  0  0
  189.5300  176.5210  141.2090 C   0  0  0  0  0  2  0  0  0  0  0  0
  190.8290  176.9820  144.8580 C   0  0  0  0  0  0  0  0  0  0  0  0
  191.0050  175.9640  143.5320 S   0  0  0  0  0  0  0  0  0  0  0  0
  191.5530  176.8490  146.1480 C   0  0  0  0  0  1  0  0  0  0  0  0
  189.3890  177.8850  143.3030 N   0  0  0  0  0  0  0  0  0  0  0  0
  189.9080  177.9760  144.5570 C   0  0  0  0  0  3  0  0  0  0  0  0
  189.8840  176.8270  142.6220 C   0  0  0  0  0  0  0  0  0  0  0  0
  1  8  1  0  0  0  0
  2  3  1  1  0  0  0
  3  8  1  0  0  0  0
  4  2  1  0  0  0  0
  5  1  2  0  0  0  0
  6 11  1  0  0  0  0
  7  2  1  0  0  0  0
  7  1  1  0  0  0  0
  8 24  1  1  0  0  0
  9  5  2  0  0  0  0
  9 12  1  0  0  0  0
 10 11  1  0  0  0  0
 10  7  1  0  0  0  0
 11  4  2  0  0  0  0
 12 13  1  0  0  0  0
 13 17  1  0  0  0  0
 14 21  1  0  0  0  0
 15 14  2  0  0  0  0
 16 14  1  0  0  0  0
 16 22  1  0  0  0  0
 17 15  1  0  0  0  0
 18 17  2  0  0  0  0
 18 19  1  0  0  0  0
 19 16  2  0  0  0  0
 21 20  1  0  0  0  0
 23 22  1  0  0  0  0
 24 30  1  0  0  0  0
 25 27  1  0  0  0  0
 26 25  1  0  0  0  0
 28 29  1  0  0  0  0
 29 25  2  0  0  0  0
 30 28  2  0  0  0  0
 30 26  1  0  0  0  0
M  END
>  <MODEL>
4

>  <REMARK>
 VINA RESULT:      -7.8      3.583      6.360
  Name = 
  7 active torsions:
  status: ('A' for Active; 'I' for Inactive)
    1  A    between atoms: C_2  and  C_28
    2  A    between atoms: N_4  and  C_23
    3  A    between atoms: N_4  and  C_26
    4  A    between atoms: C_5  and  O_14
    5  A    between atoms: C_7  and  C_26
    6  A    between atoms: C_18  and  C_21
    7  A    between atoms: C_18  and  C_30
                            x       y       z     vdW  Elec       q    Type
                         _______ _______ _______ _____ _____    ______ ____

>  <TORSDO>
F 7

$$$$
=
 OpenBabel10222417013D

 30 33  0  0  1  0  0  0  0  0999 V2000
  184.8730  178.9830  142.2420 C   0  0  0  0  0  0  0  0  0  0  0  0
  184.2250  179.0550  139.9980 C   0  0  1  0  0  3  0  0  0  0  0  0
  185.7570  179.0140  140.0520 C   0  0  0  0  0  2  0  0  0  0  0  0
  183.7240  177.8770  139.3380 N   0  0  0  0  0  0  0  0  0  0  0  0
  184.7490  179.1500  143.5310 C   0  0  0  0  0  0  0  0  0  0  0  0
  182.2610  175.9550  139.4690 C   0  0  0  0  0  1  0  0  0  0  0  0
  183.7590  178.9940  141.3690 N   0  0  0  0  0  0  0  0  0  0  0  0
  186.1660  179.0750  141.5240 C   0  0  2  0  0  3  0  0  0  0  0  0
  184.6240  179.3140  144.8170 C   0  0  0  0  0  3  0  0  0  0  0  0
  182.4070  177.8820  141.5960 S   0  0  0  0  0  0  0  0  0  0  0  0
  182.8400  177.2230  139.9940 C   0  0  0  0  0  0  0  0  0  0  0  0
  185.7720  179.2410  145.6530 N   0  0  0  0  0  2  0  0  0  0  0  0
  185.9810  178.0940  146.5150 C   0  0  0  0  0  2  0  0  0  0  0  0
  189.5590  177.5300  145.4480 C   0  0  0  0  0  0  0  0  0  0  0  0
  188.1910  177.8080  145.3890 C   0  0  0  0  0  3  0  0  0  0  0  0
  190.1570  177.2290  146.6820 C   0  0  0  0  0  0  0  0  0  0  0  0
  187.4310  177.7690  146.5590 C   0  0  0  0  0  0  0  0  0  0  0  0
  188.0260  177.4830  147.7480 N   0  0  0  0  0  0  0  0  0  0  0  0
  189.3570  177.2130  147.8330 C   0  0  0  0  0  3  0  0  0  0  0  0
  190.8780  179.0050  143.9700 C   0  0  0  0  0  1  0  0  0  0  0  0
  190.3690  177.5930  144.1940 C   0  0  0  0  0  2  0  0  0  0  0  0
  191.5280  176.9550  146.7440 O   0  0  0  0  0  0  0  0  0  0  0  0
  192.0520  175.7830  147.3560 C   0  0  0  0  0  1  0  0  0  0  0  0
  187.0390  177.8700  141.8430 C   0  0  0  0  0  2  0  0  0  0  0  0
  190.2280  177.2950  139.6710 C   0  0  0  0  0  0  0  0  0  0  0  0
  189.5020  176.7520  141.0870 S   0  0  0  0  0  0  0  0  0  0  0  0
  191.5100  176.7910  139.1140 C   0  0  0  0  0  1  0  0  0  0  0  0
  188.3060  178.5590  139.7970 N   0  0  0  0  0  0  0  0  0  0  0  0
  189.4390  178.2810  139.0960 C   0  0  0  0  0  3  0  0  0  0  0  0
  188.2050  177.8100  140.9180 C   0  0  0  0  0  0  0  0  0  0  0  0
  1  5  2  0  0  0  0
  2  3  1  1  0  0  0
  2  7  1  0  0  0  0
  3  8  1  0  0  0  0
  4 11  2  0  0  0  0
  4  2  1  0  0  0  0
  5  9  2  0  0  0  0
  6 11  1  0  0  0  0
  7 10  1  0  0  0  0
  7  1  1  0  0  0  0
  8 24  1  1  0  0  0
  8  1  1  0  0  0  0
  9 12  1  0  0  0  0
 11 10  1  0  0  0  0
 12 13  1  0  0  0  0
 13 17  1  0  0  0  0
 14 16  1  0  0  0  0
 15 14  2  0  0  0  0
 15 17  1  0  0  0  0
 16 22  1  0  0  0  0
 16 19  2  0  0  0  0
 17 18  2  0  0  0  0
 18 19  1  0  0  0  0
 20 21  1  0  0  0  0
 21 14  1  0  0  0  0
 22 23  1  0  0  0  0
 25 26  1  0  0  0  0
 27 25  1  0  0  0  0
 28 30  2  0  0  0  0
 29 25  2  0  0  0  0
 29 28  1  0  0  0  0
 30 26  1  0  0  0  0
 30 24  1  0  0  0  0
M  END
>  <MODEL>
5

>  <REMARK>
 VINA RESULT:      -7.6      3.074      4.387
  Name = 
  7 active torsions:
  status: ('A' for Active; 'I' for Inactive)
    1  A    between atoms: C_2  and  C_28
    2  A    between atoms: N_4  and  C_23
    3  A    between atoms: N_4  and  C_26
    4  A    between atoms: C_5  and  O_14
    5  A    between atoms: C_7  and  C_26
    6  A    between atoms: C_18  and  C_21
    7  A    between atoms: C_18  and  C_30
                            x       y       z     vdW  Elec       q    Type
                         _______ _______ _______ _____ _____    ______ ____

>  <TORSDO>
F 7

$$$$
=
 OpenBabel10222417013D

 30 33  0  0  1  0  0  0  0  0999 V2000
  188.7280  177.9570  140.9320 C   0  0  0  0  0  0  0  0  0  0  0  0
  190.7760  177.5000  139.9050 C   0  0  1  0  0  3  0  0  0  0  0  0
  190.9270  177.2420  141.4080 C   0  0  0  0  0  2  0  0  0  0  0  0
  190.9750  176.2760  139.1720 N   0  0  0  0  0  0  0  0  0  0  0  0
  187.5430  178.4940  141.0590 C   0  0  0  0  0  0  0  0  0  0  0  0
  190.0700  174.7150  137.5610 C   0  0  0  0  0  1  0  0  0  0  0  0
  189.3980  177.8960  139.6870 N   0  0  0  0  0  0  0  0  0  0  0  0
  189.6130  177.6460  142.0780 C   0  0  2  0  0  3  0  0  0  0  0  0
  186.3620  179.0280  141.1830 C   0  0  0  0  0  3  0  0  0  0  0  0
  188.6620  177.1120  138.2870 S   0  0  0  0  0  0  0  0  0  0  0  0
  190.0360  175.9740  138.3550 C   0  0  0  0  0  0  0  0  0  0  0  0
  185.7110  179.0160  142.4470 N   0  0  0  0  0  2  0  0  0  0  0  0
  184.7670  177.9660  142.7780 C   0  0  0  0  0  2  0  0  0  0  0  0
  181.5560  178.6670  140.9190 C   0  0  0  0  0  0  0  0  0  0  0  0
  182.8640  178.2570  141.1880 C   0  0  0  0  0  3  0  0  0  0  0  0
  180.7780  179.2340  141.9410 C   0  0  0  0  0  0  0  0  0  0  0  0
  183.3880  178.4280  142.4700 C   0  0  0  0  0  0  0  0  0  0  0  0
  182.6200  178.9720  143.4520 N   0  0  0  0  0  0  0  0  0  0  0  0
  181.3430  179.3750  143.2170 C   0  0  0  0  0  3  0  0  0  0  0  0
  180.4920  177.0390  139.3970 C   0  0  0  0  0  1  0  0  0  0  0  0
  180.9970  178.4630  139.5490 C   0  0  0  0  0  2  0  0  0  0  0  0
  179.4660  179.6420  141.6760 O   0  0  0  0  0  0  0  0  0  0  0  0
  179.0970  181.0080  141.5430 C   0  0  0  0  0  1  0  0  0  0  0  0
  189.0720  176.4590  142.8620 C   0  0  0  0  0  2  0  0  0  0  0  0
  188.7840  177.5610  146.5930 C   0  0  0  0  0  0  0  0  0  0  0  0
  189.9350  177.1100  145.4540 S   0  0  0  0  0  0  0  0  0  0  0  0
  189.0710  177.9620  147.9940 C   0  0  0  0  0  1  0  0  0  0  0  0
  187.5250  177.1200  144.7150 N   0  0  0  0  0  0  0  0  0  0  0  0
  187.5210  177.5110  146.0180 C   0  0  0  0  0  3  0  0  0  0  0  0
  188.7720  176.8540  144.2660 C   0  0  0  0  0  0  0  0  0  0  0  0
  1  5  2  0  0  0  0
  1  8  1  0  0  0  0
  2  3  1  1  0  0  0
  3  8  1  0  0  0  0
  4  2  1  0  0  0  0
  5  9  2  0  0  0  0
  6 11  1  0  0  0  0
  7  2  1  0  0  0  0
  7  1  1  0  0  0  0
  8 24  1  6  0  0  0
  9 12  1  0  0  0  0
 10 11  1  0  0  0  0
 10  7  1  0  0  0  0
 11  4  2  0  0  0  0
 12 13  1  0  0  0  0
 14 15  2  0  0  0  0
 14 16  1  0  0  0  0
 15 17  1  0  0  0  0
 16 19  2  0  0  0  0
 17 13  1  0  0  0  0
 17 18  2  0  0  0  0
 19 18  1  0  0  0  0
 20 21  1  0  0  0  0
 21 14  1  0  0  0  0
 22 16  1  0  0  0  0
 23 22  1  0  0  0  0
 24 30  1  0  0  0  0
 25 27  1  0  0  0  0
 26 25  1  0  0  0  0
 28 29  1  0  0  0  0
 29 25  2  0  0  0  0
 30 28  2  0  0  0  0
 30 26  1  0  0  0  0
M  END
>  <MODEL>
6

>  <REMARK>
 VINA RESULT:      -7.6      4.975      8.247
  Name = 
  7 active torsions:
  status: ('A' for Active; 'I' for Inactive)
    1  A    between atoms: C_2  and  C_28
    2  A    between atoms: N_4  and  C_23
    3  A    between atoms: N_4  and  C_26
    4  A    between atoms: C_5  and  O_14
    5  A    between atoms: C_7  and  C_26
    6  A    between atoms: C_18  and  C_21
    7  A    between atoms: C_18  and  C_30
                            x       y       z     vdW  Elec       q    Type
                         _______ _______ _______ _____ _____    ______ ____

>  <TORSDO>
F 7

$$$$
=
 OpenBabel10222417013D

 30 33  0  0  1  0  0  0  0  0999 V2000
  184.1760  178.0220  139.5820 C   0  0  0  0  0  0  0  0  0  0  0  0
  183.9500  177.3990  137.3410 C   0  0  1  0  0  3  0  0  0  0  0  0
  185.2840  178.1370  137.5000 C   0  0  0  0  0  2  0  0  0  0  0  0
  184.1850  176.0390  136.9280 N   0  0  0  0  0  0  0  0  0  0  0  0
  183.7780  178.3100  140.7920 C   0  0  0  0  0  0  0  0  0  0  0  0
  183.8110  173.6940  137.3880 C   0  0  0  0  0  1  0  0  0  0  0  0
  183.3510  177.3350  138.6600 N   0  0  0  0  0  0  0  0  0  0  0  0
  185.3680  178.6290  138.9450 C   0  0  2  0  0  3  0  0  0  0  0  0
  183.3800  178.5950  141.9990 C   0  0  0  0  0  3  0  0  0  0  0  0
  182.6730  175.7500  139.0400 S   0  0  0  0  0  0  0  0  0  0  0  0
  183.6230  175.1470  137.6550 C   0  0  0  0  0  0  0  0  0  0  0  0
  184.2690  179.2390  142.9020 N   0  0  0  0  0  2  0  0  0  0  0  0
  183.9100  179.4030  144.2970 C   0  0  0  0  0  2  0  0  0  0  0  0
  187.1110  177.7200  145.3820 C   0  0  0  0  0  0  0  0  0  0  0  0
  186.0870  178.2120  144.5690 C   0  0  0  0  0  3  0  0  0  0  0  0
  187.0340  177.8810  146.7750 C   0  0  0  0  0  0  0  0  0  0  0  0
  184.9900  178.8470  145.1540 C   0  0  0  0  0  0  0  0  0  0  0  0
  184.9330  179.0020  146.5030 N   0  0  0  0  0  0  0  0  0  0  0  0
  185.9190  178.5360  147.3170 C   0  0  0  0  0  3  0  0  0  0  0  0
  189.3740  178.0830  144.4630 C   0  0  0  0  0  1  0  0  0  0  0  0
  188.2910  177.0590  144.7470 C   0  0  0  0  0  2  0  0  0  0  0  0
  188.0610  177.3930  147.5920 O   0  0  0  0  0  0  0  0  0  0  0  0
  188.8110  178.2270  148.4660 C   0  0  0  0  0  1  0  0  0  0  0  0
  186.6420  178.0900  139.5770 C   0  0  0  0  0  2  0  0  0  0  0  0
  189.3340  177.2340  136.8860 C   0  0  0  0  0  0  0  0  0  0  0  0
  188.2880  176.4830  137.9660 S   0  0  0  0  0  0  0  0  0  0  0  0
  190.2470  176.5360  135.9450 C   0  0  0  0  0  1  0  0  0  0  0  0
  188.2940  179.0030  137.9330 N   0  0  0  0  0  0  0  0  0  0  0  0
  189.2060  178.6110  137.0020 C   0  0  0  0  0  3  0  0  0  0  0  0
  187.7150  177.9510  138.5530 C   0  0  0  0  0  0  0  0  0  0  0  0
  1  5  2  0  0  0  0
  2  3  1  1  0  0  0
  2  7  1  0  0  0  0
  3  8  1  0  0  0  0
  4  2  1  0  0  0  0
  4 11  2  0  0  0  0
  5  9  2  0  0  0  0
  6 11  1  0  0  0  0
  7 10  1  0  0  0  0
  7  1  1  0  0  0  0
  8 24  1  1  0  0  0
  8  1  1  0  0  0  0
  9 12  1  0  0  0  0
 11 10  1  0  0  0  0
 12 13  1  0  0  0  0
 13 17  1  0  0  0  0
 14 16  1  0  0  0  0
 15 17  1  0  0  0  0
 15 14  2  0  0  0  0
 16 19  2  0  0  0  0
 16 22  1  0  0  0  0
 17 18  2  0  0  0  0
 18 19  1  0  0  0  0
 20 21  1  0  0  0  0
 21 14  1  0  0  0  0
 22 23  1  0  0  0  0
 25 29  2  0  0  0  0
 25 26  1  0  0  0  0
 26 30  1  0  0  0  0
 27 25  1  0  0  0  0
 28 30  2  0  0  0  0
 29 28  1  0  0  0  0
 30 24  1  0  0  0  0
M  END
>  <MODEL>
7

>  <REMARK>
 VINA RESULT:      -7.3      3.122      4.503
  Name = 
  7 active torsions:
  status: ('A' for Active; 'I' for Inactive)
    1  A    between atoms: C_2  and  C_28
    2  A    between atoms: N_4  and  C_23
    3  A    between atoms: N_4  and  C_26
    4  A    between atoms: C_5  and  O_14
    5  A    between atoms: C_7  and  C_26
    6  A    between atoms: C_18  and  C_21
    7  A    between atoms: C_18  and  C_30
                            x       y       z     vdW  Elec       q    Type
                         _______ _______ _______ _____ _____    ______ ____

>  <TORSDO>
F 7

$$$$
=
 OpenBabel10222417013D

 30 33  0  0  1  0  0  0  0  0999 V2000
  186.2560  177.9120  143.1630 C   0  0  0  0  0  0  0  0  0  0  0  0
  186.9420  176.7500  145.0700 C   0  0  1  0  0  3  0  0  0  0  0  0
  188.0450  176.6270  144.0130 C   0  0  0  0  0  2  0  0  0  0  0  0
  187.4420  177.4560  146.2230 N   0  0  0  0  0  2  0  0  0  0  0  0
  185.4090  178.4650  142.3350 C   0  0  0  0  0  0  0  0  0  0  0  0
  187.1450  179.3210  147.7340 C   0  0  0  0  0  1  0  0  0  0  0  0
  185.9030  177.5790  144.4920 N   0  0  0  0  0  0  0  0  0  0  0  0
  187.5370  177.3000  142.7380 C   0  0  2  0  0  3  0  0  0  0  0  0
  184.5650  179.0170  141.5120 C   0  0  0  0  0  3  0  0  0  0  0  0
  185.2840  178.7990  145.6090 S   0  0  0  0  0  0  0  0  0  0  0  0
  186.7350  178.4590  146.5910 C   0  0  1  0  0  3  0  0  0  0  0  0
  184.9880  179.3790  140.2040 N   0  0  0  0  0  2  0  0  0  0  0  0
  184.0750  179.2790  139.0820 C   0  0  0  0  0  2  0  0  0  0  0  0
  185.5950  176.4400  137.1120 C   0  0  0  0  0  0  0  0  0  0  0  0
  185.4250  177.6910  137.7080 C   0  0  0  0  0  3  0  0  0  0  0  0
  184.5950  175.4630  137.2430 C   0  0  0  0  0  0  0  0  0  0  0  0
  184.2530  177.9620  138.4160 C   0  0  0  0  0  0  0  0  0  0  0  0
  183.2970  177.0040  138.5410 N   0  0  0  0  0  0  0  0  0  0  0  0
  183.4400  175.7750  137.9740 C   0  0  0  0  0  3  0  0  0  0  0  0
  187.1860  177.2960  135.4290 C   0  0  0  0  0  1  0  0  0  0  0  0
  186.8600  176.1520  136.3710 C   0  0  0  0  0  2  0  0  0  0  0  0
  184.7640  174.2060  136.6510 O   0  0  0  0  0  0  0  0  0  0  0  0
  185.0080  173.0260  137.4050 C   0  0  0  0  0  1  0  0  0  0  0  0
  188.5280  178.3760  142.3190 C   0  0  0  0  0  2  0  0  0  0  0  0
  190.0960  177.3670  138.8920 C   0  0  0  0  0  0  0  0  0  0  0  0
  190.3100  177.1310  140.5420 S   0  0  0  0  0  0  0  0  0  0  0  0
  190.9270  176.7620  137.8200 C   0  0  0  0  0  1  0  0  0  0  0  0
  188.4100  178.6260  139.8310 N   0  0  0  0  0  0  0  0  0  0  0  0
  189.0120  178.2100  138.6840 C   0  0  0  0  0  3  0  0  0  0  0  0
  189.0130  178.1270  140.9330 C   0  0  0  0  0  0  0  0  0  0  0  0
  1  7  1  0  0  0  0
  2  3  1  6  0  0  0
  2  4  1  0  0  0  0
  4 11  1  0  0  0  0
  5  1  2  0  0  0  0
  7  2  1  0  0  0  0
  7 10  1  0  0  0  0
  8 24  1  1  0  0  0
  8  1  1  0  0  0  0
  8  3  1  0  0  0  0
  9  5  2  0  0  0  0
 10 11  1  0  0  0  0
 11  6  1  6  0  0  0
 12  9  1  0  0  0  0
 13 12  1  0  0  0  0
 14 16  2  0  0  0  0
 14 15  1  0  0  0  0
 15 17  2  0  0  0  0
 16 19  1  0  0  0  0
 17 18  1  0  0  0  0
 17 13  1  0  0  0  0
 19 18  2  0  0  0  0
 20 21  1  0  0  0  0
 21 14  1  0  0  0  0
 22 16  1  0  0  0  0
 22 23  1  0  0  0  0
 25 26  1  0  0  0  0
 26 30  1  0  0  0  0
 27 25  1  0  0  0  0
 28 30  2  0  0  0  0
 29 25  2  0  0  0  0
 29 28  1  0  0  0  0
 30 24  1  0  0  0  0
M  END
>  <MODEL>
8

>  <REMARK>
 VINA RESULT:      -7.3      3.892      8.485
  Name = 
  7 active torsions:
  status: ('A' for Active; 'I' for Inactive)
    1  A    between atoms: C_2  and  C_28
    2  A    between atoms: N_4  and  C_23
    3  A    between atoms: N_4  and  C_26
    4  A    between atoms: C_5  and  O_14
    5  A    between atoms: C_7  and  C_26
    6  A    between atoms: C_18  and  C_21
    7  A    between atoms: C_18  and  C_30
                            x       y       z     vdW  Elec       q    Type
                         _______ _______ _______ _____ _____    ______ ____

>  <TORSDO>
F 7

$$$$
=
 OpenBabel10222417013D

 30 33  0  0  1  0  0  0  0  0999 V2000
  189.2900  177.9800  143.0420 C   0  0  0  0  0  0  0  0  0  0  0  0
  190.7210  177.8770  144.8870 C   0  0  1  0  0  3  0  0  0  0  0  0
  189.2920  178.0840  145.4010 C   0  0  0  0  0  2  0  0  0  0  0  0
  191.2340  176.6130  145.3510 N   0  0  0  0  0  2  0  0  0  0  0  0
  188.9550  178.1660  141.7930 C   0  0  0  0  0  0  0  0  0  0  0  0
  192.2170  174.4880  144.7470 C   0  0  0  0  0  1  0  0  0  0  0  0
  190.6330  177.7860  143.4420 N   0  0  0  0  0  0  0  0  0  0  0  0
  188.3840  178.2550  144.1830 C   0  0  2  0  0  3  0  0  0  0  0  0
  188.6230  178.3490  140.5470 C   0  0  0  0  0  3  0  0  0  0  0  0
  191.6100  176.4790  142.7670 S   0  0  0  0  0  0  0  0  0  0  0  0
  191.6970  175.8470  144.4340 C   0  0  1  0  0  3  0  0  0  0  0  0
  187.2520  178.4870  140.1950 N   0  0  0  0  0  2  0  0  0  0  0  0
  186.8170  178.2530  138.8320 C   0  0  0  0  0  2  0  0  0  0  0  0
  183.1860  177.9540  137.8420 C   0  0  0  0  0  0  0  0  0  0  0  0
  184.5600  177.7160  137.9080 C   0  0  0  0  0  3  0  0  0  0  0  0
  182.6170  178.9830  138.6100 C   0  0  0  0  0  0  0  0  0  0  0  0
  185.3570  178.5160  138.7280 C   0  0  0  0  0  0  0  0  0  0  0  0
  184.7920  179.5040  139.4720 N   0  0  0  0  0  0  0  0  0  0  0  0
  183.4550  179.7530  139.4300 C   0  0  0  0  0  3  0  0  0  0  0  0
  182.6360  177.3480  135.5120 C   0  0  0  0  0  1  0  0  0  0  0  0
  182.3370  177.0810  136.9760 C   0  0  0  0  0  2  0  0  0  0  0  0
  181.2390  179.2200  138.5490 O   0  0  0  0  0  0  0  0  0  0  0  0
  180.6080  180.2760  139.2620 C   0  0  0  0  0  1  0  0  0  0  0  0
  187.2740  177.2160  144.2430 C   0  0  0  0  0  2  0  0  0  0  0  0
  183.7310  178.8370  144.0530 C   0  0  0  0  0  0  0  0  0  0  0  0
  184.9350  178.2180  143.0570 S   0  0  0  0  0  0  0  0  0  0  0  0
  182.4260  179.3770  143.5930 C   0  0  0  0  0  1  0  0  0  0  0  0
  185.3790  178.2150  145.5380 N   0  0  0  0  0  0  0  0  0  0  0  0
  184.1410  178.7570  145.3770 C   0  0  0  0  0  3  0  0  0  0  0  0
  185.9450  177.8790  144.3580 C   0  0  0  0  0  0  0  0  0  0  0  0
  1  7  1  0  0  0  0
  1  8  1  0  0  0  0
  2  4  1  0  0  0  0
  2  3  1  1  0  0  0
  5  1  2  0  0  0  0
  7  2  1  0  0  0  0
  8 24  1  1  0  0  0
  8  3  1  0  0  0  0
  9  5  2  0  0  0  0
 10  7  1  0  0  0  0
 10 11  1  0  0  0  0
 11  6  1  6  0  0  0
 11  4  1  0  0  0  0
 12  9  1  0  0  0  0
 13 12  1  0  0  0  0
 14 15  2  0  0  0  0
 14 16  1  0  0  0  0
 15 17  1  0  0  0  0
 16 19  2  0  0  0  0
 17 13  1  0  0  0  0
 17 18  2  0  0  0  0
 19 18  1  0  0  0  0
 20 21  1  0  0  0  0
 21 14  1  0  0  0  0
 22 16  1  0  0  0  0
 22 23  1  0  0  0  0
 24 30  1  0  0  0  0
 25 29  2  0  0  0  0
 26 25  1  0  0  0  0
 26 30  1  0  0  0  0
 27 25  1  0  0  0  0
 29 28  1  0  0  0  0
 30 28  2  0  0  0  0
M  END
>  <MODEL>
9

>  <REMARK>
 VINA RESULT:      -7.2      4.453      9.846
  Name = 
  7 active torsions:
  status: ('A' for Active; 'I' for Inactive)
    1  A    between atoms: C_2  and  C_28
    2  A    between atoms: N_4  and  C_23
    3  A    between atoms: N_4  and  C_26
    4  A    between atoms: C_5  and  O_14
    5  A    between atoms: C_7  and  C_26
    6  A    between atoms: C_18  and  C_21
    7  A    between atoms: C_18  and  C_30
                            x       y       z     vdW  Elec       q    Type
                         _______ _______ _______ _____ _____    ______ ____

>  <TORSDO>
F 7

$$$$
