=
 OpenBabel10222417493D

 53 58  0  0  1  0  0  0  0  0999 V2000
  182.8220  178.6290  140.4780 C   0  0  1  0  0  3  0  0  0  0  0  0
  181.2180  176.9100  139.8230 O   0  0  0  0  0  1  0  0  0  0  0  0
  181.5100  177.8940  140.7740 C   0  0  2  0  0  3  0  0  0  0  0  0
  180.3930  178.8200  140.9260 N   0  0  0  0  0  0  0  0  0  0  0  0
  180.1800  179.5050  142.1690 C   0  0  0  0  0  3  0  0  0  0  0  0
  180.7480  179.1080  143.3020 C   0  0  0  0  0  2  0  0  0  0  0  0
  179.5320  179.0630  139.7750 C   0  0  0  0  0  2  0  0  0  0  0  0
  179.9640  180.3230  139.0400 C   0  0  0  0  0  2  0  0  0  0  0  0
  178.9320  178.9510  137.1530 C   0  0  0  0  0  2  0  0  0  0  0  0
  180.4470  178.8770  136.9880 C   0  0  0  0  0  2  0  0  0  0  0  0
  179.7970  180.1300  137.5410 C   0  0  0  0  0  0  0  0  0  0  0  0
  180.0460  180.9920  135.1940 C   0  0  0  0  0  1  0  0  0  0  0  0
  179.7200  181.3670  136.6310 C   0  0  2  0  0  3  0  0  0  0  0  0
  180.5980  182.4410  137.0750 N   0  0  0  0  0  2  0  0  0  0  0  0
  179.7960  183.6470  137.1420 C   0  0  0  0  0  2  0  0  0  0  0  0
  180.6730  184.8220  137.4040 C   0  0  0  0  0  3  0  0  0  0  0  0
  181.6440  185.0280  136.6970 O   0  0  0  0  0  0  0  0  0  0  0  0
  183.8980  178.0380  141.2670 N   0  0  0  0  0  2  0  0  0  0  0  0
  185.6950  179.3750  141.7580 C   0  0  0  0  0  1  0  0  0  0  0  0
  184.3520  179.0080  142.1760 N   0  0  0  0  0  0  0  0  0  0  0  0
  184.4810  178.3730  143.4810 C   0  0  0  0  0  2  0  0  0  0  0  0
  185.1570  179.3280  144.4650 C   0  0  0  0  0  2  0  0  0  0  0  0
  185.3810  178.7160  145.8490 C   0  0  0  0  0  0  0  0  0  0  0  0
  184.1460  178.3100  146.3540 O   0  0  0  0  0  1  0  0  0  0  0  0
  185.9310  179.6680  146.7110 O   0  0  0  0  0  1  0  0  0  0  0  0
  186.3080  177.5040  145.7330 C   0  0  0  0  0  2  0  0  0  0  0  0
  191.4260  177.4740  144.7820 C   0  0  2  0  0  3  0  0  0  0  0  0
  191.6560  176.6490  143.6420 O   0  0  0  0  0  0  0  0  0  0  0  0
  189.3770  176.3560  144.2290 C   0  0  1  0  0  3  0  0  0  0  0  0
  187.9450  177.5520  142.6970 O   0  0  0  0  0  1  0  0  0  0  0  0
  187.6390  177.8440  145.0600 C   0  0  1  0  0  3  0  0  0  0  0  0
  188.8810  177.9660  145.9840 C   0  0  2  0  0  3  0  0  0  0  0  0
  189.9610  177.3740  145.1180 C   0  0  1  0  0  0  0  0  0  0  0  0
  187.9750  176.8670  143.9150 C   0  0  2  0  0  3  0  0  0  0  0  0
  190.4080  176.1840  143.1350 C   0  0  0  0  0  2  0  0  0  0  0  0
  190.5300  178.6150  144.3990 C   0  0  0  0  0  2  0  0  0  0  0  0
  188.7190  178.0910  148.4080 O   0  0  0  0  0  1  0  0  0  0  0  0
  188.7770  177.2150  147.3190 C   0  0  0  0  0  2  0  0  0  0  0  0
  183.1980  178.6530  138.9940 C   0  0  0  0  0  2  0  0  0  0  0  0
  184.4490  176.0240  136.9160 C   0  0  0  0  0  3  0  0  0  0  0  0
  187.7090  174.5350  136.4520 C   0  0  0  0  0  0  0  0  0  0  0  0
  189.3550  175.6440  137.7760 N   0  0  0  0  0  0  0  0  0  0  0  0
  184.1130  176.7410  137.7970 C   0  0  0  0  0  3  0  0  0  0  0  0
  184.4170  177.7870  138.7360 C   0  0  1  0  0  3  0  0  0  0  0  0
  188.5560  176.7280  137.9240 C   0  0  0  0  0  3  0  0  0  0  0  0
  185.4390  175.4940  136.0690 C   0  0  0  0  0  0  0  0  0  0  0  0
  187.3200  173.3540  135.7560 N   0  0  0  0  0  1  0  0  0  0  0  0
  188.9580  174.5630  137.0630 C   0  0  0  0  0  3  0  0  0  0  0  0
  186.6420  178.1360  137.4810 C   0  0  0  0  0  3  0  0  0  0  0  0
  185.4930  178.5870  138.0480 C   0  0  0  0  0  3  0  0  0  0  0  0
  186.8300  175.6350  136.5890 C   0  0  0  0  0  0  0  0  0  0  0  0
  185.1590  175.1430  134.8190 C   0  0  0  0  0  2  0  0  0  0  0  0
  187.2710  176.7710  137.3740 C   0  0  0  0  0  0  0  0  0  0  0  0
  1 39  1  6  0  0  0
  1  3  1  0  0  0  0
  1 18  1  0  0  0  0
  3  2  1  6  0  0  0
  3  4  1  0  0  0  0
  4  5  1  0  0  0  0
  5  6  2  0  0  0  0
  7  4  1  0  0  0  0
  8  7  1  0  0  0  0
  9 11  1  0  0  0  0
 10  9  1  0  0  0  0
 10 11  1  0  0  0  0
 11  8  1  0  0  0  0
 13 12  1  6  0  0  0
 13 14  1  0  0  0  0
 13 11  1  0  0  0  0
 14 15  1  0  0  0  0
 15 16  1  0  0  0  0
 17 16  2  0  0  0  0
 18 20  1  0  0  0  0
 19 20  1  0  0  0  0
 20 21  1  0  0  0  0
 21 22  1  0  0  0  0
 22 23  1  0  0  0  0
 23 24  1  0  0  0  0
 23 25  1  0  0  0  0
 26 23  1  0  0  0  0
 27 36  1  6  0  0  0
 27 33  1  0  0  0  0
 28 27  1  0  0  0  0
 29 35  1  6  0  0  0
 29 33  1  0  0  0  0
 31 26  1  1  0  0  0
 31 32  1  0  0  0  0
 32 38  1  1  0  0  0
 33 36  1  6  0  0  0
 33 32  1  0  0  0  0
 34 30  1  6  0  0  0
 34 29  1  0  0  0  0
 34 31  1  0  0  0  0
 35 28  1  0  0  0  0
 38 37  1  0  0  0  0
 40 43  2  0  0  0  0
 41 51  2  0  0  0  0
 41 48  1  0  0  0  0
 42 45  1  0  0  0  0
 43 44  1  0  0  0  0
 44 39  1  6  0  0  0
 46 51  1  0  0  0  0
 46 40  1  0  0  0  0
 47 41  1  0  0  0  0
 48 42  2  0  0  0  0
 49 50  2  0  0  0  0
 50 44  1  0  0  0  0
 51 53  1  0  0  0  0
 52 46  2  0  0  0  0
 53 49  1  0  0  0  0
 53 45  2  0  0  0  0
M  END
>  <MODEL>
1

>  <REMARK>
 VINA RESULT:      -7.5      0.000      0.000
  Name = 
  20 active torsions:
  status: ('A' for Active; 'I' for Inactive)
    1  A    between atoms: C_6  and  C_36
    2  A    between atoms: C_6  and  C_42
    3  A    between atoms: C_8  and  C_53
    4  A    between atoms: C_10  and  C_18
    5  A    between atoms: C_10  and  N_20
    6  A    between atoms: C_10  and  C_49
    7  A    between atoms: C_12  and  C_18
    8  A    between atoms: C_15  and  N_39
    9  A    between atoms: C_15  and  C_50
   10  A    between atoms: C_16  and  C_47
   11  A    between atoms: C_16  and  C_50
   12  A    between atoms: N_20  and  N_39
   13  A    between atoms: N_29  and  C_35
   14  A    between atoms: N_29  and  C_36
   15  A    between atoms: N_29  and  C_49
   16  A    between atoms: C_30  and  N_37
   17  A    between atoms: C_30  and  C_42
   18  A    between atoms: C_33  and  C_47
   19  A    between atoms: N_37  and  C_53
   20  A    between atoms: C_38  and  C_45
                            x       y       z     vdW  Elec       q    Type
                         _______ _______ _______ _____ _____    ______ ____

>  <TORSDO>
F 20

$$$$
=
 OpenBabel10222417493D

 53 58  0  0  1  0  0  0  0  0999 V2000
  188.2050  177.3830  138.5770 C   0  0  1  0  0  3  0  0  0  0  0  0
  187.5140  179.3140  137.2510 O   0  0  0  0  0  1  0  0  0  0  0  0
  187.1850  178.0030  137.6150 C   0  0  2  0  0  3  0  0  0  0  0  0
  185.8290  177.9360  138.1490 N   0  0  0  0  0  0  0  0  0  0  0  0
  184.8630  177.0450  137.5700 C   0  0  0  0  0  3  0  0  0  0  0  0
  185.1520  176.2640  136.5360 C   0  0  0  0  0  2  0  0  0  0  0  0
  185.4970  178.7590  139.3040 C   0  0  0  0  0  2  0  0  0  0  0  0
  184.0390  179.1910  139.2530 C   0  0  0  0  0  2  0  0  0  0  0  0
  183.8310  179.0730  141.7930 C   0  0  0  0  0  2  0  0  0  0  0  0
  184.0880  177.6540  141.2950 C   0  0  0  0  0  2  0  0  0  0  0  0
  183.2900  178.6290  140.4510 C   0  0  0  0  0  0  0  0  0  0  0  0
  181.4260  177.4790  139.2180 C   0  0  0  0  0  1  0  0  0  0  0  0
  181.7690  178.4270  140.3570 C   0  0  2  0  0  3  0  0  0  0  0  0
  181.0510  179.6830  140.1900 N   0  0  0  0  0  2  0  0  0  0  0  0
  179.7720  179.5350  140.8580 C   0  0  0  0  0  2  0  0  0  0  0  0
  179.5060  180.7290  141.7080 C   0  0  0  0  0  3  0  0  0  0  0  0
  179.9470  180.7800  142.8430 O   0  0  0  0  0  0  0  0  0  0  0  0
  188.7450  176.1610  137.9890 N   0  0  0  0  0  2  0  0  0  0  0  0
  189.4620  176.3490  135.8200 C   0  0  0  0  0  1  0  0  0  0  0  0
  189.8590  176.5110  137.2080 N   0  0  0  0  0  0  0  0  0  0  0  0
  190.9070  175.5300  137.4600 C   0  0  0  0  0  2  0  0  0  0  0  0
  192.2150  176.2390  137.8140 C   0  0  0  0  0  2  0  0  0  0  0  0
  193.4250  175.6940  137.0530 C   0  0  0  0  0  0  0  0  0  0  0  0
  194.2220  176.7720  136.6670 O   0  0  0  0  0  1  0  0  0  0  0  0
  193.0040  175.0110  135.9080 O   0  0  0  0  0  1  0  0  0  0  0  0
  194.2300  174.7640  137.9620 C   0  0  0  0  0  2  0  0  0  0  0  0
  198.1450  171.4950  136.9210 C   0  0  2  0  0  3  0  0  0  0  0  0
  197.6420  170.1640  137.0130 O   0  0  0  0  0  0  0  0  0  0  0  0
  195.9240  171.5840  137.8210 C   0  0  1  0  0  3  0  0  0  0  0  0
  194.1670  171.8110  136.1820 O   0  0  0  0  0  1  0  0  0  0  0  0
  195.1030  173.7840  137.1780 C   0  0  1  0  0  3  0  0  0  0  0  0
  196.6370  173.8730  137.4060 C   0  0  2  0  0  3  0  0  0  0  0  0
  197.0360  172.4230  137.3440 C   0  0  1  0  0  0  0  0  0  0  0  0
  194.6620  172.3210  137.3850 C   0  0  2  0  0  3  0  0  0  0  0  0
  196.2450  170.2040  137.2910 C   0  0  0  0  0  2  0  0  0  0  0  0
  197.3960  172.2390  135.8550 C   0  0  0  0  0  2  0  0  0  0  0  0
  198.0510  175.4750  138.5690 O   0  0  0  0  0  1  0  0  0  0  0  0
  197.0620  174.5010  138.7420 C   0  0  0  0  0  2  0  0  0  0  0  0
  189.3390  178.3320  138.9730 C   0  0  0  0  0  2  0  0  0  0  0  0
  187.8220  178.1360  142.2060 C   0  0  0  0  0  3  0  0  0  0  0  0
  189.0730  177.4240  145.5200 C   0  0  0  0  0  0  0  0  0  0  0  0
  191.3980  176.8910  145.4640 N   0  0  0  0  0  0  0  0  0  0  0  0
  188.4630  178.3920  141.2430 C   0  0  0  0  0  3  0  0  0  0  0  0
  189.6500  178.2080  140.4530 C   0  0  1  0  0  3  0  0  0  0  0  0
  191.3420  176.6300  144.1360 C   0  0  0  0  0  3  0  0  0  0  0  0
  187.6750  177.5110  143.4580 C   0  0  0  0  0  0  0  0  0  0  0  0
  187.9630  177.8860  146.2840 N   0  0  0  0  0  1  0  0  0  0  0  0
  190.3020  177.2830  146.1570 C   0  0  0  0  0  3  0  0  0  0  0  0
  190.2650  176.2450  142.0070 C   0  0  0  0  0  3  0  0  0  0  0  0
  190.0880  176.8040  140.7810 C   0  0  0  0  0  3  0  0  0  0  0  0
  188.9630  177.1790  144.1310 C   0  0  0  0  0  0  0  0  0  0  0  0
  186.5000  177.0400  143.8570 C   0  0  0  0  0  2  0  0  0  0  0  0
  190.1560  176.7820  143.4100 C   0  0  0  0  0  0  0  0  0  0  0  0
  1 39  1  6  0  0  0
  3  2  1  1  0  0  0
  3  4  1  0  0  0  0
  3  1  1  0  0  0  0
  4  7  1  0  0  0  0
  5  4  1  0  0  0  0
  6  5  2  0  0  0  0
  8  7  1  0  0  0  0
  8 11  1  0  0  0  0
 10  9  1  0  0  0  0
 11 10  1  0  0  0  0
 11  9  1  0  0  0  0
 13 12  1  6  0  0  0
 13 11  1  0  0  0  0
 14 13  1  0  0  0  0
 14 15  1  0  0  0  0
 15 16  1  0  0  0  0
 16 17  2  0  0  0  0
 18  1  1  0  0  0  0
 19 20  1  0  0  0  0
 20 21  1  0  0  0  0
 20 18  1  0  0  0  0
 21 22  1  0  0  0  0
 23 22  1  0  0  0  0
 23 26  1  0  0  0  0
 24 23  1  0  0  0  0
 25 23  1  0  0  0  0
 27 36  1  6  0  0  0
 27 28  1  0  0  0  0
 27 33  1  0  0  0  0
 28 35  1  0  0  0  0
 29 35  1  6  0  0  0
 31 34  1  0  0  0  0
 31 32  1  0  0  0  0
 31 26  1  1  0  0  0
 32 38  1  1  0  0  0
 33 36  1  6  0  0  0
 33 32  1  0  0  0  0
 33 29  1  0  0  0  0
 34 30  1  6  0  0  0
 34 29  1  0  0  0  0
 37 38  1  0  0  0  0
 40 46  1  0  0  0  0
 41 48  1  0  0  0  0
 41 47  1  0  0  0  0
 42 48  2  0  0  0  0
 43 40  2  0  0  0  0
 44 39  1  6  0  0  0
 44 50  1  0  0  0  0
 44 43  1  0  0  0  0
 45 42  1  0  0  0  0
 46 52  2  0  0  0  0
 46 51  1  0  0  0  0
 49 53  1  0  0  0  0
 50 49  2  0  0  0  0
 51 41  2  0  0  0  0
 53 51  1  0  0  0  0
 53 45  2  0  0  0  0
M  END
>  <MODEL>
2

>  <REMARK>
 VINA RESULT:      -7.1      4.904      8.880
  Name = 
  20 active torsions:
  status: ('A' for Active; 'I' for Inactive)
    1  A    between atoms: C_6  and  C_36
    2  A    between atoms: C_6  and  C_42
    3  A    between atoms: C_8  and  C_53
    4  A    between atoms: C_10  and  C_18
    5  A    between atoms: C_10  and  N_20
    6  A    between atoms: C_10  and  C_49
    7  A    between atoms: C_12  and  C_18
    8  A    between atoms: C_15  and  N_39
    9  A    between atoms: C_15  and  C_50
   10  A    between atoms: C_16  and  C_47
   11  A    between atoms: C_16  and  C_50
   12  A    between atoms: N_20  and  N_39
   13  A    between atoms: N_29  and  C_35
   14  A    between atoms: N_29  and  C_36
   15  A    between atoms: N_29  and  C_49
   16  A    between atoms: C_30  and  N_37
   17  A    between atoms: C_30  and  C_42
   18  A    between atoms: C_33  and  C_47
   19  A    between atoms: N_37  and  C_53
   20  A    between atoms: C_38  and  C_45
                            x       y       z     vdW  Elec       q    Type
                         _______ _______ _______ _____ _____    ______ ____

>  <TORSDO>
F 20

$$$$
=
 OpenBabel10222417493D

 53 58  0  0  1  0  0  0  0  0999 V2000
  187.9740  177.5750  138.4370 C   0  0  1  0  0  3  0  0  0  0  0  0
  187.3040  179.4250  136.9910 O   0  0  0  0  0  1  0  0  0  0  0  0
  186.9880  178.1240  137.3990 C   0  0  2  0  0  3  0  0  0  0  0  0
  185.6090  178.0470  137.8700 N   0  0  0  0  0  0  0  0  0  0  0  0
  184.6160  177.3550  137.0980 C   0  0  0  0  0  3  0  0  0  0  0  0
  184.3890  176.0550  137.2380 C   0  0  0  0  0  2  0  0  0  0  0  0
  185.2800  178.6480  139.1560 C   0  0  0  0  0  2  0  0  0  0  0  0
  183.9250  179.3380  139.0930 C   0  0  0  0  0  2  0  0  0  0  0  0
  183.6860  178.6530  141.5390 C   0  0  0  0  0  2  0  0  0  0  0  0
  183.3900  177.4180  140.6940 C   0  0  0  0  0  2  0  0  0  0  0  0
  183.0190  178.7980  140.1880 C   0  0  0  0  0  0  0  0  0  0  0  0
  180.9790  179.1600  141.6110 C   0  0  0  0  0  1  0  0  0  0  0  0
  181.5340  179.1970  140.1960 C   0  0  2  0  0  3  0  0  0  0  0  0
  180.7280  178.3530  139.3240 N   0  0  0  0  0  2  0  0  0  0  0  0
  180.4180  179.1330  138.1420 C   0  0  0  0  0  2  0  0  0  0  0  0
  180.9370  178.4400  136.9310 C   0  0  0  0  0  3  0  0  0  0  0  0
  181.3010  179.0890  135.9650 O   0  0  0  0  0  0  0  0  0  0  0  0
  188.5570  176.3320  137.9410 N   0  0  0  0  0  2  0  0  0  0  0  0
  187.7420  175.0810  136.2010 C   0  0  0  0  0  1  0  0  0  0  0  0
  188.4230  176.3190  136.5430 N   0  0  0  0  0  0  0  0  0  0  0  0
  189.7590  176.2330  135.9660 C   0  0  0  0  0  2  0  0  0  0  0  0
  190.8120  176.2590  137.0750 C   0  0  0  0  0  2  0  0  0  0  0  0
  191.7390  175.0430  137.0600 C   0  0  0  0  0  0  0  0  0  0  0  0
  191.8880  174.6210  135.7380 O   0  0  0  0  0  1  0  0  0  0  0  0
  191.1770  174.0030  137.8060 O   0  0  0  0  0  1  0  0  0  0  0  0
  193.1050  175.4290  137.6300 C   0  0  0  0  0  2  0  0  0  0  0  0
  197.6810  173.9140  135.6650 C   0  0  2  0  0  3  0  0  0  0  0  0
  198.5220  173.5320  136.7520 O   0  0  0  0  0  0  0  0  0  0  0  0
  196.5950  174.5250  137.7130 C   0  0  1  0  0  3  0  0  0  0  0  0
  195.1410  172.8350  138.6400 O   0  0  0  0  0  1  0  0  0  0  0  0
  194.2230  174.4920  137.1670 C   0  0  1  0  0  3  0  0  0  0  0  0
  195.0180  174.9200  135.9040 C   0  0  2  0  0  3  0  0  0  0  0  0
  196.4090  174.4650  136.2540 C   0  0  1  0  0  0  0  0  0  0  0  0
  195.2270  174.1860  138.2970 C   0  0  2  0  0  3  0  0  0  0  0  0
  197.7940  173.6390  137.9720 C   0  0  0  0  0  2  0  0  0  0  0  0
  196.4580  173.0450  135.6510 C   0  0  0  0  0  2  0  0  0  0  0  0
  196.2700  176.9140  135.2910 O   0  0  0  0  0  1  0  0  0  0  0  0
  194.9950  176.4240  135.5970 C   0  0  0  0  0  2  0  0  0  0  0  0
  189.0750  178.5630  138.8300 C   0  0  0  0  0  2  0  0  0  0  0  0
  187.6680  178.1980  142.0990 C   0  0  0  0  0  3  0  0  0  0  0  0
  189.0510  177.4430  145.3500 C   0  0  0  0  0  0  0  0  0  0  0  0
  191.3950  177.0200  145.2080 N   0  0  0  0  0  0  0  0  0  0  0  0
  188.2670  178.5120  141.1260 C   0  0  0  0  0  3  0  0  0  0  0  0
  189.4360  178.4080  140.2960 C   0  0  1  0  0  3  0  0  0  0  0  0
  191.3100  176.7980  143.8750 C   0  0  0  0  0  3  0  0  0  0  0  0
  187.5880  177.5290  143.3330 C   0  0  0  0  0  0  0  0  0  0  0  0
  187.9460  177.8300  146.1610 N   0  0  0  0  0  1  0  0  0  0  0  0
  190.3050  177.3390  145.9460 C   0  0  0  0  0  3  0  0  0  0  0  0
  190.1870  176.4280  141.7670 C   0  0  0  0  0  3  0  0  0  0  0  0
  189.9470  177.0170  140.5660 C   0  0  0  0  0  3  0  0  0  0  0  0
  188.9100  177.2360  143.9580 C   0  0  0  0  0  0  0  0  0  0  0  0
  186.4480  176.9920  143.7520 C   0  0  0  0  0  2  0  0  0  0  0  0
  190.0970  176.9160  143.1890 C   0  0  0  0  0  0  0  0  0  0  0  0
  1 39  1  6  0  0  0
  3  2  1  1  0  0  0
  3  4  1  0  0  0  0
  3  1  1  0  0  0  0
  4  7  1  0  0  0  0
  5  6  2  0  0  0  0
  5  4  1  0  0  0  0
  8  7  1  0  0  0  0
  8 11  1  0  0  0  0
 10  9  1  0  0  0  0
 11 13  1  0  0  0  0
 11 10  1  0  0  0  0
 11  9  1  0  0  0  0
 13 12  1  1  0  0  0
 14 13  1  0  0  0  0
 15 14  1  0  0  0  0
 16 15  1  0  0  0  0
 17 16  2  0  0  0  0
 18  1  1  0  0  0  0
 19 20  1  0  0  0  0
 20 18  1  0  0  0  0
 21 20  1  0  0  0  0
 21 22  1  0  0  0  0
 23 22  1  0  0  0  0
 23 26  1  0  0  0  0
 23 25  1  0  0  0  0
 24 23  1  0  0  0  0
 27 36  1  6  0  0  0
 27 33  1  0  0  0  0
 27 28  1  0  0  0  0
 28 35  1  0  0  0  0
 29 35  1  1  0  0  0
 29 34  1  0  0  0  0
 31 26  1  1  0  0  0
 31 34  1  0  0  0  0
 32 38  1  1  0  0  0
 32 33  1  0  0  0  0
 32 31  1  0  0  0  0
 33 36  1  1  0  0  0
 33 29  1  0  0  0  0
 34 30  1  6  0  0  0
 37 38  1  0  0  0  0
 40 46  1  0  0  0  0
 41 48  1  0  0  0  0
 41 47  1  0  0  0  0
 42 48  2  0  0  0  0
 43 40  2  0  0  0  0
 44 39  1  6  0  0  0
 44 50  1  0  0  0  0
 44 43  1  0  0  0  0
 45 42  1  0  0  0  0
 46 52  2  0  0  0  0
 46 51  1  0  0  0  0
 49 53  1  0  0  0  0
 50 49  2  0  0  0  0
 51 41  2  0  0  0  0
 53 45  2  0  0  0  0
 53 51  1  0  0  0  0
M  END
>  <MODEL>
3

>  <REMARK>
 VINA RESULT:      -6.8      4.559      8.584
  Name = 
  20 active torsions:
  status: ('A' for Active; 'I' for Inactive)
    1  A    between atoms: C_6  and  C_36
    2  A    between atoms: C_6  and  C_42
    3  A    between atoms: C_8  and  C_53
    4  A    between atoms: C_10  and  C_18
    5  A    between atoms: C_10  and  N_20
    6  A    between atoms: C_10  and  C_49
    7  A    between atoms: C_12  and  C_18
    8  A    between atoms: C_15  and  N_39
    9  A    between atoms: C_15  and  C_50
   10  A    between atoms: C_16  and  C_47
   11  A    between atoms: C_16  and  C_50
   12  A    between atoms: N_20  and  N_39
   13  A    between atoms: N_29  and  C_35
   14  A    between atoms: N_29  and  C_36
   15  A    between atoms: N_29  and  C_49
   16  A    between atoms: C_30  and  N_37
   17  A    between atoms: C_30  and  C_42
   18  A    between atoms: C_33  and  C_47
   19  A    between atoms: N_37  and  C_53
   20  A    between atoms: C_38  and  C_45
                            x       y       z     vdW  Elec       q    Type
                         _______ _______ _______ _____ _____    ______ ____

>  <TORSDO>
F 20

$$$$
=
 OpenBabel10222417493D

 53 58  0  0  1  0  0  0  0  0999 V2000
  187.8540  177.4480  138.4330 C   0  0  1  0  0  3  0  0  0  0  0  0
  187.1970  179.4390  137.1820 O   0  0  0  0  0  1  0  0  0  0  0  0
  186.9790  178.0650  137.3360 C   0  0  2  0  0  3  0  0  0  0  0  0
  185.5630  177.7830  137.5510 N   0  0  0  0  0  0  0  0  0  0  0  0
  184.9220  176.7090  136.8490 C   0  0  0  0  0  3  0  0  0  0  0  0
  184.9660  176.6020  135.5260 C   0  0  0  0  0  2  0  0  0  0  0  0
  184.8360  178.5890  138.5240 C   0  0  0  0  0  2  0  0  0  0  0  0
  183.7550  177.7610  139.2030 C   0  0  0  0  0  2  0  0  0  0  0  0
  182.1080  179.0690  137.7580 C   0  0  0  0  0  2  0  0  0  0  0  0
  182.5250  179.9820  138.9070 C   0  0  0  0  0  2  0  0  0  0  0  0
  182.4210  178.4840  139.1180 C   0  0  0  0  0  0  0  0  0  0  0  0
  181.2360  178.5190  141.3350 C   0  0  0  0  0  1  0  0  0  0  0  0
  181.2260  177.9490  139.9250 C   0  0  2  0  0  3  0  0  0  0  0  0
  181.1980  176.4940  139.9780 N   0  0  0  0  0  2  0  0  0  0  0  0
  179.8390  176.1050  140.3030 C   0  0  0  0  0  2  0  0  0  0  0  0
  179.1680  175.5570  139.0920 C   0  0  0  0  0  3  0  0  0  0  0  0
  179.7810  175.4690  138.0420 O   0  0  0  0  0  0  0  0  0  0  0  0
  188.5920  176.3150  137.8840 N   0  0  0  0  0  2  0  0  0  0  0  0
  188.5300  175.6440  135.6930 C   0  0  0  0  0  1  0  0  0  0  0  0
  189.0310  176.6660  136.5970 N   0  0  0  0  0  0  0  0  0  0  0  0
  190.4840  176.5650  136.5770 C   0  0  0  0  0  2  0  0  0  0  0  0
  190.9080  175.2080  136.0120 C   0  0  0  0  0  2  0  0  0  0  0  0
  191.3950  174.2300  137.0820 C   0  0  0  0  0  0  0  0  0  0  0  0
  190.3680  173.3250  137.3490 O   0  0  0  0  0  1  0  0  0  0  0  0
  191.7050  174.9220  138.2570 O   0  0  0  0  0  1  0  0  0  0  0  0
  192.6230  173.4750  136.5700 C   0  0  0  0  0  2  0  0  0  0  0  0
  197.7240  173.8680  137.5280 C   0  0  2  0  0  3  0  0  0  0  0  0
  198.2430  174.9230  136.7200 O   0  0  0  0  0  0  0  0  0  0  0  0
  196.0120  174.5660  136.0010 C   0  0  1  0  0  3  0  0  0  0  0  0
  194.5640  176.3140  136.8200 O   0  0  0  0  0  1  0  0  0  0  0  0
  193.9320  174.0220  137.1420 C   0  0  1  0  0  3  0  0  0  0  0  0
  195.0090  172.9790  137.5480 C   0  0  2  0  0  3  0  0  0  0  0  0
  196.2770  173.6850  137.1510 C   0  0  1  0  0  0  0  0  0  0  0  0
  194.5840  175.0600  136.2060 C   0  0  2  0  0  3  0  0  0  0  0  0
  197.1780  175.5300  135.9940 C   0  0  0  0  0  2  0  0  0  0  0  0
  196.6750  174.4160  138.4500 C   0  0  0  0  0  2  0  0  0  0  0  0
  195.6240  171.5860  135.6510 O   0  0  0  0  0  1  0  0  0  0  0  0
  194.8970  171.6180  136.8460 C   0  0  0  0  0  2  0  0  0  0  0  0
  188.8130  178.4420  139.0940 C   0  0  0  0  0  2  0  0  0  0  0  0
  186.3820  178.7560  141.6990 C   0  0  0  0  0  3  0  0  0  0  0  0
  186.4610  178.2360  145.2740 C   0  0  0  0  0  0  0  0  0  0  0  0
  188.5930  177.4230  145.9750 N   0  0  0  0  0  0  0  0  0  0  0  0
  187.3130  178.8340  140.9710 C   0  0  0  0  0  3  0  0  0  0  0  0
  188.6430  178.4310  140.6010 C   0  0  1  0  0  3  0  0  0  0  0  0
  188.9000  177.0380  144.7140 C   0  0  0  0  0  3  0  0  0  0  0  0
  185.7770  178.2830  142.8770 C   0  0  0  0  0  0  0  0  0  0  0  0
  185.2530  178.9030  145.6250 N   0  0  0  0  0  1  0  0  0  0  0  0
  187.4080  178.0120  146.2690 C   0  0  0  0  0  3  0  0  0  0  0  0
  188.4690  176.5730  142.3810 C   0  0  0  0  0  3  0  0  0  0  0  0
  188.7530  177.0240  141.1320 C   0  0  0  0  0  3  0  0  0  0  0  0
  186.7400  177.8670  143.9360 C   0  0  0  0  0  0  0  0  0  0  0  0
  184.4800  178.0000  142.9180 C   0  0  0  0  0  2  0  0  0  0  0  0
  188.0230  177.2580  143.6470 C   0  0  0  0  0  0  0  0  0  0  0  0
  1 39  1  6  0  0  0
  3  2  1  1  0  0  0
  3  4  1  0  0  0  0
  3  1  1  0  0  0  0
  4  7  1  0  0  0  0
  5  4  1  0  0  0  0
  6  5  2  0  0  0  0
  7  8  1  0  0  0  0
  9 10  1  0  0  0  0
  9 11  1  0  0  0  0
 10 11  1  0  0  0  0
 11  8  1  0  0  0  0
 11 13  1  0  0  0  0
 13 14  1  0  0  0  0
 13 12  1  1  0  0  0
 14 15  1  0  0  0  0
 16 15  1  0  0  0  0
 17 16  2  0  0  0  0
 18  1  1  0  0  0  0
 19 20  1  0  0  0  0
 20 18  1  0  0  0  0
 21 20  1  0  0  0  0
 22 21  1  0  0  0  0
 22 23  1  0  0  0  0
 23 24  1  0  0  0  0
 23 25  1  0  0  0  0
 26 23  1  0  0  0  0
 27 36  1  1  0  0  0
 28 27  1  0  0  0  0
 29 35  1  1  0  0  0
 29 34  1  0  0  0  0
 29 33  1  0  0  0  0
 31 26  1  6  0  0  0
 31 32  1  0  0  0  0
 32 38  1  6  0  0  0
 33 27  1  0  0  0  0
 33 32  1  0  0  0  0
 33 36  1  1  0  0  0
 34 30  1  1  0  0  0
 34 31  1  0  0  0  0
 35 28  1  0  0  0  0
 37 38  1  0  0  0  0
 40 46  1  0  0  0  0
 41 47  1  0  0  0  0
 41 48  1  0  0  0  0
 42 48  2  0  0  0  0
 43 40  2  0  0  0  0
 44 39  1  6  0  0  0
 44 43  1  0  0  0  0
 44 50  1  0  0  0  0
 45 42  1  0  0  0  0
 46 52  2  0  0  0  0
 46 51  1  0  0  0  0
 49 53  1  0  0  0  0
 50 49  2  0  0  0  0
 51 41  2  0  0  0  0
 53 51  1  0  0  0  0
 53 45  2  0  0  0  0
M  END
>  <MODEL>
4

>  <REMARK>
 VINA RESULT:      -6.8      4.373      8.670
  Name = 
  20 active torsions:
  status: ('A' for Active; 'I' for Inactive)
    1  A    between atoms: C_6  and  C_36
    2  A    between atoms: C_6  and  C_42
    3  A    between atoms: C_8  and  C_53
    4  A    between atoms: C_10  and  C_18
    5  A    between atoms: C_10  and  N_20
    6  A    between atoms: C_10  and  C_49
    7  A    between atoms: C_12  and  C_18
    8  A    between atoms: C_15  and  N_39
    9  A    between atoms: C_15  and  C_50
   10  A    between atoms: C_16  and  C_47
   11  A    between atoms: C_16  and  C_50
   12  A    between atoms: N_20  and  N_39
   13  A    between atoms: N_29  and  C_35
   14  A    between atoms: N_29  and  C_36
   15  A    between atoms: N_29  and  C_49
   16  A    between atoms: C_30  and  N_37
   17  A    between atoms: C_30  and  C_42
   18  A    between atoms: C_33  and  C_47
   19  A    between atoms: N_37  and  C_53
   20  A    between atoms: C_38  and  C_45
                            x       y       z     vdW  Elec       q    Type
                         _______ _______ _______ _____ _____    ______ ____

>  <TORSDO>
F 20

$$$$
=
 OpenBabel10222417493D

 53 58  0  0  1  0  0  0  0  0999 V2000
  188.7250  176.7920  137.6370 C   0  0  1  0  0  3  0  0  0  0  0  0
  188.4140  179.1450  137.0630 O   0  0  0  0  0  1  0  0  0  0  0  0
  188.0460  177.8340  136.7410 C   0  0  2  0  0  3  0  0  0  0  0  0
  186.5940  177.6850  136.7440 N   0  0  0  0  0  0  0  0  0  0  0  0
  185.9390  176.9220  135.7200 C   0  0  0  0  0  3  0  0  0  0  0  0
  186.5510  176.5780  134.5940 C   0  0  0  0  0  2  0  0  0  0  0  0
  185.8370  178.2920  137.8320 C   0  0  0  0  0  2  0  0  0  0  0  0
  184.6080  177.4580  138.1590 C   0  0  0  0  0  2  0  0  0  0  0  0
  183.8840  179.6570  139.2310 C   0  0  0  0  0  2  0  0  0  0  0  0
  184.6060  178.8490  140.3040 C   0  0  0  0  0  2  0  0  0  0  0  0
  183.7870  178.1470  139.2380 C   0  0  0  0  0  0  0  0  0  0  0  0
  182.4560  176.0330  139.5160 C   0  0  0  0  0  1  0  0  0  0  0  0
  182.4310  177.5480  139.6440 C   0  0  2  0  0  3  0  0  0  0  0  0
  181.3270  178.0940  138.8660 N   0  0  0  0  0  2  0  0  0  0  0  0
  180.2760  178.4420  139.8030 C   0  0  0  0  0  2  0  0  0  0  0  0
  179.8970  179.8720  139.6280 C   0  0  0  0  0  3  0  0  0  0  0  0
  180.5320  180.5820  138.8680 O   0  0  0  0  0  0  0  0  0  0  0  0
  189.3520  175.7710  136.8040 N   0  0  0  0  0  2  0  0  0  0  0  0
  190.4240  176.5400  134.9290 C   0  0  0  0  0  1  0  0  0  0  0  0
  190.5810  176.2770  136.3500 N   0  0  0  0  0  0  0  0  0  0  0  0
  191.5740  175.2170  136.4700 C   0  0  0  0  0  2  0  0  0  0  0  0
  192.2230  175.2610  137.8550 C   0  0  0  0  0  2  0  0  0  0  0  0
  193.6920  175.6840  137.8220 C   0  0  0  0  0  0  0  0  0  0  0  0
  193.9460  176.4740  138.9430 O   0  0  0  0  0  1  0  0  0  0  0  0
  193.9500  176.4350  136.6720 O   0  0  0  0  0  1  0  0  0  0  0  0
  194.5870  174.4430  137.8590 C   0  0  0  0  0  2  0  0  0  0  0  0
  199.0830  173.6800  135.3490 C   0  0  2  0  0  3  0  0  0  0  0  0
  198.9650  172.4770  134.5940 O   0  0  0  0  0  0  0  0  0  0  0  0
  197.0360  172.5940  135.9670 C   0  0  1  0  0  3  0  0  0  0  0  0
  195.1060  173.2400  134.6690 O   0  0  0  0  0  1  0  0  0  0  0  0
  195.5930  174.4090  136.7080 C   0  0  1  0  0  3  0  0  0  0  0  0
  197.0640  174.7710  137.0510 C   0  0  2  0  0  3  0  0  0  0  0  0
  197.8240  173.8220  136.1640 C   0  0  1  0  0  0  0  0  0  0  0  0
  195.5820  173.0550  135.9690 C   0  0  2  0  0  3  0  0  0  0  0  0
  197.6490  171.9510  134.7420 C   0  0  0  0  0  2  0  0  0  0  0  0
  198.0460  174.6620  134.8890 C   0  0  0  0  0  2  0  0  0  0  0  0
  198.3080  175.5940  138.9730 O   0  0  0  0  0  1  0  0  0  0  0  0
  197.4570  174.5790  138.5230 C   0  0  0  0  0  2  0  0  0  0  0  0
  189.7440  177.3850  138.6140 C   0  0  0  0  0  2  0  0  0  0  0  0
  190.8260  177.5950  142.0170 C   0  0  0  0  0  3  0  0  0  0  0  0
  189.1240  177.4310  145.2000 C   0  0  0  0  0  0  0  0  0  0  0  0
  186.7650  177.2300  144.9030 N   0  0  0  0  0  0  0  0  0  0  0  0
  190.3880  177.2890  140.9600 C   0  0  0  0  0  3  0  0  0  0  0  0
  189.2800  177.2060  140.0470 C   0  0  1  0  0  3  0  0  0  0  0  0
  186.8530  177.6740  143.6260 C   0  0  0  0  0  3  0  0  0  0  0  0
  190.6540  178.0580  143.3340 C   0  0  0  0  0  0  0  0  0  0  0  0
  190.2510  177.2310  146.0480 N   0  0  0  0  0  1  0  0  0  0  0  0
  187.8630  177.1020  145.6860 C   0  0  0  0  0  3  0  0  0  0  0  0
  187.9350  178.6570  141.7010 C   0  0  0  0  0  3  0  0  0  0  0  0
  188.3890  178.3500  140.4580 C   0  0  0  0  0  3  0  0  0  0  0  0
  189.2730  177.8850  143.8680 C   0  0  0  0  0  0  0  0  0  0  0  0
  191.5770  178.8070  143.9250 C   0  0  0  0  0  2  0  0  0  0  0  0
  188.0850  177.9930  143.0450 C   0  0  0  0  0  0  0  0  0  0  0  0
  1 39  1  6  0  0  0
  3  4  1  0  0  0  0
  3  2  1  1  0  0  0
  3  1  1  0  0  0  0
  4  7  1  0  0  0  0
  5  4  1  0  0  0  0
  6  5  2  0  0  0  0
  7  8  1  0  0  0  0
  8 11  1  0  0  0  0
  9 11  1  0  0  0  0
  9 10  1  0  0  0  0
 11 13  1  0  0  0  0
 11 10  1  0  0  0  0
 13 12  1  6  0  0  0
 14 13  1  0  0  0  0
 14 15  1  0  0  0  0
 16 15  1  0  0  0  0
 17 16  2  0  0  0  0
 18  1  1  0  0  0  0
 19 20  1  0  0  0  0
 20 21  1  0  0  0  0
 20 18  1  0  0  0  0
 21 22  1  0  0  0  0
 23 22  1  0  0  0  0
 23 26  1  0  0  0  0
 23 24  1  0  0  0  0
 25 23  1  0  0  0  0
 27 36  1  6  0  0  0
 27 33  1  0  0  0  0
 28 35  1  0  0  0  0
 28 27  1  0  0  0  0
 29 35  1  6  0  0  0
 29 34  1  0  0  0  0
 29 33  1  0  0  0  0
 31 32  1  0  0  0  0
 31 26  1  1  0  0  0
 32 38  1  1  0  0  0
 33 36  1  6  0  0  0
 33 32  1  0  0  0  0
 34 30  1  6  0  0  0
 34 31  1  0  0  0  0
 38 37  1  0  0  0  0
 40 46  1  0  0  0  0
 41 48  1  0  0  0  0
 41 47  1  0  0  0  0
 42 48  2  0  0  0  0
 43 40  2  0  0  0  0
 44 39  1  6  0  0  0
 44 50  1  0  0  0  0
 44 43  1  0  0  0  0
 45 42  1  0  0  0  0
 46 51  1  0  0  0  0
 46 52  2  0  0  0  0
 49 53  1  0  0  0  0
 50 49  2  0  0  0  0
 51 41  2  0  0  0  0
 53 45  2  0  0  0  0
 53 51  1  0  0  0  0
M  END
>  <MODEL>
5

>  <REMARK>
 VINA RESULT:      -6.8      5.071      9.305
  Name = 
  20 active torsions:
  status: ('A' for Active; 'I' for Inactive)
    1  A    between atoms: C_6  and  C_36
    2  A    between atoms: C_6  and  C_42
    3  A    between atoms: C_8  and  C_53
    4  A    between atoms: C_10  and  C_18
    5  A    between atoms: C_10  and  N_20
    6  A    between atoms: C_10  and  C_49
    7  A    between atoms: C_12  and  C_18
    8  A    between atoms: C_15  and  N_39
    9  A    between atoms: C_15  and  C_50
   10  A    between atoms: C_16  and  C_47
   11  A    between atoms: C_16  and  C_50
   12  A    between atoms: N_20  and  N_39
   13  A    between atoms: N_29  and  C_35
   14  A    between atoms: N_29  and  C_36
   15  A    between atoms: N_29  and  C_49
   16  A    between atoms: C_30  and  N_37
   17  A    between atoms: C_30  and  C_42
   18  A    between atoms: C_33  and  C_47
   19  A    between atoms: N_37  and  C_53
   20  A    between atoms: C_38  and  C_45
                            x       y       z     vdW  Elec       q    Type
                         _______ _______ _______ _____ _____    ______ ____

>  <TORSDO>
F 20

$$$$
=
 OpenBabel10222417493D

 53 58  0  0  1  0  0  0  0  0999 V2000
  188.5950  178.2070  139.2610 C   0  0  1  0  0  3  0  0  0  0  0  0
  188.9590  179.8080  137.4540 O   0  0  0  0  0  1  0  0  0  0  0  0
  189.4340  178.6350  138.0520 C   0  0  2  0  0  3  0  0  0  0  0  0
  189.5540  177.5620  137.0700 N   0  0  0  0  0  0  0  0  0  0  0  0
  189.0410  177.7340  135.7400 C   0  0  0  0  0  3  0  0  0  0  0  0
  188.6750  176.7060  134.9840 C   0  0  0  0  0  2  0  0  0  0  0  0
  190.2410  176.3380  137.4610 C   0  0  0  0  0  2  0  0  0  0  0  0
  191.7200  176.4210  137.1150 C   0  0  0  0  0  2  0  0  0  0  0  0
  191.4780  174.4770  135.4810 C   0  0  0  0  0  2  0  0  0  0  0  0
  191.2470  173.9200  136.8820 C   0  0  0  0  0  2  0  0  0  0  0  0
  192.2230  175.0590  136.6630 C   0  0  0  0  0  0  0  0  0  0  0  0
  193.9830  173.2750  136.4810 C   0  0  0  0  0  1  0  0  0  0  0  0
  193.7260  174.7500  136.7470 C   0  0  2  0  0  3  0  0  0  0  0  0
  194.3020  175.1300  138.0300 N   0  0  0  0  0  2  0  0  0  0  0  0
  195.6600  174.6230  138.0550 C   0  0  0  0  0  2  0  0  0  0  0  0
  196.1250  174.4980  139.4640 C   0  0  0  0  0  3  0  0  0  0  0  0
  195.9790  175.4270  140.2400 O   0  0  0  0  0  0  0  0  0  0  0  0
  187.3930  177.5210  138.7980 N   0  0  0  0  0  2  0  0  0  0  0  0
  185.4470  178.6330  139.2800 C   0  0  0  0  0  1  0  0  0  0  0  0
  186.5080  178.4890  138.2970 N   0  0  0  0  0  0  0  0  0  0  0  0
  185.8900  177.9490  137.0930 C   0  0  0  0  0  2  0  0  0  0  0  0
  184.7100  177.0500  137.4660 C   0  0  0  0  0  2  0  0  0  0  0  0
  183.8220  176.6870  136.2750 C   0  0  0  0  0  0  0  0  0  0  0  0
  183.9920  175.3300  135.9990 O   0  0  0  0  0  1  0  0  0  0  0  0
  184.2010  177.4280  135.1520 O   0  0  0  0  0  1  0  0  0  0  0  0
  182.3570  176.9580  136.6220 C   0  0  0  0  0  2  0  0  0  0  0  0
  180.3120  179.3900  140.7460 C   0  0  2  0  0  3  0  0  0  0  0  0
  179.5340  178.4420  141.4730 O   0  0  0  0  0  0  0  0  0  0  0  0
  180.1550  177.3810  139.4460 C   0  0  1  0  0  3  0  0  0  0  0  0
  181.9160  175.7760  139.8320 O   0  0  0  0  0  1  0  0  0  0  0  0
  182.1680  177.3930  138.0760 C   0  0  1  0  0  3  0  0  0  0  0  0
  181.7210  178.8610  138.3170 C   0  0  2  0  0  3  0  0  0  0  0  0
  180.7950  178.7060  139.4930 C   0  0  1  0  0  0  0  0  0  0  0  0
  181.2080  176.4580  138.8400 C   0  0  2  0  0  3  0  0  0  0  0  0
  179.6450  177.1640  140.8530 C   0  0  0  0  0  2  0  0  0  0  0  0
  181.7390  178.9280  140.6940 C   0  0  0  0  0  2  0  0  0  0  0  0
  179.7850  180.1010  137.5240 O   0  0  0  0  0  1  0  0  0  0  0  0
  180.9990  179.5250  137.1360 C   0  0  0  0  0  2  0  0  0  0  0  0
  189.3550  177.3370  140.2660 C   0  0  0  0  0  2  0  0  0  0  0  0
  186.5890  178.4690  142.2310 C   0  0  0  0  0  3  0  0  0  0  0  0
  185.9670  178.6950  145.7830 C   0  0  0  0  0  0  0  0  0  0  0  0
  187.7930  177.8000  147.0320 N   0  0  0  0  0  0  0  0  0  0  0  0
  187.6330  178.2840  141.7020 C   0  0  0  0  0  3  0  0  0  0  0  0
  188.9270  177.6590  141.6850 C   0  0  1  0  0  3  0  0  0  0  0  0
  188.2510  177.1290  145.9490 C   0  0  0  0  0  3  0  0  0  0  0  0
  185.7230  178.3250  143.3300 C   0  0  0  0  0  0  0  0  0  0  0  0
  184.8350  179.5590  145.7600 N   0  0  0  0  0  1  0  0  0  0  0  0
  186.6820  178.5730  146.9710 C   0  0  0  0  0  3  0  0  0  0  0  0
  188.1630  176.2450  143.7010 C   0  0  0  0  0  3  0  0  0  0  0  0
  188.7240  176.3900  142.4730 C   0  0  0  0  0  3  0  0  0  0  0  0
  186.4120  178.0270  144.6180 C   0  0  0  0  0  0  0  0  0  0  0  0
  184.4110  178.2110  143.1610 C   0  0  0  0  0  2  0  0  0  0  0  0
  187.6160  177.2250  144.7060 C   0  0  0  0  0  0  0  0  0  0  0  0
  1 39  1  1  0  0  0
  3  2  1  6  0  0  0
  3  1  1  0  0  0  0
  4  7  1  0  0  0  0
  4  3  1  0  0  0  0
  5  4  1  0  0  0  0
  6  5  2  0  0  0  0
  8  7  1  0  0  0  0
  9 11  1  0  0  0  0
  9 10  1  0  0  0  0
 11 13  1  0  0  0  0
 11 10  1  0  0  0  0
 11  8  1  0  0  0  0
 13 12  1  1  0  0  0
 13 14  1  0  0  0  0
 14 15  1  0  0  0  0
 15 16  1  0  0  0  0
 16 17  2  0  0  0  0
 18  1  1  0  0  0  0
 20 18  1  0  0  0  0
 20 19  1  0  0  0  0
 21 22  1  0  0  0  0
 21 20  1  0  0  0  0
 23 26  1  0  0  0  0
 23 22  1  0  0  0  0
 24 23  1  0  0  0  0
 25 23  1  0  0  0  0
 27 36  1  1  0  0  0
 27 28  1  0  0  0  0
 29 33  1  0  0  0  0
 29 35  1  1  0  0  0
 31 26  1  6  0  0  0
 31 32  1  0  0  0  0
 31 34  1  0  0  0  0
 32 38  1  6  0  0  0
 32 33  1  0  0  0  0
 33 36  1  1  0  0  0
 33 27  1  0  0  0  0
 34 29  1  0  0  0  0
 34 30  1  1  0  0  0
 35 28  1  0  0  0  0
 38 37  1  0  0  0  0
 40 46  1  0  0  0  0
 41 48  1  0  0  0  0
 43 40  2  0  0  0  0
 44 39  1  6  0  0  0
 44 43  1  0  0  0  0
 44 50  1  0  0  0  0
 45 42  1  0  0  0  0
 46 51  1  0  0  0  0
 47 41  1  0  0  0  0
 48 42  2  0  0  0  0
 49 53  1  0  0  0  0
 50 49  2  0  0  0  0
 51 53  1  0  0  0  0
 51 41  2  0  0  0  0
 52 46  2  0  0  0  0
 53 45  2  0  0  0  0
M  END
>  <MODEL>
6

>  <REMARK>
 VINA RESULT:      -6.6      3.517     10.718
  Name = 
  20 active torsions:
  status: ('A' for Active; 'I' for Inactive)
    1  A    between atoms: C_6  and  C_36
    2  A    between atoms: C_6  and  C_42
    3  A    between atoms: C_8  and  C_53
    4  A    between atoms: C_10  and  C_18
    5  A    between atoms: C_10  and  N_20
    6  A    between atoms: C_10  and  C_49
    7  A    between atoms: C_12  and  C_18
    8  A    between atoms: C_15  and  N_39
    9  A    between atoms: C_15  and  C_50
   10  A    between atoms: C_16  and  C_47
   11  A    between atoms: C_16  and  C_50
   12  A    between atoms: N_20  and  N_39
   13  A    between atoms: N_29  and  C_35
   14  A    between atoms: N_29  and  C_36
   15  A    between atoms: N_29  and  C_49
   16  A    between atoms: C_30  and  N_37
   17  A    between atoms: C_30  and  C_42
   18  A    between atoms: C_33  and  C_47
   19  A    between atoms: N_37  and  C_53
   20  A    between atoms: C_38  and  C_45
                            x       y       z     vdW  Elec       q    Type
                         _______ _______ _______ _____ _____    ______ ____

>  <TORSDO>
F 20

$$$$
=
 OpenBabel10222417493D

 53 58  0  0  1  0  0  0  0  0999 V2000
  186.9180  177.2840  137.4960 C   0  0  1  0  0  3  0  0  0  0  0  0
  187.8230  177.4680  135.2360 O   0  0  0  0  0  1  0  0  0  0  0  0
  188.0690  176.9900  136.5270 C   0  0  2  0  0  3  0  0  0  0  0  0
  188.4040  175.5700  136.5020 N   0  0  0  0  0  0  0  0  0  0  0  0
  187.5090  174.6230  135.9000 C   0  0  0  0  0  3  0  0  0  0  0  0
  187.7910  173.3280  135.8300 C   0  0  0  0  0  2  0  0  0  0  0  0
  189.6820  175.1490  137.0610 C   0  0  0  0  0  2  0  0  0  0  0  0
  190.7240  176.2450  136.8970 C   0  0  0  0  0  2  0  0  0  0  0  0
  192.0290  175.3340  134.9020 C   0  0  0  0  0  2  0  0  0  0  0  0
  191.9240  174.2070  135.9250 C   0  0  0  0  0  2  0  0  0  0  0  0
  192.0250  175.6490  136.3830 C   0  0  0  0  0  0  0  0  0  0  0  0
  194.4230  176.2320  135.9060 C   0  0  0  0  0  1  0  0  0  0  0  0
  193.3570  176.1240  136.9860 C   0  0  2  0  0  3  0  0  0  0  0  0
  193.8230  175.2560  138.0580 N   0  0  0  0  0  2  0  0  0  0  0  0
  195.1140  174.7330  137.6530 C   0  0  0  0  0  2  0  0  0  0  0  0
  195.8390  174.2030  138.8410 C   0  0  0  0  0  3  0  0  0  0  0  0
  196.6430  174.9050  139.4290 O   0  0  0  0  0  0  0  0  0  0  0  0
  187.2840  178.4030  138.3580 N   0  0  0  0  0  2  0  0  0  0  0  0
  186.7370  178.6300  140.5730 C   0  0  0  0  0  1  0  0  0  0  0  0
  187.5670  177.8920  139.6350 N   0  0  0  0  0  0  0  0  0  0  0  0
  188.9500  178.2220  139.9530 C   0  0  0  0  0  2  0  0  0  0  0  0
  189.7300  176.9490  140.2870 C   0  0  0  0  0  2  0  0  0  0  0  0
  190.3640  176.9740  141.6790 C   0  0  0  0  0  0  0  0  0  0  0  0
  191.6840  177.4070  141.5520 O   0  0  0  0  0  1  0  0  0  0  0  0
  190.3600  175.6890  142.2300 O   0  0  0  0  0  1  0  0  0  0  0  0
  189.5930  177.9410  142.5790 C   0  0  0  0  0  2  0  0  0  0  0  0
  189.1810  177.6920  147.7630 C   0  0  2  0  0  3  0  0  0  0  0  0
  187.7990  177.8030  148.0990 O   0  0  0  0  0  0  0  0  0  0  0  0
  187.9600  178.2600  145.7780 C   0  0  1  0  0  3  0  0  0  0  0  0
  187.1820  176.3770  144.4850 O   0  0  0  0  0  1  0  0  0  0  0  0
  189.3090  177.3570  143.9640 C   0  0  1  0  0  3  0  0  0  0  0  0
  190.2540  177.7950  145.1170 C   0  0  2  0  0  3  0  0  0  0  0  0
  189.2960  177.8890  146.2730 C   0  0  1  0  0  0  0  0  0  0  0  0
  187.8520  177.5990  144.4070 C   0  0  2  0  0  3  0  0  0  0  0  0
  187.0260  177.8770  146.9050 C   0  0  0  0  0  2  0  0  0  0  0  0
  189.3880  176.4820  146.9000 C   0  0  0  0  0  2  0  0  0  0  0  0
  192.2530  178.9480  144.3470 O   0  0  0  0  0  1  0  0  0  0  0  0
  190.9780  179.1300  144.8950 C   0  0  0  0  0  2  0  0  0  0  0  0
  185.5800  177.5580  136.8030 C   0  0  0  0  0  2  0  0  0  0  0  0
  182.9720  178.8370  138.8910 C   0  0  0  0  0  3  0  0  0  0  0  0
  180.1190  177.3460  140.5310 C   0  0  0  0  0  0  0  0  0  0  0  0
  179.9380  175.0270  139.9970 N   0  0  0  0  0  0  0  0  0  0  0  0
  183.8920  178.2690  138.4070 C   0  0  0  0  0  3  0  0  0  0  0  0
  184.4220  177.1410  137.6890 C   0  0  1  0  0  3  0  0  0  0  0  0
  180.7400  175.1770  138.9160 C   0  0  0  0  0  3  0  0  0  0  0  0
  181.6190  178.8890  139.2730 C   0  0  0  0  0  0  0  0  0  0  0  0
  179.8010  178.4010  141.4330 N   0  0  0  0  0  1  0  0  0  0  0  0
  179.6250  176.0730  140.7990 C   0  0  0  0  0  3  0  0  0  0  0  0
  181.9910  176.4020  137.2500 C   0  0  0  0  0  3  0  0  0  0  0  0
  183.2610  176.6700  136.8510 C   0  0  0  0  0  3  0  0  0  0  0  0
  180.9740  177.5530  139.4220 C   0  0  0  0  0  0  0  0  0  0  0  0
  180.9400  180.0290  139.2430 C   0  0  0  0  0  2  0  0  0  0  0  0
  181.3090  176.4130  138.5930 C   0  0  0  0  0  0  0  0  0  0  0  0
  1 39  1  6  0  0  0
  1 18  1  0  0  0  0
  3  2  1  6  0  0  0
  3  1  1  0  0  0  0
  4  3  1  0  0  0  0
  4  7  1  0  0  0  0
  5  4  1  0  0  0  0
  6  5  2  0  0  0  0
  8  7  1  0  0  0  0
  9 10  1  0  0  0  0
  9 11  1  0  0  0  0
 10 11  1  0  0  0  0
 11  8  1  0  0  0  0
 11 13  1  0  0  0  0
 13 12  1  6  0  0  0
 13 14  1  0  0  0  0
 15 14  1  0  0  0  0
 15 16  1  0  0  0  0
 16 17  2  0  0  0  0
 18 20  1  0  0  0  0
 20 21  1  0  0  0  0
 20 19  1  0  0  0  0
 21 22  1  0  0  0  0
 22 23  1  0  0  0  0
 23 25  1  0  0  0  0
 23 26  1  0  0  0  0
 24 23  1  0  0  0  0
 27 36  1  6  0  0  0
 27 28  1  0  0  0  0
 29 33  1  0  0  0  0
 29 35  1  1  0  0  0
 31 26  1  6  0  0  0
 31 34  1  0  0  0  0
 31 32  1  0  0  0  0
 32 38  1  6  0  0  0
 32 33  1  0  0  0  0
 33 36  1  6  0  0  0
 33 27  1  0  0  0  0
 34 30  1  1  0  0  0
 34 29  1  0  0  0  0
 35 28  1  0  0  0  0
 37 38  1  0  0  0  0
 40 46  1  0  0  0  0
 41 48  1  0  0  0  0
 41 47  1  0  0  0  0
 42 48  2  0  0  0  0
 43 40  2  0  0  0  0
 44 39  1  6  0  0  0
 44 43  1  0  0  0  0
 45 42  1  0  0  0  0
 46 51  1  0  0  0  0
 49 53  1  0  0  0  0
 50 49  2  0  0  0  0
 50 44  1  0  0  0  0
 51 41  2  0  0  0  0
 52 46  2  0  0  0  0
 53 45  2  0  0  0  0
 53 51  1  0  0  0  0
M  END
>  <MODEL>
7

>  <REMARK>
 VINA RESULT:      -6.5      2.939      8.826
  Name = 
  20 active torsions:
  status: ('A' for Active; 'I' for Inactive)
    1  A    between atoms: C_6  and  C_36
    2  A    between atoms: C_6  and  C_42
    3  A    between atoms: C_8  and  C_53
    4  A    between atoms: C_10  and  C_18
    5  A    between atoms: C_10  and  N_20
    6  A    between atoms: C_10  and  C_49
    7  A    between atoms: C_12  and  C_18
    8  A    between atoms: C_15  and  N_39
    9  A    between atoms: C_15  and  C_50
   10  A    between atoms: C_16  and  C_47
   11  A    between atoms: C_16  and  C_50
   12  A    between atoms: N_20  and  N_39
   13  A    between atoms: N_29  and  C_35
   14  A    between atoms: N_29  and  C_36
   15  A    between atoms: N_29  and  C_49
   16  A    between atoms: C_30  and  N_37
   17  A    between atoms: C_30  and  C_42
   18  A    between atoms: C_33  and  C_47
   19  A    between atoms: N_37  and  C_53
   20  A    between atoms: C_38  and  C_45
                            x       y       z     vdW  Elec       q    Type
                         _______ _______ _______ _____ _____    ______ ____

>  <TORSDO>
F 20

$$$$
=
 OpenBabel10222417493D

 53 58  0  0  1  0  0  0  0  0999 V2000
  186.7370  178.6720  142.1160 C   0  0  1  0  0  3  0  0  0  0  0  0
  186.4290  176.5080  143.2030 O   0  0  0  0  0  1  0  0  0  0  0  0
  186.9370  177.8020  143.3620 C   0  0  2  0  0  3  0  0  0  0  0  0
  186.3860  178.4340  144.5570 N   0  0  0  0  0  0  0  0  0  0  0  0
  185.1360  179.1360  144.4970 C   0  0  0  0  0  3  0  0  0  0  0  0
  184.0340  178.6690  145.0710 C   0  0  0  0  0  2  0  0  0  0  0  0
  187.1150  178.2970  145.8120 C   0  0  0  0  0  2  0  0  0  0  0  0
  188.5760  177.9650  145.5480 C   0  0  0  0  0  2  0  0  0  0  0  0
  188.3530  176.7110  147.7590 C   0  0  0  0  0  2  0  0  0  0  0  0
  188.6920  178.1600  148.0950 C   0  0  0  0  0  2  0  0  0  0  0  0
  189.2440  177.5160  146.8380 C   0  0  0  0  0  0  0  0  0  0  0  0
  191.1860  176.8340  145.3950 C   0  0  0  0  0  1  0  0  0  0  0  0
  190.7330  177.1310  146.8160 C   0  0  2  0  0  3  0  0  0  0  0  0
  191.0260  175.9950  147.6790 N   0  0  0  0  0  2  0  0  0  0  0  0
  192.4100  175.6290  147.4450 C   0  0  0  0  0  2  0  0  0  0  0  0
  193.1960  175.8060  148.6970 C   0  0  0  0  0  3  0  0  0  0  0  0
  193.2520  176.8990  149.2340 O   0  0  0  0  0  0  0  0  0  0  0  0
  188.0280  178.9060  141.4770 N   0  0  0  0  0  2  0  0  0  0  0  0
  189.9270  177.8320  142.1810 C   0  0  0  0  0  1  0  0  0  0  0  0
  188.7060  177.6780  141.4070 N   0  0  0  0  0  0  0  0  0  0  0  0
  189.1140  177.4700  140.0240 C   0  0  0  0  0  2  0  0  0  0  0  0
  188.1790  178.2300  139.0810 C   0  0  0  0  0  2  0  0  0  0  0  0
  188.7750  178.4630  137.6920 C   0  0  0  0  0  0  0  0  0  0  0  0
  189.9650  177.7400  137.5990 O   0  0  0  0  0  1  0  0  0  0  0  0
  189.0560  179.8200  137.5130 O   0  0  0  0  0  1  0  0  0  0  0  0
  187.7960  177.9760  136.6220 C   0  0  0  0  0  2  0  0  0  0  0  0
  185.1840  173.5110  136.0400 C   0  0  2  0  0  3  0  0  0  0  0  0
  185.8910  172.7090  135.0970 O   0  0  0  0  0  0  0  0  0  0  0  0
  186.9270  174.8410  135.0670 C   0  0  1  0  0  3  0  0  0  0  0  0
  189.0340  174.7790  136.2430 O   0  0  0  0  0  1  0  0  0  0  0  0
  187.4440  176.4960  136.7760 C   0  0  1  0  0  3  0  0  0  0  0  0
  185.9350  176.1400  136.8690 C   0  0  2  0  0  3  0  0  0  0  0  0
  185.8820  174.8450  136.1050 C   0  0  1  0  0  0  0  0  0  0  0  0
  188.0840  175.6300  135.6730 C   0  0  2  0  0  3  0  0  0  0  0  0
  187.0830  173.3810  134.7020 C   0  0  0  0  0  2  0  0  0  0  0  0
  186.0690  173.7930  137.2180 C   0  0  0  0  0  2  0  0  0  0  0  0
  184.9020  177.0520  134.8640 O   0  0  0  0  0  1  0  0  0  0  0  0
  184.9820  177.1760  136.2550 C   0  0  0  0  0  2  0  0  0  0  0  0
  185.7390  178.0940  141.1100 C   0  0  0  0  0  2  0  0  0  0  0  0
  183.2990  179.6350  138.9960 C   0  0  0  0  0  3  0  0  0  0  0  0
  180.0510  181.1060  139.5800 C   0  0  0  0  0  0  0  0  0  0  0  0
  179.4130  180.8940  141.8690 N   0  0  0  0  0  0  0  0  0  0  0  0
  184.1110  179.3560  139.8120 C   0  0  0  0  0  3  0  0  0  0  0  0
  184.4420  178.8800  141.1280 C   0  0  1  0  0  3  0  0  0  0  0  0
  180.3220  179.9110  142.0680 C   0  0  0  0  0  3  0  0  0  0  0  0
  181.9620  179.8350  138.6070 C   0  0  0  0  0  0  0  0  0  0  0  0
  179.8930  181.8010  138.3470 N   0  0  0  0  0  1  0  0  0  0  0  0
  179.2670  181.4920  140.6630 C   0  0  0  0  0  3  0  0  0  0  0  0
  181.9580  178.2540  141.4200 C   0  0  0  0  0  3  0  0  0  0  0  0
  183.2870  177.9810  141.4870 C   0  0  0  0  0  3  0  0  0  0  0  0
  181.0270  180.0940  139.7390 C   0  0  0  0  0  0  0  0  0  0  0  0
  181.5560  179.5570  137.3740 C   0  0  0  0  0  2  0  0  0  0  0  0
  181.1770  179.4860  141.0460 C   0  0  0  0  0  0  0  0  0  0  0  0
  1 39  1  6  0  0  0
  1  3  1  0  0  0  0
  3  2  1  6  0  0  0
  3  4  1  0  0  0  0
  4  7  1  0  0  0  0
  5  4  1  0  0  0  0
  5  6  2  0  0  0  0
  8  7  1  0  0  0  0
  8 11  1  0  0  0  0
  9 10  1  0  0  0  0
 11  9  1  0  0  0  0
 11 10  1  0  0  0  0
 13 12  1  6  0  0  0
 13 11  1  0  0  0  0
 13 14  1  0  0  0  0
 15 14  1  0  0  0  0
 15 16  1  0  0  0  0
 16 17  2  0  0  0  0
 18  1  1  0  0  0  0
 20 18  1  0  0  0  0
 20 19  1  0  0  0  0
 21 20  1  0  0  0  0
 22 21  1  0  0  0  0
 23 22  1  0  0  0  0
 24 23  1  0  0  0  0
 25 23  1  0  0  0  0
 26 23  1  0  0  0  0
 27 33  1  0  0  0  0
 27 36  1  1  0  0  0
 28 27  1  0  0  0  0
 29 35  1  1  0  0  0
 29 34  1  0  0  0  0
 29 33  1  0  0  0  0
 31 26  1  6  0  0  0
 31 32  1  0  0  0  0
 32 38  1  6  0  0  0
 33 32  1  0  0  0  0
 33 36  1  1  0  0  0
 34 30  1  1  0  0  0
 34 31  1  0  0  0  0
 35 28  1  0  0  0  0
 37 38  1  0  0  0  0
 40 43  2  0  0  0  0
 41 51  2  0  0  0  0
 41 48  1  0  0  0  0
 42 45  1  0  0  0  0
 43 44  1  0  0  0  0
 44 39  1  6  0  0  0
 44 50  1  0  0  0  0
 46 40  1  0  0  0  0
 46 51  1  0  0  0  0
 47 41  1  0  0  0  0
 48 42  2  0  0  0  0
 49 50  2  0  0  0  0
 51 53  1  0  0  0  0
 52 46  2  0  0  0  0
 53 49  1  0  0  0  0
 53 45  2  0  0  0  0
M  END
>  <MODEL>
8

>  <REMARK>
 VINA RESULT:      -6.5      3.026     10.172
  Name = 
  20 active torsions:
  status: ('A' for Active; 'I' for Inactive)
    1  A    between atoms: C_6  and  C_36
    2  A    between atoms: C_6  and  C_42
    3  A    between atoms: C_8  and  C_53
    4  A    between atoms: C_10  and  C_18
    5  A    between atoms: C_10  and  N_20
    6  A    between atoms: C_10  and  C_49
    7  A    between atoms: C_12  and  C_18
    8  A    between atoms: C_15  and  N_39
    9  A    between atoms: C_15  and  C_50
   10  A    between atoms: C_16  and  C_47
   11  A    between atoms: C_16  and  C_50
   12  A    between atoms: N_20  and  N_39
   13  A    between atoms: N_29  and  C_35
   14  A    between atoms: N_29  and  C_36
   15  A    between atoms: N_29  and  C_49
   16  A    between atoms: C_30  and  N_37
   17  A    between atoms: C_30  and  C_42
   18  A    between atoms: C_33  and  C_47
   19  A    between atoms: N_37  and  C_53
   20  A    between atoms: C_38  and  C_45
                            x       y       z     vdW  Elec       q    Type
                         _______ _______ _______ _____ _____    ______ ____

>  <TORSDO>
F 20

$$$$
=
 OpenBabel10222417493D

 53 58  0  0  1  0  0  0  0  0999 V2000
  185.1540  178.6740  140.3760 C   0  0  1  0  0  3  0  0  0  0  0  0
  184.1690  180.4460  139.0160 O   0  0  0  0  0  1  0  0  0  0  0  0
  184.2200  179.0630  139.2250 C   0  0  2  0  0  3  0  0  0  0  0  0
  182.8800  178.5140  139.4060 N   0  0  0  0  0  0  0  0  0  0  0  0
  181.7580  179.3870  139.6070 C   0  0  0  0  0  3  0  0  0  0  0  0
  180.6710  179.0020  140.2640 C   0  0  0  0  0  2  0  0  0  0  0  0
  182.7070  177.0690  139.3350 C   0  0  0  0  0  2  0  0  0  0  0  0
  183.4510  176.5000  138.1360 C   0  0  0  0  0  2  0  0  0  0  0  0
  181.9310  176.6400  136.0910 C   0  0  0  0  0  2  0  0  0  0  0  0
  181.0490  176.2920  137.2860 C   0  0  0  0  0  2  0  0  0  0  0  0
  182.4760  175.7840  137.2140 C   0  0  0  0  0  0  0  0  0  0  0  0
  181.4570  173.4870  137.2300 C   0  0  0  0  0  1  0  0  0  0  0  0
  182.7000  174.2970  136.8960 C   0  0  2  0  0  3  0  0  0  0  0  0
  183.8540  173.7460  137.5940 N   0  0  0  0  0  2  0  0  0  0  0  0
  184.8240  173.3700  136.5840 C   0  0  0  0  0  2  0  0  0  0  0  0
  184.2760  172.2670  135.7450 C   0  0  0  0  0  3  0  0  0  0  0  0
  184.4640  171.1060  136.0650 O   0  0  0  0  0  0  0  0  0  0  0  0
  186.4770  179.2420  140.1410 N   0  0  0  0  0  2  0  0  0  0  0  0
  188.5700  178.3340  140.3620 C   0  0  0  0  0  1  0  0  0  0  0  0
  187.3070  178.2200  139.6520 N   0  0  0  0  0  0  0  0  0  0  0  0
  187.5890  178.5040  138.2510 C   0  0  0  0  0  2  0  0  0  0  0  0
  187.0480  177.3790  137.3680 C   0  0  0  0  0  2  0  0  0  0  0  0
  188.1370  176.6480  136.5810 C   0  0  0  0  0  0  0  0  0  0  0  0
  188.8120  177.5820  135.7940 O   0  0  0  0  0  1  0  0  0  0  0  0
  187.5610  175.6860  135.7470 O   0  0  0  0  0  1  0  0  0  0  0  0
  189.1210  175.9910  137.5510 C   0  0  0  0  0  2  0  0  0  0  0  0
  194.2660  175.2140  137.3870 C   0  0  2  0  0  3  0  0  0  0  0  0
  194.4970  173.9170  136.8430 O   0  0  0  0  0  0  0  0  0  0  0  0
  192.1600  174.0810  137.2090 C   0  0  1  0  0  3  0  0  0  0  0  0
  190.9950  174.4160  135.1210 O   0  0  0  0  0  1  0  0  0  0  0  0
  190.5310  175.8750  136.9700 C   0  0  1  0  0  3  0  0  0  0  0  0
  191.7000  176.3790  137.8600 C   0  0  2  0  0  3  0  0  0  0  0  0
  192.7760  175.3760  137.5430 C   0  0  1  0  0  0  0  0  0  0  0  0
  190.8510  174.4380  136.5110 C   0  0  2  0  0  3  0  0  0  0  0  0
  193.2510  173.3270  136.4820 C   0  0  0  0  0  2  0  0  0  0  0  0
  193.5330  176.0530  136.3820 C   0  0  0  0  0  2  0  0  0  0  0  0
  192.0840  177.4510  140.0100 O   0  0  0  0  0  1  0  0  0  0  0  0
  191.4060  176.4090  139.3670 C   0  0  0  0  0  2  0  0  0  0  0  0
  184.6350  179.0800  141.7590 C   0  0  0  0  0  2  0  0  0  0  0  0
  185.1960  178.9170  145.2880 C   0  0  0  0  0  3  0  0  0  0  0  0
  188.0520  178.0710  147.3330 C   0  0  0  0  0  0  0  0  0  0  0  0
  189.9030  177.4000  145.9860 N   0  0  0  0  0  0  0  0  0  0  0  0
  185.1970  179.1510  144.1270 C   0  0  0  0  0  3  0  0  0  0  0  0
  185.7180  178.9110  142.8080 C   0  0  1  0  0  3  0  0  0  0  0  0
  189.0930  177.1670  144.9260 C   0  0  0  0  0  3  0  0  0  0  0  0
  185.7430  178.2790  146.4160 C   0  0  0  0  0  0  0  0  0  0  0  0
  187.5960  178.5850  148.5810 N   0  0  0  0  0  1  0  0  0  0  0  0
  189.4150  177.8440  147.1690 C   0  0  0  0  0  3  0  0  0  0  0  0
  186.9820  176.8850  143.7820 C   0  0  0  0  0  3  0  0  0  0  0  0
  186.1800  177.4770  142.8590 C   0  0  0  0  0  3  0  0  0  0  0  0
  187.1640  177.8580  146.2520 C   0  0  0  0  0  0  0  0  0  0  0  0
  184.9720  177.8730  147.4170 C   0  0  0  0  0  2  0  0  0  0  0  0
  187.7160  177.4030  144.9920 C   0  0  0  0  0  0  0  0  0  0  0  0
  1 39  1  1  0  0  0
  3  2  1  1  0  0  0
  3  4  1  0  0  0  0
  3  1  1  0  0  0  0
  4  5  1  0  0  0  0
  5  6  2  0  0  0  0
  7  4  1  0  0  0  0
  8  7  1  0  0  0  0
  9 11  1  0  0  0  0
  9 10  1  0  0  0  0
 11 10  1  0  0  0  0
 11  8  1  0  0  0  0
 13 11  1  0  0  0  0
 13 12  1  1  0  0  0
 13 14  1  0  0  0  0
 15 14  1  0  0  0  0
 16 17  2  0  0  0  0
 16 15  1  0  0  0  0
 18  1  1  0  0  0  0
 20 18  1  0  0  0  0
 20 19  1  0  0  0  0
 21 20  1  0  0  0  0
 22 21  1  0  0  0  0
 23 22  1  0  0  0  0
 23 26  1  0  0  0  0
 24 23  1  0  0  0  0
 25 23  1  0  0  0  0
 27 36  1  6  0  0  0
 27 33  1  0  0  0  0
 28 27  1  0  0  0  0
 29 35  1  6  0  0  0
 29 33  1  0  0  0  0
 31 26  1  1  0  0  0
 31 32  1  0  0  0  0
 32 38  1  1  0  0  0
 33 36  1  6  0  0  0
 33 32  1  0  0  0  0
 34 30  1  6  0  0  0
 34 31  1  0  0  0  0
 34 29  1  0  0  0  0
 35 28  1  0  0  0  0
 38 37  1  0  0  0  0
 40 46  1  0  0  0  0
 41 47  1  0  0  0  0
 42 48  2  0  0  0  0
 43 40  2  0  0  0  0
 44 39  1  6  0  0  0
 44 50  1  0  0  0  0
 44 43  1  0  0  0  0
 45 53  2  0  0  0  0
 45 42  1  0  0  0  0
 46 52  2  0  0  0  0
 48 41  1  0  0  0  0
 49 53  1  0  0  0  0
 50 49  2  0  0  0  0
 51 46  1  0  0  0  0
 51 41  2  0  0  0  0
 53 51  1  0  0  0  0
M  END
>  <MODEL>
9

>  <REMARK>
 VINA RESULT:      -6.5      3.631      8.149
  Name = 
  20 active torsions:
  status: ('A' for Active; 'I' for Inactive)
    1  A    between atoms: C_6  and  C_36
    2  A    between atoms: C_6  and  C_42
    3  A    between atoms: C_8  and  C_53
    4  A    between atoms: C_10  and  C_18
    5  A    between atoms: C_10  and  N_20
    6  A    between atoms: C_10  and  C_49
    7  A    between atoms: C_12  and  C_18
    8  A    between atoms: C_15  and  N_39
    9  A    between atoms: C_15  and  C_50
   10  A    between atoms: C_16  and  C_47
   11  A    between atoms: C_16  and  C_50
   12  A    between atoms: N_20  and  N_39
   13  A    between atoms: N_29  and  C_35
   14  A    between atoms: N_29  and  C_36
   15  A    between atoms: N_29  and  C_49
   16  A    between atoms: C_30  and  N_37
   17  A    between atoms: C_30  and  C_42
   18  A    between atoms: C_33  and  C_47
   19  A    between atoms: N_37  and  C_53
   20  A    between atoms: C_38  and  C_45
                            x       y       z     vdW  Elec       q    Type
                         _______ _______ _______ _____ _____    ______ ____

>  <TORSDO>
F 20

$$$$
