=
 OpenBabel10222420273D

 31 35  0  0  1  0  0  0  0  0999 V2000
  189.9340  177.7430  141.4360 C   0  0  0  0  0  3  0  0  0  0  0  0
  189.6830  177.5760  146.4310 C   0  0  0  0  0  2  0  0  0  0  0  0
  187.7150  177.1760  145.2680 C   0  0  0  0  0  0  0  0  0  0  0  0
  189.7310  177.3440  143.8280 C   0  0  0  0  0  0  0  0  0  0  0  0
  189.0090  177.3810  145.1200 C   0  0  0  0  0  0  0  0  0  0  0  0
  188.4260  178.8030  148.0440 O   0  0  0  0  0  1  0  0  0  0  0  0
  186.7630  177.9650  143.1640 C   0  0  0  0  0  0  0  0  0  0  0  0
  188.5520  177.5460  147.4550 C   0  0  1  0  0  3  0  0  0  0  0  0
  187.8220  178.2940  142.4810 N   0  0  0  0  0  0  0  0  0  0  0  0
  191.2610  177.3130  141.4580 C   0  0  0  0  0  0  0  0  0  0  0  0
  187.2800  177.2180  146.6820 C   0  0  0  0  0  2  0  0  0  0  0  0
  191.8270  176.9070  142.6710 C   0  0  0  0  0  3  0  0  0  0  0  0
  189.1490  177.7510  142.5950 C   0  0  0  0  0  0  0  0  0  0  0  0
  191.0700  176.9300  143.8420 C   0  0  0  0  0  3  0  0  0  0  0  0
  186.8000  176.8380  144.1480 C   0  0  0  0  0  2  0  0  0  0  0  0
  191.7720  176.5050  139.0730 C   0  0  0  0  0  0  0  0  0  0  0  0
  190.8080  175.6520  139.0070 N   0  0  0  0  0  0  0  0  0  0  0  0
  192.8220  176.6420  137.6260 S   0  0  0  0  0  0  0  0  0  0  0  0
  191.8260  175.3590  136.7910 C   0  0  0  0  0  2  0  0  0  0  0  0
  190.7760  174.9760  137.7650 C   0  0  0  0  0  0  0  0  0  0  0  0
  189.9060  174.1040  137.5110 O   0  0  0  0  0  0  0  0  0  0  0  0
  192.0070  177.3140  140.2320 N   0  0  0  0  0  2  0  0  0  0  0  0
  182.4220  178.6790  142.5210 C   0  0  0  0  0  0  0  0  0  0  0  0
  185.4880  178.6790  142.9340 C   0  0  0  0  0  0  0  0  0  0  0  0
  184.5190  178.6590  143.8500 C   0  0  0  0  0  3  0  0  0  0  0  0
  182.9070  178.4430  141.3320 N   0  0  0  0  0  0  0  0  0  0  0  0
  184.2100  178.7360  140.8750 N   0  0  0  0  0  2  0  0  0  0  0  0
  183.2190  179.3570  143.6070 C   0  0  0  0  0  2  0  0  0  0  0  0
  185.2450  179.4100  141.6500 C   0  0  0  0  0  2  0  0  0  0  0  0
  181.1020  178.2980  142.7720 O   0  0  0  0  0  0  0  0  0  0  0  0
  180.4040  178.6800  143.9500 C   0  0  0  0  0  1  0  0  0  0  0  0
  1 10  2  0  0  0  0
  1 13  1  0  0  0  0
  2  8  1  0  0  0  0
  3 11  1  0  0  0  0
  4 14  1  0  0  0  0
  4  5  1  0  0  0  0
  5  3  2  0  0  0  0
  5  2  1  0  0  0  0
  7 15  1  0  0  0  0
  8  6  1  6  0  0  0
  9 13  1  0  0  0  0
  9  7  2  0  0  0  0
 10 12  1  0  0  0  0
 11  8  1  0  0  0  0
 12 14  2  0  0  0  0
 13  4  2  0  0  0  0
 15  3  1  0  0  0  0
 16 22  1  0  0  0  0
 17 16  2  0  0  0  0
 18 16  1  0  0  0  0
 19 18  1  0  0  0  0
 19 20  1  0  0  0  0
 20 17  1  0  0  0  0
 21 20  2  0  0  0  0
 22 10  1  0  0  0  0
 23 30  1  0  0  0  0
 23 28  1  0  0  0  0
 24  7  1  0  0  0  0
 24 25  2  0  0  0  0
 26 23  2  0  0  0  0
 27 26  1  0  0  0  0
 27 29  1  0  0  0  0
 28 25  1  0  0  0  0
 29 24  1  0  0  0  0
 30 31  1  0  0  0  0
M  END
>  <MODEL>
1

>  <REMARK>
 VINA RESULT:      -9.8      0.000      0.000
  Name = 
  3 active torsions:
  status: ('A' for Active; 'I' for Inactive)
    1  A    between atoms: C_3  and  O_19
    2  A    between atoms: C_4  and  C_15
    3  A    between atoms: C_21  and  N_26
                            x       y       z     vdW  Elec       q    Type
                         _______ _______ _______ _____ _____    ______ ____

>  <TORSDO>
F 3

$$$$
=
 OpenBabel10222420273D

 31 35  0  0  1  0  0  0  0  0999 V2000
  185.8930  178.2610  143.6240 C   0  0  0  0  0  3  0  0  0  0  0  0
  189.9950  176.8590  146.1240 C   0  0  0  0  0  2  0  0  0  0  0  0
  190.3190  178.0750  144.1740 C   0  0  0  0  0  0  0  0  0  0  0  0
  187.9450  177.9020  144.8810 C   0  0  0  0  0  0  0  0  0  0  0  0
  189.3950  177.6240  144.9990 C   0  0  0  0  0  0  0  0  0  0  0  0
  191.8800  175.5170  145.5460 O   0  0  0  0  0  1  0  0  0  0  0  0
  189.1470  178.2630  142.0420 C   0  0  0  0  0  0  0  0  0  0  0  0
  191.4890  176.8280  145.8160 C   0  0  1  0  0  3  0  0  0  0  0  0
  187.9290  177.9280  142.3590 N   0  0  0  0  0  0  0  0  0  0  0  0
  185.1570  178.3280  144.8070 C   0  0  0  0  0  0  0  0  0  0  0  0
  191.6900  177.6850  144.5710 C   0  0  0  0  0  2  0  0  0  0  0  0
  185.8170  178.1710  146.0300 C   0  0  0  0  0  3  0  0  0  0  0  0
  187.2790  178.0690  143.6340 C   0  0  0  0  0  0  0  0  0  0  0  0
  187.1940  177.9530  146.0640 C   0  0  0  0  0  3  0  0  0  0  0  0
  190.0330  178.9670  143.0210 C   0  0  0  0  0  2  0  0  0  0  0  0
  182.9460  178.6600  143.5410 C   0  0  0  0  0  0  0  0  0  0  0  0
  183.4500  178.5710  142.3580 N   0  0  0  0  0  0  0  0  0  0  0  0
  181.1770  178.9370  143.6400 S   0  0  0  0  0  0  0  0  0  0  0  0
  181.0820  178.9370  141.8170 C   0  0  0  0  0  2  0  0  0  0  0  0
  182.4710  178.7150  141.3470 C   0  0  0  0  0  0  0  0  0  0  0  0
  182.7700  178.6580  140.1260 O   0  0  0  0  0  0  0  0  0  0  0  0
  183.7410  178.5440  144.7280 N   0  0  0  0  0  2  0  0  0  0  0  0
  189.5370  176.4320  138.0090 C   0  0  0  0  0  0  0  0  0  0  0  0
  189.6540  177.9910  140.6800 C   0  0  0  0  0  0  0  0  0  0  0  0
  188.8910  178.2190  139.6090 C   0  0  0  0  0  3  0  0  0  0  0  0
  190.2380  175.6650  138.8000 N   0  0  0  0  0  0  0  0  0  0  0  0
  190.9290  176.0570  139.9670 N   0  0  0  0  0  2  0  0  0  0  0  0
  189.3910  177.9170  138.2330 C   0  0  0  0  0  2  0  0  0  0  0  0
  191.0230  177.4200  140.4750 C   0  0  0  0  0  2  0  0  0  0  0  0
  188.9200  175.8390  136.9060 O   0  0  0  0  0  0  0  0  0  0  0  0
  187.5340  175.5220  136.8800 C   0  0  0  0  0  1  0  0  0  0  0  0
  1 13  2  0  0  0  0
  1 10  1  0  0  0  0
  3 11  1  0  0  0  0
  3  5  2  0  0  0  0
  4  5  1  0  0  0  0
  4 14  2  0  0  0  0
  5  2  1  0  0  0  0
  7  9  2  0  0  0  0
  7 15  1  0  0  0  0
  8  6  1  6  0  0  0
  8  2  1  0  0  0  0
  9 13  1  0  0  0  0
 10 12  2  0  0  0  0
 11  8  1  0  0  0  0
 12 14  1  0  0  0  0
 13  4  1  0  0  0  0
 15  3  1  0  0  0  0
 16 18  1  0  0  0  0
 16 22  1  0  0  0  0
 17 16  2  0  0  0  0
 19 18  1  0  0  0  0
 20 19  1  0  0  0  0
 20 17  1  0  0  0  0
 21 20  2  0  0  0  0
 22 10  1  0  0  0  0
 23 28  1  0  0  0  0
 23 26  2  0  0  0  0
 24  7  1  0  0  0  0
 25 24  2  0  0  0  0
 26 27  1  0  0  0  0
 27 29  1  0  0  0  0
 28 25  1  0  0  0  0
 29 24  1  0  0  0  0
 30 23  1  0  0  0  0
 31 30  1  0  0  0  0
M  END
>  <MODEL>
2

>  <REMARK>
 VINA RESULT:      -9.0      3.049      7.177
  Name = 
  3 active torsions:
  status: ('A' for Active; 'I' for Inactive)
    1  A    between atoms: C_3  and  O_19
    2  A    between atoms: C_4  and  C_15
    3  A    between atoms: C_21  and  N_26
                            x       y       z     vdW  Elec       q    Type
                         _______ _______ _______ _____ _____    ______ ____

>  <TORSDO>
F 3

$$$$
=
 OpenBabel10222420273D

 31 35  0  0  1  0  0  0  0  0999 V2000
  185.5280  178.1310  143.8530 C   0  0  0  0  0  3  0  0  0  0  0  0
  189.7400  177.2250  146.3980 C   0  0  0  0  0  2  0  0  0  0  0  0
  189.9740  178.0030  144.2240 C   0  0  0  0  0  0  0  0  0  0  0  0
  187.6370  178.0130  145.0610 C   0  0  0  0  0  0  0  0  0  0  0  0
  189.0890  177.7460  145.1670 C   0  0  0  0  0  0  0  0  0  0  0  0
  191.5900  175.7660  146.0260 O   0  0  0  0  0  1  0  0  0  0  0  0
  188.7010  177.7590  142.1560 C   0  0  0  0  0  0  0  0  0  0  0  0
  191.2180  177.1100  146.0350 C   0  0  1  0  0  3  0  0  0  0  0  0
  187.4990  177.5140  142.5930 N   0  0  0  0  0  0  0  0  0  0  0  0
  184.8500  178.4530  145.0300 C   0  0  0  0  0  0  0  0  0  0  0  0
  191.3620  177.6850  144.6300 C   0  0  0  0  0  2  0  0  0  0  0  0
  185.5680  178.5460  146.2270 C   0  0  0  0  0  3  0  0  0  0  0  0
  186.9120  177.9260  143.8400 C   0  0  0  0  0  0  0  0  0  0  0  0
  186.9430  178.3210  146.2410 C   0  0  0  0  0  3  0  0  0  0  0  0
  189.6360  178.6400  142.9250 C   0  0  0  0  0  2  0  0  0  0  0  0
  182.6150  178.7630  143.7990 C   0  0  0  0  0  0  0  0  0  0  0  0
  183.0970  178.6530  142.6090 N   0  0  0  0  0  0  0  0  0  0  0  0
  180.8490  179.0410  143.9270 S   0  0  0  0  0  0  0  0  0  0  0  0
  180.7200  179.0090  142.1050 C   0  0  0  0  0  2  0  0  0  0  0  0
  182.1000  178.7800  141.6140 C   0  0  0  0  0  0  0  0  0  0  0  0
  182.3750  178.7020  140.3890 O   0  0  0  0  0  0  0  0  0  0  0  0
  183.4320  178.6670  144.9730 N   0  0  0  0  0  2  0  0  0  0  0  0
  191.1480  177.0750  138.5080 C   0  0  0  0  0  0  0  0  0  0  0  0
  189.1400  177.2020  140.8590 C   0  0  0  0  0  0  0  0  0  0  0  0
  190.2750  176.5070  140.7620 C   0  0  0  0  0  3  0  0  0  0  0  0
  190.3650  178.0760  138.2090 N   0  0  0  0  0  0  0  0  0  0  0  0
  189.0650  178.3120  138.7050 N   0  0  0  0  0  2  0  0  0  0  0  0
  190.7340  175.9680  139.4460 C   0  0  0  0  0  2  0  0  0  0  0  0
  188.3370  177.4380  139.6170 C   0  0  0  0  0  2  0  0  0  0  0  0
  192.4090  177.0350  137.9100 O   0  0  0  0  0  0  0  0  0  0  0  0
  193.2300  175.8740  137.9280 C   0  0  0  0  0  1  0  0  0  0  0  0
  1 10  1  0  0  0  0
  3 11  1  0  0  0  0
  3  5  2  0  0  0  0
  4  5  1  0  0  0  0
  4 14  2  0  0  0  0
  5  2  1  0  0  0  0
  7  9  2  0  0  0  0
  7 15  1  0  0  0  0
  8  6  1  6  0  0  0
  8  2  1  0  0  0  0
  9 13  1  0  0  0  0
 10 12  2  0  0  0  0
 11  8  1  0  0  0  0
 12 14  1  0  0  0  0
 13  1  2  0  0  0  0
 13  4  1  0  0  0  0
 15  3  1  0  0  0  0
 16 18  1  0  0  0  0
 16 22  1  0  0  0  0
 17 16  2  0  0  0  0
 19 18  1  0  0  0  0
 20 19  1  0  0  0  0
 20 17  1  0  0  0  0
 21 20  2  0  0  0  0
 22 10  1  0  0  0  0
 23 28  1  0  0  0  0
 24  7  1  0  0  0  0
 25 24  2  0  0  0  0
 26 23  2  0  0  0  0
 26 27  1  0  0  0  0
 27 29  1  0  0  0  0
 28 25  1  0  0  0  0
 29 24  1  0  0  0  0
 30 31  1  0  0  0  0
 30 23  1  0  0  0  0
M  END
>  <MODEL>
3

>  <REMARK>
 VINA RESULT:      -8.5      3.134      7.636
  Name = 
  3 active torsions:
  status: ('A' for Active; 'I' for Inactive)
    1  A    between atoms: C_3  and  O_19
    2  A    between atoms: C_4  and  C_15
    3  A    between atoms: C_21  and  N_26
                            x       y       z     vdW  Elec       q    Type
                         _______ _______ _______ _____ _____    ______ ____

>  <TORSDO>
F 3

$$$$
=
 OpenBabel10222420273D

 31 35  0  0  1  0  0  0  0  0999 V2000
  191.9730  175.7910  137.9430 C   0  0  0  0  0  3  0  0  0  0  0  0
  187.2660  177.1020  136.8630 C   0  0  0  0  0  2  0  0  0  0  0  0
  188.1390  177.8810  138.8680 C   0  0  0  0  0  0  0  0  0  0  0  0
  189.7960  176.7390  137.4140 C   0  0  0  0  0  0  0  0  0  0  0  0
  188.4420  177.2260  137.7650 C   0  0  0  0  0  0  0  0  0  0  0  0
  185.1800  176.7470  137.9630 O   0  0  0  0  0  1  0  0  0  0  0  0
  189.7350  177.0270  140.5040 C   0  0  0  0  0  0  0  0  0  0  0  0
  186.1140  177.7300  137.6430 C   0  0  1  0  0  3  0  0  0  0  0  0
  190.4680  176.2220  139.7890 N   0  0  0  0  0  0  0  0  0  0  0  0
  192.3030  175.7430  136.5890 C   0  0  0  0  0  0  0  0  0  0  0  0
  186.7180  178.2940  138.9250 C   0  0  0  0  0  2  0  0  0  0  0  0
  191.3710  176.1860  135.6440 C   0  0  0  0  0  3  0  0  0  0  0  0
  190.7430  176.2970  138.3790 C   0  0  0  0  0  0  0  0  0  0  0  0
  190.1300  176.6700  136.0540 C   0  0  0  0  0  3  0  0  0  0  0  0
  189.1340  178.2590  139.9040 C   0  0  0  0  0  2  0  0  0  0  0  0
  194.7100  175.9710  135.7180 C   0  0  0  0  0  0  0  0  0  0  0  0
  194.6810  177.2510  135.5670 N   0  0  0  0  0  0  0  0  0  0  0  0
  196.2420  175.1470  135.2850 S   0  0  0  0  0  0  0  0  0  0  0  0
  196.9700  176.7580  134.8250 C   0  0  0  0  0  2  0  0  0  0  0  0
  195.9050  177.7590  135.0730 C   0  0  0  0  0  0  0  0  0  0  0  0
  196.0710  178.9880  134.8590 O   0  0  0  0  0  0  0  0  0  0  0  0
  193.5870  175.2270  136.2090 N   0  0  0  0  0  2  0  0  0  0  0  0
  188.6300  177.6410  144.7660 C   0  0  0  0  0  0  0  0  0  0  0  0
  189.5300  176.7530  141.9420 C   0  0  0  0  0  0  0  0  0  0  0  0
  188.3050  176.7530  142.4700 C   0  0  0  0  0  3  0  0  0  0  0  0
  189.8570  178.0760  144.6680 N   0  0  0  0  0  0  0  0  0  0  0  0
  190.8540  177.6080  143.7840 N   0  0  0  0  0  2  0  0  0  0  0  0
  188.0990  176.5040  143.9300 C   0  0  0  0  0  2  0  0  0  0  0  0
  190.6990  176.5030  142.8450 C   0  0  0  0  0  2  0  0  0  0  0  0
  187.7960  178.2530  145.7040 O   0  0  0  0  0  0  0  0  0  0  0  0
  186.4440  177.8610  145.9010 C   0  0  0  0  0  1  0  0  0  0  0  0
  1 13  1  0  0  0  0
  2  8  1  0  0  0  0
  2  5  1  0  0  0  0
  3 11  1  0  0  0  0
  3 15  1  0  0  0  0
  4  5  1  0  0  0  0
  4 13  2  0  0  0  0
  5  3  2  0  0  0  0
  7 24  1  0  0  0  0
  8  6  1  1  0  0  0
  8 11  1  0  0  0  0
  9  7  2  0  0  0  0
 10  1  2  0  0  0  0
 12 14  2  0  0  0  0
 12 10  1  0  0  0  0
 13  9  1  0  0  0  0
 14  4  1  0  0  0  0
 15  7  1  0  0  0  0
 16 22  1  0  0  0  0
 17 16  2  0  0  0  0
 18 16  1  0  0  0  0
 19 20  1  0  0  0  0
 19 18  1  0  0  0  0
 20 17  1  0  0  0  0
 21 20  2  0  0  0  0
 22 10  1  0  0  0  0
 23 30  1  0  0  0  0
 24 25  2  0  0  0  0
 24 29  1  0  0  0  0
 25 28  1  0  0  0  0
 26 23  2  0  0  0  0
 27 26  1  0  0  0  0
 28 23  1  0  0  0  0
 29 27  1  0  0  0  0
 30 31  1  0  0  0  0
M  END
>  <MODEL>
4

>  <REMARK>
 VINA RESULT:      -8.2      3.452      6.617
  Name = 
  3 active torsions:
  status: ('A' for Active; 'I' for Inactive)
    1  A    between atoms: C_3  and  O_19
    2  A    between atoms: C_4  and  C_15
    3  A    between atoms: C_21  and  N_26
                            x       y       z     vdW  Elec       q    Type
                         _______ _______ _______ _____ _____    ______ ____

>  <TORSDO>
F 3

$$$$
=
 OpenBabel10222420273D

 31 35  0  0  1  0  0  0  0  0999 V2000
  185.6050  178.2940  143.5900 C   0  0  0  0  0  3  0  0  0  0  0  0
  180.8640  179.8750  143.3330 C   0  0  0  0  0  2  0  0  0  0  0  0
  181.5740  178.4130  141.6750 C   0  0  0  0  0  0  0  0  0  0  0  0
  183.2150  178.7470  143.5090 C   0  0  0  0  0  0  0  0  0  0  0  0
  181.9370  178.9930  142.8030 C   0  0  0  0  0  0  0  0  0  0  0  0
  179.6310  181.0750  141.6810 O   0  0  0  0  0  1  0  0  0  0  0  0
  183.6900  177.9930  140.5350 C   0  0  0  0  0  0  0  0  0  0  0  0
  179.7630  179.8220  142.2770 C   0  0  1  0  0  3  0  0  0  0  0  0
  184.5660  178.4030  141.4070 N   0  0  0  0  0  0  0  0  0  0  0  0
  185.5970  178.3990  144.9810 C   0  0  0  0  0  0  0  0  0  0  0  0
  180.2190  178.8090  141.2310 C   0  0  0  0  0  2  0  0  0  0  0  0
  184.3950  178.6890  145.6360 C   0  0  0  0  0  3  0  0  0  0  0  0
  184.4340  178.4440  142.8380 C   0  0  0  0  0  0  0  0  0  0  0  0
  183.2210  178.8670  144.9060 C   0  0  0  0  0  3  0  0  0  0  0  0
  182.3910  177.3920  140.9720 C   0  0  0  0  0  2  0  0  0  0  0  0
  188.0430  177.6440  145.1960 C   0  0  0  0  0  0  0  0  0  0  0  0
  188.1610  177.2140  143.9870 N   0  0  0  0  0  0  0  0  0  0  0  0
  189.4900  177.4940  146.2450 S   0  0  0  0  0  0  0  0  0  0  0  0
  190.4070  176.7350  144.8590 C   0  0  0  0  0  2  0  0  0  0  0  0
  189.4510  176.6930  143.7270 C   0  0  0  0  0  0  0  0  0  0  0  0
  189.7590  176.2250  142.6010 O   0  0  0  0  0  0  0  0  0  0  0  0
  186.8280  178.2180  145.6950 N   0  0  0  0  0  2  0  0  0  0  0  0
  185.3250  176.9440  136.5360 C   0  0  0  0  0  0  0  0  0  0  0  0
  183.9950  178.0760  139.0910 C   0  0  0  0  0  0  0  0  0  0  0  0
  183.5320  177.1580  138.2400 C   0  0  0  0  0  3  0  0  0  0  0  0
  186.2810  177.6040  137.1320 N   0  0  0  0  0  0  0  0  0  0  0  0
  186.1330  178.6290  138.0910 N   0  0  0  0  0  2  0  0  0  0  0  0
  183.8640  177.2250  136.7840 C   0  0  0  0  0  2  0  0  0  0  0  0
  184.8630  179.1730  138.5570 C   0  0  0  0  0  2  0  0  0  0  0  0
  185.6900  175.9550  135.6210 O   0  0  0  0  0  0  0  0  0  0  0  0
  187.0450  175.6170  135.3540 C   0  0  0  0  0  1  0  0  0  0  0  0
  1 10  1  0  0  0  0
  3  5  2  0  0  0  0
  4 14  2  0  0  0  0
  5  2  1  0  0  0  0
  5  4  1  0  0  0  0
  7 15  1  0  0  0  0
  7  9  2  0  0  0  0
  8  6  1  6  0  0  0
  8  2  1  0  0  0  0
  9 13  1  0  0  0  0
 10 12  2  0  0  0  0
 10 22  1  0  0  0  0
 11  3  1  0  0  0  0
 11  8  1  0  0  0  0
 13  4  1  0  0  0  0
 13  1  2  0  0  0  0
 14 12  1  0  0  0  0
 15  3  1  0  0  0  0
 16 22  1  0  0  0  0
 16 18  1  0  0  0  0
 17 16  2  0  0  0  0
 19 18  1  0  0  0  0
 20 17  1  0  0  0  0
 20 19  1  0  0  0  0
 21 20  2  0  0  0  0
 23 28  1  0  0  0  0
 23 26  2  0  0  0  0
 24  7  1  0  0  0  0
 25 24  2  0  0  0  0
 26 27  1  0  0  0  0
 27 29  1  0  0  0  0
 28 25  1  0  0  0  0
 29 24  1  0  0  0  0
 30 23  1  0  0  0  0
 31 30  1  0  0  0  0
M  END
>  <MODEL>
5

>  <REMARK>
 VINA RESULT:      -8.2      3.397      7.235
  Name = 
  3 active torsions:
  status: ('A' for Active; 'I' for Inactive)
    1  A    between atoms: C_3  and  O_19
    2  A    between atoms: C_4  and  C_15
    3  A    between atoms: C_21  and  N_26
                            x       y       z     vdW  Elec       q    Type
                         _______ _______ _______ _____ _____    ______ ____

>  <TORSDO>
F 3

$$$$
=
 OpenBabel10222420273D

 31 35  0  0  1  0  0  0  0  0999 V2000
  188.8270  177.7660  139.8890 C   0  0  0  0  0  3  0  0  0  0  0  0
  190.5790  177.4450  144.5650 C   0  0  0  0  0  2  0  0  0  0  0  0
  188.3040  177.0880  144.2700 C   0  0  0  0  0  0  0  0  0  0  0  0
  189.5850  177.2940  142.1530 C   0  0  0  0  0  0  0  0  0  0  0  0
  189.4360  177.2930  143.6260 C   0  0  0  0  0  0  0  0  0  0  0  0
  190.0840  178.6260  146.5780 O   0  0  0  0  0  1  0  0  0  0  0  0
  186.6060  177.9440  142.7400 C   0  0  0  0  0  0  0  0  0  0  0  0
  189.9470  177.3870  145.9540 C   0  0  1  0  0  3  0  0  0  0  0  0
  187.3120  178.2910  141.7020 N   0  0  0  0  0  0  0  0  0  0  0  0
  190.0470  177.3320  139.3690 C   0  0  0  0  0  0  0  0  0  0  0  0
  188.4670  177.0870  145.7410 C   0  0  0  0  0  2  0  0  0  0  0  0
  191.0410  176.8870  140.2460 C   0  0  0  0  0  3  0  0  0  0  0  0
  188.5670  177.7410  141.2640 C   0  0  0  0  0  0  0  0  0  0  0  0
  190.8130  176.8760  141.6210 C   0  0  0  0  0  3  0  0  0  0  0  0
  187.0140  176.7870  143.5970 C   0  0  0  0  0  2  0  0  0  0  0  0
  189.5370  176.6170  136.9550 C   0  0  0  0  0  0  0  0  0  0  0  0
  188.5930  175.7910  137.2520 N   0  0  0  0  0  0  0  0  0  0  0  0
  189.9300  176.7920  135.2140 S   0  0  0  0  0  0  0  0  0  0  0  0
  188.6360  175.5700  134.8060 C   0  0  0  0  0  2  0  0  0  0  0  0
  188.0440  175.1700  136.1060 C   0  0  0  0  0  0  0  0  0  0  0  0
  187.1110  174.3310  136.1920 O   0  0  0  0  0  0  0  0  0  0  0  0
  190.2450  177.3690  137.9490 N   0  0  0  0  0  2  0  0  0  0  0  0
  182.3330  178.6920  143.7130 C   0  0  0  0  0  0  0  0  0  0  0  0
  185.3570  178.6690  143.0560 C   0  0  0  0  0  0  0  0  0  0  0  0
  184.7550  178.5110  144.2350 C   0  0  0  0  0  3  0  0  0  0  0  0
  182.3790  178.6290  142.4100 N   0  0  0  0  0  0  0  0  0  0  0  0
  183.4610  178.9980  141.5810 N   0  0  0  0  0  2  0  0  0  0  0  0
  183.4750  179.2210  144.5450 C   0  0  0  0  0  2  0  0  0  0  0  0
  184.7210  179.5690  142.0420 C   0  0  0  0  0  2  0  0  0  0  0  0
  181.1630  178.2650  144.3440 O   0  0  0  0  0  0  0  0  0  0  0  0
  179.8680  178.6360  143.8930 C   0  0  0  0  0  1  0  0  0  0  0  0
  1 13  1  0  0  0  0
  2  8  1  0  0  0  0
  3 11  1  0  0  0  0
  4  5  1  0  0  0  0
  5  3  2  0  0  0  0
  5  2  1  0  0  0  0
  7 24  1  0  0  0  0
  7 15  1  0  0  0  0
  8  6  1  6  0  0  0
  9  7  2  0  0  0  0
 10  1  2  0  0  0  0
 10 12  1  0  0  0  0
 11  8  1  0  0  0  0
 12 14  2  0  0  0  0
 13  9  1  0  0  0  0
 13  4  2  0  0  0  0
 14  4  1  0  0  0  0
 15  3  1  0  0  0  0
 16 17  2  0  0  0  0
 16 22  1  0  0  0  0
 18 16  1  0  0  0  0
 19 18  1  0  0  0  0
 19 20  1  0  0  0  0
 20 21  2  0  0  0  0
 20 17  1  0  0  0  0
 22 10  1  0  0  0  0
 23 30  1  0  0  0  0
 23 28  1  0  0  0  0
 24 25  2  0  0  0  0
 25 28  1  0  0  0  0
 26 23  2  0  0  0  0
 27 29  1  0  0  0  0
 27 26  1  0  0  0  0
 29 24  1  0  0  0  0
 31 30  1  0  0  0  0
M  END
>  <MODEL>
6

>  <REMARK>
 VINA RESULT:      -8.1      1.748      2.043
  Name = 
  3 active torsions:
  status: ('A' for Active; 'I' for Inactive)
    1  A    between atoms: C_3  and  O_19
    2  A    between atoms: C_4  and  C_15
    3  A    between atoms: C_21  and  N_26
                            x       y       z     vdW  Elec       q    Type
                         _______ _______ _______ _____ _____    ______ ____

>  <TORSDO>
F 3

$$$$
=
 OpenBabel10222420273D

 31 35  0  0  1  0  0  0  0  0999 V2000
  190.2450  176.9360  139.1180 C   0  0  0  0  0  3  0  0  0  0  0  0
  185.4640  178.1700  138.3080 C   0  0  0  0  0  2  0  0  0  0  0  0
  186.3440  178.6950  140.3900 C   0  0  0  0  0  0  0  0  0  0  0  0
  188.0180  177.8490  138.7620 C   0  0  0  0  0  0  0  0  0  0  0  0
  186.6520  178.2180  139.2000 C   0  0  0  0  0  0  0  0  0  0  0  0
  183.4190  177.5670  139.3770 O   0  0  0  0  0  1  0  0  0  0  0  0
  188.0110  177.6910  141.8620 C   0  0  0  0  0  0  0  0  0  0  0  0
  184.3030  178.6280  139.1860 C   0  0  1  0  0  3  0  0  0  0  0  0
  188.7620  177.0300  141.0280 N   0  0  0  0  0  0  0  0  0  0  0  0
  190.5480  177.0960  137.7650 C   0  0  0  0  0  0  0  0  0  0  0  0
  184.9090  179.0300  140.5270 C   0  0  0  0  0  2  0  0  0  0  0  0
  189.5770  177.6260  136.9080 C   0  0  0  0  0  3  0  0  0  0  0  0
  189.0040  177.3180  139.6400 C   0  0  0  0  0  0  0  0  0  0  0  0
  188.3260  177.9900  137.4020 C   0  0  0  0  0  3  0  0  0  0  0  0
  187.3440  178.9660  141.4550 C   0  0  0  0  0  2  0  0  0  0  0  0
  192.1960  175.4620  136.6640 C   0  0  0  0  0  0  0  0  0  0  0  0
  191.3350  174.5310  136.4350 N   0  0  0  0  0  0  0  0  0  0  0  0
  193.8830  175.1390  136.1480 S   0  0  0  0  0  0  0  0  0  0  0  0
  193.3700  173.5010  135.5240 C   0  0  0  0  0  2  0  0  0  0  0  0
  191.9160  173.4080  135.8020 C   0  0  0  0  0  0  0  0  0  0  0  0
  191.2350  172.3950  135.4970 O   0  0  0  0  0  0  0  0  0  0  0  0
  191.8440  176.7000  137.2960 N   0  0  0  0  0  2  0  0  0  0  0  0
  187.7600  177.7070  146.3010 C   0  0  0  0  0  0  0  0  0  0  0  0
  187.8490  177.2050  143.2490 C   0  0  0  0  0  0  0  0  0  0  0  0
  186.8270  177.6140  144.0020 C   0  0  0  0  0  3  0  0  0  0  0  0
  189.0310  177.5750  146.0330 N   0  0  0  0  0  0  0  0  0  0  0  0
  189.5980  176.9410  144.9070 N   0  0  0  0  0  2  0  0  0  0  0  0
  186.6770  177.1460  145.4140 C   0  0  0  0  0  2  0  0  0  0  0  0
  188.8510  176.2680  143.8510 C   0  0  0  0  0  2  0  0  0  0  0  0
  187.4090  178.3830  147.4710 O   0  0  0  0  0  0  0  0  0  0  0  0
  188.1250  178.2320  148.6900 C   0  0  0  0  0  1  0  0  0  0  0  0
  1 13  1  0  0  0  0
  2  8  1  0  0  0  0
  2  5  1  0  0  0  0
  3 11  1  0  0  0  0
  3 15  1  0  0  0  0
  4  5  1  0  0  0  0
  4 13  2  0  0  0  0
  5  3  2  0  0  0  0
  7 24  1  0  0  0  0
  8  6  1  1  0  0  0
  8 11  1  0  0  0  0
  9  7  2  0  0  0  0
 10  1  2  0  0  0  0
 12 14  2  0  0  0  0
 12 10  1  0  0  0  0
 13  9  1  0  0  0  0
 14  4  1  0  0  0  0
 15  7  1  0  0  0  0
 16 22  1  0  0  0  0
 17 16  2  0  0  0  0
 18 16  1  0  0  0  0
 19 20  1  0  0  0  0
 19 18  1  0  0  0  0
 20 17  1  0  0  0  0
 21 20  2  0  0  0  0
 22 10  1  0  0  0  0
 23 30  1  0  0  0  0
 24 29  1  0  0  0  0
 24 25  2  0  0  0  0
 25 28  1  0  0  0  0
 26 23  2  0  0  0  0
 27 26  1  0  0  0  0
 28 23  1  0  0  0  0
 29 27  1  0  0  0  0
 30 31  1  0  0  0  0
M  END
>  <MODEL>
7

>  <REMARK>
 VINA RESULT:      -8.0      2.707      5.591
  Name = 
  3 active torsions:
  status: ('A' for Active; 'I' for Inactive)
    1  A    between atoms: C_3  and  O_19
    2  A    between atoms: C_4  and  C_15
    3  A    between atoms: C_21  and  N_26
                            x       y       z     vdW  Elec       q    Type
                         _______ _______ _______ _____ _____    ______ ____

>  <TORSDO>
F 3

$$$$
=
 OpenBabel10222420273D

 31 35  0  0  1  0  0  0  0  0999 V2000
  184.5680  178.8320  142.1470 C   0  0  0  0  0  3  0  0  0  0  0  0
  188.6560  176.5390  143.9000 C   0  0  0  0  0  2  0  0  0  0  0  0
  188.9270  177.8790  142.0240 C   0  0  0  0  0  0  0  0  0  0  0  0
  186.6730  178.0200  143.0570 C   0  0  0  0  0  0  0  0  0  0  0  0
  188.0550  177.5010  142.9390 C   0  0  0  0  0  0  0  0  0  0  0  0
  190.1860  174.9760  142.9480 O   0  0  0  0  0  1  0  0  0  0  0  0
  187.5360  178.4700  140.1090 C   0  0  0  0  0  0  0  0  0  0  0  0
  190.0680  176.2980  143.3750 C   0  0  1  0  0  3  0  0  0  0  0  0
  186.3310  178.3050  140.5750 N   0  0  0  0  0  0  0  0  0  0  0  0
  184.0170  178.8960  143.4270 C   0  0  0  0  0  0  0  0  0  0  0  0
  190.2500  177.2340  142.1840 C   0  0  0  0  0  2  0  0  0  0  0  0
  184.7950  178.5100  144.5240 C   0  0  0  0  0  3  0  0  0  0  0  0
  185.8890  178.4180  141.9390 C   0  0  0  0  0  0  0  0  0  0  0  0
  186.1050  178.0710  144.3380 C   0  0  0  0  0  3  0  0  0  0  0  0
  188.6510  178.9180  141.0000 C   0  0  0  0  0  2  0  0  0  0  0  0
  181.5530  179.0510  142.7140 C   0  0  0  0  0  0  0  0  0  0  0  0
  181.6660  178.3070  141.6670 N   0  0  0  0  0  0  0  0  0  0  0  0
  179.9220  179.7100  143.0580 S   0  0  0  0  0  0  0  0  0  0  0  0
  179.2760  178.8680  141.5720 C   0  0  0  0  0  2  0  0  0  0  0  0
  180.4380  178.1610  140.9800 C   0  0  0  0  0  0  0  0  0  0  0  0
  180.3460  177.4710  139.9320 O   0  0  0  0  0  0  0  0  0  0  0  0
  182.6620  179.3440  143.5740 N   0  0  0  0  0  2  0  0  0  0  0  0
  188.2610  176.3920  136.2460 C   0  0  0  0  0  0  0  0  0  0  0  0
  187.8040  178.2600  138.6700 C   0  0  0  0  0  0  0  0  0  0  0  0
  186.9010  177.6680  137.8870 C   0  0  0  0  0  3  0  0  0  0  0  0
  189.4360  176.4840  136.8080 N   0  0  0  0  0  0  0  0  0  0  0  0
  189.8810  177.5030  137.6780 N   0  0  0  0  0  2  0  0  0  0  0  0
  187.1820  177.4290  136.4380 C   0  0  0  0  0  2  0  0  0  0  0  0
  189.1100  178.6770  138.0690 C   0  0  0  0  0  2  0  0  0  0  0  0
  188.0180  175.2920  135.4220 O   0  0  0  0  0  0  0  0  0  0  0  0
  187.1080  174.2570  135.7720 C   0  0  0  0  0  1  0  0  0  0  0  0
  1 10  1  0  0  0  0
  3 11  1  0  0  0  0
  3  5  2  0  0  0  0
  4 14  2  0  0  0  0
  5  4  1  0  0  0  0
  5  2  1  0  0  0  0
  7  9  2  0  0  0  0
  7 15  1  0  0  0  0
  8  6  1  6  0  0  0
  8  2  1  0  0  0  0
  9 13  1  0  0  0  0
 10 22  1  0  0  0  0
 10 12  2  0  0  0  0
 11  8  1  0  0  0  0
 13  1  2  0  0  0  0
 13  4  1  0  0  0  0
 14 12  1  0  0  0  0
 15  3  1  0  0  0  0
 16 18  1  0  0  0  0
 16 22  1  0  0  0  0
 17 16  2  0  0  0  0
 19 18  1  0  0  0  0
 20 19  1  0  0  0  0
 20 17  1  0  0  0  0
 21 20  2  0  0  0  0
 23 28  1  0  0  0  0
 23 26  2  0  0  0  0
 24  7  1  0  0  0  0
 25 24  2  0  0  0  0
 26 27  1  0  0  0  0
 27 29  1  0  0  0  0
 28 25  1  0  0  0  0
 29 24  1  0  0  0  0
 30 31  1  0  0  0  0
 30 23  1  0  0  0  0
M  END
>  <MODEL>
8

>  <REMARK>
 VINA RESULT:      -8.0      3.643      7.833
  Name = 
  3 active torsions:
  status: ('A' for Active; 'I' for Inactive)
    1  A    between atoms: C_3  and  O_19
    2  A    between atoms: C_4  and  C_15
    3  A    between atoms: C_21  and  N_26
                            x       y       z     vdW  Elec       q    Type
                         _______ _______ _______ _____ _____    ______ ____

>  <TORSDO>
F 3

$$$$
=
 OpenBabel10222420273D

 31 35  0  0  1  0  0  0  0  0999 V2000
  185.7590  178.5370  140.1600 C   0  0  0  0  0  3  0  0  0  0  0  0
  181.1150  178.5610  142.0220 C   0  0  0  0  0  2  0  0  0  0  0  0
  182.8310  179.1390  143.4740 C   0  0  0  0  0  0  0  0  0  0  0  0
  183.5450  178.8720  141.1110 C   0  0  0  0  0  0  0  0  0  0  0  0
  182.5610  178.8460  142.2170 C   0  0  0  0  0  0  0  0  0  0  0  0
  180.0660  177.3760  143.8070 O   0  0  0  0  0  1  0  0  0  0  0  0
  185.1690  178.4890  143.7290 C   0  0  0  0  0  0  0  0  0  0  0  0
  180.5130  178.6390  143.4220 C   0  0  1  0  0  3  0  0  0  0  0  0
  185.4880  178.1060  142.5260 N   0  0  0  0  0  0  0  0  0  0  0  0
  185.2850  178.8690  138.8900 C   0  0  0  0  0  0  0  0  0  0  0  0
  181.6390  179.0830  144.3500 C   0  0  0  0  0  2  0  0  0  0  0  0
  183.9340  179.1930  138.7310 C   0  0  0  0  0  3  0  0  0  0  0  0
  184.9210  178.5480  141.2800 C   0  0  0  0  0  0  0  0  0  0  0  0
  183.0750  179.1870  139.8280 C   0  0  0  0  0  3  0  0  0  0  0  0
  184.1670  179.5780  143.9510 C   0  0  0  0  0  2  0  0  0  0  0  0
  186.6910  177.7040  137.0820 C   0  0  0  0  0  0  0  0  0  0  0  0
  186.3350  176.5030  137.3830 N   0  0  0  0  0  0  0  0  0  0  0  0
  187.8440  177.8810  135.7200 S   0  0  0  0  0  0  0  0  0  0  0  0
  187.8630  176.0680  135.5100 C   0  0  0  0  0  2  0  0  0  0  0  0
  186.9480  175.5380  136.5500 C   0  0  0  0  0  0  0  0  0  0  0  0
  186.7250  174.3080  136.6890 O   0  0  0  0  0  0  0  0  0  0  0  0
  186.2000  178.8530  137.7850 N   0  0  0  0  0  2  0  0  0  0  0  0
  187.7900  178.0420  147.2920 C   0  0  0  0  0  0  0  0  0  0  0  0
  185.8380  177.8770  144.8970 C   0  0  0  0  0  0  0  0  0  0  0  0
  185.6150  178.3350  146.1300 C   0  0  0  0  0  3  0  0  0  0  0  0
  188.5560  177.7690  146.2710 N   0  0  0  0  0  0  0  0  0  0  0  0
  188.1600  177.1950  145.0440 N   0  0  0  0  0  2  0  0  0  0  0  0
  186.3130  177.7350  147.3080 C   0  0  0  0  0  2  0  0  0  0  0  0
  186.8100  176.7520  144.7150 C   0  0  0  0  0  2  0  0  0  0  0  0
  188.3840  178.6230  148.4140 O   0  0  0  0  0  0  0  0  0  0  0  0
  189.7020  178.3010  148.8390 C   0  0  0  0  0  1  0  0  0  0  0  0
  1 13  1  0  0  0  0
  2  5  1  0  0  0  0
  2  8  1  0  0  0  0
  3 15  1  0  0  0  0
  3 11  1  0  0  0  0
  4 13  2  0  0  0  0
  4  5  1  0  0  0  0
  5  3  2  0  0  0  0
  7 15  1  0  0  0  0
  7 24  1  0  0  0  0
  8  6  1  1  0  0  0
  8 11  1  0  0  0  0
  9  7  2  0  0  0  0
 10  1  2  0  0  0  0
 12 10  1  0  0  0  0
 12 14  2  0  0  0  0
 13  9  1  0  0  0  0
 14  4  1  0  0  0  0
 16 17  2  0  0  0  0
 16 22  1  0  0  0  0
 18 16  1  0  0  0  0
 19 18  1  0  0  0  0
 19 20  1  0  0  0  0
 20 21  2  0  0  0  0
 20 17  1  0  0  0  0
 22 10  1  0  0  0  0
 23 28  1  0  0  0  0
 23 30  1  0  0  0  0
 24 25  2  0  0  0  0
 25 28  1  0  0  0  0
 26 23  2  0  0  0  0
 27 26  1  0  0  0  0
 29 24  1  0  0  0  0
 29 27  1  0  0  0  0
 30 31  1  0  0  0  0
M  END
>  <MODEL>
9

>  <REMARK>
 VINA RESULT:      -7.9      3.231      6.427
  Name = 
  3 active torsions:
  status: ('A' for Active; 'I' for Inactive)
    1  A    between atoms: C_3  and  O_19
    2  A    between atoms: C_4  and  C_15
    3  A    between atoms: C_21  and  N_26
                            x       y       z     vdW  Elec       q    Type
                         _______ _______ _______ _____ _____    ______ ____

>  <TORSDO>
F 3

$$$$
