=
 OpenBabel10222416233D

 38 42  0  0  1  0  0  0  0  0999 V2000
  180.7070  176.5980  136.7230 N   0  0  0  0  0  0  0  0  0  0  0  0
  180.1600  177.5140  139.5190 C   0  0  0  0  0  2  0  0  0  0  0  0
  183.1970  178.5060  143.6280 C   0  0  0  0  0  2  0  0  0  0  0  0
  178.9340  179.7660  142.9730 O   0  0  0  0  0  0  0  0  0  0  0  0
  181.5220  176.0860  135.7750 C   0  0  0  0  0  3  0  0  0  0  0  0
  184.5130  177.6730  138.5090 C   0  0  0  0  0  2  0  0  0  0  0  0
  180.6480  178.7810  141.6880 C   0  0  0  0  0  0  0  0  0  0  0  0
  182.7150  177.5620  136.8800 N   0  0  0  0  0  0  0  0  0  0  0  0
  182.3460  179.6070  144.2550 C   0  0  0  0  0  3  0  0  0  0  0  0
  183.1130  178.4170  142.1350 C   0  0  0  0  0  0  0  0  0  0  0  0
  181.4710  177.4870  137.3860 C   0  0  0  0  0  0  0  0  0  0  0  0
  183.8150  178.3800  137.3620 C   0  0  0  0  0  2  0  0  0  0  0  0
  180.9760  178.3350  138.5210 C   0  0  1  0  0  3  0  0  0  0  0  0
  185.1780  178.6190  140.7440 C   0  0  1  0  0  0  0  0  0  0  0  0
  180.1600  179.4960  142.8840 C   0  0  0  0  0  0  0  0  0  0  0  0
  181.0730  179.9780  143.9690 C   0  0  0  0  0  3  0  0  0  0  0  0
  184.5910  179.6040  139.9290 O   0  0  0  0  0  0  0  0  0  0  0  0
  179.7550  178.3210  140.6640 N   0  0  0  0  0  2  0  0  0  0  0  0
  184.1370  177.6690  141.3550 C   0  0  0  0  0  2  0  0  0  0  0  0
  181.9080  178.5110  141.6950 C   0  0  0  0  0  0  0  0  0  0  0  0
  185.3990  178.6490  139.2710 C   0  0  2  0  0  3  0  0  0  0  0  0
  182.7700  176.6780  135.8710 C   0  0  0  0  0  3  0  0  0  0  0  0
  180.0830  179.8130  137.9100 S   0  0  0  0  0  0  0  0  0  0  0  0
  181.2110  181.0360  138.6480 C   0  0  0  0  0  1  0  0  0  0  0  0
  185.7710  180.1420  142.4890 F   0  0  0  0  0  0  0  0  0  0  0  0
  186.2900  179.2040  141.6110 C   0  0  1  0  0  3  0  0  0  0  0  0
  186.2060  177.3850  144.6350 O   0  0  0  0  0  0  0  0  0  0  0  0
  187.0350  178.1310  142.3450 C   0  0  0  0  0  0  0  0  0  0  0  0
  186.6090  177.7470  143.5230 C   0  0  0  0  0  0  0  0  0  0  0  0
  188.2730  177.5270  141.7420 C   0  0  2  0  0  3  0  0  0  0  0  0
  189.7470  178.1390  138.3220 N   0  0  0  0  0  1  0  0  0  0  0  0
  189.6080  177.7550  139.6830 C   0  0  0  0  0  0  0  0  0  0  0  0
  190.7990  177.5010  141.8340 C   0  0  0  0  0  0  0  0  0  0  0  0
  189.4620  176.7300  144.0530 Cl  0  0  0  0  0  0  0  0  0  0  0  0
  189.5260  177.7690  142.6030 C   0  0  2  0  0  3  0  0  0  0  0  0
  191.8800  177.6260  142.3870 O   0  0  0  0  0  0  0  0  0  0  0  0
  190.7550  177.0900  140.3870 C   0  0  0  0  0  2  0  0  0  0  0  0
  188.4540  177.9680  140.3150 C   0  0  0  0  0  3  0  0  0  0  0  0
  1 11  2  0  0  0  0
  2 18  1  0  0  0  0
  3  9  1  0  0  0  0
  5 22  2  0  0  0  0
  5  1  1  0  0  0  0
  7 20  2  0  0  0  0
  7 15  1  0  0  0  0
  8 12  1  0  0  0  0
  8 11  1  0  0  0  0
 10  3  1  0  0  0  0
 11 13  1  0  0  0  0
 12  6  1  0  0  0  0
 13 23  1  6  0  0  0
 13  2  1  0  0  0  0
 14 19  1  0  0  0  0
 14 26  1  1  0  0  0
 15  4  2  0  0  0  0
 15 16  1  0  0  0  0
 16  9  2  0  0  0  0
 17 14  1  0  0  0  0
 18  7  1  0  0  0  0
 19 10  1  0  0  0  0
 20 10  2  0  0  0  0
 21  6  1  6  0  0  0
 21 17  1  0  0  0  0
 21 14  1  0  0  0  0
 22  8  1  0  0  0  0
 23 24  1  0  0  0  0
 26 28  1  0  0  0  0
 26 25  1  1  0  0  0
 28 29  2  0  0  0  0
 29 27  2  0  0  0  0
 30 28  1  1  0  0  0
 30 35  1  0  0  0  0
 31 32  1  0  0  0  0
 32 38  2  0  0  0  0
 32 37  1  0  0  0  0
 33 36  2  0  0  0  0
 33 35  1  0  0  0  0
 35 34  1  1  0  0  0
 37 33  1  0  0  0  0
 38 30  1  0  0  0  0
M  END
>  <MODEL>
1

>  <REMARK>
 VINA RESULT:      -7.0      0.000      0.000
  Name = 
  4 active torsions:
  status: ('A' for Active; 'I' for Inactive)
    1  A    between atoms: S_5  and  C_19
    2  A    between atoms: C_9  and  C_26
    3  A    between atoms: C_21  and  C_35
    4  A    between atoms: C_26  and  C_35
                            x       y       z     vdW  Elec       q    Type
                         _______ _______ _______ _____ _____    ______ ____

>  <TORSDO>
F 4

$$$$
=
 OpenBabel10222416233D

 38 42  0  0  1  0  0  0  0  0999 V2000
  184.5500  179.3530  138.1000 N   0  0  0  0  0  0  0  0  0  0  0  0
  187.0610  178.1710  136.9800 C   0  0  0  0  0  2  0  0  0  0  0  0
  191.7650  177.1890  138.9790 C   0  0  0  0  0  2  0  0  0  0  0  0
  189.9670  175.5420  135.2050 O   0  0  0  0  0  0  0  0  0  0  0  0
  183.8710  180.0200  139.0600 C   0  0  0  0  0  3  0  0  0  0  0  0
  187.2100  178.5490  141.4330 C   0  0  0  0  0  2  0  0  0  0  0  0
  189.2190  176.7990  137.0550 C   0  0  0  0  0  0  0  0  0  0  0  0
  185.1770  178.5960  140.1050 N   0  0  0  0  0  0  0  0  0  0  0  0
  192.0970  175.9590  138.1370 C   0  0  0  0  0  3  0  0  0  0  0  0
  190.3080  177.3840  139.2640 C   0  0  0  0  0  0  0  0  0  0  0  0
  185.3450  178.5010  138.7750 C   0  0  0  0  0  0  0  0  0  0  0  0
  185.8880  177.8630  141.1390 C   0  0  0  0  0  2  0  0  0  0  0  0
  186.2710  177.5200  138.1150 C   0  0  1  0  0  3  0  0  0  0  0  0
  189.4930  177.5080  141.6230 C   0  0  1  0  0  0  0  0  0  0  0  0
  190.2120  175.9460  136.3720 C   0  0  0  0  0  0  0  0  0  0  0  0
  191.4720  175.4800  137.0330 C   0  0  0  0  0  3  0  0  0  0  0  0
  188.5080  176.5330  141.3850 O   0  0  0  0  0  0  0  0  0  0  0  0
  188.0220  177.2400  136.4010 N   0  0  0  0  0  2  0  0  0  0  0  0
  189.8570  178.2930  140.3540 C   0  0  0  0  0  2  0  0  0  0  0  0
  189.5660  177.1980  138.2300 C   0  0  0  0  0  0  0  0  0  0  0  0
  188.1280  177.6150  142.2100 C   0  0  2  0  0  3  0  0  0  0  0  0
  184.2610  179.5560  140.3060 C   0  0  0  0  0  3  0  0  0  0  0  0
  185.3790  176.0080  137.5920 S   0  0  0  0  0  0  0  0  0  0  0  0
  184.7250  176.7000  136.0410 C   0  0  0  0  0  1  0  0  0  0  0  0
  191.8240  177.0690  141.9190 F   0  0  0  0  0  0  0  0  0  0  0  0
  190.5900  176.9780  142.5420 C   0  0  1  0  0  3  0  0  0  0  0  0
  191.0710  180.1950  143.9140 O   0  0  0  0  0  0  0  0  0  0  0  0
  190.5950  177.6930  143.8590 C   0  0  0  0  0  0  0  0  0  0  0  0
  190.8400  178.9790  143.8870 C   0  0  0  0  0  0  0  0  0  0  0  0
  190.3500  176.9300  145.1310 C   0  0  2  0  0  3  0  0  0  0  0  0
  192.8660  175.8270  147.7200 N   0  0  0  0  0  1  0  0  0  0  0  0
  191.6380  176.1660  147.0890 C   0  0  0  0  0  0  0  0  0  0  0  0
  189.3700  177.0750  147.4570 C   0  0  0  0  0  0  0  0  0  0  0  0
  187.6930  177.4490  145.3700 Cl  0  0  0  0  0  0  0  0  0  0  0  0
  189.3330  177.6290  146.0500 C   0  0  2  0  0  3  0  0  0  0  0  0
  188.6030  177.5110  148.3010 O   0  0  0  0  0  0  0  0  0  0  0  0
  190.3480  175.9970  147.8360 C   0  0  0  0  0  2  0  0  0  0  0  0
  191.6430  176.6090  145.8320 C   0  0  0  0  0  3  0  0  0  0  0  0
  1 11  2  0  0  0  0
  1  5  1  0  0  0  0
  2 13  1  0  0  0  0
  3 10  1  0  0  0  0
  4 15  2  0  0  0  0
  5 22  2  0  0  0  0
  7 20  2  0  0  0  0
  8 22  1  0  0  0  0
  8 12  1  0  0  0  0
  9  3  1  0  0  0  0
 10 19  1  0  0  0  0
 11  8  1  0  0  0  0
 12  6  1  0  0  0  0
 13 23  1  6  0  0  0
 13 11  1  0  0  0  0
 14 21  1  0  0  0  0
 14 26  1  1  0  0  0
 15 16  1  0  0  0  0
 15  7  1  0  0  0  0
 16  9  2  0  0  0  0
 17 14  1  0  0  0  0
 17 21  1  0  0  0  0
 18  2  1  0  0  0  0
 18  7  1  0  0  0  0
 19 14  1  0  0  0  0
 20 10  2  0  0  0  0
 21  6  1  6  0  0  0
 24 23  1  0  0  0  0
 26 25  1  6  0  0  0
 26 28  1  0  0  0  0
 28 29  2  0  0  0  0
 29 27  2  0  0  0  0
 30 28  1  6  0  0  0
 30 38  1  0  0  0  0
 30 35  1  0  0  0  0
 32 31  1  0  0  0  0
 32 37  1  0  0  0  0
 33 37  1  0  0  0  0
 33 36  2  0  0  0  0
 35 34  1  6  0  0  0
 35 33  1  0  0  0  0
 38 32  2  0  0  0  0
M  END
>  <MODEL>
2

>  <REMARK>
 VINA RESULT:      -6.8      3.758      7.308
  Name = 
  4 active torsions:
  status: ('A' for Active; 'I' for Inactive)
    1  A    between atoms: S_5  and  C_19
    2  A    between atoms: C_9  and  C_26
    3  A    between atoms: C_21  and  C_35
    4  A    between atoms: C_26  and  C_35
                            x       y       z     vdW  Elec       q    Type
                         _______ _______ _______ _____ _____    ______ ____

>  <TORSDO>
F 4

$$$$
=
 OpenBabel10222416233D

 38 42  0  0  1  0  0  0  0  0999 V2000
  188.6110  175.5960  136.9410 N   0  0  0  0  0  0  0  0  0  0  0  0
  185.7690  176.4980  137.1940 C   0  0  0  0  0  2  0  0  0  0  0  0
  182.9090  178.2710  141.1660 C   0  0  0  0  0  2  0  0  0  0  0  0
  182.0350  178.5930  136.7700 O   0  0  0  0  0  0  0  0  0  0  0  0
  189.7950  175.2240  137.4740 C   0  0  0  0  0  3  0  0  0  0  0  0
  188.1930  177.5100  140.8130 C   0  0  0  0  0  2  0  0  0  0  0  0
  183.8570  177.9290  138.1120 C   0  0  0  0  0  0  0  0  0  0  0  0
  189.1170  176.9600  138.6340 N   0  0  0  0  0  0  0  0  0  0  0  0
  181.9960  179.1980  140.3670 C   0  0  0  0  0  3  0  0  0  0  0  0
  184.2860  178.1020  140.6010 C   0  0  0  0  0  0  0  0  0  0  0  0
  188.2200  176.6510  137.6800 C   0  0  0  0  0  0  0  0  0  0  0  0
  189.0120  178.0080  139.6360 C   0  0  0  0  0  2  0  0  0  0  0  0
  186.9590  177.4260  137.4330 C   0  0  1  0  0  3  0  0  0  0  0  0
  186.2900  178.6680  141.9820 C   0  0  1  0  0  0  0  0  0  0  0  0
  182.5440  178.5780  137.9210 C   0  0  0  0  0  0  0  0  0  0  0  0
  181.8210  179.2850  139.0250 C   0  0  0  0  0  3  0  0  0  0  0  0
  186.8250  179.4740  140.9620 O   0  0  0  0  0  0  0  0  0  0  0  0
  184.5300  177.2520  137.0430 N   0  0  0  0  0  2  0  0  0  0  0  0
  185.3910  177.5500  141.4330 C   0  0  0  0  0  2  0  0  0  0  0  0
  184.2870  177.9260  139.3270 C   0  0  0  0  0  0  0  0  0  0  0  0
  187.7480  178.6800  141.6790 C   0  0  2  0  0  3  0  0  0  0  0  0
  190.1100  176.0650  138.5280 C   0  0  0  0  0  3  0  0  0  0  0  0
  187.1840  178.6600  136.0990 S   0  0  0  0  0  0  0  0  0  0  0  0
  186.7850  177.5320  134.7270 C   0  0  0  0  0  1  0  0  0  0  0  0
  184.9040  180.4500  142.7700 F   0  0  0  0  0  0  0  0  0  0  0  0
  185.8340  179.5060  143.1740 C   0  0  1  0  0  3  0  0  0  0  0  0
  182.7700  178.5210  144.6220 O   0  0  0  0  0  0  0  0  0  0  0  0
  185.2890  178.6460  144.2740 C   0  0  0  0  0  0  0  0  0  0  0  0
  183.9940  178.5820  144.4530 C   0  0  0  0  0  0  0  0  0  0  0  0
  186.2280  177.8920  145.1740 C   0  0  2  0  0  3  0  0  0  0  0  0
  189.8600  177.0470  144.5880 N   0  0  0  0  0  1  0  0  0  0  0  0
  188.6130  177.2740  145.2330 C   0  0  0  0  0  0  0  0  0  0  0  0
  187.5380  178.0070  147.3340 C   0  0  0  0  0  0  0  0  0  0  0  0
  184.8470  178.2020  147.4950 Cl  0  0  0  0  0  0  0  0  0  0  0  0
  186.3390  178.5260  146.5730 C   0  0  2  0  0  3  0  0  0  0  0  0
  187.7510  178.3970  148.4710 O   0  0  0  0  0  0  0  0  0  0  0  0
  188.4820  177.0180  146.7060 C   0  0  0  0  0  2  0  0  0  0  0  0
  187.5670  177.6900  144.5190 C   0  0  0  0  0  3  0  0  0  0  0  0
  1  5  1  0  0  0  0
  1 11  2  0  0  0  0
  2 13  1  0  0  0  0
  4 15  2  0  0  0  0
  5 22  2  0  0  0  0
  7 20  2  0  0  0  0
  8 12  1  0  0  0  0
  9  3  1  0  0  0  0
 10  3  1  0  0  0  0
 10 19  1  0  0  0  0
 11  8  1  0  0  0  0
 12  6  1  0  0  0  0
 13 23  1  6  0  0  0
 13 11  1  0  0  0  0
 14 26  1  1  0  0  0
 15  7  1  0  0  0  0
 15 16  1  0  0  0  0
 16  9  2  0  0  0  0
 17 21  1  0  0  0  0
 17 14  1  0  0  0  0
 18  2  1  0  0  0  0
 18  7  1  0  0  0  0
 19 14  1  0  0  0  0
 20 10  2  0  0  0  0
 21  6  1  6  0  0  0
 21 14  1  0  0  0  0
 22  8  1  0  0  0  0
 24 23  1  0  0  0  0
 26 25  1  6  0  0  0
 26 28  1  0  0  0  0
 28 29  2  0  0  0  0
 29 27  2  0  0  0  0
 30 28  1  6  0  0  0
 30 35  1  0  0  0  0
 31 32  1  0  0  0  0
 32 37  1  0  0  0  0
 33 36  2  0  0  0  0
 35 33  1  0  0  0  0
 35 34  1  1  0  0  0
 37 33  1  0  0  0  0
 38 30  1  0  0  0  0
 38 32  2  0  0  0  0
M  END
>  <MODEL>
3

>  <REMARK>
 VINA RESULT:      -6.8      2.925      5.371
  Name = 
  4 active torsions:
  status: ('A' for Active; 'I' for Inactive)
    1  A    between atoms: S_5  and  C_19
    2  A    between atoms: C_9  and  C_26
    3  A    between atoms: C_21  and  C_35
    4  A    between atoms: C_26  and  C_35
                            x       y       z     vdW  Elec       q    Type
                         _______ _______ _______ _____ _____    ______ ____

>  <TORSDO>
F 4

$$$$
=
 OpenBabel10222416233D

 38 42  0  0  1  0  0  0  0  0999 V2000
  181.1730  176.1300  136.8900 N   0  0  0  0  0  0  0  0  0  0  0  0
  180.7660  177.0800  139.6990 C   0  0  0  0  0  2  0  0  0  0  0  0
  184.0150  178.4440  143.5300 C   0  0  0  0  0  2  0  0  0  0  0  0
  179.6210  179.3220  143.1870 O   0  0  0  0  0  0  0  0  0  0  0  0
  181.9530  175.6610  135.8920 C   0  0  0  0  0  3  0  0  0  0  0  0
  184.9990  177.5730  138.3430 C   0  0  0  0  0  2  0  0  0  0  0  0
  181.3090  178.4460  141.7920 C   0  0  0  0  0  0  0  0  0  0  0  0
  183.0960  177.2640  136.8640 N   0  0  0  0  0  0  0  0  0  0  0  0
  183.1230  179.4880  144.1970 C   0  0  0  0  0  3  0  0  0  0  0  0
  183.8230  178.3040  142.0500 C   0  0  0  0  0  0  0  0  0  0  0  0
  181.9060  177.1000  137.4690 C   0  0  0  0  0  0  0  0  0  0  0  0
  184.1560  178.1860  137.2390 C   0  0  0  0  0  2  0  0  0  0  0  0
  181.4290  177.9360  138.6200 C   0  0  1  0  0  3  0  0  0  0  0  0
  185.7500  178.6380  140.4960 C   0  0  1  0  0  0  0  0  0  0  0  0
  180.8550  179.1520  143.0070 C   0  0  0  0  0  0  0  0  0  0  0  0
  181.8050  179.7420  144.0040 C   0  0  0  0  0  3  0  0  0  0  0  0
  185.0200  179.5450  139.7080 O   0  0  0  0  0  0  0  0  0  0  0  0
  180.3830  177.8830  140.8540 N   0  0  0  0  0  2  0  0  0  0  0  0
  184.8450  177.6220  141.2090 C   0  0  0  0  0  2  0  0  0  0  0  0
  182.5840  178.2830  141.7050 C   0  0  0  0  0  0  0  0  0  0  0  0
  185.8530  178.6430  139.0100 C   0  0  2  0  0  3  0  0  0  0  0  0
  183.1500  176.3580  135.8750 C   0  0  0  0  0  3  0  0  0  0  0  0
  180.3680  179.3150  138.0490 S   0  0  0  0  0  0  0  0  0  0  0  0
  181.4520  180.6500  138.6450 C   0  0  0  0  0  1  0  0  0  0  0  0
  186.3570  180.0120  142.3550 F   0  0  0  0  0  0  0  0  0  0  0  0
  186.8710  179.3400  141.2580 C   0  0  1  0  0  3  0  0  0  0  0  0
  188.9770  176.8460  139.9150 O   0  0  0  0  0  0  0  0  0  0  0  0
  187.9430  178.3750  141.6690 C   0  0  0  0  0  0  0  0  0  0  0  0
  188.4740  177.5890  140.7670 C   0  0  0  0  0  0  0  0  0  0  0  0
  188.3750  178.2980  143.1060 C   0  0  2  0  0  3  0  0  0  0  0  0
  186.4110  177.0500  146.0780 N   0  0  0  0  0  1  0  0  0  0  0  0
  187.4910  177.4510  145.2450 C   0  0  0  0  0  0  0  0  0  0  0  0
  189.8820  177.0860  144.7350 C   0  0  0  0  0  0  0  0  0  0  0  0
  191.0600  178.4080  142.6930 Cl  0  0  0  0  0  0  0  0  0  0  0  0
  189.6620  177.4730  143.2910 C   0  0  2  0  0  3  0  0  0  0  0  0
  190.8740  176.4480  145.0490 O   0  0  0  0  0  0  0  0  0  0  0  0
  188.8870  177.4690  145.7970 C   0  0  0  0  0  2  0  0  0  0  0  0
  187.2520  177.8280  143.9890 C   0  0  0  0  0  3  0  0  0  0  0  0
  1 11  2  0  0  0  0
  2 18  1  0  0  0  0
  3  9  1  0  0  0  0
  5  1  1  0  0  0  0
  7 15  1  0  0  0  0
  8 12  1  0  0  0  0
  8 11  1  0  0  0  0
 10  3  1  0  0  0  0
 11 13  1  0  0  0  0
 12  6  1  0  0  0  0
 13 23  1  6  0  0  0
 13  2  1  0  0  0  0
 14 19  1  0  0  0  0
 14 26  1  1  0  0  0
 15  4  2  0  0  0  0
 15 16  1  0  0  0  0
 16  9  2  0  0  0  0
 17 14  1  0  0  0  0
 18  7  1  0  0  0  0
 19 10  1  0  0  0  0
 20  7  2  0  0  0  0
 20 10  2  0  0  0  0
 21  6  1  6  0  0  0
 21 17  1  0  0  0  0
 21 14  1  0  0  0  0
 22  5  2  0  0  0  0
 22  8  1  0  0  0  0
 23 24  1  0  0  0  0
 26 28  1  0  0  0  0
 26 25  1  1  0  0  0
 27 29  2  0  0  0  0
 29 28  2  0  0  0  0
 30 28  1  6  0  0  0
 30 35  1  0  0  0  0
 30 38  1  0  0  0  0
 32 37  1  0  0  0  0
 32 31  1  0  0  0  0
 33 36  2  0  0  0  0
 33 37  1  0  0  0  0
 35 34  1  1  0  0  0
 35 33  1  0  0  0  0
 38 32  2  0  0  0  0
M  END
>  <MODEL>
4

>  <REMARK>
 VINA RESULT:      -6.5      1.912      2.508
  Name = 
  4 active torsions:
  status: ('A' for Active; 'I' for Inactive)
    1  A    between atoms: S_5  and  C_19
    2  A    between atoms: C_9  and  C_26
    3  A    between atoms: C_21  and  C_35
    4  A    between atoms: C_26  and  C_35
                            x       y       z     vdW  Elec       q    Type
                         _______ _______ _______ _____ _____    ______ ____

>  <TORSDO>
F 4

$$$$
=
 OpenBabel10222416233D

 38 42  0  0  1  0  0  0  0  0999 V2000
  183.4000  178.2450  144.9020 N   0  0  0  0  0  0  0  0  0  0  0  0
  186.0880  177.3340  145.8500 C   0  0  0  0  0  2  0  0  0  0  0  0
  190.4630  175.9220  143.4090 C   0  0  0  0  0  2  0  0  0  0  0  0
  189.9550  177.0860  147.7190 O   0  0  0  0  0  0  0  0  0  0  0  0
  182.4760  178.4260  143.9330 C   0  0  0  0  0  3  0  0  0  0  0  0
  186.0710  178.2930  141.4820 C   0  0  0  0  0  2  0  0  0  0  0  0
  188.6370  177.1290  145.7640 C   0  0  0  0  0  0  0  0  0  0  0  0
  184.3990  179.0500  143.0750 N   0  0  0  0  0  0  0  0  0  0  0  0
  191.4550  176.4040  144.4640 C   0  0  0  0  0  3  0  0  0  0  0  0
  189.1920  176.7120  143.3290 C   0  0  0  0  0  0  0  0  0  0  0  0
  184.5630  178.6250  144.3400 C   0  0  0  0  0  0  0  0  0  0  0  0
  185.4310  179.4950  142.1530 C   0  0  0  0  0  2  0  0  0  0  0  0
  185.8800  178.6260  145.0600 C   0  0  1  0  0  3  0  0  0  0  0  0
  188.5190  177.8000  141.1840 C   0  0  1  0  0  0  0  0  0  0  0  0
  189.9290  176.9870  146.4640 C   0  0  0  0  0  0  0  0  0  0  0  0
  191.2270  176.8000  145.7410 C   0  0  0  0  0  3  0  0  0  0  0  0
  188.3240  179.0400  141.8180 O   0  0  0  0  0  0  0  0  0  0  0  0
  187.4040  177.3010  146.4760 N   0  0  0  0  0  2  0  0  0  0  0  0
  188.3050  176.6160  142.1370 C   0  0  0  0  0  2  0  0  0  0  0  0
  188.6940  176.9770  144.4850 C   0  0  0  0  0  0  0  0  0  0  0  0
  187.3830  178.6930  140.8230 C   0  0  2  0  0  3  0  0  0  0  0  0
  183.0930  178.9210  142.7950 C   0  0  0  0  0  3  0  0  0  0  0  0
  186.0790  180.1310  146.0850 S   0  0  0  0  0  0  0  0  0  0  0  0
  185.6960  179.3310  147.6750 C   0  0  0  0  0  1  0  0  0  0  0  0
  190.6470  176.8620  140.6290 F   0  0  0  0  0  0  0  0  0  0  0  0
  189.7330  177.8340  140.2570 C   0  0  1  0  0  3  0  0  0  0  0  0
  189.0550  179.7550  137.3750 O   0  0  0  0  0  0  0  0  0  0  0  0
  189.3310  177.6780  138.8210 C   0  0  0  0  0  0  0  0  0  0  0  0
  189.1890  178.7460  138.0780 C   0  0  0  0  0  0  0  0  0  0  0  0
  189.0680  176.3090  138.2580 C   0  0  2  0  0  3  0  0  0  0  0  0
  185.9310  175.0240  136.5980 N   0  0  0  0  0  1  0  0  0  0  0  0
  187.2850  175.1490  137.0130 C   0  0  0  0  0  0  0  0  0  0  0  0
  189.6340  174.7200  136.3740 C   0  0  0  0  0  0  0  0  0  0  0  0
  191.6540  175.5170  137.9840 Cl  0  0  0  0  0  0  0  0  0  0  0  0
  190.1020  175.9020  137.1920 C   0  0  2  0  0  3  0  0  0  0  0  0
  190.3540  174.2620  135.5020 O   0  0  0  0  0  0  0  0  0  0  0  0
  188.2830  174.1020  136.6140 C   0  0  0  0  0  2  0  0  0  0  0  0
  187.6500  176.1830  137.7710 C   0  0  0  0  0  3  0  0  0  0  0  0
  2 18  1  0  0  0  0
  3  9  1  0  0  0  0
  5  1  1  0  0  0  0
  6 12  1  0  0  0  0
  7 15  1  0  0  0  0
  7 18  1  0  0  0  0
  8 11  1  0  0  0  0
  9 16  2  0  0  0  0
 10  3  1  0  0  0  0
 10 20  2  0  0  0  0
 11  1  2  0  0  0  0
 11 13  1  0  0  0  0
 12  8  1  0  0  0  0
 13  2  1  0  0  0  0
 13 23  1  1  0  0  0
 14 26  1  6  0  0  0
 14 17  1  0  0  0  0
 14 19  1  0  0  0  0
 15  4  2  0  0  0  0
 16 15  1  0  0  0  0
 19 10  1  0  0  0  0
 20  7  2  0  0  0  0
 21 14  1  0  0  0  0
 21  6  1  1  0  0  0
 21 17  1  0  0  0  0
 22  8  1  0  0  0  0
 22  5  2  0  0  0  0
 23 24  1  0  0  0  0
 26 25  1  1  0  0  0
 27 29  2  0  0  0  0
 28 26  1  0  0  0  0
 29 28  2  0  0  0  0
 30 28  1  6  0  0  0
 31 32  1  0  0  0  0
 32 38  2  0  0  0  0
 33 37  1  0  0  0  0
 33 35  1  0  0  0  0
 35 34  1  1  0  0  0
 35 30  1  0  0  0  0
 36 33  2  0  0  0  0
 37 32  1  0  0  0  0
 38 30  1  0  0  0  0
M  END
>  <MODEL>
5

>  <REMARK>
 VINA RESULT:      -6.5      4.196      7.272
  Name = 
  4 active torsions:
  status: ('A' for Active; 'I' for Inactive)
    1  A    between atoms: S_5  and  C_19
    2  A    between atoms: C_9  and  C_26
    3  A    between atoms: C_21  and  C_35
    4  A    between atoms: C_26  and  C_35
                            x       y       z     vdW  Elec       q    Type
                         _______ _______ _______ _____ _____    ______ ____

>  <TORSDO>
F 4

$$$$
=
 OpenBabel10222416233D

 38 42  0  0  1  0  0  0  0  0999 V2000
  179.9660  180.3780  140.5600 N   0  0  0  0  0  0  0  0  0  0  0  0
  182.2940  179.5830  138.8550 C   0  0  0  0  0  2  0  0  0  0  0  0
  187.3130  178.6320  139.8550 C   0  0  0  0  0  2  0  0  0  0  0  0
  184.9610  177.5020  136.1970 O   0  0  0  0  0  0  0  0  0  0  0  0
  179.4360  180.8260  141.7190 C   0  0  0  0  0  3  0  0  0  0  0  0
  183.1970  179.2330  143.2200 C   0  0  0  0  0  2  0  0  0  0  0  0
  184.4910  178.3790  138.3350 C   0  0  0  0  0  0  0  0  0  0  0  0
  180.9640  179.3490  142.2710 N   0  0  0  0  0  0  0  0  0  0  0  0
  187.5470  177.5850  138.7690 C   0  0  0  0  0  3  0  0  0  0  0  0
  185.9200  178.6710  140.4040 C   0  0  0  0  0  0  0  0  0  0  0  0
  180.9030  179.4870  140.9350 C   0  0  0  0  0  0  0  0  0  0  0  0
  181.8760  178.5100  143.0310 C   0  0  0  0  0  2  0  0  0  0  0  0
  181.7430  178.6980  139.9730 C   0  0  1  0  0  3  0  0  0  0  0  0
  185.5220  178.3440  142.8490 C   0  0  1  0  0  0  0  0  0  0  0  0
  185.3870  177.7260  137.3600 C   0  0  0  0  0  0  0  0  0  0  0  0
  186.7620  177.2500  137.7150 C   0  0  0  0  0  3  0  0  0  0  0  0
  184.5540  177.3520  142.6080 O   0  0  0  0  0  0  0  0  0  0  0  0
  183.1800  178.8330  137.9730 N   0  0  0  0  0  2  0  0  0  0  0  0
  185.6250  179.3520  141.6950 C   0  0  0  0  0  2  0  0  0  0  0  0
  185.0180  178.6040  139.4890 C   0  0  0  0  0  0  0  0  0  0  0  0
  184.2770  178.2530  143.6610 C   0  0  2  0  0  3  0  0  0  0  0  0
  180.0550  180.1930  142.7840 C   0  0  0  0  0  3  0  0  0  0  0  0
  180.8410  177.2320  139.3460 S   0  0  0  0  0  0  0  0  0  0  0  0
  182.0960  176.0100  139.8420 C   0  0  0  0  0  1  0  0  0  0  0  0
  187.9050  178.1760  142.7750 F   0  0  0  0  0  0  0  0  0  0  0  0
  186.7840  177.7520  143.4690 C   0  0  1  0  0  3  0  0  0  0  0  0
  185.2930  179.8040  145.9240 O   0  0  0  0  0  0  0  0  0  0  0  0
  186.8910  178.0900  144.9260 C   0  0  0  0  0  0  0  0  0  0  0  0
  186.0690  178.9710  145.4390 C   0  0  0  0  0  0  0  0  0  0  0  0
  187.9490  177.4410  145.7730 C   0  0  2  0  0  3  0  0  0  0  0  0
  191.5350  176.6850  144.8670 N   0  0  0  0  0  1  0  0  0  0  0  0
  190.3530  176.9160  145.6230 C   0  0  0  0  0  0  0  0  0  0  0  0
  189.4690  177.7680  147.7680 C   0  0  0  0  0  0  0  0  0  0  0  0
  186.8030  177.8780  148.1990 Cl  0  0  0  0  0  0  0  0  0  0  0  0
  188.1770  178.1850  147.1020 C   0  0  2  0  0  3  0  0  0  0  0  0
  189.7810  178.2520  148.8440 O   0  0  0  0  0  0  0  0  0  0  0  0
  190.3850  176.7690  147.1160 C   0  0  0  0  0  2  0  0  0  0  0  0
  189.2210  177.2380  144.9960 C   0  0  0  0  0  3  0  0  0  0  0  0
  1 11  2  0  0  0  0
  1  5  1  0  0  0  0
  2 13  1  0  0  0  0
  3 10  1  0  0  0  0
  4 15  2  0  0  0  0
  5 22  2  0  0  0  0
  7 20  2  0  0  0  0
  8 22  1  0  0  0  0
  8 12  1  0  0  0  0
  9  3  1  0  0  0  0
 10 19  1  0  0  0  0
 11  8  1  0  0  0  0
 12  6  1  0  0  0  0
 13 23  1  6  0  0  0
 13 11  1  0  0  0  0
 14 26  1  1  0  0  0
 14 21  1  0  0  0  0
 15 16  1  0  0  0  0
 15  7  1  0  0  0  0
 16  9  2  0  0  0  0
 17 14  1  0  0  0  0
 17 21  1  0  0  0  0
 18  7  1  0  0  0  0
 18  2  1  0  0  0  0
 19 14  1  0  0  0  0
 20 10  2  0  0  0  0
 21  6  1  6  0  0  0
 23 24  1  0  0  0  0
 26 25  1  6  0  0  0
 26 28  1  0  0  0  0
 28 29  2  0  0  0  0
 29 27  2  0  0  0  0
 30 28  1  6  0  0  0
 30 35  1  0  0  0  0
 31 32  1  0  0  0  0
 32 37  1  0  0  0  0
 33 36  2  0  0  0  0
 35 33  1  0  0  0  0
 35 34  1  1  0  0  0
 37 33  1  0  0  0  0
 38 32  2  0  0  0  0
 38 30  1  0  0  0  0
M  END
>  <MODEL>
6

>  <REMARK>
 VINA RESULT:      -6.4      2.896      5.360
  Name = 
  4 active torsions:
  status: ('A' for Active; 'I' for Inactive)
    1  A    between atoms: S_5  and  C_19
    2  A    between atoms: C_9  and  C_26
    3  A    between atoms: C_21  and  C_35
    4  A    between atoms: C_26  and  C_35
                            x       y       z     vdW  Elec       q    Type
                         _______ _______ _______ _____ _____    ______ ____

>  <TORSDO>
F 4

$$$$
=
 OpenBabel10222416233D

 38 42  0  0  1  0  0  0  0  0999 V2000
  183.7120  179.6120  138.3310 N   0  0  0  0  0  0  0  0  0  0  0  0
  186.4200  178.5870  137.5760 C   0  0  0  0  0  2  0  0  0  0  0  0
  190.7340  177.5190  140.2850 C   0  0  0  0  0  2  0  0  0  0  0  0
  189.6830  176.1880  136.1240 O   0  0  0  0  0  0  0  0  0  0  0  0
  182.8530  180.1750  139.2080 C   0  0  0  0  0  3  0  0  0  0  0  0
  185.7750  178.5610  142.0010 C   0  0  0  0  0  2  0  0  0  0  0  0
  188.5790  177.2560  137.9130 C   0  0  0  0  0  0  0  0  0  0  0  0
  184.0040  178.6880  140.3420 N   0  0  0  0  0  0  0  0  0  0  0  0
  191.2510  176.3780  139.4130 C   0  0  0  0  0  3  0  0  0  0  0  0
  189.2430  177.6590  140.3230 C   0  0  0  0  0  0  0  0  0  0  0  0
  184.4070  178.7180  139.0590 C   0  0  0  0  0  0  0  0  0  0  0  0
  184.5500  177.8790  141.4190 C   0  0  0  0  0  2  0  0  0  0  0  0
  185.4670  177.8200  138.4930 C   0  0  1  0  0  3  0  0  0  0  0  0
  188.0250  177.5520  142.5010 C   0  0  1  0  0  0  0  0  0  0  0  0
  189.7060  176.4890  137.3460 C   0  0  0  0  0  0  0  0  0  0  0  0
  190.8470  175.9890  138.1780 C   0  0  0  0  0  3  0  0  0  0  0  0
  187.1310  176.5830  142.0090 O   0  0  0  0  0  0  0  0  0  0  0  0
  187.5000  177.7310  137.0980 N   0  0  0  0  0  2  0  0  0  0  0  0
  188.5770  178.4560  141.3900 C   0  0  0  0  0  2  0  0  0  0  0  0
  188.7010  177.5530  139.1620 C   0  0  0  0  0  0  0  0  0  0  0  0
  186.5750  177.5780  142.8440 C   0  0  2  0  0  3  0  0  0  0  0  0
  183.0340  179.6080  140.4590 C   0  0  0  0  0  3  0  0  0  0  0  0
  184.7350  176.3450  137.6910 S   0  0  0  0  0  0  0  0  0  0  0  0
  184.3710  177.1520  136.1010 C   0  0  0  0  0  1  0  0  0  0  0  0
  189.9830  176.2520  142.9390 F   0  0  0  0  0  0  0  0  0  0  0  0
  188.9620  176.9610  143.5510 C   0  0  1  0  0  3  0  0  0  0  0  0
  191.5200  179.3900  143.6970 O   0  0  0  0  0  0  0  0  0  0  0  0
  189.5100  178.0230  144.4570 C   0  0  0  0  0  0  0  0  0  0  0  0
  190.5440  178.7260  144.0660 C   0  0  0  0  0  0  0  0  0  0  0  0
  188.8910  178.2530  145.8070 C   0  0  2  0  0  3  0  0  0  0  0  0
  185.2830  178.9970  146.6320 N   0  0  0  0  0  1  0  0  0  0  0  0
  186.6450  178.6110  146.7590 C   0  0  0  0  0  0  0  0  0  0  0  0
  188.2150  177.1360  147.9730 C   0  0  0  0  0  0  0  0  0  0  0  0
  190.8350  177.0900  147.3100 Cl  0  0  0  0  0  0  0  0  0  0  0  0
  189.1330  177.0790  146.7730 C   0  0  2  0  0  3  0  0  0  0  0  0
  188.3000  176.2860  148.8440 O   0  0  0  0  0  0  0  0  0  0  0  0
  187.1860  178.2260  148.1050 C   0  0  0  0  0  2  0  0  0  0  0  0
  187.4350  178.6150  145.6850 C   0  0  0  0  0  3  0  0  0  0  0  0
  1 11  2  0  0  0  0
  1  5  1  0  0  0  0
  2 13  1  0  0  0  0
  3 10  1  0  0  0  0
  4 15  2  0  0  0  0
  5 22  2  0  0  0  0
  7 20  2  0  0  0  0
  8 22  1  0  0  0  0
  8 12  1  0  0  0  0
  9  3  1  0  0  0  0
 10 19  1  0  0  0  0
 11  8  1  0  0  0  0
 12  6  1  0  0  0  0
 13 23  1  6  0  0  0
 13 11  1  0  0  0  0
 14 21  1  0  0  0  0
 14 26  1  1  0  0  0
 15  7  1  0  0  0  0
 15 16  1  0  0  0  0
 16  9  2  0  0  0  0
 17 14  1  0  0  0  0
 17 21  1  0  0  0  0
 18  2  1  0  0  0  0
 18  7  1  0  0  0  0
 19 14  1  0  0  0  0
 20 10  2  0  0  0  0
 21  6  1  6  0  0  0
 24 23  1  0  0  0  0
 26 25  1  6  0  0  0
 26 28  1  0  0  0  0
 27 29  2  0  0  0  0
 29 28  2  0  0  0  0
 30 28  1  6  0  0  0
 30 35  1  0  0  0  0
 31 32  1  0  0  0  0
 32 37  1  0  0  0  0
 33 37  1  0  0  0  0
 33 36  2  0  0  0  0
 35 34  1  1  0  0  0
 35 33  1  0  0  0  0
 38 30  1  0  0  0  0
 38 32  2  0  0  0  0
M  END
>  <MODEL>
7

>  <REMARK>
 VINA RESULT:      -6.3      3.236      6.748
  Name = 
  4 active torsions:
  status: ('A' for Active; 'I' for Inactive)
    1  A    between atoms: S_5  and  C_19
    2  A    between atoms: C_9  and  C_26
    3  A    between atoms: C_21  and  C_35
    4  A    between atoms: C_26  and  C_35
                            x       y       z     vdW  Elec       q    Type
                         _______ _______ _______ _____ _____    ______ ____

>  <TORSDO>
F 4

$$$$
=
 OpenBabel10222416233D

 38 42  0  0  1  0  0  0  0  0999 V2000
  190.5570  175.3240  138.1260 N   0  0  0  0  0  0  0  0  0  0  0  0
  188.8410  173.0570  137.1930 C   0  0  0  0  0  2  0  0  0  0  0  0
  183.7000  172.4240  136.6790 C   0  0  0  0  0  2  0  0  0  0  0  0
  186.9840  169.9560  134.8590 O   0  0  0  0  0  0  0  0  0  0  0  0
  190.7250  176.5240  138.7240 C   0  0  0  0  0  3  0  0  0  0  0  0
  186.5370  176.8680  137.5910 C   0  0  0  0  0  2  0  0  0  0  0  0
  186.8210  171.9910  136.0390 C   0  0  0  0  0  0  0  0  0  0  0  0
  188.9570  176.7200  137.4360 N   0  0  0  0  0  0  0  0  0  0  0  0
  183.7260  171.4720  135.4870 C   0  0  0  0  0  3  0  0  0  0  0  0
  184.8360  173.4000  136.7320 C   0  0  0  0  0  0  0  0  0  0  0  0
  189.4630  175.4770  137.3560 C   0  0  0  0  0  0  0  0  0  0  0  0
  187.7670  177.2330  136.7780 C   0  0  0  0  0  2  0  0  0  0  0  0
  188.9050  174.4010  136.4700 C   0  0  1  0  0  3  0  0  0  0  0  0
  184.3810  175.8570  136.7780 C   0  0  1  0  0  0  0  0  0  0  0  0
  186.2290  170.8670  135.2870 C   0  0  0  0  0  0  0  0  0  0  0  0
  184.7720  170.7980  134.9470 C   0  0  0  0  0  3  0  0  0  0  0  0
  185.2670  176.0900  135.7110 O   0  0  0  0  0  0  0  0  0  0  0  0
  188.2180  172.0350  136.3600 N   0  0  0  0  0  2  0  0  0  0  0  0
  184.7620  174.6130  137.5940 C   0  0  0  0  0  2  0  0  0  0  0  0
  185.9730  172.8600  136.4720 C   0  0  0  0  0  0  0  0  0  0  0  0
  185.2790  177.0450  136.7520 C   0  0  2  0  0  3  0  0  0  0  0  0
  189.7310  177.3920  138.3030 C   0  0  0  0  0  3  0  0  0  0  0  0
  189.8060  174.3150  134.8770 S   0  0  0  0  0  0  0  0  0  0  0  0
  191.1790  173.2890  135.4900 C   0  0  0  0  0  1  0  0  0  0  0  0
  182.5750  175.2030  135.3560 F   0  0  0  0  0  0  0  0  0  0  0  0
  182.9320  176.0880  136.3590 C   0  0  1  0  0  3  0  0  0  0  0  0
  180.6480  173.8520  137.8570 O   0  0  0  0  0  0  0  0  0  0  0  0
  182.0000  175.9850  137.5290 C   0  0  0  0  0  0  0  0  0  0  0  0
  181.3050  174.8880  137.6970 C   0  0  0  0  0  0  0  0  0  0  0  0
  181.8490  177.1440  138.4750 C   0  0  2  0  0  3  0  0  0  0  0  0
  183.8230  177.8780  141.6070 N   0  0  0  0  0  1  0  0  0  0  0  0
  182.9810  178.0380  140.4740 C   0  0  0  0  0  0  0  0  0  0  0  0
  182.2080  179.6310  138.7490 C   0  0  0  0  0  0  0  0  0  0  0  0
  180.5190  178.8220  136.8010 Cl  0  0  0  0  0  0  0  0  0  0  0  0
  181.9850  178.5040  137.7670 C   0  0  2  0  0  3  0  0  0  0  0  0
  182.3120  180.7780  138.3440 O   0  0  0  0  0  0  0  0  0  0  0  0
  182.3130  179.3590  140.2250 C   0  0  0  0  0  2  0  0  0  0  0  0
  182.7730  177.0070  139.6540 C   0  0  0  0  0  3  0  0  0  0  0  0
  1  5  1  0  0  0  0
  3 10  1  0  0  0  0
  4 15  2  0  0  0  0
  7 18  1  0  0  0  0
  7 20  2  0  0  0  0
  8 22  1  0  0  0  0
  9  3  1  0  0  0  0
 10 19  1  0  0  0  0
 11  8  1  0  0  0  0
 11  1  2  0  0  0  0
 12  8  1  0  0  0  0
 12  6  1  0  0  0  0
 13 23  1  6  0  0  0
 13  2  1  0  0  0  0
 13 11  1  0  0  0  0
 14 26  1  6  0  0  0
 14 19  1  0  0  0  0
 15  7  1  0  0  0  0
 16 15  1  0  0  0  0
 16  9  2  0  0  0  0
 17 21  1  0  0  0  0
 17 14  1  0  0  0  0
 18  2  1  0  0  0  0
 20 10  2  0  0  0  0
 21 14  1  0  0  0  0
 21  6  1  1  0  0  0
 22  5  2  0  0  0  0
 23 24  1  0  0  0  0
 26 25  1  6  0  0  0
 26 28  1  0  0  0  0
 28 29  2  0  0  0  0
 29 27  2  0  0  0  0
 30 28  1  6  0  0  0
 30 38  1  0  0  0  0
 32 31  1  0  0  0  0
 33 37  1  0  0  0  0
 35 34  1  1  0  0  0
 35 30  1  0  0  0  0
 35 33  1  0  0  0  0
 36 33  2  0  0  0  0
 37 32  1  0  0  0  0
 38 32  2  0  0  0  0
M  END
>  <MODEL>
8

>  <REMARK>
 VINA RESULT:      -6.1      5.186      9.121
  Name = 
  4 active torsions:
  status: ('A' for Active; 'I' for Inactive)
    1  A    between atoms: S_5  and  C_19
    2  A    between atoms: C_9  and  C_26
    3  A    between atoms: C_21  and  C_35
    4  A    between atoms: C_26  and  C_35
                            x       y       z     vdW  Elec       q    Type
                         _______ _______ _______ _____ _____    ______ ____

>  <TORSDO>
F 4

$$$$
=
 OpenBabel10222416233D

 38 42  0  0  1  0  0  0  0  0999 V2000
  188.0570  177.9430  135.4490 N   0  0  0  0  0  0  0  0  0  0  0  0
  190.8430  176.9070  135.7940 C   0  0  0  0  0  2  0  0  0  0  0  0
  194.1170  176.6990  139.8350 C   0  0  0  0  0  2  0  0  0  0  0  0
  194.3380  174.4050  135.9770 O   0  0  0  0  0  0  0  0  0  0  0  0
  186.9850  178.6480  135.8750 C   0  0  0  0  0  3  0  0  0  0  0  0
  188.8950  177.8570  139.7060 C   0  0  0  0  0  2  0  0  0  0  0  0
  192.7700  175.7970  137.0580 C   0  0  0  0  0  0  0  0  0  0  0  0
  187.7100  177.5160  137.6130 N   0  0  0  0  0  0  0  0  0  0  0  0
  194.8470  175.4160  139.4460 C   0  0  0  0  0  3  0  0  0  0  0  0
  192.6870  176.7700  139.3940 C   0  0  0  0  0  0  0  0  0  0  0  0
  188.4800  177.2730  136.5380 C   0  0  0  0  0  0  0  0  0  0  0  0
  187.8870  177.0010  138.9600 C   0  0  0  0  0  2  0  0  0  0  0  0
  189.6420  176.3230  136.5370 C   0  0  1  0  0  3  0  0  0  0  0  0
  190.8670  177.1010  141.0730 C   0  0  1  0  0  0  0  0  0  0  0  0
  193.9980  174.9770  137.0460 C   0  0  0  0  0  0  0  0  0  0  0  0
  194.8250  174.7370  138.2720 C   0  0  0  0  0  3  0  0  0  0  0  0
  190.1420  176.0030  140.5760 O   0  0  0  0  0  0  0  0  0  0  0  0
  191.9980  176.0200  135.8720 N   0  0  0  0  0  2  0  0  0  0  0  0
  191.7480  177.7550  139.9990 C   0  0  0  0  0  2  0  0  0  0  0  0
  192.5170  176.3760  138.1810 C   0  0  0  0  0  0  0  0  0  0  0  0
  189.3830  177.1330  140.9530 C   0  0  2  0  0  3  0  0  0  0  0  0
  186.7700  178.3900  137.2190 C   0  0  0  0  0  3  0  0  0  0  0  0
  189.1520  174.6700  135.9190 S   0  0  0  0  0  0  0  0  0  0  0  0
  189.9180  173.7250  137.2740 C   0  0  0  0  0  1  0  0  0  0  0  0
  192.8060  176.9910  142.4680 F   0  0  0  0  0  0  0  0  0  0  0  0
  191.4320  176.8120  142.4610 C   0  0  1  0  0  3  0  0  0  0  0  0
  190.5560  180.1670  143.1270 O   0  0  0  0  0  0  0  0  0  0  0  0
  190.7720  177.6580  143.5090 C   0  0  0  0  0  0  0  0  0  0  0  0
  190.6610  178.9480  143.3130 C   0  0  0  0  0  0  0  0  0  0  0  0
  190.2720  177.0280  144.7790 C   0  0  2  0  0  3  0  0  0  0  0  0
  192.0510  176.7170  148.0940 N   0  0  0  0  0  1  0  0  0  0  0  0
  191.0260  176.7530  147.1100 C   0  0  0  0  0  0  0  0  0  0  0  0
  188.6480  177.2890  146.6990 C   0  0  0  0  0  0  0  0  0  0  0  0
  187.6160  177.0980  144.2090 Cl  0  0  0  0  0  0  0  0  0  0  0  0
  188.9470  177.6470  145.2610 C   0  0  2  0  0  3  0  0  0  0  0  0
  187.6180  177.6850  147.2220 O   0  0  0  0  0  0  0  0  0  0  0  0
  189.6080  176.4550  147.5030 C   0  0  0  0  0  2  0  0  0  0  0  0
  191.3360  177.0300  145.8430 C   0  0  0  0  0  3  0  0  0  0  0  0
  1  5  1  0  0  0  0
  1 11  2  0  0  0  0
  2 18  1  0  0  0  0
  2 13  1  0  0  0  0
  4 15  2  0  0  0  0
  5 22  2  0  0  0  0
  7 20  2  0  0  0  0
  8 12  1  0  0  0  0
  9  3  1  0  0  0  0
 10  3  1  0  0  0  0
 10 19  1  0  0  0  0
 11  8  1  0  0  0  0
 12  6  1  0  0  0  0
 13 23  1  6  0  0  0
 13 11  1  0  0  0  0
 14 26  1  1  0  0  0
 15  7  1  0  0  0  0
 15 16  1  0  0  0  0
 16  9  2  0  0  0  0
 17 21  1  0  0  0  0
 17 14  1  0  0  0  0
 18  7  1  0  0  0  0
 19 14  1  0  0  0  0
 20 10  2  0  0  0  0
 21  6  1  6  0  0  0
 21 14  1  0  0  0  0
 22  8  1  0  0  0  0
 23 24  1  0  0  0  0
 26 25  1  6  0  0  0
 26 28  1  0  0  0  0
 27 29  2  0  0  0  0
 29 28  2  0  0  0  0
 30 28  1  6  0  0  0
 30 35  1  0  0  0  0
 30 38  1  0  0  0  0
 32 37  1  0  0  0  0
 32 31  1  0  0  0  0
 33 36  2  0  0  0  0
 33 37  1  0  0  0  0
 35 34  1  6  0  0  0
 35 33  1  0  0  0  0
 38 32  2  0  0  0  0
M  END
>  <MODEL>
9

>  <REMARK>
 VINA RESULT:      -6.1      5.520      9.002
  Name = 
  4 active torsions:
  status: ('A' for Active; 'I' for Inactive)
    1  A    between atoms: S_5  and  C_19
    2  A    between atoms: C_9  and  C_26
    3  A    between atoms: C_21  and  C_35
    4  A    between atoms: C_26  and  C_35
                            x       y       z     vdW  Elec       q    Type
                         _______ _______ _______ _____ _____    ______ ____

>  <TORSDO>
F 4

$$$$
