=
 OpenBabel10222419243D

 49 56  0  0  1  0  0  0  0  0999 V2000
  191.0530  176.1310  139.9470 C   0  0  0  0  0  2  0  0  0  0  0  0
  189.9260  177.1010  140.2720 C   0  0  2  0  0  3  0  0  0  0  0  0
  191.3060  176.8510  138.6310 C   0  0  2  0  0  3  0  0  0  0  0  0
  190.1900  177.8480  138.9730 C   0  0  1  0  0  3  0  0  0  0  0  0
  183.7160  178.8160  141.5660 C   0  0  0  0  0  0  0  0  0  0  0  0
  182.6480  178.9650  143.7160 C   0  0  0  0  0  3  0  0  0  0  0  0
  187.6190  177.4880  138.5140 C   0  0  0  0  0  2  0  0  0  0  0  0
  189.0030  177.8600  138.0360 C   0  0  0  0  0  0  0  0  0  0  0  0
  183.7590  178.8180  140.2090 N   0  0  0  0  0  0  0  0  0  0  0  0
  186.8340  178.6490  136.5390 N   0  0  0  0  0  0  0  0  0  0  0  0
  185.3470  178.6710  138.3670 N   0  0  0  0  0  2  0  0  0  0  0  0
  189.1740  178.2300  136.8110 N   0  0  0  0  0  0  0  0  0  0  0  0
  182.5500  178.9710  142.3140 C   0  0  0  0  0  3  0  0  0  0  0  0
  186.1430  178.5110  141.0390 S   0  0  0  0  0  0  0  0  0  0  0  0
  188.0720  178.2440  135.8680 C   0  0  0  0  0  2  0  0  0  0  0  0
  186.5960  178.3030  137.7690 C   0  0  0  0  0  0  0  0  0  0  0  0
  184.9410  178.6580  142.1970 C   0  0  0  0  0  0  0  0  0  0  0  0
  185.0650  178.6520  143.5820 C   0  0  0  0  0  3  0  0  0  0  0  0
  185.0260  178.6440  139.7640 C   0  0  0  0  0  0  0  0  0  0  0  0
  183.8970  178.8060  144.3460 C   0  0  0  0  0  3  0  0  0  0  0  0
  191.0450  175.9580  137.4470 C   0  0  0  0  0  0  0  0  0  0  0  0
  190.1110  175.1110  137.4810 O   0  0  0  0  0  0  0  0  0  0  0  0
  195.0100  175.4540  134.8040 C   0  0  0  0  0  3  0  0  0  0  0  0
  193.1090  173.6870  136.5030 S   0  0  0  0  0  0  0  0  0  0  0  0
  195.5470  174.8080  135.8570 C   0  0  0  0  0  3  0  0  0  0  0  0
  193.5330  175.6960  134.5960 C   0  0  0  0  0  2  0  0  0  0  0  0
  194.7520  174.2880  137.0280 C   0  0  1  0  0  3  0  0  0  0  0  0
  191.8640  176.1230  136.2800 N   0  0  0  0  0  0  0  0  0  0  0  0
  192.7240  175.2850  135.7770 C   0  0  0  0  0  0  0  0  0  0  0  0
  194.6160  175.2890  137.9930 O   0  0  0  0  0  0  0  0  0  0  0  0
  195.0060  174.6910  139.1930 C   0  0  0  0  0  2  0  0  0  0  0  0
  197.0540  174.9120  140.3710 F   0  0  0  0  0  0  0  0  0  0  0  0
  196.5050  174.4600  139.1860 C   0  0  0  0  0  2  0  0  0  0  0  0
  190.3040  177.9700  141.4560 C   0  0  0  0  0  2  0  0  0  0  0  0
  191.4900  178.0590  143.4690 C   0  0  0  0  0  2  0  0  0  0  0  0
  190.9320  176.0020  142.5510 C   0  0  0  0  0  2  0  0  0  0  0  0
  191.3780  177.3430  142.2070 N   0  0  0  0  0  0  0  0  0  0  0  0
  191.4570  175.6880  143.9330 C   0  0  0  0  0  2  0  0  0  0  0  0
  191.7050  177.0370  144.5690 C   0  0  2  0  0  3  0  0  0  0  0  0
  189.0690  177.7610  144.2330 O   0  0  0  0  0  0  0  0  0  0  0  0
  189.0870  177.6750  147.7730 C   0  0  0  0  0  0  0  0  0  0  0  0
  191.2150  177.1260  146.9430 N   0  0  0  0  0  0  0  0  0  0  0  0
  187.2630  178.1880  146.4300 C   0  0  0  0  0  3  0  0  0  0  0  0
  188.6140  177.8310  146.4920 C   0  0  0  0  0  0  0  0  0  0  0  0
  187.8570  177.9720  148.8640 S   0  0  0  0  0  0  0  0  0  0  0  0
  186.6780  178.3110  147.6940 C   0  0  0  0  0  3  0  0  0  0  0  0
  189.4790  177.6270  145.4180 C   0  0  0  0  0  0  0  0  0  0  0  0
  190.7800  177.2760  145.6790 N   0  0  0  0  0  0  0  0  0  0  0  0
  190.4020  177.3180  148.0190 C   0  0  0  0  0  3  0  0  0  0  0  0
  1  2  1  0  0  0  0
  2 34  1  1  0  0  0
  3 21  1  6  0  0  0
  3  4  1  0  0  0  0
  3  1  1  0  0  0  0
  4  8  1  6  0  0  0
  4  2  1  0  0  0  0
  5 17  2  0  0  0  0
  5 13  1  0  0  0  0
  6 20  1  0  0  0  0
  8  7  1  0  0  0  0
  9  5  1  0  0  0  0
 10 16  2  0  0  0  0
 11 19  1  0  0  0  0
 12  8  2  0  0  0  0
 13  6  2  0  0  0  0
 14 17  1  0  0  0  0
 15 10  1  0  0  0  0
 15 12  1  0  0  0  0
 16 11  1  0  0  0  0
 16  7  1  0  0  0  0
 17 18  1  0  0  0  0
 18 20  2  0  0  0  0
 19  9  2  0  0  0  0
 19 14  1  0  0  0  0
 21 22  2  0  0  0  0
 23 25  2  0  0  0  0
 24 27  1  0  0  0  0
 25 27  1  0  0  0  0
 26 23  1  0  0  0  0
 26 29  1  0  0  0  0
 27 30  1  1  0  0  0
 28 21  1  0  0  0  0
 29 28  2  0  0  0  0
 29 24  1  0  0  0  0
 30 31  1  0  0  0  0
 33 31  1  0  0  0  0
 33 32  1  0  0  0  0
 34 37  1  0  0  0  0
 36 38  1  0  0  0  0
 37 36  1  0  0  0  0
 37 35  1  0  0  0  0
 38 39  1  0  0  0  0
 39 35  1  6  0  0  0
 39 48  1  0  0  0  0
 40 47  2  0  0  0  0
 41 49  1  0  0  0  0
 41 45  1  0  0  0  0
 42 49  2  0  0  0  0
 43 44  1  0  0  0  0
 43 46  2  0  0  0  0
 44 41  2  0  0  0  0
 46 45  1  0  0  0  0
 47 48  1  0  0  0  0
 47 44  1  0  0  0  0
 48 42  1  0  0  0  0
M  END
>  <MODEL>
1

>  <REMARK>
 VINA RESULT:      -9.3      0.000      0.000
  Name = 
  9 active torsions:
  status: ('A' for Active; 'I' for Inactive)
    1  A    between atoms: C_7  and  C_32
    2  A    between atoms: C_7  and  N_42
    3  A    between atoms: C_12  and  C_47
    4  A    between atoms: C_15  and  C_24
    5  A    between atoms: C_15  and  O_48
    6  A    between atoms: C_21  and  C_43
    7  A    between atoms: N_30  and  C_43
    8  A    between atoms: N_33  and  C_38
    9  A    between atoms: C_35  and  O_48
                            x       y       z     vdW  Elec       q    Type
                         _______ _______ _______ _____ _____    ______ ____

>  <TORSDO>
F 9

$$$$
=
 OpenBabel10222419243D

 49 56  0  0  1  0  0  0  0  0999 V2000
  185.3940  176.5030  136.9740 C   0  0  0  0  0  2  0  0  0  0  0  0
  185.5100  177.6460  137.9710 C   0  0  2  0  0  3  0  0  0  0  0  0
  184.0300  177.0110  136.5340 C   0  0  2  0  0  3  0  0  0  0  0  0
  184.1600  178.1830  137.5180 C   0  0  1  0  0  3  0  0  0  0  0  0
  186.2650  178.0200  144.2340 C   0  0  0  0  0  0  0  0  0  0  0  0
  188.3020  177.6850  145.4690 C   0  0  0  0  0  3  0  0  0  0  0  0
  183.4120  177.6450  139.9880 C   0  0  0  0  0  2  0  0  0  0  0  0
  183.1310  178.2340  138.6250 C   0  0  0  0  0  0  0  0  0  0  0  0
  184.9360  178.2590  144.0920 N   0  0  0  0  0  0  0  0  0  0  0  0
  181.5880  179.0420  140.7550 N   0  0  0  0  0  0  0  0  0  0  0  0
  183.2500  178.5960  142.3650 N   0  0  0  0  0  2  0  0  0  0  0  0
  182.0040  178.8250  138.4080 N   0  0  0  0  0  0  0  0  0  0  0  0
  186.9170  177.9230  145.4620 C   0  0  0  0  0  3  0  0  0  0  0  0
  185.9220  178.0610  141.7560 S   0  0  0  0  0  0  0  0  0  0  0  0
  180.9780  178.8880  139.4320 C   0  0  0  0  0  2  0  0  0  0  0  0
  182.7190  178.4670  141.0410 C   0  0  0  0  0  0  0  0  0  0  0  0
  186.9720  177.8820  143.0500 C   0  0  0  0  0  0  0  0  0  0  0  0
  188.3440  177.6500  143.0280 C   0  0  0  0  0  3  0  0  0  0  0  0
  184.5880  178.2960  142.7830 C   0  0  0  0  0  0  0  0  0  0  0  0
  189.0100  177.5500  144.2600 C   0  0  0  0  0  3  0  0  0  0  0  0
  182.9390  176.0190  136.8370 C   0  0  0  0  0  0  0  0  0  0  0  0
  181.7300  176.3230  136.6410 O   0  0  0  0  0  0  0  0  0  0  0  0
  182.8650  171.2300  136.9580 C   0  0  0  0  0  3  0  0  0  0  0  0
  183.1850  173.4980  134.8650 S   0  0  0  0  0  0  0  0  0  0  0  0
  181.9530  171.2880  135.9690 C   0  0  0  0  0  3  0  0  0  0  0  0
  183.7880  172.3600  137.3550 C   0  0  0  0  0  2  0  0  0  0  0  0
  181.6680  172.5210  135.1500 C   0  0  1  0  0  3  0  0  0  0  0  0
  183.3160  174.7210  137.3190 N   0  0  0  0  0  0  0  0  0  0  0  0
  183.4700  173.6240  136.6350 C   0  0  0  0  0  0  0  0  0  0  0  0
  180.7000  173.3020  135.7870 O   0  0  0  0  0  0  0  0  0  0  0  0
  179.6350  172.4330  136.0290 C   0  0  0  0  0  2  0  0  0  0  0  0
  180.0700  172.8110  138.3300 F   0  0  0  0  0  0  0  0  0  0  0  0
  179.0520  172.7070  137.4020 C   0  0  0  0  0  2  0  0  0  0  0  0
  186.6140  178.6000  137.5560 C   0  0  0  0  0  2  0  0  0  0  0  0
  187.9580  176.9540  138.5310 C   0  0  0  0  0  2  0  0  0  0  0  0
  188.9370  178.8560  137.6310 C   0  0  0  0  0  2  0  0  0  0  0  0
  187.7850  178.3920  138.3890 N   0  0  0  0  0  0  0  0  0  0  0  0
  190.0890  177.9270  137.9390 C   0  0  0  0  0  2  0  0  0  0  0  0
  189.4390  176.6470  138.4110 C   0  0  2  0  0  3  0  0  0  0  0  0
  191.8200  175.2850  138.1720 O   0  0  0  0  0  0  0  0  0  0  0  0
  190.0130  173.5140  135.6940 C   0  0  0  0  0  0  0  0  0  0  0  0
  188.6540  175.1730  136.6510 N   0  0  0  0  0  0  0  0  0  0  0  0
  192.2160  173.1240  136.3160 C   0  0  0  0  0  3  0  0  0  0  0  0
  191.0580  173.8820  136.5080 C   0  0  0  0  0  0  0  0  0  0  0  0
  190.4870  172.2450  134.7170 S   0  0  0  0  0  0  0  0  0  0  0  0
  192.0640  172.1440  135.3300 C   0  0  0  0  0  3  0  0  0  0  0  0
  190.8790  174.9300  137.4120 C   0  0  0  0  0  0  0  0  0  0  0  0
  189.6600  175.5580  137.4570 N   0  0  0  0  0  0  0  0  0  0  0  0
  188.7890  174.1570  135.7550 C   0  0  0  0  0  3  0  0  0  0  0  0
  1  2  1  0  0  0  0
  2 34  1  6  0  0  0
  3 21  1  1  0  0  0
  3  1  1  0  0  0  0
  3  4  1  0  0  0  0
  4  2  1  0  0  0  0
  4  8  1  1  0  0  0
  5 13  1  0  0  0  0
  7 16  1  0  0  0  0
  8  7  1  0  0  0  0
  9  5  1  0  0  0  0
 10 16  2  0  0  0  0
 11 19  1  0  0  0  0
 12  8  2  0  0  0  0
 12 15  1  0  0  0  0
 13  6  2  0  0  0  0
 14 19  1  0  0  0  0
 14 17  1  0  0  0  0
 15 10  1  0  0  0  0
 16 11  1  0  0  0  0
 17  5  2  0  0  0  0
 18 17  1  0  0  0  0
 18 20  2  0  0  0  0
 19  9  2  0  0  0  0
 20  6  1  0  0  0  0
 21 28  1  0  0  0  0
 22 21  2  0  0  0  0
 23 26  1  0  0  0  0
 24 27  1  0  0  0  0
 24 29  1  0  0  0  0
 25 23  2  0  0  0  0
 27 30  1  1  0  0  0
 27 25  1  0  0  0  0
 29 28  2  0  0  0  0
 29 26  1  0  0  0  0
 30 31  1  0  0  0  0
 31 33  1  0  0  0  0
 33 32  1  0  0  0  0
 34 37  1  0  0  0  0
 36 38  1  0  0  0  0
 36 37  1  0  0  0  0
 37 35  1  0  0  0  0
 38 39  1  0  0  0  0
 39 48  1  6  0  0  0
 39 35  1  0  0  0  0
 41 49  1  0  0  0  0
 41 44  2  0  0  0  0
 42 48  1  0  0  0  0
 43 44  1  0  0  0  0
 44 47  1  0  0  0  0
 45 46  1  0  0  0  0
 45 41  1  0  0  0  0
 46 43  2  0  0  0  0
 47 48  1  0  0  0  0
 47 40  2  0  0  0  0
 49 42  2  0  0  0  0
M  END
>  <MODEL>
2

>  <REMARK>
 VINA RESULT:      -9.2      4.930      9.363
  Name = 
  9 active torsions:
  status: ('A' for Active; 'I' for Inactive)
    1  A    between atoms: C_7  and  C_32
    2  A    between atoms: C_7  and  N_42
    3  A    between atoms: C_12  and  C_47
    4  A    between atoms: C_15  and  C_24
    5  A    between atoms: C_15  and  O_48
    6  A    between atoms: C_21  and  C_43
    7  A    between atoms: N_30  and  C_43
    8  A    between atoms: N_33  and  C_38
    9  A    between atoms: C_35  and  O_48
                            x       y       z     vdW  Elec       q    Type
                         _______ _______ _______ _____ _____    ______ ____

>  <TORSDO>
F 9

$$$$
=
 OpenBabel10222419243D

 49 56  0  0  1  0  0  0  0  0999 V2000
  190.6590  176.1880  139.5660 C   0  0  0  0  0  2  0  0  0  0  0  0
  189.6300  177.1730  140.1000 C   0  0  2  0  0  3  0  0  0  0  0  0
  190.7480  176.9710  138.2650 C   0  0  2  0  0  3  0  0  0  0  0  0
  189.7320  177.9830  138.8140 C   0  0  1  0  0  3  0  0  0  0  0  0
  183.7270  178.8840  142.3760 C   0  0  0  0  0  0  0  0  0  0  0  0
  182.9810  178.8990  144.6630 C   0  0  0  0  0  3  0  0  0  0  0  0
  187.1130  177.7040  138.7090 C   0  0  0  0  0  2  0  0  0  0  0  0
  188.4250  178.0820  138.0620 C   0  0  0  0  0  0  0  0  0  0  0  0
  183.5750  178.9810  141.0310 N   0  0  0  0  0  0  0  0  0  0  0  0
  186.0870  179.0160  136.9510 N   0  0  0  0  0  0  0  0  0  0  0  0
  184.8790  178.9360  138.9720 N   0  0  0  0  0  2  0  0  0  0  0  0
  188.4290  178.5350  136.8530 N   0  0  0  0  0  0  0  0  0  0  0  0
  182.6850  179.0070  143.2940 C   0  0  0  0  0  3  0  0  0  0  0  0
  186.0440  178.5720  141.4840 S   0  0  0  0  0  0  0  0  0  0  0  0
  187.2050  178.6370  136.0830 C   0  0  0  0  0  2  0  0  0  0  0  0
  186.0180  178.5880  138.1770 C   0  0  0  0  0  0  0  0  0  0  0  0
  185.0240  178.6590  142.8110 C   0  0  0  0  0  0  0  0  0  0  0  0
  185.3450  178.5520  144.1610 C   0  0  0  0  0  3  0  0  0  0  0  0
  184.7600  178.8160  140.3960 C   0  0  0  0  0  0  0  0  0  0  0  0
  184.3030  178.6730  145.0930 C   0  0  0  0  0  3  0  0  0  0  0  0
  190.2860  176.1520  137.0880 C   0  0  0  0  0  0  0  0  0  0  0  0
  190.3910  176.6070  135.9160 O   0  0  0  0  0  0  0  0  0  0  0  0
  187.5180  172.3370  136.2300 C   0  0  0  0  0  3  0  0  0  0  0  0
  189.4880  174.1740  134.6900 S   0  0  0  0  0  0  0  0  0  0  0  0
  187.0290  173.0150  135.1750 C   0  0  0  0  0  3  0  0  0  0  0  0
  188.8060  172.6640  136.9510 C   0  0  0  0  0  2  0  0  0  0  0  0
  187.6650  174.2520  134.5940 C   0  0  1  0  0  3  0  0  0  0  0  0
  189.7600  174.8410  137.3380 N   0  0  0  0  0  0  0  0  0  0  0  0
  189.4120  173.9360  136.4700 C   0  0  0  0  0  0  0  0  0  0  0  0
  187.1930  175.3870  135.2600 O   0  0  0  0  0  0  0  0  0  0  0  0
  185.8580  175.5070  134.8690 C   0  0  0  0  0  2  0  0  0  0  0  0
  185.6890  175.2810  137.2240 F   0  0  0  0  0  0  0  0  0  0  0  0
  184.9750  175.6320  136.0950 C   0  0  0  0  0  2  0  0  0  0  0  0
  190.2070  177.9640  141.2580 C   0  0  0  0  0  2  0  0  0  0  0  0
  191.5280  177.8490  143.1840 C   0  0  0  0  0  2  0  0  0  0  0  0
  190.6550  175.9040  142.2680 C   0  0  0  0  0  2  0  0  0  0  0  0
  191.2420  177.1880  141.9190 N   0  0  0  0  0  0  0  0  0  0  0  0
  191.2290  175.4890  143.6040 C   0  0  0  0  0  2  0  0  0  0  0  0
  191.6870  176.7780  144.2460 C   0  0  2  0  0  3  0  0  0  0  0  0
  188.9910  177.3300  144.1410 O   0  0  0  0  0  0  0  0  0  0  0  0
  189.4040  177.6570  147.6430 C   0  0  0  0  0  0  0  0  0  0  0  0
  191.4570  177.1190  146.6360 N   0  0  0  0  0  0  0  0  0  0  0  0
  187.4150  177.9220  146.4730 C   0  0  0  0  0  3  0  0  0  0  0  0
  188.7830  177.6400  146.4160 C   0  0  0  0  0  0  0  0  0  0  0  0
  188.2850  178.0190  148.8300 S   0  0  0  0  0  0  0  0  0  0  0  0
  186.9660  178.1630  147.7750 C   0  0  0  0  0  3  0  0  0  0  0  0
  189.5360  177.3550  145.2770 C   0  0  0  0  0  0  0  0  0  0  0  0
  190.8770  177.1000  145.4230 N   0  0  0  0  0  0  0  0  0  0  0  0
  190.7560  177.3950  147.7720 C   0  0  0  0  0  3  0  0  0  0  0  0
  1  2  1  0  0  0  0
  2 34  1  1  0  0  0
  3 21  1  6  0  0  0
  3  4  1  0  0  0  0
  3  1  1  0  0  0  0
  4  8  1  6  0  0  0
  4  2  1  0  0  0  0
  5 17  2  0  0  0  0
  5 13  1  0  0  0  0
  6 20  1  0  0  0  0
  8  7  1  0  0  0  0
  9  5  1  0  0  0  0
 10 16  2  0  0  0  0
 11 19  1  0  0  0  0
 12  8  2  0  0  0  0
 13  6  2  0  0  0  0
 14 17  1  0  0  0  0
 15 12  1  0  0  0  0
 15 10  1  0  0  0  0
 16  7  1  0  0  0  0
 16 11  1  0  0  0  0
 17 18  1  0  0  0  0
 18 20  2  0  0  0  0
 19  9  2  0  0  0  0
 19 14  1  0  0  0  0
 21 28  1  0  0  0  0
 22 21  2  0  0  0  0
 23 26  1  0  0  0  0
 24 29  1  0  0  0  0
 25 23  2  0  0  0  0
 27 24  1  0  0  0  0
 27 25  1  0  0  0  0
 27 30  1  1  0  0  0
 29 26  1  0  0  0  0
 29 28  2  0  0  0  0
 31 30  1  0  0  0  0
 31 33  1  0  0  0  0
 33 32  1  0  0  0  0
 34 37  1  0  0  0  0
 36 38  1  0  0  0  0
 37 36  1  0  0  0  0
 37 35  1  0  0  0  0
 38 39  1  0  0  0  0
 39 35  1  6  0  0  0
 39 48  1  0  0  0  0
 40 47  2  0  0  0  0
 41 49  1  0  0  0  0
 41 45  1  0  0  0  0
 42 49  2  0  0  0  0
 43 46  2  0  0  0  0
 44 43  1  0  0  0  0
 44 41  2  0  0  0  0
 46 45  1  0  0  0  0
 47 48  1  0  0  0  0
 47 44  1  0  0  0  0
 48 42  1  0  0  0  0
M  END
>  <MODEL>
3

>  <REMARK>
 VINA RESULT:      -9.2      2.753      3.892
  Name = 
  9 active torsions:
  status: ('A' for Active; 'I' for Inactive)
    1  A    between atoms: C_7  and  C_32
    2  A    between atoms: C_7  and  N_42
    3  A    between atoms: C_12  and  C_47
    4  A    between atoms: C_15  and  C_24
    5  A    between atoms: C_15  and  O_48
    6  A    between atoms: C_21  and  C_43
    7  A    between atoms: N_30  and  C_43
    8  A    between atoms: N_33  and  C_38
    9  A    between atoms: C_35  and  O_48
                            x       y       z     vdW  Elec       q    Type
                         _______ _______ _______ _____ _____    ______ ____

>  <TORSDO>
F 9

$$$$
=
 OpenBabel10222419243D

 49 56  0  0  1  0  0  0  0  0999 V2000
  192.5060  176.5300  139.7460 C   0  0  0  0  0  2  0  0  0  0  0  0
  191.0280  176.6630  139.4120 C   0  0  2  0  0  3  0  0  0  0  0  0
  192.8740  176.9630  138.3350 C   0  0  2  0  0  3  0  0  0  0  0  0
  191.3830  177.1270  138.0060 C   0  0  1  0  0  3  0  0  0  0  0  0
  184.4650  177.0090  136.7060 C   0  0  0  0  0  0  0  0  0  0  0  0
  182.4440  177.8990  137.6600 C   0  0  0  0  0  3  0  0  0  0  0  0
  189.4210  175.7120  136.9590 C   0  0  0  0  0  2  0  0  0  0  0  0
  190.8410  176.2250  136.9210 C   0  0  0  0  0  0  0  0  0  0  0  0
  185.1940  176.3020  135.8060 N   0  0  0  0  0  0  0  0  0  0  0  0
  189.7160  175.2820  134.5940 N   0  0  0  0  0  0  0  0  0  0  0  0
  187.5050  175.7580  135.2540 N   0  0  0  0  0  2  0  0  0  0  0  0
  191.6020  175.9160  135.9240 N   0  0  0  0  0  0  0  0  0  0  0  0
  183.0760  177.1230  136.6740 C   0  0  0  0  0  3  0  0  0  0  0  0
  186.8290  177.3350  137.4570 S   0  0  0  0  0  0  0  0  0  0  0  0
  191.1360  175.0420  134.8640 C   0  0  0  0  0  2  0  0  0  0  0  0
  188.8950  175.5890  135.5540 C   0  0  0  0  0  0  0  0  0  0  0  0
  185.2000  177.6490  137.6920 C   0  0  0  0  0  0  0  0  0  0  0  0
  184.5990  178.4260  138.6780 C   0  0  0  0  0  3  0  0  0  0  0  0
  186.5160  176.3710  136.0920 C   0  0  0  0  0  0  0  0  0  0  0  0
  183.2010  178.5460  138.6550 C   0  0  0  0  0  3  0  0  0  0  0  0
  193.5930  175.8730  137.5850 C   0  0  0  0  0  0  0  0  0  0  0  0
  193.5040  174.6740  137.9650 O   0  0  0  0  0  0  0  0  0  0  0  0
  197.4310  175.8970  134.7170 C   0  0  0  0  0  3  0  0  0  0  0  0
  195.6650  173.8360  136.2210 S   0  0  0  0  0  0  0  0  0  0  0  0
  198.0380  175.1220  135.6370 C   0  0  0  0  0  3  0  0  0  0  0  0
  195.9400  176.1180  134.6160 C   0  0  0  0  0  2  0  0  0  0  0  0
  197.3170  174.4080  136.7520 C   0  0  1  0  0  3  0  0  0  0  0  0
  194.3470  176.2350  136.4190 N   0  0  0  0  0  0  0  0  0  0  0  0
  195.2030  175.5100  135.7580 C   0  0  0  0  0  0  0  0  0  0  0  0
  197.2040  175.2520  137.8610 O   0  0  0  0  0  0  0  0  0  0  0  0
  196.8920  174.4070  138.9280 C   0  0  0  0  0  2  0  0  0  0  0  0
  195.6010  175.6200  140.5060 F   0  0  0  0  0  0  0  0  0  0  0  0
  196.8850  175.1980  140.2210 C   0  0  0  0  0  2  0  0  0  0  0  0
  190.4100  177.8050  140.1950 C   0  0  0  0  0  2  0  0  0  0  0  0
  189.0050  176.6740  141.6830 C   0  0  0  0  0  2  0  0  0  0  0  0
  188.3850  178.7580  140.8730 C   0  0  0  0  0  2  0  0  0  0  0  0
  189.0190  177.5070  140.4890 N   0  0  0  0  0  0  0  0  0  0  0  0
  187.3900  178.4490  141.9670 C   0  0  0  0  0  2  0  0  0  0  0  0
  187.8700  177.1490  142.5710 C   0  0  2  0  0  3  0  0  0  0  0  0
  186.1940  177.5330  144.7220 O   0  0  0  0  0  0  0  0  0  0  0  0
  189.2630  177.6690  146.4850 C   0  0  0  0  0  0  0  0  0  0  0  0
  189.6630  177.3270  144.1960 N   0  0  0  0  0  0  0  0  0  0  0  0
  187.1450  177.8770  147.4150 C   0  0  0  0  0  3  0  0  0  0  0  0
  187.9070  177.6870  146.2580 C   0  0  0  0  0  0  0  0  0  0  0  0
  189.5600  177.8850  148.1140 S   0  0  0  0  0  0  0  0  0  0  0  0
  187.9300  178.0080  148.5650 C   0  0  0  0  0  3  0  0  0  0  0  0
  187.4330  177.5220  144.9570 C   0  0  0  0  0  0  0  0  0  0  0  0
  188.3420  177.3450  143.9440 N   0  0  0  0  0  0  0  0  0  0  0  0
  190.1650  177.4860  145.4520 C   0  0  0  0  0  3  0  0  0  0  0  0
  2  1  1  0  0  0  0
  2 34  1  1  0  0  0
  3 21  1  6  0  0  0
  3  1  1  0  0  0  0
  4  8  1  6  0  0  0
  4  3  1  0  0  0  0
  4  2  1  0  0  0  0
  5 17  1  0  0  0  0
  6 20  2  0  0  0  0
  8  7  1  0  0  0  0
  9 19  2  0  0  0  0
  9  5  1  0  0  0  0
 10 15  1  0  0  0  0
 10 16  2  0  0  0  0
 11 16  1  0  0  0  0
 11 19  1  0  0  0  0
 12  8  2  0  0  0  0
 13  5  2  0  0  0  0
 13  6  1  0  0  0  0
 14 17  1  0  0  0  0
 15 12  1  0  0  0  0
 16  7  1  0  0  0  0
 17 18  2  0  0  0  0
 19 14  1  0  0  0  0
 20 18  1  0  0  0  0
 21 22  2  0  0  0  0
 23 25  2  0  0  0  0
 24 27  1  0  0  0  0
 25 27  1  0  0  0  0
 26 23  1  0  0  0  0
 26 29  1  0  0  0  0
 27 30  1  1  0  0  0
 28 21  1  0  0  0  0
 29 24  1  0  0  0  0
 29 28  2  0  0  0  0
 30 31  1  0  0  0  0
 31 33  1  0  0  0  0
 33 32  1  0  0  0  0
 34 37  1  0  0  0  0
 36 38  1  0  0  0  0
 37 36  1  0  0  0  0
 37 35  1  0  0  0  0
 38 39  1  0  0  0  0
 39 35  1  6  0  0  0
 39 48  1  0  0  0  0
 40 47  2  0  0  0  0
 41 45  1  0  0  0  0
 42 49  2  0  0  0  0
 43 46  2  0  0  0  0
 44 41  2  0  0  0  0
 44 43  1  0  0  0  0
 45 46  1  0  0  0  0
 47 44  1  0  0  0  0
 48 42  1  0  0  0  0
 48 47  1  0  0  0  0
 49 41  1  0  0  0  0
M  END
>  <MODEL>
4

>  <REMARK>
 VINA RESULT:      -9.1      2.393      3.427
  Name = 
  9 active torsions:
  status: ('A' for Active; 'I' for Inactive)
    1  A    between atoms: C_7  and  C_32
    2  A    between atoms: C_7  and  N_42
    3  A    between atoms: C_12  and  C_47
    4  A    between atoms: C_15  and  C_24
    5  A    between atoms: C_15  and  O_48
    6  A    between atoms: C_21  and  C_43
    7  A    between atoms: N_30  and  C_43
    8  A    between atoms: N_33  and  C_38
    9  A    between atoms: C_35  and  O_48
                            x       y       z     vdW  Elec       q    Type
                         _______ _______ _______ _____ _____    ______ ____

>  <TORSDO>
F 9

$$$$
=
 OpenBabel10222419243D

 49 56  0  0  1  0  0  0  0  0999 V2000
  190.0540  176.8870  140.4760 C   0  0  0  0  0  2  0  0  0  0  0  0
  188.7460  177.4580  139.9490 C   0  0  2  0  0  3  0  0  0  0  0  0
  190.8000  177.4700  139.2860 C   0  0  2  0  0  3  0  0  0  0  0  0
  189.4860  178.0730  138.7690 C   0  0  1  0  0  3  0  0  0  0  0  0
  182.6070  177.0240  137.6990 C   0  0  0  0  0  0  0  0  0  0  0  0
  180.5690  177.0380  138.9770 C   0  0  0  0  0  3  0  0  0  0  0  0
  187.7150  176.7930  137.2950 C   0  0  0  0  0  2  0  0  0  0  0  0
  189.0070  177.5640  137.4280 C   0  0  0  0  0  0  0  0  0  0  0  0
  183.3550  176.8840  136.5750 N   0  0  0  0  0  0  0  0  0  0  0  0
  187.8350  177.3730  134.9470 N   0  0  0  0  0  0  0  0  0  0  0  0
  185.6550  177.0880  135.7960 N   0  0  0  0  0  2  0  0  0  0  0  0
  189.7020  177.8270  136.3730 N   0  0  0  0  0  0  0  0  0  0  0  0
  181.2250  176.8490  137.7490 C   0  0  0  0  0  3  0  0  0  0  0  0
  184.9390  177.5220  138.4600 S   0  0  0  0  0  0  0  0  0  0  0  0
  189.2950  177.3500  135.0650 C   0  0  0  0  0  2  0  0  0  0  0  0
  187.0770  177.1110  135.9700 C   0  0  0  0  0  0  0  0  0  0  0  0
  183.3130  177.3750  138.8400 C   0  0  0  0  0  0  0  0  0  0  0  0
  182.6880  177.5710  140.0670 C   0  0  0  0  0  3  0  0  0  0  0  0
  184.6650  177.1120  136.8320 C   0  0  0  0  0  0  0  0  0  0  0  0
  181.2960  177.3970  140.1280 C   0  0  0  0  0  3  0  0  0  0  0  0
  191.4100  176.3940  138.4270 C   0  0  0  0  0  0  0  0  0  0  0  0
  190.9440  175.2230  138.4490 O   0  0  0  0  0  0  0  0  0  0  0  0
  195.2260  175.5420  135.6590 C   0  0  0  0  0  3  0  0  0  0  0  0
  192.3190  174.5110  135.9920 S   0  0  0  0  0  0  0  0  0  0  0  0
  195.0660  174.2380  135.9580 C   0  0  0  0  0  3  0  0  0  0  0  0
  194.1710  176.6090  135.8370 C   0  0  0  0  0  2  0  0  0  0  0  0
  193.8230  173.6590  136.5840 C   0  0  1  0  0  3  0  0  0  0  0  0
  192.5030  176.7500  137.5680 N   0  0  0  0  0  0  0  0  0  0  0  0
  192.9650  176.0950  136.5420 C   0  0  0  0  0  0  0  0  0  0  0  0
  193.9090  173.7400  137.9760 O   0  0  0  0  0  0  0  0  0  0  0  0
  195.1410  173.1650  138.2960 C   0  0  0  0  0  2  0  0  0  0  0  0
  197.1680  174.3750  138.5310 F   0  0  0  0  0  0  0  0  0  0  0  0
  195.9520  174.1300  139.1390 C   0  0  0  0  0  2  0  0  0  0  0  0
  188.2380  178.5510  140.8690 C   0  0  0  0  0  2  0  0  0  0  0  0
  186.8930  177.3900  142.3890 C   0  0  0  0  0  2  0  0  0  0  0  0
  186.2960  179.5320  141.7270 C   0  0  0  0  0  2  0  0  0  0  0  0
  186.8590  178.2830  141.2400 N   0  0  0  0  0  0  0  0  0  0  0  0
  185.3640  179.1980  142.8680 C   0  0  0  0  0  2  0  0  0  0  0  0
  185.8360  177.8540  143.3730 C   0  0  2  0  0  3  0  0  0  0  0  0
  188.3520  176.9620  144.0490 O   0  0  0  0  0  0  0  0  0  0  0  0
  187.4270  178.2190  147.2280 C   0  0  0  0  0  0  0  0  0  0  0  0
  185.6770  178.5390  145.6940 N   0  0  0  0  0  0  0  0  0  0  0  0
  189.4550  177.2230  146.6920 C   0  0  0  0  0  3  0  0  0  0  0  0
  188.1930  177.6300  146.2500 C   0  0  0  0  0  0  0  0  0  0  0  0
  188.2830  178.2560  148.6620 S   0  0  0  0  0  0  0  0  0  0  0  0
  189.6710  177.5050  148.0450 C   0  0  0  0  0  3  0  0  0  0  0  0
  187.6690  177.4970  144.9640 C   0  0  0  0  0  0  0  0  0  0  0  0
  186.4020  177.9620  144.7190 N   0  0  0  0  0  0  0  0  0  0  0  0
  186.1520  178.6870  146.9620 C   0  0  0  0  0  3  0  0  0  0  0  0
  2  1  1  0  0  0  0
  2 34  1  1  0  0  0
  3 21  1  6  0  0  0
  3  1  1  0  0  0  0
  4  8  1  6  0  0  0
  4  3  1  0  0  0  0
  4  2  1  0  0  0  0
  5 13  2  0  0  0  0
  5 17  1  0  0  0  0
  6 20  2  0  0  0  0
  7  8  1  0  0  0  0
  9 19  2  0  0  0  0
  9  5  1  0  0  0  0
 10 15  1  0  0  0  0
 10 16  2  0  0  0  0
 11 16  1  0  0  0  0
 11 19  1  0  0  0  0
 12  8  2  0  0  0  0
 13  6  1  0  0  0  0
 14 17  1  0  0  0  0
 15 12  1  0  0  0  0
 16  7  1  0  0  0  0
 17 18  2  0  0  0  0
 18 20  1  0  0  0  0
 19 14  1  0  0  0  0
 21 22  2  0  0  0  0
 23 26  1  0  0  0  0
 23 25  2  0  0  0  0
 24 29  1  0  0  0  0
 24 27  1  0  0  0  0
 25 27  1  0  0  0  0
 26 29  1  0  0  0  0
 27 30  1  1  0  0  0
 28 21  1  0  0  0  0
 29 28  2  0  0  0  0
 30 31  1  0  0  0  0
 31 33  1  0  0  0  0
 32 33  1  0  0  0  0
 34 37  1  0  0  0  0
 36 38  1  0  0  0  0
 37 36  1  0  0  0  0
 37 35  1  0  0  0  0
 38 39  1  0  0  0  0
 39 35  1  6  0  0  0
 39 48  1  0  0  0  0
 40 47  2  0  0  0  0
 41 45  1  0  0  0  0
 42 49  2  0  0  0  0
 43 46  2  0  0  0  0
 44 43  1  0  0  0  0
 44 41  2  0  0  0  0
 46 45  1  0  0  0  0
 47 44  1  0  0  0  0
 48 47  1  0  0  0  0
 48 42  1  0  0  0  0
 49 41  1  0  0  0  0
M  END
>  <MODEL>
5

>  <REMARK>
 VINA RESULT:      -9.1      2.135      3.200
  Name = 
  9 active torsions:
  status: ('A' for Active; 'I' for Inactive)
    1  A    between atoms: C_7  and  C_32
    2  A    between atoms: C_7  and  N_42
    3  A    between atoms: C_12  and  C_47
    4  A    between atoms: C_15  and  C_24
    5  A    between atoms: C_15  and  O_48
    6  A    between atoms: C_21  and  C_43
    7  A    between atoms: N_30  and  C_43
    8  A    between atoms: N_33  and  C_38
    9  A    between atoms: C_35  and  O_48
                            x       y       z     vdW  Elec       q    Type
                         _______ _______ _______ _____ _____    ______ ____

>  <TORSDO>
F 9

$$$$
=
 OpenBabel10222419243D

 49 56  0  0  1  0  0  0  0  0999 V2000
  184.8960  175.9020  137.3030 C   0  0  0  0  0  2  0  0  0  0  0  0
  184.9800  177.3010  137.8950 C   0  0  2  0  0  3  0  0  0  0  0  0
  183.5640  176.2450  136.6560 C   0  0  2  0  0  3  0  0  0  0  0  0
  183.6620  177.6660  137.2270 C   0  0  1  0  0  3  0  0  0  0  0  0
  185.2560  178.4370  144.0410 C   0  0  0  0  0  0  0  0  0  0  0  0
  187.1290  178.0510  145.5010 C   0  0  0  0  0  3  0  0  0  0  0  0
  182.6750  177.6980  139.6710 C   0  0  0  0  0  2  0  0  0  0  0  0
  182.5810  178.0610  138.2080 C   0  0  0  0  0  0  0  0  0  0  0  0
  183.9940  178.8300  143.7350 N   0  0  0  0  0  0  0  0  0  0  0  0
  181.0400  179.4520  140.0140 N   0  0  0  0  0  0  0  0  0  0  0  0
  182.5010  179.0790  141.8260 N   0  0  0  0  0  2  0  0  0  0  0  0
  181.5760  178.7550  137.7880 N   0  0  0  0  0  0  0  0  0  0  0  0
  185.8010  178.4750  145.3240 C   0  0  0  0  0  3  0  0  0  0  0  0
  185.0930  178.0730  141.5710 S   0  0  0  0  0  0  0  0  0  0  0  0
  180.5050  179.1470  138.6850 C   0  0  0  0  0  2  0  0  0  0  0  0
  182.0470  178.7860  140.4990 C   0  0  0  0  0  0  0  0  0  0  0  0
  186.0130  177.9880  142.9690 C   0  0  0  0  0  0  0  0  0  0  0  0
  187.3300  177.5660  143.1170 C   0  0  0  0  0  3  0  0  0  0  0  0
  183.7450  178.6760  142.4130 C   0  0  0  0  0  0  0  0  0  0  0  0
  187.8880  177.6000  144.4040 C   0  0  0  0  0  3  0  0  0  0  0  0
  182.4440  175.3970  137.1980 C   0  0  0  0  0  0  0  0  0  0  0  0
  182.5420  174.8690  138.3400 O   0  0  0  0  0  0  0  0  0  0  0  0
  178.9360  172.9360  135.0560 C   0  0  0  0  0  3  0  0  0  0  0  0
  180.2550  173.1430  137.8560 S   0  0  0  0  0  0  0  0  0  0  0  0
  179.5090  171.8220  135.5490 C   0  0  0  0  0  3  0  0  0  0  0  0
  179.1950  174.3390  135.5540 C   0  0  0  0  0  2  0  0  0  0  0  0
  180.5540  171.8170  136.6350 C   0  0  1  0  0  3  0  0  0  0  0  0
  181.2630  175.2390  136.3980 N   0  0  0  0  0  0  0  0  0  0  0  0
  180.2930  174.3850  136.5580 C   0  0  0  0  0  0  0  0  0  0  0  0
  181.8260  171.9550  136.0720 O   0  0  0  0  0  0  0  0  0  0  0  0
  182.7030  171.4410  137.0290 C   0  0  0  0  0  2  0  0  0  0  0  0
  184.5860  172.6540  137.8120 F   0  0  0  0  0  0  0  0  0  0  0  0
  184.1120  171.9210  136.7410 C   0  0  0  0  0  2  0  0  0  0  0  0
  186.1170  178.0770  137.2590 C   0  0  0  0  0  2  0  0  0  0  0  0
  187.7040  177.0680  138.6480 C   0  0  0  0  0  2  0  0  0  0  0  0
  188.2170  179.0570  137.5680 C   0  0  0  0  0  2  0  0  0  0  0  0
  187.1440  178.3510  138.2490 N   0  0  0  0  0  0  0  0  0  0  0  0
  189.5240  178.5810  138.1620 C   0  0  0  0  0  2  0  0  0  0  0  0
  189.2080  177.2290  138.7580 C   0  0  2  0  0  3  0  0  0  0  0  0
  191.9070  176.7230  138.9690 O   0  0  0  0  0  0  0  0  0  0  0  0
  191.1160  174.1290  136.6900 C   0  0  0  0  0  0  0  0  0  0  0  0
  189.1830  175.3520  137.2220 N   0  0  0  0  0  0  0  0  0  0  0  0
  193.2200  174.5860  137.5600 C   0  0  0  0  0  3  0  0  0  0  0  0
  191.8670  174.9330  137.5160 C   0  0  0  0  0  0  0  0  0  0  0  0
  192.0980  172.9710  135.9950 S   0  0  0  0  0  0  0  0  0  0  0  0
  193.5250  173.4870  136.7510 C   0  0  0  0  0  3  0  0  0  0  0  0
  191.2420  175.9730  138.2040 C   0  0  0  0  0  0  0  0  0  0  0  0
  189.8930  176.1570  138.0320 N   0  0  0  0  0  0  0  0  0  0  0  0
  189.7560  174.3280  136.5320 C   0  0  0  0  0  3  0  0  0  0  0  0
  1  2  1  0  0  0  0
  2 34  1  6  0  0  0
  3 21  1  1  0  0  0
  3  4  1  0  0  0  0
  3  1  1  0  0  0  0
  4  2  1  0  0  0  0
  4  8  1  1  0  0  0
  5 13  1  0  0  0  0
  7 16  1  0  0  0  0
  8  7  1  0  0  0  0
  9  5  1  0  0  0  0
 10 16  2  0  0  0  0
 11 19  1  0  0  0  0
 12  8  2  0  0  0  0
 12 15  1  0  0  0  0
 13  6  2  0  0  0  0
 14 19  1  0  0  0  0
 14 17  1  0  0  0  0
 15 10  1  0  0  0  0
 16 11  1  0  0  0  0
 17 18  1  0  0  0  0
 17  5  2  0  0  0  0
 18 20  2  0  0  0  0
 19  9  2  0  0  0  0
 20  6  1  0  0  0  0
 21 22  2  0  0  0  0
 23 25  2  0  0  0  0
 23 26  1  0  0  0  0
 25 27  1  0  0  0  0
 26 29  1  0  0  0  0
 27 30  1  6  0  0  0
 27 24  1  0  0  0  0
 28 29  2  0  0  0  0
 28 21  1  0  0  0  0
 29 24  1  0  0  0  0
 30 31  1  0  0  0  0
 33 31  1  0  0  0  0
 33 32  1  0  0  0  0
 34 37  1  0  0  0  0
 35 39  1  0  0  0  0
 36 38  1  0  0  0  0
 36 37  1  0  0  0  0
 37 35  1  0  0  0  0
 38 39  1  0  0  0  0
 39 48  1  6  0  0  0
 41 44  2  0  0  0  0
 42 48  1  0  0  0  0
 44 43  1  0  0  0  0
 44 47  1  0  0  0  0
 45 41  1  0  0  0  0
 45 46  1  0  0  0  0
 46 43  2  0  0  0  0
 47 40  2  0  0  0  0
 48 47  1  0  0  0  0
 49 41  1  0  0  0  0
 49 42  2  0  0  0  0
M  END
>  <MODEL>
6

>  <REMARK>
 VINA RESULT:      -9.1      4.746      9.221
  Name = 
  9 active torsions:
  status: ('A' for Active; 'I' for Inactive)
    1  A    between atoms: C_7  and  C_32
    2  A    between atoms: C_7  and  N_42
    3  A    between atoms: C_12  and  C_47
    4  A    between atoms: C_15  and  C_24
    5  A    between atoms: C_15  and  O_48
    6  A    between atoms: C_21  and  C_43
    7  A    between atoms: N_30  and  C_43
    8  A    between atoms: N_33  and  C_38
    9  A    between atoms: C_35  and  O_48
                            x       y       z     vdW  Elec       q    Type
                         _______ _______ _______ _____ _____    ______ ____

>  <TORSDO>
F 9

$$$$
=
 OpenBabel10222419243D

 49 56  0  0  1  0  0  0  0  0999 V2000
  186.0030  178.7630  142.1780 C   0  0  0  0  0  2  0  0  0  0  0  0
  184.6400  178.4140  142.7570 C   0  0  2  0  0  3  0  0  0  0  0  0
  185.3370  179.5360  141.0500 C   0  0  2  0  0  3  0  0  0  0  0  0
  183.9620  179.2100  141.6500 C   0  0  1  0  0  3  0  0  0  0  0  0
  180.4000  182.2590  136.3980 C   0  0  0  0  0  0  0  0  0  0  0  0
  179.9840  184.4750  135.5610 C   0  0  0  0  0  3  0  0  0  0  0  0
  181.8650  178.9900  140.0690 C   0  0  0  0  0  2  0  0  0  0  0  0
  183.0440  178.3760  140.7860 C   0  0  0  0  0  0  0  0  0  0  0  0
  180.2890  180.9060  136.4110 N   0  0  0  0  0  0  0  0  0  0  0  0
  181.9330  177.0140  138.6700 N   0  0  0  0  0  0  0  0  0  0  0  0
  181.1020  178.9530  137.6200 N   0  0  0  0  0  2  0  0  0  0  0  0
  183.2980  177.1190  140.6330 N   0  0  0  0  0  0  0  0  0  0  0  0
  179.7740  183.0890  135.4700 C   0  0  0  0  0  3  0  0  0  0  0  0
  181.8230  181.5550  138.3330 S   0  0  0  0  0  0  0  0  0  0  0  0
  182.4400  176.2710  139.8260 C   0  0  0  0  0  2  0  0  0  0  0  0
  181.6510  178.2800  138.7590 C   0  0  0  0  0  0  0  0  0  0  0  0
  181.2080  182.7960  137.3890 C   0  0  0  0  0  0  0  0  0  0  0  0
  181.4350  184.1640  137.4990 C   0  0  0  0  0  3  0  0  0  0  0  0
  181.0040  180.3700  137.4280 C   0  0  0  0  0  0  0  0  0  0  0  0
  180.8090  185.0090  136.5690 C   0  0  0  0  0  3  0  0  0  0  0  0
  185.6270  178.9230  139.7050 C   0  0  0  0  0  0  0  0  0  0  0  0
  184.8760  179.1640  138.7210 O   0  0  0  0  0  0  0  0  0  0  0  0
  188.6000  175.9210  137.4460 C   0  0  0  0  0  3  0  0  0  0  0  0
  187.1780  178.6270  136.9110 S   0  0  0  0  0  0  0  0  0  0  0  0
  187.7500  175.9740  136.4020 C   0  0  0  0  0  3  0  0  0  0  0  0
  188.6420  176.9170  138.5820 C   0  0  0  0  0  2  0  0  0  0  0  0
  186.6610  177.0050  136.2470 C   0  0  1  0  0  3  0  0  0  0  0  0
  186.7890  178.0920  139.5750 N   0  0  0  0  0  0  0  0  0  0  0  0
  187.5200  177.8930  138.5160 C   0  0  0  0  0  0  0  0  0  0  0  0
  185.4980  176.5680  136.8880 O   0  0  0  0  0  0  0  0  0  0  0  0
  184.9550  175.6050  136.0360 C   0  0  0  0  0  2  0  0  0  0  0  0
  184.5280  174.3030  137.9730 F   0  0  0  0  0  0  0  0  0  0  0  0
  183.9590  174.7520  136.7960 C   0  0  0  0  0  2  0  0  0  0  0  0
  184.4400  179.1060  144.0920 C   0  0  0  0  0  2  0  0  0  0  0  0
  185.8730  177.3300  144.5980 C   0  0  0  0  0  2  0  0  0  0  0  0
  185.6310  179.0800  146.1030 C   0  0  0  0  0  2  0  0  0  0  0  0
  184.8940  178.2440  145.1680 N   0  0  0  0  0  0  0  0  0  0  0  0
  186.7880  178.2630  146.6300 C   0  0  0  0  0  2  0  0  0  0  0  0
  187.0190  177.1970  145.5840 C   0  0  2  0  0  3  0  0  0  0  0  0
  187.7000  175.9540  143.2230 O   0  0  0  0  0  0  0  0  0  0  0  0
  190.6880  177.8030  143.6630 C   0  0  0  0  0  0  0  0  0  0  0  0
  189.2110  178.2240  145.4400 N   0  0  0  0  0  0  0  0  0  0  0  0
  190.2150  176.3770  141.8920 C   0  0  0  0  0  3  0  0  0  0  0  0
  189.7770  176.9470  143.0920 C   0  0  0  0  0  0  0  0  0  0  0  0
  192.0560  177.8820  142.7070 S   0  0  0  0  0  0  0  0  0  0  0  0
  191.4960  176.8030  141.5260 C   0  0  0  0  0  3  0  0  0  0  0  0
  188.5540  176.7330  143.7270 C   0  0  0  0  0  0  0  0  0  0  0  0
  188.3020  177.3880  144.9060 N   0  0  0  0  0  0  0  0  0  0  0  0
  190.4170  178.4580  144.8510 C   0  0  0  0  0  3  0  0  0  0  0  0
  1  2  1  0  0  0  0
  2 34  1  1  0  0  0
  3 21  1  6  0  0  0
  3  4  1  0  0  0  0
  3  1  1  0  0  0  0
  4  8  1  6  0  0  0
  4  2  1  0  0  0  0
  5  9  1  0  0  0  0
  5 17  1  0  0  0  0
  6 20  2  0  0  0  0
  7  8  1  0  0  0  0
  9 19  2  0  0  0  0
 10 16  2  0  0  0  0
 10 15  1  0  0  0  0
 11 16  1  0  0  0  0
 12  8  2  0  0  0  0
 13  6  1  0  0  0  0
 13  5  2  0  0  0  0
 15 12  1  0  0  0  0
 16  7  1  0  0  0  0
 17 18  2  0  0  0  0
 17 14  1  0  0  0  0
 19 11  1  0  0  0  0
 19 14  1  0  0  0  0
 20 18  1  0  0  0  0
 22 21  2  0  0  0  0
 23 26  1  0  0  0  0
 24 29  1  0  0  0  0
 25 23  2  0  0  0  0
 27 25  1  0  0  0  0
 27 30  1  1  0  0  0
 27 24  1  0  0  0  0
 28 21  1  0  0  0  0
 29 26  1  0  0  0  0
 29 28  2  0  0  0  0
 31 33  1  0  0  0  0
 31 30  1  0  0  0  0
 33 32  1  0  0  0  0
 34 37  1  0  0  0  0
 35 37  1  0  0  0  0
 36 38  1  0  0  0  0
 37 36  1  0  0  0  0
 39 35  1  6  0  0  0
 39 38  1  0  0  0  0
 40 47  2  0  0  0  0
 41 49  1  0  0  0  0
 43 44  1  0  0  0  0
 44 41  2  0  0  0  0
 44 47  1  0  0  0  0
 45 41  1  0  0  0  0
 46 43  2  0  0  0  0
 46 45  1  0  0  0  0
 47 48  1  0  0  0  0
 48 42  1  0  0  0  0
 48 39  1  0  0  0  0
 49 42  2  0  0  0  0
M  END
>  <MODEL>
7

>  <REMARK>
 VINA RESULT:      -9.0      4.286      7.034
  Name = 
  9 active torsions:
  status: ('A' for Active; 'I' for Inactive)
    1  A    between atoms: C_7  and  C_32
    2  A    between atoms: C_7  and  N_42
    3  A    between atoms: C_12  and  C_47
    4  A    between atoms: C_15  and  C_24
    5  A    between atoms: C_15  and  O_48
    6  A    between atoms: C_21  and  C_43
    7  A    between atoms: N_30  and  C_43
    8  A    between atoms: N_33  and  C_38
    9  A    between atoms: C_35  and  O_48
                            x       y       z     vdW  Elec       q    Type
                         _______ _______ _______ _____ _____    ______ ____

>  <TORSDO>
F 9

$$$$
=
 OpenBabel10222419243D

 49 56  0  0  1  0  0  0  0  0999 V2000
  188.3110  177.2060  139.0100 C   0  0  0  0  0  2  0  0  0  0  0  0
  188.3320  176.7170  137.5700 C   0  0  2  0  0  3  0  0  0  0  0  0
  189.7590  177.6550  138.8890 C   0  0  2  0  0  3  0  0  0  0  0  0
  189.7710  177.1900  137.4260 C   0  0  1  0  0  3  0  0  0  0  0  0
  187.3060  170.9760  135.2180 C   0  0  0  0  0  0  0  0  0  0  0  0
  185.1830  169.8720  134.9720 C   0  0  0  0  0  3  0  0  0  0  0  0
  190.3290  174.6250  137.1800 C   0  0  0  0  0  2  0  0  0  0  0  0
  190.7390  176.0770  137.0940 C   0  0  0  0  0  0  0  0  0  0  0  0
  188.6570  171.0780  135.1400 N   0  0  0  0  0  0  0  0  0  0  0  0
  192.2390  174.2000  135.7530 N   0  0  0  0  0  0  0  0  0  0  0  0
  190.4580  172.6760  135.5180 N   0  0  0  0  0  2  0  0  0  0  0  0
  191.9290  176.3780  136.6950 N   0  0  0  0  0  0  0  0  0  0  0  0
  186.5830  169.8410  134.8560 C   0  0  0  0  0  3  0  0  0  0  0  0
  187.7820  173.2990  136.0170 S   0  0  0  0  0  0  0  0  0  0  0  0
  192.9010  175.3490  136.3780 C   0  0  0  0  0  2  0  0  0  0  0  0
  191.0440  173.8390  136.1140 C   0  0  0  0  0  0  0  0  0  0  0  0
  186.6520  172.1080  135.6810 C   0  0  0  0  0  0  0  0  0  0  0  0
  185.2680  172.1670  135.8020 C   0  0  0  0  0  3  0  0  0  0  0  0
  189.0760  172.2950  135.5610 C   0  0  0  0  0  0  0  0  0  0  0  0
  184.5300  171.0280  135.4410 C   0  0  0  0  0  3  0  0  0  0  0  0
  190.6600  176.8950  139.8260 C   0  0  0  0  0  0  0  0  0  0  0  0
  190.9310  175.6840  139.6040 O   0  0  0  0  0  0  0  0  0  0  0  0
  190.6870  178.6840  144.2700 C   0  0  0  0  0  3  0  0  0  0  0  0
  190.0470  176.0020  142.8470 S   0  0  0  0  0  0  0  0  0  0  0  0
  189.4350  178.2040  144.3970 C   0  0  0  0  0  3  0  0  0  0  0  0
  191.6800  178.2500  143.2180 C   0  0  0  0  0  2  0  0  0  0  0  0
  188.8120  177.2030  143.4580 C   0  0  1  0  0  3  0  0  0  0  0  0
  191.2200  177.5960  140.9460 N   0  0  0  0  0  0  0  0  0  0  0  0
  191.0710  177.3360  142.2130 C   0  0  0  0  0  0  0  0  0  0  0  0
  188.2110  177.8670  142.3860 O   0  0  0  0  0  0  0  0  0  0  0  0
  186.8550  177.9330  142.7150 C   0  0  0  0  0  2  0  0  0  0  0  0
  185.3280  179.7210  142.4030 F   0  0  0  0  0  0  0  0  0  0  0  0
  186.1320  178.8250  141.7250 C   0  0  0  0  0  2  0  0  0  0  0  0
  187.4170  177.5680  136.7090 C   0  0  0  0  0  2  0  0  0  0  0  0
  185.5930  176.2030  137.2350 C   0  0  0  0  0  2  0  0  0  0  0  0
  185.4760  177.6280  135.4070 C   0  0  0  0  0  2  0  0  0  0  0  0
  186.3730  176.7400  136.1300 N   0  0  0  0  0  0  0  0  0  0  0  0
  184.0710  177.1010  135.5870 C   0  0  0  0  0  2  0  0  0  0  0  0
  184.1270  176.2710  136.8490 C   0  0  2  0  0  3  0  0  0  0  0  0
  181.7660  175.2250  137.8060 O   0  0  0  0  0  0  0  0  0  0  0  0
  181.9370  178.0410  139.9460 C   0  0  0  0  0  0  0  0  0  0  0  0
  183.7870  178.0160  138.5000 N   0  0  0  0  0  0  0  0  0  0  0  0
  180.2640  176.4300  139.9420 C   0  0  0  0  0  3  0  0  0  0  0  0
  181.4610  176.8830  139.3790 C   0  0  0  0  0  0  0  0  0  0  0  0
  180.8980  178.5380  141.1560 S   0  0  0  0  0  0  0  0  0  0  0  0
  179.8030  177.2580  140.9710 C   0  0  0  0  0  3  0  0  0  0  0  0
  182.1800  176.2890  138.3420 C   0  0  0  0  0  0  0  0  0  0  0  0
  183.3430  176.8850  137.9220 N   0  0  0  0  0  0  0  0  0  0  0  0
  183.1140  178.6270  139.5130 C   0  0  0  0  0  3  0  0  0  0  0  0
  2 34  1  6  0  0  0
  2  1  1  0  0  0  0
  3  1  1  0  0  0  0
  3 21  1  1  0  0  0
  4  8  1  1  0  0  0
  4  2  1  0  0  0  0
  4  3  1  0  0  0  0
  5 17  1  0  0  0  0
  6 20  2  0  0  0  0
  8  7  1  0  0  0  0
  9  5  1  0  0  0  0
  9 19  2  0  0  0  0
 10 16  2  0  0  0  0
 10 15  1  0  0  0  0
 11 19  1  0  0  0  0
 11 16  1  0  0  0  0
 12  8  2  0  0  0  0
 13  6  1  0  0  0  0
 13  5  2  0  0  0  0
 15 12  1  0  0  0  0
 16  7  1  0  0  0  0
 17 18  2  0  0  0  0
 17 14  1  0  0  0  0
 19 14  1  0  0  0  0
 20 18  1  0  0  0  0
 21 28  1  0  0  0  0
 22 21  2  0  0  0  0
 23 25  2  0  0  0  0
 24 27  1  0  0  0  0
 26 23  1  0  0  0  0
 27 30  1  6  0  0  0
 27 25  1  0  0  0  0
 28 29  2  0  0  0  0
 29 24  1  0  0  0  0
 29 26  1  0  0  0  0
 30 31  1  0  0  0  0
 33 32  1  0  0  0  0
 33 31  1  0  0  0  0
 36 38  1  0  0  0  0
 36 37  1  0  0  0  0
 37 34  1  0  0  0  0
 37 35  1  0  0  0  0
 39 38  1  6  0  0  0
 39 35  1  0  0  0  0
 39 48  1  0  0  0  0
 40 47  2  0  0  0  0
 41 45  1  0  0  0  0
 42 49  2  0  0  0  0
 43 46  2  0  0  0  0
 44 43  1  0  0  0  0
 44 41  2  0  0  0  0
 46 45  1  0  0  0  0
 47 44  1  0  0  0  0
 48 47  1  0  0  0  0
 48 42  1  0  0  0  0
 49 41  1  0  0  0  0
M  END
>  <MODEL>
8

>  <REMARK>
 VINA RESULT:      -8.8      4.231      8.864
  Name = 
  9 active torsions:
  status: ('A' for Active; 'I' for Inactive)
    1  A    between atoms: C_7  and  C_32
    2  A    between atoms: C_7  and  N_42
    3  A    between atoms: C_12  and  C_47
    4  A    between atoms: C_15  and  C_24
    5  A    between atoms: C_15  and  O_48
    6  A    between atoms: C_21  and  C_43
    7  A    between atoms: N_30  and  C_43
    8  A    between atoms: N_33  and  C_38
    9  A    between atoms: C_35  and  O_48
                            x       y       z     vdW  Elec       q    Type
                         _______ _______ _______ _____ _____    ______ ____

>  <TORSDO>
F 9

$$$$
=
 OpenBabel10222419243D

 49 56  0  0  1  0  0  0  0  0999 V2000
  191.8450  176.5860  139.2250 C   0  0  0  0  0  2  0  0  0  0  0  0
  191.7210  176.7610  137.7190 C   0  0  2  0  0  3  0  0  0  0  0  0
  190.3960  176.1290  139.3010 C   0  0  2  0  0  3  0  0  0  0  0  0
  190.2790  176.2760  137.7770 C   0  0  1  0  0  3  0  0  0  0  0  0
  183.5840  174.3800  136.7090 C   0  0  0  0  0  0  0  0  0  0  0  0
  182.2690  172.3650  136.6940 C   0  0  0  0  0  3  0  0  0  0  0  0
  188.0510  176.8920  136.5100 C   0  0  0  0  0  2  0  0  0  0  0  0
  189.2820  177.3000  137.2860 C   0  0  0  0  0  0  0  0  0  0  0  0
  183.7910  175.7170  136.5900 N   0  0  0  0  0  0  0  0  0  0  0  0
  187.1760  179.0640  137.1260 N   0  0  0  0  0  0  0  0  0  0  0  0
  185.5530  177.3850  136.8170 N   0  0  0  0  0  2  0  0  0  0  0  0
  189.4700  178.5460  137.5680 N   0  0  0  0  0  0  0  0  0  0  0  0
  182.3500  173.7580  136.5270 C   0  0  0  0  0  3  0  0  0  0  0  0
  186.0200  174.6590  137.2080 S   0  0  0  0  0  0  0  0  0  0  0  0
  188.5510  179.5700  137.1090 C   0  0  0  0  0  2  0  0  0  0  0  0
  186.9170  177.8220  136.8450 C   0  0  0  0  0  0  0  0  0  0  0  0
  184.7030  173.6350  137.0460 C   0  0  0  0  0  0  0  0  0  0  0  0
  184.6510  172.2560  137.2210 C   0  0  0  0  0  3  0  0  0  0  0  0
  185.0880  176.0280  136.8200 C   0  0  0  0  0  0  0  0  0  0  0  0
  183.4130  171.6200  137.0390 C   0  0  0  0  0  3  0  0  0  0  0  0
  189.5540  177.0750  140.1160 C   0  0  0  0  0  0  0  0  0  0  0  0
  188.3080  177.1390  139.9300 O   0  0  0  0  0  0  0  0  0  0  0  0
  190.3820  178.6210  144.5750 C   0  0  0  0  0  3  0  0  0  0  0  0
  190.1100  175.9260  143.0620 S   0  0  0  0  0  0  0  0  0  0  0  0
  189.4010  177.7890  144.9720 C   0  0  0  0  0  3  0  0  0  0  0  0
  191.1070  178.5390  143.2510 C   0  0  0  0  0  2  0  0  0  0  0  0
  188.8280  176.6850  144.1200 C   0  0  1  0  0  3  0  0  0  0  0  0
  190.2030  177.8660  141.1220 N   0  0  0  0  0  0  0  0  0  0  0  0
  190.5040  177.5250  142.3420 C   0  0  0  0  0  0  0  0  0  0  0  0
  187.7850  177.1840  143.3340 O   0  0  0  0  0  0  0  0  0  0  0  0
  186.7790  177.5230  144.2420 C   0  0  0  0  0  2  0  0  0  0  0  0
  184.5500  178.3290  144.3390 F   0  0  0  0  0  0  0  0  0  0  0  0
  185.6580  178.2410  143.5170 C   0  0  0  0  0  2  0  0  0  0  0  0
  192.5820  175.7420  136.9960 C   0  0  0  0  0  2  0  0  0  0  0  0
  194.8200  175.1470  137.3230 C   0  0  0  0  0  2  0  0  0  0  0  0
  194.2270  176.4330  135.4840 C   0  0  0  0  0  2  0  0  0  0  0  0
  193.9470  176.2310  136.8970 N   0  0  0  0  0  0  0  0  0  0  0  0
  195.6670  176.0430  135.2450 C   0  0  0  0  0  2  0  0  0  0  0  0
  196.0090  175.1080  136.3830 C   0  0  2  0  0  3  0  0  0  0  0  0
  198.2500  173.6240  136.9840 O   0  0  0  0  0  0  0  0  0  0  0  0
  196.5940  171.1990  135.0040 C   0  0  0  0  0  0  0  0  0  0  0  0
  195.3030  173.1570  135.1260 N   0  0  0  0  0  0  0  0  0  0  0  0
  198.6510  170.9330  136.0500 C   0  0  0  0  0  3  0  0  0  0  0  0
  197.5610  171.7720  135.7950 C   0  0  0  0  0  0  0  0  0  0  0  0
  197.0540  169.6450  134.5970 S   0  0  0  0  0  0  0  0  0  0  0  0
  198.5230  169.6810  135.4410 C   0  0  0  0  0  3  0  0  0  0  0  0
  197.3790  173.0770  136.2540 C   0  0  0  0  0  0  0  0  0  0  0  0
  196.2350  173.7450  135.8980 N   0  0  0  0  0  0  0  0  0  0  0  0
  195.4450  171.8870  134.6570 C   0  0  0  0  0  3  0  0  0  0  0  0
  1  3  1  0  0  0  0
  2 34  1  6  0  0  0
  2  4  1  0  0  0  0
  2  1  1  0  0  0  0
  3 21  1  1  0  0  0
  4  8  1  1  0  0  0
  4  3  1  0  0  0  0
  5 17  1  0  0  0  0
  6 20  2  0  0  0  0
  7 16  1  0  0  0  0
  7  8  1  0  0  0  0
  8 12  2  0  0  0  0
  9  5  1  0  0  0  0
  9 19  2  0  0  0  0
 11 19  1  0  0  0  0
 11 16  1  0  0  0  0
 13  6  1  0  0  0  0
 13  5  2  0  0  0  0
 15 10  1  0  0  0  0
 15 12  1  0  0  0  0
 16 10  2  0  0  0  0
 17 14  1  0  0  0  0
 17 18  2  0  0  0  0
 19 14  1  0  0  0  0
 20 18  1  0  0  0  0
 21 28  1  0  0  0  0
 22 21  2  0  0  0  0
 23 25  2  0  0  0  0
 24 27  1  0  0  0  0
 26 23  1  0  0  0  0
 27 30  1  6  0  0  0
 27 25  1  0  0  0  0
 28 29  2  0  0  0  0
 29 24  1  0  0  0  0
 29 26  1  0  0  0  0
 30 31  1  0  0  0  0
 33 31  1  0  0  0  0
 33 32  1  0  0  0  0
 36 37  1  0  0  0  0
 37 34  1  0  0  0  0
 37 35  1  0  0  0  0
 38 36  1  0  0  0  0
 39 38  1  6  0  0  0
 39 35  1  0  0  0  0
 41 44  2  0  0  0  0
 42 48  1  0  0  0  0
 44 43  1  0  0  0  0
 44 47  1  0  0  0  0
 45 41  1  0  0  0  0
 45 46  1  0  0  0  0
 46 43  2  0  0  0  0
 47 40  2  0  0  0  0
 48 47  1  0  0  0  0
 48 39  1  0  0  0  0
 49 41  1  0  0  0  0
 49 42  2  0  0  0  0
M  END
>  <MODEL>
9

>  <REMARK>
 VINA RESULT:      -8.7      3.947      9.462
  Name = 
  9 active torsions:
  status: ('A' for Active; 'I' for Inactive)
    1  A    between atoms: C_7  and  C_32
    2  A    between atoms: C_7  and  N_42
    3  A    between atoms: C_12  and  C_47
    4  A    between atoms: C_15  and  C_24
    5  A    between atoms: C_15  and  O_48
    6  A    between atoms: C_21  and  C_43
    7  A    between atoms: N_30  and  C_43
    8  A    between atoms: N_33  and  C_38
    9  A    between atoms: C_35  and  O_48
                            x       y       z     vdW  Elec       q    Type
                         _______ _______ _______ _____ _____    ______ ____

>  <TORSDO>
F 9

$$$$
