=
 OpenBabel10222418043D

 35 40  0  0  1  0  0  0  0  0999 V2000
  184.2390  179.0150  142.7870 N   0  0  0  0  0  0  0  0  0  0  0  0
  187.7290  177.6390  142.9790 C   0  0  0  0  0  0  0  0  0  0  0  0
  185.9840  178.0950  144.7240 C   0  0  0  0  0  0  0  0  0  0  0  0
  188.3620  177.7080  145.3920 C   0  0  2  0  0  3  0  0  0  0  0  0
  189.8820  177.6410  139.8940 C   0  0  0  0  0  3  0  0  0  0  0  0
  188.1350  177.7230  141.7000 C   0  0  0  0  0  0  0  0  0  0  0  0
  183.8490  179.0130  144.0900 C   0  0  0  0  0  0  0  0  0  0  0  0
  186.8930  177.5610  145.7930 C   0  0  0  0  0  2  0  0  0  0  0  0
  185.4700  178.5700  142.3990 C   0  0  0  0  0  0  0  0  0  0  0  0
  189.0090  178.1950  139.0500 C   0  0  0  0  0  0  0  0  0  0  0  0
  188.6260  177.0490  144.0380 C   0  0  0  0  0  2  0  0  0  0  0  0
  187.6610  178.4760  139.4570 N   0  0  0  0  0  0  0  0  0  0  0  0
  186.3700  178.0950  143.3700 C   0  0  0  0  0  0  0  0  0  0  0  0
  189.4980  177.2250  141.2870 C   0  0  0  0  0  3  0  0  0  0  0  0
  187.2200  178.2700  140.6640 C   0  0  2  0  0  3  0  0  0  0  0  0
  185.8560  178.5940  141.0090 N   0  0  0  0  0  0  0  0  0  0  0  0
  184.7140  178.5440  145.0790 C   0  0  0  0  0  3  0  0  0  0  0  0
  189.2430  177.1560  146.4230 N   0  0  0  0  0  0  0  0  0  0  0  0
  191.1400  177.4920  145.0940 O   0  0  0  0  0  0  0  0  0  0  0  0
  190.6570  177.0820  146.1850 C   0  0  0  0  0  0  0  0  0  0  0  0
  191.5850  176.5290  147.2160 C   0  0  0  0  0  1  0  0  0  0  0  0
  188.6790  176.6790  147.6830 C   0  0  0  0  0  1  0  0  0  0  0  0
  183.6780  178.2470  139.9290 C   0  0  0  0  0  2  0  0  0  0  0  0
  184.9300  179.1100  139.9900 C   0  0  0  0  0  3  0  0  0  0  0  0
  184.7420  178.0930  138.8730 C   0  0  0  0  0  2  0  0  0  0  0  0
  189.4500  178.5500  137.6720 C   0  0  0  0  0  2  0  0  0  0  0  0
  188.8640  179.7580  137.2880 O   0  0  0  0  0  1  0  0  0  0  0  0
  182.4890  179.4950  144.4670 C   0  0  0  0  0  2  0  0  0  0  0  0
  181.4190  178.6650  143.7770 C   0  0  0  0  0  2  0  0  0  0  0  0
  180.0630  180.1860  140.9010 C   0  0  0  0  0  0  0  0  0  0  0  0
  180.7730  179.2290  141.4470 O   0  0  0  0  0  0  0  0  0  0  0  0
  180.7320  179.4780  142.7340 C   0  0  0  0  0  0  0  0  0  0  0  0
  179.5810  181.0330  141.8290 N   0  0  0  0  0  0  0  0  0  0  0  0
  180.0090  180.5800  143.0000 N   0  0  0  0  0  0  0  0  0  0  0  0
  179.8140  180.3210  139.4410 C   0  0  0  0  0  1  0  0  0  0  0  0
  1  7  1  0  0  0  0
  2 13  1  0  0  0  0
  2 11  1  0  0  0  0
  3 17  1  0  0  0  0
  3  8  1  0  0  0  0
  4  8  1  0  0  0  0
  4 18  1  1  0  0  0
  5 14  2  0  0  0  0
  6  2  2  0  0  0  0
  7 28  1  0  0  0  0
  7 17  2  0  0  0  0
  9  1  2  0  0  0  0
  9 13  1  0  0  0  0
 10 12  2  0  0  0  0
 10  5  1  0  0  0  0
 11  4  1  0  0  0  0
 13  3  2  0  0  0  0
 14  6  1  0  0  0  0
 15 12  1  1  0  0  0
 15 16  1  0  0  0  0
 15  6  1  0  0  0  0
 16  9  1  0  0  0  0
 18 22  1  0  0  0  0
 19 20  2  0  0  0  0
 20 18  1  0  0  0  0
 20 21  1  0  0  0  0
 23 24  1  0  0  0  0
 24 16  1  0  0  0  0
 25 23  1  0  0  0  0
 25 24  1  0  0  0  0
 26 10  1  0  0  0  0
 27 26  1  0  0  0  0
 29 28  1  0  0  0  0
 30 31  1  0  0  0  0
 30 33  2  0  0  0  0
 31 32  1  0  0  0  0
 32 34  2  0  0  0  0
 32 29  1  0  0  0  0
 33 34  1  0  0  0  0
 35 30  1  0  0  0  0
M  END
>  <MODEL>
1

>  <REMARK>
 VINA RESULT:     -10.6      0.000      0.000
  Name = 
  6 active torsions:
  status: ('A' for Active; 'I' for Inactive)
    1  A    between atoms: N_1  and  C_10
    2  A    between atoms: C_3  and  C_8
    3  A    between atoms: C_3  and  C_24
    4  A    between atoms: C_9  and  CA_21
    5  A    between atoms: C_13  and  C_24
    6  A    between atoms: C_15  and  N_32
                            x       y       z     vdW  Elec       q    Type
                         _______ _______ _______ _____ _____    ______ ____

>  <TORSDO>
F 6

$$$$
=
 OpenBabel10222418043D

 35 40  0  0  1  0  0  0  0  0999 V2000
  185.7870  178.0900  145.3570 N   0  0  0  0  0  0  0  0  0  0  0  0
  189.0530  177.6480  143.5530 C   0  0  0  0  0  0  0  0  0  0  0  0
  186.7380  178.2110  142.7640 C   0  0  0  0  0  0  0  0  0  0  0  0
  188.4790  177.4680  141.1300 C   0  0  2  0  0  3  0  0  0  0  0  0
  192.0470  176.3880  145.4490 C   0  0  0  0  0  3  0  0  0  0  0  0
  189.8770  177.2840  144.5510 C   0  0  0  0  0  0  0  0  0  0  0  0
  184.9260  178.3770  144.3430 C   0  0  0  0  0  0  0  0  0  0  0  0
  187.2330  178.3270  141.3500 C   0  0  0  0  0  2  0  0  0  0  0  0
  187.1150  177.8650  145.1370 C   0  0  0  0  0  0  0  0  0  0  0  0
  191.4750  176.2540  146.6480 C   0  0  0  0  0  0  0  0  0  0  0  0
  189.5680  177.8170  142.1460 C   0  0  0  0  0  2  0  0  0  0  0  0
  190.1240  176.6820  146.8750 N   0  0  0  0  0  0  0  0  0  0  0  0
  187.6190  177.9250  143.8240 C   0  0  0  0  0  0  0  0  0  0  0  0
  191.3440  177.0400  144.2920 C   0  0  0  0  0  2  0  0  0  0  0  0
  189.3580  177.1620  145.9380 C   0  0  0  0  0  0  0  0  0  0  0  0
  188.0000  177.5550  146.2340 N   0  0  0  0  0  0  0  0  0  0  0  0
  185.3910  178.4500  143.0290 C   0  0  0  0  0  3  0  0  0  0  0  0
  188.9760  177.6090  139.7610 N   0  0  0  0  0  0  0  0  0  0  0  0
  190.6480  176.0100  140.1190 O   0  0  0  0  0  0  0  0  0  0  0  0
  190.0960  176.8210  139.3260 C   0  0  0  0  0  0  0  0  0  0  0  0
  190.6270  176.9370  137.9350 C   0  0  0  0  0  1  0  0  0  0  0  0
  188.3370  178.5530  138.8490 C   0  0  0  0  0  1  0  0  0  0  0  0
  186.9340  178.8160  148.0500 C   0  0  0  0  0  2  0  0  0  0  0  0
  187.4790  177.4680  147.6060 C   0  0  0  0  0  3  0  0  0  0  0  0
  188.2830  178.3590  148.5420 C   0  0  0  0  0  2  0  0  0  0  0  0
  192.2450  175.6290  147.7590 C   0  0  0  0  0  2  0  0  0  0  0  0
  192.7870  176.6250  148.5740 O   0  0  0  0  0  1  0  0  0  0  0  0
  183.4860  178.6310  144.6310 C   0  0  0  0  0  2  0  0  0  0  0  0
  182.8490  179.4250  143.5030 C   0  0  0  0  0  2  0  0  0  0  0  0
  179.9000  178.1070  142.0920 C   0  0  0  0  0  0  0  0  0  0  0  0
  181.1220  178.5580  141.9440 O   0  0  0  0  0  0  0  0  0  0  0  0
  181.5170  178.8520  143.1590 C   0  0  0  0  0  0  0  0  0  0  0  0
  179.5240  178.1180  143.3840 N   0  0  0  0  0  0  0  0  0  0  0  0
  180.5570  178.5950  144.0650 N   0  0  0  0  0  0  0  0  0  0  0  0
  179.0360  177.6370  140.9760 C   0  0  0  0  0  1  0  0  0  0  0  0
  2 13  1  0  0  0  0
  2  6  2  0  0  0  0
  3 17  2  0  0  0  0
  3 13  1  0  0  0  0
  4 18  1  6  0  0  0
  4  8  1  0  0  0  0
  4 11  1  0  0  0  0
  5 10  2  0  0  0  0
  6 15  1  0  0  0  0
  7 28  1  0  0  0  0
  7  1  2  0  0  0  0
  8  3  1  0  0  0  0
  9  1  1  0  0  0  0
  9 16  1  0  0  0  0
 10 12  1  0  0  0  0
 10 26  1  0  0  0  0
 11  2  1  0  0  0  0
 13  9  2  0  0  0  0
 14  6  1  0  0  0  0
 14  5  1  0  0  0  0
 15 16  1  0  0  0  0
 15 12  2  0  0  0  0
 16 24  1  0  0  0  0
 17  7  1  0  0  0  0
 20 18  1  0  0  0  0
 20 19  2  0  0  0  0
 21 20  1  0  0  0  0
 22 18  1  0  0  0  0
 23 25  1  0  0  0  0
 24 23  1  0  0  0  0
 24 25  1  0  0  0  0
 26 27  1  0  0  0  0
 29 28  1  0  0  0  0
 30 33  2  0  0  0  0
 31 30  1  0  0  0  0
 31 32  1  0  0  0  0
 32 29  1  0  0  0  0
 32 34  2  0  0  0  0
 33 34  1  0  0  0  0
 35 30  1  0  0  0  0
M  END
>  <MODEL>
2

>  <REMARK>
 VINA RESULT:     -10.4      2.089      5.821
  Name = 
  6 active torsions:
  status: ('A' for Active; 'I' for Inactive)
    1  A    between atoms: N_1  and  C_10
    2  A    between atoms: C_3  and  C_8
    3  A    between atoms: C_3  and  C_24
    4  A    between atoms: C_9  and  CA_21
    5  A    between atoms: C_13  and  C_24
    6  A    between atoms: C_15  and  N_32
                            x       y       z     vdW  Elec       q    Type
                         _______ _______ _______ _____ _____    ______ ____

>  <TORSDO>
F 6

$$$$
=
 OpenBabel10222418043D

 35 40  0  0  1  0  0  0  0  0999 V2000
  185.4450  178.1740  144.4110 N   0  0  0  0  0  0  0  0  0  0  0  0
  188.9170  177.8130  143.0230 C   0  0  0  0  0  0  0  0  0  0  0  0
  186.7020  178.3070  141.9530 C   0  0  0  0  0  0  0  0  0  0  0  0
  188.6490  177.6040  140.5500 C   0  0  2  0  0  3  0  0  0  0  0  0
  191.6910  176.6490  145.2810 C   0  0  0  0  0  3  0  0  0  0  0  0
  189.6230  177.4790  144.1170 C   0  0  0  0  0  0  0  0  0  0  0  0
  184.7070  178.4300  143.2980 C   0  0  0  0  0  0  0  0  0  0  0  0
  187.3620  178.4290  140.6090 C   0  0  0  0  0  2  0  0  0  0  0  0
  186.7960  177.9840  144.3570 C   0  0  0  0  0  0  0  0  0  0  0  0
  190.9810  176.5060  146.4020 C   0  0  0  0  0  0  0  0  0  0  0  0
  189.5950  177.9900  141.6880 C   0  0  0  0  0  2  0  0  0  0  0  0
  189.6010  176.8960  146.4590 N   0  0  0  0  0  0  0  0  0  0  0  0
  187.4540  178.0520  143.1150 C   0  0  0  0  0  0  0  0  0  0  0  0
  191.1170  177.2740  144.0410 C   0  0  0  0  0  2  0  0  0  0  0  0
  188.9420  177.3500  145.4310 C   0  0  0  0  0  0  0  0  0  0  0  0
  187.5480  177.7060  145.5570 N   0  0  0  0  0  0  0  0  0  0  0  0
  185.3270  178.5100  142.0500 C   0  0  0  0  0  3  0  0  0  0  0  0
  189.3050  177.7510  139.2510 N   0  0  0  0  0  0  0  0  0  0  0  0
  190.5420  175.7880  139.5640 O   0  0  0  0  0  0  0  0  0  0  0  0
  190.2650  176.7720  138.8240 C   0  0  0  0  0  0  0  0  0  0  0  0
  190.9520  176.8890  137.5020 C   0  0  0  0  0  1  0  0  0  0  0  0
  188.9860  178.8940  138.4000 C   0  0  0  0  0  1  0  0  0  0  0  0
  186.0360  178.8610  147.1070 C   0  0  0  0  0  2  0  0  0  0  0  0
  186.8660  177.6120  146.8550 C   0  0  0  0  0  3  0  0  0  0  0  0
  187.3630  178.6960  147.8020 C   0  0  0  0  0  2  0  0  0  0  0  0
  191.6260  175.9090  147.6050 C   0  0  0  0  0  2  0  0  0  0  0  0
  192.3770  176.8820  148.2670 O   0  0  0  0  0  1  0  0  0  0  0  0
  183.2360  178.6460  143.4060 C   0  0  0  0  0  2  0  0  0  0  0  0
  182.5690  178.4600  142.0530 C   0  0  0  0  0  2  0  0  0  0  0  0
  179.8730  180.5370  141.1380 C   0  0  0  0  0  0  0  0  0  0  0  0
  180.8460  179.7280  140.7950 O   0  0  0  0  0  0  0  0  0  0  0  0
  181.3950  179.3690  141.9300 C   0  0  0  0  0  0  0  0  0  0  0  0
  179.8080  180.6910  142.4730 N   0  0  0  0  0  0  0  0  0  0  0  0
  180.7810  179.9460  142.9780 N   0  0  0  0  0  0  0  0  0  0  0  0
  178.9500  181.1990  140.1770 C   0  0  0  0  0  1  0  0  0  0  0  0
  2 13  1  0  0  0  0
  2  6  2  0  0  0  0
  3 17  2  0  0  0  0
  3 13  1  0  0  0  0
  4 18  1  6  0  0  0
  4  8  1  0  0  0  0
  4 11  1  0  0  0  0
  5 10  2  0  0  0  0
  6 15  1  0  0  0  0
  7 28  1  0  0  0  0
  7  1  2  0  0  0  0
  8  3  1  0  0  0  0
  9  1  1  0  0  0  0
  9 16  1  0  0  0  0
 10 12  1  0  0  0  0
 10 26  1  0  0  0  0
 11  2  1  0  0  0  0
 13  9  2  0  0  0  0
 14  6  1  0  0  0  0
 14  5  1  0  0  0  0
 15 16  1  0  0  0  0
 15 12  2  0  0  0  0
 16 24  1  0  0  0  0
 17  7  1  0  0  0  0
 20 18  1  0  0  0  0
 20 19  2  0  0  0  0
 21 20  1  0  0  0  0
 22 18  1  0  0  0  0
 23 25  1  0  0  0  0
 24 23  1  0  0  0  0
 24 25  1  0  0  0  0
 26 27  1  0  0  0  0
 29 28  1  0  0  0  0
 30 33  2  0  0  0  0
 31 30  1  0  0  0  0
 31 32  1  0  0  0  0
 32 29  1  0  0  0  0
 32 34  2  0  0  0  0
 33 34  1  0  0  0  0
 35 30  1  0  0  0  0
M  END
>  <MODEL>
3

>  <REMARK>
 VINA RESULT:     -10.3      1.761      5.601
  Name = 
  6 active torsions:
  status: ('A' for Active; 'I' for Inactive)
    1  A    between atoms: N_1  and  C_10
    2  A    between atoms: C_3  and  C_8
    3  A    between atoms: C_3  and  C_24
    4  A    between atoms: C_9  and  CA_21
    5  A    between atoms: C_13  and  C_24
    6  A    between atoms: C_15  and  N_32
                            x       y       z     vdW  Elec       q    Type
                         _______ _______ _______ _____ _____    ______ ____

>  <TORSDO>
F 6

$$$$
=
 OpenBabel10222418043D

 35 40  0  0  1  0  0  0  0  0999 V2000
  188.5680  177.3790  145.2830 N   0  0  0  0  0  0  0  0  0  0  0  0
  186.6930  178.2200  142.1380 C   0  0  0  0  0  0  0  0  0  0  0  0
  186.0140  178.1450  144.5530 C   0  0  0  0  0  0  0  0  0  0  0  0
  184.2750  178.2090  142.7570 C   0  0  2  0  0  3  0  0  0  0  0  0
  188.3600  177.6970  138.8060 C   0  0  0  0  0  3  0  0  0  0  0  0
  187.6210  177.9940  141.1910 C   0  0  0  0  0  0  0  0  0  0  0  0
  187.6140  177.5220  146.2430 C   0  0  0  0  0  0  0  0  0  0  0  0
  184.6300  178.6020  144.1920 C   0  0  0  0  0  2  0  0  0  0  0  0
  188.3070  177.6060  143.9630 C   0  0  0  0  0  0  0  0  0  0  0  0
  189.5300  177.2280  139.2470 C   0  0  0  0  0  0  0  0  0  0  0  0
  185.3230  178.7330  141.7740 C   0  0  0  0  0  2  0  0  0  0  0  0
  189.8270  177.1820  140.6500 N   0  0  0  0  0  0  0  0  0  0  0  0
  187.0140  178.0010  143.5720 C   0  0  0  0  0  0  0  0  0  0  0  0
  187.3170  178.2530  139.7350 C   0  0  0  0  0  2  0  0  0  0  0  0
  188.9780  177.5280  141.5740 C   0  0  0  0  0  0  0  0  0  0  0  0
  189.3390  177.4370  142.9690 N   0  0  0  0  0  0  0  0  0  0  0  0
  186.3220  177.9170  145.8920 C   0  0  0  0  0  3  0  0  0  0  0  0
  182.9380  178.6840  142.3990 N   0  0  0  0  0  0  0  0  0  0  0  0
  183.1480  177.8740  140.2130 O   0  0  0  0  0  0  0  0  0  0  0  0
  182.4390  178.4700  141.0700 C   0  0  0  0  0  0  0  0  0  0  0  0
  181.0780  178.9400  140.6720 C   0  0  0  0  0  1  0  0  0  0  0  0
  182.1230  179.3790  143.3920 C   0  0  0  0  0  1  0  0  0  0  0  0
  191.3840  178.1030  144.1540 C   0  0  0  0  0  2  0  0  0  0  0  0
  190.6870  177.0040  143.3660 C   0  0  0  0  0  3  0  0  0  0  0  0
  191.7460  177.8780  142.7090 C   0  0  0  0  0  2  0  0  0  0  0  0
  190.5300  176.7240  138.2660 C   0  0  0  0  0  2  0  0  0  0  0  0
  190.9240  175.4320  138.6180 O   0  0  0  0  0  1  0  0  0  0  0  0
  187.9470  177.2770  147.6750 C   0  0  0  0  0  2  0  0  0  0  0  0
  189.1390  178.1200  148.0970 C   0  0  0  0  0  2  0  0  0  0  0  0
  191.7940  176.0030  147.1530 C   0  0  0  0  0  0  0  0  0  0  0  0
  190.5500  176.3900  147.0110 O   0  0  0  0  0  0  0  0  0  0  0  0
  190.4060  177.3680  147.8720 C   0  0  0  0  0  0  0  0  0  0  0  0
  192.4310  176.7240  148.0940 N   0  0  0  0  0  0  0  0  0  0  0  0
  191.5430  177.5950  148.5540 N   0  0  0  0  0  0  0  0  0  0  0  0
  192.4300  174.9090  146.3700 C   0  0  0  0  0  1  0  0  0  0  0  0
  1  7  1  0  0  0  0
  2 13  1  0  0  0  0
  3 17  1  0  0  0  0
  4 18  1  6  0  0  0
  4  8  1  0  0  0  0
  5 10  2  0  0  0  0
  5 14  1  0  0  0  0
  6 15  1  0  0  0  0
  6  2  2  0  0  0  0
  7 28  1  0  0  0  0
  8  3  1  0  0  0  0
  9  1  2  0  0  0  0
 10 12  1  0  0  0  0
 11  2  1  0  0  0  0
 11  4  1  0  0  0  0
 12 15  2  0  0  0  0
 13  9  1  0  0  0  0
 13  3  2  0  0  0  0
 14  6  1  0  0  0  0
 15 16  1  0  0  0  0
 16 24  1  0  0  0  0
 16  9  1  0  0  0  0
 17  7  2  0  0  0  0
 18 22  1  0  0  0  0
 19 20  2  0  0  0  0
 20 18  1  0  0  0  0
 21 20  1  0  0  0  0
 24 23  1  0  0  0  0
 25 24  1  0  0  0  0
 25 23  1  0  0  0  0
 26 27  1  0  0  0  0
 26 10  1  0  0  0  0
 28 29  1  0  0  0  0
 30 33  2  0  0  0  0
 31 30  1  0  0  0  0
 31 32  1  0  0  0  0
 32 29  1  0  0  0  0
 32 34  2  0  0  0  0
 33 34  1  0  0  0  0
 35 30  1  0  0  0  0
M  END
>  <MODEL>
4

>  <REMARK>
 VINA RESULT:      -9.5      1.959      7.670
  Name = 
  6 active torsions:
  status: ('A' for Active; 'I' for Inactive)
    1  A    between atoms: N_1  and  C_10
    2  A    between atoms: C_3  and  C_8
    3  A    between atoms: C_3  and  C_24
    4  A    between atoms: C_9  and  CA_21
    5  A    between atoms: C_13  and  C_24
    6  A    between atoms: C_15  and  N_32
                            x       y       z     vdW  Elec       q    Type
                         _______ _______ _______ _____ _____    ______ ____

>  <TORSDO>
F 6

$$$$
=
 OpenBabel10222418043D

 35 40  0  0  1  0  0  0  0  0999 V2000
  189.2770  178.2100  140.8220 N   0  0  0  0  0  0  0  0  0  0  0  0
  186.4770  177.9170  143.3090 C   0  0  0  0  0  0  0  0  0  0  0  0
  186.5150  178.3150  140.8310 C   0  0  0  0  0  0  0  0  0  0  0  0
  184.4370  178.7640  142.1470 C   0  0  2  0  0  3  0  0  0  0  0  0
  187.2860  177.7130  146.9760 C   0  0  0  0  0  3  0  0  0  0  0  0
  187.1450  177.7790  144.4680 C   0  0  0  0  0  0  0  0  0  0  0  0
  188.6140  178.4350  139.6550 C   0  0  0  0  0  0  0  0  0  0  0  0
  185.0140  178.3340  140.7970 C   0  0  0  0  0  2  0  0  0  0  0  0
  188.6210  178.0290  142.0040 C   0  0  0  0  0  0  0  0  0  0  0  0
  188.6170  177.7790  146.8850 C   0  0  0  0  0  0  0  0  0  0  0  0
  184.9700  177.8780  143.2740 C   0  0  0  0  0  2  0  0  0  0  0  0
  189.2720  177.7820  145.6080 N   0  0  0  0  0  0  0  0  0  0  0  0
  187.2150  178.0750  142.0290 C   0  0  0  0  0  0  0  0  0  0  0  0
  186.4040  177.5770  145.7670 C   0  0  0  0  0  3  0  0  0  0  0  0
  188.6310  177.7790  144.4740 C   0  0  2  0  0  3  0  0  0  0  0  0
  189.3560  177.8010  143.2260 N   0  0  0  0  0  0  0  0  0  0  0  0
  187.2200  178.4820  139.6410 C   0  0  0  0  0  3  0  0  0  0  0  0
  182.9740  178.7490  142.1190 N   0  0  0  0  0  0  0  0  0  0  0  0
  182.8450  179.2390  144.4040 O   0  0  0  0  0  0  0  0  0  0  0  0
  182.2360  179.0030  143.3250 C   0  0  0  0  0  0  0  0  0  0  0  0
  180.7430  179.0000  143.3310 C   0  0  0  0  0  1  0  0  0  0  0  0
  182.2730  178.4710  140.8680 C   0  0  0  0  0  1  0  0  0  0  0  0
  191.3260  176.8400  142.1210 C   0  0  0  0  0  2  0  0  0  0  0  0
  190.8250  177.7730  143.2140 C   0  0  0  0  0  3  0  0  0  0  0  0
  191.3380  176.3810  143.5570 C   0  0  0  0  0  2  0  0  0  0  0  0
  189.4300  177.8780  148.1280 C   0  0  0  0  0  2  0  0  0  0  0  0
  188.6140  178.2530  149.1970 O   0  0  0  0  0  1  0  0  0  0  0  0
  189.3710  178.6130  138.3840 C   0  0  0  0  0  2  0  0  0  0  0  0
  189.1840  177.4070  137.4780 C   0  0  0  0  0  2  0  0  0  0  0  0
  192.1930  175.6140  137.8730 C   0  0  0  0  0  0  0  0  0  0  0  0
  191.5700  176.7530  137.6930 O   0  0  0  0  0  0  0  0  0  0  0  0
  190.2970  176.4360  137.6790 C   0  0  0  0  0  0  0  0  0  0  0  0
  191.3280  174.5880  137.9680 N   0  0  0  0  0  0  0  0  0  0  0  0
  190.1170  175.1130  137.8430 N   0  0  0  0  0  0  0  0  0  0  0  0
  193.6710  175.4690  137.9670 C   0  0  0  0  0  1  0  0  0  0  0  0
  1  9  1  0  0  0  0
  2  6  2  0  0  0  0
  3 13  1  0  0  0  0
  4 18  1  6  0  0  0
  4 11  1  0  0  0  0
  6 14  1  0  0  0  0
  7  1  2  0  0  0  0
  8  3  1  0  0  0  0
  8  4  1  0  0  0  0
  9 13  2  0  0  0  0
  9 16  1  0  0  0  0
 10  5  1  0  0  0  0
 10 26  1  0  0  0  0
 11  2  1  0  0  0  0
 12 10  2  0  0  0  0
 13  2  1  0  0  0  0
 14  5  2  0  0  0  0
 15  6  1  1  0  0  0
 15 12  1  0  0  0  0
 16 15  1  0  0  0  0
 17  7  1  0  0  0  0
 17  3  2  0  0  0  0
 18 20  1  0  0  0  0
 20 21  1  0  0  0  0
 20 19  2  0  0  0  0
 22 18  1  0  0  0  0
 23 24  1  0  0  0  0
 23 25  1  0  0  0  0
 24 16  1  0  0  0  0
 24 25  1  0  0  0  0
 26 27  1  0  0  0  0
 28  7  1  0  0  0  0
 29 32  1  0  0  0  0
 29 28  1  0  0  0  0
 30 35  1  0  0  0  0
 30 33  2  0  0  0  0
 31 30  1  0  0  0  0
 32 31  1  0  0  0  0
 32 34  2  0  0  0  0
 34 33  1  0  0  0  0
M  END
>  <MODEL>
5

>  <REMARK>
 VINA RESULT:      -9.5      2.414      8.484
  Name = 
  6 active torsions:
  status: ('A' for Active; 'I' for Inactive)
    1  A    between atoms: N_1  and  C_10
    2  A    between atoms: C_3  and  C_8
    3  A    between atoms: C_3  and  C_24
    4  A    between atoms: C_9  and  CA_21
    5  A    between atoms: C_13  and  C_24
    6  A    between atoms: C_15  and  N_32
                            x       y       z     vdW  Elec       q    Type
                         _______ _______ _______ _____ _____    ______ ____

>  <TORSDO>
F 6

$$$$
=
 OpenBabel10222418043D

 35 40  0  0  1  0  0  0  0  0999 V2000
  190.3270  177.5430  141.7170 N   0  0  0  0  0  0  0  0  0  0  0  0
  186.8990  177.8930  143.2130 C   0  0  0  0  0  0  0  0  0  0  0  0
  187.7330  177.9370  140.8460 C   0  0  0  0  0  0  0  0  0  0  0  0
  185.4420  178.7790  141.3900 C   0  0  2  0  0  3  0  0  0  0  0  0
  186.5340  178.1160  146.9500 C   0  0  0  0  0  3  0  0  0  0  0  0
  187.1620  177.8480  144.5310 C   0  0  0  0  0  0  0  0  0  0  0  0
  190.0820  177.6710  140.3850 C   0  0  0  0  0  0  0  0  0  0  0  0
  186.3300  178.1080  140.3400 C   0  0  0  0  0  2  0  0  0  0  0  0
  189.3280  177.5970  142.6450 C   0  0  0  0  0  0  0  0  0  0  0  0
  187.8260  178.0300  147.2760 C   0  0  0  0  0  0  0  0  0  0  0  0
  185.4820  178.0070  142.7100 C   0  0  0  0  0  2  0  0  0  0  0  0
  188.8270  177.7860  146.2760 N   0  0  0  0  0  0  0  0  0  0  0  0
  188.0010  177.7930  142.2210 C   0  0  0  0  0  0  0  0  0  0  0  0
  186.0450  177.9070  145.5440 C   0  0  0  0  0  3  0  0  0  0  0  0
  188.5610  177.6940  145.0050 C   0  0  2  0  0  3  0  0  0  0  0  0
  189.6220  177.4660  144.0520 N   0  0  0  0  0  0  0  0  0  0  0  0
  188.7780  177.8620  139.9280 C   0  0  0  0  0  3  0  0  0  0  0  0
  184.0680  178.9140  140.9040 N   0  0  0  0  0  0  0  0  0  0  0  0
  184.7810  179.9810  138.9470 O   0  0  0  0  0  0  0  0  0  0  0  0
  183.8200  179.5460  139.6380 C   0  0  0  0  0  0  0  0  0  0  0  0
  182.4310  179.6980  139.1110 C   0  0  0  0  0  1  0  0  0  0  0  0
  182.9590  178.4130  141.7100 C   0  0  0  0  0  1  0  0  0  0  0  0
  191.5790  175.9870  143.9500 C   0  0  0  0  0  2  0  0  0  0  0  0
  191.0080  177.2830  144.5060 C   0  0  0  0  0  3  0  0  0  0  0  0
  191.1250  176.0460  145.3860 C   0  0  0  0  0  2  0  0  0  0  0  0
  188.2360  178.2150  148.6960 C   0  0  0  0  0  2  0  0  0  0  0  0
  189.6260  178.3040  148.7770 O   0  0  0  0  0  1  0  0  0  0  0  0
  191.2030  177.5910  139.4050 C   0  0  0  0  0  2  0  0  0  0  0  0
  190.9980  176.4220  138.4560 C   0  0  0  0  0  2  0  0  0  0  0  0
  193.7530  174.3900  137.6160 C   0  0  0  0  0  0  0  0  0  0  0  0
  192.4600  174.5340  137.7770 O   0  0  0  0  0  0  0  0  0  0  0  0
  192.3070  175.7860  138.1360 C   0  0  0  0  0  0  0  0  0  0  0  0
  194.4120  175.5350  137.8720 N   0  0  0  0  0  0  0  0  0  0  0  0
  193.4880  176.4260  138.2050 N   0  0  0  0  0  0  0  0  0  0  0  0
  194.4130  173.1240  137.1970 C   0  0  0  0  0  1  0  0  0  0  0  0
  1  9  1  0  0  0  0
  2  6  2  0  0  0  0
  3 13  1  0  0  0  0
  4 18  1  6  0  0  0
  4 11  1  0  0  0  0
  5 10  1  0  0  0  0
  6 14  1  0  0  0  0
  7  1  2  0  0  0  0
  8  3  1  0  0  0  0
  8  4  1  0  0  0  0
  9 16  1  0  0  0  0
 10 26  1  0  0  0  0
 11  2  1  0  0  0  0
 12 10  2  0  0  0  0
 13  9  2  0  0  0  0
 13  2  1  0  0  0  0
 14  5  2  0  0  0  0
 15  6  1  6  0  0  0
 15 12  1  0  0  0  0
 16 24  1  0  0  0  0
 16 15  1  0  0  0  0
 17  7  1  0  0  0  0
 17  3  2  0  0  0  0
 18 22  1  0  0  0  0
 19 20  2  0  0  0  0
 20 18  1  0  0  0  0
 21 20  1  0  0  0  0
 23 24  1  0  0  0  0
 23 25  1  0  0  0  0
 24 25  1  0  0  0  0
 26 27  1  0  0  0  0
 28  7  1  0  0  0  0
 29 28  1  0  0  0  0
 30 31  1  0  0  0  0
 30 33  2  0  0  0  0
 31 32  1  0  0  0  0
 32 34  2  0  0  0  0
 32 29  1  0  0  0  0
 33 34  1  0  0  0  0
 35 30  1  0  0  0  0
M  END
>  <MODEL>
6

>  <REMARK>
 VINA RESULT:      -9.4      3.083      9.306
  Name = 
  6 active torsions:
  status: ('A' for Active; 'I' for Inactive)
    1  A    between atoms: N_1  and  C_10
    2  A    between atoms: C_3  and  C_8
    3  A    between atoms: C_3  and  C_24
    4  A    between atoms: C_9  and  CA_21
    5  A    between atoms: C_13  and  C_24
    6  A    between atoms: C_15  and  N_32
                            x       y       z     vdW  Elec       q    Type
                         _______ _______ _______ _____ _____    ______ ____

>  <TORSDO>
F 6

$$$$
=
 OpenBabel10222418043D

 35 40  0  0  1  0  0  0  0  0999 V2000
  186.8970  178.5380  139.8300 N   0  0  0  0  0  0  0  0  0  0  0  0
  185.8760  178.4890  143.4440 C   0  0  0  0  0  0  0  0  0  0  0  0
  188.0770  178.1230  142.2950 C   0  0  0  0  0  0  0  0  0  0  0  0
  187.7700  177.4300  144.6780 C   0  0  2  0  0  3  0  0  0  0  0  0
  182.2290  178.7460  144.3310 C   0  0  0  0  0  3  0  0  0  0  0  0
  184.5490  178.6890  143.3630 C   0  0  0  0  0  0  0  0  0  0  0  0
  188.2260  178.2520  139.8940 C   0  0  0  0  0  0  0  0  0  0  0  0
  188.7550  177.9360  143.6220 C   0  0  0  0  0  2  0  0  0  0  0  0
  186.1220  178.6330  140.9480 C   0  0  0  0  0  0  0  0  0  0  0  0
  181.7350  178.8300  143.0930 C   0  0  0  0  0  0  0  0  0  0  0  0
  186.5590  178.3590  144.7820 C   0  0  0  0  0  2  0  0  0  0  0  0
  182.6030  178.9150  141.9540 N   0  0  0  0  0  0  0  0  0  0  0  0
  186.7050  178.4280  142.2130 C   0  0  0  0  0  0  0  0  0  0  0  0
  183.7050  178.7940  144.6110 C   0  0  0  0  0  3  0  0  0  0  0  0
  183.9010  178.8560  142.0370 C   0  0  2  0  0  3  0  0  0  0  0  0
  184.7130  178.9290  140.8440 N   0  0  0  0  0  0  0  0  0  0  0  0
  188.8390  178.0490  141.1310 C   0  0  0  0  0  3  0  0  0  0  0  0
  188.4270  177.2800  145.9770 N   0  0  0  0  0  0  0  0  0  0  0  0
  190.4630  176.7120  144.9690 O   0  0  0  0  0  0  0  0  0  0  0  0
  189.8130  176.9080  146.0340 C   0  0  0  0  0  0  0  0  0  0  0  0
  190.5170  176.7490  147.3420 C   0  0  0  0  0  1  0  0  0  0  0  0
  187.6700  177.5030  147.2060 C   0  0  0  0  0  1  0  0  0  0  0  0
  182.9590  178.1250  139.3260 C   0  0  0  0  0  2  0  0  0  0  0  0
  184.0910  179.1220  139.5270 C   0  0  0  0  0  3  0  0  0  0  0  0
  184.2880  177.8890  138.6550 C   0  0  0  0  0  2  0  0  0  0  0  0
  180.2590  178.8110  142.8930 C   0  0  0  0  0  2  0  0  0  0  0  0
  179.6810  177.8730  143.7500 O   0  0  0  0  0  1  0  0  0  0  0  0
  189.0380  178.1730  138.6470 C   0  0  0  0  0  2  0  0  0  0  0  0
  190.3310  177.4160  138.8990 C   0  0  0  0  0  2  0  0  0  0  0  0
  189.6150  174.4110  137.2010 C   0  0  0  0  0  0  0  0  0  0  0  0
  189.2430  175.6050  137.5950 O   0  0  0  0  0  0  0  0  0  0  0  0
  190.2800  176.0800  138.2410 C   0  0  0  0  0  0  0  0  0  0  0  0
  190.8710  174.1320  137.5940 N   0  0  0  0  0  0  0  0  0  0  0  0
  191.2950  175.1970  138.2590 N   0  0  0  0  0  0  0  0  0  0  0  0
  188.7610  173.4810  136.4130 C   0  0  0  0  0  1  0  0  0  0  0  0
  1  7  2  0  0  0  0
  1  9  1  0  0  0  0
  2 11  1  0  0  0  0
  3  8  1  0  0  0  0
  4 11  1  0  0  0  0
  4 18  1  1  0  0  0
  5 14  2  0  0  0  0
  6  2  2  0  0  0  0
  6 14  1  0  0  0  0
  7 17  1  0  0  0  0
  8  4  1  0  0  0  0
  9 13  2  0  0  0  0
 10  5  1  0  0  0  0
 12 10  2  0  0  0  0
 13  3  1  0  0  0  0
 13  2  1  0  0  0  0
 15 12  1  6  0  0  0
 15  6  1  0  0  0  0
 16  9  1  0  0  0  0
 16 15  1  0  0  0  0
 17  3  2  0  0  0  0
 18 20  1  0  0  0  0
 18 22  1  0  0  0  0
 19 20  2  0  0  0  0
 20 21  1  0  0  0  0
 23 24  1  0  0  0  0
 24 16  1  0  0  0  0
 25 23  1  0  0  0  0
 25 24  1  0  0  0  0
 26 10  1  0  0  0  0
 26 27  1  0  0  0  0
 28 29  1  0  0  0  0
 28  7  1  0  0  0  0
 30 33  2  0  0  0  0
 30 31  1  0  0  0  0
 31 32  1  0  0  0  0
 32 34  2  0  0  0  0
 32 29  1  0  0  0  0
 33 34  1  0  0  0  0
 35 30  1  0  0  0  0
M  END
>  <MODEL>
7

>  <REMARK>
 VINA RESULT:      -9.3      2.163      6.932
  Name = 
  6 active torsions:
  status: ('A' for Active; 'I' for Inactive)
    1  A    between atoms: N_1  and  C_10
    2  A    between atoms: C_3  and  C_8
    3  A    between atoms: C_3  and  C_24
    4  A    between atoms: C_9  and  CA_21
    5  A    between atoms: C_13  and  C_24
    6  A    between atoms: C_15  and  N_32
                            x       y       z     vdW  Elec       q    Type
                         _______ _______ _______ _____ _____    ______ ____

>  <TORSDO>
F 6

$$$$
=
 OpenBabel10222418043D

 35 40  0  0  1  0  0  0  0  0999 V2000
  187.4890  178.0750  143.7710 N   0  0  0  0  0  0  0  0  0  0  0  0
  187.0400  178.2420  140.0450 C   0  0  0  0  0  0  0  0  0  0  0  0
  185.4840  178.6750  141.9650 C   0  0  0  0  0  0  0  0  0  0  0  0
  184.5780  178.3640  139.6560 C   0  0  2  0  0  3  0  0  0  0  0  0
  189.8050  177.0320  137.8000 C   0  0  0  0  0  3  0  0  0  0  0  0
  188.2370  177.8220  139.5990 C   0  0  0  0  0  0  0  0  0  0  0  0
  186.2560  178.4170  144.2320 C   0  0  0  0  0  0  0  0  0  0  0  0
  184.3860  179.0480  141.0110 C   0  0  0  0  0  2  0  0  0  0  0  0
  187.7740  178.0220  142.4370 C   0  0  0  0  0  0  0  0  0  0  0  0
  190.6740  176.6640  138.7450 C   0  0  0  0  0  0  0  0  0  0  0  0
  185.9620  178.6700  139.0820 C   0  0  0  0  0  2  0  0  0  0  0  0
  190.4070  176.9120  140.1330 N   0  0  0  0  0  0  0  0  0  0  0  0
  186.7670  178.3270  141.5030 C   0  0  0  0  0  0  0  0  0  0  0  0
  188.5370  177.7720  138.1200 C   0  0  0  0  0  2  0  0  0  0  0  0
  189.3000  177.4440  140.5650 C   0  0  0  0  0  0  0  0  0  0  0  0
  189.0910  177.6470  141.9800 N   0  0  0  0  0  0  0  0  0  0  0  0
  185.2350  178.7320  143.3350 C   0  0  0  0  0  3  0  0  0  0  0  0
  183.5240  178.7570  138.7190 N   0  0  0  0  0  0  0  0  0  0  0  0
  183.4590  176.6170  137.7720 O   0  0  0  0  0  0  0  0  0  0  0  0
  183.0080  177.7950  137.7850 C   0  0  0  0  0  0  0  0  0  0  0  0
  181.9310  178.1600  136.8170 C   0  0  0  0  0  1  0  0  0  0  0  0
  183.0090  180.1230  138.7340 C   0  0  0  0  0  1  0  0  0  0  0  0
  190.3410  178.4430  143.9370 C   0  0  0  0  0  2  0  0  0  0  0  0
  190.1420  177.3040  142.9480 C   0  0  0  0  0  3  0  0  0  0  0  0
  191.3250  178.2530  142.8120 C   0  0  0  0  0  2  0  0  0  0  0  0
  191.9290  175.9650  138.3520 C   0  0  0  0  0  2  0  0  0  0  0  0
  191.6360  174.6550  137.9680 O   0  0  0  0  0  1  0  0  0  0  0  0
  185.9940  178.4770  145.6990 C   0  0  0  0  0  2  0  0  0  0  0  0
  186.4350  177.1870  146.3720 C   0  0  0  0  0  2  0  0  0  0  0  0
  189.8030  177.1720  147.4090 C   0  0  0  0  0  0  0  0  0  0  0  0
  188.8690  176.7520  146.5910 O   0  0  0  0  0  0  0  0  0  0  0  0
  187.7790  177.3630  146.9890 C   0  0  0  0  0  0  0  0  0  0  0  0
  189.3130  178.0360  148.3150 N   0  0  0  0  0  0  0  0  0  0  0  0
  188.0200  178.1580  148.0470 N   0  0  0  0  0  0  0  0  0  0  0  0
  191.2290  176.7530  147.3430 C   0  0  0  0  0  1  0  0  0  0  0  0
  1  7  1  0  0  0  0
  2 13  1  0  0  0  0
  3 17  1  0  0  0  0
  4 18  1  6  0  0  0
  4  8  1  0  0  0  0
  5 14  1  0  0  0  0
  5 10  2  0  0  0  0
  6  2  2  0  0  0  0
  6 15  1  0  0  0  0
  7 28  1  0  0  0  0
  8  3  1  0  0  0  0
  9  1  2  0  0  0  0
 10 12  1  0  0  0  0
 11  4  1  0  0  0  0
 11  2  1  0  0  0  0
 12 15  2  0  0  0  0
 13  3  2  0  0  0  0
 13  9  1  0  0  0  0
 14  6  1  0  0  0  0
 15 16  1  0  0  0  0
 16  9  1  0  0  0  0
 16 24  1  0  0  0  0
 17  7  2  0  0  0  0
 18 22  1  0  0  0  0
 19 20  2  0  0  0  0
 20 18  1  0  0  0  0
 21 20  1  0  0  0  0
 24 23  1  0  0  0  0
 25 24  1  0  0  0  0
 25 23  1  0  0  0  0
 26 10  1  0  0  0  0
 27 26  1  0  0  0  0
 28 29  1  0  0  0  0
 29 32  1  0  0  0  0
 30 33  2  0  0  0  0
 31 32  1  0  0  0  0
 31 30  1  0  0  0  0
 32 34  2  0  0  0  0
 34 33  1  0  0  0  0
 35 30  1  0  0  0  0
M  END
>  <MODEL>
8

>  <REMARK>
 VINA RESULT:      -9.2      2.727      7.367
  Name = 
  6 active torsions:
  status: ('A' for Active; 'I' for Inactive)
    1  A    between atoms: N_1  and  C_10
    2  A    between atoms: C_3  and  C_8
    3  A    between atoms: C_3  and  C_24
    4  A    between atoms: C_9  and  CA_21
    5  A    between atoms: C_13  and  C_24
    6  A    between atoms: C_15  and  N_32
                            x       y       z     vdW  Elec       q    Type
                         _______ _______ _______ _____ _____    ______ ____

>  <TORSDO>
F 6

$$$$
=
 OpenBabel10222418043D

 35 40  0  0  1  0  0  0  0  0999 V2000
  186.7220  178.5530  139.7330 N   0  0  0  0  0  0  0  0  0  0  0  0
  185.7870  178.4750  143.3700 C   0  0  0  0  0  0  0  0  0  0  0  0
  187.9630  178.1380  142.1680 C   0  0  0  0  0  0  0  0  0  0  0  0
  187.7200  177.4310  144.5530 C   0  0  2  0  0  3  0  0  0  0  0  0
  182.1590  178.6850  144.3430 C   0  0  0  0  0  3  0  0  0  0  0  0
  184.4560  178.6600  143.3210 C   0  0  0  0  0  0  0  0  0  0  0  0
  188.0550  178.2820  139.7650 C   0  0  0  0  0  0  0  0  0  0  0  0
  188.6750  177.9520  143.4770 C   0  0  0  0  0  2  0  0  0  0  0  0
  185.9720  178.6330  140.8700 C   0  0  0  0  0  0  0  0  0  0  0  0
  181.6350  178.7700  143.1180 C   0  0  0  0  0  0  0  0  0  0  0  0
  186.5020  178.3450  144.6910 C   0  0  0  0  0  2  0  0  0  0  0  0
  182.4750  178.8700  141.9590 N   0  0  0  0  0  0  0  0  0  0  0  0
  186.5870  178.4290  142.1190 C   0  0  0  0  0  0  0  0  0  0  0  0
  183.6410  178.7480  144.5890 C   0  0  0  0  0  3  0  0  0  0  0  0
  183.7750  178.8260  142.0110 C   0  0  2  0  0  3  0  0  0  0  0  0
  184.5580  178.9140  140.8010 N   0  0  0  0  0  0  0  0  0  0  0  0
  188.6990  178.0790  140.9860 C   0  0  0  0  0  3  0  0  0  0  0  0
  188.4100  177.2810  145.8350 N   0  0  0  0  0  0  0  0  0  0  0  0
  190.4210  176.7160  144.7780 O   0  0  0  0  0  0  0  0  0  0  0  0
  189.7980  176.9110  145.8580 C   0  0  0  0  0  0  0  0  0  0  0  0
  190.5330  176.7530  147.1480 C   0  0  0  0  0  1  0  0  0  0  0  0
  187.6840  177.5030  147.0830 C   0  0  0  0  0  1  0  0  0  0  0  0
  182.8340  178.0460  139.2840 C   0  0  0  0  0  2  0  0  0  0  0  0
  183.9030  179.1070  139.4990 C   0  0  0  0  0  3  0  0  0  0  0  0
  184.1630  177.9160  138.5860 C   0  0  0  0  0  2  0  0  0  0  0  0
  180.1550  178.7360  142.9530 C   0  0  0  0  0  2  0  0  0  0  0  0
  179.5960  177.8760  143.9000 O   0  0  0  0  0  1  0  0  0  0  0  0
  188.8380  178.2180  138.4980 C   0  0  0  0  0  2  0  0  0  0  0  0
  188.7250  176.8390  137.8700 C   0  0  0  0  0  2  0  0  0  0  0  0
  192.0830  175.7720  137.9500 C   0  0  0  0  0  0  0  0  0  0  0  0
  191.2050  176.7450  137.9170 O   0  0  0  0  0  0  0  0  0  0  0  0
  190.0410  176.1420  137.9210 C   0  0  0  0  0  0  0  0  0  0  0  0
  191.4830  174.5680  137.9710 N   0  0  0  0  0  0  0  0  0  0  0  0
  190.1790  174.8040  137.9510 N   0  0  0  0  0  0  0  0  0  0  0  0
  193.5580  175.9690  137.9670 C   0  0  0  0  0  1  0  0  0  0  0  0
  1  7  2  0  0  0  0
  1  9  1  0  0  0  0
  2 11  1  0  0  0  0
  3  8  1  0  0  0  0
  4 11  1  0  0  0  0
  4 18  1  1  0  0  0
  5 14  2  0  0  0  0
  6  2  2  0  0  0  0
  6 14  1  0  0  0  0
  7 17  1  0  0  0  0
  8  4  1  0  0  0  0
  9 13  2  0  0  0  0
 10  5  1  0  0  0  0
 12 10  2  0  0  0  0
 13  3  1  0  0  0  0
 13  2  1  0  0  0  0
 15 12  1  6  0  0  0
 15  6  1  0  0  0  0
 16  9  1  0  0  0  0
 16 15  1  0  0  0  0
 17  3  2  0  0  0  0
 18 20  1  0  0  0  0
 18 22  1  0  0  0  0
 19 20  2  0  0  0  0
 20 21  1  0  0  0  0
 23 24  1  0  0  0  0
 24 16  1  0  0  0  0
 25 23  1  0  0  0  0
 25 24  1  0  0  0  0
 26 10  1  0  0  0  0
 26 27  1  0  0  0  0
 28  7  1  0  0  0  0
 29 32  1  0  0  0  0
 29 28  1  0  0  0  0
 30 35  1  0  0  0  0
 30 33  2  0  0  0  0
 31 32  1  0  0  0  0
 31 30  1  0  0  0  0
 32 34  2  0  0  0  0
 34 33  1  0  0  0  0
M  END
>  <MODEL>
9

>  <REMARK>
 VINA RESULT:      -9.2      2.081      7.180
  Name = 
  6 active torsions:
  status: ('A' for Active; 'I' for Inactive)
    1  A    between atoms: N_1  and  C_10
    2  A    between atoms: C_3  and  C_8
    3  A    between atoms: C_3  and  C_24
    4  A    between atoms: C_9  and  CA_21
    5  A    between atoms: C_13  and  C_24
    6  A    between atoms: C_15  and  N_32
                            x       y       z     vdW  Elec       q    Type
                         _______ _______ _______ _____ _____    ______ ____

>  <TORSDO>
F 6

$$$$
