=
 OpenBabel10222417373D

 49 54  0  0  1  0  0  0  0  0999 V2000
  182.6920  178.5820  141.6420 C   0  0  0  0  0  3  0  0  0  0  0  0
  186.1690  177.3580  144.9280 C   0  0  0  0  0  0  0  0  0  0  0  0
  186.0580  176.4630  144.0490 O   0  0  0  0  0  0  0  0  0  0  0  0
  188.8360  177.7310  143.4260 N   0  0  0  0  0  0  0  0  0  0  0  0
  187.4580  177.7870  145.3780 N   0  0  0  0  0  2  0  0  0  0  0  0
  184.6420  179.2910  144.8330 C   0  0  0  0  0  2  0  0  0  0  0  0
  188.6970  177.5290  144.7030 C   0  0  0  0  0  0  0  0  0  0  0  0
  183.5180  179.1830  139.4130 C   0  0  0  0  0  3  0  0  0  0  0  0
  185.6250  178.9800  140.7370 C   0  0  0  0  0  0  0  0  0  0  0  0
  187.0270  178.8450  140.4440 N   0  0  0  0  0  0  0  0  0  0  0  0
  188.0040  178.4850  141.2280 C   0  0  0  0  0  0  0  0  0  0  0  0
  184.9490  177.9690  145.5200 C   0  0  0  0  0  2  0  0  0  0  0  0
  185.1420  178.7180  141.9670 C   0  0  0  0  0  3  0  0  0  0  0  0
  182.8080  178.1520  140.2170 C   0  0  2  0  0  3  0  0  0  0  0  0
  187.7940  178.1980  142.6130 N   0  0  0  0  0  2  0  0  0  0  0  0
  183.5000  179.1390  143.8770 C   0  0  0  0  0  0  0  0  0  0  0  0
  183.7390  178.8210  142.4440 C   0  0  0  0  0  0  0  0  0  0  0  0
  184.7870  179.5160  139.6430 C   0  0  0  0  0  3  0  0  0  0  0  0
  182.2680  179.2930  144.3590 C   0  0  0  0  0  2  0  0  0  0  0  0
  192.0650  176.3960  146.9950 C   0  0  0  0  0  3  0  0  0  0  0  0
  192.0600  176.2420  145.6100 C   0  0  0  0  0  3  0  0  0  0  0  0
  190.9320  176.9350  147.6040 C   0  0  0  0  0  3  0  0  0  0  0  0
  189.8620  177.2940  146.8500 N   0  0  0  0  0  0  0  0  0  0  0  0
  190.9700  176.6130  144.8890 N   0  0  0  0  0  0  0  0  0  0  0  0
  189.8720  177.1370  145.4980 C   0  0  0  0  0  0  0  0  0  0  0  0
  189.3860  178.4190  140.6610 C   0  0  0  0  0  2  0  0  0  0  0  0
  192.2240  175.2580  137.9740 C   0  0  0  0  0  0  0  0  0  0  0  0
  193.2810  175.8740  138.4470 C   0  0  0  0  0  0  0  0  0  0  0  0
  192.6290  174.1630  137.0530 C   0  0  0  0  0  2  0  0  0  0  0  0
  190.7760  176.7800  139.2760 N   0  0  0  0  0  0  0  0  0  0  0  0
  189.4940  177.2910  139.6810 C   0  0  0  0  0  0  0  0  0  0  0  0
  194.4520  175.3460  137.9480 O   0  0  0  0  0  0  0  0  0  0  0  0
  194.1620  174.2820  137.0450 C   0  0  1  0  0  3  0  0  0  0  0  0
  188.4350  176.7780  139.2310 O   0  0  0  0  0  0  0  0  0  0  0  0
  190.8210  175.6200  138.3650 C   0  0  0  0  0  2  0  0  0  0  0  0
  193.1880  176.9880  139.3890 C   0  0  0  0  0  3  0  0  0  0  0  0
  191.9790  177.4060  139.7720 C   0  0  0  0  0  3  0  0  0  0  0  0
  195.1280  172.9150  138.7030 O   0  0  0  0  0  0  0  0  0  0  0  0
  194.7730  173.0130  137.5400 C   0  0  0  0  0  3  0  0  0  0  0  0
  181.4250  177.9160  139.6340 C   0  0  0  0  0  2  0  0  0  0  0  0
  181.3070  176.5080  139.0650 C   0  0  2  0  0  3  0  0  0  0  0  0
  180.1740  174.3120  139.2760 C   0  0  0  0  0  2  0  0  0  0  0  0
  180.3290  175.6900  139.8940 C   0  0  0  0  0  3  0  0  0  0  0  0
  179.1030  175.3570  139.0640 C   0  0  0  0  0  2  0  0  0  0  0  0
  182.6810  175.8420  139.1000 C   0  0  0  0  0  2  0  0  0  0  0  0
  184.5250  176.3670  137.4660 C   0  0  0  0  0  1  0  0  0  0  0  0
  183.5900  174.0940  137.6130 C   0  0  0  0  0  1  0  0  0  0  0  0
  182.2340  175.9010  136.6340 C   0  0  0  0  0  1  0  0  0  0  0  0
  183.2550  175.5680  137.7080 C   0  0  0  0  0  0  0  0  0  0  0  0
  1 17  2  0  0  0  0
  2  5  1  0  0  0  0
  2 12  1  0  0  0  0
  3  2  2  0  0  0  0
  4  7  2  0  0  0  0
  6 12  1  0  0  0  0
  7  5  1  0  0  0  0
  7 25  1  0  0  0  0
  8 18  2  0  0  0  0
  8 14  1  0  0  0  0
  9 13  2  0  0  0  0
 10  9  1  0  0  0  0
 10 11  2  0  0  0  0
 11 15  1  0  0  0  0
 13 17  1  0  0  0  0
 14 40  1  6  0  0  0
 14  1  1  0  0  0  0
 15  4  1  0  0  0  0
 16 19  2  0  0  0  0
 16  6  1  0  0  0  0
 17 16  1  0  0  0  0
 18  9  1  0  0  0  0
 20 22  2  0  0  0  0
 21 20  1  0  0  0  0
 23 22  1  0  0  0  0
 24 25  1  0  0  0  0
 24 21  2  0  0  0  0
 25 23  2  0  0  0  0
 26 11  1  0  0  0  0
 27 35  1  0  0  0  0
 27 28  2  0  0  0  0
 28 36  1  0  0  0  0
 29 27  1  0  0  0  0
 30 31  1  0  0  0  0
 30 37  1  0  0  0  0
 31 26  1  0  0  0  0
 32 28  1  0  0  0  0
 33 29  1  0  0  0  0
 33 39  1  1  0  0  0
 33 32  1  0  0  0  0
 34 31  2  0  0  0  0
 35 30  1  0  0  0  0
 36 37  2  0  0  0  0
 39 38  2  0  0  0  0
 41 45  1  1  0  0  0
 41 40  1  0  0  0  0
 41 43  1  0  0  0  0
 42 43  1  0  0  0  0
 44 42  1  0  0  0  0
 44 43  1  0  0  0  0
 46 49  1  0  0  0  0
 47 49  1  0  0  0  0
 48 49  1  0  0  0  0
 49 45  1  0  0  0  0
M  END
>  <MODEL>
1

>  <REMARK>
 VINA RESULT:      -8.7      0.000      0.000
  Name = 
  9 active torsions:
  status: ('A' for Active; 'I' for Inactive)
    1  A    between atoms: C_12  and  C_16
    2  A    between atoms: C_15  and  C_49
    3  A    between atoms: C_16  and  C_26
    4  A    between atoms: C_16  and  C_35
    5  A    between atoms: C_20  and  C_22
    6  A    between atoms: C_20  and  C_31
    7  A    between atoms: C_25  and  C_30
    8  A    between atoms: C_26  and  C_39
    9  A    between atoms: C_35  and  C_42
                            x       y       z     vdW  Elec       q    Type
                         _______ _______ _______ _____ _____    ______ ____

>  <TORSDO>
F 9

$$$$
=
 OpenBabel10222417373D

 49 54  0  0  1  0  0  0  0  0999 V2000
  182.7980  178.3870  141.6660 C   0  0  0  0  0  3  0  0  0  0  0  0
  186.1980  177.3780  145.1030 C   0  0  0  0  0  0  0  0  0  0  0  0
  186.1070  176.4290  144.2810 O   0  0  0  0  0  0  0  0  0  0  0  0
  188.8990  177.6560  143.6430 N   0  0  0  0  0  0  0  0  0  0  0  0
  187.4760  177.8360  145.5550 N   0  0  0  0  0  2  0  0  0  0  0  0
  184.6740  179.3000  144.8500 C   0  0  0  0  0  2  0  0  0  0  0  0
  188.7310  177.5360  144.9270 C   0  0  0  0  0  0  0  0  0  0  0  0
  183.6770  178.8470  139.4240 C   0  0  0  0  0  3  0  0  0  0  0  0
  185.7520  178.7300  140.8060 C   0  0  0  0  0  0  0  0  0  0  0  0
  187.1610  178.5780  140.5550 N   0  0  0  0  0  0  0  0  0  0  0  0
  188.1190  178.2690  141.3820 C   0  0  0  0  0  0  0  0  0  0  0  0
  184.9650  178.0250  145.6270 C   0  0  0  0  0  2  0  0  0  0  0  0
  185.2400  178.5470  142.0390 C   0  0  0  0  0  3  0  0  0  0  0  0
  182.9470  177.8680  140.2750 C   0  0  2  0  0  3  0  0  0  0  0  0
  187.8760  178.0700  142.7780 N   0  0  0  0  0  2  0  0  0  0  0  0
  183.5550  179.0860  143.8800 C   0  0  0  0  0  0  0  0  0  0  0  0
  183.8270  178.6780  142.4760 C   0  0  0  0  0  0  0  0  0  0  0  0
  184.9400  179.1940  139.6610 C   0  0  0  0  0  3  0  0  0  0  0  0
  182.3130  179.2690  144.3220 C   0  0  0  0  0  2  0  0  0  0  0  0
  192.0430  176.5540  147.3630 C   0  0  0  0  0  3  0  0  0  0  0  0
  192.0400  176.2430  146.0060 C   0  0  0  0  0  3  0  0  0  0  0  0
  190.9280  177.2000  147.8960 C   0  0  0  0  0  3  0  0  0  0  0  0
  189.8750  177.5080  147.0970 N   0  0  0  0  0  0  0  0  0  0  0  0
  190.9680  176.5660  145.2360 N   0  0  0  0  0  0  0  0  0  0  0  0
  189.8860  177.1970  145.7720 C   0  0  0  0  0  0  0  0  0  0  0  0
  189.5130  178.1680  140.8530 C   0  0  0  0  0  2  0  0  0  0  0  0
  192.1330  175.6250  137.3990 C   0  0  0  0  0  0  0  0  0  0  0  0
  193.2290  176.0600  137.9730 C   0  0  0  0  0  0  0  0  0  0  0  0
  192.4640  174.7680  136.2290 C   0  0  0  0  0  2  0  0  0  0  0  0
  190.7910  176.8520  139.0720 N   0  0  0  0  0  0  0  0  0  0  0  0
  189.5450  177.3060  139.6280 C   0  0  0  0  0  0  0  0  0  0  0  0
  194.3620  175.6150  137.3260 O   0  0  0  0  0  0  0  0  0  0  0  0
  194.0010  174.8160  136.2030 C   0  0  1  0  0  3  0  0  0  0  0  0
  188.4520  176.9660  139.1000 O   0  0  0  0  0  0  0  0  0  0  0  0
  190.7580  175.9450  137.9080 C   0  0  0  0  0  2  0  0  0  0  0  0
  193.2120  176.9160  139.1580 C   0  0  0  0  0  3  0  0  0  0  0  0
  192.0340  177.2840  139.6670 C   0  0  0  0  0  3  0  0  0  0  0  0
  193.8780  172.5590  136.8660 O   0  0  0  0  0  0  0  0  0  0  0  0
  194.5550  173.4380  136.3580 C   0  0  0  0  0  3  0  0  0  0  0  0
  181.5780  177.5950  139.6760 C   0  0  0  0  0  2  0  0  0  0  0  0
  180.7920  178.8880  139.5040 C   0  0  2  0  0  3  0  0  0  0  0  0
  178.9310  180.2700  140.3840 C   0  0  0  0  0  2  0  0  0  0  0  0
  179.7950  179.0500  140.6410 C   0  0  0  0  0  3  0  0  0  0  0  0
  180.0640  180.3470  141.3810 C   0  0  0  0  0  2  0  0  0  0  0  0
  180.0410  178.8390  138.1750 C   0  0  0  0  0  2  0  0  0  0  0  0
  179.4830  180.5180  136.3820 C   0  0  0  0  0  1  0  0  0  0  0  0
  181.4370  180.8480  137.8430 C   0  0  0  0  0  1  0  0  0  0  0  0
  181.4840  179.0720  136.1390 C   0  0  0  0  0  1  0  0  0  0  0  0
  180.6000  179.8070  137.1290 C   0  0  0  0  0  0  0  0  0  0  0  0
  1 17  2  0  0  0  0
  2  5  1  0  0  0  0
  2 12  1  0  0  0  0
  3  2  2  0  0  0  0
  4  7  2  0  0  0  0
  6 12  1  0  0  0  0
  7  5  1  0  0  0  0
  7 25  1  0  0  0  0
  8 18  2  0  0  0  0
  8 14  1  0  0  0  0
  9 13  2  0  0  0  0
 10  9  1  0  0  0  0
 10 11  2  0  0  0  0
 11 15  1  0  0  0  0
 13 17  1  0  0  0  0
 14 40  1  6  0  0  0
 14  1  1  0  0  0  0
 15  4  1  0  0  0  0
 16 19  2  0  0  0  0
 16  6  1  0  0  0  0
 17 16  1  0  0  0  0
 18  9  1  0  0  0  0
 20 22  2  0  0  0  0
 21 20  1  0  0  0  0
 23 22  1  0  0  0  0
 24 25  1  0  0  0  0
 24 21  2  0  0  0  0
 25 23  2  0  0  0  0
 26 11  1  0  0  0  0
 27 35  1  0  0  0  0
 27 28  2  0  0  0  0
 28 36  1  0  0  0  0
 29 27  1  0  0  0  0
 30 31  1  0  0  0  0
 30 37  1  0  0  0  0
 31 26  1  0  0  0  0
 32 28  1  0  0  0  0
 33 29  1  0  0  0  0
 33 39  1  1  0  0  0
 33 32  1  0  0  0  0
 34 31  2  0  0  0  0
 35 30  1  0  0  0  0
 36 37  2  0  0  0  0
 39 38  2  0  0  0  0
 41 45  1  6  0  0  0
 41 40  1  0  0  0  0
 41 43  1  0  0  0  0
 42 43  1  0  0  0  0
 42 44  1  0  0  0  0
 43 44  1  0  0  0  0
 46 49  1  0  0  0  0
 48 49  1  0  0  0  0
 49 47  1  0  0  0  0
 49 45  1  0  0  0  0
M  END
>  <MODEL>
2

>  <REMARK>
 VINA RESULT:      -8.2      1.439      2.247
  Name = 
  9 active torsions:
  status: ('A' for Active; 'I' for Inactive)
    1  A    between atoms: C_12  and  C_16
    2  A    between atoms: C_15  and  C_49
    3  A    between atoms: C_16  and  C_26
    4  A    between atoms: C_16  and  C_35
    5  A    between atoms: C_20  and  C_22
    6  A    between atoms: C_20  and  C_31
    7  A    between atoms: C_25  and  C_30
    8  A    between atoms: C_26  and  C_39
    9  A    between atoms: C_35  and  C_42
                            x       y       z     vdW  Elec       q    Type
                         _______ _______ _______ _____ _____    ______ ____

>  <TORSDO>
F 9

$$$$
=
 OpenBabel10222417373D

 49 54  0  0  1  0  0  0  0  0999 V2000
  193.3220  173.2280  136.8110 C   0  0  0  0  0  3  0  0  0  0  0  0
  188.4160  173.2480  136.2420 C   0  0  0  0  0  0  0  0  0  0  0  0
  188.7200  173.3270  137.4620 O   0  0  0  0  0  0  0  0  0  0  0  0
  187.5690  176.1530  136.8290 N   0  0  0  0  0  0  0  0  0  0  0  0
  187.3760  174.0600  135.6910 N   0  0  0  0  0  2  0  0  0  0  0  0
  190.2350  173.0060  134.5950 C   0  0  0  0  0  2  0  0  0  0  0  0
  186.8170  175.2240  136.3160 C   0  0  0  0  0  0  0  0  0  0  0  0
  194.3050  175.3610  137.5160 C   0  0  0  0  0  3  0  0  0  0  0  0
  191.9290  175.9800  137.0700 C   0  0  0  0  0  0  0  0  0  0  0  0
  191.0640  177.0830  137.3950 N   0  0  0  0  0  0  0  0  0  0  0  0
  189.7650  177.1640  137.3230 C   0  0  0  0  0  0  0  0  0  0  0  0
  189.1360  172.2870  135.3620 C   0  0  0  0  0  2  0  0  0  0  0  0
  191.4300  174.8130  136.6200 C   0  0  0  0  0  3  0  0  0  0  0  0
  193.9590  173.9750  137.9360 C   0  0  2  0  0  3  0  0  0  0  0  0
  188.9690  176.0870  136.8230 N   0  0  0  0  0  2  0  0  0  0  0  0
  191.5770  172.7050  135.1860 C   0  0  0  0  0  0  0  0  0  0  0  0
  192.1710  173.5880  136.2250 C   0  0  0  0  0  0  0  0  0  0  0  0
  193.3790  176.2510  137.1630 C   0  0  0  0  0  3  0  0  0  0  0  0
  192.2120  171.6190  134.7520 C   0  0  0  0  0  2  0  0  0  0  0  0
  182.6320  175.8120  136.1890 C   0  0  0  0  0  3  0  0  0  0  0  0
  183.2100  174.6790  135.6210 C   0  0  0  0  0  3  0  0  0  0  0  0
  183.4680  176.7450  136.8010 C   0  0  0  0  0  3  0  0  0  0  0  0
  184.8090  176.5360  136.8330 N   0  0  0  0  0  0  0  0  0  0  0  0
  184.5560  174.5050  135.6720 N   0  0  0  0  0  0  0  0  0  0  0  0
  185.3600  175.4240  136.2740 C   0  0  0  0  0  0  0  0  0  0  0  0
  189.1060  178.4420  137.7350 C   0  0  0  0  0  2  0  0  0  0  0  0
  188.7830  177.3920  142.6390 C   0  0  0  0  0  0  0  0  0  0  0  0
  190.0860  177.2390  142.6480 C   0  0  0  0  0  0  0  0  0  0  0  0
  188.2220  177.1490  143.9950 C   0  0  0  0  0  2  0  0  0  0  0  0
  188.8790  177.9200  140.2260 N   0  0  0  0  0  0  0  0  0  0  0  0
  188.2720  178.2270  138.9600 C   0  0  0  0  0  0  0  0  0  0  0  0
  190.5560  176.8870  143.8950 O   0  0  0  0  0  0  0  0  0  0  0  0
  189.4720  176.7780  144.8120 C   0  0  1  0  0  3  0  0  0  0  0  0
  187.0200  178.3430  138.8660 O   0  0  0  0  0  0  0  0  0  0  0  0
  188.0130  177.7910  141.4150 C   0  0  0  0  0  2  0  0  0  0  0  0
  190.9090  177.4280  141.4550 C   0  0  0  0  0  3  0  0  0  0  0  0
  190.3110  177.7520  140.3060 C   0  0  0  0  0  3  0  0  0  0  0  0
  188.7410  177.9530  146.7200 O   0  0  0  0  0  0  0  0  0  0  0  0
  189.6520  177.7480  145.9320 C   0  0  0  0  0  3  0  0  0  0  0  0
  195.2160  173.2530  138.3900 C   0  0  0  0  0  2  0  0  0  0  0  0
  195.7830  172.3910  137.2690 C   0  0  2  0  0  3  0  0  0  0  0  0
  196.6580  170.1340  136.7290 C   0  0  0  0  0  2  0  0  0  0  0  0
  195.7890  170.9280  137.6860 C   0  0  0  0  0  3  0  0  0  0  0  0
  195.1520  170.0800  136.6010 C   0  0  0  0  0  2  0  0  0  0  0  0
  197.2120  172.8390  136.9730 C   0  0  0  0  0  2  0  0  0  0  0  0
  197.5080  175.0710  135.8450 C   0  0  0  0  0  1  0  0  0  0  0  0
  198.5860  173.0550  134.9330 C   0  0  0  0  0  1  0  0  0  0  0  0
  196.1440  173.3090  134.7540 C   0  0  0  0  0  1  0  0  0  0  0  0
  197.3500  173.5740  135.6370 C   0  0  0  0  0  0  0  0  0  0  0  0
  1 14  1  0  0  0  0
  2  3  2  0  0  0  0
  5  2  1  0  0  0  0
  5  7  1  0  0  0  0
  6 16  1  0  0  0  0
  6 12  1  0  0  0  0
  7  4  2  0  0  0  0
  8 14  1  0  0  0  0
  9 18  1  0  0  0  0
  9 10  1  0  0  0  0
 11 10  2  0  0  0  0
 11 26  1  0  0  0  0
 12  2  1  0  0  0  0
 13  9  2  0  0  0  0
 14 40  1  6  0  0  0
 15  4  1  0  0  0  0
 15 11  1  0  0  0  0
 16 17  1  0  0  0  0
 17 13  1  0  0  0  0
 17  1  2  0  0  0  0
 18  8  2  0  0  0  0
 19 16  2  0  0  0  0
 20 22  2  0  0  0  0
 21 24  2  0  0  0  0
 21 20  1  0  0  0  0
 22 23  1  0  0  0  0
 24 25  1  0  0  0  0
 25  7  1  0  0  0  0
 25 23  2  0  0  0  0
 26 31  1  0  0  0  0
 27 28  2  0  0  0  0
 27 29  1  0  0  0  0
 28 32  1  0  0  0  0
 29 33  1  0  0  0  0
 30 37  1  0  0  0  0
 30 35  1  0  0  0  0
 31 30  1  0  0  0  0
 32 33  1  0  0  0  0
 33 39  1  1  0  0  0
 34 31  2  0  0  0  0
 35 27  1  0  0  0  0
 36 28  1  0  0  0  0
 37 36  2  0  0  0  0
 39 38  2  0  0  0  0
 41 45  1  1  0  0  0
 41 43  1  0  0  0  0
 41 40  1  0  0  0  0
 42 43  1  0  0  0  0
 44 42  1  0  0  0  0
 44 43  1  0  0  0  0
 47 49  1  0  0  0  0
 48 49  1  0  0  0  0
 49 46  1  0  0  0  0
 49 45  1  0  0  0  0
M  END
>  <MODEL>
3

>  <REMARK>
 VINA RESULT:      -7.1      3.435     10.988
  Name = 
  9 active torsions:
  status: ('A' for Active; 'I' for Inactive)
    1  A    between atoms: C_12  and  C_16
    2  A    between atoms: C_15  and  C_49
    3  A    between atoms: C_16  and  C_26
    4  A    between atoms: C_16  and  C_35
    5  A    between atoms: C_20  and  C_22
    6  A    between atoms: C_20  and  C_31
    7  A    between atoms: C_25  and  C_30
    8  A    between atoms: C_26  and  C_39
    9  A    between atoms: C_35  and  C_42
                            x       y       z     vdW  Elec       q    Type
                         _______ _______ _______ _____ _____    ______ ____

>  <TORSDO>
F 9

$$$$
=
 OpenBabel10222417373D

 49 54  0  0  1  0  0  0  0  0999 V2000
  188.6360  177.7720  144.6550 C   0  0  0  0  0  3  0  0  0  0  0  0
  184.6510  179.3770  142.2180 C   0  0  0  0  0  0  0  0  0  0  0  0
  185.6070  180.1870  142.0830 O   0  0  0  0  0  0  0  0  0  0  0  0
  185.3230  178.9410  139.2410 N   0  0  0  0  0  0  0  0  0  0  0  0
  183.8270  179.0250  141.1030 N   0  0  0  0  0  2  0  0  0  0  0  0
  184.9800  177.4040  143.6600 C   0  0  0  0  0  2  0  0  0  0  0  0
  184.1570  179.2530  139.7260 C   0  0  0  0  0  0  0  0  0  0  0  0
  190.4850  176.9940  143.2460 C   0  0  0  0  0  3  0  0  0  0  0  0
  188.6600  177.3710  141.5860 C   0  0  0  0  0  0  0  0  0  0  0  0
  188.5680  177.5160  140.1580 N   0  0  0  0  0  0  0  0  0  0  0  0
  187.5840  177.9710  139.4340 C   0  0  0  0  0  0  0  0  0  0  0  0
  184.3620  178.7900  143.5540 C   0  0  0  0  0  2  0  0  0  0  0  0
  187.6400  177.7300  142.3890 C   0  0  0  0  0  3  0  0  0  0  0  0
  190.0070  178.0750  144.1510 C   0  0  2  0  0  3  0  0  0  0  0  0
  186.3430  178.3750  140.0180 N   0  0  0  0  0  2  0  0  0  0  0  0
  186.2220  177.4400  144.4930 C   0  0  0  0  0  0  0  0  0  0  0  0
  187.5580  177.6340  143.8700 C   0  0  0  0  0  0  0  0  0  0  0  0
  189.8860  176.7170  142.0900 C   0  0  0  0  0  3  0  0  0  0  0  0
  186.0850  177.2980  145.8100 C   0  0  0  0  0  2  0  0  0  0  0  0
  181.1440  180.6590  137.1140 C   0  0  0  0  0  3  0  0  0  0  0  0
  181.7530  181.5160  138.0280 C   0  0  0  0  0  3  0  0  0  0  0  0
  181.5560  179.3270  137.0810 C   0  0  0  0  0  3  0  0  0  0  0  0
  182.5270  178.8960  137.9280 N   0  0  0  0  0  0  0  0  0  0  0  0
  182.7200  181.0490  138.8590 N   0  0  0  0  0  0  0  0  0  0  0  0
  183.1110  179.7460  138.8160 C   0  0  0  0  0  0  0  0  0  0  0  0
  187.7540  178.0220  137.9500 C   0  0  0  0  0  2  0  0  0  0  0  0
  190.5060  174.2460  136.0980 C   0  0  0  0  0  0  0  0  0  0  0  0
  191.5600  175.0200  136.2040 C   0  0  0  0  0  0  0  0  0  0  0  0
  190.8870  172.9210  135.5390 C   0  0  0  0  0  2  0  0  0  0  0  0
  189.1010  176.0650  137.0070 N   0  0  0  0  0  0  0  0  0  0  0  0
  187.8380  176.6370  137.3860 C   0  0  0  0  0  0  0  0  0  0  0  0
  192.7050  174.3950  135.7570 O   0  0  0  0  0  0  0  0  0  0  0  0
  192.3970  173.0830  135.2960 C   0  0  1  0  0  3  0  0  0  0  0  0
  186.7760  175.9680  137.2670 O   0  0  0  0  0  0  0  0  0  0  0  0
  189.1310  174.6690  136.5260 C   0  0  0  0  0  2  0  0  0  0  0  0
  191.4890  176.3790  136.7350 C   0  0  0  0  0  3  0  0  0  0  0  0
  190.3020  176.8600  137.1130 C   0  0  0  0  0  3  0  0  0  0  0  0
  194.0730  172.4210  136.8130 O   0  0  0  0  0  0  0  0  0  0  0  0
  193.1520  172.0720  136.0930 C   0  0  0  0  0  3  0  0  0  0  0  0
  190.9670  178.2210  145.3200 C   0  0  0  0  0  2  0  0  0  0  0  0
  190.4370  177.4990  146.5520 C   0  0  2  0  0  3  0  0  0  0  0  0
  189.6110  178.2530  148.7650 C   0  0  0  0  0  2  0  0  0  0  0  0
  189.4110  178.3650  147.2650 C   0  0  0  0  0  3  0  0  0  0  0  0
  188.4880  177.4930  148.0970 C   0  0  0  0  0  2  0  0  0  0  0  0
  191.6020  177.2110  147.4970 C   0  0  0  0  0  2  0  0  0  0  0  0
  192.4310  175.2530  146.1480 C   0  0  0  0  0  1  0  0  0  0  0  0
  193.1810  175.5820  148.4690 C   0  0  0  0  0  1  0  0  0  0  0  0
  190.8630  174.8770  148.0340 C   0  0  0  0  0  1  0  0  0  0  0  0
  192.0070  175.7350  147.5250 C   0  0  0  0  0  0  0  0  0  0  0  0
  2 12  1  0  0  0  0
  3  2  2  0  0  0  0
  4  7  2  0  0  0  0
  4 15  1  0  0  0  0
  5  2  1  0  0  0  0
  6 16  1  0  0  0  0
  7  5  1  0  0  0  0
  8 14  1  0  0  0  0
  9 18  1  0  0  0  0
  9 13  2  0  0  0  0
 10  9  1  0  0  0  0
 11 15  1  0  0  0  0
 11 10  2  0  0  0  0
 12  6  1  0  0  0  0
 13 17  1  0  0  0  0
 14  1  1  0  0  0  0
 14 40  1  1  0  0  0
 16 19  2  0  0  0  0
 17 16  1  0  0  0  0
 17  1  2  0  0  0  0
 18  8  2  0  0  0  0
 20 21  1  0  0  0  0
 21 24  2  0  0  0  0
 22 20  2  0  0  0  0
 22 23  1  0  0  0  0
 23 25  2  0  0  0  0
 25 24  1  0  0  0  0
 25  7  1  0  0  0  0
 26 11  1  0  0  0  0
 27 28  2  0  0  0  0
 27 35  1  0  0  0  0
 28 36  1  0  0  0  0
 29 27  1  0  0  0  0
 30 37  1  0  0  0  0
 30 31  1  0  0  0  0
 31 26  1  0  0  0  0
 32 28  1  0  0  0  0
 33 29  1  0  0  0  0
 33 32  1  0  0  0  0
 33 39  1  1  0  0  0
 34 31  2  0  0  0  0
 35 30  1  0  0  0  0
 36 37  2  0  0  0  0
 39 38  2  0  0  0  0
 41 40  1  6  0  0  0
 41 43  1  0  0  0  0
 41 45  1  0  0  0  0
 43 44  1  0  0  0  0
 43 42  1  0  0  0  0
 44 42  1  0  0  0  0
 45 49  1  0  0  0  0
 46 49  1  0  0  0  0
 49 48  1  0  0  0  0
 49 47  1  0  0  0  0
M  END
>  <MODEL>
4

>  <REMARK>
 VINA RESULT:      -6.9      2.971      8.105
  Name = 
  9 active torsions:
  status: ('A' for Active; 'I' for Inactive)
    1  A    between atoms: C_12  and  C_16
    2  A    between atoms: C_15  and  C_49
    3  A    between atoms: C_16  and  C_26
    4  A    between atoms: C_16  and  C_35
    5  A    between atoms: C_20  and  C_22
    6  A    between atoms: C_20  and  C_31
    7  A    between atoms: C_25  and  C_30
    8  A    between atoms: C_26  and  C_39
    9  A    between atoms: C_35  and  C_42
                            x       y       z     vdW  Elec       q    Type
                         _______ _______ _______ _____ _____    ______ ____

>  <TORSDO>
F 9

$$$$
=
 OpenBabel10222417373D

 49 54  0  0  1  0  0  0  0  0999 V2000
  185.6450  178.1880  138.8000 C   0  0  0  0  0  3  0  0  0  0  0  0
  187.5410  177.1540  143.2410 C   0  0  0  0  0  0  0  0  0  0  0  0
  187.6260  176.1530  142.4810 O   0  0  0  0  0  0  0  0  0  0  0  0
  190.5900  177.0620  142.7920 N   0  0  0  0  0  0  0  0  0  0  0  0
  188.6340  177.5270  144.0850 N   0  0  0  0  0  2  0  0  0  0  0  0
  186.4230  179.1800  142.3910 C   0  0  0  0  0  2  0  0  0  0  0  0
  189.9850  177.0640  143.9430 C   0  0  0  0  0  0  0  0  0  0  0  0
  187.2770  178.3800  136.9800 C   0  0  0  0  0  3  0  0  0  0  0  0
  188.7340  178.1860  138.9980 C   0  0  0  0  0  0  0  0  0  0  0  0
  190.1170  177.8850  139.2560 N   0  0  0  0  0  0  0  0  0  0  0  0
  190.6970  177.5580  140.3760 C   0  0  0  0  0  0  0  0  0  0  0  0
  186.2860  177.9510  143.2770 C   0  0  0  0  0  2  0  0  0  0  0  0
  187.8180  178.1520  139.9850 C   0  0  0  0  0  3  0  0  0  0  0  0
  186.1960  177.5450  137.5710 C   0  0  2  0  0  3  0  0  0  0  0  0
  189.9750  177.4970  141.6090 N   0  0  0  0  0  2  0  0  0  0  0  0
  185.6820  178.9920  141.1050 C   0  0  0  0  0  0  0  0  0  0  0  0
  186.3650  178.4470  139.9010 C   0  0  0  0  0  0  0  0  0  0  0  0
  188.4170  178.6280  137.6240 C   0  0  0  0  0  3  0  0  0  0  0  0
  184.3930  179.3240  141.0820 C   0  0  0  0  0  2  0  0  0  0  0  0
  192.1640  175.9880  147.4030 C   0  0  0  0  0  3  0  0  0  0  0  0
  191.1640  176.9570  147.4620 C   0  0  0  0  0  3  0  0  0  0  0  0
  192.4250  175.3820  146.1750 C   0  0  0  0  0  3  0  0  0  0  0  0
  191.7120  175.7400  145.0750 N   0  0  0  0  0  0  0  0  0  0  0  0
  190.4720  177.2900  146.3410 N   0  0  0  0  0  0  0  0  0  0  0  0
  190.7390  176.6890  145.1490 C   0  0  0  0  0  0  0  0  0  0  0  0
  192.1670  177.2860  140.3660 C   0  0  0  0  0  2  0  0  0  0  0  0
  195.4700  174.5730  137.7220 C   0  0  0  0  0  0  0  0  0  0  0  0
  196.2540  174.5840  138.7730 C   0  0  0  0  0  0  0  0  0  0  0  0
  196.1060  173.8230  136.6060 C   0  0  0  0  0  2  0  0  0  0  0  0
  193.8050  175.9050  138.9730 N   0  0  0  0  0  0  0  0  0  0  0  0
  192.5670  176.6270  139.0820 C   0  0  0  0  0  0  0  0  0  0  0  0
  197.4370  173.9160  138.5410 O   0  0  0  0  0  0  0  0  0  0  0  0
  197.4630  173.4180  137.2060 C   0  0  1  0  0  3  0  0  0  0  0  0
  191.7840  176.6990  138.0960 O   0  0  0  0  0  0  0  0  0  0  0  0
  194.1120  175.2130  137.7050 C   0  0  0  0  0  2  0  0  0  0  0  0
  195.8830  175.2390  140.0260 C   0  0  0  0  0  3  0  0  0  0  0  0
  194.7070  175.8660  140.1000 C   0  0  0  0  0  3  0  0  0  0  0  0
  198.5800  171.3950  136.7490 O   0  0  0  0  0  0  0  0  0  0  0  0
  197.5890  171.9300  137.2190 C   0  0  0  0  0  3  0  0  0  0  0  0
  185.0890  177.3510  136.5480 C   0  0  0  0  0  2  0  0  0  0  0  0
  184.0700  176.3290  137.0370 C   0  0  2  0  0  3  0  0  0  0  0  0
  183.2160  174.0250  136.7080 C   0  0  0  0  0  2  0  0  0  0  0  0
  184.3850  174.9590  136.4580 C   0  0  0  0  0  3  0  0  0  0  0  0
  184.4520  173.9310  137.5730 C   0  0  0  0  0  2  0  0  0  0  0  0
  182.6770  176.7620  136.5840 C   0  0  0  0  0  2  0  0  0  0  0  0
  182.0120  178.8840  137.7670 C   0  0  0  0  0  1  0  0  0  0  0  0
  180.3820  177.0690  137.4380 C   0  0  0  0  0  1  0  0  0  0  0  0
  182.2200  176.7700  139.0490 C   0  0  0  0  0  1  0  0  0  0  0  0
  181.8400  177.3750  137.7090 C   0  0  0  0  0  0  0  0  0  0  0  0
  1 17  2  0  0  0  0
  2 12  1  0  0  0  0
  2  5  1  0  0  0  0
  3  2  2  0  0  0  0
  4  7  2  0  0  0  0
  6 12  1  0  0  0  0
  7  5  1  0  0  0  0
  7 25  1  0  0  0  0
  8 14  1  0  0  0  0
  8 18  2  0  0  0  0
  9 10  1  0  0  0  0
  9 13  2  0  0  0  0
 10 11  2  0  0  0  0
 11 15  1  0  0  0  0
 14 40  1  6  0  0  0
 14  1  1  0  0  0  0
 15  4  1  0  0  0  0
 16  6  1  0  0  0  0
 17 13  1  0  0  0  0
 17 16  1  0  0  0  0
 18  9  1  0  0  0  0
 19 16  2  0  0  0  0
 20 21  1  0  0  0  0
 22 20  2  0  0  0  0
 23 25  2  0  0  0  0
 23 22  1  0  0  0  0
 24 21  2  0  0  0  0
 25 24  1  0  0  0  0
 26 11  1  0  0  0  0
 27 28  2  0  0  0  0
 28 36  1  0  0  0  0
 29 33  1  0  0  0  0
 29 27  1  0  0  0  0
 30 31  1  0  0  0  0
 30 37  1  0  0  0  0
 31 26  1  0  0  0  0
 32 28  1  0  0  0  0
 33 39  1  1  0  0  0
 33 32  1  0  0  0  0
 34 31  2  0  0  0  0
 35 27  1  0  0  0  0
 35 30  1  0  0  0  0
 36 37  2  0  0  0  0
 38 39  2  0  0  0  0
 41 40  1  6  0  0  0
 42 44  1  0  0  0  0
 43 42  1  0  0  0  0
 43 41  1  0  0  0  0
 43 44  1  0  0  0  0
 45 41  1  0  0  0  0
 45 49  1  0  0  0  0
 47 49  1  0  0  0  0
 49 46  1  0  0  0  0
 49 48  1  0  0  0  0
M  END
>  <MODEL>
5

>  <REMARK>
 VINA RESULT:      -6.3      1.891      3.348
  Name = 
  9 active torsions:
  status: ('A' for Active; 'I' for Inactive)
    1  A    between atoms: C_12  and  C_16
    2  A    between atoms: C_15  and  C_49
    3  A    between atoms: C_16  and  C_26
    4  A    between atoms: C_16  and  C_35
    5  A    between atoms: C_20  and  C_22
    6  A    between atoms: C_20  and  C_31
    7  A    between atoms: C_25  and  C_30
    8  A    between atoms: C_26  and  C_39
    9  A    between atoms: C_35  and  C_42
                            x       y       z     vdW  Elec       q    Type
                         _______ _______ _______ _____ _____    ______ ____

>  <TORSDO>
F 9

$$$$
=
 OpenBabel10222417373D

 49 54  0  0  1  0  0  0  0  0999 V2000
  185.6750  178.1750  138.6760 C   0  0  0  0  0  3  0  0  0  0  0  0
  187.5590  177.1670  143.1290 C   0  0  0  0  0  0  0  0  0  0  0  0
  187.6320  176.1570  142.3800 O   0  0  0  0  0  0  0  0  0  0  0  0
  190.6060  177.0380  142.6820 N   0  0  0  0  0  0  0  0  0  0  0  0
  188.6550  177.5370  143.9700 N   0  0  0  0  0  2  0  0  0  0  0  0
  186.4630  179.1970  142.2570 C   0  0  0  0  0  2  0  0  0  0  0  0
  190.0010  177.0580  143.8330 C   0  0  0  0  0  0  0  0  0  0  0  0
  187.3100  178.3310  136.8560 C   0  0  0  0  0  3  0  0  0  0  0  0
  188.7640  178.1420  138.8760 C   0  0  0  0  0  0  0  0  0  0  0  0
  190.1440  177.8290  139.1380 N   0  0  0  0  0  0  0  0  0  0  0  0
  190.7190  177.5070  140.2620 C   0  0  0  0  0  0  0  0  0  0  0  0
  186.3120  177.9790  143.1560 C   0  0  0  0  0  2  0  0  0  0  0  0
  187.8470  178.1280  139.8630 C   0  0  0  0  0  3  0  0  0  0  0  0
  186.2190  177.5140  137.4540 C   0  0  2  0  0  3  0  0  0  0  0  0
  189.9970  177.4670  141.4950 N   0  0  0  0  0  2  0  0  0  0  0  0
  185.7210  179.0030  140.9730 C   0  0  0  0  0  0  0  0  0  0  0  0
  186.3970  178.4390  139.7750 C   0  0  0  0  0  0  0  0  0  0  0  0
  188.4520  178.5730  137.4970 C   0  0  0  0  0  3  0  0  0  0  0  0
  184.4350  179.3490  140.9460 C   0  0  0  0  0  2  0  0  0  0  0  0
  192.1440  175.9920  147.3180 C   0  0  0  0  0  3  0  0  0  0  0  0
  192.4310  175.3930  146.0940 C   0  0  0  0  0  3  0  0  0  0  0  0
  191.1340  176.9530  147.3640 C   0  0  0  0  0  3  0  0  0  0  0  0
  190.4590  177.2820  146.2330 N   0  0  0  0  0  0  0  0  0  0  0  0
  191.7330  175.7480  144.9830 N   0  0  0  0  0  0  0  0  0  0  0  0
  190.7500  176.6870  145.0440 C   0  0  0  0  0  0  0  0  0  0  0  0
  192.1860  177.2190  140.2550 C   0  0  0  0  0  2  0  0  0  0  0  0
  195.4720  174.5610  137.5340 C   0  0  0  0  0  0  0  0  0  0  0  0
  196.2380  174.5020  138.5980 C   0  0  0  0  0  0  0  0  0  0  0  0
  196.1100  173.8520  136.3940 C   0  0  0  0  0  2  0  0  0  0  0  0
  193.8160  175.8690  138.8220 N   0  0  0  0  0  0  0  0  0  0  0  0
  192.5930  176.6140  138.9470 C   0  0  0  0  0  0  0  0  0  0  0  0
  197.4100  173.8190  138.3520 O   0  0  0  0  0  0  0  0  0  0  0  0
  197.4470  173.3860  136.9950 C   0  0  1  0  0  3  0  0  0  0  0  0
  191.8300  176.7530  137.9530 O   0  0  0  0  0  0  0  0  0  0  0  0
  194.1300  175.2330  137.5270 C   0  0  0  0  0  2  0  0  0  0  0  0
  195.8610  175.1040  139.8750 C   0  0  0  0  0  3  0  0  0  0  0  0
  194.6980  175.7540  139.9600 C   0  0  0  0  0  3  0  0  0  0  0  0
  196.6950  171.2080  137.4880 O   0  0  0  0  0  0  0  0  0  0  0  0
  197.5390  171.8970  136.9370 C   0  0  0  0  0  3  0  0  0  0  0  0
  185.1110  177.3210  136.4340 C   0  0  0  0  0  2  0  0  0  0  0  0
  184.7510  175.8480  136.2930 C   0  0  2  0  0  3  0  0  0  0  0  0
  183.2130  174.1350  137.2160 C   0  0  0  0  0  2  0  0  0  0  0  0
  183.3510  175.5970  136.8320 C   0  0  0  0  0  3  0  0  0  0  0  0
  182.6120  174.6340  135.9210 C   0  0  0  0  0  2  0  0  0  0  0  0
  185.7560  175.0140  137.0840 C   0  0  0  0  0  2  0  0  0  0  0  0
  186.2750  174.2790  134.7320 C   0  0  0  0  0  1  0  0  0  0  0  0
  188.0860  174.6340  136.3610 C   0  0  0  0  0  1  0  0  0  0  0  0
  186.5890  172.6960  136.6170 C   0  0  0  0  0  1  0  0  0  0  0  0
  186.6590  174.1530  136.1970 C   0  0  0  0  0  0  0  0  0  0  0  0
  1 17  2  0  0  0  0
  2 12  1  0  0  0  0
  2  5  1  0  0  0  0
  3  2  2  0  0  0  0
  4  7  2  0  0  0  0
  6 12  1  0  0  0  0
  7  5  1  0  0  0  0
  7 25  1  0  0  0  0
  8 14  1  0  0  0  0
  8 18  2  0  0  0  0
  9 10  1  0  0  0  0
  9 13  2  0  0  0  0
 10 11  2  0  0  0  0
 11 15  1  0  0  0  0
 14 40  1  6  0  0  0
 14  1  1  0  0  0  0
 15  4  1  0  0  0  0
 16  6  1  0  0  0  0
 17 13  1  0  0  0  0
 17 16  1  0  0  0  0
 18  9  1  0  0  0  0
 19 16  2  0  0  0  0
 20 22  2  0  0  0  0
 21 20  1  0  0  0  0
 23 22  1  0  0  0  0
 24 25  1  0  0  0  0
 24 21  2  0  0  0  0
 25 23  2  0  0  0  0
 26 11  1  0  0  0  0
 27 28  2  0  0  0  0
 28 36  1  0  0  0  0
 29 33  1  0  0  0  0
 29 27  1  0  0  0  0
 30 31  1  0  0  0  0
 30 37  1  0  0  0  0
 31 26  1  0  0  0  0
 32 28  1  0  0  0  0
 33 39  1  1  0  0  0
 33 32  1  0  0  0  0
 34 31  2  0  0  0  0
 35 27  1  0  0  0  0
 35 30  1  0  0  0  0
 36 37  2  0  0  0  0
 39 38  2  0  0  0  0
 41 40  1  1  0  0  0
 41 43  1  0  0  0  0
 41 45  1  0  0  0  0
 43 42  1  0  0  0  0
 44 43  1  0  0  0  0
 44 42  1  0  0  0  0
 46 49  1  0  0  0  0
 49 47  1  0  0  0  0
 49 48  1  0  0  0  0
 49 45  1  0  0  0  0
M  END
>  <MODEL>
6

>  <REMARK>
 VINA RESULT:      -6.2      2.172      3.395
  Name = 
  9 active torsions:
  status: ('A' for Active; 'I' for Inactive)
    1  A    between atoms: C_12  and  C_16
    2  A    between atoms: C_15  and  C_49
    3  A    between atoms: C_16  and  C_26
    4  A    between atoms: C_16  and  C_35
    5  A    between atoms: C_20  and  C_22
    6  A    between atoms: C_20  and  C_31
    7  A    between atoms: C_25  and  C_30
    8  A    between atoms: C_26  and  C_39
    9  A    between atoms: C_35  and  C_42
                            x       y       z     vdW  Elec       q    Type
                         _______ _______ _______ _____ _____    ______ ____

>  <TORSDO>
F 9

$$$$
=
 OpenBabel10222417373D

 49 54  0  0  1  0  0  0  0  0999 V2000
  188.2310  177.7840  143.9620 C   0  0  0  0  0  3  0  0  0  0  0  0
  191.6190  176.5260  140.5970 C   0  0  0  0  0  0  0  0  0  0  0  0
  190.6580  175.7120  140.5810 O   0  0  0  0  0  0  0  0  0  0  0  0
  190.3390  177.2430  137.8860 N   0  0  0  0  0  0  0  0  0  0  0  0
  192.1910  177.0080  139.3780 N   0  0  0  0  0  2  0  0  0  0  0  0
  191.5960  178.3360  142.2710 C   0  0  0  0  0  2  0  0  0  0  0  0
  191.5810  176.9110  138.0830 C   0  0  0  0  0  0  0  0  0  0  0  0
  186.1250  178.6560  143.0570 C   0  0  0  0  0  3  0  0  0  0  0  0
  187.5640  178.4910  141.0230 C   0  0  0  0  0  0  0  0  0  0  0  0
  187.3540  178.4920  139.6000 N   0  0  0  0  0  0  0  0  0  0  0  0
  188.1660  178.1360  138.6440 C   0  0  0  0  0  0  0  0  0  0  0  0
  192.1810  176.9830  141.8970 C   0  0  0  0  0  2  0  0  0  0  0  0
  188.7300  178.0770  141.5550 C   0  0  0  0  0  3  0  0  0  0  0  0
  186.7840  177.5010  143.7260 C   0  0  2  0  0  3  0  0  0  0  0  0
  189.5030  177.7040  138.9130 N   0  0  0  0  0  2  0  0  0  0  0  0
  190.5560  178.1870  143.3370 C   0  0  0  0  0  0  0  0  0  0  0  0
  189.1200  178.0260  142.9880 C   0  0  0  0  0  0  0  0  0  0  0  0
  186.4680  179.0620  141.8350 C   0  0  0  0  0  3  0  0  0  0  0  0
  190.9660  178.2000  144.6040 C   0  0  0  0  0  2  0  0  0  0  0  0
  193.9830  175.8300  134.7760 C   0  0  0  0  0  3  0  0  0  0  0  0
  192.5990  175.6790  134.7320 C   0  0  0  0  0  3  0  0  0  0  0  0
  194.5540  176.3490  135.9370 C   0  0  0  0  0  3  0  0  0  0  0  0
  193.7650  176.6920  136.9880 N   0  0  0  0  0  0  0  0  0  0  0  0
  191.8410  176.0320  135.8030 N   0  0  0  0  0  0  0  0  0  0  0  0
  192.4140  176.5370  136.9290 C   0  0  0  0  0  0  0  0  0  0  0  0
  187.6890  178.2300  137.2310 C   0  0  0  0  0  2  0  0  0  0  0  0
  184.9610  174.1930  135.9990 C   0  0  0  0  0  0  0  0  0  0  0  0
  186.0770  173.5990  135.6490 C   0  0  0  0  0  0  0  0  0  0  0  0
  183.8000  173.2900  135.7760 C   0  0  0  0  0  2  0  0  0  0  0  0
  186.2490  176.2070  136.6250 N   0  0  0  0  0  0  0  0  0  0  0  0
  186.3550  177.5650  137.0850 C   0  0  0  0  0  0  0  0  0  0  0  0
  185.8560  172.3270  135.1670 O   0  0  0  0  0  0  0  0  0  0  0  0
  184.4610  172.0360  135.1790 C   0  0  1  0  0  3  0  0  0  0  0  0
  185.3200  178.2140  137.3940 O   0  0  0  0  0  0  0  0  0  0  0  0
  184.9140  175.5790  136.5710 C   0  0  0  0  0  2  0  0  0  0  0  0
  187.3830  174.2430  135.7700 C   0  0  0  0  0  3  0  0  0  0  0  0
  187.4430  175.4920  136.2380 C   0  0  0  0  0  3  0  0  0  0  0  0
  183.2360  170.8580  136.8100 O   0  0  0  0  0  0  0  0  0  0  0  0
  184.1930  170.8560  136.0530 C   0  0  0  0  0  3  0  0  0  0  0  0
  186.0910  177.2160  145.0470 C   0  0  0  0  0  2  0  0  0  0  0  0
  185.1880  178.3760  145.4480 C   0  0  2  0  0  3  0  0  0  0  0  0
  186.2120  179.8710  147.1420 C   0  0  0  0  0  2  0  0  0  0  0  0
  185.3270  178.6560  146.9370 C   0  0  0  0  0  3  0  0  0  0  0  0
  186.7740  178.4850  147.3610 C   0  0  0  0  0  2  0  0  0  0  0  0
  183.7400  178.0090  145.1350 C   0  0  0  0  0  2  0  0  0  0  0  0
  183.2330  178.3590  142.6930 C   0  0  0  0  0  1  0  0  0  0  0  0
  181.6210  179.0520  144.4180 C   0  0  0  0  0  1  0  0  0  0  0  0
  183.7180  180.3110  144.1450 C   0  0  0  0  0  1  0  0  0  0  0  0
  183.0950  178.9280  144.0950 C   0  0  0  0  0  0  0  0  0  0  0  0
  2 12  1  0  0  0  0
  3  2  2  0  0  0  0
  4  7  2  0  0  0  0
  4 15  1  0  0  0  0
  5  2  1  0  0  0  0
  6 16  1  0  0  0  0
  7  5  1  0  0  0  0
  8 14  1  0  0  0  0
  9 13  2  0  0  0  0
  9 18  1  0  0  0  0
 10  9  1  0  0  0  0
 11 15  1  0  0  0  0
 11 10  2  0  0  0  0
 12  6  1  0  0  0  0
 13 17  1  0  0  0  0
 14  1  1  0  0  0  0
 14 40  1  1  0  0  0
 16 19  2  0  0  0  0
 17 16  1  0  0  0  0
 17  1  2  0  0  0  0
 18  8  2  0  0  0  0
 20 22  2  0  0  0  0
 21 20  1  0  0  0  0
 21 24  2  0  0  0  0
 22 23  1  0  0  0  0
 24 25  1  0  0  0  0
 25 23  2  0  0  0  0
 25  7  1  0  0  0  0
 26 11  1  0  0  0  0
 27 35  1  0  0  0  0
 28 36  1  0  0  0  0
 28 27  2  0  0  0  0
 29 27  1  0  0  0  0
 30 31  1  0  0  0  0
 31 26  1  0  0  0  0
 31 34  2  0  0  0  0
 32 33  1  0  0  0  0
 32 28  1  0  0  0  0
 33 29  1  0  0  0  0
 33 39  1  1  0  0  0
 35 30  1  0  0  0  0
 36 37  2  0  0  0  0
 37 30  1  0  0  0  0
 39 38  2  0  0  0  0
 41 40  1  1  0  0  0
 41 43  1  0  0  0  0
 42 44  1  0  0  0  0
 43 42  1  0  0  0  0
 43 44  1  0  0  0  0
 45 41  1  0  0  0  0
 46 49  1  0  0  0  0
 49 48  1  0  0  0  0
 49 47  1  0  0  0  0
 49 45  1  0  0  0  0
M  END
>  <MODEL>
7

>  <REMARK>
 VINA RESULT:      -5.8      3.220      7.760
  Name = 
  9 active torsions:
  status: ('A' for Active; 'I' for Inactive)
    1  A    between atoms: C_12  and  C_16
    2  A    between atoms: C_15  and  C_49
    3  A    between atoms: C_16  and  C_26
    4  A    between atoms: C_16  and  C_35
    5  A    between atoms: C_20  and  C_22
    6  A    between atoms: C_20  and  C_31
    7  A    between atoms: C_25  and  C_30
    8  A    between atoms: C_26  and  C_39
    9  A    between atoms: C_35  and  C_42
                            x       y       z     vdW  Elec       q    Type
                         _______ _______ _______ _____ _____    ______ ____

>  <TORSDO>
F 9

$$$$
=
 OpenBabel10222417373D

 49 54  0  0  1  0  0  0  0  0999 V2000
  183.5800  177.4250  136.5650 C   0  0  0  0  0  3  0  0  0  0  0  0
  183.7620  177.8450  141.4820 C   0  0  0  0  0  0  0  0  0  0  0  0
  184.2960  176.7660  141.1110 O   0  0  0  0  0  0  0  0  0  0  0  0
  186.7180  178.4530  142.1100 N   0  0  0  0  0  0  0  0  0  0  0  0
  184.3670  178.6520  142.4970 N   0  0  0  0  0  2  0  0  0  0  0  0
  182.7400  179.2960  139.7710 C   0  0  0  0  0  2  0  0  0  0  0  0
  185.7250  178.5330  142.9460 C   0  0  0  0  0  0  0  0  0  0  0  0
  185.7310  177.6570  135.4110 C   0  0  0  0  0  3  0  0  0  0  0  0
  186.3080  178.2610  137.7630 C   0  0  0  0  0  0  0  0  0  0  0  0
  187.5150  178.3860  138.5380 N   0  0  0  0  0  0  0  0  0  0  0  0
  187.6640  178.4560  139.8310 C   0  0  0  0  0  0  0  0  0  0  0  0
  182.4760  178.2810  140.8730 C   0  0  0  0  0  2  0  0  0  0  0  0
  185.1020  178.1930  138.3590 C   0  0  0  0  0  3  0  0  0  0  0  0
  184.6590  176.7090  135.8230 C   0  0  2  0  0  3  0  0  0  0  0  0
  186.5430  178.4640  140.7190 N   0  0  0  0  0  2  0  0  0  0  0  0
  182.5930  178.6650  138.4230 C   0  0  0  0  0  0  0  0  0  0  0  0
  183.7660  178.0810  137.7200 C   0  0  0  0  0  0  0  0  0  0  0  0
  186.4770  178.3160  136.2960 C   0  0  0  0  0  3  0  0  0  0  0  0
  181.3770  178.6410  137.8820 C   0  0  0  0  0  2  0  0  0  0  0  0
  186.5230  178.7790  147.0910 C   0  0  0  0  0  3  0  0  0  0  0  0
  187.4300  178.1720  146.2250 C   0  0  0  0  0  3  0  0  0  0  0  0
  185.3480  179.3050  146.5550 C   0  0  0  0  0  3  0  0  0  0  0  0
  185.1110  179.2170  145.2210 N   0  0  0  0  0  0  0  0  0  0  0  0
  187.1580  178.1020  144.8950 N   0  0  0  0  0  0  0  0  0  0  0  0
  186.0070  178.6200  144.3880 C   0  0  0  0  0  0  0  0  0  0  0  0
  189.0470  178.5760  140.3840 C   0  0  0  0  0  2  0  0  0  0  0  0
  191.0980  176.2470  144.3370 C   0  0  0  0  0  0  0  0  0  0  0  0
  191.3670  177.4290  144.8390 C   0  0  0  0  0  0  0  0  0  0  0  0
  191.5770  175.1740  145.2490 C   0  0  0  0  0  2  0  0  0  0  0  0
  190.0730  177.3350  142.3690 N   0  0  0  0  0  0  0  0  0  0  0  0
  189.4440  177.3090  141.0760 C   0  0  0  0  0  0  0  0  0  0  0  0
  192.0220  177.3390  146.0480 O   0  0  0  0  0  0  0  0  0  0  0  0
  192.2270  175.9720  146.3920 C   0  0  1  0  0  3  0  0  0  0  0  0
  189.1980  176.2090  140.5120 O   0  0  0  0  0  0  0  0  0  0  0  0
  190.3750  176.0540  143.0360 C   0  0  0  0  0  2  0  0  0  0  0  0
  191.0010  178.6730  144.1650 C   0  0  0  0  0  3  0  0  0  0  0  0
  190.3830  178.6050  142.9830 C   0  0  0  0  0  3  0  0  0  0  0  0
  190.3500  175.4020  147.6960 O   0  0  0  0  0  0  0  0  0  0  0  0
  191.5430  175.6620  147.6820 C   0  0  0  0  0  3  0  0  0  0  0  0
  184.0800  176.0320  134.5940 C   0  0  0  0  0  2  0  0  0  0  0  0
  183.5420  174.6480  134.9370 C   0  0  2  0  0  3  0  0  0  0  0  0
  181.4970  173.8100  136.0590 C   0  0  0  0  0  2  0  0  0  0  0  0
  182.0220  174.6580  134.9170 C   0  0  0  0  0  3  0  0  0  0  0  0
  181.5000  173.2580  134.6520 C   0  0  0  0  0  2  0  0  0  0  0  0
  184.0280  174.2590  136.3310 C   0  0  0  0  0  2  0  0  0  0  0  0
  186.3980  173.6420  135.7450 C   0  0  0  0  0  1  0  0  0  0  0  0
  185.3140  172.6950  137.7420 C   0  0  0  0  0  1  0  0  0  0  0  0
  184.5900  171.9600  135.5070 C   0  0  0  0  0  1  0  0  0  0  0  0
  185.0800  173.1470  136.3160 C   0  0  0  0  0  0  0  0  0  0  0  0
  1 17  2  0  0  0  0
  2  5  1  0  0  0  0
  3  2  2  0  0  0  0
  4  7  2  0  0  0  0
  5  7  1  0  0  0  0
  6 12  1  0  0  0  0
  7 25  1  0  0  0  0
  8 14  1  0  0  0  0
  8 18  2  0  0  0  0
  9 13  2  0  0  0  0
  9 10  1  0  0  0  0
 10 11  2  0  0  0  0
 11 26  1  0  0  0  0
 11 15  1  0  0  0  0
 12  2  1  0  0  0  0
 14 40  1  6  0  0  0
 14  1  1  0  0  0  0
 15  4  1  0  0  0  0
 16  6  1  0  0  0  0
 17 13  1  0  0  0  0
 17 16  1  0  0  0  0
 18  9  1  0  0  0  0
 19 16  2  0  0  0  0
 21 20  1  0  0  0  0
 22 20  2  0  0  0  0
 23 22  1  0  0  0  0
 24 21  2  0  0  0  0
 25 24  1  0  0  0  0
 25 23  2  0  0  0  0
 26 31  1  0  0  0  0
 27 28  2  0  0  0  0
 27 29  1  0  0  0  0
 28 32  1  0  0  0  0
 29 33  1  0  0  0  0
 30 37  1  0  0  0  0
 30 35  1  0  0  0  0
 31 30  1  0  0  0  0
 32 33  1  0  0  0  0
 33 39  1  1  0  0  0
 34 31  2  0  0  0  0
 35 27  1  0  0  0  0
 36 28  1  0  0  0  0
 37 36  2  0  0  0  0
 39 38  2  0  0  0  0
 41 40  1  1  0  0  0
 41 45  1  0  0  0  0
 43 41  1  0  0  0  0
 43 42  1  0  0  0  0
 44 43  1  0  0  0  0
 44 42  1  0  0  0  0
 46 49  1  0  0  0  0
 48 49  1  0  0  0  0
 49 45  1  0  0  0  0
 49 47  1  0  0  0  0
M  END
>  <MODEL>
8

>  <REMARK>
 VINA RESULT:      -5.8      3.145      5.247
  Name = 
  9 active torsions:
  status: ('A' for Active; 'I' for Inactive)
    1  A    between atoms: C_12  and  C_16
    2  A    between atoms: C_15  and  C_49
    3  A    between atoms: C_16  and  C_26
    4  A    between atoms: C_16  and  C_35
    5  A    between atoms: C_20  and  C_22
    6  A    between atoms: C_20  and  C_31
    7  A    between atoms: C_25  and  C_30
    8  A    between atoms: C_26  and  C_39
    9  A    between atoms: C_35  and  C_42
                            x       y       z     vdW  Elec       q    Type
                         _______ _______ _______ _____ _____    ______ ____

>  <TORSDO>
F 9

$$$$
=
 OpenBabel10222417373D

 49 54  0  0  1  0  0  0  0  0999 V2000
  188.2780  177.8940  143.5610 C   0  0  0  0  0  3  0  0  0  0  0  0
  191.7350  176.4550  140.3410 C   0  0  0  0  0  0  0  0  0  0  0  0
  190.7660  175.6500  140.3370 O   0  0  0  0  0  0  0  0  0  0  0  0
  190.5300  177.0630  137.5700 N   0  0  0  0  0  0  0  0  0  0  0  0
  192.3430  176.8760  139.1170 N   0  0  0  0  0  2  0  0  0  0  0  0
  191.6900  178.3370  141.9330 C   0  0  0  0  0  2  0  0  0  0  0  0
  191.7630  176.7280  137.8130 C   0  0  0  0  0  0  0  0  0  0  0  0
  186.2060  178.7460  142.5650 C   0  0  0  0  0  3  0  0  0  0  0  0
  187.6920  178.4770  140.5780 C   0  0  0  0  0  0  0  0  0  0  0  0
  187.5180  178.4170  139.1510 N   0  0  0  0  0  0  0  0  0  0  0  0
  188.3500  178.0100  138.2330 C   0  0  0  0  0  0  0  0  0  0  0  0
  192.2690  176.9630  141.6340 C   0  0  0  0  0  2  0  0  0  0  0  0
  188.8400  178.0760  141.1570 C   0  0  0  0  0  3  0  0  0  0  0  0
  186.8350  177.6150  143.3010 C   0  0  2  0  0  3  0  0  0  0  0  0
  189.6740  177.5780  138.5540 N   0  0  0  0  0  2  0  0  0  0  0  0
  190.6230  178.2460  142.9780 C   0  0  0  0  0  0  0  0  0  0  0  0
  189.1940  178.0840  142.6000 C   0  0  0  0  0  0  0  0  0  0  0  0
  186.5840  179.0940  141.3360 C   0  0  0  0  0  3  0  0  0  0  0  0
  191.0010  178.3110  144.2530 C   0  0  0  0  0  2  0  0  0  0  0  0
  194.2350  175.4780  134.6190 C   0  0  0  0  0  3  0  0  0  0  0  0
  192.8630  175.2400  134.5940 C   0  0  0  0  0  3  0  0  0  0  0  0
  194.7710  176.1410  135.7220 C   0  0  0  0  0  3  0  0  0  0  0  0
  193.9600  176.5360  136.7370 N   0  0  0  0  0  0  0  0  0  0  0  0
  192.0820  175.6500  135.6270 N   0  0  0  0  0  0  0  0  0  0  0  0
  192.6200  176.2950  136.6980 C   0  0  0  0  0  0  0  0  0  0  0  0
  187.9090  178.0460  136.8050 C   0  0  0  0  0  2  0  0  0  0  0  0
  183.8380  175.1000  136.7200 C   0  0  0  0  0  0  0  0  0  0  0  0
  183.2050  176.0290  137.3960 C   0  0  0  0  0  0  0  0  0  0  0  0
  182.9400  173.9440  136.4580 C   0  0  0  0  0  2  0  0  0  0  0  0
  185.8710  176.5060  136.7260 N   0  0  0  0  0  0  0  0  0  0  0  0
  187.2560  176.7530  136.4280 C   0  0  0  0  0  0  0  0  0  0  0  0
  181.9070  175.6650  137.6800 O   0  0  0  0  0  0  0  0  0  0  0  0
  181.6380  174.3660  137.1600 C   0  0  1  0  0  3  0  0  0  0  0  0
  187.9400  175.8850  135.8210 O   0  0  0  0  0  0  0  0  0  0  0  0
  185.2610  175.2430  136.2650 C   0  0  0  0  0  2  0  0  0  0  0  0
  183.8370  177.2880  137.7860 C   0  0  0  0  0  3  0  0  0  0  0  0
  185.1140  177.4950  137.4560 C   0  0  0  0  0  3  0  0  0  0  0  0
  180.5940  173.8050  135.1240 O   0  0  0  0  0  0  0  0  0  0  0  0
  180.5250  174.4340  136.1680 C   0  0  0  0  0  3  0  0  0  0  0  0
  186.1060  177.3970  144.6160 C   0  0  0  0  0  2  0  0  0  0  0  0
  185.2530  178.6070  144.9720 C   0  0  2  0  0  3  0  0  0  0  0  0
  186.7430  178.2730  146.9260 C   0  0  0  0  0  2  0  0  0  0  0  0
  185.6810  179.1700  146.3190 C   0  0  0  0  0  3  0  0  0  0  0  0
  185.3170  178.1960  147.4240 C   0  0  0  0  0  2  0  0  0  0  0  0
  183.7890  178.1780  145.0450 C   0  0  0  0  0  2  0  0  0  0  0  0
  181.4350  178.7280  144.3400 C   0  0  0  0  0  1  0  0  0  0  0  0
  183.2650  180.3250  143.9450 C   0  0  0  0  0  1  0  0  0  0  0  0
  183.1580  178.2530  142.6200 C   0  0  0  0  0  1  0  0  0  0  0  0
  182.9080  178.8550  143.9920 C   0  0  0  0  0  0  0  0  0  0  0  0
  2 12  1  0  0  0  0
  3  2  2  0  0  0  0
  4  7  2  0  0  0  0
  4 15  1  0  0  0  0
  5  2  1  0  0  0  0
  6 16  1  0  0  0  0
  7  5  1  0  0  0  0
  8 14  1  0  0  0  0
  9 13  2  0  0  0  0
  9 18  1  0  0  0  0
 10  9  1  0  0  0  0
 11 15  1  0  0  0  0
 11 10  2  0  0  0  0
 12  6  1  0  0  0  0
 13 17  1  0  0  0  0
 14  1  1  0  0  0  0
 14 40  1  1  0  0  0
 16 19  2  0  0  0  0
 17 16  1  0  0  0  0
 17  1  2  0  0  0  0
 18  8  2  0  0  0  0
 20 22  2  0  0  0  0
 21 20  1  0  0  0  0
 21 24  2  0  0  0  0
 22 23  1  0  0  0  0
 24 25  1  0  0  0  0
 25 23  2  0  0  0  0
 25  7  1  0  0  0  0
 26 11  1  0  0  0  0
 27 28  2  0  0  0  0
 28 32  1  0  0  0  0
 28 36  1  0  0  0  0
 29 27  1  0  0  0  0
 29 33  1  0  0  0  0
 30 37  1  0  0  0  0
 31 30  1  0  0  0  0
 31 26  1  0  0  0  0
 33 39  1  6  0  0  0
 33 32  1  0  0  0  0
 34 31  2  0  0  0  0
 35 27  1  0  0  0  0
 35 30  1  0  0  0  0
 37 36  2  0  0  0  0
 38 39  2  0  0  0  0
 41 40  1  1  0  0  0
 41 45  1  0  0  0  0
 41 43  1  0  0  0  0
 42 44  1  0  0  0  0
 43 42  1  0  0  0  0
 43 44  1  0  0  0  0
 47 49  1  0  0  0  0
 48 49  1  0  0  0  0
 49 46  1  0  0  0  0
 49 45  1  0  0  0  0
M  END
>  <MODEL>
9

>  <REMARK>
 VINA RESULT:      -5.8      2.959      8.291
  Name = 
  9 active torsions:
  status: ('A' for Active; 'I' for Inactive)
    1  A    between atoms: C_12  and  C_16
    2  A    between atoms: C_15  and  C_49
    3  A    between atoms: C_16  and  C_26
    4  A    between atoms: C_16  and  C_35
    5  A    between atoms: C_20  and  C_22
    6  A    between atoms: C_20  and  C_31
    7  A    between atoms: C_25  and  C_30
    8  A    between atoms: C_26  and  C_39
    9  A    between atoms: C_35  and  C_42
                            x       y       z     vdW  Elec       q    Type
                         _______ _______ _______ _____ _____    ______ ____

>  <TORSDO>
F 9

$$$$
