=
 OpenBabel10222419433D

 54 61  0  0  1  0  0  0  0  0999 V2000
  188.4830  177.6520  140.1990 C   0  0  1  0  0  3  0  0  0  0  0  0
  190.8680  175.9530  136.1250 O   0  0  0  0  0  0  0  0  0  0  0  0
  190.4350  176.5530  139.1410 C   0  0  0  0  0  2  0  0  0  0  0  0
  189.9110  176.4950  136.6590 C   0  0  0  0  0  0  0  0  0  0  0  0
  188.5350  176.1850  136.1160 C   0  0  0  0  0  2  0  0  0  0  0  0
  188.1290  178.0890  138.7720 C   0  0  1  0  0  3  0  0  0  0  0  0
  187.4040  177.1000  136.5750 C   0  0  2  0  0  3  0  0  0  0  0  0
  189.2670  178.4500  138.0020 O   0  0  0  0  0  0  0  0  0  0  0  0
  187.2490  177.0400  138.0910 C   0  0  0  0  0  2  0  0  0  0  0  0
  189.9700  177.3320  140.3570 C   0  0  0  0  0  2  0  0  0  0  0  0
  190.1760  177.3690  137.8630 C   0  0  1  0  0  3  0  0  0  0  0  0
  188.0840  178.1100  142.6030 N   0  0  0  0  0  0  0  0  0  0  0  0
  188.5470  177.4710  144.6950 C   0  0  0  0  0  0  0  0  0  0  0  0
  186.9390  177.8930  143.2070 C   0  0  0  0  0  0  0  0  0  0  0  0
  190.4180  178.0940  143.1430 C   0  0  0  0  0  3  0  0  0  0  0  0
  190.5300  177.1370  146.0820 N   0  0  0  0  0  0  0  0  0  0  0  0
  185.7470  178.1960  142.3820 C   0  0  2  0  0  3  0  0  0  0  0  0
  187.1570  177.4800  144.4990 C   0  0  0  0  0  0  0  0  0  0  0  0
  189.1860  177.1280  145.8940 C   0  0  0  0  0  0  0  0  0  0  0  0
  186.4030  178.7510  141.0940 C   0  0  0  0  0  2  0  0  0  0  0  0
  188.4750  176.7850  146.8760 O   0  0  0  0  0  0  0  0  0  0  0  0
  191.5670  177.4580  145.2700 C   0  0  0  0  0  3  0  0  0  0  0  0
  189.0920  177.8910  143.4750 C   0  0  0  0  0  0  0  0  0  0  0  0
  191.5210  177.8950  143.9510 C   0  0  0  0  0  3  0  0  0  0  0  0
  187.9370  178.6200  141.2560 C   0  0  2  0  0  3  0  0  0  0  0  0
  186.1760  177.1500  145.4290 O   0  0  0  0  0  1  0  0  0  0  0  0
  184.9040  179.2920  143.0180 C   0  0  0  0  0  2  0  0  0  0  0  0
  183.6230  178.7060  143.5810 C   0  0  0  0  0  1  0  0  0  0  0  0
  185.8990  177.5270  134.7390 O   0  0  0  0  0  1  0  0  0  0  0  0
  186.1120  176.7180  135.8560 C   0  0  1  0  0  3  0  0  0  0  0  0
  186.1240  175.2410  135.4460 C   0  0  0  0  0  2  0  0  0  0  0  0
  182.9560  174.3690  134.5950 C   0  0  0  0  0  1  0  0  0  0  0  0
  183.7240  175.1720  135.6300 C   0  0  2  0  0  3  0  0  0  0  0  0
  181.7700  175.7790  136.9560 N   0  0  0  0  0  0  0  0  0  0  0  0
  184.9730  174.4830  135.9530 N   0  0  0  0  0  0  0  0  0  0  0  0
  182.9610  175.2560  136.8910 C   0  0  0  0  0  0  0  0  0  0  0  0
  183.7170  174.6890  138.0230 C   0  0  0  0  0  2  0  0  0  0  0  0
  185.0680  174.3630  137.4160 C   0  0  0  0  0  2  0  0  0  0  0  0
  179.2700  175.8810  139.9750 N   0  0  0  0  0  0  0  0  0  0  0  0
  181.2520  176.7890  139.1250 N   0  0  0  0  0  0  0  0  0  0  0  0
  179.5350  175.1430  138.5100 S   0  0  0  0  0  0  0  0  0  0  0  0
  180.3200  176.7390  140.1280 C   0  0  0  0  0  0  0  0  0  0  0  0
  180.9480  175.9390  138.1220 C   0  0  0  0  0  0  0  0  0  0  0  0
  180.4170  177.6300  141.3190 C   0  0  0  0  0  2  0  0  0  0  0  0
  179.1430  178.4540  141.4840 C   0  0  0  0  0  2  0  0  0  0  0  0
  179.3670  179.8940  141.0500 C   0  0  0  0  0  2  0  0  0  0  0  0
  179.1750  180.0290  139.5350 C   0  0  0  0  0  2  0  0  0  0  0  0
  180.4300  180.2470  138.8060 N   0  0  0  0  0  0  0  0  0  0  0  0
  180.3840  183.5660  137.6260 C   0  0  0  0  0  1  0  0  0  0  0  0
  180.7150  181.4730  135.5270 O   0  0  0  0  0  0  0  0  0  0  0  0
  181.1990  182.2890  137.7070 C   0  0  1  0  0  3  0  0  0  0  0  0
  180.9370  181.6090  139.0430 C   0  0  0  0  0  2  0  0  0  0  0  0
  180.1970  180.0770  137.3720 C   0  0  0  0  0  2  0  0  0  0  0  0
  180.7000  181.3020  136.7370 C   0  0  0  0  0  0  0  0  0  0  0  0
  1 10  1  6  0  0  0
  1 25  1  0  0  0  0
  2  4  2  0  0  0  0
  3 10  1  0  0  0  0
  4 11  1  0  0  0  0
  5  7  1  0  0  0  0
  5  4  1  0  0  0  0
  6  9  1  6  0  0  0
  6  1  1  0  0  0  0
  7 30  1  6  0  0  0
  7  9  1  0  0  0  0
  8  6  1  0  0  0  0
 11  8  1  0  0  0  0
 11  3  1  1  0  0  0
 12 14  1  0  0  0  0
 12 23  1  0  0  0  0
 13 19  1  0  0  0  0
 14 18  2  0  0  0  0
 15 23  1  0  0  0  0
 15 24  2  0  0  0  0
 17 27  1  1  0  0  0
 17 14  1  0  0  0  0
 18 13  1  0  0  0  0
 18 26  1  0  0  0  0
 19 16  1  0  0  0  0
 19 21  2  0  0  0  0
 20 17  1  0  0  0  0
 22 16  2  0  0  0  0
 23 13  2  0  0  0  0
 24 22  1  0  0  0  0
 25 20  1  6  0  0  0
 25 12  1  0  0  0  0
 27 28  1  0  0  0  0
 30 29  1  6  0  0  0
 31 30  1  0  0  0  0
 31 35  1  0  0  0  0
 33 32  1  6  0  0  0
 33 35  1  0  0  0  0
 33 36  1  0  0  0  0
 34 43  1  0  0  0  0
 35 38  1  0  0  0  0
 36 34  2  0  0  0  0
 36 37  1  0  0  0  0
 38 37  1  0  0  0  0
 39 42  2  0  0  0  0
 40 42  1  0  0  0  0
 41 39  1  0  0  0  0
 42 44  1  0  0  0  0
 43 41  1  0  0  0  0
 43 40  2  0  0  0  0
 44 45  1  0  0  0  0
 46 45  1  0  0  0  0
 47 46  1  0  0  0  0
 48 52  1  0  0  0  0
 48 47  1  0  0  0  0
 50 54  2  0  0  0  0
 51 49  1  1  0  0  0
 51 52  1  0  0  0  0
 53 48  1  0  0  0  0
 54 53  1  0  0  0  0
 54 51  1  0  0  0  0
M  END
>  <MODEL>
1

>  <REMARK>
 VINA RESULT:      -8.9      0.000      0.000
  Name = 
  11 active torsions:
  status: ('A' for Active; 'I' for Inactive)
    1  A    between atoms: C_4  and  N_16
    2  A    between atoms: C_4  and  C_25
    3  A    between atoms: C_6  and  C_52
    4  A    between atoms: C_9  and  C_15
    5  A    between atoms: C_17  and  C_23
    6  A    between atoms: C_17  and  C_35
    7  A    between atoms: C_18  and  N_33
    8  A    between atoms: C_18  and  C_36
    9  A    between atoms: C_23  and  C_25
   10  A    between atoms: N_31  and  C_37
   11  A    between atoms: C_32  and  C_36
                            x       y       z     vdW  Elec       q    Type
                         _______ _______ _______ _____ _____    ______ ____

>  <TORSDO>
F 11

$$$$
=
 OpenBabel10222419433D

 54 61  0  0  1  0  0  0  0  0999 V2000
  184.1020  175.9260  135.3020 C   0  0  1  0  0  3  0  0  0  0  0  0
  188.1980  173.3950  136.7110 O   0  0  0  0  0  0  0  0  0  0  0  0
  185.4470  173.8460  135.3440 C   0  0  0  0  0  2  0  0  0  0  0  0
  187.5240  174.4150  136.6850 C   0  0  0  0  0  0  0  0  0  0  0  0
  188.2520  175.7340  136.5550 C   0  0  0  0  0  2  0  0  0  0  0  0
  185.0250  176.3830  136.4380 C   0  0  1  0  0  3  0  0  0  0  0  0
  187.4340  176.9890  136.8410 C   0  0  2  0  0  3  0  0  0  0  0  0
  185.3460  175.3410  137.3480 O   0  0  0  0  0  0  0  0  0  0  0  0
  186.2580  177.0930  135.8770 C   0  0  0  0  0  2  0  0  0  0  0  0
  184.0450  174.4030  135.1760 C   0  0  0  0  0  2  0  0  0  0  0  0
  186.0210  174.2690  136.7070 C   0  0  1  0  0  3  0  0  0  0  0  0
  182.1860  176.6330  136.7080 N   0  0  0  0  0  0  0  0  0  0  0  0
  181.4600  176.9440  138.8000 C   0  0  0  0  0  0  0  0  0  0  0  0
  181.0850  175.9310  136.8480 C   0  0  0  0  0  0  0  0  0  0  0  0
  183.5090  178.1540  138.0020 C   0  0  0  0  0  3  0  0  0  0  0  0
  182.1310  178.2240  140.7700 N   0  0  0  0  0  0  0  0  0  0  0  0
  180.6410  175.2430  135.6150 C   0  0  2  0  0  3  0  0  0  0  0  0
  180.5960  176.0690  138.1240 C   0  0  0  0  0  0  0  0  0  0  0  0
  181.3000  177.3650  140.1270 C   0  0  0  0  0  0  0  0  0  0  0  0
  181.6940  175.7370  134.5940 C   0  0  0  0  0  2  0  0  0  0  0  0
  180.3200  176.9210  140.7830 O   0  0  0  0  0  0  0  0  0  0  0  0
  183.2450  178.8880  140.3770 C   0  0  0  0  0  3  0  0  0  0  0  0
  182.4420  177.2870  137.8610 C   0  0  0  0  0  0  0  0  0  0  0  0
  183.8640  178.8650  139.1330 C   0  0  0  0  0  3  0  0  0  0  0  0
  182.7240  176.5980  135.3650 C   0  0  2  0  0  3  0  0  0  0  0  0
  179.4510  175.4620  138.6310 O   0  0  0  0  0  1  0  0  0  0  0  0
  179.2660  175.7290  135.1800 C   0  0  0  0  0  2  0  0  0  0  0  0
  179.2300  177.2450  135.1570 C   0  0  0  0  0  1  0  0  0  0  0  0
  187.5930  179.3960  136.8400 O   0  0  0  0  0  1  0  0  0  0  0  0
  188.3380  178.2180  136.7710 C   0  0  1  0  0  3  0  0  0  0  0  0
  189.3910  178.1920  137.8850 C   0  0  0  0  0  2  0  0  0  0  0  0
  187.1740  178.3520  140.4510 C   0  0  0  0  0  1  0  0  0  0  0  0
  188.6670  178.3600  140.1760 C   0  0  2  0  0  3  0  0  0  0  0  0
  189.3380  178.4160  142.5190 N   0  0  0  0  0  0  0  0  0  0  0  0
  188.9650  177.4440  139.0760 N   0  0  0  0  0  0  0  0  0  0  0  0
  189.4110  177.8540  141.3470 C   0  0  0  0  0  0  0  0  0  0  0  0
  190.2230  176.6720  141.0050 C   0  0  0  0  0  2  0  0  0  0  0  0
  190.0460  176.5440  139.5040 C   0  0  0  0  0  2  0  0  0  0  0  0
  191.6100  177.5140  145.5850 N   0  0  0  0  0  0  0  0  0  0  0  0
  189.4000  177.5810  144.8190 N   0  0  0  0  0  0  0  0  0  0  0  0
  191.6700  178.0840  144.0250 S   0  0  0  0  0  0  0  0  0  0  0  0
  190.2840  177.3050  145.8290 C   0  0  0  0  0  0  0  0  0  0  0  0
  190.0310  178.0330  143.7160 C   0  0  0  0  0  0  0  0  0  0  0  0
  189.8220  176.7410  147.1290 C   0  0  0  0  0  2  0  0  0  0  0  0
  189.3040  177.8460  148.0460 C   0  0  0  0  0  2  0  0  0  0  0  0
  187.7970  177.7410  148.2270 C   0  0  0  0  0  2  0  0  0  0  0  0
  187.0740  178.5670  147.1560 C   0  0  0  0  0  2  0  0  0  0  0  0
  186.0250  177.8190  146.4530 N   0  0  0  0  0  0  0  0  0  0  0  0
  185.3560  179.5380  143.4520 C   0  0  0  0  0  1  0  0  0  0  0  0
  183.0070  179.1510  145.2500 O   0  0  0  0  0  0  0  0  0  0  0  0
  185.0140  178.3170  144.2860 C   0  0  1  0  0  3  0  0  0  0  0  0
  186.2650  177.8300  145.0010 C   0  0  0  0  0  2  0  0  0  0  0  0
  184.7250  178.4360  146.7170 C   0  0  0  0  0  2  0  0  0  0  0  0
  184.1290  178.6910  145.4000 C   0  0  0  0  0  0  0  0  0  0  0  0
  1 10  1  1  0  0  0
  1 25  1  0  0  0  0
  1  6  1  0  0  0  0
  4 11  1  0  0  0  0
  4  2  2  0  0  0  0
  5  4  1  0  0  0  0
  5  7  1  0  0  0  0
  6  9  1  6  0  0  0
  6  8  1  0  0  0  0
  7 30  1  6  0  0  0
  9  7  1  0  0  0  0
 10  3  1  0  0  0  0
 11  3  1  6  0  0  0
 11  8  1  0  0  0  0
 12 14  1  0  0  0  0
 12 23  1  0  0  0  0
 13 19  1  0  0  0  0
 14 18  2  0  0  0  0
 15 24  2  0  0  0  0
 17 27  1  6  0  0  0
 17 14  1  0  0  0  0
 18 26  1  0  0  0  0
 18 13  1  0  0  0  0
 19 16  1  0  0  0  0
 19 21  2  0  0  0  0
 20 17  1  0  0  0  0
 22 16  2  0  0  0  0
 23 15  1  0  0  0  0
 23 13  2  0  0  0  0
 24 22  1  0  0  0  0
 25 20  1  6  0  0  0
 25 12  1  0  0  0  0
 28 27  1  0  0  0  0
 30 29  1  1  0  0  0
 30 31  1  0  0  0  0
 31 35  1  0  0  0  0
 33 32  1  1  0  0  0
 33 36  1  0  0  0  0
 34 43  1  0  0  0  0
 35 38  1  0  0  0  0
 35 33  1  0  0  0  0
 36 34  2  0  0  0  0
 37 36  1  0  0  0  0
 38 37  1  0  0  0  0
 39 42  2  0  0  0  0
 40 42  1  0  0  0  0
 41 39  1  0  0  0  0
 42 44  1  0  0  0  0
 43 41  1  0  0  0  0
 43 40  2  0  0  0  0
 44 45  1  0  0  0  0
 45 46  1  0  0  0  0
 47 46  1  0  0  0  0
 48 53  1  0  0  0  0
 48 47  1  0  0  0  0
 50 54  2  0  0  0  0
 51 49  1  6  0  0  0
 51 52  1  0  0  0  0
 51 54  1  0  0  0  0
 52 48  1  0  0  0  0
 54 53  1  0  0  0  0
M  END
>  <MODEL>
2

>  <REMARK>
 VINA RESULT:      -8.7      3.204      8.665
  Name = 
  11 active torsions:
  status: ('A' for Active; 'I' for Inactive)
    1  A    between atoms: C_4  and  N_16
    2  A    between atoms: C_4  and  C_25
    3  A    between atoms: C_6  and  C_52
    4  A    between atoms: C_9  and  C_15
    5  A    between atoms: C_17  and  C_23
    6  A    between atoms: C_17  and  C_35
    7  A    between atoms: C_18  and  N_33
    8  A    between atoms: C_18  and  C_36
    9  A    between atoms: C_23  and  C_25
   10  A    between atoms: N_31  and  C_37
   11  A    between atoms: C_32  and  C_36
                            x       y       z     vdW  Elec       q    Type
                         _______ _______ _______ _____ _____    ______ ____

>  <TORSDO>
F 11

$$$$
=
 OpenBabel10222419433D

 54 61  0  0  1  0  0  0  0  0999 V2000
  183.7970  178.4100  142.1130 C   0  0  1  0  0  3  0  0  0  0  0  0
  184.8920  179.0350  146.9690 O   0  0  0  0  0  0  0  0  0  0  0  0
  183.0850  178.6440  144.4740 C   0  0  0  0  0  2  0  0  0  0  0  0
  185.2310  178.9200  145.8000 C   0  0  0  0  0  0  0  0  0  0  0  0
  186.4860  178.1310  145.5070 C   0  0  0  0  0  2  0  0  0  0  0  0
  185.1470  178.9440  142.6100 C   0  0  1  0  0  3  0  0  0  0  0  0
  187.0580  178.2660  144.0990 C   0  0  2  0  0  3  0  0  0  0  0  0
  185.0150  179.9680  143.5870 O   0  0  0  0  0  0  0  0  0  0  0  0
  186.0460  177.7930  143.0620 C   0  0  0  0  0  2  0  0  0  0  0  0
  182.6410  178.8060  143.0320 C   0  0  0  0  0  2  0  0  0  0  0  0
  184.3280  179.5100  144.7420 C   0  0  1  0  0  3  0  0  0  0  0  0
  182.9830  177.6150  139.9100 N   0  0  0  0  0  0  0  0  0  0  0  0
  181.8520  176.0090  138.8410 C   0  0  0  0  0  0  0  0  0  0  0  0
  183.7680  177.1450  138.9690 C   0  0  0  0  0  0  0  0  0  0  0  0
  180.7420  177.2910  140.6920 C   0  0  0  0  0  3  0  0  0  0  0  0
  179.6320  174.9930  138.9440 N   0  0  0  0  0  0  0  0  0  0  0  0
  185.0700  177.8400  138.8570 C   0  0  2  0  0  3  0  0  0  0  0  0
  183.1330  176.1390  138.2820 C   0  0  0  0  0  0  0  0  0  0  0  0
  180.8750  175.1020  138.4090 C   0  0  0  0  0  0  0  0  0  0  0  0
  184.9130  178.9520  139.9230 C   0  0  0  0  0  2  0  0  0  0  0  0
  181.1550  174.3270  137.4560 O   0  0  0  0  0  0  0  0  0  0  0  0
  179.0030  175.6580  139.9430 C   0  0  0  0  0  3  0  0  0  0  0  0
  181.7960  176.9720  139.8570 C   0  0  0  0  0  0  0  0  0  0  0  0
  179.4950  176.6960  140.7270 C   0  0  0  0  0  3  0  0  0  0  0  0
  183.5550  178.7310  140.6320 C   0  0  2  0  0  3  0  0  0  0  0  0
  183.6650  175.4060  137.2250 O   0  0  0  0  0  1  0  0  0  0  0  0
  185.2320  178.4870  137.4890 C   0  0  0  0  0  2  0  0  0  0  0  0
  186.3820  177.8420  136.7380 C   0  0  0  0  0  1  0  0  0  0  0  0
  188.4990  176.5810  145.0490 O   0  0  0  0  0  1  0  0  0  0  0  0
  188.3730  177.4960  144.0030 C   0  0  1  0  0  3  0  0  0  0  0  0
  188.4940  176.7780  142.6540 C   0  0  0  0  0  2  0  0  0  0  0  0
  188.3120  178.9230  140.0300 C   0  0  0  0  0  1  0  0  0  0  0  0
  188.7280  177.5030  140.3700 C   0  0  2  0  0  3  0  0  0  0  0  0
  189.5420  176.9550  138.1370 N   0  0  0  0  0  0  0  0  0  0  0  0
  189.3530  177.4810  141.6920 N   0  0  0  0  0  0  0  0  0  0  0  0
  189.7520  177.0230  139.4210 C   0  0  0  0  0  0  0  0  0  0  0  0
  190.9970  176.6400  140.1130 C   0  0  0  0  0  2  0  0  0  0  0  0
  190.6430  176.7830  141.5800 C   0  0  0  0  0  2  0  0  0  0  0  0
  191.6670  175.7070  135.0880 N   0  0  0  0  0  0  0  0  0  0  0  0
  191.7520  176.2440  137.3630 N   0  0  0  0  0  0  0  0  0  0  0  0
  190.1300  176.1700  135.5200 S   0  0  0  0  0  0  0  0  0  0  0  0
  192.4000  175.8220  136.2330 C   0  0  0  0  0  0  0  0  0  0  0  0
  190.4460  176.4830  137.1280 C   0  0  0  0  0  0  0  0  0  0  0  0
  193.8430  175.4450  136.2620 C   0  0  0  0  0  2  0  0  0  0  0  0
  194.2770  175.0720  137.6760 C   0  0  0  0  0  2  0  0  0  0  0  0
  194.8340  173.6570  137.7180 C   0  0  0  0  0  2  0  0  0  0  0  0
  196.2960  173.6460  137.2570 C   0  0  0  0  0  2  0  0  0  0  0  0
  196.6600  172.4400  136.5030 N   0  0  0  0  0  0  0  0  0  0  0  0
  195.3810  169.6800  138.2800 C   0  0  0  0  0  1  0  0  0  0  0  0
  198.3240  169.6320  137.7990 O   0  0  0  0  0  0  0  0  0  0  0  0
  196.1260  170.1150  137.0320 C   0  0  1  0  0  3  0  0  0  0  0  0
  195.5720  171.4490  136.5550 C   0  0  0  0  0  2  0  0  0  0  0  0
  197.8630  171.8450  137.0860 C   0  0  0  0  0  2  0  0  0  0  0  0
  197.5220  170.4430  137.3600 C   0  0  0  0  0  0  0  0  0  0  0  0
  1  6  1  0  0  0  0
  1 10  1  1  0  0  0
  4  2  2  0  0  0  0
  5  4  1  0  0  0  0
  6  9  1  1  0  0  0
  6  8  1  0  0  0  0
  7 30  1  1  0  0  0
  7  5  1  0  0  0  0
  8 11  1  0  0  0  0
  9  7  1  0  0  0  0
 10  3  1  0  0  0  0
 11  3  1  6  0  0  0
 11  4  1  0  0  0  0
 12 25  1  0  0  0  0
 13 23  2  0  0  0  0
 14 12  1  0  0  0  0
 15 24  2  0  0  0  0
 16 22  2  0  0  0  0
 17 27  1  6  0  0  0
 17 14  1  0  0  0  0
 17 20  1  0  0  0  0
 18 13  1  0  0  0  0
 18 14  2  0  0  0  0
 19 13  1  0  0  0  0
 19 16  1  0  0  0  0
 21 19  2  0  0  0  0
 22 24  1  0  0  0  0
 23 12  1  0  0  0  0
 23 15  1  0  0  0  0
 25 20  1  6  0  0  0
 25  1  1  0  0  0  0
 26 18  1  0  0  0  0
 28 27  1  0  0  0  0
 30 29  1  1  0  0  0
 31 30  1  0  0  0  0
 33 32  1  6  0  0  0
 33 35  1  0  0  0  0
 34 36  2  0  0  0  0
 35 31  1  0  0  0  0
 36 37  1  0  0  0  0
 36 33  1  0  0  0  0
 37 38  1  0  0  0  0
 38 35  1  0  0  0  0
 39 41  1  0  0  0  0
 39 42  2  0  0  0  0
 41 43  1  0  0  0  0
 42 44  1  0  0  0  0
 42 40  1  0  0  0  0
 43 40  2  0  0  0  0
 43 34  1  0  0  0  0
 44 45  1  0  0  0  0
 45 46  1  0  0  0  0
 47 46  1  0  0  0  0
 48 52  1  0  0  0  0
 48 53  1  0  0  0  0
 48 47  1  0  0  0  0
 51 54  1  0  0  0  0
 51 49  1  1  0  0  0
 52 51  1  0  0  0  0
 53 54  1  0  0  0  0
 54 50  2  0  0  0  0
M  END
>  <MODEL>
3

>  <REMARK>
 VINA RESULT:      -8.5      4.587     11.604
  Name = 
  11 active torsions:
  status: ('A' for Active; 'I' for Inactive)
    1  A    between atoms: C_4  and  N_16
    2  A    between atoms: C_4  and  C_25
    3  A    between atoms: C_6  and  C_52
    4  A    between atoms: C_9  and  C_15
    5  A    between atoms: C_17  and  C_23
    6  A    between atoms: C_17  and  C_35
    7  A    between atoms: C_18  and  N_33
    8  A    between atoms: C_18  and  C_36
    9  A    between atoms: C_23  and  C_25
   10  A    between atoms: N_31  and  C_37
   11  A    between atoms: C_32  and  C_36
                            x       y       z     vdW  Elec       q    Type
                         _______ _______ _______ _____ _____    ______ ____

>  <TORSDO>
F 11

$$$$
=
 OpenBabel10222419433D

 54 61  0  0  1  0  0  0  0  0999 V2000
  184.6160  174.8050  135.1690 C   0  0  1  0  0  3  0  0  0  0  0  0
  189.1550  173.3640  136.7460 O   0  0  0  0  0  0  0  0  0  0  0  0
  186.5950  173.3270  134.9890 C   0  0  0  0  0  2  0  0  0  0  0  0
  188.1720  174.0860  136.8250 C   0  0  0  0  0  0  0  0  0  0  0  0
  188.3950  175.5420  137.1680 C   0  0  0  0  0  2  0  0  0  0  0  0
  185.1830  175.1680  136.5470 C   0  0  1  0  0  3  0  0  0  0  0  0
  187.1600  176.3390  137.5710 C   0  0  2  0  0  3  0  0  0  0  0  0
  185.7470  174.0550  137.2280 O   0  0  0  0  0  0  0  0  0  0  0  0
  186.1390  176.3560  136.4390 C   0  0  0  0  0  2  0  0  0  0  0  0
  185.1160  173.4470  134.6730 C   0  0  0  0  0  2  0  0  0  0  0  0
  186.8250  173.4840  136.5020 C   0  0  1  0  0  3  0  0  0  0  0  0
  182.5030  175.1900  136.4100 N   0  0  0  0  0  0  0  0  0  0  0  0
  181.6080  175.8030  138.3650 C   0  0  0  0  0  0  0  0  0  0  0  0
  181.6930  174.2280  136.7870 C   0  0  0  0  0  0  0  0  0  0  0  0
  183.1760  177.3580  137.1730 C   0  0  0  0  0  3  0  0  0  0  0  0
  181.7120  177.7220  139.8730 N   0  0  0  0  0  0  0  0  0  0  0  0
  181.5670  173.1200  135.8130 C   0  0  2  0  0  3  0  0  0  0  0  0
  181.1200  174.5390  137.9960 C   0  0  0  0  0  0  0  0  0  0  0  0
  181.2490  176.4940  139.5300 C   0  0  0  0  0  0  0  0  0  0  0  0
  182.4470  173.6360  134.6490 C   0  0  0  0  0  2  0  0  0  0  0  0
  180.4390  175.9470  140.3260 O   0  0  0  0  0  0  0  0  0  0  0  0
  182.5600  178.5850  139.2620 C   0  0  0  0  0  3  0  0  0  0  0  0
  182.4670  176.1820  137.3250 C   0  0  0  0  0  0  0  0  0  0  0  0
  183.2160  178.4280  138.0460 C   0  0  0  0  0  3  0  0  0  0  0  0
  183.0910  174.9690  135.1060 C   0  0  2  0  0  3  0  0  0  0  0  0
  180.2180  173.7500  138.7020 O   0  0  0  0  0  1  0  0  0  0  0  0
  180.1330  172.9800  135.3230 C   0  0  0  0  0  2  0  0  0  0  0  0
  179.7200  171.5200  135.3250 C   0  0  0  0  0  1  0  0  0  0  0  0
  186.8420  178.7140  137.2890 O   0  0  0  0  0  1  0  0  0  0  0  0
  187.5730  177.7510  137.9850 C   0  0  1  0  0  3  0  0  0  0  0  0
  187.4080  177.9520  139.4960 C   0  0  0  0  0  2  0  0  0  0  0  0
  190.5480  176.7260  139.8960 C   0  0  0  0  0  1  0  0  0  0  0  0
  189.2820  177.0130  140.6830 C   0  0  2  0  0  3  0  0  0  0  0  0
  190.1970  176.3640  142.8470 N   0  0  0  0  0  0  0  0  0  0  0  0
  188.6700  178.2460  140.1880 N   0  0  0  0  0  0  0  0  0  0  0  0
  189.6000  177.2520  142.1050 C   0  0  0  0  0  0  0  0  0  0  0  0
  189.1520  178.5860  142.5450 C   0  0  0  0  0  2  0  0  0  0  0  0
  188.4080  179.1240  141.3390 C   0  0  0  0  0  2  0  0  0  0  0  0
  191.5100  176.4760  146.5400 N   0  0  0  0  0  0  0  0  0  0  0  0
  189.7220  177.0560  145.1470 N   0  0  0  0  0  0  0  0  0  0  0  0
  191.9190  175.9650  145.0130 S   0  0  0  0  0  0  0  0  0  0  0  0
  190.2790  177.0490  146.3980 C   0  0  0  0  0  0  0  0  0  0  0  0
  190.5310  176.4710  144.2390 C   0  0  0  0  0  0  0  0  0  0  0  0
  189.5450  177.5940  147.5760 C   0  0  0  0  0  2  0  0  0  0  0  0
  188.1300  177.0270  147.6420 C   0  0  0  0  0  2  0  0  0  0  0  0
  187.0950  178.1240  147.4460 C   0  0  0  0  0  2  0  0  0  0  0  0
  186.0810  177.7140  146.3720 C   0  0  0  0  0  2  0  0  0  0  0  0
  186.0730  178.6070  145.2070 N   0  0  0  0  0  0  0  0  0  0  0  0
  182.7280  178.8920  144.1380 C   0  0  0  0  0  1  0  0  0  0  0  0
  184.6420  177.8920  142.0810 O   0  0  0  0  0  0  0  0  0  0  0  0
  184.1540  179.3520  143.8920 C   0  0  1  0  0  3  0  0  0  0  0  0
  184.8810  179.4700  145.2230 C   0  0  0  0  0  2  0  0  0  0  0  0
  186.0560  177.8090  143.9810 C   0  0  0  0  0  2  0  0  0  0  0  0
  184.9160  178.3020  143.1990 C   0  0  0  0  0  0  0  0  0  0  0  0
  1 10  1  1  0  0  0
  1  6  1  0  0  0  0
  2  4  2  0  0  0  0
  4  5  1  0  0  0  0
  5  7  1  0  0  0  0
  6  9  1  6  0  0  0
  6  8  1  0  0  0  0
  7 30  1  6  0  0  0
  9  7  1  0  0  0  0
 10  3  1  0  0  0  0
 11  3  1  6  0  0  0
 11  4  1  0  0  0  0
 11  8  1  0  0  0  0
 12 14  1  0  0  0  0
 12 23  1  0  0  0  0
 13 19  1  0  0  0  0
 14 18  2  0  0  0  0
 15 23  1  0  0  0  0
 15 24  2  0  0  0  0
 17 27  1  6  0  0  0
 17 14  1  0  0  0  0
 18 13  1  0  0  0  0
 18 26  1  0  0  0  0
 19 16  1  0  0  0  0
 19 21  2  0  0  0  0
 20 17  1  0  0  0  0
 22 16  2  0  0  0  0
 23 13  2  0  0  0  0
 24 22  1  0  0  0  0
 25 20  1  1  0  0  0
 25  1  1  0  0  0  0
 25 12  1  0  0  0  0
 27 28  1  0  0  0  0
 30 29  1  6  0  0  0
 30 31  1  0  0  0  0
 31 35  1  0  0  0  0
 33 32  1  6  0  0  0
 33 36  1  0  0  0  0
 34 43  1  0  0  0  0
 35 33  1  0  0  0  0
 35 38  1  0  0  0  0
 36 37  1  0  0  0  0
 36 34  2  0  0  0  0
 38 37  1  0  0  0  0
 40 42  1  0  0  0  0
 41 39  1  0  0  0  0
 42 39  2  0  0  0  0
 42 44  1  0  0  0  0
 43 41  1  0  0  0  0
 43 40  2  0  0  0  0
 44 45  1  0  0  0  0
 46 45  1  0  0  0  0
 47 46  1  0  0  0  0
 48 52  1  0  0  0  0
 48 47  1  0  0  0  0
 50 54  2  0  0  0  0
 51 49  1  1  0  0  0
 51 52  1  0  0  0  0
 53 48  1  0  0  0  0
 54 51  1  0  0  0  0
 54 53  1  0  0  0  0
M  END
>  <MODEL>
4

>  <REMARK>
 VINA RESULT:      -8.3      3.191      8.774
  Name = 
  11 active torsions:
  status: ('A' for Active; 'I' for Inactive)
    1  A    between atoms: C_4  and  N_16
    2  A    between atoms: C_4  and  C_25
    3  A    between atoms: C_6  and  C_52
    4  A    between atoms: C_9  and  C_15
    5  A    between atoms: C_17  and  C_23
    6  A    between atoms: C_17  and  C_35
    7  A    between atoms: C_18  and  N_33
    8  A    between atoms: C_18  and  C_36
    9  A    between atoms: C_23  and  C_25
   10  A    between atoms: N_31  and  C_37
   11  A    between atoms: C_32  and  C_36
                            x       y       z     vdW  Elec       q    Type
                         _______ _______ _______ _____ _____    ______ ____

>  <TORSDO>
F 11

$$$$
=
 OpenBabel10222419433D

 54 61  0  0  1  0  0  0  0  0999 V2000
  184.2070  173.2750  135.3090 C   0  0  1  0  0  3  0  0  0  0  0  0
  188.9710  172.9340  136.8440 O   0  0  0  0  0  0  0  0  0  0  0  0
  186.4000  172.1230  135.3040 C   0  0  0  0  0  2  0  0  0  0  0  0
  187.8840  173.4930  136.8400 C   0  0  0  0  0  0  0  0  0  0  0  0
  187.8710  175.0040  136.8630 C   0  0  0  0  0  2  0  0  0  0  0  0
  184.7480  174.0070  136.5440 C   0  0  1  0  0  3  0  0  0  0  0  0
  186.5320  175.6650  137.1760 C   0  0  2  0  0  3  0  0  0  0  0  0
  185.5120  173.1670  137.3980 O   0  0  0  0  0  0  0  0  0  0  0  0
  185.4880  175.2800  136.1330 C   0  0  0  0  0  2  0  0  0  0  0  0
  184.9120  171.9400  135.0680 C   0  0  0  0  0  2  0  0  0  0  0  0
  186.6470  172.6310  136.7350 C   0  0  1  0  0  3  0  0  0  0  0  0
  182.0650  174.1190  136.2310 N   0  0  0  0  0  0  0  0  0  0  0  0
  181.0920  175.7380  137.4270 C   0  0  0  0  0  0  0  0  0  0  0  0
  181.4160  173.5410  137.2150 C   0  0  0  0  0  0  0  0  0  0  0  0
  182.3950  176.3280  135.3640 C   0  0  0  0  0  3  0  0  0  0  0  0
  180.9010  178.1730  137.3470 N   0  0  0  0  0  0  0  0  0  0  0  0
  181.4610  172.0620  137.1890 C   0  0  2  0  0  3  0  0  0  0  0  0
  180.8060  174.4890  138.0000 C   0  0  0  0  0  0  0  0  0  0  0  0
  180.6340  176.9700  137.9160 C   0  0  0  0  0  0  0  0  0  0  0  0
  182.2450  171.8040  135.8790 C   0  0  0  0  0  2  0  0  0  0  0  0
  179.9230  176.9750  138.9550 O   0  0  0  0  0  0  0  0  0  0  0  0
  181.6020  178.5300  136.2440 C   0  0  0  0  0  3  0  0  0  0  0  0
  181.8780  175.4550  136.3020 C   0  0  0  0  0  0  0  0  0  0  0  0
  182.2700  177.7040  135.3470 C   0  0  0  0  0  3  0  0  0  0  0  0
  182.6760  173.1800  135.3140 C   0  0  2  0  0  3  0  0  0  0  0  0
  180.0410  174.2420  139.1350 O   0  0  0  0  0  1  0  0  0  0  0  0
  180.0650  171.4720  137.0510 C   0  0  0  0  0  2  0  0  0  0  0  0
  180.0590  170.3830  135.9950 C   0  0  0  0  0  1  0  0  0  0  0  0
  187.0160  177.7250  136.0170 O   0  0  0  0  0  1  0  0  0  0  0  0
  186.7150  177.1780  137.2650 C   0  0  1  0  0  3  0  0  0  0  0  0
  185.4670  177.8510  137.8490 C   0  0  0  0  0  2  0  0  0  0  0  0
  187.8840  178.6260  140.1030 C   0  0  0  0  0  1  0  0  0  0  0  0
  186.4450  178.1490  140.0300 C   0  0  2  0  0  3  0  0  0  0  0  0
  186.0740  178.1460  142.4400 N   0  0  0  0  0  0  0  0  0  0  0  0
  185.7670  178.8140  138.9180 N   0  0  0  0  0  0  0  0  0  0  0  0
  185.7090  178.5340  141.2510 C   0  0  0  0  0  0  0  0  0  0  0  0
  184.5440  179.3810  140.9390 C   0  0  0  0  0  2  0  0  0  0  0  0
  184.5140  179.3950  139.4230 C   0  0  0  0  0  2  0  0  0  0  0  0
  183.9310  179.0030  145.6090 N   0  0  0  0  0  0  0  0  0  0  0  0
  186.0380  178.2910  144.8830 N   0  0  0  0  0  0  0  0  0  0  0  0
  183.8600  178.9410  143.9510 S   0  0  0  0  0  0  0  0  0  0  0  0
  185.2000  178.6080  145.9190 C   0  0  0  0  0  0  0  0  0  0  0  0
  185.4270  178.4330  143.6880 C   0  0  0  0  0  0  0  0  0  0  0  0
  185.6710  178.5770  147.3330 C   0  0  0  0  0  2  0  0  0  0  0  0
  187.1840  178.7640  147.4050 C   0  0  0  0  0  2  0  0  0  0  0  0
  187.8960  177.4210  147.4520 C   0  0  0  0  0  2  0  0  0  0  0  0
  189.4070  177.6130  147.2690 C   0  0  0  0  0  2  0  0  0  0  0  0
  189.9810  176.7550  146.2260 N   0  0  0  0  0  0  0  0  0  0  0  0
  191.6800  178.8590  143.9690 C   0  0  0  0  0  1  0  0  0  0  0  0
  189.5460  177.1580  142.7650 O   0  0  0  0  0  0  0  0  0  0  0  0
  191.3370  177.4200  144.3060 C   0  0  1  0  0  3  0  0  0  0  0  0
  191.3060  177.2520  145.8180 C   0  0  0  0  0  2  0  0  0  0  0  0
  189.1010  176.7520  145.0580 C   0  0  0  0  0  2  0  0  0  0  0  0
  189.9500  177.1210  143.9180 C   0  0  0  0  0  0  0  0  0  0  0  0
  1 10  1  1  0  0  0
  1 25  1  0  0  0  0
  1  6  1  0  0  0  0
  4  2  2  0  0  0  0
  4  5  1  0  0  0  0
  5  7  1  0  0  0  0
  6  9  1  6  0  0  0
  6  8  1  0  0  0  0
  7 30  1  6  0  0  0
  9  7  1  0  0  0  0
 10  3  1  0  0  0  0
 11  3  1  6  0  0  0
 11  4  1  0  0  0  0
 11  8  1  0  0  0  0
 12 23  1  0  0  0  0
 12 14  1  0  0  0  0
 13 19  1  0  0  0  0
 13 18  1  0  0  0  0
 14 18  2  0  0  0  0
 15 23  1  0  0  0  0
 16 19  1  0  0  0  0
 17 27  1  6  0  0  0
 17 14  1  0  0  0  0
 18 26  1  0  0  0  0
 19 21  2  0  0  0  0
 20 17  1  0  0  0  0
 22 16  2  0  0  0  0
 23 13  2  0  0  0  0
 24 15  2  0  0  0  0
 24 22  1  0  0  0  0
 25 20  1  1  0  0  0
 25 12  1  0  0  0  0
 28 27  1  0  0  0  0
 30 29  1  6  0  0  0
 30 31  1  0  0  0  0
 31 35  1  0  0  0  0
 33 32  1  1  0  0  0
 33 36  1  0  0  0  0
 34 43  1  0  0  0  0
 35 38  1  0  0  0  0
 35 33  1  0  0  0  0
 36 34  2  0  0  0  0
 37 36  1  0  0  0  0
 38 37  1  0  0  0  0
 39 42  2  0  0  0  0
 40 42  1  0  0  0  0
 41 39  1  0  0  0  0
 42 44  1  0  0  0  0
 43 41  1  0  0  0  0
 43 40  2  0  0  0  0
 44 45  1  0  0  0  0
 45 46  1  0  0  0  0
 47 46  1  0  0  0  0
 48 47  1  0  0  0  0
 50 54  2  0  0  0  0
 51 49  1  1  0  0  0
 51 52  1  0  0  0  0
 52 48  1  0  0  0  0
 53 48  1  0  0  0  0
 54 51  1  0  0  0  0
 54 53  1  0  0  0  0
M  END
>  <MODEL>
5

>  <REMARK>
 VINA RESULT:      -8.1      3.018      9.203
  Name = 
  11 active torsions:
  status: ('A' for Active; 'I' for Inactive)
    1  A    between atoms: C_4  and  N_16
    2  A    between atoms: C_4  and  C_25
    3  A    between atoms: C_6  and  C_52
    4  A    between atoms: C_9  and  C_15
    5  A    between atoms: C_17  and  C_23
    6  A    between atoms: C_17  and  C_35
    7  A    between atoms: C_18  and  N_33
    8  A    between atoms: C_18  and  C_36
    9  A    between atoms: C_23  and  C_25
   10  A    between atoms: N_31  and  C_37
   11  A    between atoms: C_32  and  C_36
                            x       y       z     vdW  Elec       q    Type
                         _______ _______ _______ _____ _____    ______ ____

>  <TORSDO>
F 11

$$$$
=
 OpenBabel10222419433D

 54 61  0  0  1  0  0  0  0  0999 V2000
  189.8080  177.4690  140.6430 C   0  0  1  0  0  3  0  0  0  0  0  0
  192.7630  175.6180  137.0370 O   0  0  0  0  0  0  0  0  0  0  0  0
  192.0140  176.6540  139.8660 C   0  0  0  0  0  2  0  0  0  0  0  0
  191.6800  176.0240  137.4310 C   0  0  0  0  0  0  0  0  0  0  0  0
  190.4400  175.3230  136.9260 C   0  0  0  0  0  2  0  0  0  0  0  0
  189.4640  177.5460  139.1500 C   0  0  1  0  0  3  0  0  0  0  0  0
  189.1130  176.0330  137.1710 C   0  0  2  0  0  3  0  0  0  0  0  0
  190.5480  178.0020  138.3520 O   0  0  0  0  0  0  0  0  0  0  0  0
  188.8750  176.2210  138.6650 C   0  0  0  0  0  2  0  0  0  0  0  0
  191.3150  177.5220  140.8970 C   0  0  0  0  0  2  0  0  0  0  0  0
  191.6730  177.1420  138.4480 C   0  0  1  0  0  3  0  0  0  0  0  0
  188.7560  177.9990  142.8250 N   0  0  0  0  0  0  0  0  0  0  0  0
  188.6030  177.4190  144.9790 C   0  0  0  0  0  0  0  0  0  0  0  0
  187.4840  177.8060  143.0880 C   0  0  0  0  0  0  0  0  0  0  0  0
  190.8430  177.9860  144.0000 C   0  0  0  0  0  3  0  0  0  0  0  0
  190.1120  177.1140  146.8760 N   0  0  0  0  0  0  0  0  0  0  0  0
  186.5770  178.0920  141.9540 C   0  0  2  0  0  3  0  0  0  0  0  0
  187.3240  177.4300  144.3990 C   0  0  0  0  0  0  0  0  0  0  0  0
  188.8750  177.1070  146.3180 C   0  0  0  0  0  0  0  0  0  0  0  0
  187.5750  178.6060  140.8880 C   0  0  0  0  0  2  0  0  0  0  0  0
  187.9120  176.7960  147.0690 O   0  0  0  0  0  0  0  0  0  0  0  0
  191.3390  177.4060  146.3810 C   0  0  0  0  0  3  0  0  0  0  0  0
  189.4750  177.8000  143.9500 C   0  0  0  0  0  0  0  0  0  0  0  0
  191.6720  177.8040  145.0910 C   0  0  0  0  0  3  0  0  0  0  0  0
  189.0000  178.4710  141.4790 C   0  0  2  0  0  3  0  0  0  0  0  0
  186.1180  177.1330  145.0240 O   0  0  0  0  0  1  0  0  0  0  0  0
  185.6040  179.2110  142.2970 C   0  0  0  0  0  2  0  0  0  0  0  0
  184.2520  178.6320  142.6700 C   0  0  0  0  0  1  0  0  0  0  0  0
  188.3090  173.8990  136.3850 O   0  0  0  0  0  1  0  0  0  0  0  0
  187.9810  175.2490  136.5100 C   0  0  1  0  0  3  0  0  0  0  0  0
  186.6720  175.4050  137.2920 C   0  0  0  0  0  2  0  0  0  0  0  0
  186.5480  178.7920  137.1030 C   0  0  0  0  0  1  0  0  0  0  0  0
  185.8210  177.6150  137.7280 C   0  0  2  0  0  3  0  0  0  0  0  0
  184.0420  178.9450  138.7340 N   0  0  0  0  0  0  0  0  0  0  0  0
  185.8180  176.4910  136.7930 N   0  0  0  0  0  0  0  0  0  0  0  0
  184.4040  177.9530  137.9720 C   0  0  0  0  0  0  0  0  0  0  0  0
  183.4960  177.0340  137.2610 C   0  0  0  0  0  2  0  0  0  0  0  0
  184.4350  176.0070  136.6580 C   0  0  0  0  0  2  0  0  0  0  0  0
  180.3650  180.2170  139.2180 N   0  0  0  0  0  0  0  0  0  0  0  0
  182.1110  179.0390  140.2360 N   0  0  0  0  0  0  0  0  0  0  0  0
  181.6230  180.2110  138.1330 S   0  0  0  0  0  0  0  0  0  0  0  0
  180.8310  179.5230  140.2960 C   0  0  0  0  0  0  0  0  0  0  0  0
  182.7050  179.3490  139.0650 C   0  0  0  0  0  0  0  0  0  0  0  0
  179.9940  179.3500  141.5180 C   0  0  0  0  0  2  0  0  0  0  0  0
  178.9390  178.2690  141.3030 C   0  0  0  0  0  2  0  0  0  0  0  0
  179.5850  176.8980  141.1640 C   0  0  0  0  0  2  0  0  0  0  0  0
  179.0710  176.1920  139.9030 C   0  0  0  0  0  2  0  0  0  0  0  0
  180.0220  176.2320  138.7860 N   0  0  0  0  0  0  0  0  0  0  0  0
  178.9480  173.8460  136.4260 C   0  0  0  0  0  1  0  0  0  0  0  0
  181.7270  173.4710  137.4430 O   0  0  0  0  0  0  0  0  0  0  0  0
  179.9810  174.9170  136.7280 C   0  0  1  0  0  3  0  0  0  0  0  0
  179.3220  176.0470  137.5040 C   0  0  0  0  0  2  0  0  0  0  0  0
  181.0030  175.1580  138.9420 C   0  0  0  0  0  2  0  0  0  0  0  0
  180.9800  174.4090  137.6800 C   0  0  0  0  0  0  0  0  0  0  0  0
  1 10  1  6  0  0  0
  1 25  1  0  0  0  0
  2  4  2  0  0  0  0
  3 10  1  0  0  0  0
  4 11  1  0  0  0  0
  5  7  1  0  0  0  0
  5  4  1  0  0  0  0
  6  9  1  6  0  0  0
  6  1  1  0  0  0  0
  7 30  1  1  0  0  0
  7  9  1  0  0  0  0
  8 11  1  0  0  0  0
  8  6  1  0  0  0  0
 11  3  1  1  0  0  0
 12 14  1  0  0  0  0
 12 23  1  0  0  0  0
 13 19  1  0  0  0  0
 14 18  2  0  0  0  0
 15 24  2  0  0  0  0
 17 27  1  1  0  0  0
 17 14  1  0  0  0  0
 18 13  1  0  0  0  0
 18 26  1  0  0  0  0
 19 16  1  0  0  0  0
 19 21  2  0  0  0  0
 20 17  1  0  0  0  0
 22 16  2  0  0  0  0
 23 15  1  0  0  0  0
 23 13  2  0  0  0  0
 24 22  1  0  0  0  0
 25 20  1  6  0  0  0
 25 12  1  0  0  0  0
 27 28  1  0  0  0  0
 30 29  1  1  0  0  0
 30 31  1  0  0  0  0
 33 32  1  6  0  0  0
 33 36  1  0  0  0  0
 34 43  1  0  0  0  0
 35 31  1  0  0  0  0
 35 33  1  0  0  0  0
 36 34  2  0  0  0  0
 37 36  1  0  0  0  0
 38 35  1  0  0  0  0
 38 37  1  0  0  0  0
 39 42  2  0  0  0  0
 40 42  1  0  0  0  0
 41 43  1  0  0  0  0
 41 39  1  0  0  0  0
 42 44  1  0  0  0  0
 43 40  2  0  0  0  0
 45 44  1  0  0  0  0
 46 45  1  0  0  0  0
 47 46  1  0  0  0  0
 48 53  1  0  0  0  0
 48 47  1  0  0  0  0
 50 54  2  0  0  0  0
 51 49  1  1  0  0  0
 51 52  1  0  0  0  0
 51 54  1  0  0  0  0
 52 48  1  0  0  0  0
 54 53  1  0  0  0  0
M  END
>  <MODEL>
6

>  <REMARK>
 VINA RESULT:      -8.1      2.248      3.435
  Name = 
  11 active torsions:
  status: ('A' for Active; 'I' for Inactive)
    1  A    between atoms: C_4  and  N_16
    2  A    between atoms: C_4  and  C_25
    3  A    between atoms: C_6  and  C_52
    4  A    between atoms: C_9  and  C_15
    5  A    between atoms: C_17  and  C_23
    6  A    between atoms: C_17  and  C_35
    7  A    between atoms: C_18  and  N_33
    8  A    between atoms: C_18  and  C_36
    9  A    between atoms: C_23  and  C_25
   10  A    between atoms: N_31  and  C_37
   11  A    between atoms: C_32  and  C_36
                            x       y       z     vdW  Elec       q    Type
                         _______ _______ _______ _____ _____    ______ ____

>  <TORSDO>
F 11

$$$$
=
 OpenBabel10222419433D

 54 61  0  0  1  0  0  0  0  0999 V2000
  189.4440  177.3000  139.8980 C   0  0  1  0  0  3  0  0  0  0  0  0
  191.8060  175.0670  136.0760 O   0  0  0  0  0  0  0  0  0  0  0  0
  191.5080  176.3990  138.8660 C   0  0  0  0  0  2  0  0  0  0  0  0
  190.7950  175.5170  136.5960 C   0  0  0  0  0  0  0  0  0  0  0  0
  189.4990  174.7710  136.3730 C   0  0  0  0  0  2  0  0  0  0  0  0
  188.8640  177.2210  138.4800 C   0  0  1  0  0  3  0  0  0  0  0  0
  188.2200  175.5090  136.7540 C   0  0  2  0  0  3  0  0  0  0  0  0
  189.7990  177.5860  137.4750 O   0  0  0  0  0  0  0  0  0  0  0  0
  188.2220  175.8540  138.2380 C   0  0  0  0  0  2  0  0  0  0  0  0
  190.9720  177.3730  139.8980 C   0  0  0  0  0  2  0  0  0  0  0  0
  190.9360  176.7360  137.4780 C   0  0  1  0  0  3  0  0  0  0  0  0
  188.6070  177.9940  142.1270 N   0  0  0  0  0  0  0  0  0  0  0  0
  188.5960  177.5220  144.3120 C   0  0  0  0  0  0  0  0  0  0  0  0
  187.3520  177.8930  142.4980 C   0  0  0  0  0  0  0  0  0  0  0  0
  190.7790  177.9010  143.1330 C   0  0  0  0  0  3  0  0  0  0  0  0
  190.2340  177.2080  146.0970 N   0  0  0  0  0  0  0  0  0  0  0  0
  186.3730  178.1850  141.4260 C   0  0  2  0  0  3  0  0  0  0  0  0
  187.2770  177.5870  143.8350 C   0  0  0  0  0  0  0  0  0  0  0  0
  188.9570  177.2540  145.6400 C   0  0  0  0  0  0  0  0  0  0  0  0
  187.3100  178.5860  140.2600 C   0  0  0  0  0  2  0  0  0  0  0  0
  188.0420  177.0390  146.4780 O   0  0  0  0  0  0  0  0  0  0  0  0
  191.4320  177.3990  145.4940 C   0  0  0  0  0  3  0  0  0  0  0  0
  189.4020  177.8000  143.2010 C   0  0  0  0  0  0  0  0  0  0  0  0
  191.6810  177.7170  144.1630 C   0  0  0  0  0  3  0  0  0  0  0  0
  188.7680  178.3880  140.7430 C   0  0  2  0  0  3  0  0  0  0  0  0
  186.1100  177.3960  144.5670 O   0  0  0  0  0  1  0  0  0  0  0  0
  185.5000  179.3770  141.7880 C   0  0  0  0  0  2  0  0  0  0  0  0
  184.1340  178.9040  142.2480 C   0  0  0  0  0  1  0  0  0  0  0  0
  186.5040  173.9720  137.4710 O   0  0  0  0  0  1  0  0  0  0  0  0
  187.0070  174.6640  136.3690 C   0  0  1  0  0  3  0  0  0  0  0  0
  185.9080  175.5300  135.7430 C   0  0  0  0  0  2  0  0  0  0  0  0
  182.7610  174.5210  136.5210 C   0  0  0  0  0  1  0  0  0  0  0  0
  183.5190  175.7210  135.9800 C   0  0  2  0  0  3  0  0  0  0  0  0
  181.5740  177.1850  135.8420 N   0  0  0  0  0  0  0  0  0  0  0  0
  184.8050  175.8340  136.6650 N   0  0  0  0  0  0  0  0  0  0  0  0
  182.7850  176.9690  136.2690 C   0  0  0  0  0  0  0  0  0  0  0  0
  183.5960  177.9010  137.0740 C   0  0  0  0  0  2  0  0  0  0  0  0
  184.9440  177.2120  137.1600 C   0  0  0  0  0  2  0  0  0  0  0  0
  179.0450  180.1580  136.2160 N   0  0  0  0  0  0  0  0  0  0  0  0
  181.2550  179.4910  136.6000 N   0  0  0  0  0  0  0  0  0  0  0  0
  179.1660  178.5940  135.6690 S   0  0  0  0  0  0  0  0  0  0  0  0
  180.2900  180.4590  136.6890 C   0  0  0  0  0  0  0  0  0  0  0  0
  180.7760  178.3620  136.0360 C   0  0  0  0  0  0  0  0  0  0  0  0
  180.5990  181.8130  137.2310 C   0  0  0  0  0  2  0  0  0  0  0  0
  180.6170  181.7950  138.7570 C   0  0  0  0  0  2  0  0  0  0  0  0
  179.3610  181.1360  139.3080 C   0  0  0  0  0  2  0  0  0  0  0  0
  179.3290  181.2470  140.8370 C   0  0  0  0  0  2  0  0  0  0  0  0
  180.3360  180.4120  141.5020 N   0  0  0  0  0  0  0  0  0  0  0  0
  179.4030  177.0540  140.9910 C   0  0  0  0  0  1  0  0  0  0  0  0
  179.6800  177.8780  143.8440 O   0  0  0  0  0  0  0  0  0  0  0  0
  180.4470  177.9730  141.5960 C   0  0  1  0  0  3  0  0  0  0  0  0
  180.6100  179.2000  140.7110 C   0  0  0  0  0  2  0  0  0  0  0  0
  179.8430  180.0090  142.8200 C   0  0  0  0  0  2  0  0  0  0  0  0
  179.9540  178.5460  142.8580 C   0  0  0  0  0  0  0  0  0  0  0  0
  1 10  1  6  0  0  0
  1 25  1  0  0  0  0
  2  4  2  0  0  0  0
  3 10  1  0  0  0  0
  4 11  1  0  0  0  0
  5  4  1  0  0  0  0
  5  7  1  0  0  0  0
  6  9  1  6  0  0  0
  6  1  1  0  0  0  0
  7 30  1  1  0  0  0
  7  9  1  0  0  0  0
  8 11  1  0  0  0  0
  8  6  1  0  0  0  0
 11  3  1  1  0  0  0
 12 14  1  0  0  0  0
 12 23  1  0  0  0  0
 13 19  1  0  0  0  0
 14 18  2  0  0  0  0
 15 23  1  0  0  0  0
 15 24  2  0  0  0  0
 17 27  1  1  0  0  0
 17 14  1  0  0  0  0
 18 13  1  0  0  0  0
 18 26  1  0  0  0  0
 19 16  1  0  0  0  0
 19 21  2  0  0  0  0
 20 17  1  0  0  0  0
 22 16  2  0  0  0  0
 23 13  2  0  0  0  0
 24 22  1  0  0  0  0
 25 20  1  6  0  0  0
 25 12  1  0  0  0  0
 27 28  1  0  0  0  0
 30 29  1  1  0  0  0
 31 30  1  0  0  0  0
 31 35  1  0  0  0  0
 33 36  1  0  0  0  0
 33 32  1  1  0  0  0
 33 35  1  0  0  0  0
 34 43  1  0  0  0  0
 34 36  2  0  0  0  0
 35 38  1  0  0  0  0
 36 37  1  0  0  0  0
 37 38  1  0  0  0  0
 39 42  2  0  0  0  0
 40 42  1  0  0  0  0
 41 43  1  0  0  0  0
 41 39  1  0  0  0  0
 42 44  1  0  0  0  0
 43 40  2  0  0  0  0
 44 45  1  0  0  0  0
 45 46  1  0  0  0  0
 46 47  1  0  0  0  0
 47 48  1  0  0  0  0
 48 53  1  0  0  0  0
 51 49  1  6  0  0  0
 51 54  1  0  0  0  0
 52 48  1  0  0  0  0
 52 51  1  0  0  0  0
 53 54  1  0  0  0  0
 54 50  2  0  0  0  0
M  END
>  <MODEL>
7

>  <REMARK>
 VINA RESULT:      -8.0      2.072      3.098
  Name = 
  11 active torsions:
  status: ('A' for Active; 'I' for Inactive)
    1  A    between atoms: C_4  and  N_16
    2  A    between atoms: C_4  and  C_25
    3  A    between atoms: C_6  and  C_52
    4  A    between atoms: C_9  and  C_15
    5  A    between atoms: C_17  and  C_23
    6  A    between atoms: C_17  and  C_35
    7  A    between atoms: C_18  and  N_33
    8  A    between atoms: C_18  and  C_36
    9  A    between atoms: C_23  and  C_25
   10  A    between atoms: N_31  and  C_37
   11  A    between atoms: C_32  and  C_36
                            x       y       z     vdW  Elec       q    Type
                         _______ _______ _______ _____ _____    ______ ____

>  <TORSDO>
F 11

$$$$
=
 OpenBabel10222419433D

 54 61  0  0  1  0  0  0  0  0999 V2000
  180.9560  176.4460  137.1650 C   0  0  1  0  0  3  0  0  0  0  0  0
  181.0540  171.4840  136.4390 O   0  0  0  0  0  0  0  0  0  0  0  0
  179.9330  174.3750  136.2720 C   0  0  0  0  0  2  0  0  0  0  0  0
  181.5470  172.5130  136.8770 C   0  0  0  0  0  0  0  0  0  0  0  0
  183.0480  172.6640  136.7880 C   0  0  0  0  0  2  0  0  0  0  0  0
  181.8500  175.4950  137.9700 C   0  0  1  0  0  3  0  0  0  0  0  0
  183.6650  173.7900  137.6130 C   0  0  2  0  0  3  0  0  0  0  0  0
  181.1550  174.3550  138.4560 O   0  0  0  0  0  0  0  0  0  0  0  0
  183.1080  175.1400  137.1770 C   0  0  0  0  0  2  0  0  0  0  0  0
  179.6420  175.7890  136.7380 C   0  0  0  0  0  2  0  0  0  0  0  0
  180.6120  173.5780  137.4000 C   0  0  1  0  0  3  0  0  0  0  0  0
  181.6910  177.9840  138.9660 N   0  0  0  0  0  0  0  0  0  0  0  0
  183.2680  178.3980  140.4970 C   0  0  0  0  0  0  0  0  0  0  0  0
  181.0890  178.0870  140.1280 C   0  0  0  0  0  0  0  0  0  0  0  0
  183.9050  178.2000  138.0770 C   0  0  0  0  0  3  0  0  0  0  0  0
  185.6870  178.7350  140.5480 N   0  0  0  0  0  0  0  0  0  0  0  0
  179.6140  177.9790  140.0630 C   0  0  2  0  0  3  0  0  0  0  0  0
  182.0110  178.3270  141.1180 C   0  0  0  0  0  0  0  0  0  0  0  0
  184.4770  178.6520  141.1580 C   0  0  0  0  0  0  0  0  0  0  0  0
  179.3860  177.8570  138.5370 C   0  0  0  0  0  2  0  0  0  0  0  0
  184.4550  178.8170  142.4060 O   0  0  0  0  0  0  0  0  0  0  0  0
  186.0700  178.6280  139.2520 C   0  0  0  0  0  3  0  0  0  0  0  0
  183.0150  178.1900  139.1340 C   0  0  0  0  0  0  0  0  0  0  0  0
  185.2720  178.3930  138.1380 C   0  0  0  0  0  3  0  0  0  0  0  0
  180.7770  177.8030  137.8590 C   0  0  2  0  0  3  0  0  0  0  0  0
  181.7360  178.4830  142.4730 O   0  0  0  0  0  1  0  0  0  0  0  0
  178.9480  179.2530  140.5620 C   0  0  0  0  0  2  0  0  0  0  0  0
  179.8070  180.4580  140.2280 C   0  0  0  0  0  1  0  0  0  0  0  0
  185.7160  172.6970  138.2610 O   0  0  0  0  0  1  0  0  0  0  0  0
  185.1870  173.7370  137.4960 C   0  0  1  0  0  3  0  0  0  0  0  0
  185.6220  173.5920  136.0330 C   0  0  0  0  0  2  0  0  0  0  0  0
  188.8670  173.2110  135.1100 C   0  0  0  0  0  1  0  0  0  0  0  0
  188.0160  173.7530  136.2450 C   0  0  2  0  0  3  0  0  0  0  0  0
  189.8870  174.6060  137.5560 N   0  0  0  0  0  0  0  0  0  0  0  0
  186.8150  174.3820  135.6960 N   0  0  0  0  0  0  0  0  0  0  0  0
  188.7410  174.8130  136.9740 C   0  0  0  0  0  0  0  0  0  0  0  0
  188.0010  176.0890  136.9530 C   0  0  0  0  0  2  0  0  0  0  0  0
  186.6940  175.7280  136.2750 C   0  0  0  0  0  2  0  0  0  0  0  0
  192.2930  177.1900  139.2620 N   0  0  0  0  0  0  0  0  0  0  0  0
  190.2890  176.0100  139.5210 N   0  0  0  0  0  0  0  0  0  0  0  0
  192.1090  176.2680  137.8920 S   0  0  0  0  0  0  0  0  0  0  0  0
  191.1930  176.9080  140.0200 C   0  0  0  0  0  0  0  0  0  0  0  0
  190.6660  175.5450  138.3110 C   0  0  0  0  0  0  0  0  0  0  0  0
  191.0160  177.5170  141.3700 C   0  0  0  0  0  2  0  0  0  0  0  0
  191.8090  176.7460  142.4210 C   0  0  0  0  0  2  0  0  0  0  0  0
  190.9000  176.2620  143.5420 C   0  0  0  0  0  2  0  0  0  0  0  0
  189.4330  176.5430  143.1960 C   0  0  0  0  0  2  0  0  0  0  0  0
  188.8650  177.6740  143.9390 N   0  0  0  0  0  0  0  0  0  0  0  0
  188.8520  176.7760  147.3460 C   0  0  0  0  0  1  0  0  0  0  0  0
  186.1920  177.5050  146.2100 O   0  0  0  0  0  0  0  0  0  0  0  0
  188.5360  177.8780  146.3510 C   0  0  1  0  0  3  0  0  0  0  0  0
  189.5590  177.8490  145.2260 C   0  0  0  0  0  2  0  0  0  0  0  0
  187.4480  177.4230  144.2020 C   0  0  0  0  0  2  0  0  0  0  0  0
  187.2750  177.5870  145.6500 C   0  0  0  0  0  0  0  0  0  0  0  0
  1 10  1  1  0  0  0
  1 25  1  0  0  0  0
  1  6  1  0  0  0  0
  2  4  2  0  0  0  0
  3 10  1  0  0  0  0
  4 11  1  0  0  0  0
  5  4  1  0  0  0  0
  5  7  1  0  0  0  0
  6  9  1  6  0  0  0
  6  8  1  0  0  0  0
  7 30  1  6  0  0  0
  9  7  1  0  0  0  0
 11  3  1  6  0  0  0
 11  8  1  0  0  0  0
 12 23  1  0  0  0  0
 12 14  1  0  0  0  0
 13 18  1  0  0  0  0
 13 19  1  0  0  0  0
 14 18  2  0  0  0  0
 15 24  2  0  0  0  0
 15 23  1  0  0  0  0
 16 19  1  0  0  0  0
 17 14  1  0  0  0  0
 17 27  1  6  0  0  0
 18 26  1  0  0  0  0
 19 21  2  0  0  0  0
 20 17  1  0  0  0  0
 22 16  2  0  0  0  0
 23 13  2  0  0  0  0
 24 22  1  0  0  0  0
 25 20  1  1  0  0  0
 25 12  1  0  0  0  0
 28 27  1  0  0  0  0
 30 29  1  1  0  0  0
 31 30  1  0  0  0  0
 33 32  1  6  0  0  0
 33 36  1  0  0  0  0
 34 43  1  0  0  0  0
 35 31  1  0  0  0  0
 35 33  1  0  0  0  0
 35 38  1  0  0  0  0
 36 34  2  0  0  0  0
 37 36  1  0  0  0  0
 38 37  1  0  0  0  0
 39 42  2  0  0  0  0
 40 42  1  0  0  0  0
 41 43  1  0  0  0  0
 41 39  1  0  0  0  0
 42 44  1  0  0  0  0
 43 40  2  0  0  0  0
 44 45  1  0  0  0  0
 45 46  1  0  0  0  0
 47 46  1  0  0  0  0
 47 48  1  0  0  0  0
 48 53  1  0  0  0  0
 48 52  1  0  0  0  0
 51 49  1  1  0  0  0
 52 51  1  0  0  0  0
 53 54  1  0  0  0  0
 54 50  2  0  0  0  0
 54 51  1  0  0  0  0
M  END
>  <MODEL>
8

>  <REMARK>
 VINA RESULT:      -8.0      3.291      8.732
  Name = 
  11 active torsions:
  status: ('A' for Active; 'I' for Inactive)
    1  A    between atoms: C_4  and  N_16
    2  A    between atoms: C_4  and  C_25
    3  A    between atoms: C_6  and  C_52
    4  A    between atoms: C_9  and  C_15
    5  A    between atoms: C_17  and  C_23
    6  A    between atoms: C_17  and  C_35
    7  A    between atoms: C_18  and  N_33
    8  A    between atoms: C_18  and  C_36
    9  A    between atoms: C_23  and  C_25
   10  A    between atoms: N_31  and  C_37
   11  A    between atoms: C_32  and  C_36
                            x       y       z     vdW  Elec       q    Type
                         _______ _______ _______ _____ _____    ______ ____

>  <TORSDO>
F 11

$$$$
=
 OpenBabel10222419433D

 54 61  0  0  1  0  0  0  0  0999 V2000
  185.1870  173.4520  134.9570 C   0  0  1  0  0  3  0  0  0  0  0  0
  189.5410  174.4750  137.2300 O   0  0  0  0  0  0  0  0  0  0  0  0
  187.6310  173.1210  135.1900 C   0  0  0  0  0  2  0  0  0  0  0  0
  188.3350  174.6280  137.1060 C   0  0  0  0  0  0  0  0  0  0  0  0
  187.7800  176.0200  137.3040 C   0  0  0  0  0  2  0  0  0  0  0  0
  185.2810  174.1020  136.3440 C   0  0  1  0  0  3  0  0  0  0  0  0
  186.2670  176.1300  137.4600 C   0  0  2  0  0  3  0  0  0  0  0  0
  186.1880  173.4350  137.2100 O   0  0  0  0  0  0  0  0  0  0  0  0
  185.5600  175.6000  136.2170 C   0  0  0  0  0  2  0  0  0  0  0  0
  186.3460  172.4920  134.6850 C   0  0  0  0  0  2  0  0  0  0  0  0
  187.5100  173.4320  136.6920 C   0  0  1  0  0  3  0  0  0  0  0  0
  182.7760  173.4220  135.5360 N   0  0  0  0  0  0  0  0  0  0  0  0
  181.1370  174.4780  136.6300 C   0  0  0  0  0  0  0  0  0  0  0  0
  182.2340  172.5550  136.3590 C   0  0  0  0  0  0  0  0  0  0  0  0
  182.4360  175.6940  134.8600 C   0  0  0  0  0  3  0  0  0  0  0  0
  180.1220  176.7000  136.6490 N   0  0  0  0  0  0  0  0  0  0  0  0
  182.7960  171.1880  136.2620 C   0  0  2  0  0  3  0  0  0  0  0  0
  181.2250  173.1500  137.0760 C   0  0  0  0  0  0  0  0  0  0  0  0
  180.2120  175.4220  137.0960 C   0  0  0  0  0  0  0  0  0  0  0  0
  183.8020  171.3550  135.0970 C   0  0  0  0  0  2  0  0  0  0  0  0
  179.4010  175.0740  137.9950 O   0  0  0  0  0  0  0  0  0  0  0  0
  180.8060  177.3920  135.7050 C   0  0  0  0  0  3  0  0  0  0  0  0
  182.1260  174.6000  135.6450 C   0  0  0  0  0  0  0  0  0  0  0  0
  181.8430  176.9420  134.8950 C   0  0  0  0  0  3  0  0  0  0  0  0
  183.8020  172.8490  134.6900 C   0  0  2  0  0  3  0  0  0  0  0  0
  180.4380  172.5370  138.0460 O   0  0  0  0  0  1  0  0  0  0  0  0
  181.7290  170.1830  135.8520 C   0  0  0  0  0  2  0  0  0  0  0  0
  181.0080  170.6640  134.6070 C   0  0  0  0  0  1  0  0  0  0  0  0
  186.8000  178.4670  137.1910 O   0  0  0  0  0  1  0  0  0  0  0  0
  185.8850  177.5790  137.7570 C   0  0  1  0  0  3  0  0  0  0  0  0
  184.4690  177.8890  137.2570 C   0  0  0  0  0  2  0  0  0  0  0  0
  183.1280  180.5050  138.9560 C   0  0  0  0  0  1  0  0  0  0  0  0
  184.0080  179.2850  139.1650 C   0  0  2  0  0  3  0  0  0  0  0  0
  184.2470  179.5760  141.5740 N   0  0  0  0  0  0  0  0  0  0  0  0
  183.5180  178.1830  138.3380 N   0  0  0  0  0  0  0  0  0  0  0  0
  183.9240  178.8200  140.5640 C   0  0  0  0  0  0  0  0  0  0  0  0
  183.4480  177.4270  140.6460 C   0  0  0  0  0  2  0  0  0  0  0  0
  183.3640  176.9970  139.1940 C   0  0  0  0  0  2  0  0  0  0  0  0
  183.7550  178.6270  145.3460 N   0  0  0  0  0  0  0  0  0  0  0  0
  185.3530  178.9690  143.6720 N   0  0  0  0  0  0  0  0  0  0  0  0
  182.9150  179.0370  143.9720 S   0  0  0  0  0  0  0  0  0  0  0  0
  185.0670  178.6420  144.9700 C   0  0  0  0  0  0  0  0  0  0  0  0
  184.2320  179.2280  142.9660 C   0  0  0  0  0  0  0  0  0  0  0  0
  186.1510  178.3660  145.9560 C   0  0  0  0  0  2  0  0  0  0  0  0
  187.1030  177.2960  145.4300 C   0  0  0  0  0  2  0  0  0  0  0  0
  188.5450  177.7800  145.4780 C   0  0  0  0  0  2  0  0  0  0  0  0
  189.4650  176.7830  144.7630 C   0  0  0  0  0  2  0  0  0  0  0  0
  190.2270  177.3810  143.6600 N   0  0  0  0  0  0  0  0  0  0  0  0
  187.9340  178.1030  141.0850 C   0  0  0  0  0  1  0  0  0  0  0  0
  190.1880  176.3070  140.3170 O   0  0  0  0  0  0  0  0  0  0  0  0
  189.3860  178.1960  141.5160 C   0  0  1  0  0  3  0  0  0  0  0  0
  189.4490  178.4520  143.0140 C   0  0  0  0  0  2  0  0  0  0  0  0
  190.5280  176.3550  142.6620 C   0  0  0  0  0  2  0  0  0  0  0  0
  190.0430  176.8870  141.3830 C   0  0  0  0  0  0  0  0  0  0  0  0
  1 10  1  1  0  0  0
  1  6  1  0  0  0  0
  4  2  2  0  0  0  0
  4  5  1  0  0  0  0
  5  7  1  0  0  0  0
  6  9  1  6  0  0  0
  6  8  1  0  0  0  0
  7 30  1  6  0  0  0
  9  7  1  0  0  0  0
 10  3  1  0  0  0  0
 11  3  1  6  0  0  0
 11  4  1  0  0  0  0
 11  8  1  0  0  0  0
 12 23  1  0  0  0  0
 12 14  1  0  0  0  0
 13 18  1  0  0  0  0
 13 19  1  0  0  0  0
 14 18  2  0  0  0  0
 15 24  2  0  0  0  0
 15 23  1  0  0  0  0
 16 19  1  0  0  0  0
 17 27  1  6  0  0  0
 17 14  1  0  0  0  0
 18 26  1  0  0  0  0
 19 21  2  0  0  0  0
 20 17  1  0  0  0  0
 22 16  2  0  0  0  0
 23 13  2  0  0  0  0
 24 22  1  0  0  0  0
 25  1  1  0  0  0  0
 25 20  1  1  0  0  0
 25 12  1  0  0  0  0
 28 27  1  0  0  0  0
 30 29  1  6  0  0  0
 31 30  1  0  0  0  0
 31 35  1  0  0  0  0
 33 32  1  1  0  0  0
 33 36  1  0  0  0  0
 34 43  1  0  0  0  0
 35 33  1  0  0  0  0
 35 38  1  0  0  0  0
 36 37  1  0  0  0  0
 36 34  2  0  0  0  0
 38 37  1  0  0  0  0
 40 42  1  0  0  0  0
 41 39  1  0  0  0  0
 42 39  2  0  0  0  0
 42 44  1  0  0  0  0
 43 40  2  0  0  0  0
 43 41  1  0  0  0  0
 45 46  1  0  0  0  0
 45 44  1  0  0  0  0
 47 46  1  0  0  0  0
 48 47  1  0  0  0  0
 50 54  2  0  0  0  0
 51 49  1  1  0  0  0
 51 52  1  0  0  0  0
 52 48  1  0  0  0  0
 53 48  1  0  0  0  0
 54 51  1  0  0  0  0
 54 53  1  0  0  0  0
M  END
>  <MODEL>
9

>  <REMARK>
 VINA RESULT:      -7.9      3.038      8.894
  Name = 
  11 active torsions:
  status: ('A' for Active; 'I' for Inactive)
    1  A    between atoms: C_4  and  N_16
    2  A    between atoms: C_4  and  C_25
    3  A    between atoms: C_6  and  C_52
    4  A    between atoms: C_9  and  C_15
    5  A    between atoms: C_17  and  C_23
    6  A    between atoms: C_17  and  C_35
    7  A    between atoms: C_18  and  N_33
    8  A    between atoms: C_18  and  C_36
    9  A    between atoms: C_23  and  C_25
   10  A    between atoms: N_31  and  C_37
   11  A    between atoms: C_32  and  C_36
                            x       y       z     vdW  Elec       q    Type
                         _______ _______ _______ _____ _____    ______ ____

>  <TORSDO>
F 11

$$$$
