=
 OpenBabel10222416083D

 26 28  0  0  1  0  0  0  0  0999 V2000
  185.4350  178.2320  145.0330 C   0  0  0  0  0  3  0  0  0  0  0  0
  191.5540  175.9410  144.0630 C   0  0  0  0  0  3  0  0  0  0  0  0
  184.9260  178.5400  143.7770 C   0  0  0  0  0  3  0  0  0  0  0  0
  188.3580  177.6830  147.0400 C   0  0  0  0  0  3  0  0  0  0  0  0
  186.7510  177.7850  145.1940 C   0  0  0  0  0  0  0  0  0  0  0  0
  189.3470  176.0930  143.1030 C   0  0  0  0  0  3  0  0  0  0  0  0
  187.1680  177.5520  146.5450 N   0  0  0  0  0  0  0  0  0  0  0  0
  190.6470  175.5870  143.0680 C   0  0  0  0  0  3  0  0  0  0  0  0
  189.4740  178.0050  146.2760 O   0  0  0  0  0  0  0  0  0  0  0  0
  191.1480  176.7740  145.1050 C   0  0  0  0  0  3  0  0  0  0  0  0
  187.0490  177.9410  142.7750 C   0  0  0  0  0  0  0  0  0  0  0  0
  188.9250  176.9560  144.1310 C   0  0  0  0  0  0  0  0  0  0  0  0
  189.8360  177.2580  145.1630 C   0  0  0  0  0  0  0  0  0  0  0  0
  185.7330  178.4070  142.6560 C   0  0  0  0  0  3  0  0  0  0  0  0
  187.5710  177.5800  144.0480 C   0  0  0  0  0  0  0  0  0  0  0  0
  187.8480  177.8490  141.6310 O   0  0  0  0  0  0  0  0  0  0  0  0
  187.5630  178.5570  140.4830 N   0  0  0  0  0  2  0  0  0  0  0  0
  188.1050  177.7930  139.3710 C   0  0  1  0  0  3  0  0  0  0  0  0
  186.7220  177.4090  135.7640 C   0  0  0  0  0  1  0  0  0  0  0  0
  187.2380  177.9670  138.1670 C   0  0  0  0  0  0  0  0  0  0  0  0
  186.2350  178.7280  138.2330 O   0  0  0  0  0  0  0  0  0  0  0  0
  187.5420  177.2730  136.9560 N   0  0  0  0  0  2  0  0  0  0  0  0
  189.5330  178.2370  139.0800 C   0  0  0  0  0  2  0  0  0  0  0  0
  191.5630  177.5920  140.3760 O   0  0  0  0  0  1  0  0  0  0  0  0
  190.5070  177.2150  139.5560 C   0  0  0  0  0  0  0  0  0  0  0  0
  190.3580  176.0080  139.2390 O   0  0  0  0  0  0  0  0  0  0  0  0
  1  5  1  0  0  0  0
  2 10  1  0  0  0  0
  3  1  2  0  0  0  0
  5  7  1  0  0  0  0
  6 12  2  0  0  0  0
  7  4  2  0  0  0  0
  8  6  1  0  0  0  0
  8  2  2  0  0  0  0
  9  4  1  0  0  0  0
 10 13  2  0  0  0  0
 11 15  1  0  0  0  0
 12 13  1  0  0  0  0
 13  9  1  0  0  0  0
 14 11  2  0  0  0  0
 14  3  1  0  0  0  0
 15 12  1  0  0  0  0
 15  5  2  0  0  0  0
 16 11  1  0  0  0  0
 17 16  1  0  0  0  0
 18 23  1  6  0  0  0
 18 17  1  0  0  0  0
 19 22  1  0  0  0  0
 20 21  2  0  0  0  0
 20 18  1  0  0  0  0
 22 20  1  0  0  0  0
 23 25  1  0  0  0  0
 25 24  1  0  0  0  0
 26 25  2  0  0  0  0
M  END
>  <MODEL>
1

>  <REMARK>
 VINA RESULT:      -8.6      0.000      0.000
  Name = 
  6 active torsions:
  status: ('A' for Active; 'I' for Inactive)
    1  A    between atoms: C_8  and  C_20
    2  A    between atoms: C_14  and  O_16
    3  A    between atoms: C_15  and  C_24
    4  A    between atoms: O_16  and  N_18
    5  A    between atoms: N_18  and  C_24
    6  A    between atoms: C_20  and  C_24
                            x       y       z     vdW  Elec       q    Type
                         _______ _______ _______ _____ _____    ______ ____

>  <TORSDO>
F 6

$$$$
=
 OpenBabel10222416083D

 26 28  0  0  1  0  0  0  0  0999 V2000
  183.7260  178.6830  141.7570 C   0  0  0  0  0  3  0  0  0  0  0  0
  187.8900  177.5560  146.7590 C   0  0  0  0  0  3  0  0  0  0  0  0
  184.5040  178.7710  140.6090 C   0  0  0  0  0  3  0  0  0  0  0  0
  183.6130  178.8990  145.3360 C   0  0  0  0  0  3  0  0  0  0  0  0
  184.3080  178.5180  143.0180 C   0  0  0  0  0  0  0  0  0  0  0  0
  187.5140  177.1860  144.4060 C   0  0  0  0  0  3  0  0  0  0  0  0
  183.3990  178.4940  144.1250 N   0  0  0  0  0  0  0  0  0  0  0  0
  188.2550  176.9430  145.5630 C   0  0  0  0  0  3  0  0  0  0  0  0
  184.8470  179.3630  145.7800 O   0  0  0  0  0  0  0  0  0  0  0  0
  186.7690  178.3840  146.7990 C   0  0  0  0  0  3  0  0  0  0  0  0
  186.5050  178.5120  141.9500 C   0  0  0  0  0  0  0  0  0  0  0  0
  186.3940  178.0380  144.4180 C   0  0  0  0  0  0  0  0  0  0  0  0
  186.0030  178.6050  145.6480 C   0  0  0  0  0  0  0  0  0  0  0  0
  185.8860  178.6990  140.7070 C   0  0  0  0  0  3  0  0  0  0  0  0
  185.7200  178.3760  143.1290 C   0  0  0  0  0  0  0  0  0  0  0  0
  187.9010  178.4760  142.0210 O   0  0  0  0  0  0  0  0  0  0  0  0
  188.6900  178.4870  140.8910 N   0  0  0  0  0  2  0  0  0  0  0  0
  189.5320  177.3030  140.9530 C   0  0  1  0  0  3  0  0  0  0  0  0
  189.8910  177.3090  137.0880 C   0  0  0  0  0  1  0  0  0  0  0  0
  189.9590  176.9130  139.5760 C   0  0  0  0  0  0  0  0  0  0  0  0
  190.7340  175.9310  139.4250 O   0  0  0  0  0  0  0  0  0  0  0  0
  189.4960  177.6510  138.4430 N   0  0  0  0  0  2  0  0  0  0  0  0
  190.7400  177.5700  141.8420 C   0  0  0  0  0  2  0  0  0  0  0  0
  190.1360  175.3340  142.7670 O   0  0  0  0  0  0  0  0  0  0  0  0
  190.8760  176.5060  142.8760 C   0  0  0  0  0  0  0  0  0  0  0  0
  191.6790  176.6550  143.8310 O   0  0  0  0  0  1  0  0  0  0  0  0
  1  5  1  0  0  0  0
  2 10  1  0  0  0  0
  3 14  1  0  0  0  0
  3  1  2  0  0  0  0
  4  9  1  0  0  0  0
  5 15  2  0  0  0  0
  5  7  1  0  0  0  0
  6 12  2  0  0  0  0
  6  8  1  0  0  0  0
  7  4  2  0  0  0  0
  8  2  2  0  0  0  0
 11 16  1  0  0  0  0
 11 15  1  0  0  0  0
 12 13  1  0  0  0  0
 13  9  1  0  0  0  0
 13 10  2  0  0  0  0
 14 11  2  0  0  0  0
 15 12  1  0  0  0  0
 17 18  1  0  0  0  0
 17 16  1  0  0  0  0
 18 23  1  1  0  0  0
 19 22  1  0  0  0  0
 20 18  1  0  0  0  0
 21 20  2  0  0  0  0
 22 20  1  0  0  0  0
 23 25  1  0  0  0  0
 24 25  2  0  0  0  0
 25 26  1  0  0  0  0
M  END
>  <MODEL>
2

>  <REMARK>
 VINA RESULT:      -8.4      2.161      3.569
  Name = 
  6 active torsions:
  status: ('A' for Active; 'I' for Inactive)
    1  A    between atoms: C_8  and  C_20
    2  A    between atoms: C_14  and  O_16
    3  A    between atoms: C_15  and  C_24
    4  A    between atoms: O_16  and  N_18
    5  A    between atoms: N_18  and  C_24
    6  A    between atoms: C_20  and  C_24
                            x       y       z     vdW  Elec       q    Type
                         _______ _______ _______ _____ _____    ______ ____

>  <TORSDO>
F 6

$$$$
=
 OpenBabel10222416083D

 26 28  0  0  1  0  0  0  0  0999 V2000
  185.2820  178.3400  146.9530 C   0  0  0  0  0  3  0  0  0  0  0  0
  190.3150  176.2620  143.2130 C   0  0  0  0  0  3  0  0  0  0  0  0
  184.2610  178.6940  146.0780 C   0  0  0  0  0  3  0  0  0  0  0  0
  188.7960  177.7720  147.4000 C   0  0  0  0  0  3  0  0  0  0  0  0
  186.5300  177.9200  146.4810 C   0  0  0  0  0  0  0  0  0  0  0  0
  187.9120  176.4010  143.3560 C   0  0  0  0  0  3  0  0  0  0  0  0
  187.5110  177.6330  147.4850 N   0  0  0  0  0  0  0  0  0  0  0  0
  189.0580  175.9320  142.7130 C   0  0  0  0  0  3  0  0  0  0  0  0
  189.4480  178.1600  146.2350 O   0  0  0  0  0  0  0  0  0  0  0  0
  190.4190  177.0320  144.3710 C   0  0  0  0  0  3  0  0  0  0  0  0
  185.7080  178.2010  144.1980 C   0  0  0  0  0  0  0  0  0  0  0  0
  187.9950  177.2010  144.5110 C   0  0  0  0  0  0  0  0  0  0  0  0
  189.2730  177.4780  145.0380 C   0  0  0  0  0  0  0  0  0  0  0  0
  184.4780  178.6370  144.7090 C   0  0  0  0  0  3  0  0  0  0  0  0
  186.7480  177.7930  145.0790 C   0  0  0  0  0  0  0  0  0  0  0  0
  185.9070  178.1860  142.8140 O   0  0  0  0  0  0  0  0  0  0  0  0
  185.9040  179.3420  142.0630 N   0  0  0  0  0  2  0  0  0  0  0  0
  185.1350  179.0640  140.8620 C   0  0  1  0  0  3  0  0  0  0  0  0
  188.3700  178.0300  138.9820 C   0  0  0  0  0  1  0  0  0  0  0  0
  186.0430  178.5760  139.7810 C   0  0  0  0  0  0  0  0  0  0  0  0
  185.5530  178.2260  138.6740 O   0  0  0  0  0  0  0  0  0  0  0  0
  187.4520  178.5040  140.0040 N   0  0  0  0  0  2  0  0  0  0  0  0
  184.0500  178.0380  141.1640 C   0  0  0  0  0  2  0  0  0  0  0  0
  181.8940  178.7290  142.2080 O   0  0  0  0  0  1  0  0  0  0  0  0
  182.7000  178.6610  141.0790 C   0  0  0  0  0  0  0  0  0  0  0  0
  182.3010  179.1510  139.9920 O   0  0  0  0  0  0  0  0  0  0  0  0
  2 10  1  0  0  0  0
  3  1  2  0  0  0  0
  4  7  2  0  0  0  0
  5  1  1  0  0  0  0
  5  7  1  0  0  0  0
  6 12  2  0  0  0  0
  8  2  2  0  0  0  0
  8  6  1  0  0  0  0
  9  4  1  0  0  0  0
 10 13  2  0  0  0  0
 11 14  2  0  0  0  0
 11 15  1  0  0  0  0
 12 13  1  0  0  0  0
 12 15  1  0  0  0  0
 13  9  1  0  0  0  0
 14  3  1  0  0  0  0
 15  5  2  0  0  0  0
 16 11  1  0  0  0  0
 17 16  1  0  0  0  0
 18 23  1  1  0  0  0
 18 17  1  0  0  0  0
 19 22  1  0  0  0  0
 20 22  1  0  0  0  0
 20 18  1  0  0  0  0
 21 20  2  0  0  0  0
 25 23  1  0  0  0  0
 25 24  1  0  0  0  0
 26 25  2  0  0  0  0
M  END
>  <MODEL>
3

>  <REMARK>
 VINA RESULT:      -8.4      2.164      3.725
  Name = 
  6 active torsions:
  status: ('A' for Active; 'I' for Inactive)
    1  A    between atoms: C_8  and  C_20
    2  A    between atoms: C_14  and  O_16
    3  A    between atoms: C_15  and  C_24
    4  A    between atoms: O_16  and  N_18
    5  A    between atoms: N_18  and  C_24
    6  A    between atoms: C_20  and  C_24
                            x       y       z     vdW  Elec       q    Type
                         _______ _______ _______ _____ _____    ______ ____

>  <TORSDO>
F 6

$$$$
=
 OpenBabel10222416083D

 26 28  0  0  1  0  0  0  0  0999 V2000
  188.6980  177.5990  148.3530 C   0  0  0  0  0  3  0  0  0  0  0  0
  190.1360  176.3630  142.0250 C   0  0  0  0  0  3  0  0  0  0  0  0
  187.4030  178.1040  148.3710 C   0  0  0  0  0  3  0  0  0  0  0  0
  191.6650  177.0030  146.4270 C   0  0  0  0  0  3  0  0  0  0  0  0
  189.3430  177.2970  147.1490 C   0  0  0  0  0  0  0  0  0  0  0  0
  188.3530  176.4380  143.6470 C   0  0  0  0  0  3  0  0  0  0  0  0
  190.6930  176.8330  147.2660 N   0  0  0  0  0  0  0  0  0  0  0  0
  188.8080  176.1200  142.3680 C   0  0  0  0  0  3  0  0  0  0  0  0
  191.5090  177.6210  145.1910 O   0  0  0  0  0  0  0  0  0  0  0  0
  191.0090  176.8930  142.9750 C   0  0  0  0  0  3  0  0  0  0  0  0
  187.3360  178.0090  145.9510 C   0  0  0  0  0  0  0  0  0  0  0  0
  189.2110  176.9990  144.6120 C   0  0  0  0  0  0  0  0  0  0  0  0
  190.5660  177.1830  144.2700 C   0  0  0  0  0  0  0  0  0  0  0  0
  186.7310  178.3190  147.1760 C   0  0  0  0  0  3  0  0  0  0  0  0
  188.6440  177.4500  145.9170 C   0  0  0  0  0  0  0  0  0  0  0  0
  186.6470  178.2680  144.7620 O   0  0  0  0  0  0  0  0  0  0  0  0
  185.3390  177.8730  144.5760 N   0  0  0  0  0  2  0  0  0  0  0  0
  184.9550  178.3040  143.2420 C   0  0  1  0  0  3  0  0  0  0  0  0
  181.2810  179.1500  142.3180 C   0  0  0  0  0  1  0  0  0  0  0  0
  183.5980  178.9290  143.2830 C   0  0  0  0  0  0  0  0  0  0  0  0
  183.3320  179.7690  144.1830 O   0  0  0  0  0  0  0  0  0  0  0  0
  182.6130  178.5710  142.3110 N   0  0  0  0  0  2  0  0  0  0  0  0
  185.9860  179.2820  142.6930 C   0  0  0  0  0  2  0  0  0  0  0  0
  187.2780  178.4940  140.7110 O   0  0  0  0  0  1  0  0  0  0  0  0
  186.1420  179.1080  141.2210 C   0  0  0  0  0  0  0  0  0  0  0  0
  185.2320  179.4930  140.4430 O   0  0  0  0  0  0  0  0  0  0  0  0
  1  3  1  0  0  0  0
  2  8  2  0  0  0  0
  2 10  1  0  0  0  0
  4  7  2  0  0  0  0
  5  7  1  0  0  0  0
  5  1  2  0  0  0  0
  6 12  2  0  0  0  0
  8  6  1  0  0  0  0
  9  4  1  0  0  0  0
 10 13  2  0  0  0  0
 11 14  1  0  0  0  0
 12 15  1  0  0  0  0
 13 12  1  0  0  0  0
 13  9  1  0  0  0  0
 14  3  2  0  0  0  0
 15 11  2  0  0  0  0
 15  5  1  0  0  0  0
 16 11  1  0  0  0  0
 17 16  1  0  0  0  0
 18 23  1  1  0  0  0
 18 20  1  0  0  0  0
 18 17  1  0  0  0  0
 20 21  2  0  0  0  0
 22 19  1  0  0  0  0
 22 20  1  0  0  0  0
 24 25  1  0  0  0  0
 25 23  1  0  0  0  0
 26 25  2  0  0  0  0
M  END
>  <MODEL>
4

>  <REMARK>
 VINA RESULT:      -8.1      2.956      4.519
  Name = 
  6 active torsions:
  status: ('A' for Active; 'I' for Inactive)
    1  A    between atoms: C_8  and  C_20
    2  A    between atoms: C_14  and  O_16
    3  A    between atoms: C_15  and  C_24
    4  A    between atoms: O_16  and  N_18
    5  A    between atoms: N_18  and  C_24
    6  A    between atoms: C_20  and  C_24
                            x       y       z     vdW  Elec       q    Type
                         _______ _______ _______ _____ _____    ______ ____

>  <TORSDO>
F 6

$$$$
=
 OpenBabel10222416083D

 26 28  0  0  1  0  0  0  0  0999 V2000
  185.0840  178.3840  146.6600 C   0  0  0  0  0  3  0  0  0  0  0  0
  190.3190  176.3980  143.1550 C   0  0  0  0  0  3  0  0  0  0  0  0
  184.1350  178.8150  145.7410 C   0  0  0  0  0  3  0  0  0  0  0  0
  188.5450  177.7000  147.3120 C   0  0  0  0  0  3  0  0  0  0  0  0
  186.3530  177.9600  146.2500 C   0  0  0  0  0  0  0  0  0  0  0  0
  187.9150  176.5910  143.1410 C   0  0  0  0  0  3  0  0  0  0  0  0
  187.2550  177.5900  147.3000 N   0  0  0  0  0  0  0  0  0  0  0  0
  189.0920  176.1310  142.5520 C   0  0  0  0  0  3  0  0  0  0  0  0
  189.2850  178.1380  146.2190 O   0  0  0  0  0  0  0  0  0  0  0  0
  190.3590  177.0960  144.3610 C   0  0  0  0  0  3  0  0  0  0  0  0
  185.6980  178.3960  143.9370 C   0  0  0  0  0  0  0  0  0  0  0  0
  187.9350  177.3200  144.3450 C   0  0  0  0  0  0  0  0  0  0  0  0
  189.1790  177.5320  144.9740 C   0  0  0  0  0  0  0  0  0  0  0  0
  184.4460  178.8330  144.3880 C   0  0  0  0  0  3  0  0  0  0  0  0
  186.6640  177.9100  144.8620 C   0  0  0  0  0  0  0  0  0  0  0  0
  185.9930  178.4570  142.5720 O   0  0  0  0  0  0  0  0  0  0  0  0
  185.2650  179.2400  141.7020 N   0  0  0  0  0  2  0  0  0  0  0  0
  184.8270  178.3740  140.6200 C   0  0  1  0  0  3  0  0  0  0  0  0
  181.1110  178.5690  141.7230 C   0  0  0  0  0  1  0  0  0  0  0  0
  183.3930  178.0050  140.8150 C   0  0  0  0  0  0  0  0  0  0  0  0
  182.9680  176.9130  140.3530 O   0  0  0  0  0  0  0  0  0  0  0  0
  182.5130  178.8870  141.5160 N   0  0  0  0  0  2  0  0  0  0  0  0
  185.0310  179.0700  139.2800 C   0  0  0  0  0  2  0  0  0  0  0  0
  187.3720  178.4060  138.7370 O   0  0  0  0  0  1  0  0  0  0  0  0
  186.0160  178.3250  138.4460 C   0  0  0  0  0  0  0  0  0  0  0  0
  185.6180  177.6020  137.4980 O   0  0  0  0  0  0  0  0  0  0  0  0
  2 10  1  0  0  0  0
  3  1  2  0  0  0  0
  5  1  1  0  0  0  0
  5  7  1  0  0  0  0
  6 12  2  0  0  0  0
  7  4  2  0  0  0  0
  8  6  1  0  0  0  0
  8  2  2  0  0  0  0
  9  4  1  0  0  0  0
 10 13  2  0  0  0  0
 11 14  2  0  0  0  0
 11 15  1  0  0  0  0
 12 15  1  0  0  0  0
 12 13  1  0  0  0  0
 13  9  1  0  0  0  0
 14  3  1  0  0  0  0
 15  5  2  0  0  0  0
 16 11  1  0  0  0  0
 17 16  1  0  0  0  0
 18 23  1  6  0  0  0
 18 20  1  0  0  0  0
 18 17  1  0  0  0  0
 20 22  1  0  0  0  0
 21 20  2  0  0  0  0
 22 19  1  0  0  0  0
 25 24  1  0  0  0  0
 25 23  1  0  0  0  0
 26 25  2  0  0  0  0
M  END
>  <MODEL>
5

>  <REMARK>
 VINA RESULT:      -8.1      2.285      3.422
  Name = 
  6 active torsions:
  status: ('A' for Active; 'I' for Inactive)
    1  A    between atoms: C_8  and  C_20
    2  A    between atoms: C_14  and  O_16
    3  A    between atoms: C_15  and  C_24
    4  A    between atoms: O_16  and  N_18
    5  A    between atoms: N_18  and  C_24
    6  A    between atoms: C_20  and  C_24
                            x       y       z     vdW  Elec       q    Type
                         _______ _______ _______ _____ _____    ______ ____

>  <TORSDO>
F 6

$$$$
=
 OpenBabel10222416083D

 26 28  0  0  1  0  0  0  0  0999 V2000
  185.4800  178.5950  146.6120 C   0  0  0  0  0  3  0  0  0  0  0  0
  184.4330  178.7270  140.0910 C   0  0  0  0  0  3  0  0  0  0  0  0
  186.7110  177.9770  146.8010 C   0  0  0  0  0  3  0  0  0  0  0  0
  182.6730  179.1010  144.4370 C   0  0  0  0  0  3  0  0  0  0  0  0
  184.9190  178.7220  145.3370 C   0  0  0  0  0  0  0  0  0  0  0  0
  186.1330  178.7880  141.8010 C   0  0  0  0  0  3  0  0  0  0  0  0
  183.6240  179.3320  145.2850 N   0  0  0  0  0  0  0  0  0  0  0  0
  185.7650  178.8980  140.4600 C   0  0  0  0  0  3  0  0  0  0  0  0
  182.8080  178.2450  143.3500 O   0  0  0  0  0  0  0  0  0  0  0  0
  183.4710  178.4790  141.0700 C   0  0  0  0  0  3  0  0  0  0  0  0
  186.8820  177.5970  144.4140 C   0  0  0  0  0  0  0  0  0  0  0  0
  185.1810  178.5120  142.8010 C   0  0  0  0  0  0  0  0  0  0  0  0
  183.8290  178.4010  142.4210 C   0  0  0  0  0  0  0  0  0  0  0  0
  187.4010  177.4700  145.7090 C   0  0  0  0  0  3  0  0  0  0  0  0
  185.6440  178.2660  144.2000 C   0  0  0  0  0  0  0  0  0  0  0  0
  187.5850  177.0470  143.3380 O   0  0  0  0  0  0  0  0  0  0  0  0
  188.7220  176.2910  143.5200 N   0  0  0  0  0  2  0  0  0  0  0  0
  189.8370  177.0780  143.0170 C   0  0  1  0  0  3  0  0  0  0  0  0
  191.7280  176.7190  146.3880 C   0  0  0  0  0  1  0  0  0  0  0  0
  190.8220  177.3190  144.1150 C   0  0  0  0  0  0  0  0  0  0  0  0
  191.6840  178.2280  143.9810 O   0  0  0  0  0  0  0  0  0  0  0  0
  190.7860  176.5220  145.3000 N   0  0  0  0  0  2  0  0  0  0  0  0
  190.4940  176.3610  141.8450 C   0  0  0  0  0  2  0  0  0  0  0  0
  188.9490  177.3810  140.1740 O   0  0  0  0  0  1  0  0  0  0  0  0
  190.2500  177.1000  140.5740 C   0  0  0  0  0  0  0  0  0  0  0  0
  191.2200  177.4940  139.8790 O   0  0  0  0  0  0  0  0  0  0  0  0
  1  3  1  0  0  0  0
  2  8  2  0  0  0  0
  2 10  1  0  0  0  0
  4  7  2  0  0  0  0
  5  1  2  0  0  0  0
  6 12  2  0  0  0  0
  7  5  1  0  0  0  0
  8  6  1  0  0  0  0
  9  4  1  0  0  0  0
 10 13  2  0  0  0  0
 11 14  1  0  0  0  0
 12 15  1  0  0  0  0
 13 12  1  0  0  0  0
 13  9  1  0  0  0  0
 14  3  2  0  0  0  0
 15 11  2  0  0  0  0
 15  5  1  0  0  0  0
 16 17  1  0  0  0  0
 16 11  1  0  0  0  0
 18 23  1  6  0  0  0
 18 17  1  0  0  0  0
 18 20  1  0  0  0  0
 20 22  1  0  0  0  0
 21 20  2  0  0  0  0
 22 19  1  0  0  0  0
 24 25  1  0  0  0  0
 25 23  1  0  0  0  0
 26 25  2  0  0  0  0
M  END
>  <MODEL>
6

>  <REMARK>
 VINA RESULT:      -8.1      2.553      5.608
  Name = 
  6 active torsions:
  status: ('A' for Active; 'I' for Inactive)
    1  A    between atoms: C_8  and  C_20
    2  A    between atoms: C_14  and  O_16
    3  A    between atoms: C_15  and  C_24
    4  A    between atoms: O_16  and  N_18
    5  A    between atoms: N_18  and  C_24
    6  A    between atoms: C_20  and  C_24
                            x       y       z     vdW  Elec       q    Type
                         _______ _______ _______ _____ _____    ______ ____

>  <TORSDO>
F 6

$$$$
=
 OpenBabel10222416083D

 26 28  0  0  1  0  0  0  0  0999 V2000
  185.4760  178.2530  144.8350 C   0  0  0  0  0  3  0  0  0  0  0  0
  191.6320  175.9400  144.2080 C   0  0  0  0  0  3  0  0  0  0  0  0
  185.0010  178.4620  143.5450 C   0  0  0  0  0  3  0  0  0  0  0  0
  188.3440  177.8770  146.9570 C   0  0  0  0  0  3  0  0  0  0  0  0
  186.7890  177.8280  145.0650 C   0  0  0  0  0  0  0  0  0  0  0  0
  189.4520  176.0030  143.1790 C   0  0  0  0  0  3  0  0  0  0  0  0
  187.1700  177.7000  146.4400 N   0  0  0  0  0  0  0  0  0  0  0  0
  190.7540  175.5050  143.2180 C   0  0  0  0  0  3  0  0  0  0  0  0
  189.4790  178.1490  146.2020 O   0  0  0  0  0  0  0  0  0  0  0  0
  191.1920  176.8450  145.1730 C   0  0  0  0  0  3  0  0  0  0  0  0
  187.1540  177.8050  142.6490 C   0  0  0  0  0  0  0  0  0  0  0  0
  188.9960  176.9380  144.1270 C   0  0  0  0  0  0  0  0  0  0  0  0
  189.8770  177.3230  145.1580 C   0  0  0  0  0  0  0  0  0  0  0  0
  185.8400  178.2510  142.4600 C   0  0  0  0  0  3  0  0  0  0  0  0
  187.6420  177.5450  143.9610 C   0  0  0  0  0  0  0  0  0  0  0  0
  187.9850  177.6340  141.5380 O   0  0  0  0  0  0  0  0  0  0  0  0
  188.6490  178.6900  140.9540 N   0  0  0  0  0  2  0  0  0  0  0  0
  188.9340  178.3020  139.5820 C   0  0  1  0  0  3  0  0  0  0  0  0
  191.6680  175.8410  138.3410 C   0  0  0  0  0  1  0  0  0  0  0  0
  190.1960  177.5050  139.5320 C   0  0  0  0  0  0  0  0  0  0  0  0
  191.0330  177.6160  140.4670 O   0  0  0  0  0  0  0  0  0  0  0  0
  190.4510  176.6300  138.4320 N   0  0  0  0  0  2  0  0  0  0  0  0
  187.7660  177.5060  139.0120 C   0  0  0  0  0  2  0  0  0  0  0  0
  185.5800  178.6720  138.7300 O   0  0  0  0  0  1  0  0  0  0  0  0
  186.8510  178.3950  138.2430 C   0  0  0  0  0  0  0  0  0  0  0  0
  187.2380  178.9170  137.1660 O   0  0  0  0  0  0  0  0  0  0  0  0
  1  5  1  0  0  0  0
  2 10  1  0  0  0  0
  3  1  2  0  0  0  0
  5  7  1  0  0  0  0
  6  8  1  0  0  0  0
  6 12  2  0  0  0  0
  7  4  2  0  0  0  0
  8  2  2  0  0  0  0
  9  4  1  0  0  0  0
 11 15  1  0  0  0  0
 12 13  1  0  0  0  0
 13 10  2  0  0  0  0
 13  9  1  0  0  0  0
 14 11  2  0  0  0  0
 14  3  1  0  0  0  0
 15 12  1  0  0  0  0
 15  5  2  0  0  0  0
 16 11  1  0  0  0  0
 17 16  1  0  0  0  0
 18 23  1  1  0  0  0
 18 17  1  0  0  0  0
 19 22  1  0  0  0  0
 20 18  1  0  0  0  0
 20 21  2  0  0  0  0
 22 20  1  0  0  0  0
 25 24  1  0  0  0  0
 25 23  1  0  0  0  0
 26 25  2  0  0  0  0
M  END
>  <MODEL>
7

>  <REMARK>
 VINA RESULT:      -8.0      1.022      2.557
  Name = 
  6 active torsions:
  status: ('A' for Active; 'I' for Inactive)
    1  A    between atoms: C_8  and  C_20
    2  A    between atoms: C_14  and  O_16
    3  A    between atoms: C_15  and  C_24
    4  A    between atoms: O_16  and  N_18
    5  A    between atoms: N_18  and  C_24
    6  A    between atoms: C_20  and  C_24
                            x       y       z     vdW  Elec       q    Type
                         _______ _______ _______ _____ _____    ______ ____

>  <TORSDO>
F 6

$$$$
=
 OpenBabel10222416083D

 26 28  0  0  1  0  0  0  0  0999 V2000
  188.3780  177.1480  147.6950 C   0  0  0  0  0  3  0  0  0  0  0  0
  191.0520  176.8070  141.6650 C   0  0  0  0  0  3  0  0  0  0  0  0
  187.0440  177.4970  147.5160 C   0  0  0  0  0  3  0  0  0  0  0  0
  191.6880  177.1150  146.3150 C   0  0  0  0  0  3  0  0  0  0  0  0
  189.2580  177.0590  146.6110 C   0  0  0  0  0  0  0  0  0  0  0  0
  189.0180  176.4950  142.9230 C   0  0  0  0  0  3  0  0  0  0  0  0
  190.6160  176.7410  146.9370 N   0  0  0  0  0  0  0  0  0  0  0  0
  189.7280  176.3780  141.7280 C   0  0  0  0  0  3  0  0  0  0  0  0
  191.6710  177.8470  145.1320 O   0  0  0  0  0  0  0  0  0  0  0  0
  191.6670  177.3220  142.8050 C   0  0  0  0  0  3  0  0  0  0  0  0
  187.4150  177.6690  145.1280 C   0  0  0  0  0  0  0  0  0  0  0  0
  189.6130  177.0370  144.0780 C   0  0  0  0  0  0  0  0  0  0  0  0
  190.9700  177.4120  144.0150 C   0  0  0  0  0  0  0  0  0  0  0  0
  186.5700  177.7680  146.2400 C   0  0  0  0  0  3  0  0  0  0  0  0
  188.7710  177.2710  145.2900 C   0  0  0  0  0  0  0  0  0  0  0  0
  186.9160  177.9810  143.8590 O   0  0  0  0  0  0  0  0  0  0  0  0
  185.5720  177.9070  143.5650 N   0  0  0  0  0  2  0  0  0  0  0  0
  185.2400  179.0990  142.8020 C   0  0  1  0  0  3  0  0  0  0  0  0
  184.4160  179.0630  139.0090 C   0  0  0  0  0  1  0  0  0  0  0  0
  184.6290  178.7110  141.4960 C   0  0  0  0  0  0  0  0  0  0  0  0
  183.8050  177.7590  141.4590 O   0  0  0  0  0  0  0  0  0  0  0  0
  184.9820  179.4110  140.3010 N   0  0  0  0  0  2  0  0  0  0  0  0
  184.2940  179.9840  143.6040 C   0  0  0  0  0  2  0  0  0  0  0  0
  183.8020  179.0040  145.8430 O   0  0  0  0  0  1  0  0  0  0  0  0
  183.4460  179.1590  144.5090 C   0  0  0  0  0  0  0  0  0  0  0  0
  182.3930  178.6270  144.0750 O   0  0  0  0  0  0  0  0  0  0  0  0
  2  8  2  0  0  0  0
  2 10  1  0  0  0  0
  3  1  1  0  0  0  0
  4  7  2  0  0  0  0
  5  7  1  0  0  0  0
  5  1  2  0  0  0  0
  6 12  2  0  0  0  0
  8  6  1  0  0  0  0
  9  4  1  0  0  0  0
 10 13  2  0  0  0  0
 11 15  2  0  0  0  0
 11 14  1  0  0  0  0
 12 15  1  0  0  0  0
 13 12  1  0  0  0  0
 13  9  1  0  0  0  0
 14  3  2  0  0  0  0
 15  5  1  0  0  0  0
 16 11  1  0  0  0  0
 17 16  1  0  0  0  0
 18 17  1  0  0  0  0
 18 23  1  1  0  0  0
 19 22  1  0  0  0  0
 20 18  1  0  0  0  0
 21 20  2  0  0  0  0
 22 20  1  0  0  0  0
 23 25  1  0  0  0  0
 25 24  1  0  0  0  0
 26 25  2  0  0  0  0
M  END
>  <MODEL>
8

>  <REMARK>
 VINA RESULT:      -8.0      2.813      4.604
  Name = 
  6 active torsions:
  status: ('A' for Active; 'I' for Inactive)
    1  A    between atoms: C_8  and  C_20
    2  A    between atoms: C_14  and  O_16
    3  A    between atoms: C_15  and  C_24
    4  A    between atoms: O_16  and  N_18
    5  A    between atoms: N_18  and  C_24
    6  A    between atoms: C_20  and  C_24
                            x       y       z     vdW  Elec       q    Type
                         _______ _______ _______ _____ _____    ______ ____

>  <TORSDO>
F 6

$$$$
=
 OpenBabel10222416083D

 26 28  0  0  1  0  0  0  0  0999 V2000
  186.7770  178.2230  146.8460 C   0  0  0  0  0  3  0  0  0  0  0  0
  184.4120  178.9130  140.7170 C   0  0  0  0  0  3  0  0  0  0  0  0
  187.9860  177.5480  146.7280 C   0  0  0  0  0  3  0  0  0  0  0  0
  183.6110  179.0030  145.3500 C   0  0  0  0  0  3  0  0  0  0  0  0
  185.9720  178.4720  145.7290 C   0  0  0  0  0  0  0  0  0  0  0  0
  186.4290  178.7760  142.0310 C   0  0  0  0  0  3  0  0  0  0  0  0
  184.7270  179.1310  145.9930 N   0  0  0  0  0  0  0  0  0  0  0  0
  185.7990  179.0050  140.8080 C   0  0  0  0  0  3  0  0  0  0  0  0
  183.4740  178.2320  144.2010 O   0  0  0  0  0  0  0  0  0  0  0  0
  183.6610  178.6230  141.8560 C   0  0  0  0  0  3  0  0  0  0  0  0
  187.6400  177.3540  144.3380 C   0  0  0  0  0  0  0  0  0  0  0  0
  185.6930  178.4560  143.1860 C   0  0  0  0  0  0  0  0  0  0  0  0
  184.2870  178.4240  143.0920 C   0  0  0  0  0  0  0  0  0  0  0  0
  188.4080  177.1050  145.4820 C   0  0  0  0  0  3  0  0  0  0  0  0
  186.4210  178.0820  144.4350 C   0  0  0  0  0  0  0  0  0  0  0  0
  188.0750  176.8660  143.1020 O   0  0  0  0  0  0  0  0  0  0  0  0
  189.1690  176.0350  142.9890 N   0  0  0  0  0  2  0  0  0  0  0  0
  190.2280  176.8150  142.3700 C   0  0  1  0  0  3  0  0  0  0  0  0
  189.0560  178.2110  138.9430 C   0  0  0  0  0  1  0  0  0  0  0  0
  189.9850  176.9240  140.9000 C   0  0  0  0  0  0  0  0  0  0  0  0
  190.3850  176.0030  140.1390 O   0  0  0  0  0  0  0  0  0  0  0  0
  189.3080  178.0630  140.3660 N   0  0  0  0  0  2  0  0  0  0  0  0
  190.3030  178.1950  143.0120 C   0  0  0  0  0  2  0  0  0  0  0  0
  192.0270  179.4470  144.3070 O   0  0  0  0  0  0  0  0  0  0  0  0
  191.3920  178.2430  144.0270 C   0  0  0  0  0  0  0  0  0  0  0  0
  191.7180  177.2010  144.6500 O   0  0  0  0  0  1  0  0  0  0  0  0
  2  8  2  0  0  0  0
  2 10  1  0  0  0  0
  3  1  1  0  0  0  0
  4  7  2  0  0  0  0
  5  7  1  0  0  0  0
  5  1  2  0  0  0  0
  6 12  2  0  0  0  0
  8  6  1  0  0  0  0
  9  4  1  0  0  0  0
 10 13  2  0  0  0  0
 11 15  2  0  0  0  0
 11 14  1  0  0  0  0
 12 15  1  0  0  0  0
 13 12  1  0  0  0  0
 13  9  1  0  0  0  0
 14  3  2  0  0  0  0
 15  5  1  0  0  0  0
 16 11  1  0  0  0  0
 17 16  1  0  0  0  0
 18 17  1  0  0  0  0
 18 23  1  1  0  0  0
 19 22  1  0  0  0  0
 20 18  1  0  0  0  0
 21 20  2  0  0  0  0
 22 20  1  0  0  0  0
 23 25  1  0  0  0  0
 25 24  2  0  0  0  0
 25 26  1  0  0  0  0
M  END
>  <MODEL>
9

>  <REMARK>
 VINA RESULT:      -8.0      2.130      4.683
  Name = 
  6 active torsions:
  status: ('A' for Active; 'I' for Inactive)
    1  A    between atoms: C_8  and  C_20
    2  A    between atoms: C_14  and  O_16
    3  A    between atoms: C_15  and  C_24
    4  A    between atoms: O_16  and  N_18
    5  A    between atoms: N_18  and  C_24
    6  A    between atoms: C_20  and  C_24
                            x       y       z     vdW  Elec       q    Type
                         _______ _______ _______ _____ _____    ______ ____

>  <TORSDO>
F 6

$$$$
