=
 OpenBabel10222418233D

 58 61  0  0  1  0  0  0  0  0999 V2000
  190.5330  175.5500  143.1020 F   0  0  0  0  0  0  0  0  0  0  0  0
  189.7240  177.5520  147.0000 C   0  0  0  0  0  1  0  0  0  0  0  0
  187.6930  177.8520  143.2200 C   0  0  2  0  0  3  0  0  0  0  0  0
  189.4110  177.1310  144.5990 C   0  0  0  0  0  0  0  0  0  0  0  0
  190.1530  176.9600  145.7010 C   0  0  0  0  0  0  0  0  0  0  0  0
  189.7270  176.6130  143.3180 N   0  0  0  0  0  0  0  0  0  0  0  0
  188.6670  176.9930  142.3950 C   0  0  2  0  0  3  0  0  0  0  0  0
  188.2050  177.8710  144.5860 N   0  0  0  0  0  2  0  0  0  0  0  0
  191.4390  176.2070  145.6720 C   0  0  0  0  0  1  0  0  0  0  0  0
  186.3000  177.2430  143.1940 C   0  0  0  0  0  2  0  0  0  0  0  0
  185.3120  178.2230  142.5840 C   0  0  2  0  0  3  0  0  0  0  0  0
  185.2830  179.5840  140.6590 O   0  0  0  0  0  0  0  0  0  0  0  0
  185.9520  178.9120  141.4260 C   0  0  0  0  0  3  0  0  0  0  0  0
  184.8930  179.2420  143.6360 C   0  0  0  0  0  2  0  0  0  0  0  0
  184.3540  178.7720  146.0160 C   0  0  0  0  0  1  0  0  0  0  0  0
  183.8560  178.6600  144.5830 C   0  0  1  0  0  3  0  0  0  0  0  0
  182.5610  179.4370  144.4250 C   0  0  0  0  0  2  0  0  0  0  0  0
  181.4600  178.5430  144.3380 O   0  0  0  0  0  0  0  0  0  0  0  0
  179.3540  178.3560  143.4150 O   0  0  0  0  0  0  0  0  0  0  0  0
  181.1110  178.7960  141.9430 N   0  0  0  0  0  2  0  0  0  0  0  0
  180.5890  178.5560  143.2510 C   0  0  0  0  0  0  0  0  0  0  0  0
  180.5040  175.5730  137.3230 C   0  0  0  0  0  2  0  0  0  0  0  0
  179.0380  177.3100  138.2360 C   0  0  0  0  0  2  0  0  0  0  0  0
  179.6840  175.9750  138.5420 C   0  0  2  0  0  3  0  0  0  0  0  0
  181.3550  178.1070  138.7430 C   0  0  2  0  0  3  0  0  0  0  0  0
  182.7350  177.5790  139.1730 C   0  0  0  0  0  2  0  0  0  0  0  0
  180.2740  178.8640  140.7530 C   0  0  1  0  0  3  0  0  0  0  0  0
  181.1040  179.3530  139.5550 C   0  0  2  0  0  3  0  0  0  0  0  0
  182.9430  176.0690  139.0900 C   0  0  0  0  0  2  0  0  0  0  0  0
  180.2020  177.2480  139.2130 C   0  0  1  0  0  0  0  0  0  0  0  0
  182.6890  175.5400  137.6890 C   0  0  0  0  0  2  0  0  0  0  0  0
  179.7410  177.5810  140.4890 O   0  0  0  0  0  0  0  0  0  0  0  0
  181.5510  174.7320  137.7050 O   0  0  0  0  0  0  0  0  0  0  0  0
  180.3220  180.3860  138.7370 C   0  0  1  0  0  3  0  0  0  0  0  0
  179.1750  180.7760  139.4340 O   0  0  0  0  0  1  0  0  0  0  0  0
  181.1850  181.6090  138.4680 C   0  0  0  0  0  2  0  0  0  0  0  0
  180.3810  182.6660  137.7350 C   0  0  0  0  0  2  0  0  0  0  0  0
  181.2480  183.5630  137.1130 O   0  0  0  0  0  1  0  0  0  0  0  0
  189.2220  177.8470  141.2640 C   0  0  0  0  0  2  0  0  0  0  0  0
  189.7030  176.9930  140.1060 C   0  0  0  0  0  2  0  0  0  0  0  0
  190.9390  177.6160  139.4830 C   0  0  0  0  0  2  0  0  0  0  0  0
  193.7570  177.2310  139.3870 O   0  0  0  0  0  0  0  0  0  0  0  0
  191.6220  176.6420  138.6450 N   0  0  0  0  0  2  0  0  0  0  0  0
  193.0480  176.5010  138.6420 C   0  0  0  0  0  0  0  0  0  0  0  0
  194.8850  175.0770  138.0660 N   0  0  0  0  0  0  0  0  0  0  0  0
  193.6900  175.5020  137.7730 C   0  0  0  0  0  0  0  0  0  0  0  0
  195.6290  174.0950  137.2790 C   0  0  1  0  0  3  0  0  0  0  0  0
  197.0870  174.5070  137.1910 C   0  0  0  0  0  2  0  0  0  0  0  0
  197.7210  174.2680  138.4110 O   0  0  0  0  0  1  0  0  0  0  0  0
  195.4790  171.7340  138.4190 N   0  0  0  0  0  0  0  0  0  0  0  0
  195.5450  172.7750  137.9160 C   0  0  0  0  0  0  0  0  0  0  0  0
  192.9730  175.0190  136.5470 C   0  0  0  0  0  2  0  0  0  0  0  0
  192.0250  173.8920  136.9060 C   0  0  0  0  0  2  0  0  0  0  0  0
  190.7120  174.0960  136.1810 C   0  0  0  0  0  2  0  0  0  0  0  0
  189.5540  173.5980  137.0330 C   0  0  0  0  0  2  0  0  0  0  0  0
  188.4860  172.9160  136.1830 C   0  0  0  0  0  2  0  0  0  0  0  0
  187.4680  172.1840  137.0460 C   0  0  0  0  0  2  0  0  0  0  0  0
  186.3470  173.1210  137.4630 C   0  0  0  0  0  1  0  0  0  0  0  0
  1  6  1  0  0  0  0
  3 10  1  1  0  0  0
  3  8  1  0  0  0  0
  4  5  2  0  0  0  0
  5  2  1  0  0  0  0
  6  4  1  0  0  0  0
  7 39  1  6  0  0  0
  7  3  1  0  0  0  0
  7  6  1  0  0  0  0
  8  4  1  0  0  0  0
  9  5  1  0  0  0  0
 11 13  1  6  0  0  0
 11 10  1  0  0  0  0
 11 14  1  0  0  0  0
 12 13  2  0  0  0  0
 14 16  1  0  0  0  0
 16 15  1  1  0  0  0
 17 16  1  0  0  0  0
 18 17  1  0  0  0  0
 20 21  1  0  0  0  0
 21 19  2  0  0  0  0
 21 18  1  0  0  0  0
 22 33  1  0  0  0  0
 23 24  1  0  0  0  0
 24 22  1  6  0  0  0
 24 30  1  0  0  0  0
 25 26  1  1  0  0  0
 25 30  1  0  0  0  0
 25 28  1  0  0  0  0
 27 20  1  1  0  0  0
 28 34  1  6  0  0  0
 28 27  1  0  0  0  0
 29 26  1  0  0  0  0
 30 23  1  6  0  0  0
 30 32  1  0  0  0  0
 31 33  1  0  0  0  0
 31 29  1  0  0  0  0
 32 27  1  0  0  0  0
 34 35  1  1  0  0  0
 36 34  1  0  0  0  0
 37 36  1  0  0  0  0
 38 37  1  0  0  0  0
 40 39  1  0  0  0  0
 41 40  1  0  0  0  0
 43 41  1  0  0  0  0
 44 43  1  0  0  0  0
 44 42  2  0  0  0  0
 46 45  2  0  0  0  0
 46 44  1  0  0  0  0
 47 48  1  1  0  0  0
 47 51  1  0  0  0  0
 47 45  1  0  0  0  0
 48 49  1  0  0  0  0
 51 50  3  0  0  0  0
 52 53  1  0  0  0  0
 52 46  1  0  0  0  0
 54 53  1  0  0  0  0
 54 55  1  0  0  0  0
 56 55  1  0  0  0  0
 56 57  1  0  0  0  0
 57 58  1  0  0  0  0
M  END
>  <MODEL>
1

>  <REMARK>
 VINA RESULT:      -7.0      0.000      0.000
  Name = 
  26 active torsions:
  status: ('A' for Active; 'I' for Inactive)
    1  A    between atoms: C_1  and  C_30
    2  A    between atoms: C_1  and  C_45
    3  A    between atoms: C_1  and  C_58
    4  A    between atoms: CA_3  and  N_29
    5  A    between atoms: CA_3  and  C_33
    6  A    between atoms: CA_3  and  C_56
    7  A    between atoms: C_9  and  C_24
    8  A    between atoms: C_9  and  C_36
    9  A    between atoms: N_10  and  C_19
   10  A    between atoms: C_12  and  C_39
   11  A    between atoms: C_12  and  C_48
   12  A    between atoms: C_15  and  C_36
   13  A    between atoms: C_16  and  C_58
   14  A    between atoms: N_22  and  C_55
   15  A    between atoms: C_23  and  C_49
   16  A    between atoms: C_25  and  C_41
   17  A    between atoms: C_25  and  C_51
   18  A    between atoms: C_26  and  C_34
   19  A    between atoms: C_30  and  C_31
   20  A    between atoms: C_31  and  C_43
   21  A    between atoms: C_34  and  C_39
   22  A    between atoms: C_38  and  O_53
   23  A    between atoms: C_42  and  C_48
   24  A    between atoms: C_42  and  C_49
   25  A    between atoms: C_43  and  O_53
   26  A    between atoms: C_51  and  C_55
                            x       y       z     vdW  Elec       q    Type
                         _______ _______ _______ _____ _____    ______ ____

>  <TORSDO>
F 26

$$$$
=
 OpenBabel10222418233D

 58 61  0  0  1  0  0  0  0  0999 V2000
  193.9290  176.5410  138.6920 F   0  0  0  0  0  0  0  0  0  0  0  0
  194.4820  172.5410  136.8080 C   0  0  0  0  0  1  0  0  0  0  0  0
  191.0480  175.1270  136.9380 C   0  0  2  0  0  3  0  0  0  0  0  0
  193.2030  174.5130  137.5280 C   0  0  0  0  0  0  0  0  0  0  0  0
  194.3360  173.8010  137.5910 C   0  0  0  0  0  0  0  0  0  0  0  0
  192.9610  175.7190  138.2310 N   0  0  0  0  0  0  0  0  0  0  0  0
  191.6300  176.1950  137.8810 C   0  0  2  0  0  3  0  0  0  0  0  0
  192.0910  174.1270  136.7430 N   0  0  0  0  0  2  0  0  0  0  0  0
  195.4750  174.2140  138.4590 C   0  0  0  0  0  1  0  0  0  0  0  0
  190.6680  175.7520  135.6050 C   0  0  0  0  0  2  0  0  0  0  0  0
  189.1750  175.6050  135.3650 C   0  0  2  0  0  3  0  0  0  0  0  0
  188.7880  177.8690  135.8980 O   0  0  0  0  0  0  0  0  0  0  0  0
  188.5790  176.9510  135.1230 C   0  0  0  0  0  3  0  0  0  0  0  0
  188.5270  174.9540  136.5820 C   0  0  0  0  0  2  0  0  0  0  0  0
  187.9330  172.5450  136.4560 C   0  0  0  0  0  1  0  0  0  0  0  0
  187.4550  173.9600  136.1690 C   0  0  1  0  0  3  0  0  0  0  0  0
  186.1920  174.2480  136.9590 C   0  0  0  0  0  2  0  0  0  0  0  0
  185.9760  175.6500  137.0450 O   0  0  0  0  0  0  0  0  0  0  0  0
  184.8150  177.1380  135.7180 O   0  0  0  0  0  0  0  0  0  0  0  0
  183.5500  175.8130  137.1650 N   0  0  0  0  0  2  0  0  0  0  0  0
  184.7920  176.2380  136.6020 C   0  0  0  0  0  0  0  0  0  0  0  0
  180.0650  179.8250  139.1260 C   0  0  0  0  0  2  0  0  0  0  0  0
  180.1390  178.7370  136.9330 C   0  0  0  0  0  2  0  0  0  0  0  0
  180.9390  179.5800  137.9030 C   0  0  2  0  0  3  0  0  0  0  0  0
  180.7990  176.9460  138.5510 C   0  0  2  0  0  3  0  0  0  0  0  0
  181.6100  176.7400  139.8420 C   0  0  0  0  0  2  0  0  0  0  0  0
  182.2630  176.3430  136.7400 C   0  0  1  0  0  3  0  0  0  0  0  0
  181.1450  175.7930  137.6410 C   0  0  2  0  0  3  0  0  0  0  0  0
  182.0180  178.0000  140.6000 C   0  0  0  0  0  2  0  0  0  0  0  0
  181.2850  178.1030  137.7070 C   0  0  1  0  0  0  0  0  0  0  0  0
  180.8150  178.8510  140.9700 C   0  0  0  0  0  2  0  0  0  0  0  0
  182.2980  177.7550  136.8110 O   0  0  0  0  0  0  0  0  0  0  0  0
  180.8630  180.0470  140.2510 O   0  0  0  0  0  0  0  0  0  0  0  0
  179.9300  175.3760  136.8070 C   0  0  1  0  0  3  0  0  0  0  0  0
  180.2640  175.3640  135.4510 O   0  0  0  0  0  1  0  0  0  0  0  0
  179.4590  173.9890  137.2200 C   0  0  0  0  0  2  0  0  0  0  0  0
  180.6280  173.0230  137.2370 C   0  0  0  0  0  2  0  0  0  0  0  0
  180.1660  171.7360  137.5070 O   0  0  0  0  0  1  0  0  0  0  0  0
  190.7480  176.2770  139.1180 C   0  0  0  0  0  2  0  0  0  0  0  0
  191.0370  177.5290  139.9260 C   0  0  0  0  0  2  0  0  0  0  0  0
  191.9690  177.1970  141.0770 C   0  0  0  0  0  2  0  0  0  0  0  0
  190.4460  175.5010  142.7800 O   0  0  0  0  0  0  0  0  0  0  0  0
  191.3680  177.6010  142.3400 N   0  0  0  0  0  2  0  0  0  0  0  0
  190.6080  176.6960  143.1490 C   0  0  0  0  0  0  0  0  0  0  0  0
  190.6540  176.9360  145.5310 N   0  0  0  0  0  0  0  0  0  0  0  0
  190.0180  177.1550  144.4170 C   0  0  0  0  0  0  0  0  0  0  0  0
  190.1690  177.3350  146.8520 C   0  0  1  0  0  3  0  0  0  0  0  0
  189.0190  176.4370  147.2680 C   0  0  0  0  0  2  0  0  0  0  0  0
  188.2830  177.0490  148.2840 O   0  0  0  0  0  1  0  0  0  0  0  0
  192.1000  177.1170  148.6180 N   0  0  0  0  0  0  0  0  0  0  0  0
  191.2490  177.2140  147.8390 C   0  0  0  0  0  0  0  0  0  0  0  0
  188.6800  177.8320  144.4070 C   0  0  0  0  0  2  0  0  0  0  0  0
  188.0510  177.7230  143.0320 C   0  0  0  0  0  2  0  0  0  0  0  0
  186.5490  177.5980  143.1810 C   0  0  0  0  0  2  0  0  0  0  0  0
  186.1550  177.6630  144.6490 C   0  0  0  0  0  2  0  0  0  0  0  0
  185.3300  178.9100  144.9530 C   0  0  0  0  0  2  0  0  0  0  0  0
  184.2780  179.1600  143.8820 C   0  0  0  0  0  2  0  0  0  0  0  0
  182.8940  178.8020  144.3990 C   0  0  0  0  0  1  0  0  0  0  0  0
  2  5  1  0  0  0  0
  3 10  1  6  0  0  0
  3  7  1  0  0  0  0
  4  5  2  0  0  0  0
  4  6  1  0  0  0  0
  5  9  1  0  0  0  0
  6  1  1  0  0  0  0
  7  6  1  0  0  0  0
  7 39  1  1  0  0  0
  8  3  1  0  0  0  0
  8  4  1  0  0  0  0
 11 13  1  1  0  0  0
 11 10  1  0  0  0  0
 11 14  1  0  0  0  0
 13 12  2  0  0  0  0
 16 15  1  1  0  0  0
 16 14  1  0  0  0  0
 16 17  1  0  0  0  0
 17 18  1  0  0  0  0
 19 21  2  0  0  0  0
 21 18  1  0  0  0  0
 21 20  1  0  0  0  0
 22 33  1  0  0  0  0
 24 23  1  6  0  0  0
 24 22  1  0  0  0  0
 25 26  1  1  0  0  0
 26 29  1  0  0  0  0
 27 32  1  0  0  0  0
 27 20  1  1  0  0  0
 27 28  1  0  0  0  0
 28 34  1  6  0  0  0
 28 25  1  0  0  0  0
 29 31  1  0  0  0  0
 30 23  1  6  0  0  0
 30 24  1  0  0  0  0
 30 25  1  0  0  0  0
 32 30  1  0  0  0  0
 33 31  1  0  0  0  0
 34 35  1  6  0  0  0
 34 36  1  0  0  0  0
 36 37  1  0  0  0  0
 37 38  1  0  0  0  0
 39 40  1  0  0  0  0
 40 41  1  0  0  0  0
 41 43  1  0  0  0  0
 42 44  2  0  0  0  0
 43 44  1  0  0  0  0
 44 46  1  0  0  0  0
 45 47  1  0  0  0  0
 46 45  2  0  0  0  0
 47 48  1  1  0  0  0
 47 51  1  0  0  0  0
 48 49  1  0  0  0  0
 51 50  3  0  0  0  0
 52 46  1  0  0  0  0
 53 54  1  0  0  0  0
 53 52  1  0  0  0  0
 54 55  1  0  0  0  0
 55 56  1  0  0  0  0
 57 58  1  0  0  0  0
 57 56  1  0  0  0  0
M  END
>  <MODEL>
2

>  <REMARK>
 VINA RESULT:      -6.0      2.700      8.064
  Name = 
  26 active torsions:
  status: ('A' for Active; 'I' for Inactive)
    1  A    between atoms: C_1  and  C_30
    2  A    between atoms: C_1  and  C_45
    3  A    between atoms: C_1  and  C_58
    4  A    between atoms: CA_3  and  N_29
    5  A    between atoms: CA_3  and  C_33
    6  A    between atoms: CA_3  and  C_56
    7  A    between atoms: C_9  and  C_24
    8  A    between atoms: C_9  and  C_36
    9  A    between atoms: N_10  and  C_19
   10  A    between atoms: C_12  and  C_39
   11  A    between atoms: C_12  and  C_48
   12  A    between atoms: C_15  and  C_36
   13  A    between atoms: C_16  and  C_58
   14  A    between atoms: N_22  and  C_55
   15  A    between atoms: C_23  and  C_49
   16  A    between atoms: C_25  and  C_41
   17  A    between atoms: C_25  and  C_51
   18  A    between atoms: C_26  and  C_34
   19  A    between atoms: C_30  and  C_31
   20  A    between atoms: C_31  and  C_43
   21  A    between atoms: C_34  and  C_39
   22  A    between atoms: C_38  and  O_53
   23  A    between atoms: C_42  and  C_48
   24  A    between atoms: C_42  and  C_49
   25  A    between atoms: C_43  and  O_53
   26  A    between atoms: C_51  and  C_55
                            x       y       z     vdW  Elec       q    Type
                         _______ _______ _______ _____ _____    ______ ____

>  <TORSDO>
F 26

$$$$
=
 OpenBabel10222418233D

 58 61  0  0  1  0  0  0  0  0999 V2000
  189.4520  175.8450  144.0310 F   0  0  0  0  0  0  0  0  0  0  0  0
  188.4050  177.9880  147.7940 C   0  0  0  0  0  1  0  0  0  0  0  0
  186.7770  178.3300  143.8270 C   0  0  2  0  0  3  0  0  0  0  0  0
  188.2990  177.5310  145.3810 C   0  0  0  0  0  0  0  0  0  0  0  0
  188.9170  177.3380  146.5540 C   0  0  0  0  0  0  0  0  0  0  0  0
  188.7040  176.9630  144.1470 N   0  0  0  0  0  0  0  0  0  0  0  0
  187.7660  177.3900  143.1170 C   0  0  2  0  0  3  0  0  0  0  0  0
  187.1540  178.3480  145.2360 N   0  0  0  0  0  2  0  0  0  0  0  0
  190.1460  176.5020  146.6650 C   0  0  0  0  0  1  0  0  0  0  0  0
  185.3550  177.8140  143.6740 C   0  0  0  0  0  2  0  0  0  0  0  0
  184.3640  178.9490  143.8580 C   0  0  2  0  0  3  0  0  0  0  0  0
  184.2220  178.7320  146.2020 O   0  0  0  0  0  0  0  0  0  0  0  0
  183.6240  178.7550  145.1390 C   0  0  0  0  0  3  0  0  0  0  0  0
  183.3910  178.9690  142.6860 C   0  0  0  0  0  2  0  0  0  0  0  0
  181.2310  180.0060  143.3470 C   0  0  0  0  0  1  0  0  0  0  0  0
  181.9690  178.6910  143.1460 C   0  0  1  0  0  3  0  0  0  0  0  0
  181.2670  177.8630  142.0860 C   0  0  0  0  0  2  0  0  0  0  0  0
  180.7150  178.7090  141.0870 O   0  0  0  0  0  0  0  0  0  0  0  0
  181.4390  180.1310  139.4200 O   0  0  0  0  0  0  0  0  0  0  0  0
  181.9930  177.8740  139.1910 N   0  0  0  0  0  2  0  0  0  0  0  0
  181.3800  178.9600  139.8880 C   0  0  0  0  0  0  0  0  0  0  0  0
  182.8490  174.6760  134.5950 C   0  0  0  0  0  2  0  0  0  0  0  0
  183.2090  177.0750  134.9340 C   0  0  0  0  0  2  0  0  0  0  0  0
  182.1580  175.9850  134.9540 C   0  0  2  0  0  3  0  0  0  0  0  0
  183.7720  176.0320  137.1390 C   0  0  2  0  0  3  0  0  0  0  0  0
  183.3130  174.9050  138.0810 C   0  0  0  0  0  2  0  0  0  0  0  0
  182.7400  178.0460  137.9530 C   0  0  1  0  0  3  0  0  0  0  0  0
  184.0430  177.2330  138.0100 C   0  0  2  0  0  3  0  0  0  0  0  0
  182.3420  173.8820  137.4980 C   0  0  0  0  0  2  0  0  0  0  0  0
  182.6650  176.5830  136.2670 C   0  0  1  0  0  0  0  0  0  0  0  0
  182.9050  173.2120  136.2570 C   0  0  0  0  0  2  0  0  0  0  0  0
  181.9410  177.6150  136.8680 O   0  0  0  0  0  0  0  0  0  0  0  0
  182.1520  173.5980  135.1460 O   0  0  0  0  0  0  0  0  0  0  0  0
  185.2170  178.0480  137.4600 C   0  0  1  0  0  3  0  0  0  0  0  0
  185.7180  178.8930  138.4530 O   0  0  0  0  0  1  0  0  0  0  0  0
  186.3270  177.1210  136.9850 C   0  0  0  0  0  2  0  0  0  0  0  0
  187.0490  177.7340  135.8000 C   0  0  0  0  0  2  0  0  0  0  0  0
  187.9920  178.6550  136.2540 O   0  0  0  0  0  1  0  0  0  0  0  0
  188.4850  178.1770  142.0320 C   0  0  0  0  0  2  0  0  0  0  0  0
  189.0890  177.2600  140.9840 C   0  0  0  0  0  2  0  0  0  0  0  0
  189.4600  178.0610  139.7500 C   0  0  0  0  0  2  0  0  0  0  0  0
  191.7270  176.9740  138.4150 O   0  0  0  0  0  0  0  0  0  0  0  0
  189.4080  177.2110  138.5690 N   0  0  0  0  0  2  0  0  0  0  0  0
  190.5900  176.6990  137.9420 C   0  0  0  0  0  0  0  0  0  0  0  0
  189.4970  174.9990  136.6560 N   0  0  0  0  0  0  0  0  0  0  0  0
  190.4830  175.8450  136.7480 C   0  0  0  0  0  0  0  0  0  0  0  0
  189.2880  174.0940  135.5280 C   0  0  1  0  0  3  0  0  0  0  0  0
  189.8790  172.7330  135.8450 C   0  0  0  0  0  2  0  0  0  0  0  0
  191.2660  172.7710  135.6930 O   0  0  0  0  0  1  0  0  0  0  0  0
  186.7180  173.8190  135.0640 N   0  0  0  0  0  0  0  0  0  0  0  0
  187.8510  173.9400  135.2690 C   0  0  0  0  0  0  0  0  0  0  0  0
  191.5290  175.9380  135.6770 C   0  0  0  0  0  2  0  0  0  0  0  0
  192.9100  175.9880  136.3000 C   0  0  0  0  0  2  0  0  0  0  0  0
  193.9490  176.0550  135.2010 C   0  0  0  0  0  2  0  0  0  0  0  0
  195.2370  175.3800  135.6490 C   0  0  0  0  0  2  0  0  0  0  0  0
  194.9690  174.2910  136.6830 C   0  0  0  0  0  2  0  0  0  0  0  0
  196.2030  174.0050  137.5270 C   0  0  0  0  0  2  0  0  0  0  0  0
  195.8500  173.9980  139.0050 C   0  0  0  0  0  1  0  0  0  0  0  0
  1  6  1  0  0  0  0
  3 10  1  1  0  0  0
  3  8  1  0  0  0  0
  4  5  2  0  0  0  0
  5  9  1  0  0  0  0
  5  2  1  0  0  0  0
  6  4  1  0  0  0  0
  7 39  1  6  0  0  0
  7  3  1  0  0  0  0
  7  6  1  0  0  0  0
  8  4  1  0  0  0  0
 10 11  1  0  0  0  0
 11 14  1  6  0  0  0
 11 13  1  0  0  0  0
 13 12  2  0  0  0  0
 14 16  1  0  0  0  0
 16 15  1  6  0  0  0
 17 16  1  0  0  0  0
 18 17  1  0  0  0  0
 19 21  2  0  0  0  0
 20 21  1  0  0  0  0
 21 18  1  0  0  0  0
 22 33  1  0  0  0  0
 23 24  1  0  0  0  0
 24 22  1  1  0  0  0
 24 30  1  0  0  0  0
 25 28  1  0  0  0  0
 25 26  1  1  0  0  0
 27 28  1  0  0  0  0
 27 20  1  1  0  0  0
 28 34  1  6  0  0  0
 29 26  1  0  0  0  0
 30 23  1  6  0  0  0
 30 32  1  0  0  0  0
 30 25  1  0  0  0  0
 31 29  1  0  0  0  0
 32 27  1  0  0  0  0
 33 31  1  0  0  0  0
 34 35  1  1  0  0  0
 36 34  1  0  0  0  0
 37 38  1  0  0  0  0
 37 36  1  0  0  0  0
 40 39  1  0  0  0  0
 41 40  1  0  0  0  0
 43 41  1  0  0  0  0
 44 42  2  0  0  0  0
 44 43  1  0  0  0  0
 45 46  2  0  0  0  0
 46 44  1  0  0  0  0
 47 51  1  1  0  0  0
 47 48  1  0  0  0  0
 47 45  1  0  0  0  0
 49 48  1  0  0  0  0
 50 51  3  0  0  0  0
 52 53  1  0  0  0  0
 52 46  1  0  0  0  0
 54 55  1  0  0  0  0
 54 53  1  0  0  0  0
 55 56  1  0  0  0  0
 56 57  1  0  0  0  0
 57 58  1  0  0  0  0
M  END
>  <MODEL>
3

>  <REMARK>
 VINA RESULT:      -5.2      2.461      4.664
  Name = 
  26 active torsions:
  status: ('A' for Active; 'I' for Inactive)
    1  A    between atoms: C_1  and  C_30
    2  A    between atoms: C_1  and  C_45
    3  A    between atoms: C_1  and  C_58
    4  A    between atoms: CA_3  and  N_29
    5  A    between atoms: CA_3  and  C_33
    6  A    between atoms: CA_3  and  C_56
    7  A    between atoms: C_9  and  C_24
    8  A    between atoms: C_9  and  C_36
    9  A    between atoms: N_10  and  C_19
   10  A    between atoms: C_12  and  C_39
   11  A    between atoms: C_12  and  C_48
   12  A    between atoms: C_15  and  C_36
   13  A    between atoms: C_16  and  C_58
   14  A    between atoms: N_22  and  C_55
   15  A    between atoms: C_23  and  C_49
   16  A    between atoms: C_25  and  C_41
   17  A    between atoms: C_25  and  C_51
   18  A    between atoms: C_26  and  C_34
   19  A    between atoms: C_30  and  C_31
   20  A    between atoms: C_31  and  C_43
   21  A    between atoms: C_34  and  C_39
   22  A    between atoms: C_38  and  O_53
   23  A    between atoms: C_42  and  C_48
   24  A    between atoms: C_42  and  C_49
   25  A    between atoms: C_43  and  O_53
   26  A    between atoms: C_51  and  C_55
                            x       y       z     vdW  Elec       q    Type
                         _______ _______ _______ _____ _____    ______ ____

>  <TORSDO>
F 26

$$$$
=
 OpenBabel10222418233D

 58 61  0  0  1  0  0  0  0  0999 V2000
  182.8710  177.6990  135.6560 F   0  0  0  0  0  0  0  0  0  0  0  0
  180.0970  180.5070  137.7220 C   0  0  0  0  0  1  0  0  0  0  0  0
  182.0140  176.9220  139.1260 C   0  0  2  0  0  3  0  0  0  0  0  0
  181.4440  178.4640  137.4920 C   0  0  0  0  0  0  0  0  0  0  0  0
  180.8950  179.5410  136.9150 C   0  0  0  0  0  0  0  0  0  0  0  0
  182.2160  177.4850  136.8180 N   0  0  0  0  0  0  0  0  0  0  0  0
  182.6500  176.4930  137.7920 C   0  0  2  0  0  3  0  0  0  0  0  0
  181.3020  178.1680  138.8680 N   0  0  0  0  0  2  0  0  0  0  0  0
  181.0310  179.8020  135.4530 C   0  0  0  0  0  1  0  0  0  0  0  0
  183.0900  177.1430  140.1760 C   0  0  0  0  0  2  0  0  0  0  0  0
  183.0460  178.5760  140.6770 C   0  0  2  0  0  3  0  0  0  0  0  0
  185.0530  178.9930  139.5120 O   0  0  0  0  0  0  0  0  0  0  0  0
  184.3940  179.1960  140.5180 C   0  0  0  0  0  3  0  0  0  0  0  0
  182.6300  178.5900  142.1430 C   0  0  0  0  0  2  0  0  0  0  0  0
  183.2450  180.1780  143.9520 C   0  0  0  0  0  1  0  0  0  0  0  0
  183.7600  179.0830  143.0310 C   0  0  1  0  0  3  0  0  0  0  0  0
  184.2760  177.9180  143.8550 C   0  0  0  0  0  2  0  0  0  0  0  0
  184.4850  178.3230  145.2010 O   0  0  0  0  0  0  0  0  0  0  0  0
  185.8920  179.4300  146.6570 O   0  0  0  0  0  0  0  0  0  0  0  0
  186.9010  178.0570  145.0610 N   0  0  0  0  0  2  0  0  0  0  0  0
  185.7540  178.6380  145.6840 C   0  0  0  0  0  0  0  0  0  0  0  0
  192.0060  177.8690  142.6130 C   0  0  0  0  0  2  0  0  0  0  0  0
  191.3050  178.9100  144.7170 C   0  0  0  0  0  2  0  0  0  0  0  0
  191.0770  178.9110  143.2200 C   0  0  2  0  0  3  0  0  0  0  0  0
  189.9050  176.8430  144.5350 C   0  0  2  0  0  3  0  0  0  0  0  0
  189.1550  175.9940  143.4940 C   0  0  0  0  0  2  0  0  0  0  0  0
  188.2620  178.2990  145.5190 C   0  0  1  0  0  3  0  0  0  0  0  0
  188.9900  176.9610  145.7290 C   0  0  2  0  0  3  0  0  0  0  0  0
  189.4660  176.2820  142.0280 C   0  0  0  0  0  2  0  0  0  0  0  0
  190.0300  178.3020  144.1530 C   0  0  1  0  0  0  0  0  0  0  0  0
  190.9470  176.1370  141.7250 C   0  0  0  0  0  2  0  0  0  0  0  0
  188.9420  179.0800  144.5550 O   0  0  0  0  0  0  0  0  0  0  0  0
  191.4750  177.3910  141.4140 O   0  0  0  0  0  0  0  0  0  0  0  0
  189.7960  176.9790  147.0310 C   0  0  1  0  0  3  0  0  0  0  0  0
  188.9440  176.7870  148.1220 O   0  0  0  0  0  1  0  0  0  0  0  0
  190.8470  175.8790  147.0160 C   0  0  0  0  0  2  0  0  0  0  0  0
  192.1280  176.3710  147.6640 C   0  0  0  0  0  2  0  0  0  0  0  0
  193.0770  175.3500  147.6530 O   0  0  0  0  0  1  0  0  0  0  0  0
  182.1170  175.1160  137.4250 C   0  0  0  0  0  2  0  0  0  0  0  0
  183.1840  174.0470  137.5750 C   0  0  0  0  0  2  0  0  0  0  0  0
  183.9500  173.8960  136.2740 C   0  0  0  0  0  2  0  0  0  0  0  0
  186.4180  173.4990  137.6330 O   0  0  0  0  0  0  0  0  0  0  0  0
  185.0770  174.8170  136.2480 N   0  0  0  0  0  2  0  0  0  0  0  0
  186.2930  174.5580  136.9590 C   0  0  0  0  0  0  0  0  0  0  0  0
  187.1830  176.7660  137.2220 N   0  0  0  0  0  0  0  0  0  0  0  0
  187.4020  175.5230  136.9020 C   0  0  0  0  0  0  0  0  0  0  0  0
  188.1980  177.8170  137.1970 C   0  0  1  0  0  3  0  0  0  0  0  0
  187.7360  178.9550  136.3060 C   0  0  0  0  0  2  0  0  0  0  0  0
  187.0870  178.4440  135.1810 O   0  0  0  0  0  1  0  0  0  0  0  0
  188.5910  178.7420  139.6230 N   0  0  0  0  0  0  0  0  0  0  0  0
  188.4180  178.3330  138.5540 C   0  0  0  0  0  0  0  0  0  0  0  0
  188.7550  175.0670  136.4410 C   0  0  0  0  0  2  0  0  0  0  0  0
  189.6810  174.8980  137.6290 C   0  0  0  0  0  2  0  0  0  0  0  0
  190.9060  175.7670  137.4330 C   0  0  0  0  0  2  0  0  0  0  0  0
  191.8540  175.1260  136.4300 C   0  0  0  0  0  2  0  0  0  0  0  0
  192.5950  173.9390  137.0390 C   0  0  0  0  0  2  0  0  0  0  0  0
  193.9490  174.3530  137.5970 C   0  0  0  0  0  2  0  0  0  0  0  0
  195.0450  173.4410  137.0700 C   0  0  0  0  0  1  0  0  0  0  0  0
  1  6  1  0  0  0  0
  3 10  1  1  0  0  0
  4  8  1  0  0  0  0
  5  4  2  0  0  0  0
  5  2  1  0  0  0  0
  6  4  1  0  0  0  0
  6  7  1  0  0  0  0
  7 39  1  6  0  0  0
  7  3  1  0  0  0  0
  8  3  1  0  0  0  0
  9  5  1  0  0  0  0
 11 10  1  1  0  0  0
 11 14  1  0  0  0  0
 12 13  2  0  0  0  0
 13 11  1  0  0  0  0
 14 16  1  0  0  0  0
 16 17  1  0  0  0  0
 16 15  1  1  0  0  0
 17 18  1  0  0  0  0
 18 21  1  0  0  0  0
 20 21  1  0  0  0  0
 21 19  2  0  0  0  0
 24 22  1  6  0  0  0
 24 30  1  0  0  0  0
 24 23  1  0  0  0  0
 25 26  1  6  0  0  0
 25 28  1  0  0  0  0
 27 20  1  6  0  0  0
 27 28  1  0  0  0  0
 28 34  1  1  0  0  0
 29 26  1  0  0  0  0
 30 25  1  0  0  0  0
 30 32  1  0  0  0  0
 30 23  1  1  0  0  0
 31 29  1  0  0  0  0
 32 27  1  0  0  0  0
 33 31  1  0  0  0  0
 33 22  1  0  0  0  0
 34 35  1  1  0  0  0
 36 34  1  0  0  0  0
 36 37  1  0  0  0  0
 38 37  1  0  0  0  0
 39 40  1  0  0  0  0
 41 40  1  0  0  0  0
 43 41  1  0  0  0  0
 43 44  1  0  0  0  0
 44 42  2  0  0  0  0
 46 44  1  0  0  0  0
 46 45  2  0  0  0  0
 47 48  1  6  0  0  0
 47 45  1  0  0  0  0
 47 51  1  0  0  0  0
 49 48  1  0  0  0  0
 51 50  3  0  0  0  0
 52 46  1  0  0  0  0
 52 53  1  0  0  0  0
 54 53  1  0  0  0  0
 55 56  1  0  0  0  0
 55 54  1  0  0  0  0
 56 57  1  0  0  0  0
 58 57  1  0  0  0  0
M  END
>  <MODEL>
4

>  <REMARK>
 VINA RESULT:      -5.2      3.443      9.263
  Name = 
  26 active torsions:
  status: ('A' for Active; 'I' for Inactive)
    1  A    between atoms: C_1  and  C_30
    2  A    between atoms: C_1  and  C_45
    3  A    between atoms: C_1  and  C_58
    4  A    between atoms: CA_3  and  N_29
    5  A    between atoms: CA_3  and  C_33
    6  A    between atoms: CA_3  and  C_56
    7  A    between atoms: C_9  and  C_24
    8  A    between atoms: C_9  and  C_36
    9  A    between atoms: N_10  and  C_19
   10  A    between atoms: C_12  and  C_39
   11  A    between atoms: C_12  and  C_48
   12  A    between atoms: C_15  and  C_36
   13  A    between atoms: C_16  and  C_58
   14  A    between atoms: N_22  and  C_55
   15  A    between atoms: C_23  and  C_49
   16  A    between atoms: C_25  and  C_41
   17  A    between atoms: C_25  and  C_51
   18  A    between atoms: C_26  and  C_34
   19  A    between atoms: C_30  and  C_31
   20  A    between atoms: C_31  and  C_43
   21  A    between atoms: C_34  and  C_39
   22  A    between atoms: C_38  and  O_53
   23  A    between atoms: C_42  and  C_48
   24  A    between atoms: C_42  and  C_49
   25  A    between atoms: C_43  and  O_53
   26  A    between atoms: C_51  and  C_55
                            x       y       z     vdW  Elec       q    Type
                         _______ _______ _______ _____ _____    ______ ____

>  <TORSDO>
F 26

$$$$
=
 OpenBabel10222418233D

 58 61  0  0  1  0  0  0  0  0999 V2000
  186.6170  180.2540  146.7000 F   0  0  0  0  0  0  0  0  0  0  0  0
  188.5100  176.2990  147.4930 C   0  0  0  0  0  1  0  0  0  0  0  0
  185.5950  177.4730  144.5560 C   0  0  2  0  0  3  0  0  0  0  0  0
  186.9300  177.8430  146.4140 C   0  0  0  0  0  0  0  0  0  0  0  0
  187.8160  177.6150  147.3930 C   0  0  0  0  0  0  0  0  0  0  0  0
  186.2160  179.0530  146.2300 N   0  0  0  0  0  0  0  0  0  0  0  0
  185.3760  178.9140  145.0480 C   0  0  2  0  0  3  0  0  0  0  0  0
  186.5930  176.8770  145.4360 N   0  0  0  0  0  2  0  0  0  0  0  0
  188.1190  178.6410  148.4310 C   0  0  0  0  0  1  0  0  0  0  0  0
  186.0990  177.4760  143.1220 C   0  0  0  0  0  2  0  0  0  0  0  0
  187.4570  178.1530  143.0460 C   0  0  2  0  0  3  0  0  0  0  0  0
  186.5470  179.1050  141.0900 O   0  0  0  0  0  0  0  0  0  0  0  0
  187.5230  178.9910  141.8140 C   0  0  0  0  0  3  0  0  0  0  0  0
  188.5510  177.0930  143.0200 C   0  0  0  0  0  2  0  0  0  0  0  0
  190.3250  178.1270  144.4200 C   0  0  0  0  0  1  0  0  0  0  0  0
  189.9330  177.7280  143.0060 C   0  0  1  0  0  3  0  0  0  0  0  0
  190.9270  176.7200  142.4600 C   0  0  0  0  0  2  0  0  0  0  0  0
  190.3770  176.0480  141.3350 O   0  0  0  0  0  0  0  0  0  0  0  0
  191.0150  177.5890  139.7400 O   0  0  0  0  0  0  0  0  0  0  0  0
  189.1170  176.3120  139.2690 N   0  0  0  0  0  2  0  0  0  0  0  0
  190.2120  176.6870  140.1080 C   0  0  0  0  0  0  0  0  0  0  0  0
  184.8290  176.1990  135.5700 C   0  0  0  0  0  2  0  0  0  0  0  0
  186.7510  177.7110  135.7080 C   0  0  0  0  0  2  0  0  0  0  0  0
  185.5340  177.2150  136.4590 C   0  0  2  0  0  3  0  0  0  0  0  0
  187.6350  175.4930  136.4580 C   0  0  2  0  0  3  0  0  0  0  0  0
  187.2240  174.2560  137.2750 C   0  0  0  0  0  2  0  0  0  0  0  0
  188.8860  176.8980  137.9560 C   0  0  1  0  0  3  0  0  0  0  0  0
  189.0480  175.8250  136.8680 C   0  0  2  0  0  3  0  0  0  0  0  0
  185.7410  174.1240  137.6130 C   0  0  0  0  0  2  0  0  0  0  0  0
  186.9310  176.7630  136.8830 C   0  0  1  0  0  0  0  0  0  0  0  0
  184.8740  174.1320  136.3660 C   0  0  0  0  0  2  0  0  0  0  0  0
  187.5810  177.4430  137.9160 O   0  0  0  0  0  0  0  0  0  0  0  0
  184.1050  175.2970  136.3520 O   0  0  0  0  0  0  0  0  0  0  0  0
  189.8440  176.3720  135.6790 C   0  0  1  0  0  3  0  0  0  0  0  0
  190.2690  177.6750  135.9490 O   0  0  0  0  0  1  0  0  0  0  0  0
  191.0570  175.4960  135.4070 C   0  0  0  0  0  2  0  0  0  0  0  0
  191.9560  175.4550  136.6290 C   0  0  0  0  0  2  0  0  0  0  0  0
  191.9600  174.1670  137.1620 O   0  0  0  0  0  1  0  0  0  0  0  0
  183.9080  179.0810  145.4130 C   0  0  0  0  0  2  0  0  0  0  0  0
  183.0000  178.4450  144.3760 C   0  0  0  0  0  2  0  0  0  0  0  0
  182.0190  179.4760  143.8470 C   0  0  0  0  0  2  0  0  0  0  0  0
  182.4080  179.5170  141.0290 O   0  0  0  0  0  0  0  0  0  0  0  0
  181.1300  178.8640  142.8710 N   0  0  0  0  0  2  0  0  0  0  0  0
  181.3820  178.9240  141.4630 C   0  0  0  0  0  0  0  0  0  0  0  0
  180.8920  177.3780  139.7000 N   0  0  0  0  0  0  0  0  0  0  0  0
  180.4500  178.2910  140.5170 C   0  0  0  0  0  0  0  0  0  0  0  0
  180.0680  176.6850  138.7120 C   0  0  1  0  0  3  0  0  0  0  0  0
  180.9130  176.3180  137.5060 C   0  0  0  0  0  2  0  0  0  0  0  0
  181.6660  177.4220  137.1020 O   0  0  0  0  0  1  0  0  0  0  0  0
  179.0760  174.4890  139.7560 N   0  0  0  0  0  0  0  0  0  0  0  0
  179.5130  175.4570  139.2950 C   0  0  0  0  0  0  0  0  0  0  0  0
  179.0170  178.7340  140.4840 C   0  0  0  0  0  2  0  0  0  0  0  0
  178.9320  180.2390  140.6450 C   0  0  0  0  0  2  0  0  0  0  0  0
  178.9330  180.8870  139.2760 C   0  0  0  0  0  2  0  0  0  0  0  0
  179.9100  182.0530  139.2420 C   0  0  0  0  0  2  0  0  0  0  0  0
  179.5330  183.0690  138.1690 C   0  0  0  0  0  2  0  0  0  0  0  0
  180.3260  182.8510  136.8880 C   0  0  0  0  0  2  0  0  0  0  0  0
  181.3310  183.9720  136.6850 C   0  0  0  0  0  1  0  0  0  0  0  0
  3 10  1  6  0  0  0
  3  7  1  0  0  0  0
  3  8  1  0  0  0  0
  4  5  2  0  0  0  0
  5  2  1  0  0  0  0
  5  9  1  0  0  0  0
  6  4  1  0  0  0  0
  6  1  1  0  0  0  0
  7 39  1  1  0  0  0
  7  6  1  0  0  0  0
  8  4  1  0  0  0  0
 11 13  1  6  0  0  0
 11 10  1  0  0  0  0
 12 13  2  0  0  0  0
 14 11  1  0  0  0  0
 16 14  1  0  0  0  0
 16 15  1  1  0  0  0
 17 16  1  0  0  0  0
 18 17  1  0  0  0  0
 19 21  2  0  0  0  0
 20 21  1  0  0  0  0
 21 18  1  0  0  0  0
 22 33  1  0  0  0  0
 23 24  1  0  0  0  0
 24 22  1  6  0  0  0
 24 30  1  0  0  0  0
 25 28  1  0  0  0  0
 25 30  1  0  0  0  0
 25 26  1  1  0  0  0
 26 29  1  0  0  0  0
 27 20  1  1  0  0  0
 28 34  1  6  0  0  0
 28 27  1  0  0  0  0
 30 23  1  6  0  0  0
 30 32  1  0  0  0  0
 31 29  1  0  0  0  0
 32 27  1  0  0  0  0
 33 31  1  0  0  0  0
 34 35  1  1  0  0  0
 36 34  1  0  0  0  0
 36 37  1  0  0  0  0
 37 38  1  0  0  0  0
 40 39  1  0  0  0  0
 41 40  1  0  0  0  0
 42 44  2  0  0  0  0
 43 41  1  0  0  0  0
 44 43  1  0  0  0  0
 45 46  2  0  0  0  0
 46 44  1  0  0  0  0
 47 48  1  6  0  0  0
 47 51  1  0  0  0  0
 47 45  1  0  0  0  0
 49 48  1  0  0  0  0
 51 50  3  0  0  0  0
 52 46  1  0  0  0  0
 52 53  1  0  0  0  0
 54 53  1  0  0  0  0
 55 54  1  0  0  0  0
 56 55  1  0  0  0  0
 57 56  1  0  0  0  0
 58 57  1  0  0  0  0
M  END
>  <MODEL>
5

>  <REMARK>
 VINA RESULT:      -5.1      2.876      9.972
  Name = 
  26 active torsions:
  status: ('A' for Active; 'I' for Inactive)
    1  A    between atoms: C_1  and  C_30
    2  A    between atoms: C_1  and  C_45
    3  A    between atoms: C_1  and  C_58
    4  A    between atoms: CA_3  and  N_29
    5  A    between atoms: CA_3  and  C_33
    6  A    between atoms: CA_3  and  C_56
    7  A    between atoms: C_9  and  C_24
    8  A    between atoms: C_9  and  C_36
    9  A    between atoms: N_10  and  C_19
   10  A    between atoms: C_12  and  C_39
   11  A    between atoms: C_12  and  C_48
   12  A    between atoms: C_15  and  C_36
   13  A    between atoms: C_16  and  C_58
   14  A    between atoms: N_22  and  C_55
   15  A    between atoms: C_23  and  C_49
   16  A    between atoms: C_25  and  C_41
   17  A    between atoms: C_25  and  C_51
   18  A    between atoms: C_26  and  C_34
   19  A    between atoms: C_30  and  C_31
   20  A    between atoms: C_31  and  C_43
   21  A    between atoms: C_34  and  C_39
   22  A    between atoms: C_38  and  O_53
   23  A    between atoms: C_42  and  C_48
   24  A    between atoms: C_42  and  C_49
   25  A    between atoms: C_43  and  O_53
   26  A    between atoms: C_51  and  C_55
                            x       y       z     vdW  Elec       q    Type
                         _______ _______ _______ _____ _____    ______ ____

>  <TORSDO>
F 26

$$$$
=
 OpenBabel10222418233D

 58 61  0  0  1  0  0  0  0  0999 V2000
  187.1700  176.5940  143.9250 F   0  0  0  0  0  0  0  0  0  0  0  0
  185.6570  178.9640  147.3820 C   0  0  0  0  0  1  0  0  0  0  0  0
  184.3650  178.8510  143.2800 C   0  0  2  0  0  3  0  0  0  0  0  0
  185.7940  178.2980  145.0190 C   0  0  0  0  0  0  0  0  0  0  0  0
  186.3180  178.2510  146.2520 C   0  0  0  0  0  0  0  0  0  0  0  0
  186.3420  177.6610  143.8780 N   0  0  0  0  0  0  0  0  0  0  0  0
  185.4730  177.9290  142.7420 C   0  0  2  0  0  3  0  0  0  0  0  0
  184.6150  179.0140  144.7080 N   0  0  0  0  0  2  0  0  0  0  0  0
  187.5850  177.5190  146.5380 C   0  0  0  0  0  1  0  0  0  0  0  0
  183.0000  178.2210  143.0580 C   0  0  0  0  0  2  0  0  0  0  0  0
  181.9310  179.2980  142.9900 C   0  0  2  0  0  3  0  0  0  0  0  0
  180.3620  177.8780  144.0300 O   0  0  0  0  0  0  0  0  0  0  0  0
  180.8570  178.9920  143.9790 C   0  0  0  0  0  3  0  0  0  0  0  0
  181.3510  179.3490  141.5820 C   0  0  0  0  0  2  0  0  0  0  0  0
  179.4250  180.9190  141.5600 C   0  0  0  0  0  1  0  0  0  0  0  0
  179.8350  179.4550  141.6140 C   0  0  1  0  0  3  0  0  0  0  0  0
  179.2680  178.7160  140.4160 C   0  0  0  0  0  2  0  0  0  0  0  0
  179.6350  179.3770  139.2130 O   0  0  0  0  0  0  0  0  0  0  0  0
  181.4000  179.6350  137.7500 O   0  0  0  0  0  0  0  0  0  0  0  0
  180.7100  177.4480  138.1880 N   0  0  0  0  0  2  0  0  0  0  0  0
  180.6120  178.8630  138.3620 C   0  0  0  0  0  0  0  0  0  0  0  0
  181.0400  172.5490  135.3630 C   0  0  0  0  0  2  0  0  0  0  0  0
  182.3860  174.5840  135.1500 C   0  0  0  0  0  2  0  0  0  0  0  0
  180.9780  174.0380  135.0490 C   0  0  2  0  0  3  0  0  0  0  0  0
  181.8530  174.4310  137.5910 C   0  0  2  0  0  3  0  0  0  0  0  0
  180.7120  174.0330  138.5430 C   0  0  0  0  0  2  0  0  0  0  0  0
  181.7210  176.8200  137.3490 C   0  0  1  0  0  3  0  0  0  0  0  0
  182.4380  175.7100  138.1360 C   0  0  2  0  0  3  0  0  0  0  0  0
  179.5460  173.2650  137.9270 C   0  0  0  0  0  2  0  0  0  0  0  0
  181.3760  174.9130  136.2380 C   0  0  1  0  0  0  0  0  0  0  0  0
  180.0080  171.9900  137.2430 C   0  0  0  0  0  2  0  0  0  0  0  0
  181.0980  176.2810  136.1990 O   0  0  0  0  0  0  0  0  0  0  0  0
  179.8130  172.1120  135.8660 O   0  0  0  0  0  0  0  0  0  0  0  0
  183.9490  175.7620  137.8940 C   0  0  1  0  0  3  0  0  0  0  0  0
  184.3820  174.5650  137.3190 O   0  0  0  0  0  1  0  0  0  0  0  0
  184.2950  176.9170  136.9660 C   0  0  0  0  0  2  0  0  0  0  0  0
  185.3450  177.8060  137.6070 C   0  0  0  0  0  2  0  0  0  0  0  0
  186.3780  178.0360  136.6990 O   0  0  0  0  0  1  0  0  0  0  0  0
  186.2310  178.6730  141.6520 C   0  0  0  0  0  2  0  0  0  0  0  0
  187.6690  178.1970  141.5490 C   0  0  0  0  0  2  0  0  0  0  0  0
  188.3960  178.9830  140.4730 C   0  0  0  0  0  2  0  0  0  0  0  0
  190.6940  177.4100  139.8850 O   0  0  0  0  0  0  0  0  0  0  0  0
  188.5660  178.1610  139.2830 N   0  0  0  0  0  2  0  0  0  0  0  0
  189.7520  177.3940  139.0460 C   0  0  0  0  0  0  0  0  0  0  0  0
  188.9910  175.6570  137.5840 N   0  0  0  0  0  0  0  0  0  0  0  0
  189.8750  176.5820  137.8250 C   0  0  0  0  0  0  0  0  0  0  0  0
  189.0100  174.7810  136.4130 C   0  0  1  0  0  3  0  0  0  0  0  0
  189.1290  173.3350  136.8570 C   0  0  0  0  0  2  0  0  0  0  0  0
  188.9970  172.4890  135.7550 O   0  0  0  0  0  1  0  0  0  0  0  0
  186.7900  175.0710  135.0410 N   0  0  0  0  0  0  0  0  0  0  0  0
  187.7690  174.9440  135.6470 C   0  0  0  0  0  0  0  0  0  0  0  0
  191.0360  176.8070  136.9010 C   0  0  0  0  0  2  0  0  0  0  0  0
  192.2380  176.0120  137.3700 C   0  0  0  0  0  2  0  0  0  0  0  0
  192.6620  175.0580  136.2730 C   0  0  0  0  0  2  0  0  0  0  0  0
  193.4080  173.8700  136.8630 C   0  0  0  0  0  2  0  0  0  0  0  0
  194.3770  174.3050  137.9580 C   0  0  0  0  0  2  0  0  0  0  0  0
  195.8210  174.0140  137.5740 C   0  0  0  0  0  2  0  0  0  0  0  0
  195.9120  173.5910  136.1170 C   0  0  0  0  0  1  0  0  0  0  0  0
  3 10  1  1  0  0  0
  3  8  1  0  0  0  0
  4  5  2  0  0  0  0
  5  9  1  0  0  0  0
  5  2  1  0  0  0  0
  6  1  1  0  0  0  0
  6  4  1  0  0  0  0
  7 39  1  6  0  0  0
  7  3  1  0  0  0  0
  7  6  1  0  0  0  0
  8  4  1  0  0  0  0
 11 14  1  6  0  0  0
 11 10  1  0  0  0  0
 11 13  1  0  0  0  0
 13 12  2  0  0  0  0
 14 16  1  0  0  0  0
 16 15  1  6  0  0  0
 17 16  1  0  0  0  0
 18 17  1  0  0  0  0
 19 21  2  0  0  0  0
 20 21  1  0  0  0  0
 21 18  1  0  0  0  0
 22 33  1  0  0  0  0
 24 23  1  6  0  0  0
 24 22  1  0  0  0  0
 24 30  1  0  0  0  0
 25 28  1  0  0  0  0
 25 26  1  1  0  0  0
 27 28  1  0  0  0  0
 27 20  1  1  0  0  0
 28 34  1  6  0  0  0
 29 26  1  0  0  0  0
 30 23  1  6  0  0  0
 30 25  1  0  0  0  0
 31 29  1  0  0  0  0
 32 30  1  0  0  0  0
 32 27  1  0  0  0  0
 33 31  1  0  0  0  0
 34 35  1  6  0  0  0
 36 37  1  0  0  0  0
 36 34  1  0  0  0  0
 38 37  1  0  0  0  0
 40 39  1  0  0  0  0
 41 40  1  0  0  0  0
 43 41  1  0  0  0  0
 44 43  1  0  0  0  0
 44 42  2  0  0  0  0
 45 46  2  0  0  0  0
 46 44  1  0  0  0  0
 47 51  1  1  0  0  0
 47 48  1  0  0  0  0
 47 45  1  0  0  0  0
 49 48  1  0  0  0  0
 50 51  3  0  0  0  0
 52 53  1  0  0  0  0
 52 46  1  0  0  0  0
 54 55  1  0  0  0  0
 54 53  1  0  0  0  0
 55 56  1  0  0  0  0
 57 56  1  0  0  0  0
 58 57  1  0  0  0  0
M  END
>  <MODEL>
6

>  <REMARK>
 VINA RESULT:      -5.0      2.653      5.301
  Name = 
  26 active torsions:
  status: ('A' for Active; 'I' for Inactive)
    1  A    between atoms: C_1  and  C_30
    2  A    between atoms: C_1  and  C_45
    3  A    between atoms: C_1  and  C_58
    4  A    between atoms: CA_3  and  N_29
    5  A    between atoms: CA_3  and  C_33
    6  A    between atoms: CA_3  and  C_56
    7  A    between atoms: C_9  and  C_24
    8  A    between atoms: C_9  and  C_36
    9  A    between atoms: N_10  and  C_19
   10  A    between atoms: C_12  and  C_39
   11  A    between atoms: C_12  and  C_48
   12  A    between atoms: C_15  and  C_36
   13  A    between atoms: C_16  and  C_58
   14  A    between atoms: N_22  and  C_55
   15  A    between atoms: C_23  and  C_49
   16  A    between atoms: C_25  and  C_41
   17  A    between atoms: C_25  and  C_51
   18  A    between atoms: C_26  and  C_34
   19  A    between atoms: C_30  and  C_31
   20  A    between atoms: C_31  and  C_43
   21  A    between atoms: C_34  and  C_39
   22  A    between atoms: C_38  and  O_53
   23  A    between atoms: C_42  and  C_48
   24  A    between atoms: C_42  and  C_49
   25  A    between atoms: C_43  and  O_53
   26  A    between atoms: C_51  and  C_55
                            x       y       z     vdW  Elec       q    Type
                         _______ _______ _______ _____ _____    ______ ____

>  <TORSDO>
F 26

$$$$
=
 OpenBabel10222418233D

 58 61  0  0  1  0  0  0  0  0999 V2000
  190.3430  178.5450  148.8380 F   0  0  0  0  0  0  0  0  0  0  0  0
  192.4210  175.2710  146.6450 C   0  0  0  0  0  1  0  0  0  0  0  0
  188.7540  177.3420  145.7720 C   0  0  2  0  0  3  0  0  0  0  0  0
  190.5780  176.8310  147.1070 C   0  0  0  0  0  0  0  0  0  0  0  0
  191.7170  176.2550  147.5150 C   0  0  0  0  0  0  0  0  0  0  0  0
  189.8310  177.7740  147.8540 N   0  0  0  0  0  0  0  0  0  0  0  0
  188.6790  178.1780  147.0610 C   0  0  2  0  0  3  0  0  0  0  0  0
  189.9740  176.5480  145.8590 N   0  0  0  0  0  2  0  0  0  0  0  0
  192.3060  176.5460  148.8530 C   0  0  0  0  0  1  0  0  0  0  0  0
  188.8080  178.2510  144.5550 C   0  0  0  0  0  2  0  0  0  0  0  0
  187.7620  177.8280  143.5390 C   0  0  2  0  0  3  0  0  0  0  0  0
  188.0560  175.5330  143.0850 O   0  0  0  0  0  0  0  0  0  0  0  0
  187.4520  176.3800  143.7230 C   0  0  0  0  0  3  0  0  0  0  0  0
  188.2900  178.0790  142.1320 C   0  0  0  0  0  2  0  0  0  0  0  0
  190.3990  178.9830  143.0830 C   0  0  0  0  0  1  0  0  0  0  0  0
  189.8070  177.9960  142.0900 C   0  0  1  0  0  3  0  0  0  0  0  0
  190.2280  176.5840  142.4520 C   0  0  0  0  0  2  0  0  0  0  0  0
  190.6480  175.8830  141.2890 O   0  0  0  0  0  0  0  0  0  0  0  0
  191.4650  177.5360  139.9010 O   0  0  0  0  0  0  0  0  0  0  0  0
  190.0100  175.9820  138.9420 N   0  0  0  0  0  2  0  0  0  0  0  0
  190.7430  176.5110  140.0480 C   0  0  0  0  0  0  0  0  0  0  0  0
  186.1530  177.5340  135.0940 C   0  0  0  0  0  2  0  0  0  0  0  0
  188.5340  178.0880  135.2500 C   0  0  0  0  0  2  0  0  0  0  0  0
  187.2070  178.1930  135.9730 C   0  0  2  0  0  3  0  0  0  0  0  0
  188.3720  175.7420  136.1080 C   0  0  2  0  0  3  0  0  0  0  0  0
  187.4570  174.8380  136.9510 C   0  0  0  0  0  2  0  0  0  0  0  0
  190.0750  176.5490  137.6030 C   0  0  1  0  0  3  0  0  0  0  0  0
  189.7840  175.4590  136.5580 C   0  0  2  0  0  3  0  0  0  0  0  0
  186.0540  175.3650  137.2390 C   0  0  0  0  0  2  0  0  0  0  0  0
  188.2700  177.2100  136.4630 C   0  0  1  0  0  0  0  0  0  0  0  0
  185.2970  175.6830  135.9620 C   0  0  0  0  0  2  0  0  0  0  0  0
  189.1290  177.5950  137.4960 O   0  0  0  0  0  0  0  0  0  0  0  0
  185.0990  177.0630  135.8790 O   0  0  0  0  0  0  0  0  0  0  0  0
  190.7590  175.5600  135.3810 C   0  0  1  0  0  3  0  0  0  0  0  0
  191.7860  176.4560  135.6870 O   0  0  0  0  0  1  0  0  0  0  0  0
  191.3590  174.1960  135.0750 C   0  0  0  0  0  2  0  0  0  0  0  0
  191.9330  173.5820  136.3390 C   0  0  0  0  0  2  0  0  0  0  0  0
  192.5190  172.3540  136.0360 O   0  0  0  0  0  1  0  0  0  0  0  0
  187.3840  177.8340  147.7840 C   0  0  0  0  0  2  0  0  0  0  0  0
  186.2400  177.6250  146.8090 C   0  0  0  0  0  2  0  0  0  0  0  0
  185.5670  178.9520  146.5100 C   0  0  0  0  0  2  0  0  0  0  0  0
  185.1860  180.1740  143.9680 O   0  0  0  0  0  0  0  0  0  0  0  0
  184.4140  178.7440  145.6460 N   0  0  0  0  0  2  0  0  0  0  0  0
  184.2820  179.3950  144.3770 C   0  0  0  0  0  0  0  0  0  0  0  0
  181.9430  178.9510  144.1150 N   0  0  0  0  0  0  0  0  0  0  0  0
  183.0950  179.1520  143.5420 C   0  0  0  0  0  0  0  0  0  0  0  0
  180.6970  178.6920  143.3960 C   0  0  1  0  0  3  0  0  0  0  0  0
  179.6180  178.2700  144.3770 C   0  0  0  0  0  2  0  0  0  0  0  0
  179.7240  176.9030  144.6390 O   0  0  0  0  0  1  0  0  0  0  0  0
  179.9120  180.8660  142.1500 N   0  0  0  0  0  0  0  0  0  0  0  0
  180.2580  179.9080  142.7000 C   0  0  0  0  0  0  0  0  0  0  0  0
  183.2380  179.1040  142.0490 C   0  0  0  0  0  2  0  0  0  0  0  0
  184.1910  177.9940  141.6530 C   0  0  0  0  0  2  0  0  0  0  0  0
  183.7920  177.4570  140.2950 C   0  0  0  0  0  2  0  0  0  0  0  0
  182.3650  177.8660  139.9620 C   0  0  0  0  0  2  0  0  0  0  0  0
  182.1150  177.8560  138.4570 C   0  0  0  0  0  2  0  0  0  0  0  0
  182.1210  176.4400  137.8990 C   0  0  0  0  0  2  0  0  0  0  0  0
  180.7670  175.7800  138.1030 C   0  0  0  0  0  1  0  0  0  0  0  0
  2  5  1  0  0  0  0
  3 10  1  6  0  0  0
  3  8  1  0  0  0  0
  3  7  1  0  0  0  0
  4  5  2  0  0  0  0
  4  6  1  0  0  0  0
  5  9  1  0  0  0  0
  6  1  1  0  0  0  0
  7 39  1  1  0  0  0
  7  6  1  0  0  0  0
  8  4  1  0  0  0  0
 11 14  1  6  0  0  0
 11 13  1  0  0  0  0
 11 10  1  0  0  0  0
 12 13  2  0  0  0  0
 16 14  1  0  0  0  0
 16 17  1  0  0  0  0
 16 15  1  1  0  0  0
 18 17  1  0  0  0  0
 19 21  2  0  0  0  0
 20 21  1  0  0  0  0
 21 18  1  0  0  0  0
 22 33  1  0  0  0  0
 23 24  1  0  0  0  0
 24 22  1  6  0  0  0
 24 30  1  0  0  0  0
 25 30  1  0  0  0  0
 25 28  1  0  0  0  0
 25 26  1  1  0  0  0
 26 29  1  0  0  0  0
 27 20  1  1  0  0  0
 28 34  1  6  0  0  0
 28 27  1  0  0  0  0
 30 23  1  6  0  0  0
 30 32  1  0  0  0  0
 31 29  1  0  0  0  0
 32 27  1  0  0  0  0
 33 31  1  0  0  0  0
 34 35  1  1  0  0  0
 36 34  1  0  0  0  0
 36 37  1  0  0  0  0
 38 37  1  0  0  0  0
 40 39  1  0  0  0  0
 41 40  1  0  0  0  0
 42 44  2  0  0  0  0
 43 41  1  0  0  0  0
 44 43  1  0  0  0  0
 46 45  2  0  0  0  0
 46 44  1  0  0  0  0
 47 51  1  1  0  0  0
 47 45  1  0  0  0  0
 47 48  1  0  0  0  0
 48 49  1  0  0  0  0
 50 51  3  0  0  0  0
 52 46  1  0  0  0  0
 53 52  1  0  0  0  0
 54 53  1  0  0  0  0
 55 54  1  0  0  0  0
 56 55  1  0  0  0  0
 57 58  1  0  0  0  0
 57 56  1  0  0  0  0
M  END
>  <MODEL>
7

>  <REMARK>
 VINA RESULT:      -4.5      3.062      9.882
  Name = 
  26 active torsions:
  status: ('A' for Active; 'I' for Inactive)
    1  A    between atoms: C_1  and  C_30
    2  A    between atoms: C_1  and  C_45
    3  A    between atoms: C_1  and  C_58
    4  A    between atoms: CA_3  and  N_29
    5  A    between atoms: CA_3  and  C_33
    6  A    between atoms: CA_3  and  C_56
    7  A    between atoms: C_9  and  C_24
    8  A    between atoms: C_9  and  C_36
    9  A    between atoms: N_10  and  C_19
   10  A    between atoms: C_12  and  C_39
   11  A    between atoms: C_12  and  C_48
   12  A    between atoms: C_15  and  C_36
   13  A    between atoms: C_16  and  C_58
   14  A    between atoms: N_22  and  C_55
   15  A    between atoms: C_23  and  C_49
   16  A    between atoms: C_25  and  C_41
   17  A    between atoms: C_25  and  C_51
   18  A    between atoms: C_26  and  C_34
   19  A    between atoms: C_30  and  C_31
   20  A    between atoms: C_31  and  C_43
   21  A    between atoms: C_34  and  C_39
   22  A    between atoms: C_38  and  O_53
   23  A    between atoms: C_42  and  C_48
   24  A    between atoms: C_42  and  C_49
   25  A    between atoms: C_43  and  O_53
   26  A    between atoms: C_51  and  C_55
                            x       y       z     vdW  Elec       q    Type
                         _______ _______ _______ _____ _____    ______ ____

>  <TORSDO>
F 26

$$$$
=
 OpenBabel10222418233D

 58 61  0  0  1  0  0  0  0  0999 V2000
  186.3060  176.5430  144.9930 F   0  0  0  0  0  0  0  0  0  0  0  0
  186.0060  179.9260  147.8770 C   0  0  0  0  0  1  0  0  0  0  0  0
  183.8460  179.1420  144.2410 C   0  0  2  0  0  3  0  0  0  0  0  0
  185.5090  178.7130  145.7970 C   0  0  0  0  0  0  0  0  0  0  0  0
  186.2740  178.8420  146.8900 C   0  0  0  0  0  0  0  0  0  0  0  0
  185.6790  177.7230  144.7980 N   0  0  0  0  0  0  0  0  0  0  0  0
  184.6390  177.9020  143.7950 C   0  0  2  0  0  3  0  0  0  0  0  0
  184.4260  179.5760  145.5060 N   0  0  0  0  0  2  0  0  0  0  0  0
  187.4320  177.9390  147.1470 C   0  0  0  0  0  1  0  0  0  0  0  0
  182.3800  178.7910  144.4320 C   0  0  0  0  0  2  0  0  0  0  0  0
  181.5870  179.1630  143.1910 C   0  0  2  0  0  3  0  0  0  0  0  0
  179.6400  180.4690  143.4410 O   0  0  0  0  0  0  0  0  0  0  0  0
  180.8590  180.4420  143.4350 C   0  0  0  0  0  3  0  0  0  0  0  0
  180.5980  178.0490  142.8680 C   0  0  0  0  0  2  0  0  0  0  0  0
  179.2770  176.9520  141.0720 C   0  0  0  0  0  1  0  0  0  0  0  0
  180.4790  177.8370  141.3680 C   0  0  1  0  0  3  0  0  0  0  0  0
  180.3030  179.1860  140.6970 C   0  0  0  0  0  2  0  0  0  0  0  0
  181.2240  179.3240  139.6230 O   0  0  0  0  0  0  0  0  0  0  0  0
  179.9060  179.0690  137.7470 O   0  0  0  0  0  0  0  0  0  0  0  0
  181.9260  177.8980  137.7790 N   0  0  0  0  0  2  0  0  0  0  0  0
  180.9690  178.7840  138.3640 C   0  0  0  0  0  0  0  0  0  0  0  0
  179.3620  173.2630  135.7700 C   0  0  0  0  0  2  0  0  0  0  0  0
  180.1450  175.2650  134.5950 C   0  0  0  0  0  2  0  0  0  0  0  0
  179.2070  174.7750  135.6780 C   0  0  2  0  0  3  0  0  0  0  0  0
  181.8160  174.9110  136.4240 C   0  0  2  0  0  3  0  0  0  0  0  0
  181.9030  174.4670  137.8950 C   0  0  0  0  0  2  0  0  0  0  0  0
  181.7620  177.3150  136.4550 C   0  0  1  0  0  3  0  0  0  0  0  0
  182.7110  176.1170  136.2890 C   0  0  2  0  0  3  0  0  0  0  0  0
  180.6640  173.7940  138.4790 C   0  0  0  0  0  2  0  0  0  0  0  0
  180.4850  175.5270  136.0540 C   0  0  1  0  0  0  0  0  0  0  0  0
  180.2540  172.5710  137.6770 C   0  0  0  0  0  2  0  0  0  0  0  0
  180.4190  176.9020  136.2940 O   0  0  0  0  0  0  0  0  0  0  0  0
  179.0310  172.8230  137.0530 O   0  0  0  0  0  0  0  0  0  0  0  0
  183.3830  176.1420  134.9130 C   0  0  1  0  0  3  0  0  0  0  0  0
  184.2280  177.2500  134.8150 O   0  0  0  0  0  1  0  0  0  0  0  0
  184.1950  174.8730  134.6990 C   0  0  0  0  0  2  0  0  0  0  0  0
  185.3770  174.8420  135.6500 C   0  0  0  0  0  2  0  0  0  0  0  0
  186.4340  174.1540  135.0570 O   0  0  0  0  0  1  0  0  0  0  0  0
  185.2540  178.1870  142.4320 C   0  0  0  0  0  2  0  0  0  0  0  0
  184.4710  179.2470  141.6780 C   0  0  0  0  0  2  0  0  0  0  0  0
  184.7450  179.1290  140.1900 C   0  0  0  0  0  2  0  0  0  0  0  0
  185.6020  177.8620  137.7900 O   0  0  0  0  0  0  0  0  0  0  0  0
  186.0680  178.5640  139.9690 N   0  0  0  0  0  2  0  0  0  0  0  0
  186.4350  177.9350  138.7350 C   0  0  0  0  0  0  0  0  0  0  0  0
  188.0490  176.6570  137.5110 N   0  0  0  0  0  0  0  0  0  0  0  0
  187.7860  177.3770  138.5630 C   0  0  0  0  0  0  0  0  0  0  0  0
  189.3460  176.0430  137.2330 C   0  0  1  0  0  3  0  0  0  0  0  0
  189.1640  174.5600  136.9660 C   0  0  0  0  0  2  0  0  0  0  0  0
  190.3110  173.8650  137.3550 O   0  0  0  0  0  1  0  0  0  0  0  0
  190.4300  177.1610  135.1180 N   0  0  0  0  0  0  0  0  0  0  0  0
  189.9520  176.6680  136.0510 C   0  0  0  0  0  0  0  0  0  0  0  0
  188.8240  177.6160  139.6200 C   0  0  0  0  0  2  0  0  0  0  0  0
  189.1920  176.3080  140.2930 C   0  0  0  0  0  2  0  0  0  0  0  0
  190.0610  176.5970  141.4990 C   0  0  0  0  0  2  0  0  0  0  0  0
  189.1980  176.8350  142.7290 C   0  0  0  0  0  2  0  0  0  0  0  0
  189.2540  178.2920  143.1800 C   0  0  0  0  0  2  0  0  0  0  0  0
  190.2580  178.4910  144.3060 C   0  0  0  0  0  2  0  0  0  0  0  0
  190.6000  177.1610  144.9580 C   0  0  0  0  0  1  0  0  0  0  0  0
  3 10  1  1  0  0  0
  3  8  1  0  0  0  0
  4  5  2  0  0  0  0
  5  9  1  0  0  0  0
  5  2  1  0  0  0  0
  6  1  1  0  0  0  0
  6  4  1  0  0  0  0
  7 39  1  6  0  0  0
  7  3  1  0  0  0  0
  7  6  1  0  0  0  0
  8  4  1  0  0  0  0
 11 14  1  1  0  0  0
 11 13  1  0  0  0  0
 11 10  1  0  0  0  0
 13 12  2  0  0  0  0
 16 15  1  1  0  0  0
 16 14  1  0  0  0  0
 17 16  1  0  0  0  0
 18 17  1  0  0  0  0
 19 21  2  0  0  0  0
 20 21  1  0  0  0  0
 21 18  1  0  0  0  0
 22 33  1  0  0  0  0
 24 23  1  6  0  0  0
 24 22  1  0  0  0  0
 24 30  1  0  0  0  0
 25 26  1  1  0  0  0
 26 29  1  0  0  0  0
 27 20  1  1  0  0  0
 28 34  1  6  0  0  0
 28 25  1  0  0  0  0
 28 27  1  0  0  0  0
 30 23  1  6  0  0  0
 30 32  1  0  0  0  0
 30 25  1  0  0  0  0
 31 29  1  0  0  0  0
 32 27  1  0  0  0  0
 33 31  1  0  0  0  0
 34 35  1  1  0  0  0
 36 34  1  0  0  0  0
 36 37  1  0  0  0  0
 38 37  1  0  0  0  0
 40 39  1  0  0  0  0
 41 40  1  0  0  0  0
 42 44  2  0  0  0  0
 43 41  1  0  0  0  0
 44 43  1  0  0  0  0
 45 46  2  0  0  0  0
 46 44  1  0  0  0  0
 46 52  1  0  0  0  0
 47 51  1  6  0  0  0
 47 45  1  0  0  0  0
 48 47  1  0  0  0  0
 48 49  1  0  0  0  0
 50 51  3  0  0  0  0
 52 53  1  0  0  0  0
 53 54  1  0  0  0  0
 54 55  1  0  0  0  0
 55 56  1  0  0  0  0
 56 57  1  0  0  0  0
 57 58  1  0  0  0  0
M  END
>  <MODEL>
8

>  <REMARK>
 VINA RESULT:      -4.4      3.318      5.983
  Name = 
  26 active torsions:
  status: ('A' for Active; 'I' for Inactive)
    1  A    between atoms: C_1  and  C_30
    2  A    between atoms: C_1  and  C_45
    3  A    between atoms: C_1  and  C_58
    4  A    between atoms: CA_3  and  N_29
    5  A    between atoms: CA_3  and  C_33
    6  A    between atoms: CA_3  and  C_56
    7  A    between atoms: C_9  and  C_24
    8  A    between atoms: C_9  and  C_36
    9  A    between atoms: N_10  and  C_19
   10  A    between atoms: C_12  and  C_39
   11  A    between atoms: C_12  and  C_48
   12  A    between atoms: C_15  and  C_36
   13  A    between atoms: C_16  and  C_58
   14  A    between atoms: N_22  and  C_55
   15  A    between atoms: C_23  and  C_49
   16  A    between atoms: C_25  and  C_41
   17  A    between atoms: C_25  and  C_51
   18  A    between atoms: C_26  and  C_34
   19  A    between atoms: C_30  and  C_31
   20  A    between atoms: C_31  and  C_43
   21  A    between atoms: C_34  and  C_39
   22  A    between atoms: C_38  and  O_53
   23  A    between atoms: C_42  and  C_48
   24  A    between atoms: C_42  and  C_49
   25  A    between atoms: C_43  and  O_53
   26  A    between atoms: C_51  and  C_55
                            x       y       z     vdW  Elec       q    Type
                         _______ _______ _______ _____ _____    ______ ____

>  <TORSDO>
F 26

$$$$
=
 OpenBabel10222418233D

 58 61  0  0  1  0  0  0  0  0999 V2000
  190.6500  174.7260  142.9280 F   0  0  0  0  0  0  0  0  0  0  0  0
  192.5460  175.5230  146.8800 C   0  0  0  0  0  1  0  0  0  0  0  0
  191.0800  178.2310  143.8770 C   0  0  2  0  0  3  0  0  0  0  0  0
  191.6230  176.1280  144.6840 C   0  0  0  0  0  0  0  0  0  0  0  0
  192.0610  175.1730  145.5150 C   0  0  0  0  0  0  0  0  0  0  0  0
  191.1440  175.9030  143.3690 N   0  0  0  0  0  0  0  0  0  0  0  0
  190.7420  177.1830  142.8030 C   0  0  2  0  0  3  0  0  0  0  0  0
  191.5980  177.5000  145.0270 N   0  0  0  0  0  2  0  0  0  0  0  0
  192.1100  173.7400  145.1070 C   0  0  0  0  0  1  0  0  0  0  0  0
  189.8320  179.0060  144.2700 C   0  0  0  0  0  2  0  0  0  0  0  0
  188.9360  178.1450  145.1440 C   0  0  2  0  0  3  0  0  0  0  0  0
  189.1760  177.2000  147.2910 O   0  0  0  0  0  0  0  0  0  0  0  0
  189.7330  177.5990  146.2810 C   0  0  0  0  0  3  0  0  0  0  0  0
  188.3580  177.0070  144.3120 C   0  0  0  0  0  2  0  0  0  0  0  0
  186.2720  177.8590  145.3590 C   0  0  0  0  0  1  0  0  0  0  0  0
  186.8550  177.1570  144.1430 C   0  0  1  0  0  3  0  0  0  0  0  0
  186.5840  177.9770  142.8950 C   0  0  0  0  0  2  0  0  0  0  0  0
  185.4420  178.8010  143.0870 O   0  0  0  0  0  0  0  0  0  0  0  0
  183.1420  178.6260  143.0520 O   0  0  0  0  0  0  0  0  0  0  0  0
  184.2590  178.2020  141.0460 N   0  0  0  0  0  2  0  0  0  0  0  0
  184.2380  178.5500  142.4310 C   0  0  0  0  0  0  0  0  0  0  0  0
  183.0720  175.2270  136.3730 C   0  0  0  0  0  2  0  0  0  0  0  0
  181.5740  176.1360  138.0850 C   0  0  0  0  0  2  0  0  0  0  0  0
  182.7350  175.1910  137.8580 C   0  0  2  0  0  3  0  0  0  0  0  0
  183.4160  177.8200  137.8970 C   0  0  2  0  0  3  0  0  0  0  0  0
  184.9390  177.9100  137.6930 C   0  0  0  0  0  2  0  0  0  0  0  0
  183.0510  177.9590  140.2700 C   0  0  1  0  0  3  0  0  0  0  0  0
  183.0730  178.8050  138.9870 C   0  0  2  0  0  3  0  0  0  0  0  0
  185.6410  176.6360  137.2290 C   0  0  0  0  0  2  0  0  0  0  0  0
  182.9660  176.5330  138.5530 C   0  0  1  0  0  0  0  0  0  0  0  0
  185.0560  176.1100  135.9300 C   0  0  0  0  0  2  0  0  0  0  0  0
  182.9770  176.5840  139.9490 O   0  0  0  0  0  0  0  0  0  0  0  0
  184.4140  174.8950  136.1770 O   0  0  0  0  0  0  0  0  0  0  0  0
  181.7040  179.4420  138.7310 C   0  0  1  0  0  3  0  0  0  0  0  0
  180.8060  179.0580  139.7310 O   0  0  0  0  0  1  0  0  0  0  0  0
  181.8210  180.9590  138.7190 C   0  0  0  0  0  2  0  0  0  0  0  0
  181.1710  181.5230  137.4700 C   0  0  0  0  0  2  0  0  0  0  0  0
  180.1780  180.6500  137.0260 O   0  0  0  0  0  1  0  0  0  0  0  0
  191.5540  177.4940  141.5540 C   0  0  0  0  0  2  0  0  0  0  0  0
  191.0620  176.7010  140.3570 C   0  0  0  0  0  2  0  0  0  0  0  0
  191.8120  177.1310  139.1100 C   0  0  0  0  0  2  0  0  0  0  0  0
  193.9310  177.2380  137.2140 O   0  0  0  0  0  0  0  0  0  0  0  0
  192.4220  175.9740  138.4710 N   0  0  0  0  0  2  0  0  0  0  0  0
  193.4860  176.0980  137.5200 C   0  0  0  0  0  0  0  0  0  0  0  0
  194.9070  174.1710  137.5810 N   0  0  0  0  0  0  0  0  0  0  0  0
  194.0670  174.8960  136.9000 C   0  0  0  0  0  0  0  0  0  0  0  0
  195.5560  172.9630  137.0740 C   0  0  1  0  0  3  0  0  0  0  0  0
  197.0570  173.1770  137.0080 C   0  0  0  0  0  2  0  0  0  0  0  0
  197.3360  174.3890  136.3740 O   0  0  0  0  0  1  0  0  0  0  0  0
  195.0540  170.9400  138.6700 N   0  0  0  0  0  0  0  0  0  0  0  0
  195.2750  171.8320  137.9660 C   0  0  0  0  0  0  0  0  0  0  0  0
  193.7110  174.5490  135.4840 C   0  0  0  0  0  2  0  0  0  0  0  0
  192.2510  174.8590  135.2230 C   0  0  0  0  0  2  0  0  0  0  0  0
  191.4200  173.6290  135.5240 C   0  0  0  0  0  2  0  0  0  0  0  0
  189.9580  173.8830  135.1880 C   0  0  0  0  0  2  0  0  0  0  0  0
  189.2150  174.5140  136.3620 C   0  0  0  0  0  2  0  0  0  0  0  0
  188.0940  173.6150  136.8630 C   0  0  0  0  0  2  0  0  0  0  0  0
  187.6980  172.6090  135.7950 C   0  0  0  0  0  1  0  0  0  0  0  0
  1  6  1  0  0  0  0
  3 10  1  1  0  0  0
  3  8  1  0  0  0  0
  4  8  1  0  0  0  0
  4  5  2  0  0  0  0
  5  2  1  0  0  0  0
  6  4  1  0  0  0  0
  7 39  1  6  0  0  0
  7  6  1  0  0  0  0
  7  3  1  0  0  0  0
  9  5  1  0  0  0  0
 11 10  1  6  0  0  0
 11 13  1  0  0  0  0
 13 12  2  0  0  0  0
 14 11  1  0  0  0  0
 16 14  1  0  0  0  0
 16 15  1  1  0  0  0
 17 18  1  0  0  0  0
 17 16  1  0  0  0  0
 20 21  1  0  0  0  0
 21 19  2  0  0  0  0
 21 18  1  0  0  0  0
 24 22  1  6  0  0  0
 24 23  1  0  0  0  0
 24 30  1  0  0  0  0
 25 26  1  1  0  0  0
 25 30  1  0  0  0  0
 25 28  1  0  0  0  0
 27 20  1  6  0  0  0
 28 34  1  6  0  0  0
 28 27  1  0  0  0  0
 29 26  1  0  0  0  0
 30 23  1  6  0  0  0
 30 32  1  0  0  0  0
 31 33  1  0  0  0  0
 31 29  1  0  0  0  0
 32 27  1  0  0  0  0
 33 22  1  0  0  0  0
 34 35  1  1  0  0  0
 36 34  1  0  0  0  0
 37 36  1  0  0  0  0
 38 37  1  0  0  0  0
 40 39  1  0  0  0  0
 41 40  1  0  0  0  0
 42 44  2  0  0  0  0
 43 41  1  0  0  0  0
 44 43  1  0  0  0  0
 46 44  1  0  0  0  0
 46 45  2  0  0  0  0
 47 48  1  1  0  0  0
 47 45  1  0  0  0  0
 47 51  1  0  0  0  0
 49 48  1  0  0  0  0
 51 50  3  0  0  0  0
 52 46  1  0  0  0  0
 53 52  1  0  0  0  0
 53 54  1  0  0  0  0
 55 54  1  0  0  0  0
 55 56  1  0  0  0  0
 56 57  1  0  0  0  0
 58 57  1  0  0  0  0
M  END
>  <MODEL>
9

>  <REMARK>
 VINA RESULT:      -4.3      2.034      2.901
  Name = 
  26 active torsions:
  status: ('A' for Active; 'I' for Inactive)
    1  A    between atoms: C_1  and  C_30
    2  A    between atoms: C_1  and  C_45
    3  A    between atoms: C_1  and  C_58
    4  A    between atoms: CA_3  and  N_29
    5  A    between atoms: CA_3  and  C_33
    6  A    between atoms: CA_3  and  C_56
    7  A    between atoms: C_9  and  C_24
    8  A    between atoms: C_9  and  C_36
    9  A    between atoms: N_10  and  C_19
   10  A    between atoms: C_12  and  C_39
   11  A    between atoms: C_12  and  C_48
   12  A    between atoms: C_15  and  C_36
   13  A    between atoms: C_16  and  C_58
   14  A    between atoms: N_22  and  C_55
   15  A    between atoms: C_23  and  C_49
   16  A    between atoms: C_25  and  C_41
   17  A    between atoms: C_25  and  C_51
   18  A    between atoms: C_26  and  C_34
   19  A    between atoms: C_30  and  C_31
   20  A    between atoms: C_31  and  C_43
   21  A    between atoms: C_34  and  C_39
   22  A    between atoms: C_38  and  O_53
   23  A    between atoms: C_42  and  C_48
   24  A    between atoms: C_42  and  C_49
   25  A    between atoms: C_43  and  O_53
   26  A    between atoms: C_51  and  C_55
                            x       y       z     vdW  Elec       q    Type
                         _______ _______ _______ _____ _____    ______ ____

>  <TORSDO>
F 26

$$$$
