=
 OpenBabel10222416413D

 30 32  0  0  1  0  0  0  0  0999 V2000
  190.5440  177.4340  142.6060 C   0  0  1  0  0  3  0  0  0  0  0  0
  191.5230  178.2300  143.3260 N   0  0  0  0  0  2  0  0  0  0  0  0
  191.2250  178.1260  144.7430 C   0  0  0  0  0  2  0  0  0  0  0  0
  191.5790  176.7340  145.2230 C   0  0  0  0  0  2  0  0  0  0  0  0
  192.3080  175.6280  147.3130 C   0  0  0  0  0  1  0  0  0  0  0  0
  191.3470  176.6360  146.7180 C   0  0  0  0  0  2  0  0  0  0  0  0
  189.1680  178.0790  142.7430 C   0  0  0  0  0  2  0  0  0  0  0  0
  188.2840  177.2230  143.4610 O   0  0  0  0  0  0  0  0  0  0  0  0
  186.0770  178.0860  144.2560 C   0  0  0  0  0  0  0  0  0  0  0  0
  185.5060  178.1690  142.9760 C   0  0  0  0  0  3  0  0  0  0  0  0
  185.7960  178.3500  146.6330 N   0  0  0  0  0  0  0  0  0  0  0  0
  183.9770  178.9030  145.1980 C   0  0  0  0  0  3  0  0  0  0  0  0
  183.4360  178.9980  143.9140 C   0  0  0  0  0  3  0  0  0  0  0  0
  187.8760  177.5430  145.7860 C   0  0  0  0  0  3  0  0  0  0  0  0
  185.2850  178.4440  145.3770 C   0  0  0  0  0  0  0  0  0  0  0  0
  187.0600  177.9110  146.8560 C   0  0  0  0  0  3  0  0  0  0  0  0
  184.1980  178.6260  142.8050 C   0  0  0  0  0  3  0  0  0  0  0  0
  187.4020  177.6270  144.4750 C   0  0  0  0  0  0  0  0  0  0  0  0
  190.9470  177.3160  141.1390 C   0  0  0  0  0  2  0  0  0  0  0  0
  190.3270  176.2100  140.5530 O   0  0  0  0  0  0  0  0  0  0  0  0
  190.3900  176.4500  139.1790 C   0  0  0  0  0  2  0  0  0  0  0  0
  189.8870  177.8500  138.8790 C   0  0  0  0  0  2  0  0  0  0  0  0
  188.6810  177.7800  138.0660 N   0  0  0  0  0  0  0  0  0  0  0  0
  187.3930  178.1210  138.6150 C   0  0  0  0  0  0  0  0  0  0  0  0
  188.8060  177.3510  136.6750 C   0  0  0  0  0  2  0  0  0  0  0  0
  184.8920  178.1500  138.3650 C   0  0  0  0  0  1  0  0  0  0  0  0
  187.2940  178.5290  139.8050 O   0  0  0  0  0  0  0  0  0  0  0  0
  186.2210  177.9680  137.8020 N   0  0  0  0  0  0  0  0  0  0  0  0
  187.5300  176.6670  136.1920 C   0  0  0  0  0  2  0  0  0  0  0  0
  186.3470  177.6080  136.3940 C   0  0  0  0  0  2  0  0  0  0  0  0
  1 19  1  6  0  0  0
  1  7  1  0  0  0  0
  1  2  1  0  0  0  0
  2  3  1  0  0  0  0
  3  4  1  0  0  0  0
  4  6  1  0  0  0  0
  6  5  1  0  0  0  0
  7  8  1  0  0  0  0
  8 18  1  0  0  0  0
  9 18  2  0  0  0  0
  9 15  1  0  0  0  0
 10  9  1  0  0  0  0
 11 16  1  0  0  0  0
 12 15  1  0  0  0  0
 13 12  2  0  0  0  0
 14 16  2  0  0  0  0
 15 11  2  0  0  0  0
 17 10  2  0  0  0  0
 17 13  1  0  0  0  0
 18 14  1  0  0  0  0
 20 19  1  0  0  0  0
 21 20  1  0  0  0  0
 22 21  1  0  0  0  0
 23 24  1  0  0  0  0
 23 22  1  0  0  0  0
 24 27  2  0  0  0  0
 25 23  1  0  0  0  0
 28 26  1  0  0  0  0
 28 24  1  0  0  0  0
 29 30  1  0  0  0  0
 29 25  1  0  0  0  0
 30 28  1  0  0  0  0
M  END
>  <MODEL>
1

>  <REMARK>
 VINA RESULT:      -7.8      0.000      0.000
  Name = 
  12 active torsions:
  status: ('A' for Active; 'I' for Inactive)
    1  A    between atoms: C_3  and  N_19
    2  A    between atoms: C_3  and  C_20
    3  A    between atoms: N_4  and  C_24
    4  A    between atoms: O_5  and  C_13
    5  A    between atoms: O_5  and  C_26
    6  A    between atoms: C_10  and  N_19
    7  A    between atoms: C_10  and  C_22
    8  A    between atoms: C_10  and  C_26
    9  A    between atoms: C_13  and  C_24
   10  A    between atoms: C_18  and  C_20
   11  A    between atoms: C_22  and  O_29
   12  A    between atoms: O_29  and  C_30
                            x       y       z     vdW  Elec       q    Type
                         _______ _______ _______ _____ _____    ______ ____

>  <TORSDO>
F 12

$$$$
=
 OpenBabel10222416413D

 30 32  0  0  1  0  0  0  0  0999 V2000
  188.4880  178.3730  141.5670 C   0  0  1  0  0  3  0  0  0  0  0  0
  187.3200  177.7560  142.1720 N   0  0  0  0  0  2  0  0  0  0  0  0
  186.2190  178.6970  142.0710 C   0  0  0  0  0  2  0  0  0  0  0  0
  185.1050  178.2600  142.9990 C   0  0  0  0  0  2  0  0  0  0  0  0
  183.7430  178.9760  144.9370 C   0  0  0  0  0  1  0  0  0  0  0  0
  184.5900  179.4550  143.7760 C   0  0  0  0  0  2  0  0  0  0  0  0
  189.7080  178.1190  142.4470 C   0  0  0  0  0  2  0  0  0  0  0  0
  189.4430  177.0760  143.3800 O   0  0  0  0  0  0  0  0  0  0  0  0
  189.0210  177.4230  145.8190 C   0  0  0  0  0  0  0  0  0  0  0  0
  187.6860  177.8290  145.6590 C   0  0  0  0  0  3  0  0  0  0  0  0
  190.8320  176.9290  147.3260 N   0  0  0  0  0  0  0  0  0  0  0  0
  188.7670  177.6950  148.2320 C   0  0  0  0  0  3  0  0  0  0  0  0
  187.4490  178.1150  148.0490 C   0  0  0  0  0  3  0  0  0  0  0  0
  191.1520  176.6350  144.9790 C   0  0  0  0  0  3  0  0  0  0  0  0
  189.5520  177.3430  147.1310 C   0  0  0  0  0  0  0  0  0  0  0  0
  191.6320  176.5770  146.2880 C   0  0  0  0  0  3  0  0  0  0  0  0
  186.9070  178.1770  146.7630 C   0  0  0  0  0  3  0  0  0  0  0  0
  189.8470  177.0610  144.7230 C   0  0  0  0  0  0  0  0  0  0  0  0
  188.7020  177.8140  140.1630 C   0  0  0  0  0  2  0  0  0  0  0  0
  188.6950  178.8470  139.2230 O   0  0  0  0  0  0  0  0  0  0  0  0
  188.8180  178.2080  137.9880 C   0  0  0  0  0  2  0  0  0  0  0  0
  187.7280  178.6900  137.0490 C   0  0  0  0  0  2  0  0  0  0  0  0
  186.5850  177.7910  137.1110 N   0  0  0  0  0  0  0  0  0  0  0  0
  185.4580  178.0740  137.9620 C   0  0  0  0  0  0  0  0  0  0  0  0
  186.6080  176.5830  136.2870 C   0  0  0  0  0  2  0  0  0  0  0  0
  183.3100  177.2990  139.0120 C   0  0  0  0  0  1  0  0  0  0  0  0
  185.4240  179.1370  138.6420 O   0  0  0  0  0  0  0  0  0  0  0  0
  184.3860  177.1250  138.0490 N   0  0  0  0  0  0  0  0  0  0  0  0
  185.7930  175.4630  136.9270 C   0  0  0  0  0  2  0  0  0  0  0  0
  184.3710  175.9550  137.1780 C   0  0  0  0  0  2  0  0  0  0  0  0
  1 19  1  6  0  0  0
  1  2  1  0  0  0  0
  1  7  1  0  0  0  0
  3  2  1  0  0  0  0
  3  4  1  0  0  0  0
  4  6  1  0  0  0  0
  6  5  1  0  0  0  0
  7  8  1  0  0  0  0
  8 18  1  0  0  0  0
  9 15  1  0  0  0  0
 10  9  2  0  0  0  0
 10 17  1  0  0  0  0
 13 12  1  0  0  0  0
 14 16  1  0  0  0  0
 15 11  1  0  0  0  0
 15 12  2  0  0  0  0
 16 11  2  0  0  0  0
 17 13  2  0  0  0  0
 18 14  2  0  0  0  0
 18  9  1  0  0  0  0
 20 19  1  0  0  0  0
 21 20  1  0  0  0  0
 22 23  1  0  0  0  0
 22 21  1  0  0  0  0
 23 24  1  0  0  0  0
 24 28  1  0  0  0  0
 24 27  2  0  0  0  0
 25 29  1  0  0  0  0
 25 23  1  0  0  0  0
 28 26  1  0  0  0  0
 29 30  1  0  0  0  0
 30 28  1  0  0  0  0
M  END
>  <MODEL>
2

>  <REMARK>
 VINA RESULT:      -7.7      1.793      4.248
  Name = 
  12 active torsions:
  status: ('A' for Active; 'I' for Inactive)
    1  A    between atoms: C_3  and  N_19
    2  A    between atoms: C_3  and  C_20
    3  A    between atoms: N_4  and  C_24
    4  A    between atoms: O_5  and  C_13
    5  A    between atoms: O_5  and  C_26
    6  A    between atoms: C_10  and  N_19
    7  A    between atoms: C_10  and  C_22
    8  A    between atoms: C_10  and  C_26
    9  A    between atoms: C_13  and  C_24
   10  A    between atoms: C_18  and  C_20
   11  A    between atoms: C_22  and  O_29
   12  A    between atoms: O_29  and  C_30
                            x       y       z     vdW  Elec       q    Type
                         _______ _______ _______ _____ _____    ______ ____

>  <TORSDO>
F 12

$$$$
=
 OpenBabel10222416413D

 30 32  0  0  1  0  0  0  0  0999 V2000
  188.1750  178.4710  141.5380 C   0  0  1  0  0  3  0  0  0  0  0  0
  187.0400  177.8670  142.2170 N   0  0  0  0  0  2  0  0  0  0  0  0
  185.9160  178.7780  142.0980 C   0  0  0  0  0  2  0  0  0  0  0  0
  184.8270  178.3500  143.0590 C   0  0  0  0  0  2  0  0  0  0  0  0
  183.7420  178.9770  145.1930 C   0  0  0  0  0  1  0  0  0  0  0  0
  184.4720  179.5040  143.9750 C   0  0  0  0  0  2  0  0  0  0  0  0
  189.4670  178.0070  142.2020 C   0  0  0  0  0  2  0  0  0  0  0  0
  189.1930  177.0320  143.2030 O   0  0  0  0  0  0  0  0  0  0  0  0
  188.9890  177.3860  145.6690 C   0  0  0  0  0  0  0  0  0  0  0  0
  187.6390  177.7700  145.6290 C   0  0  0  0  0  3  0  0  0  0  0  0
  190.9360  176.9260  147.0080 N   0  0  0  0  0  0  0  0  0  0  0  0
  188.9500  177.6660  148.0940 C   0  0  0  0  0  3  0  0  0  0  0  0
  187.6140  178.0660  148.0290 C   0  0  0  0  0  3  0  0  0  0  0  0
  191.0470  176.6260  144.6430 C   0  0  0  0  0  3  0  0  0  0  0  0
  189.6380  177.3200  146.9280 C   0  0  0  0  0  0  0  0  0  0  0  0
  191.6440  176.5810  145.9030 C   0  0  0  0  0  3  0  0  0  0  0  0
  186.9570  178.1130  146.7980 C   0  0  0  0  0  3  0  0  0  0  0  0
  189.7180  177.0300  144.5040 C   0  0  0  0  0  0  0  0  0  0  0  0
  188.1540  178.0970  140.0590 C   0  0  0  0  0  2  0  0  0  0  0  0
  189.0010  178.9380  139.3340 O   0  0  0  0  0  0  0  0  0  0  0  0
  188.8750  178.5170  138.0090 C   0  0  0  0  0  2  0  0  0  0  0  0
  188.4790  177.0530  137.9700 C   0  0  0  0  0  2  0  0  0  0  0  0
  189.4490  176.2960  137.1910 N   0  0  0  0  0  0  0  0  0  0  0  0
  190.5950  175.6870  137.8170 C   0  0  0  0  0  0  0  0  0  0  0  0
  189.2350  176.1720  135.7510 C   0  0  0  0  0  2  0  0  0  0  0  0
  192.8100  174.5230  137.5740 C   0  0  0  0  0  1  0  0  0  0  0  0
  190.7550  175.7640  139.0660 O   0  0  0  0  0  0  0  0  0  0  0  0
  191.5650  175.0140  137.0020 N   0  0  0  0  0  0  0  0  0  0  0  0
  190.5600  176.0180  135.0080 C   0  0  0  0  0  2  0  0  0  0  0  0
  191.3210  174.8250  135.5770 C   0  0  0  0  0  2  0  0  0  0  0  0
  1 19  1  6  0  0  0
  1  7  1  0  0  0  0
  1  2  1  0  0  0  0
  3  2  1  0  0  0  0
  3  4  1  0  0  0  0
  4  6  1  0  0  0  0
  6  5  1  0  0  0  0
  7  8  1  0  0  0  0
  8 18  1  0  0  0  0
  9 15  1  0  0  0  0
 10  9  2  0  0  0  0
 10 17  1  0  0  0  0
 13 12  1  0  0  0  0
 14 16  1  0  0  0  0
 15 11  1  0  0  0  0
 15 12  2  0  0  0  0
 16 11  2  0  0  0  0
 17 13  2  0  0  0  0
 18 14  2  0  0  0  0
 18  9  1  0  0  0  0
 20 19  1  0  0  0  0
 21 20  1  0  0  0  0
 22 21  1  0  0  0  0
 23 24  1  0  0  0  0
 23 22  1  0  0  0  0
 24 27  2  0  0  0  0
 25 23  1  0  0  0  0
 28 26  1  0  0  0  0
 28 24  1  0  0  0  0
 29 30  1  0  0  0  0
 29 25  1  0  0  0  0
 30 28  1  0  0  0  0
M  END
>  <MODEL>
3

>  <REMARK>
 VINA RESULT:      -7.7      2.090      4.877
  Name = 
  12 active torsions:
  status: ('A' for Active; 'I' for Inactive)
    1  A    between atoms: C_3  and  N_19
    2  A    between atoms: C_3  and  C_20
    3  A    between atoms: N_4  and  C_24
    4  A    between atoms: O_5  and  C_13
    5  A    between atoms: O_5  and  C_26
    6  A    between atoms: C_10  and  N_19
    7  A    between atoms: C_10  and  C_22
    8  A    between atoms: C_10  and  C_26
    9  A    between atoms: C_13  and  C_24
   10  A    between atoms: C_18  and  C_20
   11  A    between atoms: C_22  and  O_29
   12  A    between atoms: O_29  and  C_30
                            x       y       z     vdW  Elec       q    Type
                         _______ _______ _______ _____ _____    ______ ____

>  <TORSDO>
F 12

$$$$
=
 OpenBabel10222416413D

 30 32  0  0  1  0  0  0  0  0999 V2000
  189.7060  176.7010  141.4290 C   0  0  1  0  0  3  0  0  0  0  0  0
  190.4140  175.8550  142.3740 N   0  0  0  0  0  2  0  0  0  0  0  0
  191.2030  176.7160  143.2360 C   0  0  0  0  0  2  0  0  0  0  0  0
  191.6760  175.9210  144.4350 C   0  0  0  0  0  2  0  0  0  0  0  0
  192.0230  175.9660  146.8840 C   0  0  0  0  0  1  0  0  0  0  0  0
  191.6250  176.7890  145.6760 C   0  0  0  0  0  2  0  0  0  0  0  0
  188.8520  177.7090  142.1920 C   0  0  0  0  0  2  0  0  0  0  0  0
  187.6720  177.0880  142.6910 O   0  0  0  0  0  0  0  0  0  0  0  0
  186.9050  177.8620  144.9400 C   0  0  0  0  0  0  0  0  0  0  0  0
  188.0640  177.4500  145.6170 C   0  0  0  0  0  3  0  0  0  0  0  0
  184.7560  178.9420  145.0540 N   0  0  0  0  0  0  0  0  0  0  0  0
  186.0170  178.6900  147.0590 C   0  0  0  0  0  3  0  0  0  0  0  0
  187.1690  178.2540  147.7150 C   0  0  0  0  0  3  0  0  0  0  0  0
  185.5610  178.1620  142.9470 C   0  0  0  0  0  3  0  0  0  0  0  0
  185.8800  178.5060  145.6800 C   0  0  0  0  0  0  0  0  0  0  0  0
  184.5790  178.7850  143.7180 C   0  0  0  0  0  3  0  0  0  0  0  0
  188.1940  177.6400  146.9930 C   0  0  0  0  0  3  0  0  0  0  0  0
  186.7320  177.6890  143.5420 C   0  0  0  0  0  0  0  0  0  0  0  0
  190.7040  177.4100  140.5170 C   0  0  0  0  0  2  0  0  0  0  0  0
  191.1770  176.5310  139.5400 O   0  0  0  0  0  0  0  0  0  0  0  0
  190.0850  176.3080  138.7000 C   0  0  0  0  0  2  0  0  0  0  0  0
  189.7580  177.5760  137.9330 C   0  0  0  0  0  2  0  0  0  0  0  0
  188.4200  177.4840  137.3680 N   0  0  0  0  0  0  0  0  0  0  0  0
  187.2720  177.9740  138.0880 C   0  0  0  0  0  0  0  0  0  0  0  0
  188.2650  176.8770  136.0470 C   0  0  0  0  0  2  0  0  0  0  0  0
  184.7710  178.1340  138.2900 C   0  0  0  0  0  1  0  0  0  0  0  0
  187.4140  178.5330  139.2100 O   0  0  0  0  0  0  0  0  0  0  0  0
  185.9630  177.7970  137.5270 N   0  0  0  0  0  0  0  0  0  0  0  0
  186.8940  176.2220  135.8980 C   0  0  0  0  0  2  0  0  0  0  0  0
  185.8090  177.2560  136.1810 C   0  0  0  0  0  2  0  0  0  0  0  0
  1 19  1  1  0  0  0
  1  7  1  0  0  0  0
  1  2  1  0  0  0  0
  2  3  1  0  0  0  0
  3  4  1  0  0  0  0
  4  6  1  0  0  0  0
  6  5  1  0  0  0  0
  7  8  1  0  0  0  0
  8 18  1  0  0  0  0
  9 10  2  0  0  0  0
  9 15  1  0  0  0  0
 10 17  1  0  0  0  0
 11 15  1  0  0  0  0
 12 13  1  0  0  0  0
 14 18  2  0  0  0  0
 14 16  1  0  0  0  0
 15 12  2  0  0  0  0
 16 11  2  0  0  0  0
 17 13  2  0  0  0  0
 18  9  1  0  0  0  0
 20 19  1  0  0  0  0
 21 20  1  0  0  0  0
 22 21  1  0  0  0  0
 23 22  1  0  0  0  0
 23 24  1  0  0  0  0
 24 27  2  0  0  0  0
 25 23  1  0  0  0  0
 28 24  1  0  0  0  0
 28 26  1  0  0  0  0
 29 25  1  0  0  0  0
 29 30  1  0  0  0  0
 30 28  1  0  0  0  0
M  END
>  <MODEL>
4

>  <REMARK>
 VINA RESULT:      -7.6      1.065      2.227
  Name = 
  12 active torsions:
  status: ('A' for Active; 'I' for Inactive)
    1  A    between atoms: C_3  and  N_19
    2  A    between atoms: C_3  and  C_20
    3  A    between atoms: N_4  and  C_24
    4  A    between atoms: O_5  and  C_13
    5  A    between atoms: O_5  and  C_26
    6  A    between atoms: C_10  and  N_19
    7  A    between atoms: C_10  and  C_22
    8  A    between atoms: C_10  and  C_26
    9  A    between atoms: C_13  and  C_24
   10  A    between atoms: C_18  and  C_20
   11  A    between atoms: C_22  and  O_29
   12  A    between atoms: O_29  and  C_30
                            x       y       z     vdW  Elec       q    Type
                         _______ _______ _______ _____ _____    ______ ____

>  <TORSDO>
F 12

$$$$
=
 OpenBabel10222416413D

 30 32  0  0  1  0  0  0  0  0999 V2000
  185.6610  178.9970  141.8640 C   0  0  1  0  0  3  0  0  0  0  0  0
  185.1090  178.2340  142.9710 N   0  0  0  0  0  2  0  0  0  0  0  0
  183.8190  178.8100  143.3060 C   0  0  0  0  0  2  0  0  0  0  0  0
  183.7660  179.0760  144.7960 C   0  0  0  0  0  2  0  0  0  0  0  0
  185.1390  178.3340  146.7160 C   0  0  0  0  0  1  0  0  0  0  0  0
  185.1670  179.0320  145.3730 C   0  0  0  0  0  2  0  0  0  0  0  0
  187.1240  178.6140  141.6660 C   0  0  0  0  0  2  0  0  0  0  0  0
  187.5880  177.8280  142.7590 O   0  0  0  0  0  0  0  0  0  0  0  0
  189.4120  177.3790  144.4070 C   0  0  0  0  0  0  0  0  0  0  0  0
  188.5640  177.3400  145.5260 C   0  0  0  0  0  3  0  0  0  0  0  0
  191.6460  177.1520  143.5370 N   0  0  0  0  0  0  0  0  0  0  0  0
  191.3040  176.9230  145.8830 C   0  0  0  0  0  3  0  0  0  0  0  0
  190.4460  176.9100  146.9830 C   0  0  0  0  0  3  0  0  0  0  0  0
  189.8450  177.5930  142.0340 C   0  0  0  0  0  3  0  0  0  0  0  0
  190.7980  177.1480  144.5990 C   0  0  0  0  0  0  0  0  0  0  0  0
  191.2010  177.3660  142.2730 C   0  0  0  0  0  3  0  0  0  0  0  0
  189.0760  177.1120  146.8050 C   0  0  0  0  0  3  0  0  0  0  0  0
  188.9330  177.6070  143.0910 C   0  0  0  0  0  0  0  0  0  0  0  0
  184.8520  178.7360  140.5980 C   0  0  0  0  0  2  0  0  0  0  0  0
  185.5610  179.1620  139.4720 O   0  0  0  0  0  0  0  0  0  0  0  0
  185.2760  178.2130  138.4890 C   0  0  0  0  0  2  0  0  0  0  0  0
  186.2550  178.3550  137.3380 C   0  0  0  0  0  2  0  0  0  0  0  0
  187.3100  177.3590  137.4580 N   0  0  0  0  0  0  0  0  0  0  0  0
  188.5850  177.6910  138.0420 C   0  0  0  0  0  0  0  0  0  0  0  0
  187.0480  176.0090  136.9650 C   0  0  0  0  0  2  0  0  0  0  0  0
  190.9680  177.0420  138.5100 C   0  0  0  0  0  1  0  0  0  0  0  0
  188.7930  178.8480  138.5020 O   0  0  0  0  0  0  0  0  0  0  0  0
  189.6220  176.7010  138.0730 N   0  0  0  0  0  0  0  0  0  0  0  0
  188.3350  175.3300  136.5040 C   0  0  0  0  0  2  0  0  0  0  0  0
  189.3440  175.3340  137.6480 C   0  0  0  0  0  2  0  0  0  0  0  0
  1 19  1  6  0  0  0
  1  2  1  0  0  0  0
  2  3  1  0  0  0  0
  3  4  1  0  0  0  0
  4  6  1  0  0  0  0
  6  5  1  0  0  0  0
  7  1  1  0  0  0  0
  7  8  1  0  0  0  0
  8 18  1  0  0  0  0
  9 15  1  0  0  0  0
  9 10  2  0  0  0  0
 10 17  1  0  0  0  0
 11 15  1  0  0  0  0
 12 13  1  0  0  0  0
 14 16  1  0  0  0  0
 14 18  2  0  0  0  0
 15 12  2  0  0  0  0
 16 11  2  0  0  0  0
 17 13  2  0  0  0  0
 18  9  1  0  0  0  0
 20 19  1  0  0  0  0
 21 20  1  0  0  0  0
 22 23  1  0  0  0  0
 22 21  1  0  0  0  0
 23 24  1  0  0  0  0
 24 28  1  0  0  0  0
 24 27  2  0  0  0  0
 25 23  1  0  0  0  0
 28 26  1  0  0  0  0
 29 25  1  0  0  0  0
 29 30  1  0  0  0  0
 30 28  1  0  0  0  0
M  END
>  <MODEL>
5

>  <REMARK>
 VINA RESULT:      -7.6      1.530      5.274
  Name = 
  12 active torsions:
  status: ('A' for Active; 'I' for Inactive)
    1  A    between atoms: C_3  and  N_19
    2  A    between atoms: C_3  and  C_20
    3  A    between atoms: N_4  and  C_24
    4  A    between atoms: O_5  and  C_13
    5  A    between atoms: O_5  and  C_26
    6  A    between atoms: C_10  and  N_19
    7  A    between atoms: C_10  and  C_22
    8  A    between atoms: C_10  and  C_26
    9  A    between atoms: C_13  and  C_24
   10  A    between atoms: C_18  and  C_20
   11  A    between atoms: C_22  and  O_29
   12  A    between atoms: O_29  and  C_30
                            x       y       z     vdW  Elec       q    Type
                         _______ _______ _______ _____ _____    ______ ____

>  <TORSDO>
F 12

$$$$
=
 OpenBabel10222416413D

 30 32  0  0  1  0  0  0  0  0999 V2000
  188.3020  177.8840  141.3090 C   0  0  1  0  0  3  0  0  0  0  0  0
  189.3530  178.1850  142.2660 N   0  0  0  0  0  2  0  0  0  0  0  0
  190.3990  177.1930  142.1030 C   0  0  0  0  0  2  0  0  0  0  0  0
  190.2140  176.1010  143.1360 C   0  0  0  0  0  2  0  0  0  0  0  0
  191.3140  176.8750  145.2130 C   0  0  0  0  0  1  0  0  0  0  0  0
  191.4600  175.9910  143.9920 C   0  0  0  0  0  2  0  0  0  0  0  0
  187.0310  178.6310  141.7000 C   0  0  0  0  0  2  0  0  0  0  0  0
  186.1770  177.7950  142.4740 O   0  0  0  0  0  0  0  0  0  0  0  0
  186.0850  178.1830  144.9410 C   0  0  0  0  0  0  0  0  0  0  0  0
  187.4190  177.8130  145.1760 C   0  0  0  0  0  3  0  0  0  0  0  0
  184.0100  179.0030  145.8450 N   0  0  0  0  0  0  0  0  0  0  0  0
  185.8350  178.6290  147.3290 C   0  0  0  0  0  3  0  0  0  0  0  0
  187.1570  178.2370  147.5430 C   0  0  0  0  0  3  0  0  0  0  0  0
  184.1810  178.5940  143.5000 C   0  0  0  0  0  3  0  0  0  0  0  0
  185.2970  178.6120  146.0390 C   0  0  0  0  0  0  0  0  0  0  0  0
  183.4450  179.0030  144.6120 C   0  0  0  0  0  3  0  0  0  0  0  0
  187.9510  177.8340  146.4660 C   0  0  0  0  0  3  0  0  0  0  0  0
  185.5060  178.1760  143.6450 C   0  0  0  0  0  0  0  0  0  0  0  0
  188.7520  178.2710  139.9030 C   0  0  0  0  0  2  0  0  0  0  0  0
  187.6480  178.3980  139.0570 O   0  0  0  0  0  0  0  0  0  0  0  0
  188.1370  178.1010  137.7840 C   0  0  0  0  0  2  0  0  0  0  0  0
  189.6360  177.8770  137.8480 C   0  0  0  0  0  2  0  0  0  0  0  0
  189.9460  176.4930  137.5190 N   0  0  0  0  0  0  0  0  0  0  0  0
  191.2860  175.9790  137.6470 C   0  0  0  0  0  0  0  0  0  0  0  0
  188.8620  175.6320  137.0500 C   0  0  0  0  0  2  0  0  0  0  0  0
  192.9270  174.1260  137.2080 C   0  0  0  0  0  1  0  0  0  0  0  0
  192.2110  176.7140  138.0890 O   0  0  0  0  0  0  0  0  0  0  0  0
  191.5630  174.6310  137.2420 N   0  0  0  0  0  0  0  0  0  0  0  0
  189.3870  174.5400  136.1220 C   0  0  0  0  0  2  0  0  0  0  0  0
  190.4740  173.7480  136.8410 C   0  0  0  0  0  2  0  0  0  0  0  0
  1 19  1  6  0  0  0
  1  7  1  0  0  0  0
  1  2  1  0  0  0  0
  3  2  1  0  0  0  0
  3  4  1  0  0  0  0
  4  6  1  0  0  0  0
  6  5  1  0  0  0  0
  7  8  1  0  0  0  0
  8 18  1  0  0  0  0
  9 10  2  0  0  0  0
  9 15  1  0  0  0  0
 10 17  1  0  0  0  0
 11 15  1  0  0  0  0
 12 13  1  0  0  0  0
 14 18  2  0  0  0  0
 14 16  1  0  0  0  0
 15 12  2  0  0  0  0
 16 11  2  0  0  0  0
 17 13  2  0  0  0  0
 18  9  1  0  0  0  0
 20 19  1  0  0  0  0
 21 22  1  0  0  0  0
 21 20  1  0  0  0  0
 23 24  1  0  0  0  0
 23 22  1  0  0  0  0
 24 27  2  0  0  0  0
 25 23  1  0  0  0  0
 26 28  1  0  0  0  0
 28 24  1  0  0  0  0
 29 30  1  0  0  0  0
 29 25  1  0  0  0  0
 30 28  1  0  0  0  0
M  END
>  <MODEL>
6

>  <REMARK>
 VINA RESULT:      -7.4      1.955      3.778
  Name = 
  12 active torsions:
  status: ('A' for Active; 'I' for Inactive)
    1  A    between atoms: C_3  and  N_19
    2  A    between atoms: C_3  and  C_20
    3  A    between atoms: N_4  and  C_24
    4  A    between atoms: O_5  and  C_13
    5  A    between atoms: O_5  and  C_26
    6  A    between atoms: C_10  and  N_19
    7  A    between atoms: C_10  and  C_22
    8  A    between atoms: C_10  and  C_26
    9  A    between atoms: C_13  and  C_24
   10  A    between atoms: C_18  and  C_20
   11  A    between atoms: C_22  and  O_29
   12  A    between atoms: O_29  and  C_30
                            x       y       z     vdW  Elec       q    Type
                         _______ _______ _______ _____ _____    ______ ____

>  <TORSDO>
F 12

$$$$
=
 OpenBabel10222416413D

 30 32  0  0  1  0  0  0  0  0999 V2000
  189.2760  177.3520  140.5410 C   0  0  1  0  0  3  0  0  0  0  0  0
  190.1890  177.7110  139.4690 N   0  0  0  0  0  2  0  0  0  0  0  0
  190.0580  176.7150  138.4220 C   0  0  0  0  0  2  0  0  0  0  0  0
  188.7050  176.8670  137.7580 C   0  0  0  0  0  2  0  0  0  0  0  0
  187.2920  178.4180  136.4490 C   0  0  0  0  0  1  0  0  0  0  0  0
  188.7110  178.0880  136.8610 C   0  0  0  0  0  2  0  0  0  0  0  0
  190.0650  176.7370  141.6930 C   0  0  0  0  0  2  0  0  0  0  0  0
  189.2750  176.7000  142.8770 O   0  0  0  0  0  0  0  0  0  0  0  0
  188.9870  177.1650  145.3160 C   0  0  0  0  0  0  0  0  0  0  0  0
  187.6180  177.4640  145.2260 C   0  0  0  0  0  3  0  0  0  0  0  0
  190.9230  176.8940  146.7200 N   0  0  0  0  0  0  0  0  0  0  0  0
  188.8700  177.5650  147.7230 C   0  0  0  0  0  3  0  0  0  0  0  0
  187.5150  177.8780  147.6070 C   0  0  0  0  0  3  0  0  0  0  0  0
  191.1120  176.4810  144.3770 C   0  0  0  0  0  3  0  0  0  0  0  0
  189.6060  177.2030  146.5910 C   0  0  0  0  0  0  0  0  0  0  0  0
  191.6780  176.5370  145.6510 C   0  0  0  0  0  3  0  0  0  0  0  0
  186.8870  177.8220  146.3600 C   0  0  0  0  0  3  0  0  0  0  0  0
  189.7650  176.7960  144.1880 C   0  0  0  0  0  0  0  0  0  0  0  0
  188.5060  178.5850  141.0030 C   0  0  0  0  0  2  0  0  0  0  0  0
  187.2520  178.6310  140.3920 O   0  0  0  0  0  0  0  0  0  0  0  0
  186.3490  178.8260  141.4390 C   0  0  0  0  0  2  0  0  0  0  0  0
  184.9310  178.6190  140.9420 C   0  0  0  0  0  2  0  0  0  0  0  0
  184.0050  178.6210  142.0650 N   0  0  0  0  0  0  0  0  0  0  0  0
  182.5810  178.7000  141.8560 C   0  0  0  0  0  0  0  0  0  0  0  0
  184.5550  178.5460  143.4170 C   0  0  0  0  0  2  0  0  0  0  0  0
  180.2830  179.0110  142.8250 C   0  0  0  0  0  1  0  0  0  0  0  0
  182.1090  178.7250  140.6870 O   0  0  0  0  0  0  0  0  0  0  0  0
  181.7080  178.7740  142.9930 N   0  0  0  0  0  0  0  0  0  0  0  0
  183.6410  179.2400  144.4230 C   0  0  0  0  0  2  0  0  0  0  0  0
  182.2460  178.6290  144.3410 C   0  0  0  0  0  2  0  0  0  0  0  0
  1 19  1  1  0  0  0
  1  7  1  0  0  0  0
  2  1  1  0  0  0  0
  3  2  1  0  0  0  0
  4  3  1  0  0  0  0
  5  6  1  0  0  0  0
  6  4  1  0  0  0  0
  7  8  1  0  0  0  0
  8 18  1  0  0  0  0
  9 15  1  0  0  0  0
 10  9  2  0  0  0  0
 10 17  1  0  0  0  0
 13 12  1  0  0  0  0
 14 16  1  0  0  0  0
 15 11  1  0  0  0  0
 15 12  2  0  0  0  0
 16 11  2  0  0  0  0
 17 13  2  0  0  0  0
 18 14  2  0  0  0  0
 18  9  1  0  0  0  0
 20 19  1  0  0  0  0
 20 21  1  0  0  0  0
 22 21  1  0  0  0  0
 22 23  1  0  0  0  0
 23 25  1  0  0  0  0
 24 23  1  0  0  0  0
 24 28  1  0  0  0  0
 25 29  1  0  0  0  0
 26 28  1  0  0  0  0
 27 24  2  0  0  0  0
 28 30  1  0  0  0  0
 30 29  1  0  0  0  0
M  END
>  <MODEL>
7

>  <REMARK>
 VINA RESULT:      -7.4      2.265      6.047
  Name = 
  12 active torsions:
  status: ('A' for Active; 'I' for Inactive)
    1  A    between atoms: C_3  and  N_19
    2  A    between atoms: C_3  and  C_20
    3  A    between atoms: N_4  and  C_24
    4  A    between atoms: O_5  and  C_13
    5  A    between atoms: O_5  and  C_26
    6  A    between atoms: C_10  and  N_19
    7  A    between atoms: C_10  and  C_22
    8  A    between atoms: C_10  and  C_26
    9  A    between atoms: C_13  and  C_24
   10  A    between atoms: C_18  and  C_20
   11  A    between atoms: C_22  and  O_29
   12  A    between atoms: O_29  and  C_30
                            x       y       z     vdW  Elec       q    Type
                         _______ _______ _______ _____ _____    ______ ____

>  <TORSDO>
F 12

$$$$
=
 OpenBabel10222416413D

 30 32  0  0  1  0  0  0  0  0999 V2000
  188.6250  177.5210  140.7610 C   0  0  1  0  0  3  0  0  0  0  0  0
  190.0390  177.4470  141.0890 N   0  0  0  0  0  2  0  0  0  0  0  0
  190.1530  176.9890  142.4620 C   0  0  0  0  0  2  0  0  0  0  0  0
  191.5990  177.0850  142.8990 C   0  0  0  0  0  2  0  0  0  0  0  0
  190.9390  179.2090  143.9810 C   0  0  0  0  0  1  0  0  0  0  0  0
  191.6950  177.9110  144.1660 C   0  0  0  0  0  2  0  0  0  0  0  0
  187.9070  178.3710  141.8040 C   0  0  0  0  0  2  0  0  0  0  0  0
  186.9660  177.5850  142.5290 O   0  0  0  0  0  0  0  0  0  0  0  0
  186.7010  177.9740  144.9830 C   0  0  0  0  0  0  0  0  0  0  0  0
  187.9770  177.4980  145.3250 C   0  0  0  0  0  3  0  0  0  0  0  0
  184.6290  178.9540  145.7210 N   0  0  0  0  0  0  0  0  0  0  0  0
  186.2890  178.4330  147.3470 C   0  0  0  0  0  3  0  0  0  0  0  0
  187.5540  177.9360  147.6660 C   0  0  0  0  0  3  0  0  0  0  0  0
  184.9620  178.5390  143.3940 C   0  0  0  0  0  3  0  0  0  0  0  0
  185.8600  178.4620  146.0160 C   0  0  0  0  0  0  0  0  0  0  0  0
  184.1700  179.0030  144.4450 C   0  0  0  0  0  3  0  0  0  0  0  0
  188.4000  177.4740  146.6550 C   0  0  0  0  0  3  0  0  0  0  0  0
  186.2320  178.0160  143.6440 C   0  0  0  0  0  0  0  0  0  0  0  0
  188.4460  178.1040  139.3630 C   0  0  0  0  0  2  0  0  0  0  0  0
  188.6080  177.1080  138.3970 O   0  0  0  0  0  0  0  0  0  0  0  0
  187.3650  177.0130  137.7680 C   0  0  0  0  0  2  0  0  0  0  0  0
  186.6070  178.3170  137.9270 C   0  0  0  0  0  2  0  0  0  0  0  0
  185.1870  178.0490  138.0990 N   0  0  0  0  0  0  0  0  0  0  0  0
  184.4100  178.7520  139.0890 C   0  0  0  0  0  0  0  0  0  0  0  0
  184.5630  177.0420  137.2430 C   0  0  0  0  0  2  0  0  0  0  0  0
  182.2570  178.9780  140.3660 C   0  0  0  0  0  1  0  0  0  0  0  0
  184.9430  179.6480  139.7990 O   0  0  0  0  0  0  0  0  0  0  0  0
  183.0310  178.4040  139.2760 N   0  0  0  0  0  0  0  0  0  0  0  0
  183.3800  176.3790  137.9440 C   0  0  0  0  0  2  0  0  0  0  0  0
  182.3870  177.4510  138.3780 C   0  0  0  0  0  2  0  0  0  0  0  0
  1 19  1  6  0  0  0
  1  2  1  0  0  0  0
  1  7  1  0  0  0  0
  2  3  1  0  0  0  0
  3  4  1  0  0  0  0
  4  6  1  0  0  0  0
  5  6  1  0  0  0  0
  7  8  1  0  0  0  0
  8 18  1  0  0  0  0
  9 10  2  0  0  0  0
  9 15  1  0  0  0  0
 10 17  1  0  0  0  0
 11 15  1  0  0  0  0
 12 13  1  0  0  0  0
 14 18  2  0  0  0  0
 14 16  1  0  0  0  0
 15 12  2  0  0  0  0
 16 11  2  0  0  0  0
 17 13  2  0  0  0  0
 18  9  1  0  0  0  0
 20 19  1  0  0  0  0
 21 22  1  0  0  0  0
 21 20  1  0  0  0  0
 22 23  1  0  0  0  0
 23 24  1  0  0  0  0
 24 28  1  0  0  0  0
 24 27  2  0  0  0  0
 25 29  1  0  0  0  0
 25 23  1  0  0  0  0
 28 26  1  0  0  0  0
 29 30  1  0  0  0  0
 30 28  1  0  0  0  0
M  END
>  <MODEL>
8

>  <REMARK>
 VINA RESULT:      -7.4      1.805      3.394
  Name = 
  12 active torsions:
  status: ('A' for Active; 'I' for Inactive)
    1  A    between atoms: C_3  and  N_19
    2  A    between atoms: C_3  and  C_20
    3  A    between atoms: N_4  and  C_24
    4  A    between atoms: O_5  and  C_13
    5  A    between atoms: O_5  and  C_26
    6  A    between atoms: C_10  and  N_19
    7  A    between atoms: C_10  and  C_22
    8  A    between atoms: C_10  and  C_26
    9  A    between atoms: C_13  and  C_24
   10  A    between atoms: C_18  and  C_20
   11  A    between atoms: C_22  and  O_29
   12  A    between atoms: O_29  and  C_30
                            x       y       z     vdW  Elec       q    Type
                         _______ _______ _______ _____ _____    ______ ____

>  <TORSDO>
F 12

$$$$
=
 OpenBabel10222416413D

 30 32  0  0  1  0  0  0  0  0999 V2000
  189.5700  176.7940  143.2500 C   0  0  1  0  0  3  0  0  0  0  0  0
  189.9750  177.8490  144.1630 N   0  0  0  0  0  2  0  0  0  0  0  0
  191.4040  177.7190  144.3860 C   0  0  0  0  0  2  0  0  0  0  0  0
  191.6650  176.4900  145.2310 C   0  0  0  0  0  2  0  0  0  0  0  0
  192.0560  175.9960  147.6240 C   0  0  0  0  0  1  0  0  0  0  0  0
  191.1630  176.7250  146.6420 C   0  0  0  0  0  2  0  0  0  0  0  0
  188.1270  176.3970  143.5430 C   0  0  0  0  0  2  0  0  0  0  0  0
  187.2530  177.5040  143.3420 O   0  0  0  0  0  0  0  0  0  0  0  0
  184.9200  178.2700  143.8060 C   0  0  0  0  0  0  0  0  0  0  0  0
  184.5140  178.2580  142.4610 C   0  0  0  0  0  3  0  0  0  0  0  0
  184.3220  178.6320  146.1090 N   0  0  0  0  0  0  0  0  0  0  0  0
  182.6750  179.0040  144.4290 C   0  0  0  0  0  3  0  0  0  0  0  0
  182.3000  179.0050  143.0850 C   0  0  0  0  0  3  0  0  0  0  0  0
  186.5330  177.9100  145.5760 C   0  0  0  0  0  3  0  0  0  0  0  0
  183.9730  178.6340  144.7960 C   0  0  0  0  0  0  0  0  0  0  0  0
  185.5680  178.2800  146.5130 C   0  0  0  0  0  3  0  0  0  0  0  0
  183.2170  178.6270  142.1020 C   0  0  0  0  0  3  0  0  0  0  0  0
  186.2280  177.9020  144.2130 C   0  0  0  0  0  0  0  0  0  0  0  0
  189.7240  177.2680  141.8080 C   0  0  0  0  0  2  0  0  0  0  0  0
  190.5640  176.4060  141.1000 O   0  0  0  0  0  0  0  0  0  0  0  0
  191.1670  177.2090  140.1300 C   0  0  0  0  0  2  0  0  0  0  0  0
  191.2210  176.4650  138.8090 C   0  0  0  0  0  2  0  0  0  0  0  0
  189.9850  176.6760  138.0690 N   0  0  0  0  0  0  0  0  0  0  0  0
  189.3210  175.5850  137.4010 C   0  0  0  0  0  0  0  0  0  0  0  0
  189.4310  178.0280  138.0150 C   0  0  0  0  0  2  0  0  0  0  0  0
  187.5390  174.8080  135.8070 C   0  0  0  0  0  1  0  0  0  0  0  0
  189.7810  174.4130  137.4820 O   0  0  0  0  0  0  0  0  0  0  0  0
  188.1460  175.8500  136.6210 N   0  0  0  0  0  0  0  0  0  0  0  0
  188.6360  178.2470  136.7300 C   0  0  0  0  0  2  0  0  0  0  0  0
  187.5510  177.1820  136.6220 C   0  0  0  0  0  2  0  0  0  0  0  0
  1 19  1  6  0  0  0
  1  7  1  0  0  0  0
  1  2  1  0  0  0  0
  2  3  1  0  0  0  0
  3  4  1  0  0  0  0
  4  6  1  0  0  0  0
  6  5  1  0  0  0  0
  8  7  1  0  0  0  0
  8 18  1  0  0  0  0
  9 18  2  0  0  0  0
  9 15  1  0  0  0  0
 10  9  1  0  0  0  0
 11 16  1  0  0  0  0
 12 15  1  0  0  0  0
 13 12  2  0  0  0  0
 14 16  2  0  0  0  0
 15 11  2  0  0  0  0
 17 10  2  0  0  0  0
 17 13  1  0  0  0  0
 18 14  1  0  0  0  0
 20 19  1  0  0  0  0
 21 20  1  0  0  0  0
 22 21  1  0  0  0  0
 23 22  1  0  0  0  0
 24 27  2  0  0  0  0
 24 23  1  0  0  0  0
 25 23  1  0  0  0  0
 26 28  1  0  0  0  0
 28 30  1  0  0  0  0
 28 24  1  0  0  0  0
 29 25  1  0  0  0  0
 30 29  1  0  0  0  0
M  END
>  <MODEL>
9

>  <REMARK>
 VINA RESULT:      -7.3      1.506      2.037
  Name = 
  12 active torsions:
  status: ('A' for Active; 'I' for Inactive)
    1  A    between atoms: C_3  and  N_19
    2  A    between atoms: C_3  and  C_20
    3  A    between atoms: N_4  and  C_24
    4  A    between atoms: O_5  and  C_13
    5  A    between atoms: O_5  and  C_26
    6  A    between atoms: C_10  and  N_19
    7  A    between atoms: C_10  and  C_22
    8  A    between atoms: C_10  and  C_26
    9  A    between atoms: C_13  and  C_24
   10  A    between atoms: C_18  and  C_20
   11  A    between atoms: C_22  and  O_29
   12  A    between atoms: O_29  and  C_30
                            x       y       z     vdW  Elec       q    Type
                         _______ _______ _______ _____ _____    ______ ____

>  <TORSDO>
F 12

$$$$
