=
 OpenBabel10222416023D

 67 73  0  0  1  0  0  0  0  0999 V2000
  179.8170  175.4030  137.2740 C   0  0  0  0  0  0  0  0  0  0  0  0
  180.3730  175.7830  135.9300 C   0  0  2  0  0  3  0  0  0  0  0  0
  181.8670  173.8350  135.6260 C   0  0  0  0  0  0  0  0  0  0  0  0
  179.4940  174.1310  137.5190 C   0  0  0  0  0  3  0  0  0  0  0  0
  179.7710  177.7290  137.9780 C   0  0  0  0  0  3  0  0  0  0  0  0
  180.7590  172.9260  135.7760 N   0  0  0  0  0  0  0  0  0  0  0  0
  181.7340  175.1750  135.7340 C   0  0  0  0  0  0  0  0  0  0  0  0
  180.1310  178.1380  136.6030 C   0  0  0  0  0  0  0  0  0  0  0  0
  179.7390  173.0160  136.5850 C   0  0  0  0  0  3  0  0  0  0  0  0
  180.3730  177.2350  135.6950 N   0  0  0  0  0  0  0  0  0  0  0  0
  179.6110  176.4480  138.2990 C   0  0  0  0  0  0  0  0  0  0  0  0
  180.4630  182.3520  135.5010 C   0  0  0  0  0  0  0  0  0  0  0  0
  179.8220  181.9290  136.7570 C   0  0  0  0  0  0  0  0  0  0  0  0
  179.3470  182.7790  137.5560 O   0  0  0  0  0  0  0  0  0  0  0  0
  180.2090  179.5690  136.2390 C   0  0  0  0  0  0  0  0  0  0  0  0
  180.9250  181.4320  134.6520 C   0  0  0  0  0  3  0  0  0  0  0  0
  180.7470  179.9510  134.8740 C   0  0  0  0  0  2  0  0  0  0  0  0
  179.7590  180.5030  137.0890 C   0  0  0  0  0  3  0  0  0  0  0  0
  180.6710  183.7960  135.1960 C   0  0  0  0  0  2  0  0  0  0  0  0
  181.5250  184.3610  136.1430 O   0  0  0  0  0  1  0  0  0  0  0  0
  183.8550  176.7670  135.6100 C   0  0  0  0  0  0  0  0  0  0  0  0
  182.8920  176.0450  135.6590 C   0  0  0  0  0  0  0  0  0  0  0  0
  185.0190  177.6560  135.5620 C   0  0  0  0  0  2  0  0  0  0  0  0
  187.4660  175.7950  137.4740 O   0  0  0  0  0  0  0  0  0  0  0  0
  188.0980  177.0370  137.2720 C   0  0  2  0  0  3  0  0  0  0  0  0
  187.4310  177.7430  136.1030 C   0  0  0  0  0  2  0  0  0  0  0  0
  186.2930  176.8490  135.7320 C   0  0  1  0  0  3  0  0  0  0  0  0
  186.1890  175.9210  136.9150 C   0  0  0  0  0  2  0  0  0  0  0  0
  191.0480  174.8080  136.8600 C   0  0  0  0  0  2  0  0  0  0  0  0
  189.8430  176.5980  135.5280 C   0  0  0  0  0  2  0  0  0  0  0  0
  190.1400  175.6290  137.7690 C   0  0  2  0  0  3  0  0  0  0  0  0
  191.4510  175.7890  135.3880 S   0  0  0  0  0  0  0  0  0  0  0  0
  189.5910  176.8310  137.0050 C   0  0  2  0  0  3  0  0  0  0  0  0
  191.4920  177.1330  139.0070 O   0  0  0  0  0  0  0  0  0  0  0  0
  190.8840  176.0750  138.9910 C   0  0  0  0  0  3  0  0  0  0  0  0
  184.1650  172.7780  135.0140 N   0  0  0  0  0  0  0  0  0  0  0  0
  183.1430  173.2480  135.2860 C   0  0  0  0  0  0  0  0  0  0  0  0
  179.2720  176.0940  139.7110 C   0  0  0  0  0  2  0  0  0  0  0  0
  179.9880  177.0370  140.6650 C   0  0  0  0  0  2  0  0  0  0  0  0
  179.0060  177.6580  141.6450 C   0  0  0  0  0  2  0  0  0  0  0  0
  179.0760  179.2650  143.4080 O   0  0  0  0  0  0  0  0  0  0  0  0
  179.6480  178.7850  142.3940 C   0  0  0  0  0  0  0  0  0  0  0  0
  180.8960  179.3340  141.9700 N   0  0  0  0  0  2  0  0  0  0  0  0
  181.6880  178.7380  140.9050 C   0  0  0  0  0  2  0  0  0  0  0  0
  185.0720  178.7990  142.7550 C   0  0  2  0  0  3  0  0  0  0  0  0
  185.3430  178.7520  140.2650 C   0  0  0  0  0  2  0  0  0  0  0  0
  183.5780  178.5460  142.5330 C   0  0  1  0  0  3  0  0  0  0  0  0
  182.8450  179.2250  143.5090 O   0  0  0  0  0  1  0  0  0  0  0  0
  183.1590  179.0240  141.1390 C   0  0  1  0  0  3  0  0  0  0  0  0
  185.9010  178.2450  141.5920 C   0  0  1  0  0  3  0  0  0  0  0  0
  183.9510  178.3400  140.1190 N   0  0  0  0  0  2  0  0  0  0  0  0
  185.4680  178.1910  143.9540 O   0  0  0  0  0  0  0  0  0  0  0  0
  185.5000  179.1660  144.8410 O   0  0  0  0  0  0  0  0  0  0  0  0
  185.0330  178.5950  146.0310 C   0  0  0  0  0  2  0  0  0  0  0  0
  186.0870  177.6780  146.6290 C   0  0  0  0  0  2  0  0  0  0  0  0
  187.0830  178.4760  147.4490 C   0  0  0  0  0  2  0  0  0  0  0  0
  188.0400  177.5290  148.1410 C   0  0  0  0  0  2  0  0  0  0  0  0
  189.2430  178.3050  148.6340 C   0  0  0  0  0  1  0  0  0  0  0  0
  187.3470  178.6910  141.7210 C   0  0  0  0  0  2  0  0  0  0  0  0
  188.2070  177.5600  141.7770 O   0  0  0  0  0  0  0  0  0  0  0  0
  188.8300  177.6270  144.1890 C   0  0  0  0  0  2  0  0  0  0  0  0
  192.1220  176.6790  145.6090 F   0  0  0  0  0  0  0  0  0  0  0  0
  190.4150  177.0680  142.3950 N   0  0  0  0  0  0  0  0  0  0  0  0
  191.5390  176.9390  143.3240 C   0  0  0  0  0  2  0  0  0  0  0  0
  191.0540  176.6390  144.7340 C   0  0  2  0  0  3  0  0  0  0  0  0
  190.0410  177.7050  145.1160 C   0  0  0  0  0  2  0  0  0  0  0  0
  189.2090  177.4270  142.7430 C   0  0  0  0  0  0  0  0  0  0  0  0
  1  4  2  0  0  0  0
  1 11  1  0  0  0  0
  2 10  1  1  0  0  0
  2  1  1  0  0  0  0
  3  7  2  0  0  0  0
  3  6  1  0  0  0  0
  5 11  2  0  0  0  0
  6  9  2  0  0  0  0
  7  2  1  0  0  0  0
  8  5  1  0  0  0  0
  9  4  1  0  0  0  0
 10  8  2  0  0  0  0
 11 38  1  0  0  0  0
 12 13  1  0  0  0  0
 13 18  1  0  0  0  0
 13 14  2  0  0  0  0
 15  8  1  0  0  0  0
 15 18  2  0  0  0  0
 16 17  1  0  0  0  0
 16 12  2  0  0  0  0
 17 15  1  0  0  0  0
 19 12  1  0  0  0  0
 19 20  1  0  0  0  0
 21 22  3  0  0  0  0
 22  7  1  0  0  0  0
 23 21  1  0  0  0  0
 25 26  1  6  0  0  0
 25 24  1  0  0  0  0
 27 23  1  1  0  0  0
 27 26  1  0  0  0  0
 27 28  1  0  0  0  0
 28 24  1  0  0  0  0
 29 31  1  0  0  0  0
 31 35  1  1  0  0  0
 32 30  1  0  0  0  0
 32 29  1  0  0  0  0
 33 30  1  6  0  0  0
 33 25  1  0  0  0  0
 33 31  1  0  0  0  0
 35 34  2  0  0  0  0
 36 37  3  0  0  0  0
 37  3  1  0  0  0  0
 38 39  1  0  0  0  0
 39 40  1  0  0  0  0
 40 42  1  0  0  0  0
 42 41  2  0  0  0  0
 43 42  1  0  0  0  0
 44 43  1  0  0  0  0
 45 52  1  1  0  0  0
 46 50  1  0  0  0  0
 47 45  1  0  0  0  0
 47 48  1  1  0  0  0
 49 44  1  6  0  0  0
 49 47  1  0  0  0  0
 50 59  1  1  0  0  0
 50 45  1  0  0  0  0
 51 46  1  0  0  0  0
 51 49  1  0  0  0  0
 52 53  1  0  0  0  0
 53 54  1  0  0  0  0
 54 55  1  0  0  0  0
 55 56  1  0  0  0  0
 56 57  1  0  0  0  0
 57 58  1  0  0  0  0
 59 60  1  0  0  0  0
 60 67  1  0  0  0  0
 61 66  1  0  0  0  0
 63 67  2  0  0  0  0
 63 64  1  0  0  0  0
 64 65  1  0  0  0  0
 65 66  1  0  0  0  0
 65 62  1  1  0  0  0
 67 61  1  0  0  0  0
M  END
>  <MODEL>
1

>  <REMARK>
 VINA RESULT:      -7.2      0.000      0.000
  Name = 
  23 active torsions:
  status: ('A' for Active; 'I' for Inactive)
    1  A    between atoms: C_1  and  C_32
    2  A    between atoms: C_1  and  C_52
    3  A    between atoms: C_3  and  C_13
    4  A    between atoms: C_4  and  C_60
    5  A    between atoms: C_5  and  O_63
    6  A    between atoms: C_7  and  C_31
    7  A    between atoms: C_7  and  O_47
    8  A    between atoms: C_12  and  C_59
    9  A    between atoms: C_12  and  C_66
   10  A    between atoms: O_19  and  C_22
   11  A    between atoms: O_19  and  O_63
   12  A    between atoms: C_20  and  C_41
   13  A    between atoms: C_21  and  C_50
   14  A    between atoms: C_22  and  C_52
   15  A    between atoms: C_24  and  C_29
   16  A    between atoms: C_25  and  C_42
   17  A    between atoms: C_37  and  C_53
   18  A    between atoms: C_37  and  C_59
   19  A    between atoms: C_41  and  N_56
   20  A    between atoms: C_44  and  C_51
   21  A    between atoms: C_45  and  C_60
   22  A    between atoms: C_46  and  C_49
   23  A    between atoms: O_47  and  C_62
                            x       y       z     vdW  Elec       q    Type
                         _______ _______ _______ _____ _____    ______ ____

>  <TORSDO>
F 23

$$$$
=
 OpenBabel10222416023D

 67 73  0  0  1  0  0  0  0  0999 V2000
  180.6330  175.8200  138.2970 C   0  0  0  0  0  0  0  0  0  0  0  0
  181.2980  176.1250  136.9850 C   0  0  2  0  0  3  0  0  0  0  0  0
  182.9660  174.2980  137.0240 C   0  0  0  0  0  0  0  0  0  0  0  0
  180.3880  174.5520  138.6350 C   0  0  0  0  0  3  0  0  0  0  0  0
  180.3270  178.1870  138.7590 C   0  0  0  0  0  3  0  0  0  0  0  0
  181.9230  173.3110  137.1530 N   0  0  0  0  0  0  0  0  0  0  0  0
  182.7160  175.6250  136.9860 C   0  0  0  0  0  0  0  0  0  0  0  0
  180.7990  178.5000  137.3930 C   0  0  0  0  0  0  0  0  0  0  0  0
  180.8180  173.3830  137.8440 C   0  0  0  0  0  3  0  0  0  0  0  0
  181.2080  177.5440  136.6080 N   0  0  0  0  0  0  0  0  0  0  0  0
  180.2360  176.9310  139.1890 C   0  0  0  0  0  0  0  0  0  0  0  0
  180.8690  182.5870  135.8530 C   0  0  0  0  0  0  0  0  0  0  0  0
  181.1030  182.2930  137.2770 C   0  0  0  0  0  0  0  0  0  0  0  0
  181.3320  183.2200  138.0970 O   0  0  0  0  0  0  0  0  0  0  0  0
  180.8030  179.8940  136.8990 C   0  0  0  0  0  0  0  0  0  0  0  0
  180.5910  181.5920  135.0090 C   0  0  0  0  0  3  0  0  0  0  0  0
  180.4170  180.1630  135.4590 C   0  0  0  0  0  2  0  0  0  0  0  0
  181.0920  180.9010  137.7360 C   0  0  0  0  0  3  0  0  0  0  0  0
  181.0100  183.9740  135.3250 C   0  0  0  0  0  2  0  0  0  0  0  0
  179.7550  184.5770  135.2410 O   0  0  0  0  0  1  0  0  0  0  0  0
  184.7100  177.3760  136.9140 C   0  0  0  0  0  0  0  0  0  0  0  0
  183.8030  176.5840  136.9410 C   0  0  0  0  0  0  0  0  0  0  0  0
  185.8100  178.3450  136.8970 C   0  0  0  0  0  2  0  0  0  0  0  0
  189.2100  177.8270  135.7690 O   0  0  0  0  0  0  0  0  0  0  0  0
  188.4860  176.8620  135.0440 C   0  0  2  0  0  3  0  0  0  0  0  0
  187.1570  176.6210  135.7410 C   0  0  0  0  0  2  0  0  0  0  0  0
  187.1400  177.6150  136.8580 C   0  0  1  0  0  3  0  0  0  0  0  0
  188.2600  178.5550  136.4940 C   0  0  0  0  0  2  0  0  0  0  0  0
  190.5750  174.2060  136.5980 C   0  0  0  0  0  2  0  0  0  0  0  0
  188.4200  174.3670  135.2710 C   0  0  0  0  0  2  0  0  0  0  0  0
  190.4760  175.5600  135.9050 C   0  0  2  0  0  3  0  0  0  0  0  0
  189.5300  173.0140  135.7140 S   0  0  0  0  0  0  0  0  0  0  0  0
  189.2910  175.5650  134.9430 C   0  0  2  0  0  3  0  0  0  0  0  0
  192.7680  176.1550  135.7870 O   0  0  0  0  0  0  0  0  0  0  0  0
  191.7480  175.8730  135.1790 C   0  0  0  0  0  3  0  0  0  0  0  0
  185.3920  173.3980  136.7520 N   0  0  0  0  0  0  0  0  0  0  0  0
  184.3130  173.7990  136.8730 C   0  0  0  0  0  0  0  0  0  0  0  0
  179.7770  176.6760  140.5890 C   0  0  0  0  0  2  0  0  0  0  0  0
  178.9310  177.8430  141.0730 C   0  0  0  0  0  2  0  0  0  0  0  0
  179.4790  178.4000  142.3770 C   0  0  0  0  0  2  0  0  0  0  0  0
  179.6260  180.7790  142.2550 O   0  0  0  0  0  0  0  0  0  0  0  0
  180.2240  179.6770  142.1350 C   0  0  0  0  0  0  0  0  0  0  0  0
  181.6000  179.6650  141.7590 N   0  0  0  0  0  2  0  0  0  0  0  0
  182.3950  178.4460  141.7470 C   0  0  0  0  0  2  0  0  0  0  0  0
  186.0960  178.9940  142.6880 C   0  0  2  0  0  3  0  0  0  0  0  0
  185.8060  178.3240  140.2910 C   0  0  0  0  0  2  0  0  0  0  0  0
  184.6100  178.6830  142.8880 C   0  0  1  0  0  3  0  0  0  0  0  0
  184.0710  179.5800  143.8130 O   0  0  0  0  0  1  0  0  0  0  0  0
  183.8600  178.7930  141.5560 C   0  0  1  0  0  3  0  0  0  0  0  0
  186.6780  178.1710  141.5340 C   0  0  1  0  0  3  0  0  0  0  0  0
  184.4460  177.8790  140.5770 N   0  0  0  0  0  2  0  0  0  0  0  0
  186.7880  178.7090  143.8720 O   0  0  0  0  0  0  0  0  0  0  0  0
  187.4670  177.6070  143.6180 O   0  0  0  0  0  0  0  0  0  0  0  0
  187.8310  177.1020  144.8720 C   0  0  0  0  0  2  0  0  0  0  0  0
  188.9140  177.9650  145.4980 C   0  0  0  0  0  2  0  0  0  0  0  0
  190.2870  177.5200  145.0280 C   0  0  0  0  0  2  0  0  0  0  0  0
  190.9990  176.8070  146.1570 C   0  0  0  0  0  2  0  0  0  0  0  0
  190.0460  176.6340  147.3200 C   0  0  0  0  0  1  0  0  0  0  0  0
  188.0850  178.6450  141.2110 C   0  0  0  0  0  2  0  0  0  0  0  0
  188.7130  177.7420  140.3100 O   0  0  0  0  0  0  0  0  0  0  0  0
  190.7980  177.3380  139.0050 C   0  0  0  0  0  2  0  0  0  0  0  0
  194.2280  177.1390  140.4010 F   0  0  0  0  0  0  0  0  0  0  0  0
  190.7420  177.4940  141.4580 N   0  0  0  0  0  0  0  0  0  0  0  0
  192.1730  177.2140  141.5850 C   0  0  0  0  0  2  0  0  0  0  0  0
  192.9150  177.5600  140.3030 C   0  0  2  0  0  3  0  0  0  0  0  0
  192.2310  176.8350  139.1570 C   0  0  0  0  0  2  0  0  0  0  0  0
  190.0900  177.5020  140.3270 C   0  0  0  0  0  0  0  0  0  0  0  0
  1  4  2  0  0  0  0
  1 11  1  0  0  0  0
  2 10  1  1  0  0  0
  2  7  1  0  0  0  0
  2  1  1  0  0  0  0
  3  6  1  0  0  0  0
  5 11  2  0  0  0  0
  6  9  2  0  0  0  0
  7  3  2  0  0  0  0
  8  5  1  0  0  0  0
  9  4  1  0  0  0  0
 10  8  2  0  0  0  0
 11 38  1  0  0  0  0
 12 13  1  0  0  0  0
 13 18  1  0  0  0  0
 13 14  2  0  0  0  0
 15  8  1  0  0  0  0
 15 18  2  0  0  0  0
 16 17  1  0  0  0  0
 16 12  2  0  0  0  0
 17 15  1  0  0  0  0
 19 12  1  0  0  0  0
 20 19  1  0  0  0  0
 21 22  3  0  0  0  0
 22  7  1  0  0  0  0
 23 21  1  0  0  0  0
 24 28  1  0  0  0  0
 25 26  1  1  0  0  0
 25 24  1  0  0  0  0
 26 27  1  0  0  0  0
 27 23  1  6  0  0  0
 28 27  1  0  0  0  0
 30 32  1  0  0  0  0
 31 35  1  6  0  0  0
 31 29  1  0  0  0  0
 32 29  1  0  0  0  0
 33 25  1  0  0  0  0
 33 30  1  1  0  0  0
 33 31  1  0  0  0  0
 35 34  2  0  0  0  0
 36 37  3  0  0  0  0
 37  3  1  0  0  0  0
 38 39  1  0  0  0  0
 39 40  1  0  0  0  0
 42 41  2  0  0  0  0
 42 40  1  0  0  0  0
 43 42  1  0  0  0  0
 44 43  1  0  0  0  0
 45 47  1  0  0  0  0
 45 52  1  1  0  0  0
 46 51  1  0  0  0  0
 46 50  1  0  0  0  0
 47 48  1  1  0  0  0
 49 44  1  1  0  0  0
 49 47  1  0  0  0  0
 50 59  1  6  0  0  0
 50 45  1  0  0  0  0
 51 49  1  0  0  0  0
 53 52  1  0  0  0  0
 53 54  1  0  0  0  0
 54 55  1  0  0  0  0
 56 55  1  0  0  0  0
 56 57  1  0  0  0  0
 57 58  1  0  0  0  0
 60 67  1  0  0  0  0
 60 59  1  0  0  0  0
 61 66  1  0  0  0  0
 61 67  1  0  0  0  0
 63 64  1  0  0  0  0
 65 62  1  1  0  0  0
 65 64  1  0  0  0  0
 66 65  1  0  0  0  0
 67 63  2  0  0  0  0
M  END
>  <MODEL>
2

>  <REMARK>
 VINA RESULT:      -7.0      1.736      2.351
  Name = 
  23 active torsions:
  status: ('A' for Active; 'I' for Inactive)
    1  A    between atoms: C_1  and  C_32
    2  A    between atoms: C_1  and  C_52
    3  A    between atoms: C_3  and  C_13
    4  A    between atoms: C_4  and  C_60
    5  A    between atoms: C_5  and  O_63
    6  A    between atoms: C_7  and  C_31
    7  A    between atoms: C_7  and  O_47
    8  A    between atoms: C_12  and  C_59
    9  A    between atoms: C_12  and  C_66
   10  A    between atoms: O_19  and  C_22
   11  A    between atoms: O_19  and  O_63
   12  A    between atoms: C_20  and  C_41
   13  A    between atoms: C_21  and  C_50
   14  A    between atoms: C_22  and  C_52
   15  A    between atoms: C_24  and  C_29
   16  A    between atoms: C_25  and  C_42
   17  A    between atoms: C_37  and  C_53
   18  A    between atoms: C_37  and  C_59
   19  A    between atoms: C_41  and  N_56
   20  A    between atoms: C_44  and  C_51
   21  A    between atoms: C_45  and  C_60
   22  A    between atoms: C_46  and  C_49
   23  A    between atoms: O_47  and  C_62
                            x       y       z     vdW  Elec       q    Type
                         _______ _______ _______ _____ _____    ______ ____

>  <TORSDO>
F 23

$$$$
=
 OpenBabel10222416023D

 67 73  0  0  1  0  0  0  0  0999 V2000
  187.9580  175.1760  135.7440 C   0  0  0  0  0  0  0  0  0  0  0  0
  186.6660  175.7870  135.2790 C   0  0  0  0  0  0  0  0  0  0  0  0
  187.1760  178.1340  135.8740 C   0  0  0  0  0  0  0  0  0  0  0  0
  189.1100  175.8040  135.5040 C   0  0  0  0  0  3  0  0  0  0  0  0
  186.8030  173.1790  136.5130 C   0  0  0  0  0  3  0  0  0  0  0  0
  188.3620  178.1130  135.0550 N   0  0  0  0  0  0  0  0  0  0  0  0
  186.3810  177.0540  136.0390 C   0  0  0  0  0  0  0  0  0  0  0  0
  185.5570  173.6770  135.8910 C   0  0  0  0  0  0  0  0  0  0  0  0
  189.2150  177.1400  134.8870 C   0  0  0  0  0  3  0  0  0  0  0  0
  185.5350  174.8480  135.3210 N   0  0  0  0  0  2  0  0  0  0  0  0
  187.9370  173.8720  136.4400 C   0  0  0  0  0  0  0  0  0  0  0  0
  181.9680  171.1890  135.8250 C   0  0  0  0  0  0  0  0  0  0  0  0
  181.8980  172.6410  136.0550 C   0  0  0  0  0  0  0  0  0  0  0  0
  180.7910  173.2110  136.2410 O   0  0  0  0  0  0  0  0  0  0  0  0
  184.3310  172.8510  135.8980 C   0  0  0  0  0  0  0  0  0  0  0  0
  183.1550  170.6000  135.6690 C   0  0  0  0  0  3  0  0  0  0  0  0
  184.4600  171.3440  135.8010 C   0  0  0  0  0  2  0  0  0  0  0  0
  183.1310  173.4330  136.0430 C   0  0  0  0  0  3  0  0  0  0  0  0
  180.7260  170.3740  135.6920 C   0  0  0  0  0  2  0  0  0  0  0  0
  179.7690  170.8190  136.6040 O   0  0  0  0  0  1  0  0  0  0  0  0
  184.3070  177.1220  137.6920 C   0  0  0  0  0  0  0  0  0  0  0  0
  185.2460  177.0970  136.9390 C   0  0  0  0  0  0  0  0  0  0  0  0
  183.1580  177.1360  138.6030 C   0  0  0  0  0  2  0  0  0  0  0  0
  180.3800  179.3860  139.1760 O   0  0  0  0  0  0  0  0  0  0  0  0
  180.2150  179.0160  137.8280 C   0  0  2  0  0  3  0  0  0  0  0  0
  181.5360  178.4770  137.3020 C   0  0  0  0  0  2  0  0  0  0  0  0
  182.4320  178.4650  138.4980 C   0  0  1  0  0  3  0  0  0  0  0  0
  181.4720  178.6460  139.6450 C   0  0  0  0  0  2  0  0  0  0  0  0
  180.7060  181.4260  135.0370 C   0  0  0  0  0  2  0  0  0  0  0  0
  178.9470  179.7660  135.8010 C   0  0  0  0  0  2  0  0  0  0  0  0
  180.9310  181.0430  136.4950 C   0  0  2  0  0  3  0  0  0  0  0  0
  178.9680  181.1230  134.6110 S   0  0  0  0  0  0  0  0  0  0  0  0
  179.7510  180.2190  137.0040 C   0  0  2  0  0  3  0  0  0  0  0  0
  180.1670  182.8680  137.8020 O   0  0  0  0  0  0  0  0  0  0  0  0
  181.1220  182.2680  137.3370 C   0  0  0  0  0  3  0  0  0  0  0  0
  186.5530  180.4140  136.9610 N   0  0  0  0  0  0  0  0  0  0  0  0
  186.8300  179.4000  136.4770 C   0  0  0  0  0  0  0  0  0  0  0  0
  189.1590  173.3310  137.1110 C   0  0  0  0  0  2  0  0  0  0  0  0
  190.4040  173.8890  136.4400 C   0  0  0  0  0  2  0  0  0  0  0  0
  191.4270  174.3220  137.4790 C   0  0  0  0  0  2  0  0  0  0  0  0
  192.2340  175.9120  135.8940 O   0  0  0  0  0  0  0  0  0  0  0  0
  192.0330  175.6390  137.1070 C   0  0  0  0  0  0  0  0  0  0  0  0
  192.3990  176.5900  138.1070 N   0  0  0  0  0  2  0  0  0  0  0  0
  192.0620  176.4130  139.5110 C   0  0  0  0  0  2  0  0  0  0  0  0
  188.7590  177.2610  141.3130 C   0  0  2  0  0  3  0  0  0  0  0  0
  188.6090  177.5900  138.8330 C   0  0  0  0  0  2  0  0  0  0  0  0
  190.2640  177.0540  141.1300 C   0  0  1  0  0  3  0  0  0  0  0  0
  190.7140  176.1050  142.0500 O   0  0  0  0  0  1  0  0  0  0  0  0
  190.5660  176.5820  139.7040 C   0  0  1  0  0  3  0  0  0  0  0  0
  188.1860  178.1380  140.1930 C   0  0  1  0  0  3  0  0  0  0  0  0
  190.0650  177.5580  138.7380 N   0  0  0  0  0  2  0  0  0  0  0  0
  188.5250  177.8650  142.5550 O   0  0  0  0  0  0  0  0  0  0  0  0
  187.9450  176.9340  143.2880 O   0  0  0  0  0  0  0  0  0  0  0  0
  188.5000  177.0740  144.5650 C   0  0  0  0  0  2  0  0  0  0  0  0
  187.4230  177.4370  145.5750 C   0  0  0  0  0  2  0  0  0  0  0  0
  188.0370  177.6960  146.9380 C   0  0  0  0  0  2  0  0  0  0  0  0
  189.5420  177.7780  146.8060 C   0  0  0  0  0  2  0  0  0  0  0  0
  190.1570  176.4770  147.2760 C   0  0  0  0  0  1  0  0  0  0  0  0
  186.6690  178.1550  140.2670 C   0  0  0  0  0  2  0  0  0  0  0  0
  186.2230  179.3230  140.9440 O   0  0  0  0  0  0  0  0  0  0  0  0
  183.9360  178.7740  141.7700 C   0  0  0  0  0  2  0  0  0  0  0  0
  182.8430  178.7990  145.3130 F   0  0  0  0  0  0  0  0  0  0  0  0
  185.7460  179.5780  143.2260 N   0  0  0  0  0  0  0  0  0  0  0  0
  184.8890  179.5930  144.4120 C   0  0  0  0  0  2  0  0  0  0  0  0
  183.7110  178.6440  144.2500 C   0  0  2  0  0  3  0  0  0  0  0  0
  183.0000  178.9990  142.9550 C   0  0  0  0  0  2  0  0  0  0  0  0
  185.3370  179.2720  142.0250 C   0  0  0  0  0  0  0  0  0  0  0  0
  1 11  2  0  0  0  0
  2 10  1  0  0  0  0
  2  1  1  0  0  0  0
  2  7  2  0  0  0  0
  3  7  1  0  0  0  0
  3 37  1  0  0  0  0
  4  1  1  0  0  0  0
  6  3  2  0  0  0  0
  7 22  1  0  0  0  0
  8 15  1  0  0  0  0
  8  5  2  0  0  0  0
  9  6  1  0  0  0  0
  9  4  2  0  0  0  0
 10  8  1  0  0  0  0
 11  5  1  0  0  0  0
 11 38  1  0  0  0  0
 12 13  1  0  0  0  0
 13 14  2  0  0  0  0
 15 18  2  0  0  0  0
 16 17  1  0  0  0  0
 16 12  2  0  0  0  0
 17 15  1  0  0  0  0
 18 13  1  0  0  0  0
 19 12  1  0  0  0  0
 19 20  1  0  0  0  0
 21 23  1  0  0  0  0
 22 21  3  0  0  0  0
 24 28  1  0  0  0  0
 25 26  1  6  0  0  0
 25 24  1  0  0  0  0
 26 27  1  0  0  0  0
 27 23  1  1  0  0  0
 27 28  1  0  0  0  0
 29 31  1  0  0  0  0
 31 33  1  0  0  0  0
 31 35  1  1  0  0  0
 32 29  1  0  0  0  0
 32 30  1  0  0  0  0
 33 30  1  6  0  0  0
 33 25  1  0  0  0  0
 35 34  2  0  0  0  0
 37 36  3  0  0  0  0
 39 38  1  0  0  0  0
 39 40  1  0  0  0  0
 41 42  2  0  0  0  0
 42 40  1  0  0  0  0
 42 43  1  0  0  0  0
 43 44  1  0  0  0  0
 45 52  1  1  0  0  0
 46 50  1  0  0  0  0
 47 45  1  0  0  0  0
 47 48  1  1  0  0  0
 49 44  1  1  0  0  0
 49 47  1  0  0  0  0
 50 59  1  6  0  0  0
 50 45  1  0  0  0  0
 51 46  1  0  0  0  0
 51 49  1  0  0  0  0
 52 53  1  0  0  0  0
 53 54  1  0  0  0  0
 54 55  1  0  0  0  0
 55 56  1  0  0  0  0
 57 56  1  0  0  0  0
 57 58  1  0  0  0  0
 59 60  1  0  0  0  0
 60 67  1  0  0  0  0
 61 67  1  0  0  0  0
 61 66  1  0  0  0  0
 63 64  1  0  0  0  0
 65 64  1  0  0  0  0
 65 62  1  1  0  0  0
 66 65  1  0  0  0  0
 67 63  2  0  0  0  0
M  END
>  <MODEL>
3

>  <REMARK>
 VINA RESULT:      -5.7      3.311      8.548
  Name = 
  23 active torsions:
  status: ('A' for Active; 'I' for Inactive)
    1  A    between atoms: C_1  and  C_32
    2  A    between atoms: C_1  and  C_52
    3  A    between atoms: C_3  and  C_13
    4  A    between atoms: C_4  and  C_60
    5  A    between atoms: C_5  and  O_63
    6  A    between atoms: C_7  and  C_31
    7  A    between atoms: C_7  and  O_47
    8  A    between atoms: C_12  and  C_59
    9  A    between atoms: C_12  and  C_66
   10  A    between atoms: O_19  and  C_22
   11  A    between atoms: O_19  and  O_63
   12  A    between atoms: C_20  and  C_41
   13  A    between atoms: C_21  and  C_50
   14  A    between atoms: C_22  and  C_52
   15  A    between atoms: C_24  and  C_29
   16  A    between atoms: C_25  and  C_42
   17  A    between atoms: C_37  and  C_53
   18  A    between atoms: C_37  and  C_59
   19  A    between atoms: C_41  and  N_56
   20  A    between atoms: C_44  and  C_51
   21  A    between atoms: C_45  and  C_60
   22  A    between atoms: C_46  and  C_49
   23  A    between atoms: O_47  and  C_62
                            x       y       z     vdW  Elec       q    Type
                         _______ _______ _______ _____ _____    ______ ____

>  <TORSDO>
F 23

$$$$
=
 OpenBabel10222416023D

 67 73  0  0  1  0  0  0  0  0999 V2000
  188.7240  177.6180  139.0490 C   0  0  0  0  0  0  0  0  0  0  0  0
  188.6530  177.2410  137.5960 C   0  0  2  0  0  3  0  0  0  0  0  0
  186.2020  176.9350  137.4510 C   0  0  0  0  0  0  0  0  0  0  0  0
  187.8070  178.4400  139.5640 C   0  0  0  0  0  3  0  0  0  0  0  0
  190.8220  176.4210  139.3180 C   0  0  0  0  0  3  0  0  0  0  0  0
  185.9780  178.2810  137.9140 N   0  0  0  0  0  0  0  0  0  0  0  0
  187.4360  176.3980  137.3310 C   0  0  0  0  0  0  0  0  0  0  0  0
  190.8700  176.2050  137.8550 C   0  0  0  0  0  0  0  0  0  0  0  0
  186.6360  178.9470  138.8230 C   0  0  0  0  0  3  0  0  0  0  0  0
  189.8860  176.6090  137.1030 N   0  0  0  0  0  0  0  0  0  0  0  0
  189.8240  177.0920  139.8860 C   0  0  0  0  0  0  0  0  0  0  0  0
  194.3090  174.1750  136.0850 C   0  0  0  0  0  0  0  0  0  0  0  0
  194.2680  175.6390  136.2330 C   0  0  0  0  0  0  0  0  0  0  0  0
  195.2310  176.3530  135.8500 O   0  0  0  0  0  0  0  0  0  0  0  0
  192.0350  175.5420  137.2300 C   0  0  0  0  0  0  0  0  0  0  0  0
  193.2600  173.4410  136.4630 C   0  0  0  0  0  3  0  0  0  0  0  0
  191.9760  174.0510  136.9670 C   0  0  0  0  0  2  0  0  0  0  0  0
  193.0990  176.2670  136.8560 C   0  0  0  0  0  3  0  0  0  0  0  0
  195.5360  173.4910  135.5860 C   0  0  0  0  0  2  0  0  0  0  0  0
  195.9870  172.5770  136.5380 O   0  0  0  0  0  1  0  0  0  0  0  0
  187.7640  173.8610  136.6240 C   0  0  0  0  0  0  0  0  0  0  0  0
  187.6090  175.0120  136.9430 C   0  0  0  0  0  0  0  0  0  0  0  0
  187.9670  172.4640  136.2280 C   0  0  0  0  0  2  0  0  0  0  0  0
  184.7220  172.7530  134.6510 O   0  0  0  0  0  0  0  0  0  0  0  0
  184.4000  172.4080  135.9780 C   0  0  2  0  0  3  0  0  0  0  0  0
  185.6230  171.7870  136.6330 C   0  0  0  0  0  2  0  0  0  0  0  0
  186.6980  171.9140  135.6030 C   0  0  1  0  0  3  0  0  0  0  0  0
  186.1140  172.8940  134.6190 C   0  0  0  0  0  2  0  0  0  0  0  0
  180.9920  171.4130  134.8660 C   0  0  0  0  0  2  0  0  0  0  0  0
  183.3310  170.4320  134.8680 C   0  0  0  0  0  2  0  0  0  0  0  0
  181.8850  172.1650  135.8450 C   0  0  2  0  0  3  0  0  0  0  0  0
  181.6790  169.7550  134.5960 S   0  0  0  0  0  0  0  0  0  0  0  0
  183.2180  171.4360  135.9980 C   0  0  2  0  0  3  0  0  0  0  0  0
  180.3630  171.5060  137.5390 O   0  0  0  0  0  0  0  0  0  0  0  0
  181.2060  172.3080  137.1730 C   0  0  0  0  0  3  0  0  0  0  0  0
  184.0960  175.5840  136.7360 N   0  0  0  0  0  0  0  0  0  0  0  0
  185.0330  176.1850  137.0540 C   0  0  0  0  0  0  0  0  0  0  0  0
  189.8150  177.2560  141.3720 C   0  0  0  0  0  2  0  0  0  0  0  0
  190.5790  176.1120  142.0200 C   0  0  0  0  0  2  0  0  0  0  0  0
  191.2780  176.5810  143.2860 C   0  0  0  0  0  2  0  0  0  0  0  0
  191.2910  178.8710  143.9570 O   0  0  0  0  0  0  0  0  0  0  0  0
  190.6200  177.8130  143.8270 C   0  0  0  0  0  0  0  0  0  0  0  0
  189.2450  177.8050  144.2100 N   0  0  0  0  0  2  0  0  0  0  0  0
  188.3700  176.6720  143.9510 C   0  0  0  0  0  2  0  0  0  0  0  0
  185.0090  178.3180  144.8880 C   0  0  2  0  0  3  0  0  0  0  0  0
  185.5000  178.4710  142.4350 C   0  0  0  0  0  2  0  0  0  0  0  0
  186.4360  177.7930  145.0750 C   0  0  1  0  0  3  0  0  0  0  0  0
  186.4480  176.8490  146.1040 O   0  0  0  0  0  1  0  0  0  0  0  0
  186.9430  177.1570  143.7770 C   0  0  1  0  0  3  0  0  0  0  0  0
  184.9090  179.2000  143.6380 C   0  0  1  0  0  3  0  0  0  0  0  0
  186.8970  178.1350  142.6910 N   0  0  0  0  0  2  0  0  0  0  0  0
  184.6380  179.0540  146.0200 O   0  0  0  0  0  0  0  0  0  0  0  0
  185.7720  179.3690  146.6150 O   0  0  0  0  0  0  0  0  0  0  0  0
  185.5880  179.0290  147.9600 C   0  0  0  0  0  2  0  0  0  0  0  0
  186.8870  179.1910  148.7320 C   0  0  0  0  0  2  0  0  0  0  0  0
  188.0770  178.8990  147.8370 C   0  0  0  0  0  2  0  0  0  0  0  0
  188.9340  177.8260  148.4730 C   0  0  0  0  0  2  0  0  0  0  0  0
  189.9560  177.3400  147.4670 C   0  0  0  0  0  1  0  0  0  0  0  0
  183.4560  179.5330  143.3480 C   0  0  0  0  0  2  0  0  0  0  0  0
  182.8360  178.4610  142.6500 O   0  0  0  0  0  0  0  0  0  0  0  0
  183.0520  178.0730  140.1970 C   0  0  0  0  0  2  0  0  0  0  0  0
  180.4510  178.7780  137.6500 F   0  0  0  0  0  0  0  0  0  0  0  0
  181.1000  179.1510  141.2320 N   0  0  0  0  0  0  0  0  0  0  0  0
  180.4530  179.3920  139.9420 C   0  0  0  0  0  2  0  0  0  0  0  0
  180.9620  178.4240  138.8840 C   0  0  2  0  0  3  0  0  0  0  0  0
  182.4770  178.5190  138.8550 C   0  0  0  0  0  2  0  0  0  0  0  0
  182.2820  178.6160  141.3750 C   0  0  0  0  0  0  0  0  0  0  0  0
  1  4  2  0  0  0  0
  1 11  1  0  0  0  0
  2 10  1  1  0  0  0
  2  1  1  0  0  0  0
  3  6  1  0  0  0  0
  5 11  2  0  0  0  0
  6  9  2  0  0  0  0
  7  3  2  0  0  0  0
  7  2  1  0  0  0  0
  8  5  1  0  0  0  0
  9  4  1  0  0  0  0
 10  8  2  0  0  0  0
 11 38  1  0  0  0  0
 12 13  1  0  0  0  0
 12 16  2  0  0  0  0
 13 18  1  0  0  0  0
 14 13  2  0  0  0  0
 15  8  1  0  0  0  0
 16 17  1  0  0  0  0
 17 15  1  0  0  0  0
 18 15  2  0  0  0  0
 19 12  1  0  0  0  0
 19 20  1  0  0  0  0
 21 22  3  0  0  0  0
 22  7  1  0  0  0  0
 23 21  1  0  0  0  0
 24 25  1  0  0  0  0
 25 33  1  0  0  0  0
 25 26  1  6  0  0  0
 27 23  1  1  0  0  0
 27 26  1  0  0  0  0
 28 24  1  0  0  0  0
 28 27  1  0  0  0  0
 29 31  1  0  0  0  0
 31 33  1  0  0  0  0
 31 35  1  1  0  0  0
 32 29  1  0  0  0  0
 32 30  1  0  0  0  0
 33 30  1  6  0  0  0
 35 34  2  0  0  0  0
 36 37  3  0  0  0  0
 37  3  1  0  0  0  0
 38 39  1  0  0  0  0
 39 40  1  0  0  0  0
 40 42  1  0  0  0  0
 42 41  2  0  0  0  0
 42 43  1  0  0  0  0
 44 43  1  0  0  0  0
 45 47  1  0  0  0  0
 45 52  1  1  0  0  0
 46 51  1  0  0  0  0
 46 50  1  0  0  0  0
 47 48  1  1  0  0  0
 49 44  1  1  0  0  0
 49 47  1  0  0  0  0
 50 59  1  6  0  0  0
 50 45  1  0  0  0  0
 51 49  1  0  0  0  0
 52 53  1  0  0  0  0
 53 54  1  0  0  0  0
 54 55  1  0  0  0  0
 56 57  1  0  0  0  0
 56 55  1  0  0  0  0
 58 57  1  0  0  0  0
 60 59  1  0  0  0  0
 61 67  1  0  0  0  0
 63 67  2  0  0  0  0
 64 63  1  0  0  0  0
 65 62  1  6  0  0  0
 65 64  1  0  0  0  0
 66 65  1  0  0  0  0
 66 61  1  0  0  0  0
 67 60  1  0  0  0  0
M  END
>  <MODEL>
4

>  <REMARK>
 VINA RESULT:      -5.5      3.722      9.364
  Name = 
  23 active torsions:
  status: ('A' for Active; 'I' for Inactive)
    1  A    between atoms: C_1  and  C_32
    2  A    between atoms: C_1  and  C_52
    3  A    between atoms: C_3  and  C_13
    4  A    between atoms: C_4  and  C_60
    5  A    between atoms: C_5  and  O_63
    6  A    between atoms: C_7  and  C_31
    7  A    between atoms: C_7  and  O_47
    8  A    between atoms: C_12  and  C_59
    9  A    between atoms: C_12  and  C_66
   10  A    between atoms: O_19  and  C_22
   11  A    between atoms: O_19  and  O_63
   12  A    between atoms: C_20  and  C_41
   13  A    between atoms: C_21  and  C_50
   14  A    between atoms: C_22  and  C_52
   15  A    between atoms: C_24  and  C_29
   16  A    between atoms: C_25  and  C_42
   17  A    between atoms: C_37  and  C_53
   18  A    between atoms: C_37  and  C_59
   19  A    between atoms: C_41  and  N_56
   20  A    between atoms: C_44  and  C_51
   21  A    between atoms: C_45  and  C_60
   22  A    between atoms: C_46  and  C_49
   23  A    between atoms: O_47  and  C_62
                            x       y       z     vdW  Elec       q    Type
                         _______ _______ _______ _____ _____    ______ ____

>  <TORSDO>
F 23

$$$$
=
 OpenBabel10222416023D

 67 73  0  0  1  0  0  0  0  0999 V2000
  187.3160  177.9040  143.2120 C   0  0  0  0  0  0  0  0  0  0  0  0
  188.2010  176.7830  142.7450 C   0  0  0  0  0  0  0  0  0  0  0  0
  189.8090  176.8230  144.6240 C   0  0  0  0  0  0  0  0  0  0  0  0
  186.9970  178.0000  144.5050 C   0  0  0  0  0  3  0  0  0  0  0  0
  186.9720  178.6620  140.9280 C   0  0  0  0  0  3  0  0  0  0  0  0
  188.7450  176.6250  145.5760 N   0  0  0  0  0  0  0  0  0  0  0  0
  189.5900  176.9450  143.2970 C   0  0  0  0  0  0  0  0  0  0  0  0
  187.6750  177.4570  140.4370 C   0  0  0  0  0  0  0  0  0  0  0  0
  187.5390  177.1240  145.5610 C   0  0  0  0  0  3  0  0  0  0  0  0
  188.1980  176.6160  141.2840 N   0  0  0  0  0  0  0  0  0  0  0  0
  186.7890  178.8750  142.2290 C   0  0  2  0  0  3  0  0  0  0  0  0
  187.9160  176.5970  136.1610 C   0  0  0  0  0  0  0  0  0  0  0  0
  189.1120  176.5930  137.0190 C   0  0  0  0  0  0  0  0  0  0  0  0
  190.2480  176.3390  136.5390 O   0  0  0  0  0  0  0  0  0  0  0  0
  187.7850  177.1870  138.9870 C   0  0  0  0  0  0  0  0  0  0  0  0
  186.7270  176.9070  136.6840 C   0  0  0  0  0  3  0  0  0  0  0  0
  186.5530  177.3430  138.1170 C   0  0  0  0  0  2  0  0  0  0  0  0
  188.9710  176.8650  138.4530 C   0  0  0  0  0  3  0  0  0  0  0  0
  187.9990  176.1890  134.7300 C   0  0  0  0  0  2  0  0  0  0  0  0
  187.7950  174.8140  134.6180 O   0  0  0  0  0  1  0  0  0  0  0  0
  191.5960  177.4680  141.6390 C   0  0  0  0  0  0  0  0  0  0  0  0
  190.6820  177.2270  142.3860 C   0  0  0  0  0  0  0  0  0  0  0  0
  192.7050  177.7790  140.7340 C   0  0  0  0  0  2  0  0  0  0  0  0
  195.2130  175.6160  139.2700 O   0  0  0  0  0  0  0  0  0  0  0  0
  194.5650  176.1580  138.1440 C   0  0  2  0  0  3  0  0  0  0  0  0
  193.2070  176.6920  138.5680 C   0  0  0  0  0  2  0  0  0  0  0  0
  193.1860  176.5110  140.0520 C   0  0  1  0  0  3  0  0  0  0  0  0
  194.6300  176.2370  140.3820 C   0  0  0  0  0  2  0  0  0  0  0  0
  192.8330  173.1880  136.7230 C   0  0  0  0  0  2  0  0  0  0  0  0
  193.4320  175.5420  135.9950 C   0  0  0  0  0  2  0  0  0  0  0  0
  193.9120  173.7690  137.6310 C   0  0  2  0  0  3  0  0  0  0  0  0
  192.8700  174.0600  135.1320 S   0  0  0  0  0  0  0  0  0  0  0  0
  194.4160  175.0910  137.0570 C   0  0  2  0  0  3  0  0  0  0  0  0
  195.0460  171.9830  138.7010 O   0  0  0  0  0  0  0  0  0  0  0  0
  195.0420  172.7980  137.7920 C   0  0  0  0  0  3  0  0  0  0  0  0
  192.2320  176.8280  145.5720 N   0  0  0  0  0  0  0  0  0  0  0  0
  191.1540  176.8250  145.1510 C   0  0  0  0  0  0  0  0  0  0  0  0
  186.0940  180.1230  142.6660 C   0  0  0  0  0  2  0  0  0  0  0  0
  184.5880  179.9210  142.6070 C   0  0  0  0  0  2  0  0  0  0  0  0
  183.9680  180.0900  143.9860 C   0  0  0  0  0  2  0  0  0  0  0  0
  183.7360  178.1670  145.3800 O   0  0  0  0  0  0  0  0  0  0  0  0
  183.2780  178.8300  144.4120 C   0  0  0  0  0  0  0  0  0  0  0  0
  182.1150  178.3620  143.7310 N   0  0  0  0  0  2  0  0  0  0  0  0
  181.4420  179.1460  142.7070 C   0  0  0  0  0  2  0  0  0  0  0  0
  180.9180  178.5190  138.9370 C   0  0  2  0  0  3  0  0  0  0  0  0
  182.9080  177.2960  139.8440 C   0  0  0  0  0  2  0  0  0  0  0  0
  180.8330  179.2460  140.2820 C   0  0  1  0  0  3  0  0  0  0  0  0
  179.4920  179.4750  140.5980 O   0  0  0  0  0  1  0  0  0  0  0  0
  181.4930  178.4080  141.3820 C   0  0  1  0  0  3  0  0  0  0  0  0
  182.3540  178.0660  138.6490 C   0  0  1  0  0  3  0  0  0  0  0  0
  182.8870  178.1390  141.0350 N   0  0  0  0  0  2  0  0  0  0  0  0
  180.4780  179.3780  137.9210 O   0  0  0  0  0  0  0  0  0  0  0  0
  181.4270  180.2860  137.8020 O   0  0  0  0  0  0  0  0  0  0  0  0
  180.9100  181.2440  136.9220 C   0  0  0  0  0  2  0  0  0  0  0  0
  180.4850  182.4890  137.6830 C   0  0  0  0  0  2  0  0  0  0  0  0
  181.5140  183.5910  137.5170 C   0  0  0  0  0  2  0  0  0  0  0  0
  180.8680  184.7890  136.8550 C   0  0  0  0  0  2  0  0  0  0  0  0
  180.8360  184.5750  135.3570 C   0  0  0  0  0  1  0  0  0  0  0  0
  182.3820  177.1650  137.4260 C   0  0  0  0  0  2  0  0  0  0  0  0
  181.7170  175.9400  137.7020 O   0  0  0  0  0  0  0  0  0  0  0  0
  183.6860  174.6440  136.8900 C   0  0  0  0  0  2  0  0  0  0  0  0
  183.8730  170.9560  136.5640 F   0  0  0  0  0  0  0  0  0  0  0  0
  181.5180  173.6190  137.4310 N   0  0  0  0  0  0  0  0  0  0  0  0
  181.9630  172.2840  137.0300 C   0  0  0  0  0  2  0  0  0  0  0  0
  183.4790  172.1680  137.0950 C   0  0  2  0  0  3  0  0  0  0  0  0
  184.0690  173.3010  136.2730 C   0  0  0  0  0  2  0  0  0  0  0  0
  182.2430  174.7000  137.3280 C   0  0  0  0  0  0  0  0  0  0  0  0
  1  4  2  0  0  0  0
  2  1  1  0  0  0  0
  2  7  1  0  0  0  0
  3 37  1  0  0  0  0
  3  6  1  0  0  0  0
  4  9  1  0  0  0  0
  5 11  1  0  0  0  0
  7  3  2  0  0  0  0
  8  5  2  0  0  0  0
  8 10  1  0  0  0  0
  9  6  2  0  0  0  0
 10  2  2  0  0  0  0
 11 38  1  1  0  0  0
 11  1  1  0  0  0  0
 12 16  2  0  0  0  0
 12 13  1  0  0  0  0
 13 18  1  0  0  0  0
 14 13  2  0  0  0  0
 15  8  1  0  0  0  0
 16 17  1  0  0  0  0
 17 15  1  0  0  0  0
 18 15  2  0  0  0  0
 19 12  1  0  0  0  0
 20 19  1  0  0  0  0
 21 22  3  0  0  0  0
 22  7  1  0  0  0  0
 23 21  1  0  0  0  0
 24 28  1  0  0  0  0
 25 26  1  1  0  0  0
 25 24  1  0  0  0  0
 26 27  1  0  0  0  0
 27 28  1  0  0  0  0
 27 23  1  1  0  0  0
 29 31  1  0  0  0  0
 31 35  1  6  0  0  0
 32 30  1  0  0  0  0
 32 29  1  0  0  0  0
 33 30  1  6  0  0  0
 33 31  1  0  0  0  0
 33 25  1  0  0  0  0
 35 34  2  0  0  0  0
 37 36  3  0  0  0  0
 39 38  1  0  0  0  0
 39 40  1  0  0  0  0
 40 42  1  0  0  0  0
 42 41  2  0  0  0  0
 43 42  1  0  0  0  0
 44 43  1  0  0  0  0
 45 52  1  6  0  0  0
 45 47  1  0  0  0  0
 46 51  1  0  0  0  0
 47 48  1  1  0  0  0
 47 49  1  0  0  0  0
 49 44  1  1  0  0  0
 50 59  1  6  0  0  0
 50 45  1  0  0  0  0
 50 46  1  0  0  0  0
 51 49  1  0  0  0  0
 53 52  1  0  0  0  0
 54 55  1  0  0  0  0
 54 53  1  0  0  0  0
 56 55  1  0  0  0  0
 57 56  1  0  0  0  0
 58 57  1  0  0  0  0
 59 60  1  0  0  0  0
 61 67  1  0  0  0  0
 64 65  1  0  0  0  0
 64 63  1  0  0  0  0
 65 62  1  6  0  0  0
 66 61  1  0  0  0  0
 66 65  1  0  0  0  0
 67 63  2  0  0  0  0
 67 60  1  0  0  0  0
M  END
>  <MODEL>
5

>  <REMARK>
 VINA RESULT:      -4.6      2.959      9.104
  Name = 
  23 active torsions:
  status: ('A' for Active; 'I' for Inactive)
    1  A    between atoms: C_1  and  C_32
    2  A    between atoms: C_1  and  C_52
    3  A    between atoms: C_3  and  C_13
    4  A    between atoms: C_4  and  C_60
    5  A    between atoms: C_5  and  O_63
    6  A    between atoms: C_7  and  C_31
    7  A    between atoms: C_7  and  O_47
    8  A    between atoms: C_12  and  C_59
    9  A    between atoms: C_12  and  C_66
   10  A    between atoms: O_19  and  C_22
   11  A    between atoms: O_19  and  O_63
   12  A    between atoms: C_20  and  C_41
   13  A    between atoms: C_21  and  C_50
   14  A    between atoms: C_22  and  C_52
   15  A    between atoms: C_24  and  C_29
   16  A    between atoms: C_25  and  C_42
   17  A    between atoms: C_37  and  C_53
   18  A    between atoms: C_37  and  C_59
   19  A    between atoms: C_41  and  N_56
   20  A    between atoms: C_44  and  C_51
   21  A    between atoms: C_45  and  C_60
   22  A    between atoms: C_46  and  C_49
   23  A    between atoms: O_47  and  C_62
                            x       y       z     vdW  Elec       q    Type
                         _______ _______ _______ _____ _____    ______ ____

>  <TORSDO>
F 23

$$$$
