=
 OpenBabel10222416383D

 30 34  0  0  1  0  0  0  0  0999 V2000
  188.3420  178.8710  142.6850 O   0  0  0  0  0  0  0  0  0  0  0  0
  185.3280  178.4660  142.8790 C   0  0  0  0  0  3  0  0  0  0  0  0
  186.6530  178.3820  139.3530 N   0  0  0  0  0  2  0  0  0  0  0  0
  188.5930  175.9520  136.2460 N   0  0  0  0  0  0  0  0  0  0  0  0
  187.6260  177.9700  142.1740 C   0  0  0  0  0  0  0  0  0  0  0  0
  189.0470  176.2870  137.4040 C   0  0  0  0  0  3  0  0  0  0  0  0
  189.9570  176.9560  140.2100 C   0  0  0  0  0  0  0  0  0  0  0  0
  185.8000  178.5110  140.5010 C   0  0  0  0  0  0  0  0  0  0  0  0
  189.5700  176.4130  141.5730 C   0  0  2  0  0  3  0  0  0  0  0  0
  191.0300  176.6310  139.7260 O   0  0  0  0  0  0  0  0  0  0  0  0
  184.4890  178.9420  140.2840 C   0  0  0  0  0  3  0  0  0  0  0  0
  186.2330  178.2720  141.8310 C   0  0  0  0  0  0  0  0  0  0  0  0
  188.1680  176.6710  141.9080 N   0  0  0  0  0  2  0  0  0  0  0  0
  188.2090  178.7310  137.0670 C   0  0  2  0  0  3  0  0  0  0  0  0
  183.6210  179.1060  141.3630 C   0  0  0  0  0  3  0  0  0  0  0  0
  188.1030  178.2570  135.6100 C   0  0  0  0  0  2  0  0  0  0  0  0
  189.1220  179.7850  137.1310 O   0  0  0  0  0  1  0  0  0  0  0  0
  184.0530  178.8630  142.6280 N   0  0  0  0  0  0  0  0  0  0  0  0
  187.6740  177.3490  139.2030 C   0  0  1  0  0  3  0  0  0  0  0  0
  189.1160  179.2520  139.8110 F   0  0  0  0  0  0  0  0  0  0  0  0
  187.6580  176.7960  135.5290 C   0  0  0  0  0  2  0  0  0  0  0  0
  188.6260  177.5920  138.0270 C   0  0  1  0  0  0  0  0  0  0  0  0
  189.0720  177.9140  139.4540 C   0  0  1  0  0  0  0  0  0  0  0  0
  190.5070  176.7830  142.6930 C   0  0  0  0  0  0  0  0  0  0  0  0
  191.3890  178.9400  143.5730 C   0  0  0  0  0  3  0  0  0  0  0  0
  191.5550  178.6980  144.8730 C   0  0  0  0  0  3  0  0  0  0  0  0
  191.5080  177.8890  142.5200 C   0  0  0  0  0  2  0  0  0  0  0  0
  190.5080  176.0060  143.7790 C   0  0  0  0  0  3  0  0  0  0  0  0
  191.7810  177.3680  145.4660 C   0  0  0  0  0  3  0  0  0  0  0  0
  191.3280  176.2020  144.9910 C   0  0  0  0  0  3  0  0  0  0  0  0
  3  8  1  0  0  0  0
  4  6  2  0  0  0  0
  5  1  2  0  0  0  0
  7  9  1  0  0  0  0
  8 12  1  0  0  0  0
  9 13  1  0  0  0  0
  9 24  1  1  0  0  0
 10  7  2  0  0  0  0
 11  8  2  0  0  0  0
 11 15  1  0  0  0  0
 12  5  1  0  0  0  0
 12  2  2  0  0  0  0
 13  5  1  0  0  0  0
 14 17  1  6  0  0  0
 14 22  1  0  0  0  0
 15 18  2  0  0  0  0
 16 14  1  0  0  0  0
 18  2  1  0  0  0  0
 19  3  1  6  0  0  0
 19 23  1  0  0  0  0
 21 16  1  0  0  0  0
 21  4  1  0  0  0  0
 22  6  1  6  0  0  0
 22 19  1  0  0  0  0
 22 23  1  0  0  0  0
 23 20  1  1  0  0  0
 23  7  1  0  0  0  0
 24 28  2  0  0  0  0
 25 26  2  0  0  0  0
 26 29  1  0  0  0  0
 27 24  1  0  0  0  0
 27 25  1  0  0  0  0
 28 30  1  0  0  0  0
 30 29  2  0  0  0  0
M  END
>  <MODEL>
1

>  <REMARK>
 VINA RESULT:      -6.9      0.000      0.000
  Name = 
  1 active torsions:
  status: ('A' for Active; 'I' for Inactive)
    1  A    between atoms: C_1  and  C_14
                            x       y       z     vdW  Elec       q    Type
                         _______ _______ _______ _____ _____    ______ ____

>  <TORSDO>
F 1

$$$$
=
 OpenBabel10222416383D

 30 34  0  0  1  0  0  0  0  0999 V2000
  191.9210  176.8780  138.0770 O   0  0  0  0  0  0  0  0  0  0  0  0
  190.9040  177.0390  140.9450 C   0  0  0  0  0  3  0  0  0  0  0  0
  188.1710  177.0980  138.3520 N   0  0  0  0  0  2  0  0  0  0  0  0
  185.6310  174.7050  135.6790 N   0  0  0  0  0  0  0  0  0  0  0  0
  191.0300  176.1940  138.6440 C   0  0  0  0  0  0  0  0  0  0  0  0
  186.9140  174.8150  135.6830 C   0  0  0  0  0  3  0  0  0  0  0  0
  189.9280  174.9780  135.8820 C   0  0  0  0  0  0  0  0  0  0  0  0
  188.9210  177.2580  139.5650 C   0  0  0  0  0  0  0  0  0  0  0  0
  190.9290  174.3700  136.8470 C   0  0  2  0  0  3  0  0  0  0  0  0
  189.8280  174.5100  134.7580 O   0  0  0  0  0  0  0  0  0  0  0  0
  188.3130  177.9550  140.6130 C   0  0  0  0  0  3  0  0  0  0  0  0
  190.2520  176.7940  139.7330 C   0  0  0  0  0  0  0  0  0  0  0  0
  190.7580  174.8530  138.2190 N   0  0  0  0  0  2  0  0  0  0  0  0
  186.7300  177.3960  135.9850 C   0  0  2  0  0  3  0  0  0  0  0  0
  189.0020  178.1600  141.8080 C   0  0  0  0  0  3  0  0  0  0  0  0
  185.2790  177.1180  135.5650 C   0  0  0  0  0  2  0  0  0  0  0  0
  187.3160  178.2420  135.0420 O   0  0  0  0  0  1  0  0  0  0  0  0
  190.2710  177.6980  141.9500 N   0  0  0  0  0  0  0  0  0  0  0  0
  188.2300  175.9120  137.5030 C   0  0  1  0  0  3  0  0  0  0  0  0
  189.6600  177.4230  136.1820 F   0  0  0  0  0  0  0  0  0  0  0  0
  184.7800  175.7870  136.1310 C   0  0  0  0  0  2  0  0  0  0  0  0
  187.5570  176.0980  136.1390 C   0  0  1  0  0  0  0  0  0  0  0  0
  189.0800  176.1660  136.2580 C   0  0  1  0  0  0  0  0  0  0  0  0
  192.3640  174.4250  136.3910 C   0  0  0  0  0  0  0  0  0  0  0  0
  193.7510  176.1460  135.2420 C   0  0  0  0  0  3  0  0  0  0  0  0
  194.9740  175.9290  135.7260 C   0  0  0  0  0  3  0  0  0  0  0  0
  192.7280  175.0720  135.0860 C   0  0  0  0  0  2  0  0  0  0  0  0
  193.2670  173.7630  137.1170 C   0  0  0  0  0  3  0  0  0  0  0  0
  195.4600  174.6440  136.2590 C   0  0  0  0  0  3  0  0  0  0  0  0
  194.7200  173.7050  136.8600 C   0  0  0  0  0  3  0  0  0  0  0  0
  1  5  2  0  0  0  0
  2 18  1  0  0  0  0
  3  8  1  0  0  0  0
  4  6  2  0  0  0  0
  4 21  1  0  0  0  0
  5 12  1  0  0  0  0
  7 23  1  0  0  0  0
  7  9  1  0  0  0  0
  8 12  1  0  0  0  0
  8 11  2  0  0  0  0
  9 24  1  6  0  0  0
  9 13  1  0  0  0  0
 10  7  2  0  0  0  0
 11 15  1  0  0  0  0
 12  2  2  0  0  0  0
 13  5  1  0  0  0  0
 14 17  1  6  0  0  0
 14 22  1  0  0  0  0
 15 18  2  0  0  0  0
 16 14  1  0  0  0  0
 16 21  1  0  0  0  0
 19  3  1  1  0  0  0
 22  6  1  6  0  0  0
 22 23  1  0  0  0  0
 22 19  1  0  0  0  0
 23 20  1  6  0  0  0
 23 19  1  0  0  0  0
 24 28  2  0  0  0  0
 25 26  2  0  0  0  0
 26 29  1  0  0  0  0
 27 25  1  0  0  0  0
 27 24  1  0  0  0  0
 29 30  2  0  0  0  0
 30 28  1  0  0  0  0
M  END
>  <MODEL>
2

>  <REMARK>
 VINA RESULT:      -6.8      3.408      5.704
  Name = 
  1 active torsions:
  status: ('A' for Active; 'I' for Inactive)
    1  A    between atoms: C_1  and  C_14
                            x       y       z     vdW  Elec       q    Type
                         _______ _______ _______ _____ _____    ______ ____

>  <TORSDO>
F 1

$$$$
=
 OpenBabel10222416383D

 30 34  0  0  1  0  0  0  0  0999 V2000
  186.7200  177.3870  142.0880 O   0  0  0  0  0  0  0  0  0  0  0  0
  188.2970  178.5860  139.7710 C   0  0  0  0  0  3  0  0  0  0  0  0
  184.5910  178.3570  139.1350 N   0  0  0  0  0  2  0  0  0  0  0  0
  180.6610  180.2170  139.7820 N   0  0  0  0  0  0  0  0  0  0  0  0
  186.5140  178.4540  141.4520 C   0  0  0  0  0  0  0  0  0  0  0  0
  181.4860  179.7560  140.6570 C   0  0  0  0  0  3  0  0  0  0  0  0
  183.5590  178.8310  142.6550 C   0  0  0  0  0  0  0  0  0  0  0  0
  186.0130  178.4480  138.9670 C   0  0  0  0  0  0  0  0  0  0  0  0
  184.8600  179.4390  143.1440 C   0  0  2  0  0  3  0  0  0  0  0  0
  182.5800  178.8610  143.3850 O   0  0  0  0  0  0  0  0  0  0  0  0
  186.5140  178.3870  137.6640 C   0  0  0  0  0  3  0  0  0  0  0  0
  186.9280  178.5430  140.0480 C   0  0  0  0  0  0  0  0  0  0  0  0
  185.8610  179.5630  142.0820 N   0  0  0  0  0  2  0  0  0  0  0  0
  181.9000  177.6330  139.2060 C   0  0  2  0  0  3  0  0  0  0  0  0
  187.8890  178.4490  137.4400 C   0  0  0  0  0  3  0  0  0  0  0  0
  180.6310  178.1370  138.5040 C   0  0  0  0  0  2  0  0  0  0  0  0
  181.6440  176.3720  139.7460 O   0  0  0  0  0  1  0  0  0  0  0  0
  188.7460  178.5500  138.4890 N   0  0  0  0  0  0  0  0  0  0  0  0
  183.8400  179.0800  140.1580 C   0  0  1  0  0  3  0  0  0  0  0  0
  183.9030  176.8500  141.2060 F   0  0  0  0  0  0  0  0  0  0  0  0
  180.5960  179.6660  138.4430 C   0  0  0  0  0  2  0  0  0  0  0  0
  182.3900  178.6050  140.3050 C   0  0  1  0  0  0  0  0  0  0  0  0
  183.4500  178.1560  141.3120 C   0  0  1  0  0  0  0  0  0  0  0  0
  185.4220  178.8160  144.3950 C   0  0  0  0  0  0  0  0  0  0  0  0
  187.4770  177.5020  144.9030 C   0  0  0  0  0  3  0  0  0  0  0  0
  187.7540  177.8380  146.1620 C   0  0  0  0  0  3  0  0  0  0  0  0
  186.0930  177.4730  144.3470 C   0  0  0  0  0  2  0  0  0  0  0  0
  185.1800  179.4320  145.5540 C   0  0  0  0  0  3  0  0  0  0  0  0
  186.7690  178.3150  147.1500 C   0  0  0  0  0  3  0  0  0  0  0  0
  185.6540  179.0050  146.8850 C   0  0  0  0  0  3  0  0  0  0  0  0
  2 12  1  0  0  0  0
  4  6  2  0  0  0  0
  5 13  1  0  0  0  0
  5  1  2  0  0  0  0
  7  9  1  0  0  0  0
  7 10  2  0  0  0  0
  8  3  1  0  0  0  0
  8 12  2  0  0  0  0
  9 24  1  1  0  0  0
 11  8  1  0  0  0  0
 12  5  1  0  0  0  0
 13  9  1  0  0  0  0
 14 17  1  1  0  0  0
 14 22  1  0  0  0  0
 15 11  2  0  0  0  0
 15 18  1  0  0  0  0
 16 14  1  0  0  0  0
 18  2  2  0  0  0  0
 19  3  1  6  0  0  0
 19 22  1  0  0  0  0
 19 23  1  0  0  0  0
 21 16  1  0  0  0  0
 21  4  1  0  0  0  0
 22  6  1  1  0  0  0
 22 23  1  0  0  0  0
 23 20  1  6  0  0  0
 23  7  1  0  0  0  0
 24 28  2  0  0  0  0
 25 26  2  0  0  0  0
 26 29  1  0  0  0  0
 27 24  1  0  0  0  0
 27 25  1  0  0  0  0
 28 30  1  0  0  0  0
 30 29  2  0  0  0  0
M  END
>  <MODEL>
3

>  <REMARK>
 VINA RESULT:      -6.4      3.217      6.011
  Name = 
  1 active torsions:
  status: ('A' for Active; 'I' for Inactive)
    1  A    between atoms: C_1  and  C_14
                            x       y       z     vdW  Elec       q    Type
                         _______ _______ _______ _____ _____    ______ ____

>  <TORSDO>
F 1

$$$$
=
 OpenBabel10222416383D

 30 34  0  0  1  0  0  0  0  0999 V2000
  187.2140  177.0510  138.7600 O   0  0  0  0  0  0  0  0  0  0  0  0
  185.2060  179.0010  139.9660 C   0  0  0  0  0  3  0  0  0  0  0  0
  187.9160  177.9310  142.3560 N   0  0  0  0  0  2  0  0  0  0  0  0
  192.0550  178.5650  143.6910 N   0  0  0  0  0  0  0  0  0  0  0  0
  187.4240  178.1210  139.3890 C   0  0  0  0  0  0  0  0  0  0  0  0
  191.6330  178.1900  142.5330 C   0  0  0  0  0  3  0  0  0  0  0  0
  190.5500  177.5030  139.7940 C   0  0  0  0  0  0  0  0  0  0  0  0
  186.6860  178.4160  141.7960 C   0  0  0  0  0  0  0  0  0  0  0  0
  189.8860  178.3340  138.7130 C   0  0  2  0  0  3  0  0  0  0  0  0
  191.7100  177.1510  139.6430 O   0  0  0  0  0  0  0  0  0  0  0  0
  185.6480  178.7150  142.6830 C   0  0  0  0  0  3  0  0  0  0  0  0
  186.4580  178.5560  140.4030 C   0  0  0  0  0  0  0  0  0  0  0  0
  188.6020  178.8960  139.1380 N   0  0  0  0  0  2  0  0  0  0  0  0
  189.9560  176.5320  143.6400 C   0  0  2  0  0  3  0  0  0  0  0  0
  184.4220  179.1690  142.1970 C   0  0  0  0  0  3  0  0  0  0  0  0
  190.8400  176.8030  144.8650 C   0  0  0  0  0  2  0  0  0  0  0  0
  190.0250  175.1740  143.3270 O   0  0  0  0  0  1  0  0  0  0  0  0
  184.2290  179.3060  140.8590 N   0  0  0  0  0  0  0  0  0  0  0  0
  189.2380  178.2460  141.8210 C   0  0  1  0  0  3  0  0  0  0  0  0
  188.9770  175.9620  140.9310 F   0  0  0  0  0  0  0  0  0  0  0  0
  191.3170  178.2560  144.8990 C   0  0  0  0  0  2  0  0  0  0  0  0
  190.3610  177.3920  142.4200 C   0  0  1  0  0  0  0  0  0  0  0  0
  189.8070  177.0670  141.0320 C   0  0  1  0  0  0  0  0  0  0  0  0
  189.8050  177.6710  137.3620 C   0  0  0  0  0  0  0  0  0  0  0  0
  189.5710  175.3100  136.6030 C   0  0  0  0  0  3  0  0  0  0  0  0
  188.8890  175.4190  135.4640 C   0  0  0  0  0  3  0  0  0  0  0  0
  190.4990  176.3640  137.1080 C   0  0  0  0  0  2  0  0  0  0  0  0
  189.2180  178.3510  136.3750 C   0  0  0  0  0  3  0  0  0  0  0  0
  188.8720  176.6100  134.5950 C   0  0  0  0  0  3  0  0  0  0  0  0
  189.0150  177.8800  134.9910 C   0  0  0  0  0  3  0  0  0  0  0  0
  1  5  2  0  0  0  0
  2 12  2  0  0  0  0
  2 18  1  0  0  0  0
  4 21  1  0  0  0  0
  5 12  1  0  0  0  0
  6  4  2  0  0  0  0
  7 23  1  0  0  0  0
  8  3  1  0  0  0  0
  8 11  2  0  0  0  0
  9 24  1  6  0  0  0
  9 13  1  0  0  0  0
  9  7  1  0  0  0  0
 10  7  2  0  0  0  0
 12  8  1  0  0  0  0
 13  5  1  0  0  0  0
 14 17  1  6  0  0  0
 14 16  1  0  0  0  0
 15 11  1  0  0  0  0
 16 21  1  0  0  0  0
 18 15  2  0  0  0  0
 19  3  1  1  0  0  0
 19 22  1  0  0  0  0
 22  6  1  1  0  0  0
 22 14  1  0  0  0  0
 23 20  1  6  0  0  0
 23 19  1  0  0  0  0
 23 22  1  0  0  0  0
 25 27  1  0  0  0  0
 26 25  2  0  0  0  0
 27 24  1  0  0  0  0
 28 24  2  0  0  0  0
 29 30  2  0  0  0  0
 29 26  1  0  0  0  0
 30 28  1  0  0  0  0
M  END
>  <MODEL>
4

>  <REMARK>
 VINA RESULT:      -6.4      1.825      6.030
  Name = 
  1 active torsions:
  status: ('A' for Active; 'I' for Inactive)
    1  A    between atoms: C_1  and  C_14
                            x       y       z     vdW  Elec       q    Type
                         _______ _______ _______ _____ _____    ______ ____

>  <TORSDO>
F 1

$$$$
=
 OpenBabel10222416383D

 30 34  0  0  1  0  0  0  0  0999 V2000
  182.8850  180.4810  139.1010 O   0  0  0  0  0  0  0  0  0  0  0  0
  180.7950  182.0350  137.5190 C   0  0  0  0  0  3  0  0  0  0  0  0
  181.5550  178.6280  136.1020 N   0  0  0  0  0  2  0  0  0  0  0  0
  180.7620  174.3120  136.3650 N   0  0  0  0  0  0  0  0  0  0  0  0
  181.7440  180.1140  138.7160 C   0  0  0  0  0  0  0  0  0  0  0  0
  181.2810  175.0900  137.2520 C   0  0  0  0  0  3  0  0  0  0  0  0
  182.3110  177.0150  139.3440 C   0  0  0  0  0  0  0  0  0  0  0  0
  181.1440  179.9940  136.2560 C   0  0  0  0  0  0  0  0  0  0  0  0
  181.6230  178.0440  140.2220 C   0  0  2  0  0  3  0  0  0  0  0  0
  182.6810  175.9630  139.8430 O   0  0  0  0  0  0  0  0  0  0  0  0
  180.7330  180.6770  135.1080 C   0  0  0  0  0  3  0  0  0  0  0  0
  181.1820  180.6920  137.4910 C   0  0  0  0  0  0  0  0  0  0  0  0
  181.0090  179.1270  139.4490 N   0  0  0  0  0  2  0  0  0  0  0  0
  182.7820  176.2130  135.4430 C   0  0  2  0  0  3  0  0  0  0  0  0
  180.3430  182.0130  135.1920 C   0  0  0  0  0  3  0  0  0  0  0  0
  182.3580  174.9740  134.6410 C   0  0  0  0  0  2  0  0  0  0  0  0
  184.1690  176.1980  135.5950 O   0  0  0  0  0  1  0  0  0  0  0  0
  180.3770  182.6590  136.3870 N   0  0  0  0  0  0  0  0  0  0  0  0
  181.3140  177.5840  137.0940 C   0  0  1  0  0  3  0  0  0  0  0  0
  183.6920  178.0360  137.5580 F   0  0  0  0  0  0  0  0  0  0  0  0
  180.9130  174.5770  134.9480 C   0  0  0  0  0  2  0  0  0  0  0  0
  182.0850  176.2880  136.8220 C   0  0  1  0  0  0  0  0  0  0  0  0
  182.5840  177.2690  137.8840 C   0  0  1  0  0  0  0  0  0  0  0  0
  182.4530  178.5550  141.3710 C   0  0  0  0  0  0  0  0  0  0  0  0
  182.0560  178.8030  143.8180 C   0  0  0  0  0  3  0  0  0  0  0  0
  183.2670  178.6280  144.3450 C   0  0  0  0  0  3  0  0  0  0  0  0
  181.8270  179.3780  142.4600 C   0  0  0  0  0  2  0  0  0  0  0  0
  183.7730  178.3680  141.3100 C   0  0  0  0  0  3  0  0  0  0  0  0
  184.5410  178.8800  143.6480 C   0  0  0  0  0  3  0  0  0  0  0  0
  184.7590  178.7680  142.3330 C   0  0  0  0  0  3  0  0  0  0  0  0
  3  8  1  0  0  0  0
  4  6  2  0  0  0  0
  5  1  2  0  0  0  0
  5 13  1  0  0  0  0
  7 10  2  0  0  0  0
  7  9  1  0  0  0  0
  8 12  2  0  0  0  0
  9 24  1  1  0  0  0
 11 15  2  0  0  0  0
 11  8  1  0  0  0  0
 12  2  1  0  0  0  0
 12  5  1  0  0  0  0
 13  9  1  0  0  0  0
 14 17  1  1  0  0  0
 14 22  1  0  0  0  0
 15 18  1  0  0  0  0
 16 21  1  0  0  0  0
 16 14  1  0  0  0  0
 18  2  2  0  0  0  0
 19  3  1  6  0  0  0
 19 23  1  0  0  0  0
 21  4  1  0  0  0  0
 22 19  1  0  0  0  0
 22  6  1  1  0  0  0
 22 23  1  0  0  0  0
 23 20  1  6  0  0  0
 23  7  1  0  0  0  0
 24 27  1  0  0  0  0
 25 26  2  0  0  0  0
 27 25  1  0  0  0  0
 28 24  2  0  0  0  0
 28 30  1  0  0  0  0
 29 26  1  0  0  0  0
 30 29  2  0  0  0  0
M  END
>  <MODEL>
5

>  <REMARK>
 VINA RESULT:      -6.4      5.753      7.484
  Name = 
  1 active torsions:
  status: ('A' for Active; 'I' for Inactive)
    1  A    between atoms: C_1  and  C_14
                            x       y       z     vdW  Elec       q    Type
                         _______ _______ _______ _____ _____    ______ ____

>  <TORSDO>
F 1

$$$$
=
 OpenBabel10222416383D

 30 34  0  0  1  0  0  0  0  0999 V2000
  191.1440  175.6300  140.0970 O   0  0  0  0  0  0  0  0  0  0  0  0
  193.4770  176.0440  138.1800 C   0  0  0  0  0  3  0  0  0  0  0  0
  190.0930  176.3860  136.5590 N   0  0  0  0  0  2  0  0  0  0  0  0
  186.6620  179.0310  135.8080 N   0  0  0  0  0  0  0  0  0  0  0  0
  191.3520  176.5730  139.2900 C   0  0  0  0  0  0  0  0  0  0  0  0
  187.1160  178.6030  136.9350 C   0  0  0  0  0  3  0  0  0  0  0  0
  188.3600  177.7150  139.5450 C   0  0  0  0  0  0  0  0  0  0  0  0
  191.4940  176.1780  136.7890 C   0  0  0  0  0  0  0  0  0  0  0  0
  189.6040  178.1550  140.2930 C   0  0  2  0  0  3  0  0  0  0  0  0
  187.2650  178.0670  139.9560 O   0  0  0  0  0  0  0  0  0  0  0  0
  192.2740  175.7760  135.7020 C   0  0  0  0  0  3  0  0  0  0  0  0
  192.1090  176.3100  138.0620 C   0  0  0  0  0  0  0  0  0  0  0  0
  190.8370  177.8840  139.5510 N   0  0  0  0  0  2  0  0  0  0  0  0
  187.3760  176.2000  135.9640 C   0  0  2  0  0  3  0  0  0  0  0  0
  193.6370  175.5370  135.8700 C   0  0  0  0  0  3  0  0  0  0  0  0
  186.4710  176.7850  134.8700 C   0  0  0  0  0  2  0  0  0  0  0  0
  186.7120  175.1370  136.5760 O   0  0  0  0  0  1  0  0  0  0  0  0
  194.2080  175.6790  137.0950 N   0  0  0  0  0  0  0  0  0  0  0  0
  189.3000  177.4200  137.2190 C   0  0  1  0  0  3  0  0  0  0  0  0
  188.5860  175.4630  138.5360 F   0  0  0  0  0  0  0  0  0  0  0  0
  186.8050  178.2520  134.5940 C   0  0  0  0  0  2  0  0  0  0  0  0
  187.7890  177.2590  137.0140 C   0  0  1  0  0  0  0  0  0  0  0  0
  188.4350  176.8250  138.3300 C   0  0  1  0  0  0  0  0  0  0  0  0
  189.6800  177.6920  141.7260 C   0  0  0  0  0  0  0  0  0  0  0  0
  190.5940  178.6840  143.8200 C   0  0  0  0  0  3  0  0  0  0  0  0
  189.7950  178.1940  144.7670 C   0  0  0  0  0  3  0  0  0  0  0  0
  190.9050  177.9610  142.5520 C   0  0  0  0  0  2  0  0  0  0  0  0
  188.6880  176.9240  142.1790 C   0  0  0  0  0  3  0  0  0  0  0  0
  189.0360  176.9350  144.6690 C   0  0  0  0  0  3  0  0  0  0  0  0
  188.5570  176.3840  143.5480 C   0  0  0  0  0  3  0  0  0  0  0  0
  3  8  1  0  0  0  0
  4  6  2  0  0  0  0
  5 13  1  0  0  0  0
  5  1  2  0  0  0  0
  7 10  2  0  0  0  0
  7  9  1  0  0  0  0
  8 12  2  0  0  0  0
  9 24  1  1  0  0  0
 11 15  2  0  0  0  0
 11  8  1  0  0  0  0
 12  2  1  0  0  0  0
 12  5  1  0  0  0  0
 13  9  1  0  0  0  0
 14 17  1  1  0  0  0
 14 22  1  0  0  0  0
 15 18  1  0  0  0  0
 16 14  1  0  0  0  0
 18  2  2  0  0  0  0
 19  3  1  6  0  0  0
 19 23  1  0  0  0  0
 21 16  1  0  0  0  0
 21  4  1  0  0  0  0
 22  6  1  1  0  0  0
 22 19  1  0  0  0  0
 22 23  1  0  0  0  0
 23 20  1  1  0  0  0
 23  7  1  0  0  0  0
 24 28  2  0  0  0  0
 24 27  1  0  0  0  0
 25 26  2  0  0  0  0
 27 25  1  0  0  0  0
 28 30  1  0  0  0  0
 29 26  1  0  0  0  0
 30 29  2  0  0  0  0
M  END
>  <MODEL>
6

>  <REMARK>
 VINA RESULT:      -6.3      2.779      5.216
  Name = 
  1 active torsions:
  status: ('A' for Active; 'I' for Inactive)
    1  A    between atoms: C_1  and  C_14
                            x       y       z     vdW  Elec       q    Type
                         _______ _______ _______ _____ _____    ______ ____

>  <TORSDO>
F 1

$$$$
=
 OpenBabel10222416383D

 30 34  0  0  1  0  0  0  0  0999 V2000
  184.6470  177.5740  142.1410 O   0  0  0  0  0  0  0  0  0  0  0  0
  183.9650  178.8810  144.8080 C   0  0  0  0  0  3  0  0  0  0  0  0
  187.5430  177.7280  144.5460 N   0  0  0  0  0  2  0  0  0  0  0  0
  191.5750  178.6660  143.0680 N   0  0  0  0  0  0  0  0  0  0  0  0
  185.2480  178.4970  142.7510 C   0  0  0  0  0  0  0  0  0  0  0  0
  190.4900  178.4990  142.3940 C   0  0  0  0  0  3  0  0  0  0  0  0
  187.8670  178.2830  140.9030 C   0  0  0  0  0  0  0  0  0  0  0  0
  186.2600  178.1330  145.0470 C   0  0  0  0  0  0  0  0  0  0  0  0
  186.6860  179.2240  140.7590 C   0  0  2  0  0  3  0  0  0  0  0  0
  188.6400  178.1530  139.9660 O   0  0  0  0  0  0  0  0  0  0  0  0
  186.0570  178.0670  146.4280 C   0  0  0  0  0  3  0  0  0  0  0  0
  185.1860  178.5440  144.2160 C   0  0  0  0  0  0  0  0  0  0  0  0
  186.0040  179.4770  142.0310 N   0  0  0  0  0  2  0  0  0  0  0  0
  189.8830  176.4030  143.8160 C   0  0  2  0  0  3  0  0  0  0  0  0
  184.8240  178.4280  146.9710 C   0  0  0  0  0  3  0  0  0  0  0  0
  191.3600  176.5250  144.2200 C   0  0  0  0  0  2  0  0  0  0  0  0
  189.6910  175.1750  143.1820 O   0  0  0  0  0  1  0  0  0  0  0  0
  183.8120  178.8280  146.1570 N   0  0  0  0  0  0  0  0  0  0  0  0
  188.2090  178.3490  143.4050 C   0  0  1  0  0  3  0  0  0  0  0  0
  187.3620  176.3080  142.3130 F   0  0  0  0  0  0  0  0  0  0  0  0
  191.7890  177.9890  144.3310 C   0  0  0  0  0  2  0  0  0  0  0  0
  189.4250  177.5640  142.9020 C   0  0  1  0  0  0  0  0  0  0  0  0
  188.0930  177.4750  142.1560 C   0  0  1  0  0  0  0  0  0  0  0  0
  185.7270  178.8730  139.6510 C   0  0  0  0  0  0  0  0  0  0  0  0
  185.4830  176.9200  138.1250 C   0  0  0  0  0  3  0  0  0  0  0  0
  184.1690  176.8620  137.9060 C   0  0  0  0  0  3  0  0  0  0  0  0
  186.2130  178.1910  138.4050 C   0  0  0  0  0  2  0  0  0  0  0  0
  184.4710  179.3140  139.7600 C   0  0  0  0  0  3  0  0  0  0  0  0
  183.2420  178.0040  138.0010 C   0  0  0  0  0  3  0  0  0  0  0  0
  183.3740  179.0660  138.8040 C   0  0  0  0  0  3  0  0  0  0  0  0
  1  5  2  0  0  0  0
  2 18  1  0  0  0  0
  3  8  1  0  0  0  0
  4 21  1  0  0  0  0
  5 12  1  0  0  0  0
  6  4  2  0  0  0  0
  7 23  1  0  0  0  0
  8 11  2  0  0  0  0
  9 24  1  6  0  0  0
  9  7  1  0  0  0  0
  9 13  1  0  0  0  0
 10  7  2  0  0  0  0
 11 15  1  0  0  0  0
 12  2  2  0  0  0  0
 12  8  1  0  0  0  0
 13  5  1  0  0  0  0
 14 17  1  6  0  0  0
 14 16  1  0  0  0  0
 16 21  1  0  0  0  0
 18 15  2  0  0  0  0
 19  3  1  1  0  0  0
 22  6  1  6  0  0  0
 22 19  1  0  0  0  0
 22 14  1  0  0  0  0
 23 20  1  1  0  0  0
 23 22  1  0  0  0  0
 23 19  1  0  0  0  0
 24 28  2  0  0  0  0
 25 27  1  0  0  0  0
 26 29  1  0  0  0  0
 26 25  2  0  0  0  0
 27 24  1  0  0  0  0
 29 30  2  0  0  0  0
 30 28  1  0  0  0  0
M  END
>  <MODEL>
7

>  <REMARK>
 VINA RESULT:      -6.2      2.581      6.413
  Name = 
  1 active torsions:
  status: ('A' for Active; 'I' for Inactive)
    1  A    between atoms: C_1  and  C_14
                            x       y       z     vdW  Elec       q    Type
                         _______ _______ _______ _____ _____    ______ ____

>  <TORSDO>
F 1

$$$$
=
 OpenBabel10222416383D

 30 34  0  0  1  0  0  0  0  0999 V2000
  187.4570  178.8400  143.6800 O   0  0  0  0  0  0  0  0  0  0  0  0
  184.4870  178.3650  143.1870 C   0  0  0  0  0  3  0  0  0  0  0  0
  186.5670  178.3950  140.0460 N   0  0  0  0  0  2  0  0  0  0  0  0
  189.2160  176.0830  137.4070 N   0  0  0  0  0  0  0  0  0  0  0  0
  186.8970  177.9370  143.0060 C   0  0  0  0  0  0  0  0  0  0  0  0
  189.3900  176.4000  138.6440 C   0  0  0  0  0  3  0  0  0  0  0  0
  189.6330  177.0210  141.5930 C   0  0  0  0  0  0  0  0  0  0  0  0
  185.4770  178.4770  140.9760 C   0  0  0  0  0  0  0  0  0  0  0  0
  188.9670  176.4370  142.8250 C   0  0  2  0  0  3  0  0  0  0  0  0
  190.7960  176.7310  141.3550 O   0  0  0  0  0  0  0  0  0  0  0  0
  184.2360  178.8840  140.4800 C   0  0  0  0  0  3  0  0  0  0  0  0
  185.6080  178.2160  142.3650 C   0  0  0  0  0  0  0  0  0  0  0  0
  187.5190  176.6570  142.8430 N   0  0  0  0  0  2  0  0  0  0  0  0
  188.5840  178.8320  138.1730 C   0  0  2  0  0  3  0  0  0  0  0  0
  183.1450  179.0030  141.3410 C   0  0  0  0  0  3  0  0  0  0  0  0
  188.8180  178.3910  136.7200 C   0  0  0  0  0  2  0  0  0  0  0  0
  189.4300  179.9040  138.4590 O   0  0  0  0  0  1  0  0  0  0  0  0
  183.2900  178.7390  142.6650 N   0  0  0  0  0  0  0  0  0  0  0  0
  187.6230  177.3870  140.1090 C   0  0  1  0  0  3  0  0  0  0  0  0
  188.8420  179.3070  141.0590 F   0  0  0  0  0  0  0  0  0  0  0  0
  188.4420  176.9230  136.5150 C   0  0  0  0  0  2  0  0  0  0  0  0
  188.8060  177.6800  139.1810 C   0  0  1  0  0  0  0  0  0  0  0  0
  188.9140  177.9770  140.6770 C   0  0  1  0  0  0  0  0  0  0  0  0
  189.6210  176.8010  144.1330 C   0  0  0  0  0  0  0  0  0  0  0  0
  188.7820  177.1400  146.4540 C   0  0  0  0  0  3  0  0  0  0  0  0
  189.8080  176.7540  147.2120 C   0  0  0  0  0  3  0  0  0  0  0  0
  188.9430  177.7330  145.0950 C   0  0  0  0  0  2  0  0  0  0  0  0
  190.8700  176.3780  144.3370 C   0  0  0  0  0  3  0  0  0  0  0  0
  191.2220  176.7650  146.7960 C   0  0  0  0  0  3  0  0  0  0  0  0
  191.6810  176.6030  145.5500 C   0  0  0  0  0  3  0  0  0  0  0  0
  3  8  1  0  0  0  0
  4  6  2  0  0  0  0
  5  1  2  0  0  0  0
  7  9  1  0  0  0  0
  8 12  1  0  0  0  0
  9 13  1  0  0  0  0
  9 24  1  1  0  0  0
 10  7  2  0  0  0  0
 11  8  2  0  0  0  0
 11 15  1  0  0  0  0
 12  5  1  0  0  0  0
 12  2  2  0  0  0  0
 13  5  1  0  0  0  0
 14 17  1  1  0  0  0
 14 22  1  0  0  0  0
 15 18  2  0  0  0  0
 16 14  1  0  0  0  0
 18  2  1  0  0  0  0
 19  3  1  6  0  0  0
 19 23  1  0  0  0  0
 21 16  1  0  0  0  0
 21  4  1  0  0  0  0
 22  6  1  6  0  0  0
 22 19  1  0  0  0  0
 22 23  1  0  0  0  0
 23 20  1  1  0  0  0
 23  7  1  0  0  0  0
 24 28  2  0  0  0  0
 24 27  1  0  0  0  0
 25 26  2  0  0  0  0
 27 25  1  0  0  0  0
 28 30  1  0  0  0  0
 29 26  1  0  0  0  0
 30 29  2  0  0  0  0
M  END
>  <MODEL>
8

>  <REMARK>
 VINA RESULT:      -6.1      1.347      1.633
  Name = 
  1 active torsions:
  status: ('A' for Active; 'I' for Inactive)
    1  A    between atoms: C_1  and  C_14
                            x       y       z     vdW  Elec       q    Type
                         _______ _______ _______ _____ _____    ______ ____

>  <TORSDO>
F 1

$$$$
=
 OpenBabel10222416383D

 30 34  0  0  1  0  0  0  0  0999 V2000
  183.4650  175.5130  138.7270 O   0  0  0  0  0  0  0  0  0  0  0  0
  180.9190  174.0030  138.0000 C   0  0  0  0  0  3  0  0  0  0  0  0
  180.3360  177.0040  140.2020 N   0  0  0  0  0  2  0  0  0  0  0  0
  179.8500  181.3700  140.3590 N   0  0  0  0  0  0  0  0  0  0  0  0
  182.3840  175.9560  138.2580 C   0  0  0  0  0  0  0  0  0  0  0  0
  180.8700  180.6890  139.9640 C   0  0  0  0  0  3  0  0  0  0  0  0
  183.1410  179.0160  138.8740 C   0  0  0  0  0  0  0  0  0  0  0  0
  180.1980  175.7460  139.5240 C   0  0  0  0  0  0  0  0  0  0  0  0
  183.3210  178.2430  137.5810 C   0  0  2  0  0  3  0  0  0  0  0  0
  183.7270  180.0790  139.0160 O   0  0  0  0  0  0  0  0  0  0  0  0
  179.1080  174.9440  139.8700 C   0  0  0  0  0  3  0  0  0  0  0  0
  181.1300  175.2620  138.5700 C   0  0  0  0  0  0  0  0  0  0  0  0
  182.3710  177.1370  137.4470 N   0  0  0  0  0  2  0  0  0  0  0  0
  180.6490  179.0980  142.0150 C   0  0  2  0  0  3  0  0  0  0  0  0
  178.9340  173.7010  139.2600 C   0  0  0  0  0  3  0  0  0  0  0  0
  179.7440  180.2330  142.5160 C   0  0  0  0  0  2  0  0  0  0  0  0
  181.7230  178.9590  142.8950 O   0  0  0  0  0  1  0  0  0  0  0  0
  179.8330  173.2620  138.3420 N   0  0  0  0  0  0  0  0  0  0  0  0
  180.8500  178.2190  139.5760 C   0  0  1  0  0  3  0  0  0  0  0  0
  182.8510  177.5450  140.8470 F   0  0  0  0  0  0  0  0  0  0  0  0
  178.9470  180.8590  141.3700 C   0  0  0  0  0  2  0  0  0  0  0  0
  181.1550  179.3420  140.5740 C   0  0  1  0  0  0  0  0  0  0  0  0
  182.2920  178.4920  140.0040 C   0  0  1  0  0  0  0  0  0  0  0  0
  184.7380  177.8250  137.2830 C   0  0  0  0  0  0  0  0  0  0  0  0
  186.0770  177.6110  135.1930 C   0  0  0  0  0  3  0  0  0  0  0  0
  187.3170  177.8890  135.5930 C   0  0  0  0  0  3  0  0  0  0  0  0
  185.0500  176.9860  136.0770 C   0  0  0  0  0  2  0  0  0  0  0  0
  185.6700  178.1080  138.1960 C   0  0  0  0  0  3  0  0  0  0  0  0
  187.8260  177.7140  136.9650 C   0  0  0  0  0  3  0  0  0  0  0  0
  187.1120  177.8080  138.0920 C   0  0  0  0  0  3  0  0  0  0  0  0
  2 18  2  0  0  0  0
  2 12  1  0  0  0  0
  4 21  1  0  0  0  0
  5 12  1  0  0  0  0
  5  1  2  0  0  0  0
  6  4  2  0  0  0  0
  7 10  2  0  0  0  0
  7 23  1  0  0  0  0
  8 11  1  0  0  0  0
  8  3  1  0  0  0  0
  9 24  1  1  0  0  0
  9  7  1  0  0  0  0
 12  8  2  0  0  0  0
 13  9  1  0  0  0  0
 13  5  1  0  0  0  0
 14 16  1  0  0  0  0
 14 17  1  1  0  0  0
 15 11  2  0  0  0  0
 18 15  1  0  0  0  0
 19 23  1  0  0  0  0
 19  3  1  1  0  0  0
 19 22  1  0  0  0  0
 21 16  1  0  0  0  0
 22  6  1  6  0  0  0
 22 14  1  0  0  0  0
 23 22  1  0  0  0  0
 23 20  1  1  0  0  0
 24 28  2  0  0  0  0
 25 26  2  0  0  0  0
 25 27  1  0  0  0  0
 26 29  1  0  0  0  0
 27 24  1  0  0  0  0
 29 30  2  0  0  0  0
 30 28  1  0  0  0  0
M  END
>  <MODEL>
9

>  <REMARK>
 VINA RESULT:      -5.9      5.180      8.350
  Name = 
  1 active torsions:
  status: ('A' for Active; 'I' for Inactive)
    1  A    between atoms: C_1  and  C_14
                            x       y       z     vdW  Elec       q    Type
                         _______ _______ _______ _____ _____    ______ ____

>  <TORSDO>
F 1

$$$$
