=
 OpenBabel10222419463D

 33 37  0  0  1  0  0  0  0  0999 V2000
  189.1680  176.5880  144.1020 C   0  0  2  0  0  3  0  0  0  0  0  0
  183.9830  178.8600  144.7690 C   0  0  0  0  0  3  0  0  0  0  0  0
  185.7250  177.9660  143.3280 C   0  0  0  0  0  0  0  0  0  0  0  0
  183.1700  179.0830  143.6520 C   0  0  0  0  0  0  0  0  0  0  0  0
  183.6430  178.7430  142.3730 C   0  0  0  0  0  3  0  0  0  0  0  0
  185.2550  178.3040  144.6170 C   0  0  0  0  0  0  0  0  0  0  0  0
  186.0650  178.0820  145.7330 C   0  0  0  0  0  3  0  0  0  0  0  0
  184.9160  178.1870  142.2120 C   0  0  0  0  0  3  0  0  0  0  0  0
  186.9990  177.4100  143.1750 C   0  0  0  0  0  3  0  0  0  0  0  0
  187.8080  177.1890  144.2950 C   0  0  0  0  0  0  0  0  0  0  0  0
  187.3370  177.5250  145.5730 C   0  0  0  0  0  3  0  0  0  0  0  0
  181.9030  179.6400  143.8390 O   0  0  0  0  0  0  0  0  0  0  0  0
  180.7960  179.3280  143.0040 C   0  0  0  0  0  1  0  0  0  0  0  0
  190.8190  177.1620  146.0750 C   0  0  0  0  0  2  0  0  0  0  0  0
  190.2200  178.8510  144.4270 O   0  0  0  0  0  1  0  0  0  0  0  0
  191.6700  176.9310  144.8260 C   0  0  0  0  0  2  0  0  0  0  0  0
  190.2690  177.4850  144.7040 C   0  0  0  0  0  0  0  0  0  0  0  0
  189.3740  176.2020  142.6670 C   0  0  0  0  0  3  0  0  0  0  0  0
  189.8610  177.0710  141.7890 C   0  0  0  0  0  3  0  0  0  0  0  0
  190.0690  176.7480  140.4080 N   0  0  0  0  0  2  0  0  0  0  0  0
  189.1060  178.6500  139.4240 O   0  0  0  0  0  0  0  0  0  0  0  0
  189.6930  177.5460  139.2740 C   0  0  0  0  0  0  0  0  0  0  0  0
  193.6190  175.7490  138.1010 C   0  0  0  0  0  3  0  0  0  0  0  0
  189.6370  174.8710  137.1530 C   0  0  0  0  0  0  0  0  0  0  0  0
  189.0000  176.1110  137.4350 N   0  0  0  0  0  0  0  0  0  0  0  0
  192.5710  176.6800  138.2090 C   0  0  0  0  0  3  0  0  0  0  0  0
  187.6550  176.4660  137.0130 C   0  0  0  0  0  1  0  0  0  0  0  0
  189.0490  173.8540  136.7000 O   0  0  0  0  0  0  0  0  0  0  0  0
  191.0440  174.9760  137.4410 C   0  0  0  0  0  0  0  0  0  0  0  0
  190.0090  177.0730  137.8910 C   0  0  2  0  0  3  0  0  0  0  0  0
  191.2810  176.2640  137.8760 C   0  0  0  0  0  0  0  0  0  0  0  0
  192.0630  174.0340  137.3220 C   0  0  0  0  0  3  0  0  0  0  0  0
  193.3670  174.4340  137.6620 C   0  0  0  0  0  3  0  0  0  0  0  0
  1 18  1  6  0  0  0
  1 10  1  0  0  0  0
  1 17  1  0  0  0  0
  3  6  1  0  0  0  0
  4 12  1  0  0  0  0
  4  2  2  0  0  0  0
  5  4  1  0  0  0  0
  6  2  1  0  0  0  0
  6  7  2  0  0  0  0
  8  5  2  0  0  0  0
  8  3  1  0  0  0  0
  9  3  2  0  0  0  0
  9 10  1  0  0  0  0
 10 11  2  0  0  0  0
 11  7  1  0  0  0  0
 13 12  1  0  0  0  0
 15 17  1  0  0  0  0
 16 14  1  0  0  0  0
 17 16  1  0  0  0  0
 17 14  1  0  0  0  0
 19 18  2  0  0  0  0
 20 19  1  0  0  0  0
 22 21  2  0  0  0  0
 22 20  1  0  0  0  0
 23 26  1  0  0  0  0
 24 25  1  0  0  0  0
 24 29  1  0  0  0  0
 25 30  1  0  0  0  0
 27 25  1  0  0  0  0
 28 24  2  0  0  0  0
 29 31  1  0  0  0  0
 30 22  1  1  0  0  0
 31 30  1  0  0  0  0
 31 26  2  0  0  0  0
 32 29  2  0  0  0  0
 32 33  1  0  0  0  0
 33 23  2  0  0  0  0
M  END
>  <MODEL>
1

>  <REMARK>
 VINA RESULT:      -9.8      0.000      0.000
  Name = 
  6 active torsions:
  status: ('A' for Active; 'I' for Inactive)
    1  A    between atoms: C_1  and  C_11
    2  A    between atoms: C_6  and  O_7
    3  A    between atoms: C_11  and  C_25
    4  A    between atoms: C_11  and  C_33
    5  A    between atoms: N_12  and  C_16
    6  A    between atoms: C_23  and  C_28
                            x       y       z     vdW  Elec       q    Type
                         _______ _______ _______ _____ _____    ______ ____

>  <TORSDO>
F 6

$$$$
=
 OpenBabel10222419463D

 33 37  0  0  1  0  0  0  0  0999 V2000
  188.8810  177.0930  138.1330 C   0  0  2  0  0  3  0  0  0  0  0  0
  192.7390  173.1770  136.6270 C   0  0  0  0  0  3  0  0  0  0  0  0
  192.2000  175.3760  137.5130 C   0  0  0  0  0  0  0  0  0  0  0  0
  194.1040  173.4500  136.7740 C   0  0  0  0  0  0  0  0  0  0  0  0
  194.5100  174.6910  137.2940 C   0  0  0  0  0  3  0  0  0  0  0  0
  191.7850  174.1300  136.9930 C   0  0  0  0  0  0  0  0  0  0  0  0
  190.4240  173.8560  136.8450 C   0  0  0  0  0  3  0  0  0  0  0  0
  193.5610  175.6510  137.6620 C   0  0  0  0  0  3  0  0  0  0  0  0
  191.2460  176.3310  137.8790 C   0  0  0  0  0  3  0  0  0  0  0  0
  189.8820  176.0530  137.7300 C   0  0  0  0  0  0  0  0  0  0  0  0
  189.4750  174.8140  137.2130 C   0  0  0  0  0  3  0  0  0  0  0  0
  195.0320  172.4750  136.3990 O   0  0  0  0  0  0  0  0  0  0  0  0
  195.5460  171.5140  137.3120 C   0  0  0  0  0  1  0  0  0  0  0  0
  188.9960  177.6930  135.5690 C   0  0  0  0  0  2  0  0  0  0  0  0
  188.6730  179.4350  137.2380 O   0  0  0  0  0  1  0  0  0  0  0  0
  187.5200  177.7010  135.9680 C   0  0  0  0  0  2  0  0  0  0  0  0
  188.5870  178.0690  136.9750 C   0  0  0  0  0  0  0  0  0  0  0  0
  189.2840  177.7400  139.4250 C   0  0  0  0  0  3  0  0  0  0  0  0
  188.5810  177.5440  140.5350 C   0  0  0  0  0  3  0  0  0  0  0  0
  188.9260  178.1460  141.7900 N   0  0  0  0  0  2  0  0  0  0  0  0
  188.9160  176.2280  143.1450 O   0  0  0  0  0  0  0  0  0  0  0  0
  189.0880  177.4710  143.0480 C   0  0  0  0  0  0  0  0  0  0  0  0
  186.5960  177.6850  146.7580 C   0  0  0  0  0  3  0  0  0  0  0  0
  190.7060  177.3320  146.0510 C   0  0  0  0  0  0  0  0  0  0  0  0
  190.8110  177.8420  144.7270 N   0  0  0  0  0  0  0  0  0  0  0  0
  187.2140  178.0750  145.5570 C   0  0  0  0  0  3  0  0  0  0  0  0
  192.0560  178.2200  144.0800 C   0  0  0  0  0  1  0  0  0  0  0  0
  191.6840  176.9420  146.7430 O   0  0  0  0  0  0  0  0  0  0  0  0
  189.3300  177.3600  146.4710 C   0  0  0  0  0  0  0  0  0  0  0  0
  189.4780  178.2470  144.2660 C   0  0  2  0  0  3  0  0  0  0  0  0
  188.5930  177.8950  145.4340 C   0  0  0  0  0  0  0  0  0  0  0  0
  188.7440  176.9690  147.6730 C   0  0  0  0  0  3  0  0  0  0  0  0
  187.3560  177.1340  147.8090 C   0  0  0  0  0  3  0  0  0  0  0  0
  1 18  1  1  0  0  0
  2  4  2  0  0  0  0
  2  6  1  0  0  0  0
  3  8  1  0  0  0  0
  3  9  1  0  0  0  0
  4  5  1  0  0  0  0
  5  8  2  0  0  0  0
  6  3  2  0  0  0  0
  7  6  1  0  0  0  0
  7 11  2  0  0  0  0
 10  9  2  0  0  0  0
 10  1  1  0  0  0  0
 11 10  1  0  0  0  0
 12  4  1  0  0  0  0
 12 13  1  0  0  0  0
 14 16  1  0  0  0  0
 14 17  1  0  0  0  0
 16 17  1  0  0  0  0
 17 15  1  0  0  0  0
 17  1  1  0  0  0  0
 18 19  2  0  0  0  0
 19 20  1  0  0  0  0
 20 22  1  0  0  0  0
 22 21  2  0  0  0  0
 23 33  1  0  0  0  0
 24 29  1  0  0  0  0
 24 28  2  0  0  0  0
 25 24  1  0  0  0  0
 26 23  2  0  0  0  0
 27 25  1  0  0  0  0
 29 32  1  0  0  0  0
 30 22  1  6  0  0  0
 30 25  1  0  0  0  0
 30 31  1  0  0  0  0
 31 26  1  0  0  0  0
 31 29  2  0  0  0  0
 32 33  2  0  0  0  0
M  END
>  <MODEL>
2

>  <REMARK>
 VINA RESULT:      -8.8      3.007      9.787
  Name = 
  6 active torsions:
  status: ('A' for Active; 'I' for Inactive)
    1  A    between atoms: C_1  and  C_11
    2  A    between atoms: C_6  and  O_7
    3  A    between atoms: C_11  and  C_25
    4  A    between atoms: C_11  and  C_33
    5  A    between atoms: N_12  and  C_16
    6  A    between atoms: C_23  and  C_28
                            x       y       z     vdW  Elec       q    Type
                         _______ _______ _______ _____ _____    ______ ____

>  <TORSDO>
F 6

$$$$
=
 OpenBabel10222419463D

 33 37  0  0  1  0  0  0  0  0999 V2000
  183.0990  179.0800  142.6230 C   0  0  2  0  0  3  0  0  0  0  0  0
  186.8620  177.9170  146.7430 C   0  0  0  0  0  3  0  0  0  0  0  0
  186.2520  177.9460  144.3890 C   0  0  0  0  0  0  0  0  0  0  0  0
  188.1090  177.3720  146.4150 C   0  0  0  0  0  0  0  0  0  0  0  0
  188.4210  177.1180  145.0690 C   0  0  0  0  0  3  0  0  0  0  0  0
  185.9320  178.2050  145.7420 C   0  0  0  0  0  0  0  0  0  0  0  0
  184.6880  178.7480  146.0700 C   0  0  0  0  0  3  0  0  0  0  0  0
  187.4960  177.4040  144.0600 C   0  0  0  0  0  3  0  0  0  0  0  0
  185.3220  178.2340  143.3860 C   0  0  0  0  0  3  0  0  0  0  0  0
  184.0760  178.7780  143.7180 C   0  0  0  0  0  0  0  0  0  0  0  0
  183.7630  179.0350  145.0620 C   0  0  0  0  0  3  0  0  0  0  0  0
  189.0160  177.0960  147.4420 O   0  0  0  0  0  0  0  0  0  0  0  0
  190.3770  176.7680  147.1960 C   0  0  0  0  0  1  0  0  0  0  0  0
  180.5630  179.7970  142.6550 C   0  0  0  0  0  2  0  0  0  0  0  0
  181.4470  178.2880  144.3470 O   0  0  0  0  0  1  0  0  0  0  0  0
  180.6270  178.3940  142.0530 C   0  0  0  0  0  2  0  0  0  0  0  0
  181.6470  178.8330  143.0800 C   0  0  0  0  0  0  0  0  0  0  0  0
  183.4960  178.3820  141.3550 C   0  0  0  0  0  3  0  0  0  0  0  0
  183.6300  179.0550  140.2180 C   0  0  0  0  0  3  0  0  0  0  0  0
  184.0020  178.4280  138.9840 N   0  0  0  0  0  2  0  0  0  0  0  0
  186.3390  178.5340  139.1940 O   0  0  0  0  0  0  0  0  0  0  0  0
  185.3380  178.1830  138.5150 C   0  0  0  0  0  0  0  0  0  0  0  0
  189.2210  178.2370  136.2930 C   0  0  0  0  0  3  0  0  0  0  0  0
  186.3460  175.2830  137.0210 C   0  0  0  0  0  0  0  0  0  0  0  0
  185.1980  176.0710  137.3130 N   0  0  0  0  0  0  0  0  0  0  0  0
  187.8840  178.5190  136.6250 C   0  0  0  0  0  3  0  0  0  0  0  0
  183.8370  175.5660  137.3610 C   0  0  0  0  0  1  0  0  0  0  0  0
  186.3560  174.0240  136.9850 O   0  0  0  0  0  0  0  0  0  0  0  0
  187.4680  176.1450  136.7530 C   0  0  0  0  0  0  0  0  0  0  0  0
  185.5550  177.4900  137.2070 C   0  0  2  0  0  3  0  0  0  0  0  0
  187.0210  177.4460  136.8580 C   0  0  0  0  0  0  0  0  0  0  0  0
  188.7850  175.8370  136.4230 C   0  0  0  0  0  3  0  0  0  0  0  0
  189.6690  176.9050  136.1940 C   0  0  0  0  0  3  0  0  0  0  0  0
  1 18  1  6  0  0  0
  1 17  1  0  0  0  0
  1 10  1  0  0  0  0
  3  6  1  0  0  0  0
  4  2  1  0  0  0  0
  4 12  1  0  0  0  0
  5  4  2  0  0  0  0
  6  7  1  0  0  0  0
  6  2  2  0  0  0  0
  8  3  2  0  0  0  0
  8  5  1  0  0  0  0
  9 10  2  0  0  0  0
  9  3  1  0  0  0  0
 10 11  1  0  0  0  0
 11  7  2  0  0  0  0
 13 12  1  0  0  0  0
 14 17  1  0  0  0  0
 16 14  1  0  0  0  0
 16 17  1  0  0  0  0
 17 15  1  0  0  0  0
 19 18  2  0  0  0  0
 20 19  1  0  0  0  0
 22 20  1  0  0  0  0
 22 21  2  0  0  0  0
 23 26  1  0  0  0  0
 24 25  1  0  0  0  0
 25 27  1  0  0  0  0
 26 31  2  0  0  0  0
 28 24  2  0  0  0  0
 29 31  1  0  0  0  0
 29 24  1  0  0  0  0
 30 25  1  0  0  0  0
 30 22  1  1  0  0  0
 31 30  1  0  0  0  0
 32 29  2  0  0  0  0
 33 23  2  0  0  0  0
 33 32  1  0  0  0  0
M  END
>  <MODEL>
3

>  <REMARK>
 VINA RESULT:      -8.7      2.561      5.848
  Name = 
  6 active torsions:
  status: ('A' for Active; 'I' for Inactive)
    1  A    between atoms: C_1  and  C_11
    2  A    between atoms: C_6  and  O_7
    3  A    between atoms: C_11  and  C_25
    4  A    between atoms: C_11  and  C_33
    5  A    between atoms: N_12  and  C_16
    6  A    between atoms: C_23  and  C_28
                            x       y       z     vdW  Elec       q    Type
                         _______ _______ _______ _____ _____    ______ ____

>  <TORSDO>
F 6

$$$$
=
 OpenBabel10222419463D

 33 37  0  0  1  0  0  0  0  0999 V2000
  185.0340  179.0830  143.8160 C   0  0  2  0  0  3  0  0  0  0  0  0
  189.0600  177.1190  147.3420 C   0  0  0  0  0  3  0  0  0  0  0  0
  188.3260  177.7190  145.1020 C   0  0  0  0  0  0  0  0  0  0  0  0
  190.3120  176.7520  146.8350 C   0  0  0  0  0  0  0  0  0  0  0  0
  190.5640  176.8720  145.4580 C   0  0  0  0  0  3  0  0  0  0  0  0
  188.0660  177.6010  146.4870 C   0  0  0  0  0  0  0  0  0  0  0  0
  186.8170  177.9670  146.9940 C   0  0  0  0  0  3  0  0  0  0  0  0
  189.5740  177.3540  144.5950 C   0  0  0  0  0  3  0  0  0  0  0  0
  187.3310  178.2000  144.2460 C   0  0  0  0  0  3  0  0  0  0  0  0
  186.0810  178.5660  144.7560 C   0  0  0  0  0  0  0  0  0  0  0  0
  185.8270  178.4490  146.1320 C   0  0  0  0  0  3  0  0  0  0  0  0
  191.2840  176.2750  147.7180 O   0  0  0  0  0  0  0  0  0  0  0  0
  192.4310  175.5570  147.2820 C   0  0  0  0  0  1  0  0  0  0  0  0
  182.4860  179.7540  143.7840 C   0  0  0  0  0  2  0  0  0  0  0  0
  183.5450  179.0030  145.8430 O   0  0  0  0  0  1  0  0  0  0  0  0
  182.5510  178.2270  143.7550 C   0  0  0  0  0  2  0  0  0  0  0  0
  183.6300  179.0250  144.4510 C   0  0  0  0  0  0  0  0  0  0  0  0
  185.1560  178.4170  142.4760 C   0  0  0  0  0  3  0  0  0  0  0  0
  185.4720  179.1180  141.3930 C   0  0  0  0  0  3  0  0  0  0  0  0
  185.5940  178.5260  140.0930 N   0  0  0  0  0  2  0  0  0  0  0  0
  184.2830  180.0380  138.8640 O   0  0  0  0  0  0  0  0  0  0  0  0
  185.0030  179.0050  138.8740 C   0  0  0  0  0  0  0  0  0  0  0  0
  189.0510  178.5560  137.0210 C   0  0  0  0  0  3  0  0  0  0  0  0
  185.7730  175.9910  137.4670 C   0  0  0  0  0  0  0  0  0  0  0  0
  184.7110  176.9190  137.6550 N   0  0  0  0  0  0  0  0  0  0  0  0
  187.7350  179.0050  137.2290 C   0  0  0  0  0  3  0  0  0  0  0  0
  183.2980  176.5900  137.5750 C   0  0  0  0  0  1  0  0  0  0  0  0
  185.6270  174.7410  137.4260 O   0  0  0  0  0  0  0  0  0  0  0  0
  187.0140  176.7040  137.3080 C   0  0  0  0  0  0  0  0  0  0  0  0
  185.2520  178.2810  137.5890 C   0  0  2  0  0  3  0  0  0  0  0  0
  186.7260  178.0510  137.3770 C   0  0  0  0  0  0  0  0  0  0  0  0
  188.3070  176.2300  137.1000 C   0  0  0  0  0  3  0  0  0  0  0  0
  189.3350  177.1770  136.9580 C   0  0  0  0  0  3  0  0  0  0  0  0
  1 18  1  6  0  0  0
  1 17  1  0  0  0  0
  1 10  1  0  0  0  0
  3  6  1  0  0  0  0
  4  2  1  0  0  0  0
  4 12  1  0  0  0  0
  5  4  2  0  0  0  0
  6  7  1  0  0  0  0
  6  2  2  0  0  0  0
  8  3  2  0  0  0  0
  8  5  1  0  0  0  0
  9 10  2  0  0  0  0
  9  3  1  0  0  0  0
 10 11  1  0  0  0  0
 11  7  2  0  0  0  0
 13 12  1  0  0  0  0
 14 17  1  0  0  0  0
 16 14  1  0  0  0  0
 16 17  1  0  0  0  0
 17 15  1  0  0  0  0
 19 18  2  0  0  0  0
 20 19  1  0  0  0  0
 21 22  2  0  0  0  0
 22 20  1  0  0  0  0
 23 26  1  0  0  0  0
 24 25  1  0  0  0  0
 26 31  2  0  0  0  0
 27 25  1  0  0  0  0
 28 24  2  0  0  0  0
 29 31  1  0  0  0  0
 29 24  1  0  0  0  0
 30 25  1  0  0  0  0
 30 22  1  1  0  0  0
 31 30  1  0  0  0  0
 32 29  2  0  0  0  0
 33 23  2  0  0  0  0
 33 32  1  0  0  0  0
M  END
>  <MODEL>
4

>  <REMARK>
 VINA RESULT:      -8.7      2.684      5.901
  Name = 
  6 active torsions:
  status: ('A' for Active; 'I' for Inactive)
    1  A    between atoms: C_1  and  C_11
    2  A    between atoms: C_6  and  O_7
    3  A    between atoms: C_11  and  C_25
    4  A    between atoms: C_11  and  C_33
    5  A    between atoms: N_12  and  C_16
    6  A    between atoms: C_23  and  C_28
                            x       y       z     vdW  Elec       q    Type
                         _______ _______ _______ _____ _____    ______ ____

>  <TORSDO>
F 6

$$$$
=
 OpenBabel10222419463D

 33 37  0  0  1  0  0  0  0  0999 V2000
  182.2810  178.9400  141.9720 C   0  0  2  0  0  3  0  0  0  0  0  0
  186.1650  178.3400  146.1000 C   0  0  0  0  0  3  0  0  0  0  0  0
  185.5140  178.1230  143.7670 C   0  0  0  0  0  0  0  0  0  0  0  0
  187.4320  177.8270  145.7970 C   0  0  0  0  0  0  0  0  0  0  0  0
  187.7330  177.4640  144.4730 C   0  0  0  0  0  3  0  0  0  0  0  0
  185.2060  178.4910  145.0960 C   0  0  0  0  0  0  0  0  0  0  0  0
  183.9420  179.0030  145.4010 C   0  0  0  0  0  3  0  0  0  0  0  0
  186.7780  177.6120  143.4620 C   0  0  0  0  0  3  0  0  0  0  0  0
  184.5550  178.2730  142.7620 C   0  0  0  0  0  3  0  0  0  0  0  0
  183.2890  178.7860  143.0700 C   0  0  0  0  0  0  0  0  0  0  0  0
  182.9870  179.1510  144.3910 C   0  0  0  0  0  3  0  0  0  0  0  0
  188.3680  177.6900  146.8240 O   0  0  0  0  0  0  0  0  0  0  0  0
  188.0380  177.8790  148.1940 C   0  0  0  0  0  1  0  0  0  0  0  0
  179.7420  178.2530  142.1330 C   0  0  0  0  0  2  0  0  0  0  0  0
  180.4610  180.4960  142.7450 O   0  0  0  0  0  1  0  0  0  0  0  0
  180.3140  178.1980  143.5490 C   0  0  0  0  0  2  0  0  0  0  0  0
  180.8660  179.1780  142.5380 C   0  0  0  0  0  0  0  0  0  0  0  0
  182.3930  177.8090  140.9920 C   0  0  0  0  0  2  0  0  0  0  0  0
  182.5780  178.0440  139.6980 C   0  0  0  0  0  3  0  0  0  0  0  0
  182.6850  176.9960  138.7250 N   0  0  0  0  0  0  0  0  0  0  0  0
  182.3450  178.2550  136.7720 O   0  0  0  0  0  0  0  0  0  0  0  0
  182.5720  177.1340  137.3000 C   0  0  0  0  0  0  0  0  0  0  0  0
  186.2700  174.6170  137.1970 C   0  0  0  0  0  3  0  0  0  0  0  0
  182.1760  173.7510  137.0770 C   0  0  0  0  0  0  0  0  0  0  0  0
  181.6380  174.9890  136.6300 N   0  0  0  0  0  0  0  0  0  0  0  0
  185.2900  175.5440  136.7990 C   0  0  0  0  0  3  0  0  0  0  0  0
  180.2840  175.1740  136.1360 C   0  0  0  0  0  1  0  0  0  0  0  0
  181.4930  172.7180  137.3060 O   0  0  0  0  0  0  0  0  0  0  0  0
  183.6070  173.8620  137.1970 C   0  0  0  0  0  0  0  0  0  0  0  0
  182.7370  175.9370  136.4180 C   0  0  2  0  0  3  0  0  0  0  0  0
  183.9540  175.1410  136.8140 C   0  0  0  0  0  0  0  0  0  0  0  0
  184.5550  172.9220  137.5930 C   0  0  0  0  0  3  0  0  0  0  0  0
  185.9040  173.3150  137.5930 C   0  0  0  0  0  3  0  0  0  0  0  0
  1 18  1  1  0  0  0
  1 17  1  0  0  0  0
  1 10  1  0  0  0  0
  3  6  1  0  0  0  0
  4  2  1  0  0  0  0
  4 12  1  0  0  0  0
  5  4  2  0  0  0  0
  6  7  1  0  0  0  0
  6  2  2  0  0  0  0
  8  3  2  0  0  0  0
  8  5  1  0  0  0  0
  9 10  2  0  0  0  0
  9  3  1  0  0  0  0
 10 11  1  0  0  0  0
 11  7  2  0  0  0  0
 12 13  1  0  0  0  0
 14 17  1  0  0  0  0
 14 16  1  0  0  0  0
 17 15  1  0  0  0  0
 17 16  1  0  0  0  0
 19 18  1  0  0  0  0
 20 19  2  0  0  0  0
 21 22  2  0  0  0  0
 22 20  1  0  0  0  0
 23 33  1  0  0  0  0
 24 29  1  0  0  0  0
 24 28  2  0  0  0  0
 25 24  1  0  0  0  0
 26 31  1  0  0  0  0
 26 23  2  0  0  0  0
 27 25  1  0  0  0  0
 29 32  1  0  0  0  0
 30 25  1  0  0  0  0
 30 31  1  0  0  0  0
 30 22  1  1  0  0  0
 31 29  2  0  0  0  0
 33 32  2  0  0  0  0
M  END
>  <MODEL>
5

>  <REMARK>
 VINA RESULT:      -8.5      4.210      7.143
  Name = 
  6 active torsions:
  status: ('A' for Active; 'I' for Inactive)
    1  A    between atoms: C_1  and  C_11
    2  A    between atoms: C_6  and  O_7
    3  A    between atoms: C_11  and  C_25
    4  A    between atoms: C_11  and  C_33
    5  A    between atoms: N_12  and  C_16
    6  A    between atoms: C_23  and  C_28
                            x       y       z     vdW  Elec       q    Type
                         _______ _______ _______ _____ _____    ______ ____

>  <TORSDO>
F 6

$$$$
=
 OpenBabel10222419463D

 33 37  0  0  1  0  0  0  0  0999 V2000
  184.4240  178.9660  143.2860 C   0  0  2  0  0  3  0  0  0  0  0  0
  189.2040  177.0780  145.7510 C   0  0  0  0  0  3  0  0  0  0  0  0
  187.0180  178.1300  145.9160 C   0  0  0  0  0  0  0  0  0  0  0  0
  189.3700  177.2010  147.1360 C   0  0  0  0  0  0  0  0  0  0  0  0
  188.3520  177.7890  147.9060 C   0  0  0  0  0  3  0  0  0  0  0  0
  188.0370  177.5380  145.1370 C   0  0  0  0  0  0  0  0  0  0  0  0
  187.8730  177.4150  143.7550 C   0  0  0  0  0  3  0  0  0  0  0  0
  187.1810  178.2530  147.2980 C   0  0  0  0  0  3  0  0  0  0  0  0
  185.8500  178.5910  145.3020 C   0  0  0  0  0  3  0  0  0  0  0  0
  185.6880  178.4670  143.9180 C   0  0  0  0  0  0  0  0  0  0  0  0
  186.7020  177.8770  143.1470 C   0  0  0  0  0  3  0  0  0  0  0  0
  190.5490  176.7300  147.7180 O   0  0  0  0  0  0  0  0  0  0  0  0
  191.6810  176.3380  146.9520 C   0  0  0  0  0  1  0  0  0  0  0  0
  182.0070  179.7680  143.9640 C   0  0  0  0  0  2  0  0  0  0  0  0
  183.5810  179.0030  145.6560 O   0  0  0  0  0  1  0  0  0  0  0  0
  181.9940  178.2400  143.9690 C   0  0  0  0  0  2  0  0  0  0  0  0
  183.2620  178.9940  144.2990 C   0  0  0  0  0  0  0  0  0  0  0  0
  184.1430  178.2240  142.0120 C   0  0  0  0  0  3  0  0  0  0  0  0
  184.1790  178.8440  140.8390 C   0  0  0  0  0  3  0  0  0  0  0  0
  183.9110  178.1760  139.5980 N   0  0  0  0  0  2  0  0  0  0  0  0
  185.7310  178.9670  138.3420 O   0  0  0  0  0  0  0  0  0  0  0  0
  184.6950  178.2530  138.3970 C   0  0  0  0  0  0  0  0  0  0  0  0
  186.5760  174.3680  137.2180 C   0  0  0  0  0  3  0  0  0  0  0  0
  182.6400  175.7940  137.2220 C   0  0  0  0  0  0  0  0  0  0  0  0
  182.8490  177.2000  137.2120 N   0  0  0  0  0  0  0  0  0  0  0  0
  186.2440  175.7340  137.2020 C   0  0  0  0  0  3  0  0  0  0  0  0
  181.8240  178.1880  136.9200 C   0  0  0  0  0  1  0  0  0  0  0  0
  181.5080  175.2410  137.1970 O   0  0  0  0  0  0  0  0  0  0  0  0
  183.9110  175.1180  137.2380 C   0  0  0  0  0  0  0  0  0  0  0  0
  184.2910  177.4680  137.1890 C   0  0  2  0  0  3  0  0  0  0  0  0
  184.8930  176.0860  137.2190 C   0  0  0  0  0  0  0  0  0  0  0  0
  184.2100  173.7570  137.2500 C   0  0  0  0  0  3  0  0  0  0  0  0
  185.5650  173.3860  137.2430 C   0  0  0  0  0  3  0  0  0  0  0  0
  1 18  1  6  0  0  0
  1 10  1  0  0  0  0
  1 17  1  0  0  0  0
  2  4  1  0  0  0  0
  3  8  2  0  0  0  0
  4 12  1  0  0  0  0
  4  5  2  0  0  0  0
  6  2  2  0  0  0  0
  6  3  1  0  0  0  0
  7  6  1  0  0  0  0
  8  5  1  0  0  0  0
  9  3  1  0  0  0  0
 10  9  2  0  0  0  0
 11  7  2  0  0  0  0
 11 10  1  0  0  0  0
 13 12  1  0  0  0  0
 14 16  1  0  0  0  0
 14 17  1  0  0  0  0
 16 17  1  0  0  0  0
 17 15  1  0  0  0  0
 19 18  2  0  0  0  0
 20 19  1  0  0  0  0
 21 22  2  0  0  0  0
 22 20  1  0  0  0  0
 23 33  1  0  0  0  0
 24 29  1  0  0  0  0
 25 24  1  0  0  0  0
 26 23  2  0  0  0  0
 26 31  1  0  0  0  0
 27 25  1  0  0  0  0
 28 24  2  0  0  0  0
 29 32  1  0  0  0  0
 30 25  1  0  0  0  0
 30 31  1  0  0  0  0
 30 22  1  1  0  0  0
 31 29  2  0  0  0  0
 33 32  2  0  0  0  0
M  END
>  <MODEL>
6

>  <REMARK>
 VINA RESULT:      -8.5      3.685      6.613
  Name = 
  6 active torsions:
  status: ('A' for Active; 'I' for Inactive)
    1  A    between atoms: C_1  and  C_11
    2  A    between atoms: C_6  and  O_7
    3  A    between atoms: C_11  and  C_25
    4  A    between atoms: C_11  and  C_33
    5  A    between atoms: N_12  and  C_16
    6  A    between atoms: C_23  and  C_28
                            x       y       z     vdW  Elec       q    Type
                         _______ _______ _______ _____ _____    ______ ____

>  <TORSDO>
F 6

$$$$
=
 OpenBabel10222419463D

 33 37  0  0  1  0  0  0  0  0999 V2000
  182.7700  178.9820  142.2580 C   0  0  2  0  0  3  0  0  0  0  0  0
  186.3450  178.2550  146.6380 C   0  0  0  0  0  3  0  0  0  0  0  0
  185.8500  178.0690  144.2640 C   0  0  0  0  0  0  0  0  0  0  0  0
  187.6150  177.7100  146.4180 C   0  0  0  0  0  0  0  0  0  0  0  0
  187.9970  177.3470  145.1150 C   0  0  0  0  0  3  0  0  0  0  0  0
  185.4600  178.4370  145.5720 C   0  0  0  0  0  0  0  0  0  0  0  0
  184.1930  178.9810  145.7930 C   0  0  0  0  0  3  0  0  0  0  0  0
  187.1170  177.5260  144.0420 C   0  0  0  0  0  3  0  0  0  0  0  0
  184.9660  178.2500  143.1970 C   0  0  0  0  0  3  0  0  0  0  0  0
  183.6960  178.7950  143.4210 C   0  0  0  0  0  0  0  0  0  0  0  0
  183.3140  179.1600  144.7210 C   0  0  0  0  0  3  0  0  0  0  0  0
  188.4750  177.5420  147.5060 O   0  0  0  0  0  0  0  0  0  0  0  0
  188.1260  177.9330  148.8280 C   0  0  0  0  0  1  0  0  0  0  0  0
  180.2660  178.1800  142.0720 C   0  0  0  0  0  2  0  0  0  0  0  0
  180.8090  180.3230  143.0880 O   0  0  0  0  0  1  0  0  0  0  0  0
  180.7160  177.9230  143.5090 C   0  0  0  0  0  2  0  0  0  0  0  0
  181.3010  179.0720  142.7190 C   0  0  0  0  0  0  0  0  0  0  0  0
  183.0430  177.9570  141.1970 C   0  0  0  0  0  3  0  0  0  0  0  0
  183.4750  178.3180  139.9940 C   0  0  0  0  0  3  0  0  0  0  0  0
  183.7440  177.3750  138.9490 N   0  0  0  0  0  2  0  0  0  0  0  0
  182.3650  178.2670  137.2690 O   0  0  0  0  0  0  0  0  0  0  0  0
  183.1880  177.3820  137.6240 C   0  0  0  0  0  0  0  0  0  0  0  0
  187.3120  177.0450  135.9220 C   0  0  0  0  0  3  0  0  0  0  0  0
  184.4950  174.2500  137.2540 C   0  0  0  0  0  0  0  0  0  0  0  0
  183.2880  174.9960  137.1550 N   0  0  0  0  0  0  0  0  0  0  0  0
  185.9340  177.3090  136.0040 C   0  0  0  0  0  3  0  0  0  0  0  0
  181.9530  174.4250  137.2190 C   0  0  0  0  0  1  0  0  0  0  0  0
  184.5620  173.0480  137.6240 O   0  0  0  0  0  0  0  0  0  0  0  0
  185.6040  175.0710  136.8430 C   0  0  0  0  0  0  0  0  0  0  0  0
  183.5960  176.3330  136.6380 C   0  0  2  0  0  3  0  0  0  0  0  0
  185.0940  176.2990  136.4770 C   0  0  0  0  0  0  0  0  0  0  0  0
  186.9650  174.7800  136.7690 C   0  0  0  0  0  3  0  0  0  0  0  0
  187.8250  175.7890  136.3030 C   0  0  0  0  0  3  0  0  0  0  0  0
  1 18  1  6  0  0  0
  1 17  1  0  0  0  0
  1 10  1  0  0  0  0
  3  6  1  0  0  0  0
  4  2  1  0  0  0  0
  4 12  1  0  0  0  0
  5  4  2  0  0  0  0
  6  7  1  0  0  0  0
  6  2  2  0  0  0  0
  8  3  2  0  0  0  0
  8  5  1  0  0  0  0
  9 10  2  0  0  0  0
  9  3  1  0  0  0  0
 10 11  1  0  0  0  0
 11  7  2  0  0  0  0
 12 13  1  0  0  0  0
 14 17  1  0  0  0  0
 14 16  1  0  0  0  0
 17 15  1  0  0  0  0
 17 16  1  0  0  0  0
 19 18  2  0  0  0  0
 20 19  1  0  0  0  0
 21 22  2  0  0  0  0
 22 20  1  0  0  0  0
 23 26  2  0  0  0  0
 23 33  1  0  0  0  0
 24 28  2  0  0  0  0
 25 27  1  0  0  0  0
 25 24  1  0  0  0  0
 26 31  1  0  0  0  0
 29 24  1  0  0  0  0
 30 25  1  0  0  0  0
 30 22  1  1  0  0  0
 31 30  1  0  0  0  0
 31 29  2  0  0  0  0
 32 29  1  0  0  0  0
 33 32  2  0  0  0  0
M  END
>  <MODEL>
7

>  <REMARK>
 VINA RESULT:      -8.4      3.479      6.457
  Name = 
  6 active torsions:
  status: ('A' for Active; 'I' for Inactive)
    1  A    between atoms: C_1  and  C_11
    2  A    between atoms: C_6  and  O_7
    3  A    between atoms: C_11  and  C_25
    4  A    between atoms: C_11  and  C_33
    5  A    between atoms: N_12  and  C_16
    6  A    between atoms: C_23  and  C_28
                            x       y       z     vdW  Elec       q    Type
                         _______ _______ _______ _____ _____    ______ ____

>  <TORSDO>
F 6

$$$$
=
 OpenBabel10222419463D

 33 37  0  0  1  0  0  0  0  0999 V2000
  186.9050  178.8290  141.9050 C   0  0  2  0  0  3  0  0  0  0  0  0
  189.5010  176.8030  146.5580 C   0  0  0  0  0  3  0  0  0  0  0  0
  189.6140  177.7150  144.3060 C   0  0  0  0  0  0  0  0  0  0  0  0
  190.8970  176.7190  146.5960 C   0  0  0  0  0  0  0  0  0  0  0  0
  191.6470  177.1370  145.4830 C   0  0  0  0  0  3  0  0  0  0  0  0
  188.8540  177.2970  145.4220 C   0  0  0  0  0  0  0  0  0  0  0  0
  187.4610  177.3810  145.3850 C   0  0  0  0  0  3  0  0  0  0  0  0
  191.0070  177.6330  144.3430 C   0  0  0  0  0  3  0  0  0  0  0  0
  188.9680  178.2090  143.1690 C   0  0  0  0  0  3  0  0  0  0  0  0
  187.5710  178.2910  143.1350 C   0  0  0  0  0  0  0  0  0  0  0  0
  186.8210  177.8770  144.2460 C   0  0  0  0  0  3  0  0  0  0  0  0
  191.5120  176.2200  147.7470 O   0  0  0  0  0  0  0  0  0  0  0  0
  192.8040  175.6280  147.7330 C   0  0  0  0  0  1  0  0  0  0  0  0
  184.4780  179.0820  140.9090 C   0  0  0  0  0  2  0  0  0  0  0  0
  184.9570  179.7570  143.1970 O   0  0  0  0  0  1  0  0  0  0  0  0
  184.4780  177.8290  141.7830 C   0  0  0  0  0  2  0  0  0  0  0  0
  185.3860  178.9920  142.1140 C   0  0  0  0  0  0  0  0  0  0  0  0
  187.3000  178.0270  140.6990 C   0  0  0  0  0  3  0  0  0  0  0  0
  188.1340  178.5230  139.7930 C   0  0  0  0  0  3  0  0  0  0  0  0
  188.5340  177.7960  138.6240 N   0  0  0  0  0  2  0  0  0  0  0  0
  189.0560  179.6010  137.2140 O   0  0  0  0  0  0  0  0  0  0  0  0
  188.9860  178.3550  137.3790 C   0  0  0  0  0  0  0  0  0  0  0  0
  192.3770  175.4490  137.6460 C   0  0  0  0  0  3  0  0  0  0  0  0
  188.5460  175.2770  135.9700 C   0  0  0  0  0  0  0  0  0  0  0  0
  188.2500  176.6570  135.7980 N   0  0  0  0  0  0  0  0  0  0  0  0
  191.6380  176.5860  137.2790 C   0  0  0  0  0  3  0  0  0  0  0  0
  187.1600  177.1770  134.9890 C   0  0  0  0  0  1  0  0  0  0  0  0
  187.7810  174.3360  135.6270 O   0  0  0  0  0  0  0  0  0  0  0  0
  189.8490  175.1330  136.5640 C   0  0  0  0  0  0  0  0  0  0  0  0
  189.3940  177.4510  136.2590 C   0  0  2  0  0  3  0  0  0  0  0  0
  190.3630  176.4010  136.7410 C   0  0  0  0  0  0  0  0  0  0  0  0
  190.5600  173.9880  136.9150 C   0  0  0  0  0  3  0  0  0  0  0  0
  191.8410  174.1570  137.4660 C   0  0  0  0  0  3  0  0  0  0  0  0
  1 18  1  6  0  0  0
  1 17  1  0  0  0  0
  1 10  1  0  0  0  0
  2  4  1  0  0  0  0
  3  8  2  0  0  0  0
  3  6  1  0  0  0  0
  4 12  1  0  0  0  0
  5  4  2  0  0  0  0
  6  2  2  0  0  0  0
  7  6  1  0  0  0  0
  8  5  1  0  0  0  0
  9  3  1  0  0  0  0
 10  9  2  0  0  0  0
 10 11  1  0  0  0  0
 11  7  2  0  0  0  0
 13 12  1  0  0  0  0
 14 16  1  0  0  0  0
 14 17  1  0  0  0  0
 16 17  1  0  0  0  0
 17 15  1  0  0  0  0
 19 18  2  0  0  0  0
 20 19  1  0  0  0  0
 21 22  2  0  0  0  0
 22 20  1  0  0  0  0
 24 29  1  0  0  0  0
 25 24  1  0  0  0  0
 25 30  1  0  0  0  0
 26 23  2  0  0  0  0
 27 25  1  0  0  0  0
 28 24  2  0  0  0  0
 29 31  2  0  0  0  0
 29 32  1  0  0  0  0
 30 31  1  0  0  0  0
 30 22  1  1  0  0  0
 31 26  1  0  0  0  0
 32 33  2  0  0  0  0
 33 23  1  0  0  0  0
M  END
>  <MODEL>
8

>  <REMARK>
 VINA RESULT:      -8.3      1.924      5.076
  Name = 
  6 active torsions:
  status: ('A' for Active; 'I' for Inactive)
    1  A    between atoms: C_1  and  C_11
    2  A    between atoms: C_6  and  O_7
    3  A    between atoms: C_11  and  C_25
    4  A    between atoms: C_11  and  C_33
    5  A    between atoms: N_12  and  C_16
    6  A    between atoms: C_23  and  C_28
                            x       y       z     vdW  Elec       q    Type
                         _______ _______ _______ _____ _____    ______ ____

>  <TORSDO>
F 6

$$$$
=
 OpenBabel10222419463D

 33 37  0  0  1  0  0  0  0  0999 V2000
  189.1720  176.9000  144.0880 C   0  0  2  0  0  3  0  0  0  0  0  0
  183.8320  178.8190  144.6280 C   0  0  0  0  0  3  0  0  0  0  0  0
  185.6740  178.0710  143.2270 C   0  0  0  0  0  0  0  0  0  0  0  0
  183.0430  179.0150  143.4880 C   0  0  0  0  0  0  0  0  0  0  0  0
  183.5770  178.7340  142.2190 C   0  0  0  0  0  3  0  0  0  0  0  0
  185.1420  178.3500  144.5070 C   0  0  0  0  0  0  0  0  0  0  0  0
  185.9290  178.1550  145.6440 C   0  0  0  0  0  3  0  0  0  0  0  0
  184.8880  178.2640  142.0900 C   0  0  0  0  0  3  0  0  0  0  0  0
  186.9850  177.6010  143.1060 C   0  0  0  0  0  3  0  0  0  0  0  0
  187.7710  177.4070  144.2470 C   0  0  0  0  0  0  0  0  0  0  0  0
  187.2390  177.6850  145.5160 C   0  0  0  0  0  3  0  0  0  0  0  0
  181.7370  179.4850  143.6450 O   0  0  0  0  0  0  0  0  0  0  0  0
  180.6460  178.6310  143.9650 C   0  0  0  0  0  1  0  0  0  0  0  0
  190.8850  178.1900  145.6190 C   0  0  0  0  0  2  0  0  0  0  0  0
  189.9810  179.2360  143.6160 O   0  0  0  0  0  1  0  0  0  0  0  0
  191.6650  177.6630  144.4150 C   0  0  0  0  0  2  0  0  0  0  0  0
  190.2040  178.0300  144.2790 C   0  0  0  0  0  0  0  0  0  0  0  0
  189.3080  176.1210  142.8120 C   0  0  0  0  0  2  0  0  0  0  0  0
  189.7250  176.7070  141.6960 C   0  0  0  0  0  3  0  0  0  0  0  0
  189.8640  176.0050  140.4540 N   0  0  0  0  0  0  0  0  0  0  0  0
  189.9630  177.8380  138.9900 O   0  0  0  0  0  0  0  0  0  0  0  0
  189.9850  176.5890  139.1470 C   0  0  0  0  0  0  0  0  0  0  0  0
  186.7340  175.8050  136.1750 C   0  0  0  0  0  3  0  0  0  0  0  0
  190.8490  176.4970  135.8460 C   0  0  0  0  0  0  0  0  0  0  0  0
  191.3000  176.1450  137.1480 N   0  0  0  0  0  0  0  0  0  0  0  0
  187.6440  175.5920  137.2240 C   0  0  0  0  0  3  0  0  0  0  0  0
  192.6890  175.9210  137.5120 C   0  0  0  0  0  1  0  0  0  0  0  0
  191.6020  176.8700  134.9070 O   0  0  0  0  0  0  0  0  0  0  0  0
  189.4200  176.3350  135.7700 C   0  0  0  0  0  0  0  0  0  0  0  0
  190.1510  175.7090  137.9480 C   0  0  2  0  0  3  0  0  0  0  0  0
  188.9930  175.8720  136.9970 C   0  0  0  0  0  0  0  0  0  0  0  0
  188.5420  176.5520  134.7110 C   0  0  0  0  0  3  0  0  0  0  0  0
  187.1800  176.2840  134.9260 C   0  0  0  0  0  3  0  0  0  0  0  0
  1 18  1  6  0  0  0
  1 10  1  0  0  0  0
  1 17  1  0  0  0  0
  3  6  1  0  0  0  0
  4 12  1  0  0  0  0
  4  2  2  0  0  0  0
  5  4  1  0  0  0  0
  6  2  1  0  0  0  0
  6  7  2  0  0  0  0
  8  5  2  0  0  0  0
  8  3  1  0  0  0  0
  9  3  2  0  0  0  0
  9 10  1  0  0  0  0
 10 11  2  0  0  0  0
 11  7  1  0  0  0  0
 12 13  1  0  0  0  0
 15 17  1  0  0  0  0
 16 14  1  0  0  0  0
 17 16  1  0  0  0  0
 17 14  1  0  0  0  0
 19 18  1  0  0  0  0
 20 19  2  0  0  0  0
 21 22  2  0  0  0  0
 22 20  1  0  0  0  0
 23 26  1  0  0  0  0
 24 25  1  0  0  0  0
 25 27  1  0  0  0  0
 25 30  1  0  0  0  0
 28 24  2  0  0  0  0
 29 24  1  0  0  0  0
 29 31  1  0  0  0  0
 30 22  1  1  0  0  0
 31 26  2  0  0  0  0
 31 30  1  0  0  0  0
 32 33  1  0  0  0  0
 32 29  2  0  0  0  0
 33 23  2  0  0  0  0
M  END
>  <MODEL>
9

>  <REMARK>
 VINA RESULT:      -8.0      1.337      2.653
  Name = 
  6 active torsions:
  status: ('A' for Active; 'I' for Inactive)
    1  A    between atoms: C_1  and  C_11
    2  A    between atoms: C_6  and  O_7
    3  A    between atoms: C_11  and  C_25
    4  A    between atoms: C_11  and  C_33
    5  A    between atoms: N_12  and  C_16
    6  A    between atoms: C_23  and  C_28
                            x       y       z     vdW  Elec       q    Type
                         _______ _______ _______ _____ _____    ______ ____

>  <TORSDO>
F 6

$$$$
