=
 OpenBabel10222421173D

 37 42  0  0  1  0  0  0  0  0999 V2000
  187.9470  177.8350  140.0460 C   0  0  0  0  0  0  0  0  0  0  0  0
  187.7600  177.6690  142.5400 C   0  0  0  0  0  0  0  0  0  0  0  0
  184.3990  178.8160  143.2980 N   0  0  0  0  0  0  0  0  0  0  0  0
  189.6500  177.0540  141.5370 N   0  0  0  0  0  0  0  0  0  0  0  0
  190.1890  177.0120  139.2110 C   0  0  0  0  0  3  0  0  0  0  0  0
  186.3390  178.4250  139.9440 S   0  0  0  0  0  0  0  0  0  0  0  0
  185.9250  178.0940  145.0680 N   0  0  0  0  0  1  0  0  0  0  0  0
  186.4460  178.1430  142.6400 C   0  0  0  0  0  0  0  0  0  0  0  0
  185.6650  178.5250  141.4960 C   0  0  0  0  0  0  0  0  0  0  0  0
  185.6050  178.3480  143.7060 C   0  0  0  0  0  0  0  0  0  0  0  0
  189.7800  176.8670  142.8690 C   0  0  0  0  0  0  0  0  0  0  0  0
  188.8580  177.6870  138.8390 C   0  0  2  0  0  0  0  0  0  0  0  0
  188.6220  177.2490  143.5470 C   0  0  0  0  0  3  0  0  0  0  0  0
  184.4260  178.9290  141.9430 C   0  0  0  0  0  3  0  0  0  0  0  0
  190.5530  176.7410  140.4740 C   0  0  0  0  0  3  0  0  0  0  0  0
  189.1630  179.0970  138.3380 C   0  0  0  0  0  1  0  0  0  0  0  0
  188.4290  177.5400  141.3300 C   0  0  0  0  0  0  0  0  0  0  0  0
  188.1540  176.9350  137.8610 O   0  0  0  0  0  0  0  0  0  0  0  0
  188.9620  175.8970  137.3550 C   0  0  1  0  0  3  0  0  0  0  0  0
  185.9500  173.6390  136.9350 C   0  0  0  0  0  3  0  0  0  0  0  0
  188.1350  174.6660  137.1580 C   0  0  0  0  0  0  0  0  0  0  0  0
  186.5540  172.3920  136.7380 C   0  0  0  0  0  3  0  0  0  0  0  0
  188.7400  173.4160  136.9510 C   0  0  0  0  0  3  0  0  0  0  0  0
  187.9480  172.2810  136.7460 C   0  0  0  0  0  3  0  0  0  0  0  0
  186.7400  174.7740  137.1430 C   0  0  0  0  0  3  0  0  0  0  0  0
  190.9260  176.0050  135.7490 C   0  0  0  0  0  0  0  0  0  0  0  0
  191.3810  176.3600  134.5940 N   0  0  0  0  0  2  0  0  0  0  0  0
  189.5750  176.3160  136.0950 N   0  0  0  0  0  2  0  0  0  0  0  0
  191.8290  175.3080  136.7080 C   0  0  0  0  0  1  0  0  0  0  0  0
  191.0220  176.3650  143.5300 C   0  0  0  0  0  2  0  0  0  0  0  0
  191.8480  176.1530  145.8180 N   0  0  0  0  0  0  0  0  0  0  0  0
  190.9280  176.5490  145.0040 C   0  0  0  0  0  0  0  0  0  0  0  0
  190.1810  177.2680  146.9570 C   0  0  0  0  0  0  0  0  0  0  0  0
  189.8580  177.2690  145.6720 C   0  0  0  0  0  3  0  0  0  0  0  0
  191.4760  176.5500  147.1680 C   0  0  0  0  0  2  0  0  0  0  0  0
  189.3450  177.9290  148.0110 C   0  0  0  0  0  2  0  0  0  0  0  0
  187.8940  177.4800  147.9560 C   0  0  0  0  0  1  0  0  0  0  0  0
  1 17  2  0  0  0  0
  2  8  2  0  0  0  0
  2 13  1  0  0  0  0
  3 10  2  0  0  0  0
  4 11  1  0  0  0  0
  5 15  2  0  0  0  0
  6  1  1  0  0  0  0
  6  9  1  0  0  0  0
  8 10  1  0  0  0  0
  9 14  2  0  0  0  0
  9  8  1  0  0  0  0
 10  7  1  0  0  0  0
 11 30  1  0  0  0  0
 11 13  2  0  0  0  0
 12 16  1  6  0  0  0
 12  5  1  0  0  0  0
 12  1  1  0  0  0  0
 14  3  1  0  0  0  0
 15  4  1  0  0  0  0
 17  4  1  0  0  0  0
 17  2  1  0  0  0  0
 18 12  1  0  0  0  0
 19 28  1  6  0  0  0
 19 18  1  0  0  0  0
 20 25  1  0  0  0  0
 21 19  1  0  0  0  0
 22 24  1  0  0  0  0
 22 20  2  0  0  0  0
 23 21  1  0  0  0  0
 24 23  2  0  0  0  0
 25 21  2  0  0  0  0
 26 28  1  0  0  0  0
 26 29  1  0  0  0  0
 27 26  2  0  0  0  0
 30 32  1  0  0  0  0
 31 35  1  0  0  0  0
 32 34  1  0  0  0  0
 32 31  2  0  0  0  0
 33 35  1  0  0  0  0
 33 36  1  0  0  0  0
 34 33  2  0  0  0  0
 37 36  1  0  0  0  0
M  END
>  <MODEL>
1

>  <REMARK>
 VINA RESULT:      -8.7      0.000      0.000
  Name = 
  7 active torsions:
  status: ('A' for Active; 'I' for Inactive)
    1  A    between atoms: C_5  and  C_6
    2  A    between atoms: C_6  and  O_19
    3  A    between atoms: C_6  and  N_36
    4  A    between atoms: C_8  and  C_13
    5  A    between atoms: C_11  and  C_22
    6  A    between atoms: O_19  and  C_28
    7  A    between atoms: C_22  and  C_27
                            x       y       z     vdW  Elec       q    Type
                         _______ _______ _______ _____ _____    ______ ____

>  <TORSDO>
F 7

$$$$
=
 OpenBabel10222421173D

 37 42  0  0  1  0  0  0  0  0999 V2000
  184.8310  178.4660  140.9090 C   0  0  0  0  0  0  0  0  0  0  0  0
  186.8360  178.1990  142.3910 C   0  0  0  0  0  0  0  0  0  0  0  0
  189.6540  177.9850  140.1120 N   0  0  0  0  0  0  0  0  0  0  0  0
  184.8150  178.4020  143.3030 N   0  0  0  0  0  0  0  0  0  0  0  0
  182.6990  178.7270  142.2450 C   0  0  0  0  0  3  0  0  0  0  0  0
  185.8290  178.4140  139.5150 S   0  0  0  0  0  0  0  0  0  0  0  0
  189.9670  177.8650  142.5350 N   0  0  0  0  0  1  0  0  0  0  0  0
  187.7890  178.1290  141.3690 C   0  0  0  0  0  0  0  0  0  0  0  0
  187.4500  178.2240  139.9760 C   0  0  0  0  0  0  0  0  0  0  0  0
  189.1560  177.9850  141.3730 C   0  0  0  0  0  0  0  0  0  0  0  0
  185.7300  178.2830  144.2890 C   0  0  0  0  0  0  0  0  0  0  0  0
  183.3160  178.5640  140.8460 C   0  0  2  0  0  0  0  0  0  0  0  0
  187.0170  178.1420  143.7680 C   0  0  0  0  0  3  0  0  0  0  0  0
  188.6150  178.1310  139.2470 C   0  0  0  0  0  3  0  0  0  0  0  0
  183.4050  178.6290  143.3820 C   0  0  0  0  0  3  0  0  0  0  0  0
  182.8120  177.2510  140.2520 C   0  0  0  0  0  1  0  0  0  0  0  0
  185.4770  178.3520  142.1500 C   0  0  0  0  0  0  0  0  0  0  0  0
  182.9930  179.6640  140.0090 O   0  0  0  0  0  0  0  0  0  0  0  0
  181.8500  179.3810  139.2340 C   0  0  1  0  0  3  0  0  0  0  0  0
  179.7980  182.4910  138.5540 C   0  0  0  0  0  3  0  0  0  0  0  0
  180.8430  180.4740  139.4020 C   0  0  0  0  0  0  0  0  0  0  0  0
  178.9340  182.5080  139.6540 C   0  0  0  0  0  3  0  0  0  0  0  0
  179.9690  180.4870  140.5000 C   0  0  0  0  0  3  0  0  0  0  0  0
  179.0200  181.5060  140.6270 C   0  0  0  0  0  3  0  0  0  0  0  0
  180.7500  181.4750  138.4280 C   0  0  0  0  0  3  0  0  0  0  0  0
  181.5790  178.3260  136.9390 C   0  0  0  0  0  0  0  0  0  0  0  0
  181.9310  178.2950  135.6980 N   0  0  0  0  0  2  0  0  0  0  0  0
  182.2280  179.2370  137.8290 N   0  0  0  0  0  2  0  0  0  0  0  0
  180.5280  177.3880  137.4260 C   0  0  0  0  0  1  0  0  0  0  0  0
  185.3990  178.2550  145.7460 C   0  0  0  0  0  2  0  0  0  0  0  0
  186.7740  178.7010  147.7130 N   0  0  0  0  0  0  0  0  0  0  0  0
  186.6450  178.1500  146.5530 C   0  0  0  0  0  0  0  0  0  0  0  0
  188.6510  177.4690  147.1850 C   0  0  0  0  0  0  0  0  0  0  0  0
  187.7980  177.3520  146.1780 C   0  0  0  0  0  3  0  0  0  0  0  0
  188.0780  178.3460  148.2530 C   0  0  0  0  0  2  0  0  0  0  0  0
  189.9810  176.7800  147.2140 C   0  0  0  0  0  2  0  0  0  0  0  0
  190.7660  176.9950  145.9310 C   0  0  0  0  0  1  0  0  0  0  0  0
  1 17  2  0  0  0  0
  2 13  1  0  0  0  0
  3 10  2  0  0  0  0
  4 15  1  0  0  0  0
  4 11  1  0  0  0  0
  5 15  2  0  0  0  0
  6  9  1  0  0  0  0
  6  1  1  0  0  0  0
  8 10  1  0  0  0  0
  8  2  2  0  0  0  0
  9  8  1  0  0  0  0
 10  7  1  0  0  0  0
 11 30  1  0  0  0  0
 12 16  1  6  0  0  0
 12  1  1  0  0  0  0
 12  5  1  0  0  0  0
 13 11  2  0  0  0  0
 14  9  2  0  0  0  0
 14  3  1  0  0  0  0
 17  2  1  0  0  0  0
 17  4  1  0  0  0  0
 18 12  1  0  0  0  0
 19 28  1  6  0  0  0
 19 21  1  0  0  0  0
 19 18  1  0  0  0  0
 20 22  1  0  0  0  0
 21 23  2  0  0  0  0
 22 24  2  0  0  0  0
 23 24  1  0  0  0  0
 25 20  2  0  0  0  0
 25 21  1  0  0  0  0
 26 29  1  0  0  0  0
 26 28  1  0  0  0  0
 27 26  2  0  0  0  0
 30 32  1  0  0  0  0
 31 35  1  0  0  0  0
 32 31  2  0  0  0  0
 33 36  1  0  0  0  0
 33 35  1  0  0  0  0
 34 32  1  0  0  0  0
 34 33  2  0  0  0  0
 37 36  1  0  0  0  0
M  END
>  <MODEL>
2

>  <REMARK>
 VINA RESULT:      -8.7      3.613      7.000
  Name = 
  7 active torsions:
  status: ('A' for Active; 'I' for Inactive)
    1  A    between atoms: C_5  and  C_6
    2  A    between atoms: C_6  and  O_19
    3  A    between atoms: C_6  and  N_36
    4  A    between atoms: C_8  and  C_13
    5  A    between atoms: C_11  and  C_22
    6  A    between atoms: O_19  and  C_28
    7  A    between atoms: C_22  and  C_27
                            x       y       z     vdW  Elec       q    Type
                         _______ _______ _______ _____ _____    ______ ____

>  <TORSDO>
F 7

$$$$
=
 OpenBabel10222421173D

 37 42  0  0  1  0  0  0  0  0999 V2000
  187.7100  177.8250  140.5450 C   0  0  0  0  0  0  0  0  0  0  0  0
  186.7130  177.9210  138.2470 C   0  0  0  0  0  0  0  0  0  0  0  0
  189.1870  176.3610  136.0950 N   0  0  0  0  0  0  0  0  0  0  0  0
  185.5710  178.7390  139.9740 N   0  0  0  0  0  0  0  0  0  0  0  0
  186.1490  178.7810  142.2910 C   0  0  0  0  0  3  0  0  0  0  0  0
  189.1070  177.0420  139.9290 S   0  0  0  0  0  0  0  0  0  0  0  0
  187.0840  177.2250  135.1940 N   0  0  0  0  0  1  0  0  0  0  0  0
  187.7760  177.3010  137.5790 C   0  0  0  0  0  0  0  0  0  0  0  0
  188.9560  176.8350  138.2530 C   0  0  0  0  0  0  0  0  0  0  0  0
  187.9900  176.9750  136.2620 C   0  0  0  0  0  0  0  0  0  0  0  0
  184.8350  178.8910  138.8520 C   0  0  0  0  0  0  0  0  0  0  0  0
  187.5510  178.2200  142.0040 C   0  0  2  0  0  0  0  0  0  0  0  0
  185.5140  178.4010  137.7350 C   0  0  0  0  0  3  0  0  0  0  0  0
  189.7890  176.2700  137.3120 C   0  0  0  0  0  3  0  0  0  0  0  0
  185.2440  179.0370  141.3340 C   0  0  0  0  0  3  0  0  0  0  0  0
  188.5720  179.3230  142.2770 C   0  0  0  0  0  1  0  0  0  0  0  0
  186.7110  178.1520  139.6160 C   0  0  0  0  0  0  0  0  0  0  0  0
  187.8170  177.0680  142.7900 O   0  0  0  0  0  0  0  0  0  0  0  0
  188.8290  177.3330  143.7360 C   0  0  1  0  0  3  0  0  0  0  0  0
  188.4970  177.9090  147.4650 C   0  0  0  0  0  3  0  0  0  0  0  0
  188.2160  177.5340  145.0850 C   0  0  0  0  0  0  0  0  0  0  0  0
  187.1070  177.9660  147.6220 C   0  0  0  0  0  3  0  0  0  0  0  0
  186.8230  177.6010  145.2430 C   0  0  0  0  0  3  0  0  0  0  0  0
  186.2710  177.8120  146.5110 C   0  0  0  0  0  3  0  0  0  0  0  0
  189.0490  177.6950  146.1980 C   0  0  0  0  0  3  0  0  0  0  0  0
  191.2000  176.4250  143.7490 C   0  0  0  0  0  0  0  0  0  0  0  0
  191.9830  175.4030  143.8290 N   0  0  0  0  0  2  0  0  0  0  0  0
  189.7850  176.2280  143.7600 N   0  0  0  0  0  2  0  0  0  0  0  0
  191.7890  177.7890  143.6130 C   0  0  0  0  0  1  0  0  0  0  0  0
  183.4930  179.5440  138.8080 C   0  0  0  0  0  2  0  0  0  0  0  0
  182.3330  177.4080  139.0380 N   0  0  0  0  0  0  0  0  0  0  0  0
  182.4640  178.6420  139.3950 C   0  0  0  0  0  0  0  0  0  0  0  0
  180.8770  177.9180  140.7540 C   0  0  0  0  0  0  0  0  0  0  0  0
  181.5770  179.0100  140.4830 C   0  0  0  0  0  3  0  0  0  0  0  0
  181.2910  176.7980  139.8520 C   0  0  0  0  0  2  0  0  0  0  0  0
  179.8450  177.8560  141.8380 C   0  0  0  0  0  2  0  0  0  0  0  0
  180.3100  178.5400  143.1120 C   0  0  0  0  0  1  0  0  0  0  0  0
  1 12  1  0  0  0  0
  2 17  1  0  0  0  0
  3 10  2  0  0  0  0
  3 14  1  0  0  0  0
  4 15  1  0  0  0  0
  6  1  1  0  0  0  0
  7 10  1  0  0  0  0
  8  2  2  0  0  0  0
  8  9  1  0  0  0  0
  9  6  1  0  0  0  0
 10  8  1  0  0  0  0
 11  4  1  0  0  0  0
 12 16  1  1  0  0  0
 12  5  1  0  0  0  0
 12 18  1  0  0  0  0
 13  2  1  0  0  0  0
 13 11  2  0  0  0  0
 14  9  2  0  0  0  0
 15  5  2  0  0  0  0
 17  4  1  0  0  0  0
 17  1  2  0  0  0  0
 19 18  1  6  0  0  0
 19 28  1  0  0  0  0
 19 21  1  0  0  0  0
 20 22  1  0  0  0  0
 21 23  2  0  0  0  0
 21 25  1  0  0  0  0
 23 24  1  0  0  0  0
 24 22  2  0  0  0  0
 25 20  2  0  0  0  0
 26 28  1  0  0  0  0
 26 27  2  0  0  0  0
 29 26  1  0  0  0  0
 30 11  1  0  0  0  0
 30 32  1  0  0  0  0
 31 32  2  0  0  0  0
 31 35  1  0  0  0  0
 32 34  1  0  0  0  0
 33 36  1  0  0  0  0
 34 33  2  0  0  0  0
 35 33  1  0  0  0  0
 36 37  1  0  0  0  0
M  END
>  <MODEL>
3

>  <REMARK>
 VINA RESULT:      -8.6      2.611      8.252
  Name = 
  7 active torsions:
  status: ('A' for Active; 'I' for Inactive)
    1  A    between atoms: C_5  and  C_6
    2  A    between atoms: C_6  and  O_19
    3  A    between atoms: C_6  and  N_36
    4  A    between atoms: C_8  and  C_13
    5  A    between atoms: C_11  and  C_22
    6  A    between atoms: O_19  and  C_28
    7  A    between atoms: C_22  and  C_27
                            x       y       z     vdW  Elec       q    Type
                         _______ _______ _______ _____ _____    ______ ____

>  <TORSDO>
F 7

$$$$
=
 OpenBabel10222421173D

 37 42  0  0  1  0  0  0  0  0999 V2000
  188.9790  177.5560  140.1990 C   0  0  0  0  0  0  0  0  0  0  0  0
  189.2410  177.1660  137.7370 C   0  0  0  0  0  0  0  0  0  0  0  0
  192.6410  175.9530  137.3450 N   0  0  0  0  0  0  0  0  0  0  0  0
  187.2960  177.9060  138.5310 N   0  0  0  0  0  0  0  0  0  0  0  0
  186.6460  178.3390  140.7880 C   0  0  0  0  0  3  0  0  0  0  0  0
  190.5900  177.0350  140.4750 S   0  0  0  0  0  0  0  0  0  0  0  0
  191.1580  176.2240  135.4190 N   0  0  0  0  0  1  0  0  0  0  0  0
  190.5680  176.7240  137.7800 C   0  0  0  0  0  0  0  0  0  0  0  0
  191.3140  176.6090  139.0020 C   0  0  0  0  0  0  0  0  0  0  0  0
  191.4450  176.3040  136.8090 C   0  0  0  0  0  0  0  0  0  0  0  0
  187.1960  177.7620  137.1920 C   0  0  0  0  0  0  0  0  0  0  0  0
  188.0700  178.0710  141.3030 C   0  0  2  0  0  0  0  0  0  0  0  0
  188.3960  177.3090  136.6420 C   0  0  0  0  0  3  0  0  0  0  0  0
  192.5700  176.1370  138.6910 C   0  0  0  0  0  3  0  0  0  0  0  0
  186.3040  178.2780  139.4910 C   0  0  0  0  0  3  0  0  0  0  0  0
  188.6610  179.3950  141.7820 C   0  0  0  0  0  1  0  0  0  0  0  0
  188.5320  177.5470  138.8700 C   0  0  0  0  0  0  0  0  0  0  0  0
  188.0680  177.1030  142.3430 O   0  0  0  0  0  0  0  0  0  0  0  0
  188.6050  177.6460  143.5280 C   0  0  1  0  0  3  0  0  0  0  0  0
  186.8280  177.9570  146.8590 C   0  0  0  0  0  3  0  0  0  0  0  0
  187.5150  177.8270  144.5370 C   0  0  0  0  0  0  0  0  0  0  0  0
  185.5120  178.2150  146.4570 C   0  0  0  0  0  3  0  0  0  0  0  0
  186.1970  178.0950  144.1350 C   0  0  0  0  0  3  0  0  0  0  0  0
  185.1980  178.2840  145.0950 C   0  0  0  0  0  3  0  0  0  0  0  0
  187.8270  177.7650  145.9000 C   0  0  0  0  0  3  0  0  0  0  0  0
  190.9780  177.2130  144.3210 C   0  0  0  0  0  0  0  0  0  0  0  0
  191.8320  176.3910  144.8300 N   0  0  0  0  0  2  0  0  0  0  0  0
  189.6490  176.7640  144.0470 N   0  0  0  0  0  2  0  0  0  0  0  0
  191.4060  178.6050  143.9970 C   0  0  0  0  0  1  0  0  0  0  0  0
  185.9740  178.0940  136.4000 C   0  0  0  0  0  2  0  0  0  0  0  0
  185.0080  176.5180  134.8050 N   0  0  0  0  0  0  0  0  0  0  0  0
  185.2490  176.8480  136.0290 C   0  0  1  0  0  3  0  0  0  0  0  0
  184.2900  174.8670  136.2470 C   0  0  0  0  0  0  0  0  0  0  0  0
  184.8260  175.8340  136.9780 C   0  0  0  0  0  3  0  0  0  0  0  0
  184.3520  175.2190  134.7940 C   0  0  0  0  0  3  0  0  0  0  0  0
  183.7370  173.6070  136.8380 C   0  0  0  0  0  2  0  0  0  0  0  0
  184.7730  172.8540  137.6560 C   0  0  0  0  0  1  0  0  0  0  0  0
  1  6  1  0  0  0  0
  1 12  1  0  0  0  0
  2  8  2  0  0  0  0
  2 17  1  0  0  0  0
  3 14  1  0  0  0  0
  4 17  1  0  0  0  0
  4 15  1  0  0  0  0
  5 12  1  0  0  0  0
  7 10  1  0  0  0  0
  8  9  1  0  0  0  0
  9  6  1  0  0  0  0
 10  3  2  0  0  0  0
 10  8  1  0  0  0  0
 11  4  1  0  0  0  0
 12 16  1  1  0  0  0
 12 18  1  0  0  0  0
 13 11  2  0  0  0  0
 13  2  1  0  0  0  0
 14  9  2  0  0  0  0
 15  5  2  0  0  0  0
 17  1  2  0  0  0  0
 19 18  1  6  0  0  0
 19 28  1  0  0  0  0
 19 21  1  0  0  0  0
 21 25  1  0  0  0  0
 22 20  1  0  0  0  0
 23 21  2  0  0  0  0
 23 24  1  0  0  0  0
 24 22  2  0  0  0  0
 25 20  2  0  0  0  0
 26 27  2  0  0  0  0
 28 26  1  0  0  0  0
 29 26  1  0  0  0  0
 30 11  1  0  0  0  0
 31 32  1  0  0  0  0
 32 30  1  6  0  0  0
 32 34  1  0  0  0  0
 33 36  1  0  0  0  0
 33 34  2  0  0  0  0
 35 31  2  0  0  0  0
 35 33  1  0  0  0  0
 36 37  1  0  0  0  0
M  END
>  <MODEL>
4

>  <REMARK>
 VINA RESULT:      -8.6      2.350      8.701
  Name = 
  7 active torsions:
  status: ('A' for Active; 'I' for Inactive)
    1  A    between atoms: C_5  and  C_6
    2  A    between atoms: C_6  and  O_19
    3  A    between atoms: C_6  and  N_36
    4  A    between atoms: C_8  and  C_13
    5  A    between atoms: C_11  and  C_22
    6  A    between atoms: O_19  and  C_28
    7  A    between atoms: C_22  and  C_27
                            x       y       z     vdW  Elec       q    Type
                         _______ _______ _______ _____ _____    ______ ____

>  <TORSDO>
F 7

$$$$
=
 OpenBabel10222421173D

 37 42  0  0  1  0  0  0  0  0999 V2000
  184.3050  178.6230  140.0770 C   0  0  0  0  0  0  0  0  0  0  0  0
  186.1100  178.4380  141.8060 C   0  0  0  0  0  0  0  0  0  0  0  0
  189.1920  178.1610  139.9060 N   0  0  0  0  0  0  0  0  0  0  0  0
  183.9900  178.6560  142.4510 N   0  0  0  0  0  0  0  0  0  0  0  0
  182.0210  178.9150  141.1250 C   0  0  0  0  0  3  0  0  0  0  0  0
  185.4690  178.5260  138.8210 S   0  0  0  0  0  0  0  0  0  0  0  0
  189.2010  178.1420  142.3520 N   0  0  0  0  0  1  0  0  0  0  0  0
  187.1840  178.3370  140.9140 C   0  0  0  0  0  0  0  0  0  0  0  0
  187.0200  178.3720  139.4880 C   0  0  0  0  0  0  0  0  0  0  0  0
  188.5400  178.2070  141.0940 C   0  0  0  0  0  0  0  0  0  0  0  0
  184.7760  178.5870  143.5470 C   0  0  0  0  0  0  0  0  0  0  0  0
  182.8090  178.7030  139.8220 C   0  0  2  0  0  0  0  0  0  0  0  0
  186.1190  178.4380  143.1960 C   0  0  0  0  0  3  0  0  0  0  0  0
  188.2670  178.2610  138.9130 C   0  0  0  0  0  3  0  0  0  0  0  0
  182.5810  178.8710  142.3440 C   0  0  0  0  0  3  0  0  0  0  0  0
  182.3890  177.3610  139.2250 C   0  0  0  0  0  1  0  0  0  0  0  0
  184.7910  178.5670  141.3920 C   0  0  0  0  0  0  0  0  0  0  0  0
  182.5860  179.7650  138.9060 O   0  0  0  0  0  0  0  0  0  0  0  0
  181.3310  179.6260  138.2790 C   0  0  1  0  0  3  0  0  0  0  0  0
  178.9320  182.2840  139.5150 C   0  0  0  0  0  3  0  0  0  0  0  0
  180.5760  180.9140  138.3750 C   0  0  0  0  0  0  0  0  0  0  0  0
  179.1810  183.3310  138.6200 C   0  0  0  0  0  3  0  0  0  0  0  0
  180.8320  181.9680  137.4840 C   0  0  0  0  0  3  0  0  0  0  0  0
  180.1310  183.1730  137.6050 C   0  0  0  0  0  3  0  0  0  0  0  0
  179.6300  181.0790  139.3920 C   0  0  0  0  0  3  0  0  0  0  0  0
  180.5980  178.3950  136.1830 C   0  0  0  0  0  0  0  0  0  0  0  0
  180.7980  178.1400  134.9340 N   0  0  0  0  0  2  0  0  0  0  0  0
  181.5160  179.2380  136.8820 N   0  0  0  0  0  2  0  0  0  0  0  0
  179.4320  177.7780  136.8780 C   0  0  0  0  0  1  0  0  0  0  0  0
  184.2660  178.6140  144.9510 C   0  0  0  0  0  2  0  0  0  0  0  0
  185.5080  179.3840  146.9070 N   0  0  0  0  0  0  0  0  0  0  0  0
  185.4030  178.5700  145.9110 C   0  0  0  0  0  0  0  0  0  0  0  0
  187.2160  177.8330  146.9400 C   0  0  0  0  0  0  0  0  0  0  0  0
  186.4500  177.5640  145.8930 C   0  0  0  0  0  3  0  0  0  0  0  0
  186.6890  179.0230  147.6780 C   0  0  0  0  0  2  0  0  0  0  0  0
  188.4160  177.0150  147.3070 C   0  0  0  0  0  2  0  0  0  0  0  0
  189.6600  177.4530  146.5510 C   0  0  0  0  0  1  0  0  0  0  0  0
  1 17  2  0  0  0  0
  2 13  1  0  0  0  0
  3 10  2  0  0  0  0
  4 11  1  0  0  0  0
  5 15  2  0  0  0  0
  6  9  1  0  0  0  0
  6  1  1  0  0  0  0
  8 10  1  0  0  0  0
  8  2  2  0  0  0  0
  9  8  1  0  0  0  0
 10  7  1  0  0  0  0
 11 30  1  0  0  0  0
 12 16  1  6  0  0  0
 12  1  1  0  0  0  0
 12  5  1  0  0  0  0
 13 11  2  0  0  0  0
 14  9  2  0  0  0  0
 14  3  1  0  0  0  0
 15  4  1  0  0  0  0
 17  2  1  0  0  0  0
 17  4  1  0  0  0  0
 18 12  1  0  0  0  0
 19 28  1  6  0  0  0
 19 21  1  0  0  0  0
 19 18  1  0  0  0  0
 21 25  2  0  0  0  0
 22 20  2  0  0  0  0
 23 24  2  0  0  0  0
 23 21  1  0  0  0  0
 24 22  1  0  0  0  0
 25 20  1  0  0  0  0
 26 29  1  0  0  0  0
 26 28  1  0  0  0  0
 27 26  2  0  0  0  0
 30 32  1  0  0  0  0
 31 35  1  0  0  0  0
 32 31  2  0  0  0  0
 33 36  1  0  0  0  0
 33 35  1  0  0  0  0
 34 32  1  0  0  0  0
 34 33  2  0  0  0  0
 37 36  1  0  0  0  0
M  END
>  <MODEL>
5

>  <REMARK>
 VINA RESULT:      -8.6      4.159      7.410
  Name = 
  7 active torsions:
  status: ('A' for Active; 'I' for Inactive)
    1  A    between atoms: C_5  and  C_6
    2  A    between atoms: C_6  and  O_19
    3  A    between atoms: C_6  and  N_36
    4  A    between atoms: C_8  and  C_13
    5  A    between atoms: C_11  and  C_22
    6  A    between atoms: O_19  and  C_28
    7  A    between atoms: C_22  and  C_27
                            x       y       z     vdW  Elec       q    Type
                         _______ _______ _______ _____ _____    ______ ____

>  <TORSDO>
F 7

$$$$
=
 OpenBabel10222421173D

 37 42  0  0  1  0  0  0  0  0999 V2000
  188.0560  177.7200  140.2800 C   0  0  0  0  0  0  0  0  0  0  0  0
  187.8400  177.8320  142.7740 C   0  0  0  0  0  0  0  0  0  0  0  0
  184.3990  178.8310  143.3660 N   0  0  0  0  0  0  0  0  0  0  0  0
  189.7820  177.2340  141.8660 N   0  0  0  0  0  0  0  0  0  0  0  0
  190.3600  176.9580  139.5650 C   0  0  0  0  0  3  0  0  0  0  0  0
  186.4140  178.1840  140.0960 S   0  0  0  0  0  0  0  0  0  0  0  0
  185.9410  178.4240  145.2210 N   0  0  0  0  0  1  0  0  0  0  0  0
  186.4970  178.2250  142.8070 C   0  0  0  0  0  0  0  0  0  0  0  0
  185.7110  178.4190  141.6210 C   0  0  0  0  0  0  0  0  0  0  0  0
  185.6260  178.4950  143.8360 C   0  0  0  0  0  0  0  0  0  0  0  0
  189.9030  177.2120  143.2110 C   0  0  0  0  0  0  0  0  0  0  0  0
  188.9930  177.4940  139.1060 C   0  0  2  0  0  0  0  0  0  0  0  0
  188.7110  177.5910  143.8300 C   0  0  0  0  0  3  0  0  0  0  0  0
  184.4410  178.7880  142.0070 C   0  0  0  0  0  3  0  0  0  0  0  0
  190.7210  176.8610  140.8540 C   0  0  0  0  0  3  0  0  0  0  0  0
  189.2130  178.8540  138.4460 C   0  0  0  0  0  1  0  0  0  0  0  0
  188.5350  177.6090  141.5930 C   0  0  0  0  0  0  0  0  0  0  0  0
  188.3570  176.5890  138.2170 O   0  0  0  0  0  0  0  0  0  0  0  0
  188.8570  176.7410  136.9080 C   0  0  1  0  0  3  0  0  0  0  0  0
  190.7670  173.4760  136.7100 C   0  0  0  0  0  3  0  0  0  0  0  0
  189.9660  175.7650  136.6760 C   0  0  0  0  0  0  0  0  0  0  0  0
  192.0010  173.8980  136.2030 C   0  0  0  0  0  3  0  0  0  0  0  0
  191.2010  176.1850  136.1580 C   0  0  0  0  0  3  0  0  0  0  0  0
  192.2170  175.2520  135.9270 C   0  0  0  0  0  3  0  0  0  0  0  0
  189.7510  174.4080  136.9440 C   0  0  0  0  0  3  0  0  0  0  0  0
  186.8860  177.5840  135.5460 C   0  0  0  0  0  0  0  0  0  0  0  0
  185.9950  177.3470  134.6440 N   0  0  0  0  0  2  0  0  0  0  0  0
  187.7800  176.5410  135.9400 N   0  0  0  0  0  2  0  0  0  0  0  0
  186.9430  178.9310  136.1820 C   0  0  0  0  0  1  0  0  0  0  0  0
  191.1650  176.8740  143.9370 C   0  0  0  0  0  2  0  0  0  0  0  0
  191.7090  176.2970  146.2460 N   0  0  0  0  0  0  0  0  0  0  0  0
  190.9310  176.8940  145.4070 C   0  0  0  0  0  0  0  0  0  0  0  0
  190.0570  177.4610  147.3570 C   0  0  0  0  0  0  0  0  0  0  0  0
  189.8780  177.6520  146.0580 C   0  0  0  0  0  3  0  0  0  0  0  0
  191.2370  176.5730  147.5950 C   0  0  0  0  0  2  0  0  0  0  0  0
  189.1870  178.0890  148.4030 C   0  0  0  0  0  2  0  0  0  0  0  0
  187.7150  177.7770  148.1870 C   0  0  0  0  0  1  0  0  0  0  0  0
  1 17  2  0  0  0  0
  2  8  2  0  0  0  0
  2 13  1  0  0  0  0
  3 10  2  0  0  0  0
  4 11  1  0  0  0  0
  5 15  2  0  0  0  0
  6  1  1  0  0  0  0
  6  9  1  0  0  0  0
  8 10  1  0  0  0  0
  9 14  2  0  0  0  0
  9  8  1  0  0  0  0
 10  7  1  0  0  0  0
 11 13  2  0  0  0  0
 11 30  1  0  0  0  0
 12 16  1  6  0  0  0
 12  5  1  0  0  0  0
 12  1  1  0  0  0  0
 14  3  1  0  0  0  0
 15  4  1  0  0  0  0
 17  4  1  0  0  0  0
 17  2  1  0  0  0  0
 18 12  1  0  0  0  0
 19 28  1  6  0  0  0
 19 18  1  0  0  0  0
 20 25  1  0  0  0  0
 21 19  1  0  0  0  0
 21 25  2  0  0  0  0
 22 20  2  0  0  0  0
 23 21  1  0  0  0  0
 24 23  2  0  0  0  0
 24 22  1  0  0  0  0
 26 28  1  0  0  0  0
 26 29  1  0  0  0  0
 27 26  2  0  0  0  0
 30 32  1  0  0  0  0
 31 35  1  0  0  0  0
 32 34  1  0  0  0  0
 32 31  2  0  0  0  0
 33 35  1  0  0  0  0
 33 36  1  0  0  0  0
 34 33  2  0  0  0  0
 37 36  1  0  0  0  0
M  END
>  <MODEL>
6

>  <REMARK>
 VINA RESULT:      -8.4      1.419      2.360
  Name = 
  7 active torsions:
  status: ('A' for Active; 'I' for Inactive)
    1  A    between atoms: C_5  and  C_6
    2  A    between atoms: C_6  and  O_19
    3  A    between atoms: C_6  and  N_36
    4  A    between atoms: C_8  and  C_13
    5  A    between atoms: C_11  and  C_22
    6  A    between atoms: O_19  and  C_28
    7  A    between atoms: C_22  and  C_27
                            x       y       z     vdW  Elec       q    Type
                         _______ _______ _______ _____ _____    ______ ____

>  <TORSDO>
F 7

$$$$
=
 OpenBabel10222421173D

 37 42  0  0  1  0  0  0  0  0999 V2000
  187.5730  178.1160  138.5300 C   0  0  0  0  0  0  0  0  0  0  0  0
  186.7590  178.3480  140.8890 C   0  0  0  0  0  0  0  0  0  0  0  0
  183.2170  179.0850  140.5810 N   0  0  0  0  0  0  0  0  0  0  0  0
  188.8990  177.8650  140.5090 N   0  0  0  0  0  0  0  0  0  0  0  0
  190.0280  177.5120  138.4340 C   0  0  0  0  0  3  0  0  0  0  0  0
  185.9960  178.4300  137.9330 S   0  0  0  0  0  0  0  0  0  0  0  0
  184.2930  178.9130  142.7710 N   0  0  0  0  0  1  0  0  0  0  0  0
  185.4240  178.6280  140.5770 C   0  0  0  0  0  0  0  0  0  0  0  0
  184.9330  178.6880  139.2280 C   0  0  0  0  0  0  0  0  0  0  0  0
  184.3160  178.8800  141.3500 C   0  0  0  0  0  0  0  0  0  0  0  0
  188.6950  177.9280  141.8420 C   0  0  0  0  0  0  0  0  0  0  0  0
  188.7790  177.9050  137.6290 C   0  0  2  0  0  0  0  0  0  0  0  0
  187.3660  178.2390  142.1350 C   0  0  0  0  0  3  0  0  0  0  0  0
  183.5860  178.9710  139.2770 C   0  0  0  0  0  3  0  0  0  0  0  0
  190.0760  177.5170  139.7760 C   0  0  0  0  0  3  0  0  0  0  0  0
  189.0560  179.2400  136.9400 C   0  0  0  0  0  1  0  0  0  0  0  0
  187.7310  178.1180  139.9240 C   0  0  0  0  0  0  0  0  0  0  0  0
  188.4370  176.9020  136.6850 O   0  0  0  0  0  0  0  0  0  0  0  0
  189.1740  175.7230  136.9220 C   0  0  1  0  0  3  0  0  0  0  0  0
  187.9300  172.1530  136.6920 C   0  0  0  0  0  3  0  0  0  0  0  0
  188.2520  174.5450  136.9230 C   0  0  0  0  0  0  0  0  0  0  0  0
  186.5670  172.3070  136.9710 C   0  0  0  0  0  3  0  0  0  0  0  0
  186.8870  174.6970  137.2130 C   0  0  0  0  0  3  0  0  0  0  0  0
  186.0470  173.5790  137.2320 C   0  0  0  0  0  3  0  0  0  0  0  0
  188.7700  173.2700  136.6700 C   0  0  0  0  0  3  0  0  0  0  0  0
  191.5240  175.1030  136.1890 C   0  0  0  0  0  0  0  0  0  0  0  0
  192.3660  174.9410  135.2250 N   0  0  0  0  0  2  0  0  0  0  0  0
  190.2060  175.5710  135.8980 N   0  0  0  0  0  2  0  0  0  0  0  0
  191.9560  174.8310  137.5910 C   0  0  0  0  0  1  0  0  0  0  0  0
  189.7660  177.7380  142.8670 C   0  0  0  0  0  2  0  0  0  0  0  0
  187.9250  177.4660  144.4480 N   0  0  0  0  0  0  0  0  0  0  0  0
  189.1720  177.7220  144.2320 C   0  0  0  0  0  0  0  0  0  0  0  0
  189.0560  177.7390  146.4400 C   0  0  0  0  0  0  0  0  0  0  0  0
  189.9320  177.8900  145.4570 C   0  0  0  0  0  3  0  0  0  0  0  0
  187.6950  177.4610  145.8850 C   0  0  0  0  0  2  0  0  0  0  0  0
  189.4300  177.8190  147.8880 C   0  0  0  0  0  2  0  0  0  0  0  0
  188.2630  178.2530  148.7590 C   0  0  0  0  0  1  0  0  0  0  0  0
  1 17  2  0  0  0  0
  2 13  1  0  0  0  0
  3 10  2  0  0  0  0
  4 11  1  0  0  0  0
  5 15  2  0  0  0  0
  6  1  1  0  0  0  0
  6  9  1  0  0  0  0
  8  2  2  0  0  0  0
  8 10  1  0  0  0  0
  9 14  2  0  0  0  0
  9  8  1  0  0  0  0
 10  7  1  0  0  0  0
 11 13  2  0  0  0  0
 11 30  1  0  0  0  0
 12 16  1  6  0  0  0
 12  5  1  0  0  0  0
 12  1  1  0  0  0  0
 14  3  1  0  0  0  0
 15  4  1  0  0  0  0
 17  4  1  0  0  0  0
 17  2  1  0  0  0  0
 18 19  1  0  0  0  0
 18 12  1  0  0  0  0
 19 28  1  6  0  0  0
 19 21  1  0  0  0  0
 20 22  1  0  0  0  0
 21 23  2  0  0  0  0
 22 24  2  0  0  0  0
 23 24  1  0  0  0  0
 25 20  2  0  0  0  0
 25 21  1  0  0  0  0
 26 29  1  0  0  0  0
 27 26  2  0  0  0  0
 28 26  1  0  0  0  0
 30 32  1  0  0  0  0
 31 35  1  0  0  0  0
 32 31  2  0  0  0  0
 32 34  1  0  0  0  0
 33 36  1  0  0  0  0
 34 33  2  0  0  0  0
 35 33  1  0  0  0  0
 36 37  1  0  0  0  0
M  END
>  <MODEL>
7

>  <REMARK>
 VINA RESULT:      -8.4      1.395      2.040
  Name = 
  7 active torsions:
  status: ('A' for Active; 'I' for Inactive)
    1  A    between atoms: C_5  and  C_6
    2  A    between atoms: C_6  and  O_19
    3  A    between atoms: C_6  and  N_36
    4  A    between atoms: C_8  and  C_13
    5  A    between atoms: C_11  and  C_22
    6  A    between atoms: O_19  and  C_28
    7  A    between atoms: C_22  and  C_27
                            x       y       z     vdW  Elec       q    Type
                         _______ _______ _______ _____ _____    ______ ____

>  <TORSDO>
F 7

$$$$
=
 OpenBabel10222421173D

 37 42  0  0  1  0  0  0  0  0999 V2000
  186.7130  178.2820  140.8700 C   0  0  0  0  0  0  0  0  0  0  0  0
  185.8880  178.2490  138.5030 C   0  0  0  0  0  0  0  0  0  0  0  0
  188.8960  178.1540  136.4720 N   0  0  0  0  0  0  0  0  0  0  0  0
  184.4210  178.2870  140.1770 N   0  0  0  0  0  0  0  0  0  0  0  0
  184.8080  178.2670  142.5340 C   0  0  0  0  0  3  0  0  0  0  0  0
  188.3400  178.2390  140.3250 S   0  0  0  0  0  0  0  0  0  0  0  0
  186.6730  178.1710  135.4510 N   0  0  0  0  0  1  0  0  0  0  0  0
  187.1460  178.2210  137.8890 C   0  0  0  0  0  0  0  0  0  0  0  0
  188.3760  178.2050  138.6310 C   0  0  0  0  0  0  0  0  0  0  0  0
  187.5440  178.1870  136.5750 C   0  0  0  0  0  0  0  0  0  0  0  0
  183.7480  178.2620  139.0060 C   0  0  0  0  0  0  0  0  0  0  0  0
  186.3280  178.3830  142.3360 C   0  0  2  0  0  0  0  0  0  0  0  0
  184.6250  178.2480  137.9210 C   0  0  0  0  0  3  0  0  0  0  0  0
  189.4160  178.1660  137.7280 C   0  0  0  0  0  3  0  0  0  0  0  0
  183.9290  178.2440  141.5190 C   0  0  0  0  0  3  0  0  0  0  0  0
  186.7670  179.7650  142.8150 C   0  0  0  0  0  1  0  0  0  0  0  0
  185.7180  178.2800  139.8810 C   0  0  0  0  0  0  0  0  0  0  0  0
  187.0180  177.3550  143.0320 O   0  0  0  0  0  0  0  0  0  0  0  0
  188.1390  177.8780  143.7090 C   0  0  1  0  0  3  0  0  0  0  0  0
  188.7700  177.2780  147.3960 C   0  0  0  0  0  3  0  0  0  0  0  0
  187.9160  177.7980  145.1860 C   0  0  0  0  0  0  0  0  0  0  0  0
  187.5570  177.6850  147.9620 C   0  0  0  0  0  3  0  0  0  0  0  0
  186.7040  178.2150  145.7570 C   0  0  0  0  0  3  0  0  0  0  0  0
  186.5250  178.1540  147.1430 C   0  0  0  0  0  3  0  0  0  0  0  0
  188.9490  177.3360  146.0100 C   0  0  0  0  0  3  0  0  0  0  0  0
  190.6410  177.7250  143.3090 C   0  0  0  0  0  0  0  0  0  0  0  0
  191.6620  176.9940  143.0130 N   0  0  0  0  0  2  0  0  0  0  0  0
  189.3390  177.1380  143.3260 N   0  0  0  0  0  2  0  0  0  0  0  0
  190.8380  179.1760  143.5950 C   0  0  0  0  0  1  0  0  0  0  0  0
  182.2590  178.2960  138.8910 C   0  0  0  0  0  2  0  0  0  0  0  0
  182.0390  180.7220  139.0540 N   0  0  0  0  0  0  0  0  0  0  0  0
  181.8130  179.6310  138.4040 C   0  0  1  0  0  3  0  0  0  0  0  0
  181.0070  181.1740  137.0410 C   0  0  0  0  0  0  0  0  0  0  0  0
  181.1740  179.8620  137.1210 C   0  0  0  0  0  3  0  0  0  0  0  0
  181.5370  181.8420  138.2700 C   0  0  0  0  0  3  0  0  0  0  0  0
  180.3900  181.8490  135.8540 C   0  0  0  0  0  2  0  0  0  0  0  0
  180.5630  183.3570  135.8990 C   0  0  0  0  0  1  0  0  0  0  0  0
  1 12  1  0  0  0  0
  2 17  1  0  0  0  0
  3 10  2  0  0  0  0
  3 14  1  0  0  0  0
  4 15  1  0  0  0  0
  6  1  1  0  0  0  0
  7 10  1  0  0  0  0
  8  2  2  0  0  0  0
  8  9  1  0  0  0  0
  9  6  1  0  0  0  0
 10  8  1  0  0  0  0
 11  4  1  0  0  0  0
 12  5  1  0  0  0  0
 12 16  1  1  0  0  0
 12 18  1  0  0  0  0
 13  2  1  0  0  0  0
 13 11  2  0  0  0  0
 14  9  2  0  0  0  0
 15  5  2  0  0  0  0
 17  4  1  0  0  0  0
 17  1  2  0  0  0  0
 19 18  1  6  0  0  0
 19 21  1  0  0  0  0
 20 22  1  0  0  0  0
 21 23  2  0  0  0  0
 21 25  1  0  0  0  0
 23 24  1  0  0  0  0
 24 22  2  0  0  0  0
 25 20  2  0  0  0  0
 26 28  1  0  0  0  0
 26 29  1  0  0  0  0
 27 26  2  0  0  0  0
 28 19  1  0  0  0  0
 30 11  1  0  0  0  0
 32 30  1  6  0  0  0
 32 31  1  0  0  0  0
 33 34  2  0  0  0  0
 33 35  1  0  0  0  0
 34 32  1  0  0  0  0
 35 31  2  0  0  0  0
 36 37  1  0  0  0  0
 36 33  1  0  0  0  0
M  END
>  <MODEL>
8

>  <REMARK>
 VINA RESULT:      -8.0      3.463      9.091
  Name = 
  7 active torsions:
  status: ('A' for Active; 'I' for Inactive)
    1  A    between atoms: C_5  and  C_6
    2  A    between atoms: C_6  and  O_19
    3  A    between atoms: C_6  and  N_36
    4  A    between atoms: C_8  and  C_13
    5  A    between atoms: C_11  and  C_22
    6  A    between atoms: O_19  and  C_28
    7  A    between atoms: C_22  and  C_27
                            x       y       z     vdW  Elec       q    Type
                         _______ _______ _______ _____ _____    ______ ____

>  <TORSDO>
F 7

$$$$
=
 OpenBabel10222421173D

 37 42  0  0  1  0  0  0  0  0999 V2000
  186.8560  177.9830  142.0320 C   0  0  0  0  0  0  0  0  0  0  0  0
  185.7290  178.4340  139.8390 C   0  0  0  0  0  0  0  0  0  0  0  0
  182.2670  179.1150  140.6970 N   0  0  0  0  0  0  0  0  0  0  0  0
  187.9070  177.9740  139.8810 N   0  0  0  0  0  0  0  0  0  0  0  0
  189.3330  177.5510  141.7490 C   0  0  0  0  0  3  0  0  0  0  0  0
  185.3780  178.2330  142.8670 S   0  0  0  0  0  0  0  0  0  0  0  0
  183.0340  179.1640  138.3740 N   0  0  0  0  0  1  0  0  0  0  0  0
  184.4480  178.6610  140.3550 C   0  0  0  0  0  0  0  0  0  0  0  0
  184.1500  178.6040  141.7590 C   0  0  0  0  0  0  0  0  0  0  0  0
  183.2460  178.9790  139.7680 C   0  0  0  0  0  0  0  0  0  0  0  0
  187.5300  178.1900  138.6020 C   0  0  0  0  0  0  0  0  0  0  0  0
  188.1440  177.5700  142.7250 C   0  0  2  0  0  0  0  0  0  0  0  0
  186.1650  178.4730  138.5200 C   0  0  0  0  0  3  0  0  0  0  0  0
  182.8110  178.8860  141.9220 C   0  0  0  0  0  3  0  0  0  0  0  0
  189.2050  177.7210  140.4240 C   0  0  0  0  0  3  0  0  0  0  0  0
  187.9310  176.1500  143.2450 C   0  0  0  0  0  1  0  0  0  0  0  0
  186.8220  178.1200  140.6370 C   0  0  0  0  0  0  0  0  0  0  0  0
  188.3670  178.4790  143.7920 O   0  0  0  0  0  0  0  0  0  0  0  0
  188.0960  177.8670  145.0330 C   0  0  1  0  0  3  0  0  0  0  0  0
  190.5330  176.4220  147.5470 C   0  0  0  0  0  3  0  0  0  0  0  0
  189.3760  177.4160  145.6620 C   0  0  0  0  0  0  0  0  0  0  0  0
  191.7440  176.5100  146.8530 C   0  0  0  0  0  3  0  0  0  0  0  0
  190.5910  177.4950  144.9630 C   0  0  0  0  0  3  0  0  0  0  0  0
  191.7730  177.0460  145.5610 C   0  0  0  0  0  3  0  0  0  0  0  0
  189.3510  176.8730  146.9510 C   0  0  0  0  0  3  0  0  0  0  0  0
  186.1380  178.5070  146.5180 C   0  0  0  0  0  0  0  0  0  0  0  0
  185.6050  179.3650  147.3210 N   0  0  0  0  0  2  0  0  0  0  0  0
  187.3940  178.8070  145.9050 N   0  0  0  0  0  2  0  0  0  0  0  0
  185.4180  177.2360  146.2210 C   0  0  0  0  0  1  0  0  0  0  0  0
  188.4450  178.0880  137.4260 C   0  0  0  0  0  2  0  0  0  0  0  0
  190.0070  176.2300  137.1570 N   0  0  0  0  0  0  0  0  0  0  0  0
  188.7910  176.6630  137.1670 C   0  0  1  0  0  3  0  0  0  0  0  0
  188.5220  174.4890  136.8660 C   0  0  0  0  0  0  0  0  0  0  0  0
  187.8150  175.6020  137.0000 C   0  0  0  0  0  3  0  0  0  0  0  0
  189.9850  174.7900  136.9460 C   0  0  0  0  0  3  0  0  0  0  0  0
  187.8960  173.1400  136.6850 C   0  0  0  0  0  2  0  0  0  0  0  0
  186.4890  173.0800  137.2530 C   0  0  0  0  0  1  0  0  0  0  0  0
  1 12  1  0  0  0  0
  1  6  1  0  0  0  0
  2  8  2  0  0  0  0
  2 17  1  0  0  0  0
  3 14  1  0  0  0  0
  4 15  1  0  0  0  0
  4 17  1  0  0  0  0
  5 12  1  0  0  0  0
  7 10  1  0  0  0  0
  8  9  1  0  0  0  0
  9 14  2  0  0  0  0
  9  6  1  0  0  0  0
 10  8  1  0  0  0  0
 10  3  2  0  0  0  0
 11  4  1  0  0  0  0
 12 16  1  1  0  0  0
 12 18  1  0  0  0  0
 13 11  2  0  0  0  0
 13  2  1  0  0  0  0
 15  5  2  0  0  0  0
 17  1  2  0  0  0  0
 19 18  1  6  0  0  0
 19 21  1  0  0  0  0
 19 28  1  0  0  0  0
 21 25  2  0  0  0  0
 22 20  2  0  0  0  0
 23 24  2  0  0  0  0
 23 21  1  0  0  0  0
 24 22  1  0  0  0  0
 25 20  1  0  0  0  0
 26 27  2  0  0  0  0
 28 26  1  0  0  0  0
 29 26  1  0  0  0  0
 30 11  1  0  0  0  0
 31 32  1  0  0  0  0
 32 30  1  1  0  0  0
 33 35  1  0  0  0  0
 33 34  2  0  0  0  0
 34 32  1  0  0  0  0
 35 31  2  0  0  0  0
 36 33  1  0  0  0  0
 36 37  1  0  0  0  0
M  END
>  <MODEL>
9

>  <REMARK>
 VINA RESULT:      -7.9      2.087      8.071
  Name = 
  7 active torsions:
  status: ('A' for Active; 'I' for Inactive)
    1  A    between atoms: C_5  and  C_6
    2  A    between atoms: C_6  and  O_19
    3  A    between atoms: C_6  and  N_36
    4  A    between atoms: C_8  and  C_13
    5  A    between atoms: C_11  and  C_22
    6  A    between atoms: O_19  and  C_28
    7  A    between atoms: C_22  and  C_27
                            x       y       z     vdW  Elec       q    Type
                         _______ _______ _______ _____ _____    ______ ____

>  <TORSDO>
F 7

$$$$
