=
 OpenBabel10222415593D

 63 70  0  0  1  0  0  0  0  0999 V2000
  184.3670  178.5680  144.0510 N   0  0  0  0  0  0  0  0  0  0  0  0
  186.1460  178.1480  145.8170 C   0  0  2  0  0  3  0  0  0  0  0  0
  185.0470  179.0540  145.2610 C   0  0  2  0  0  3  0  0  0  0  0  0
  185.2880  177.8470  147.0280 C   0  0  1  0  0  3  0  0  0  0  0  0
  186.5540  178.6690  147.1860 C   0  0  1  0  0  3  0  0  0  0  0  0
  184.1890  178.7380  146.4700 C   0  0  0  0  0  2  0  0  0  0  0  0
  187.6640  177.8510  147.8640 C   0  0  2  0  0  3  0  0  0  0  0  0
  188.5980  178.7320  148.4210 O   0  0  0  0  0  1  0  0  0  0  0  0
  188.3140  176.9620  146.9870 O   0  0  0  0  0  0  0  0  0  0  0  0
  189.5690  177.5340  146.7440 C   0  0  1  0  0  3  0  0  0  0  0  0
  190.6710  176.5880  147.2550 C   0  0  0  0  0  2  0  0  0  0  0  0
  190.6760  176.8540  143.3820 N   0  0  0  0  0  0  0  0  0  0  0  0
  189.7890  177.6660  145.2840 C   0  0  0  0  0  0  0  0  0  0  0  0
  190.8270  177.0680  144.7780 C   0  0  0  0  0  0  0  0  0  0  0  0
  191.8510  176.1550  145.9000 S   0  0  0  0  0  0  0  0  0  0  0  0
  188.8090  177.4890  141.9440 C   0  0  0  0  0  1  0  0  0  0  0  0
  188.8170  178.0120  144.3030 N   0  0  0  0  0  0  0  0  0  0  0  0
  189.4440  177.5330  143.1130 C   0  0  0  0  0  0  0  0  0  0  0  0
  191.7970  176.6760  142.4700 C   0  0  0  0  0  2  0  0  0  0  0  0
  192.0260  177.8430  141.7460 O   0  0  0  0  0  1  0  0  0  0  0  0
  183.6360  179.7010  143.5060 C   0  0  0  0  0  2  0  0  0  0  0  0
  182.2340  179.7430  144.0910 C   0  0  0  0  0  2  0  0  0  0  0  0
  181.3820  178.6670  143.4430 C   0  0  0  0  0  2  0  0  0  0  0  0
  180.1820  179.2520  142.7590 C   0  0  0  0  0  3  0  0  0  0  0  0
  180.2660  179.8490  141.5720 C   0  0  0  0  0  3  0  0  0  0  0  0
  179.0230  180.3860  140.9380 C   0  0  0  0  0  2  0  0  0  0  0  0
  179.3530  181.5610  140.0370 C   0  0  2  0  0  3  0  0  0  0  0  0
  179.4390  181.0810  138.6340 C   0  0  2  0  0  3  0  0  0  0  0  0
  180.5910  181.3350  139.4000 O   0  0  0  0  0  0  0  0  0  0  0  0
  179.2080  182.1780  137.5890 C   0  0  0  0  0  2  0  0  0  0  0  0
  180.3440  182.4200  136.5940 C   0  0  0  0  0  2  0  0  0  0  0  0
  179.9980  183.5130  135.6980 N   0  0  0  0  0  2  0  0  0  0  0  0
  181.0600  184.5000  135.8230 C   0  0  0  0  0  2  0  0  0  0  0  0
  181.5220  184.5530  137.2600 C   0  0  0  0  0  1  0  0  0  0  0  0
  185.2790  178.1350  142.9890 C   0  0  0  0  0  2  0  0  0  0  0  0
  183.5070  177.3860  141.3860 C   0  0  0  0  0  3  0  0  0  0  0  0
  184.3430  179.2710  139.4860 C   0  0  0  0  0  3  0  0  0  0  0  0
  184.5960  178.2260  141.6630 C   0  0  0  0  0  0  0  0  0  0  0  0
  185.0170  179.1590  140.7040 C   0  0  0  0  0  3  0  0  0  0  0  0
  182.8310  177.4950  140.1650 C   0  0  0  0  0  3  0  0  0  0  0  0
  183.2460  178.4400  139.2170 C   0  0  0  0  0  0  0  0  0  0  0  0
  182.4630  178.6420  137.9620 C   0  0  0  0  0  2  0  0  0  0  0  0
  182.4640  177.4470  137.1330 N   0  0  0  0  0  0  0  0  0  0  0  0
  181.2450  176.6390  137.0910 C   0  0  0  0  0  2  0  0  0  0  0  0
  182.7130  174.7350  137.0970 O   0  0  0  0  0  0  0  0  0  0  0  0
  181.5340  175.2370  136.5170 C   0  0  0  0  0  2  0  0  0  0  0  0
  184.7000  177.6360  136.4560 O   0  0  0  0  0  0  0  0  0  0  0  0
  183.7080  176.8860  136.6920 C   0  0  0  0  0  0  0  0  0  0  0  0
  183.7970  175.3910  136.4690 C   0  0  1  0  0  3  0  0  0  0  0  0
  185.1080  174.8800  137.0740 C   0  0  0  0  0  2  0  0  0  0  0  0
  187.0240  174.9700  135.5180 N   0  0  0  0  0  0  0  0  0  0  0  0
  187.9050  172.5110  136.1640 O   0  0  0  0  0  0  0  0  0  0  0  0
  188.0880  172.8790  134.8790 O   0  0  0  0  0  0  0  0  0  0  0  0
  186.0170  174.0640  136.1250 C   0  0  1  0  0  0  0  0  0  0  0  0
  186.5000  172.5780  137.9920 O   0  0  0  0  0  0  0  0  0  0  0  0
  186.4270  175.7780  134.5960 O   0  0  0  0  0  1  0  0  0  0  0  0
  188.1710  174.2940  134.8570 C   0  0  0  0  0  2  0  0  0  0  0  0
  186.7830  172.9810  136.8340 C   0  0  0  0  0  0  0  0  0  0  0  0
  185.1240  173.4360  135.0240 C   0  0  0  0  0  2  0  0  0  0  0  0
  184.6550  172.0300  135.2950 C   0  0  0  0  0  0  0  0  0  0  0  0
  183.6970  171.8110  136.0890 O   0  0  0  0  0  0  0  0  0  0  0  0
  185.2230  169.7280  135.0140 C   0  0  0  0  0  2  0  0  0  0  0  0
  185.2700  170.9520  134.5940 N   0  0  0  0  0  0  0  0  0  0  0  0
  1  3  1  0  0  0  0
  2  4  1  0  0  0  0
  2  5  1  0  0  0  0
  3  2  1  0  0  0  0
  3  6  1  0  0  0  0
  4  5  1  0  0  0  0
  5  7  1  0  0  0  0
  6  4  1  0  0  0  0
  7  8  1  0  0  0  0
  9  7  1  0  0  0  0
 10  9  1  0  0  0  0
 10 11  1  0  0  0  0
 12 14  1  0  0  0  0
 13 10  1  0  0  0  0
 14 13  2  0  0  0  0
 14 15  1  0  0  0  0
 15 11  1  0  0  0  0
 16 18  1  0  0  0  0
 17 13  1  0  0  0  0
 18 12  1  0  0  0  0
 18 17  2  0  0  0  0
 19 12  1  0  0  0  0
 20 19  1  0  0  0  0
 21  1  1  0  0  0  0
 21 22  1  0  0  0  0
 23 22  1  0  0  0  0
 24 23  1  0  0  0  0
 25 24  2  0  0  0  0
 26 25  1  0  0  0  0
 27 26  1  0  0  0  0
 28 29  1  0  0  0  0
 28 27  1  0  0  0  0
 29 27  1  0  0  0  0
 30 28  1  0  0  0  0
 31 30  1  0  0  0  0
 32 33  1  0  0  0  0
 32 31  1  0  0  0  0
 33 34  1  0  0  0  0
 35  1  1  0  0  0  0
 36 38  1  0  0  0  0
 37 39  1  0  0  0  0
 38 35  1  0  0  0  0
 39 38  2  0  0  0  0
 40 36  2  0  0  0  0
 41 37  2  0  0  0  0
 41 40  1  0  0  0  0
 42 41  1  0  0  0  0
 43 42  1  0  0  0  0
 44 43  1  0  0  0  0
 46 44  1  0  0  0  0
 46 45  1  0  0  0  0
 47 48  2  0  0  0  0
 48 43  1  0  0  0  0
 49 48  1  0  0  0  0
 49 50  1  0  0  0  0
 49 45  1  0  0  0  0
 51 54  1  0  0  0  0
 52 58  1  0  0  0  0
 53 52  1  0  0  0  0
 54 58  1  0  0  0  0
 54 50  1  0  0  0  0
 56 51  1  0  0  0  0
 57 53  1  0  0  0  0
 57 51  1  0  0  0  0
 58 55  2  0  0  0  0
 59 60  1  0  0  0  0
 59 54  1  0  0  0  0
 60 61  2  0  0  0  0
 63 62  2  0  0  0  0
 63 60  1  0  0  0  0
M  END
>  <MODEL>
1

>  <REMARK>
 VINA RESULT:      -6.6      0.000      0.000
  Name = 
  24 active torsions:
  status: ('A' for Active; 'I' for Inactive)
    1  A    between atoms: C_1  and  N_27
    2  A    between atoms: C_1  and  C_48
    3  A    between atoms: C_2  and  N_14
    4  A    between atoms: C_2  and  C_57
    5  A    between atoms: C_3  and  C_4
    6  A    between atoms: C_3  and  N_26
    7  A    between atoms: C_4  and  C_34
    8  A    between atoms: N_6  and  C_12
    9  A    between atoms: N_6  and  C_17
   10  A    between atoms: N_6  and  C_45
   11  A    between atoms: C_7  and  C_56
   12  A    between atoms: C_10  and  O_47
   13  A    between atoms: C_12  and  C_31
   14  A    between atoms: C_13  and  C_25
   15  A    between atoms: C_13  and  C_61
   16  A    between atoms: C_15  and  C_39
   17  A    between atoms: C_15  and  O_47
   18  A    between atoms: N_21  and  C_32
   19  A    between atoms: C_22  and  C_29
   20  A    between atoms: C_23  and  C_29
   21  A    between atoms: C_23  and  C_45
   22  A    between atoms: C_25  and  C_48
   23  A    between atoms: N_26  and  C_43
   24  A    between atoms: C_56  and  C_59
                            x       y       z     vdW  Elec       q    Type
                         _______ _______ _______ _____ _____    ______ ____

>  <TORSDO>
F 24

$$$$
=
 OpenBabel10222415593D

 63 70  0  0  1  0  0  0  0  0999 V2000
  185.2930  178.4230  138.1900 N   0  0  0  0  0  0  0  0  0  0  0  0
  182.8260  177.8500  138.4100 C   0  0  2  0  0  3  0  0  0  0  0  0
  184.1410  177.6900  137.6450 C   0  0  2  0  0  3  0  0  0  0  0  0
  182.9030  176.4030  138.8470 C   0  0  1  0  0  3  0  0  0  0  0  0
  181.8280  176.8390  137.8690 C   0  0  1  0  0  3  0  0  0  0  0  0
  184.2170  176.2450  138.0980 C   0  0  0  0  0  2  0  0  0  0  0  0
  180.4500  176.8920  138.5470 C   0  0  2  0  0  3  0  0  0  0  0  0
  180.1190  175.6100  139.0000 O   0  0  0  0  0  1  0  0  0  0  0  0
  179.4320  177.3740  137.7030 O   0  0  0  0  0  0  0  0  0  0  0  0
  178.9310  178.5150  138.3410 C   0  0  1  0  0  3  0  0  0  0  0  0
  179.5640  178.6420  139.7380 C   0  0  0  0  0  2  0  0  0  0  0  0
  180.7520  181.4630  137.3500 N   0  0  0  0  0  0  0  0  0  0  0  0
  179.3380  179.7300  137.5960 C   0  0  0  0  0  0  0  0  0  0  0  0
  180.0280  180.6240  138.2390 C   0  0  0  0  0  0  0  0  0  0  0  0
  180.4100  180.2730  139.9340 S   0  0  0  0  0  0  0  0  0  0  0  0
  180.7870  181.4150  134.9100 C   0  0  0  0  0  1  0  0  0  0  0  0
  179.4280  179.8740  136.1820 N   0  0  0  0  0  0  0  0  0  0  0  0
  180.2820  181.0140  136.0750 C   0  0  0  0  0  0  0  0  0  0  0  0
  181.2000  182.8050  137.6960 C   0  0  0  0  0  2  0  0  0  0  0  0
  180.1460  183.7100  137.6010 O   0  0  0  0  0  1  0  0  0  0  0  0
  184.8030  179.1690  139.3380 C   0  0  0  0  0  2  0  0  0  0  0  0
  185.6680  178.8780  140.5520 C   0  0  0  0  0  2  0  0  0  0  0  0
  184.9050  179.2290  141.8150 C   0  0  0  0  0  2  0  0  0  0  0  0
  185.4270  178.4760  143.0030 C   0  0  0  0  0  3  0  0  0  0  0  0
  184.9320  178.6530  144.2260 C   0  0  0  0  0  3  0  0  0  0  0  0
  185.4850  177.8480  145.3580 C   0  0  0  0  0  2  0  0  0  0  0  0
  186.8030  178.4330  145.8300 C   0  0  2  0  0  3  0  0  0  0  0  0
  187.8340  177.3650  145.8230 C   0  0  2  0  0  3  0  0  0  0  0  0
  187.2120  177.7840  147.0130 O   0  0  0  0  0  0  0  0  0  0  0  0
  189.2700  177.8900  145.7260 C   0  0  0  0  0  2  0  0  0  0  0  0
  190.0930  177.4010  144.5320 C   0  0  0  0  0  2  0  0  0  0  0  0
  189.4470  177.7930  143.2880 N   0  0  0  0  0  2  0  0  0  0  0  0
  189.4050  176.6020  142.4530 C   0  0  0  0  0  2  0  0  0  0  0  0
  190.1150  176.8820  141.1500 C   0  0  0  0  0  1  0  0  0  0  0  0
  186.3600  177.5590  138.7020 C   0  0  0  0  0  2  0  0  0  0  0  0
  187.2480  177.9730  136.3970 C   0  0  0  0  0  3  0  0  0  0  0  0
  189.5090  176.4000  136.9190 C   0  0  0  0  0  3  0  0  0  0  0  0
  187.3950  177.3480  137.6450 C   0  0  0  0  0  0  0  0  0  0  0  0
  188.5230  176.5520  137.8960 C   0  0  0  0  0  3  0  0  0  0  0  0
  188.2340  177.8200  135.4160 C   0  0  0  0  0  3  0  0  0  0  0  0
  189.3670  177.0360  135.6780 C   0  0  0  0  0  0  0  0  0  0  0  0
  190.4770  176.9600  134.6830 C   0  0  0  0  0  2  0  0  0  0  0  0
  191.0890  175.6400  134.6640 N   0  0  0  0  0  0  0  0  0  0  0  0
  190.2070  174.4750  134.5970 C   0  0  0  0  0  2  0  0  0  0  0  0
  191.7390  173.4420  136.1330 O   0  0  0  0  0  0  0  0  0  0  0  0
  190.9630  173.1890  134.9880 C   0  0  0  0  0  2  0  0  0  0  0  0
  193.2950  176.4040  134.8770 O   0  0  0  0  0  0  0  0  0  0  0  0
  192.4530  175.4800  135.0770 C   0  0  0  0  0  0  0  0  0  0  0  0
  192.8750  174.1730  135.7140 C   0  0  1  0  0  3  0  0  0  0  0  0
  193.7510  174.4780  136.9310 C   0  0  0  0  0  2  0  0  0  0  0  0
  195.0620  172.5170  136.1990 N   0  0  0  0  0  0  0  0  0  0  0  0
  197.3420  173.9170  135.9040 O   0  0  0  0  0  0  0  0  0  0  0  0
  197.4880  172.6430  136.3230 O   0  0  0  0  0  0  0  0  0  0  0  0
  195.1380  173.7940  136.9550 C   0  0  1  0  0  0  0  0  0  0  0  0
  196.0800  175.8420  136.0390 O   0  0  0  0  0  0  0  0  0  0  0  0
  194.3580  171.5950  136.9140 O   0  0  0  0  0  1  0  0  0  0  0  0
  196.3720  171.9140  135.8390 C   0  0  0  0  0  2  0  0  0  0  0  0
  196.2110  174.6190  136.3010 C   0  0  0  0  0  0  0  0  0  0  0  0
  195.5160  173.5220  138.4340 C   0  0  0  0  0  2  0  0  0  0  0  0
  195.8960  174.7380  139.2380 C   0  0  0  0  0  0  0  0  0  0  0  0
  195.0450  175.6360  139.4920 O   0  0  0  0  0  0  0  0  0  0  0  0
  197.4840  175.3990  140.8930 C   0  0  0  0  0  2  0  0  0  0  0  0
  197.2190  174.8320  139.7610 N   0  0  0  0  0  0  0  0  0  0  0  0
  1 35  1  0  0  0  0
  1 21  1  0  0  0  0
  2  4  1  0  0  0  0
  3  6  1  0  0  0  0
  3  1  1  0  0  0  0
  3  2  1  0  0  0  0
  5  2  1  0  0  0  0
  5  7  1  0  0  0  0
  5  4  1  0  0  0  0
  6  4  1  0  0  0  0
  7  8  1  0  0  0  0
  9 10  1  0  0  0  0
  9  7  1  0  0  0  0
 10 11  1  0  0  0  0
 11 15  1  0  0  0  0
 12 19  1  0  0  0  0
 12 14  1  0  0  0  0
 13 14  2  0  0  0  0
 13 10  1  0  0  0  0
 14 15  1  0  0  0  0
 16 18  1  0  0  0  0
 17 13  1  0  0  0  0
 18 17  2  0  0  0  0
 18 12  1  0  0  0  0
 20 19  1  0  0  0  0
 21 22  1  0  0  0  0
 22 23  1  0  0  0  0
 23 24  1  0  0  0  0
 24 25  2  0  0  0  0
 25 26  1  0  0  0  0
 26 27  1  0  0  0  0
 27 29  1  0  0  0  0
 28 27  1  0  0  0  0
 28 29  1  0  0  0  0
 30 28  1  0  0  0  0
 31 30  1  0  0  0  0
 32 31  1  0  0  0  0
 33 32  1  0  0  0  0
 34 33  1  0  0  0  0
 36 38  1  0  0  0  0
 37 39  1  0  0  0  0
 38 39  2  0  0  0  0
 38 35  1  0  0  0  0
 40 41  1  0  0  0  0
 40 36  2  0  0  0  0
 41 37  2  0  0  0  0
 42 41  1  0  0  0  0
 43 42  1  0  0  0  0
 43 48  1  0  0  0  0
 44 43  1  0  0  0  0
 44 46  1  0  0  0  0
 46 45  1  0  0  0  0
 47 48  2  0  0  0  0
 48 49  1  0  0  0  0
 49 45  1  0  0  0  0
 49 50  1  0  0  0  0
 50 54  1  0  0  0  0
 51 56  1  0  0  0  0
 51 54  1  0  0  0  0
 52 58  1  0  0  0  0
 52 53  1  0  0  0  0
 54 59  1  0  0  0  0
 55 58  2  0  0  0  0
 57 51  1  0  0  0  0
 57 53  1  0  0  0  0
 58 54  1  0  0  0  0
 59 60  1  0  0  0  0
 60 61  2  0  0  0  0
 60 63  1  0  0  0  0
 63 62  2  0  0  0  0
M  END
>  <MODEL>
2

>  <REMARK>
 VINA RESULT:      -6.5      4.482     10.301
  Name = 
  24 active torsions:
  status: ('A' for Active; 'I' for Inactive)
    1  A    between atoms: C_1  and  N_27
    2  A    between atoms: C_1  and  C_48
    3  A    between atoms: C_2  and  N_14
    4  A    between atoms: C_2  and  C_57
    5  A    between atoms: C_3  and  C_4
    6  A    between atoms: C_3  and  N_26
    7  A    between atoms: C_4  and  C_34
    8  A    between atoms: N_6  and  C_12
    9  A    between atoms: N_6  and  C_17
   10  A    between atoms: N_6  and  C_45
   11  A    between atoms: C_7  and  C_56
   12  A    between atoms: C_10  and  O_47
   13  A    between atoms: C_12  and  C_31
   14  A    between atoms: C_13  and  C_25
   15  A    between atoms: C_13  and  C_61
   16  A    between atoms: C_15  and  C_39
   17  A    between atoms: C_15  and  O_47
   18  A    between atoms: N_21  and  C_32
   19  A    between atoms: C_22  and  C_29
   20  A    between atoms: C_23  and  C_29
   21  A    between atoms: C_23  and  C_45
   22  A    between atoms: C_25  and  C_48
   23  A    between atoms: N_26  and  C_43
   24  A    between atoms: C_56  and  C_59
                            x       y       z     vdW  Elec       q    Type
                         _______ _______ _______ _____ _____    ______ ____

>  <TORSDO>
F 24

$$$$
=
 OpenBabel10222415593D

 63 70  0  0  1  0  0  0  0  0999 V2000
  185.2100  178.3280  142.2880 N   0  0  0  0  0  0  0  0  0  0  0  0
  186.1280  178.0870  139.9300 C   0  0  2  0  0  3  0  0  0  0  0  0
  186.0490  178.8990  141.2230 C   0  0  2  0  0  3  0  0  0  0  0  0
  187.5810  177.7710  140.2150 C   0  0  1  0  0  3  0  0  0  0  0  0
  187.2210  178.6800  139.0550 C   0  0  1  0  0  3  0  0  0  0  0  0
  187.5000  178.5670  141.5080 C   0  0  0  0  0  2  0  0  0  0  0  0
  187.4070  177.9620  137.7090 C   0  0  2  0  0  3  0  0  0  0  0  0
  187.0600  176.6150  137.8650 O   0  0  0  0  0  1  0  0  0  0  0  0
  188.7170  178.0590  137.2030 O   0  0  0  0  0  0  0  0  0  0  0  0
  189.1290  176.7390  136.9850 C   0  0  1  0  0  3  0  0  0  0  0  0
  189.4420  176.5390  135.4910 C   0  0  0  0  0  2  0  0  0  0  0  0
  192.6440  176.3460  137.6780 N   0  0  0  0  0  0  0  0  0  0  0  0
  190.3980  176.4810  137.7060 C   0  0  0  0  0  0  0  0  0  0  0  0
  191.4200  176.0960  137.0010 C   0  0  0  0  0  0  0  0  0  0  0  0
  191.1720  175.9360  135.2540 S   0  0  0  0  0  0  0  0  0  0  0  0
  192.9820  177.3220  139.8900 C   0  0  0  0  0  1  0  0  0  0  0  0
  190.7660  176.9780  138.9890 N   0  0  0  0  0  0  0  0  0  0  0  0
  192.1850  176.8200  138.9490 C   0  0  0  0  0  0  0  0  0  0  0  0
  193.8760  175.6190  137.4060 C   0  0  0  0  0  2  0  0  0  0  0  0
  193.6810  174.2510  137.5730 O   0  0  0  0  0  1  0  0  0  0  0  0
  186.1020  178.0090  143.3900 C   0  0  0  0  0  2  0  0  0  0  0  0
  185.3100  177.8970  144.6820 C   0  0  0  0  0  2  0  0  0  0  0  0
  185.9670  178.7440  145.7560 C   0  0  0  0  0  2  0  0  0  0  0  0
  187.2770  178.1610  146.1940 C   0  0  0  0  0  3  0  0  0  0  0  0
  187.3730  177.3460  147.2440 C   0  0  0  0  0  3  0  0  0  0  0  0
  188.7090  176.7820  147.6070 C   0  0  0  0  0  2  0  0  0  0  0  0
  189.8200  177.6620  147.0660 C   0  0  2  0  0  3  0  0  0  0  0  0
  190.4710  176.9700  145.9250 C   0  0  2  0  0  3  0  0  0  0  0  0
  191.0570  177.0000  147.2030 O   0  0  0  0  0  0  0  0  0  0  0  0
  191.1900  177.9140  144.9550 C   0  0  0  0  0  2  0  0  0  0  0  0
  191.7720  177.2760  143.6920 C   0  0  0  0  0  2  0  0  0  0  0  0
  191.2620  175.9220  143.5370 N   0  0  0  0  0  2  0  0  0  0  0  0
  190.2880  175.9710  142.4580 C   0  0  0  0  0  2  0  0  0  0  0  0
  188.9010  175.8010  143.0310 C   0  0  0  0  0  1  0  0  0  0  0  0
  184.2220  179.2650  142.8330 C   0  0  0  0  0  2  0  0  0  0  0  0
  182.7210  178.6020  140.9410 C   0  0  0  0  0  3  0  0  0  0  0  0
  180.4850  178.6070  142.6330 C   0  0  0  0  0  3  0  0  0  0  0  0
  182.8660  178.9440  142.2940 C   0  0  0  0  0  0  0  0  0  0  0  0
  181.7410  178.9560  143.1330 C   0  0  0  0  0  3  0  0  0  0  0  0
  181.4620  178.2540  140.4370 C   0  0  0  0  0  3  0  0  0  0  0  0
  180.3450  178.2530  141.2840 C   0  0  0  0  0  0  0  0  0  0  0  0
  179.0220  177.7740  140.7840 C   0  0  0  0  0  2  0  0  0  0  0  0
  179.1230  176.4490  140.1920 N   0  0  0  0  0  0  0  0  0  0  0  0
  179.2540  175.3030  141.0900 C   0  0  0  0  0  2  0  0  0  0  0  0
  180.8000  174.4290  139.4710 O   0  0  0  0  0  0  0  0  0  0  0  0
  179.7470  174.0570  140.3260 C   0  0  0  0  0  2  0  0  0  0  0  0
  179.0970  177.1870  137.9670 O   0  0  0  0  0  0  0  0  0  0  0  0
  179.4620  176.3120  138.8050 C   0  0  0  0  0  0  0  0  0  0  0  0
  180.2220  175.0810  138.3580 C   0  0  1  0  0  3  0  0  0  0  0  0
  181.3350  175.5110  137.3980 C   0  0  0  0  0  2  0  0  0  0  0  0
  182.1700  173.2550  136.8400 N   0  0  0  0  0  0  0  0  0  0  0  0
  180.5730  172.9900  134.6900 O   0  0  0  0  0  0  0  0  0  0  0  0
  181.7850  172.4070  134.5940 O   0  0  0  0  0  0  0  0  0  0  0  0
  181.6610  174.5220  136.2550 C   0  0  1  0  0  0  0  0  0  0  0  0
  179.3810  174.8110  135.4550 O   0  0  0  0  0  0  0  0  0  0  0  0
  183.4300  173.4400  137.3270 O   0  0  0  0  0  1  0  0  0  0  0  0
  182.2060  172.0950  135.9110 C   0  0  0  0  0  2  0  0  0  0  0  0
  180.4580  174.1610  135.4280 C   0  0  0  0  0  0  0  0  0  0  0  0
  182.7420  175.1690  135.3510 C   0  0  0  0  0  2  0  0  0  0  0  0
  182.8460  176.6690  135.4410 C   0  0  0  0  0  0  0  0  0  0  0  0
  183.7800  177.2140  136.0960 O   0  0  0  0  0  0  0  0  0  0  0  0
  181.4460  178.5860  135.1880 C   0  0  0  0  0  2  0  0  0  0  0  0
  181.9080  177.4700  134.7260 N   0  0  0  0  0  0  0  0  0  0  0  0
  1 35  1  0  0  0  0
  1 21  1  0  0  0  0
  2  4  1  0  0  0  0
  2  3  1  0  0  0  0
  3  6  1  0  0  0  0
  3  1  1  0  0  0  0
  4  6  1  0  0  0  0
  5  2  1  0  0  0  0
  5  4  1  0  0  0  0
  7  8  1  0  0  0  0
  7  5  1  0  0  0  0
  9  7  1  0  0  0  0
 10  9  1  0  0  0  0
 10 13  1  0  0  0  0
 11 10  1  0  0  0  0
 12 18  1  0  0  0  0
 13 17  1  0  0  0  0
 14 12  1  0  0  0  0
 14 13  2  0  0  0  0
 15 11  1  0  0  0  0
 15 14  1  0  0  0  0
 18 17  2  0  0  0  0
 18 16  1  0  0  0  0
 19 20  1  0  0  0  0
 19 12  1  0  0  0  0
 21 22  1  0  0  0  0
 22 23  1  0  0  0  0
 23 24  1  0  0  0  0
 24 25  2  0  0  0  0
 25 26  1  0  0  0  0
 27 29  1  0  0  0  0
 27 26  1  0  0  0  0
 28 27  1  0  0  0  0
 28 29  1  0  0  0  0
 30 28  1  0  0  0  0
 31 30  1  0  0  0  0
 32 31  1  0  0  0  0
 33 34  1  0  0  0  0
 33 32  1  0  0  0  0
 36 38  1  0  0  0  0
 37 39  1  0  0  0  0
 38 35  1  0  0  0  0
 38 39  2  0  0  0  0
 40 36  2  0  0  0  0
 40 41  1  0  0  0  0
 41 37  2  0  0  0  0
 42 41  1  0  0  0  0
 43 42  1  0  0  0  0
 43 44  1  0  0  0  0
 45 46  1  0  0  0  0
 46 44  1  0  0  0  0
 47 48  2  0  0  0  0
 48 43  1  0  0  0  0
 49 48  1  0  0  0  0
 49 45  1  0  0  0  0
 50 49  1  0  0  0  0
 51 56  1  0  0  0  0
 52 58  1  0  0  0  0
 53 52  1  0  0  0  0
 53 57  1  0  0  0  0
 54 51  1  0  0  0  0
 54 50  1  0  0  0  0
 57 51  1  0  0  0  0
 58 55  2  0  0  0  0
 58 54  1  0  0  0  0
 59 60  1  0  0  0  0
 59 54  1  0  0  0  0
 60 61  2  0  0  0  0
 63 62  2  0  0  0  0
 63 60  1  0  0  0  0
M  END
>  <MODEL>
3

>  <REMARK>
 VINA RESULT:      -6.5      3.240      7.859
  Name = 
  24 active torsions:
  status: ('A' for Active; 'I' for Inactive)
    1  A    between atoms: C_1  and  N_27
    2  A    between atoms: C_1  and  C_48
    3  A    between atoms: C_2  and  N_14
    4  A    between atoms: C_2  and  C_57
    5  A    between atoms: C_3  and  C_4
    6  A    between atoms: C_3  and  N_26
    7  A    between atoms: C_4  and  C_34
    8  A    between atoms: N_6  and  C_12
    9  A    between atoms: N_6  and  C_17
   10  A    between atoms: N_6  and  C_45
   11  A    between atoms: C_7  and  C_56
   12  A    between atoms: C_10  and  O_47
   13  A    between atoms: C_12  and  C_31
   14  A    between atoms: C_13  and  C_25
   15  A    between atoms: C_13  and  C_61
   16  A    between atoms: C_15  and  C_39
   17  A    between atoms: C_15  and  O_47
   18  A    between atoms: N_21  and  C_32
   19  A    between atoms: C_22  and  C_29
   20  A    between atoms: C_23  and  C_29
   21  A    between atoms: C_23  and  C_45
   22  A    between atoms: C_25  and  C_48
   23  A    between atoms: N_26  and  C_43
   24  A    between atoms: C_56  and  C_59
                            x       y       z     vdW  Elec       q    Type
                         _______ _______ _______ _____ _____    ______ ____

>  <TORSDO>
F 24

$$$$
=
 OpenBabel10222415593D

 63 70  0  0  1  0  0  0  0  0999 V2000
  186.4720  178.2670  144.4620 N   0  0  0  0  0  0  0  0  0  0  0  0
  185.8500  178.2100  141.9980 C   0  0  2  0  0  3  0  0  0  0  0  0
  185.4280  178.4660  143.4450 C   0  0  2  0  0  3  0  0  0  0  0  0
  185.7190  179.6890  141.6970 C   0  0  1  0  0  3  0  0  0  0  0  0
  184.7430  178.7050  141.0790 C   0  0  1  0  0  3  0  0  0  0  0  0
  185.3120  179.9460  143.1400 C   0  0  0  0  0  2  0  0  0  0  0  0
  185.0330  178.5030  139.5830 C   0  0  2  0  0  3  0  0  0  0  0  0
  184.9230  179.7370  138.9320 O   0  0  0  0  0  1  0  0  0  0  0  0
  184.1770  177.5670  138.9730 O   0  0  0  0  0  0  0  0  0  0  0  0
  184.6690  177.4100  137.6710 C   0  0  1  0  0  3  0  0  0  0  0  0
  186.1940  177.2090  137.7200 C   0  0  0  0  0  2  0  0  0  0  0  0
  184.3500  173.9950  136.5660 N   0  0  0  0  0  0  0  0  0  0  0  0
  184.1140  176.1760  137.0670 C   0  0  0  0  0  0  0  0  0  0  0  0
  184.9590  175.2740  136.6620 C   0  0  0  0  0  0  0  0  0  0  0  0
  186.6790  175.6290  136.8930 S   0  0  0  0  0  0  0  0  0  0  0  0
  182.0300  173.3810  137.0160 C   0  0  0  0  0  1  0  0  0  0  0  0
  182.7960  175.6630  137.2330 N   0  0  0  0  0  0  0  0  0  0  0  0
  182.9800  174.3000  136.8500 C   0  0  0  0  0  0  0  0  0  0  0  0
  184.8510  172.9280  135.7100 C   0  0  0  0  0  2  0  0  0  0  0  0
  183.7950  172.2440  135.1140 O   0  0  0  0  0  1  0  0  0  0  0  0
  185.8110  178.3560  145.7540 C   0  0  0  0  0  2  0  0  0  0  0  0
  184.3840  177.8470  145.6420 C   0  0  0  0  0  2  0  0  0  0  0  0
  183.4450  179.0170  145.4110 C   0  0  0  0  0  2  0  0  0  0  0  0
  182.2330  178.6050  144.6300 C   0  0  0  0  0  3  0  0  0  0  0  0
  181.8940  179.1960  143.4860 C   0  0  0  0  0  3  0  0  0  0  0  0
  180.6850  178.7150  142.7490 C   0  0  0  0  0  2  0  0  0  0  0  0
  180.9610  178.6620  141.2590 C   0  0  2  0  0  3  0  0  0  0  0  0
  179.9790  179.5270  140.5560 C   0  0  2  0  0  3  0  0  0  0  0  0
  179.8410  178.1270  140.5890 O   0  0  0  0  0  0  0  0  0  0  0  0
  180.4510  180.0120  139.1810 C   0  0  0  0  0  2  0  0  0  0  0  0
  180.4260  181.5230  138.9480 C   0  0  0  0  0  2  0  0  0  0  0  0
  181.0970  181.8460  137.6970 N   0  0  0  0  0  2  0  0  0  0  0  0
  181.0550  183.2940  137.5700 C   0  0  0  0  0  2  0  0  0  0  0  0
  179.6270  183.7330  137.3490 C   0  0  0  0  0  1  0  0  0  0  0  0
  187.0950  176.9410  144.4230 C   0  0  0  0  0  2  0  0  0  0  0  0
  188.9480  175.9020  143.0980 C   0  0  0  0  0  3  0  0  0  0  0  0
  190.3860  178.3080  143.1070 C   0  0  0  0  0  3  0  0  0  0  0  0
  188.4310  177.0260  143.7600 C   0  0  0  0  0  0  0  0  0  0  0  0
  189.1610  178.2230  143.7710 C   0  0  0  0  0  3  0  0  0  0  0  0
  190.1770  175.9830  142.4330 C   0  0  0  0  0  3  0  0  0  0  0  0
  190.8950  177.1880  142.4350 C   0  0  0  0  0  0  0  0  0  0  0  0
  192.1480  177.3180  141.6350 C   0  0  0  0  0  2  0  0  0  0  0  0
  191.8720  177.3320  140.2060 N   0  0  0  0  0  0  0  0  0  0  0  0
  190.4870  177.5200  139.7760 C   0  0  0  0  0  2  0  0  0  0  0  0
  190.9750  175.8930  138.0750 O   0  0  0  0  0  0  0  0  0  0  0  0
  190.3090  177.1110  138.3000 C   0  0  0  0  0  2  0  0  0  0  0  0
  194.0770  176.8970  139.5400 O   0  0  0  0  0  0  0  0  0  0  0  0
  192.8400  176.8060  139.2880 C   0  0  0  0  0  0  0  0  0  0  0  0
  192.3570  176.1830  137.9950 C   0  0  1  0  0  3  0  0  0  0  0  0
  193.1280  174.8820  137.7560 C   0  0  0  0  0  2  0  0  0  0  0  0
  194.3060  176.3160  136.1260 N   0  0  0  0  0  0  0  0  0  0  0  0
  196.7110  175.2070  136.6050 O   0  0  0  0  0  0  0  0  0  0  0  0
  196.4920  175.6040  135.3350 O   0  0  0  0  0  0  0  0  0  0  0  0
  194.2810  174.9590  136.7290 C   0  0  1  0  0  0  0  0  0  0  0  0
  195.7980  174.2440  138.4920 O   0  0  0  0  0  0  0  0  0  0  0  0
  193.2520  176.4670  135.2750 O   0  0  0  0  0  1  0  0  0  0  0  0
  195.5470  176.6590  135.3830 C   0  0  0  0  0  2  0  0  0  0  0  0
  195.6340  174.7370  137.3460 C   0  0  0  0  0  0  0  0  0  0  0  0
  194.0240  173.8900  135.6350 C   0  0  0  0  0  2  0  0  0  0  0  0
  193.1830  172.7160  136.0640 C   0  0  0  0  0  0  0  0  0  0  0  0
  193.7160  171.6950  136.5820 O   0  0  0  0  0  0  0  0  0  0  0  0
  191.1870  173.2000  134.8460 C   0  0  0  0  0  2  0  0  0  0  0  0
  191.7650  172.7980  135.9310 N   0  0  0  0  0  0  0  0  0  0  0  0
  1 21  1  0  0  0  0
  2  3  1  0  0  0  0
  3  1  1  0  0  0  0
  4  2  1  0  0  0  0
  4  6  1  0  0  0  0
  5  4  1  0  0  0  0
  5  2  1  0  0  0  0
  6  3  1  0  0  0  0
  7  5  1  0  0  0  0
  8  7  1  0  0  0  0
  9  7  1  0  0  0  0
 10 11  1  0  0  0  0
 10  9  1  0  0  0  0
 12 14  1  0  0  0  0
 12 18  1  0  0  0  0
 13 17  1  0  0  0  0
 13 10  1  0  0  0  0
 14 15  1  0  0  0  0
 14 13  2  0  0  0  0
 15 11  1  0  0  0  0
 18 16  1  0  0  0  0
 18 17  2  0  0  0  0
 19 12  1  0  0  0  0
 20 19  1  0  0  0  0
 22 21  1  0  0  0  0
 23 22  1  0  0  0  0
 24 23  1  0  0  0  0
 25 24  2  0  0  0  0
 26 25  1  0  0  0  0
 27 26  1  0  0  0  0
 28 29  1  0  0  0  0
 28 27  1  0  0  0  0
 29 27  1  0  0  0  0
 30 28  1  0  0  0  0
 31 30  1  0  0  0  0
 32 31  1  0  0  0  0
 33 32  1  0  0  0  0
 34 33  1  0  0  0  0
 35  1  1  0  0  0  0
 36 38  1  0  0  0  0
 37 39  1  0  0  0  0
 38 39  2  0  0  0  0
 38 35  1  0  0  0  0
 40 41  1  0  0  0  0
 40 36  2  0  0  0  0
 41 37  2  0  0  0  0
 42 41  1  0  0  0  0
 43 42  1  0  0  0  0
 44 43  1  0  0  0  0
 45 46  1  0  0  0  0
 46 44  1  0  0  0  0
 48 47  2  0  0  0  0
 48 43  1  0  0  0  0
 49 45  1  0  0  0  0
 49 48  1  0  0  0  0
 50 49  1  0  0  0  0
 51 54  1  0  0  0  0
 52 58  1  0  0  0  0
 53 57  1  0  0  0  0
 53 52  1  0  0  0  0
 54 58  1  0  0  0  0
 54 50  1  0  0  0  0
 56 51  1  0  0  0  0
 57 51  1  0  0  0  0
 58 55  2  0  0  0  0
 59 60  1  0  0  0  0
 59 54  1  0  0  0  0
 60 61  2  0  0  0  0
 62 63  2  0  0  0  0
 63 60  1  0  0  0  0
M  END
>  <MODEL>
4

>  <REMARK>
 VINA RESULT:      -6.1      3.742      7.568
  Name = 
  24 active torsions:
  status: ('A' for Active; 'I' for Inactive)
    1  A    between atoms: C_1  and  N_27
    2  A    between atoms: C_1  and  C_48
    3  A    between atoms: C_2  and  N_14
    4  A    between atoms: C_2  and  C_57
    5  A    between atoms: C_3  and  C_4
    6  A    between atoms: C_3  and  N_26
    7  A    between atoms: C_4  and  C_34
    8  A    between atoms: N_6  and  C_12
    9  A    between atoms: N_6  and  C_17
   10  A    between atoms: N_6  and  C_45
   11  A    between atoms: C_7  and  C_56
   12  A    between atoms: C_10  and  O_47
   13  A    between atoms: C_12  and  C_31
   14  A    between atoms: C_13  and  C_25
   15  A    between atoms: C_13  and  C_61
   16  A    between atoms: C_15  and  C_39
   17  A    between atoms: C_15  and  O_47
   18  A    between atoms: N_21  and  C_32
   19  A    between atoms: C_22  and  C_29
   20  A    between atoms: C_23  and  C_29
   21  A    between atoms: C_23  and  C_45
   22  A    between atoms: C_25  and  C_48
   23  A    between atoms: N_26  and  C_43
   24  A    between atoms: C_56  and  C_59
                            x       y       z     vdW  Elec       q    Type
                         _______ _______ _______ _____ _____    ______ ____

>  <TORSDO>
F 24

$$$$
=
 OpenBabel10222415593D

 63 70  0  0  1  0  0  0  0  0999 V2000
  186.3300  178.1360  144.3790 N   0  0  0  0  0  0  0  0  0  0  0  0
  185.8220  178.1080  141.8880 C   0  0  2  0  0  3  0  0  0  0  0  0
  185.3620  178.4270  143.3110 C   0  0  2  0  0  3  0  0  0  0  0  0
  185.8610  179.5870  141.5680 C   0  0  1  0  0  3  0  0  0  0  0  0
  184.8180  178.7010  140.9120 C   0  0  1  0  0  3  0  0  0  0  0  0
  185.4150  179.9070  142.9860 C   0  0  0  0  0  2  0  0  0  0  0  0
  185.1550  178.4490  139.4350 C   0  0  2  0  0  3  0  0  0  0  0  0
  184.7660  179.5650  138.6850 O   0  0  0  0  0  1  0  0  0  0  0  0
  184.5440  177.2920  138.9140 O   0  0  0  0  0  0  0  0  0  0  0  0
  185.0110  177.1860  137.5990 C   0  0  1  0  0  3  0  0  0  0  0  0
  186.5490  177.1140  137.6050 C   0  0  0  0  0  2  0  0  0  0  0  0
  184.9500  173.7630  136.4730 N   0  0  0  0  0  0  0  0  0  0  0  0
  184.5450  175.9130  136.9990 C   0  0  0  0  0  0  0  0  0  0  0  0
  185.4520  175.0890  136.5640 C   0  0  0  0  0  0  0  0  0  0  0  0
  187.1420  175.5860  136.7530 S   0  0  0  0  0  0  0  0  0  0  0  0
  182.7040  172.9530  136.9790 C   0  0  0  0  0  1  0  0  0  0  0  0
  183.2800  175.2900  137.1950 N   0  0  0  0  0  0  0  0  0  0  0  0
  183.5680  173.9490  136.7960 C   0  0  0  0  0  0  0  0  0  0  0  0
  185.5170  172.7480  135.5950 C   0  0  0  0  0  2  0  0  0  0  0  0
  184.5910  172.3700  134.6260 O   0  0  0  0  0  1  0  0  0  0  0  0
  185.5830  178.1450  145.6270 C   0  0  0  0  0  2  0  0  0  0  0  0
  184.1230  177.8220  145.3590 C   0  0  0  0  0  2  0  0  0  0  0  0
  183.3530  179.1080  145.1240 C   0  0  0  0  0  2  0  0  0  0  0  0
  182.0120  178.8430  144.5080 C   0  0  0  0  0  3  0  0  0  0  0  0
  181.6590  179.3580  143.3310 C   0  0  0  0  0  3  0  0  0  0  0  0
  180.3140  179.0300  142.7680 C   0  0  0  0  0  2  0  0  0  0  0  0
  180.4570  178.1840  141.5170 C   0  0  2  0  0  3  0  0  0  0  0  0
  180.5250  179.0800  140.3340 C   0  0  2  0  0  3  0  0  0  0  0  0
  179.3450  178.3940  140.6750 O   0  0  0  0  0  0  0  0  0  0  0  0
  181.2100  178.4500  139.1170 C   0  0  0  0  0  2  0  0  0  0  0  0
  180.7820  178.9780  137.7470 C   0  0  0  0  0  2  0  0  0  0  0  0
  179.5320  178.3520  137.3400 N   0  0  0  0  0  2  0  0  0  0  0  0
  179.7300  177.8870  135.9760 C   0  0  0  0  0  2  0  0  0  0  0  0
  180.1590  176.4380  136.0020 C   0  0  0  0  0  1  0  0  0  0  0  0
  186.9350  176.8040  144.2860 C   0  0  0  0  0  2  0  0  0  0  0  0
  188.8650  175.7800  143.0630 C   0  0  0  0  0  3  0  0  0  0  0  0
  190.2520  178.2170  143.0880 C   0  0  0  0  0  3  0  0  0  0  0  0
  188.2970  176.9050  143.6800 C   0  0  0  0  0  0  0  0  0  0  0  0
  189.0010  178.1180  143.7000 C   0  0  0  0  0  3  0  0  0  0  0  0
  190.1210  175.8760  142.4510 C   0  0  0  0  0  3  0  0  0  0  0  0
  190.8130  177.0960  142.4600 C   0  0  0  0  0  0  0  0  0  0  0  0
  192.0970  177.2380  141.7130 C   0  0  0  0  0  2  0  0  0  0  0  0
  191.8720  177.3510  140.2800 N   0  0  0  0  0  0  0  0  0  0  0  0
  190.5050  177.5810  139.8150 C   0  0  0  0  0  2  0  0  0  0  0  0
  191.0430  176.0690  138.0250 O   0  0  0  0  0  0  0  0  0  0  0  0
  190.3770  177.2750  138.3090 C   0  0  0  0  0  2  0  0  0  0  0  0
  194.0970  176.9420  139.6640 O   0  0  0  0  0  0  0  0  0  0  0  0
  192.8690  176.8800  139.3630 C   0  0  0  0  0  0  0  0  0  0  0  0
  192.4280  176.3520  138.0140 C   0  0  1  0  0  3  0  0  0  0  0  0
  193.1980  175.0630  137.7140 C   0  0  0  0  0  2  0  0  0  0  0  0
  194.0350  176.4140  135.8230 N   0  0  0  0  0  0  0  0  0  0  0  0
  196.5950  175.6560  136.1700 O   0  0  0  0  0  0  0  0  0  0  0  0
  196.2150  175.8680  134.8930 O   0  0  0  0  0  0  0  0  0  0  0  0
  194.2370  175.1460  136.5700 C   0  0  1  0  0  0  0  0  0  0  0  0
  195.9830  174.8320  138.2360 O   0  0  0  0  0  0  0  0  0  0  0  0
  192.9000  176.3370  135.0740 O   0  0  0  0  0  1  0  0  0  0  0  0
  195.1520  176.8050  134.9230 C   0  0  0  0  0  2  0  0  0  0  0  0
  195.6570  175.1590  137.0660 C   0  0  0  0  0  0  0  0  0  0  0  0
  194.0200  173.9300  135.6340 C   0  0  0  0  0  2  0  0  0  0  0  0
  194.4850  172.6040  136.1780 C   0  0  0  0  0  0  0  0  0  0  0  0
  193.6660  171.8010  136.7070 O   0  0  0  0  0  0  0  0  0  0  0  0
  196.2840  171.0360  136.2250 C   0  0  0  0  0  2  0  0  0  0  0  0
  195.8560  172.2420  136.0340 N   0  0  0  0  0  0  0  0  0  0  0  0
  1 21  1  0  0  0  0
  2  3  1  0  0  0  0
  3  1  1  0  0  0  0
  4  2  1  0  0  0  0
  4  6  1  0  0  0  0
  5  4  1  0  0  0  0
  5  2  1  0  0  0  0
  6  3  1  0  0  0  0
  7  5  1  0  0  0  0
  8  7  1  0  0  0  0
  9  7  1  0  0  0  0
 10 11  1  0  0  0  0
 10  9  1  0  0  0  0
 12 14  1  0  0  0  0
 12 18  1  0  0  0  0
 13 17  1  0  0  0  0
 13 10  1  0  0  0  0
 14 15  1  0  0  0  0
 14 13  2  0  0  0  0
 15 11  1  0  0  0  0
 18 16  1  0  0  0  0
 18 17  2  0  0  0  0
 19 12  1  0  0  0  0
 20 19  1  0  0  0  0
 22 21  1  0  0  0  0
 23 22  1  0  0  0  0
 24 23  1  0  0  0  0
 25 24  2  0  0  0  0
 26 25  1  0  0  0  0
 27 26  1  0  0  0  0
 28 29  1  0  0  0  0
 28 27  1  0  0  0  0
 29 27  1  0  0  0  0
 30 28  1  0  0  0  0
 31 30  1  0  0  0  0
 32 31  1  0  0  0  0
 33 34  1  0  0  0  0
 33 32  1  0  0  0  0
 35  1  1  0  0  0  0
 36 38  1  0  0  0  0
 37 39  1  0  0  0  0
 38 39  2  0  0  0  0
 38 35  1  0  0  0  0
 40 41  1  0  0  0  0
 40 36  2  0  0  0  0
 41 37  2  0  0  0  0
 42 41  1  0  0  0  0
 43 42  1  0  0  0  0
 44 43  1  0  0  0  0
 45 46  1  0  0  0  0
 46 44  1  0  0  0  0
 48 47  2  0  0  0  0
 48 43  1  0  0  0  0
 49 45  1  0  0  0  0
 49 48  1  0  0  0  0
 50 49  1  0  0  0  0
 51 54  1  0  0  0  0
 52 58  1  0  0  0  0
 53 57  1  0  0  0  0
 53 52  1  0  0  0  0
 54 58  1  0  0  0  0
 54 50  1  0  0  0  0
 56 51  1  0  0  0  0
 57 51  1  0  0  0  0
 58 55  2  0  0  0  0
 59 60  1  0  0  0  0
 59 54  1  0  0  0  0
 60 61  2  0  0  0  0
 63 60  1  0  0  0  0
 63 62  2  0  0  0  0
M  END
>  <MODEL>
5

>  <REMARK>
 VINA RESULT:      -5.5      4.029      7.848
  Name = 
  24 active torsions:
  status: ('A' for Active; 'I' for Inactive)
    1  A    between atoms: C_1  and  N_27
    2  A    between atoms: C_1  and  C_48
    3  A    between atoms: C_2  and  N_14
    4  A    between atoms: C_2  and  C_57
    5  A    between atoms: C_3  and  C_4
    6  A    between atoms: C_3  and  N_26
    7  A    between atoms: C_4  and  C_34
    8  A    between atoms: N_6  and  C_12
    9  A    between atoms: N_6  and  C_17
   10  A    between atoms: N_6  and  C_45
   11  A    between atoms: C_7  and  C_56
   12  A    between atoms: C_10  and  O_47
   13  A    between atoms: C_12  and  C_31
   14  A    between atoms: C_13  and  C_25
   15  A    between atoms: C_13  and  C_61
   16  A    between atoms: C_15  and  C_39
   17  A    between atoms: C_15  and  O_47
   18  A    between atoms: N_21  and  C_32
   19  A    between atoms: C_22  and  C_29
   20  A    between atoms: C_23  and  C_29
   21  A    between atoms: C_23  and  C_45
   22  A    between atoms: C_25  and  C_48
   23  A    between atoms: N_26  and  C_43
   24  A    between atoms: C_56  and  C_59
                            x       y       z     vdW  Elec       q    Type
                         _______ _______ _______ _____ _____    ______ ____

>  <TORSDO>
F 24

$$$$
=
 OpenBabel10222415593D

 63 70  0  0  1  0  0  0  0  0999 V2000
  183.2030  178.1130  140.6840 N   0  0  0  0  0  0  0  0  0  0  0  0
  181.7050  177.9430  138.6370 C   0  0  2  0  0  3  0  0  0  0  0  0
  181.8950  178.4080  140.0810 C   0  0  2  0  0  3  0  0  0  0  0  0
  181.6820  179.3840  138.1740 C   0  0  1  0  0  3  0  0  0  0  0  0
  180.4180  178.5490  138.1000 C   0  0  1  0  0  3  0  0  0  0  0  0
  181.8830  179.8480  139.6080 C   0  0  0  0  0  2  0  0  0  0  0  0
  180.0960  178.1570  136.6500 C   0  0  2  0  0  3  0  0  0  0  0  0
  179.2090  179.0970  136.1140 O   0  0  0  0  0  1  0  0  0  0  0  0
  179.5480  176.8660  136.5310 O   0  0  0  0  0  0  0  0  0  0  0  0
  180.2680  176.2510  135.5000 C   0  0  1  0  0  3  0  0  0  0  0  0
  181.5910  177.0060  135.2770 C   0  0  0  0  0  2  0  0  0  0  0  0
  182.1810  173.4590  136.7400 N   0  0  0  0  0  0  0  0  0  0  0  0
  180.6460  174.8750  135.9000 C   0  0  0  0  0  0  0  0  0  0  0  0
  181.9130  174.5800  135.9090 C   0  0  0  0  0  0  0  0  0  0  0  0
  183.0380  175.8700  135.4510 S   0  0  0  0  0  0  0  0  0  0  0  0
  180.6020  172.1090  138.0220 C   0  0  0  0  0  1  0  0  0  0  0  0
  179.8600  173.9590  136.6560 N   0  0  0  0  0  0  0  0  0  0  0  0
  180.8610  173.0520  137.1180 C   0  0  0  0  0  0  0  0  0  0  0  0
  183.3510  172.6050  136.5850 C   0  0  0  0  0  2  0  0  0  0  0  0
  183.6700  172.4560  135.2380 O   0  0  0  0  0  1  0  0  0  0  0  0
  184.0210  177.5340  139.6300 C   0  0  0  0  0  2  0  0  0  0  0  0
  185.3480  178.2690  139.5420 C   0  0  0  0  0  2  0  0  0  0  0  0
  185.6870  178.5320  138.0870 C   0  0  0  0  0  2  0  0  0  0  0  0
  185.9990  177.2610  137.3550 C   0  0  0  0  0  3  0  0  0  0  0  0
  187.2440  176.8060  137.2250 C   0  0  0  0  0  3  0  0  0  0  0  0
  187.4760  175.5180  136.5030 C   0  0  0  0  0  2  0  0  0  0  0  0
  188.7830  174.8900  136.9500 C   0  0  2  0  0  3  0  0  0  0  0  0
  189.7070  174.8230  135.7890 C   0  0  2  0  0  3  0  0  0  0  0  0
  188.9990  173.6920  136.2370 O   0  0  0  0  0  0  0  0  0  0  0  0
  191.1870  174.7500  136.1780 C   0  0  0  0  0  2  0  0  0  0  0  0
  192.1600  175.5370  135.2990 C   0  0  0  0  0  2  0  0  0  0  0  0
  193.2030  176.1340  136.1210 N   0  0  0  0  0  2  0  0  0  0  0  0
  194.4710  175.6990  135.5570 C   0  0  0  0  0  2  0  0  0  0  0  0
  195.1160  176.8550  134.8320 C   0  0  0  0  0  1  0  0  0  0  0  0
  183.9280  179.3000  141.1440 C   0  0  0  0  0  2  0  0  0  0  0  0
  183.1550  178.6970  143.4480 C   0  0  0  0  0  3  0  0  0  0  0  0
  185.6090  179.4950  144.5470 C   0  0  0  0  0  3  0  0  0  0  0  0
  184.1610  179.2150  142.6170 C   0  0  0  0  0  0  0  0  0  0  0  0
  185.3820  179.6240  143.1750 C   0  0  0  0  0  3  0  0  0  0  0  0
  183.3800  178.5690  144.8240 C   0  0  0  0  0  3  0  0  0  0  0  0
  184.6080  178.9650  145.3730 C   0  0  0  0  0  0  0  0  0  0  0  0
  184.8990  178.7260  146.8170 C   0  0  0  0  0  2  0  0  0  0  0  0
  186.2310  178.1720  147.0110 N   0  0  0  0  0  0  0  0  0  0  0  0
  186.9780  178.5800  148.1990 C   0  0  0  0  0  2  0  0  0  0  0  0
  188.9060  178.6110  146.7640 O   0  0  0  0  0  0  0  0  0  0  0  0
  188.4760  178.2410  148.0510 C   0  0  0  0  0  2  0  0  0  0  0  0
  186.2700  176.9600  145.0050 O   0  0  0  0  0  0  0  0  0  0  0  0
  186.9180  177.5670  145.9070 C   0  0  0  0  0  0  0  0  0  0  0  0
  188.4300  177.6280  145.8670 C   0  0  1  0  0  3  0  0  0  0  0  0
  188.8710  177.9920  144.4460 C   0  0  0  0  0  2  0  0  0  0  0  0
  190.9740  176.7990  144.9500 N   0  0  0  0  0  0  0  0  0  0  0  0
  190.5440  174.8790  143.1130 O   0  0  0  0  0  0  0  0  0  0  0  0
  191.8320  175.2320  143.3010 O   0  0  0  0  0  0  0  0  0  0  0  0
  190.0280  177.1500  143.8600 C   0  0  1  0  0  0  0  0  0  0  0  0
  188.3600  175.6100  142.9820 O   0  0  0  0  0  0  0  0  0  0  0  0
  191.6820  177.9010  145.3250 O   0  0  0  0  0  1  0  0  0  0  0  0
  191.9440  175.7200  144.6270 C   0  0  0  0  0  2  0  0  0  0  0  0
  189.5630  175.8520  143.2580 C   0  0  0  0  0  0  0  0  0  0  0  0
  190.7440  178.0000  142.7800 C   0  0  0  0  0  2  0  0  0  0  0  0
  190.2550  177.7990  141.3700 C   0  0  0  0  0  0  0  0  0  0  0  0
  189.0420  177.9930  141.0730 O   0  0  0  0  0  0  0  0  0  0  0  0
  190.8830  176.7020  139.3440 C   0  0  0  0  0  2  0  0  0  0  0  0
  191.1950  177.4430  140.3580 N   0  0  0  0  0  0  0  0  0  0  0  0
  1 35  1  0  0  0  0
  2  3  1  0  0  0  0
  3  1  1  0  0  0  0
  4  2  1  0  0  0  0
  4  6  1  0  0  0  0
  5  4  1  0  0  0  0
  5  2  1  0  0  0  0
  6  3  1  0  0  0  0
  7  5  1  0  0  0  0
  8  7  1  0  0  0  0
  9  7  1  0  0  0  0
 10 13  1  0  0  0  0
 10  9  1  0  0  0  0
 11 15  1  0  0  0  0
 11 10  1  0  0  0  0
 12 18  1  0  0  0  0
 13 14  2  0  0  0  0
 13 17  1  0  0  0  0
 14 12  1  0  0  0  0
 15 14  1  0  0  0  0
 17 18  2  0  0  0  0
 18 16  1  0  0  0  0
 19 12  1  0  0  0  0
 20 19  1  0  0  0  0
 21  1  1  0  0  0  0
 22 21  1  0  0  0  0
 23 22  1  0  0  0  0
 24 23  1  0  0  0  0
 25 24  2  0  0  0  0
 26 27  1  0  0  0  0
 26 25  1  0  0  0  0
 28 30  1  0  0  0  0
 28 29  1  0  0  0  0
 28 27  1  0  0  0  0
 29 27  1  0  0  0  0
 31 32  1  0  0  0  0
 31 30  1  0  0  0  0
 33 32  1  0  0  0  0
 34 33  1  0  0  0  0
 35 38  1  0  0  0  0
 36 40  1  0  0  0  0
 37 41  1  0  0  0  0
 38 39  1  0  0  0  0
 38 36  2  0  0  0  0
 39 37  2  0  0  0  0
 40 41  2  0  0  0  0
 41 42  1  0  0  0  0
 42 43  1  0  0  0  0
 43 44  1  0  0  0  0
 45 46  1  0  0  0  0
 46 44  1  0  0  0  0
 47 48  2  0  0  0  0
 48 43  1  0  0  0  0
 49 48  1  0  0  0  0
 49 45  1  0  0  0  0
 50 49  1  0  0  0  0
 51 56  1  0  0  0  0
 52 58  1  0  0  0  0
 52 53  1  0  0  0  0
 53 57  1  0  0  0  0
 54 50  1  0  0  0  0
 54 51  1  0  0  0  0
 55 58  2  0  0  0  0
 57 51  1  0  0  0  0
 58 54  1  0  0  0  0
 59 54  1  0  0  0  0
 60 59  1  0  0  0  0
 61 60  2  0  0  0  0
 62 63  2  0  0  0  0
 63 60  1  0  0  0  0
M  END
>  <MODEL>
6

>  <REMARK>
 VINA RESULT:      -5.4      3.268     10.586
  Name = 
  24 active torsions:
  status: ('A' for Active; 'I' for Inactive)
    1  A    between atoms: C_1  and  N_27
    2  A    between atoms: C_1  and  C_48
    3  A    between atoms: C_2  and  N_14
    4  A    between atoms: C_2  and  C_57
    5  A    between atoms: C_3  and  C_4
    6  A    between atoms: C_3  and  N_26
    7  A    between atoms: C_4  and  C_34
    8  A    between atoms: N_6  and  C_12
    9  A    between atoms: N_6  and  C_17
   10  A    between atoms: N_6  and  C_45
   11  A    between atoms: C_7  and  C_56
   12  A    between atoms: C_10  and  O_47
   13  A    between atoms: C_12  and  C_31
   14  A    between atoms: C_13  and  C_25
   15  A    between atoms: C_13  and  C_61
   16  A    between atoms: C_15  and  C_39
   17  A    between atoms: C_15  and  O_47
   18  A    between atoms: N_21  and  C_32
   19  A    between atoms: C_22  and  C_29
   20  A    between atoms: C_23  and  C_29
   21  A    between atoms: C_23  and  C_45
   22  A    between atoms: C_25  and  C_48
   23  A    between atoms: N_26  and  C_43
   24  A    between atoms: C_56  and  C_59
                            x       y       z     vdW  Elec       q    Type
                         _______ _______ _______ _____ _____    ______ ____

>  <TORSDO>
F 24

$$$$
=
 OpenBabel10222415593D

 63 70  0  0  1  0  0  0  0  0999 V2000
  187.2990  177.6750  141.5610 N   0  0  0  0  0  0  0  0  0  0  0  0
  189.2120  176.7180  140.1880 C   0  0  2  0  0  3  0  0  0  0  0  0
  187.8890  177.4850  140.2280 C   0  0  2  0  0  3  0  0  0  0  0  0
  189.9340  177.9830  139.7750 C   0  0  1  0  0  3  0  0  0  0  0  0
  189.7960  176.8390  138.7890 C   0  0  1  0  0  3  0  0  0  0  0  0
  188.6220  178.7500  139.8270 C   0  0  0  0  0  2  0  0  0  0  0  0
  191.1330  176.1040  138.6020 C   0  0  2  0  0  3  0  0  0  0  0  0
  191.8610  176.7430  137.5920 O   0  0  0  0  0  1  0  0  0  0  0  0
  190.9790  174.7410  138.2860 O   0  0  0  0  0  0  0  0  0  0  0  0
  190.9980  174.6800  136.8880 C   0  0  1  0  0  3  0  0  0  0  0  0
  192.0990  173.7070  136.4310 C   0  0  0  0  0  2  0  0  0  0  0  0
  188.5500  172.3380  135.6580 N   0  0  0  0  0  0  0  0  0  0  0  0
  189.7210  174.1140  136.3900 C   0  0  0  0  0  0  0  0  0  0  0  0
  189.7860  173.0390  135.6630 C   0  0  0  0  0  0  0  0  0  0  0  0
  191.4000  172.3700  135.3640 S   0  0  0  0  0  0  0  0  0  0  0  0
  186.4620  172.9390  136.7690 C   0  0  0  0  0  1  0  0  0  0  0  0
  188.4210  174.3450  136.9220 N   0  0  0  0  0  0  0  0  0  0  0  0
  187.7030  173.2320  136.3870 C   0  0  0  0  0  0  0  0  0  0  0  0
  188.1510  171.4190  134.6000 C   0  0  0  0  0  2  0  0  0  0  0  0
  187.8410  170.1700  135.1310 O   0  0  0  0  0  1  0  0  0  0  0  0
  188.3620  177.4270  142.5220 C   0  0  0  0  0  2  0  0  0  0  0  0
  187.9450  176.3260  143.4820 C   0  0  0  0  0  2  0  0  0  0  0  0
  186.8050  176.8160  144.3550 C   0  0  0  0  0  2  0  0  0  0  0  0
  187.2860  177.7770  145.4010 C   0  0  0  0  0  3  0  0  0  0  0  0
  186.6620  177.9220  146.5690 C   0  0  0  0  0  3  0  0  0  0  0  0
  187.2130  178.8800  147.5740 C   0  0  0  0  0  2  0  0  0  0  0  0
  188.3490  178.2400  148.3490 C   0  0  2  0  0  3  0  0  0  0  0  0
  188.9980  177.2140  147.4930 C   0  0  2  0  0  3  0  0  0  0  0  0
  188.0940  176.8620  148.5110 O   0  0  0  0  0  0  0  0  0  0  0  0
  190.4440  176.8980  147.8920 C   0  0  0  0  0  2  0  0  0  0  0  0
  191.4110  176.5840  146.7490 C   0  0  0  0  0  2  0  0  0  0  0  0
  190.9000  177.1290  145.5000 N   0  0  0  0  0  2  0  0  0  0  0  0
  191.6460  176.4810  144.4320 C   0  0  0  0  0  2  0  0  0  0  0  0
  191.7170  177.4070  143.2410 C   0  0  0  0  0  1  0  0  0  0  0  0
  186.8400  179.0430  141.8190 C   0  0  0  0  0  2  0  0  0  0  0  0
  184.4950  178.3750  141.2520 C   0  0  0  0  0  3  0  0  0  0  0  0
  183.5130  179.6290  143.5590 C   0  0  0  0  0  3  0  0  0  0  0  0
  185.3760  179.0410  142.1160 C   0  0  0  0  0  0  0  0  0  0  0  0
  184.8770  179.6780  143.2630 C   0  0  0  0  0  3  0  0  0  0  0  0
  183.1270  178.3270  141.5450 C   0  0  0  0  0  3  0  0  0  0  0  0
  182.6370  178.9510  142.7010 C   0  0  0  0  0  0  0  0  0  0  0  0
  181.2000  178.8080  143.0820 C   0  0  0  0  0  2  0  0  0  0  0  0
  180.4260  178.1820  142.0210 N   0  0  0  0  0  0  0  0  0  0  0  0
  179.8080  176.8850  142.2960 C   0  0  0  0  0  2  0  0  0  0  0  0
  180.4220  176.3090  140.0450 O   0  0  0  0  0  0  0  0  0  0  0  0
  179.3850  176.1880  140.9870 C   0  0  0  0  0  2  0  0  0  0  0  0
  180.8490  179.8370  140.4170 O   0  0  0  0  0  0  0  0  0  0  0  0
  180.5830  178.6260  140.6670 C   0  0  0  0  0  0  0  0  0  0  0  0
  180.3780  177.6300  139.5440 C   0  0  1  0  0  3  0  0  0  0  0  0
  181.4980  177.8120  138.5150 C   0  0  0  0  0  2  0  0  0  0  0  0
  179.6270  177.4100  136.9530 N   0  0  0  0  0  0  0  0  0  0  0  0
  180.4500  179.2720  135.1930 O   0  0  0  0  0  0  0  0  0  0  0  0
  179.8550  178.1850  134.6600 O   0  0  0  0  0  0  0  0  0  0  0  0
  181.0630  177.7810  137.0310 C   0  0  1  0  0  0  0  0  0  0  0  0
  181.8730  180.0660  136.8250 O   0  0  0  0  0  0  0  0  0  0  0  0
  179.4710  176.0880  137.2480 O   0  0  0  0  0  1  0  0  0  0  0  0
  178.9750  177.6650  135.6420 C   0  0  0  0  0  2  0  0  0  0  0  0
  181.2010  179.1150  136.3500 C   0  0  0  0  0  0  0  0  0  0  0  0
  181.9320  176.7270  136.2970 C   0  0  0  0  0  2  0  0  0  0  0  0
  183.3810  177.0950  136.1180 C   0  0  0  0  0  0  0  0  0  0  0  0
  183.7840  177.6310  135.0480 O   0  0  0  0  0  0  0  0  0  0  0  0
  185.1720  177.7570  137.5520 C   0  0  0  0  0  2  0  0  0  0  0  0
  184.2850  176.8820  137.2010 N   0  0  0  0  0  0  0  0  0  0  0  0
  1 35  1  0  0  0  0
  1 21  1  0  0  0  0
  2  3  1  0  0  0  0
  3  1  1  0  0  0  0
  4  6  1  0  0  0  0
  4  2  1  0  0  0  0
  5  4  1  0  0  0  0
  5  2  1  0  0  0  0
  6  3  1  0  0  0  0
  7  5  1  0  0  0  0
  8  7  1  0  0  0  0
  9  7  1  0  0  0  0
 10  9  1  0  0  0  0
 11 10  1  0  0  0  0
 12 14  1  0  0  0  0
 12 18  1  0  0  0  0
 13 10  1  0  0  0  0
 13 17  1  0  0  0  0
 14 13  2  0  0  0  0
 15 14  1  0  0  0  0
 15 11  1  0  0  0  0
 18 16  1  0  0  0  0
 18 17  2  0  0  0  0
 19 20  1  0  0  0  0
 19 12  1  0  0  0  0
 21 22  1  0  0  0  0
 22 23  1  0  0  0  0
 23 24  1  0  0  0  0
 24 25  2  0  0  0  0
 25 26  1  0  0  0  0
 26 27  1  0  0  0  0
 27 29  1  0  0  0  0
 28 30  1  0  0  0  0
 28 27  1  0  0  0  0
 28 29  1  0  0  0  0
 31 30  1  0  0  0  0
 32 31  1  0  0  0  0
 33 32  1  0  0  0  0
 34 33  1  0  0  0  0
 35 38  1  0  0  0  0
 36 40  2  0  0  0  0
 36 38  1  0  0  0  0
 38 39  2  0  0  0  0
 39 37  1  0  0  0  0
 40 41  1  0  0  0  0
 41 42  1  0  0  0  0
 41 37  2  0  0  0  0
 43 44  1  0  0  0  0
 43 42  1  0  0  0  0
 45 46  1  0  0  0  0
 46 44  1  0  0  0  0
 47 48  2  0  0  0  0
 48 43  1  0  0  0  0
 49 45  1  0  0  0  0
 49 48  1  0  0  0  0
 50 49  1  0  0  0  0
 51 54  1  0  0  0  0
 51 56  1  0  0  0  0
 52 58  1  0  0  0  0
 53 52  1  0  0  0  0
 53 57  1  0  0  0  0
 54 50  1  0  0  0  0
 57 51  1  0  0  0  0
 58 55  2  0  0  0  0
 58 54  1  0  0  0  0
 59 54  1  0  0  0  0
 60 59  1  0  0  0  0
 60 63  1  0  0  0  0
 61 60  2  0  0  0  0
 63 62  2  0  0  0  0
M  END
>  <MODEL>
7

>  <REMARK>
 VINA RESULT:      -5.0      2.880      8.770
  Name = 
  24 active torsions:
  status: ('A' for Active; 'I' for Inactive)
    1  A    between atoms: C_1  and  N_27
    2  A    between atoms: C_1  and  C_48
    3  A    between atoms: C_2  and  N_14
    4  A    between atoms: C_2  and  C_57
    5  A    between atoms: C_3  and  C_4
    6  A    between atoms: C_3  and  N_26
    7  A    between atoms: C_4  and  C_34
    8  A    between atoms: N_6  and  C_12
    9  A    between atoms: N_6  and  C_17
   10  A    between atoms: N_6  and  C_45
   11  A    between atoms: C_7  and  C_56
   12  A    between atoms: C_10  and  O_47
   13  A    between atoms: C_12  and  C_31
   14  A    between atoms: C_13  and  C_25
   15  A    between atoms: C_13  and  C_61
   16  A    between atoms: C_15  and  C_39
   17  A    between atoms: C_15  and  O_47
   18  A    between atoms: N_21  and  C_32
   19  A    between atoms: C_22  and  C_29
   20  A    between atoms: C_23  and  C_29
   21  A    between atoms: C_23  and  C_45
   22  A    between atoms: C_25  and  C_48
   23  A    between atoms: N_26  and  C_43
   24  A    between atoms: C_56  and  C_59
                            x       y       z     vdW  Elec       q    Type
                         _______ _______ _______ _____ _____    ______ ____

>  <TORSDO>
F 24

$$$$
=
 OpenBabel10222415593D

 63 70  0  0  1  0  0  0  0  0999 V2000
  184.6290  178.3000  142.8830 N   0  0  0  0  0  0  0  0  0  0  0  0
  186.9400  177.5830  142.1050 C   0  0  2  0  0  3  0  0  0  0  0  0
  185.5460  178.1020  141.7510 C   0  0  2  0  0  3  0  0  0  0  0  0
  187.5390  178.9160  141.7070 C   0  0  1  0  0  3  0  0  0  0  0  0
  187.8200  177.6830  140.8690 C   0  0  1  0  0  3  0  0  0  0  0  0
  186.1510  179.4370  141.3670 C   0  0  0  0  0  2  0  0  0  0  0  0
  189.2590  177.1860  141.0810 C   0  0  2  0  0  3  0  0  0  0  0  0
  190.1010  178.2920  141.2380 O   0  0  0  0  0  1  0  0  0  0  0  0
  189.7280  176.3780  140.0280 O   0  0  0  0  0  0  0  0  0  0  0  0
  190.7330  177.1290  139.4040 C   0  0  1  0  0  3  0  0  0  0  0  0
  191.8010  177.5160  140.4420 C   0  0  0  0  0  2  0  0  0  0  0  0
  193.1690  174.9870  137.8340 N   0  0  0  0  0  0  0  0  0  0  0  0
  191.4280  176.2990  138.3920 C   0  0  0  0  0  0  0  0  0  0  0  0
  192.7110  176.1390  138.5270 C   0  0  0  0  0  0  0  0  0  0  0  0
  193.4730  176.9270  139.9200 S   0  0  0  0  0  0  0  0  0  0  0  0
  191.8770  173.4200  136.4800 C   0  0  0  0  0  1  0  0  0  0  0  0
  190.8380  175.3310  137.5310 N   0  0  0  0  0  0  0  0  0  0  0  0
  191.9810  174.5610  137.1570 C   0  0  0  0  0  0  0  0  0  0  0  0
  194.5440  174.8110  137.3860 C   0  0  0  0  0  2  0  0  0  0  0  0
  195.0940  173.6610  137.9440 O   0  0  0  0  0  1  0  0  0  0  0  0
  184.7800  179.6850  143.2990 C   0  0  0  0  0  2  0  0  0  0  0  0
  184.8690  179.7630  144.8140 C   0  0  0  0  0  2  0  0  0  0  0  0
  184.4750  178.4270  145.4160 C   0  0  0  0  0  2  0  0  0  0  0  0
  185.5570  177.8780  146.2960 C   0  0  0  0  0  3  0  0  0  0  0  0
  186.4430  178.6650  146.9030 C   0  0  0  0  0  3  0  0  0  0  0  0
  187.4790  178.0480  147.7860 C   0  0  0  0  0  2  0  0  0  0  0  0
  188.5330  177.3440  146.9530 C   0  0  2  0  0  3  0  0  0  0  0  0
  189.7890  177.2530  147.7420 C   0  0  2  0  0  3  0  0  0  0  0  0
  189.6200  178.2150  146.7300 O   0  0  0  0  0  0  0  0  0  0  0  0
  190.7230  176.1240  147.2930 C   0  0  0  0  0  2  0  0  0  0  0  0
  191.9160  176.5320  146.4270 C   0  0  0  0  0  2  0  0  0  0  0  0
  191.8050  175.9260  145.1080 N   0  0  0  0  0  2  0  0  0  0  0  0
  191.0060  176.8370  144.3020 C   0  0  0  0  0  2  0  0  0  0  0  0
  191.8010  178.0940  144.0370 C   0  0  0  0  0  1  0  0  0  0  0  0
  183.2130  178.1400  142.5360 C   0  0  0  0  0  2  0  0  0  0  0  0
  182.9370  177.0950  140.2780 C   0  0  0  0  0  3  0  0  0  0  0  0
  182.7270  179.6160  139.0690 C   0  0  0  0  0  3  0  0  0  0  0  0
  183.0350  178.2570  141.0580 C   0  0  0  0  0  0  0  0  0  0  0  0
  182.9420  179.5160  140.4450 C   0  0  0  0  0  3  0  0  0  0  0  0
  182.7230  177.1930  138.8980 C   0  0  0  0  0  3  0  0  0  0  0  0
  182.6150  178.4540  138.2940 C   0  0  0  0  0  0  0  0  0  0  0  0
  182.2740  178.5680  136.8450 C   0  0  0  0  0  2  0  0  0  0  0  0
  182.4500  177.3000  136.1530 N   0  0  0  0  0  0  0  0  0  0  0  0
  181.2710  176.4580  135.9520 C   0  0  0  0  0  2  0  0  0  0  0  0
  182.7260  174.6050  136.4320 O   0  0  0  0  0  0  0  0  0  0  0  0
  181.6810  175.0160  135.5860 C   0  0  0  0  0  2  0  0  0  0  0  0
  184.7740  177.4870  135.9130 O   0  0  0  0  0  0  0  0  0  0  0  0
  183.7620  176.7350  136.0220 C   0  0  0  0  0  0  0  0  0  0  0  0
  183.9070  175.2290  135.9680 C   0  0  1  0  0  3  0  0  0  0  0  0
  185.0760  174.8150  136.8660 C   0  0  0  0  0  2  0  0  0  0  0  0
  187.2660  174.9570  135.7320 N   0  0  0  0  0  0  0  0  0  0  0  0
  188.1300  172.5970  136.6980 O   0  0  0  0  0  0  0  0  0  0  0  0
  188.5550  172.9130  135.4580 O   0  0  0  0  0  0  0  0  0  0  0  0
  186.2070  174.0150  136.1760 C   0  0  1  0  0  0  0  0  0  0  0  0
  186.3730  172.6610  138.1910 O   0  0  0  0  0  0  0  0  0  0  0  0
  186.8310  175.6750  134.6600 O   0  0  0  0  0  1  0  0  0  0  0  0
  188.5620  174.3270  135.3650 C   0  0  0  0  0  2  0  0  0  0  0  0
  186.8680  173.0240  137.0940 C   0  0  0  0  0  0  0  0  0  0  0  0
  185.5990  173.2760  134.9570 C   0  0  0  0  0  2  0  0  0  0  0  0
  185.1220  171.8720  135.2250 C   0  0  0  0  0  0  0  0  0  0  0  0
  185.9320  170.9020  135.2160 O   0  0  0  0  0  0  0  0  0  0  0  0
  183.3520  170.6910  136.3080 C   0  0  0  0  0  2  0  0  0  0  0  0
  183.7500  171.6600  135.5470 N   0  0  0  0  0  0  0  0  0  0  0  0
  1 21  1  0  0  0  0
  3  2  1  0  0  0  0
  3  1  1  0  0  0  0
  4  2  1  0  0  0  0
  5  7  1  0  0  0  0
  5  4  1  0  0  0  0
  5  2  1  0  0  0  0
  6  4  1  0  0  0  0
  6  3  1  0  0  0  0
  7  8  1  0  0  0  0
  9  7  1  0  0  0  0
 10  9  1  0  0  0  0
 10 11  1  0  0  0  0
 12 14  1  0  0  0  0
 13 14  2  0  0  0  0
 13 10  1  0  0  0  0
 14 15  1  0  0  0  0
 15 11  1  0  0  0  0
 16 18  1  0  0  0  0
 17 13  1  0  0  0  0
 18 17  2  0  0  0  0
 18 12  1  0  0  0  0
 19 12  1  0  0  0  0
 19 20  1  0  0  0  0
 21 22  1  0  0  0  0
 22 23  1  0  0  0  0
 23 24  1  0  0  0  0
 24 25  2  0  0  0  0
 25 26  1  0  0  0  0
 27 28  1  0  0  0  0
 27 26  1  0  0  0  0
 29 27  1  0  0  0  0
 29 28  1  0  0  0  0
 30 28  1  0  0  0  0
 31 30  1  0  0  0  0
 32 31  1  0  0  0  0
 33 32  1  0  0  0  0
 34 33  1  0  0  0  0
 35  1  1  0  0  0  0
 36 38  1  0  0  0  0
 37 39  1  0  0  0  0
 38 35  1  0  0  0  0
 39 38  2  0  0  0  0
 40 36  2  0  0  0  0
 41 40  1  0  0  0  0
 41 37  2  0  0  0  0
 42 41  1  0  0  0  0
 43 42  1  0  0  0  0
 44 43  1  0  0  0  0
 46 44  1  0  0  0  0
 46 45  1  0  0  0  0
 47 48  2  0  0  0  0
 48 43  1  0  0  0  0
 49 48  1  0  0  0  0
 49 45  1  0  0  0  0
 49 50  1  0  0  0  0
 51 54  1  0  0  0  0
 52 58  1  0  0  0  0
 53 52  1  0  0  0  0
 54 50  1  0  0  0  0
 54 58  1  0  0  0  0
 56 51  1  0  0  0  0
 57 53  1  0  0  0  0
 57 51  1  0  0  0  0
 58 55  2  0  0  0  0
 59 60  1  0  0  0  0
 59 54  1  0  0  0  0
 60 63  1  0  0  0  0
 61 60  2  0  0  0  0
 63 62  2  0  0  0  0
M  END
>  <MODEL>
8

>  <REMARK>
 VINA RESULT:      -4.9      2.496      6.726
  Name = 
  24 active torsions:
  status: ('A' for Active; 'I' for Inactive)
    1  A    between atoms: C_1  and  N_27
    2  A    between atoms: C_1  and  C_48
    3  A    between atoms: C_2  and  N_14
    4  A    between atoms: C_2  and  C_57
    5  A    between atoms: C_3  and  C_4
    6  A    between atoms: C_3  and  N_26
    7  A    between atoms: C_4  and  C_34
    8  A    between atoms: N_6  and  C_12
    9  A    between atoms: N_6  and  C_17
   10  A    between atoms: N_6  and  C_45
   11  A    between atoms: C_7  and  C_56
   12  A    between atoms: C_10  and  O_47
   13  A    between atoms: C_12  and  C_31
   14  A    between atoms: C_13  and  C_25
   15  A    between atoms: C_13  and  C_61
   16  A    between atoms: C_15  and  C_39
   17  A    between atoms: C_15  and  O_47
   18  A    between atoms: N_21  and  C_32
   19  A    between atoms: C_22  and  C_29
   20  A    between atoms: C_23  and  C_29
   21  A    between atoms: C_23  and  C_45
   22  A    between atoms: C_25  and  C_48
   23  A    between atoms: N_26  and  C_43
   24  A    between atoms: C_56  and  C_59
                            x       y       z     vdW  Elec       q    Type
                         _______ _______ _______ _____ _____    ______ ____

>  <TORSDO>
F 24

$$$$
=
 OpenBabel10222415593D

 63 70  0  0  1  0  0  0  0  0999 V2000
  185.9100  178.2360  138.2240 N   0  0  0  0  0  0  0  0  0  0  0  0
  183.3760  178.0700  138.3340 C   0  0  2  0  0  3  0  0  0  0  0  0
  184.6390  178.2140  137.4840 C   0  0  2  0  0  3  0  0  0  0  0  0
  183.1510  176.6840  137.7680 C   0  0  1  0  0  3  0  0  0  0  0  0
  182.1990  177.8100  137.4070 C   0  0  1  0  0  3  0  0  0  0  0  0
  184.4140  176.8200  136.9320 C   0  0  0  0  0  2  0  0  0  0  0  0
  180.8530  177.6510  138.1310 C   0  0  2  0  0  3  0  0  0  0  0  0
  180.7180  176.3210  138.5470 O   0  0  0  0  0  1  0  0  0  0  0  0
  179.7480  178.0140  137.3380 O   0  0  0  0  0  0  0  0  0  0  0  0
  179.1400  179.0790  138.0140 C   0  0  1  0  0  3  0  0  0  0  0  0
  179.7650  179.2200  139.4140 C   0  0  0  0  0  2  0  0  0  0  0  0
  180.6600  182.2220  137.1210 N   0  0  0  0  0  0  0  0  0  0  0  0
  179.4230  180.3510  137.3100 C   0  0  0  0  0  0  0  0  0  0  0  0
  180.0260  181.2870  137.9820 C   0  0  0  0  0  0  0  0  0  0  0  0
  180.4480  180.9190  139.6640 S   0  0  0  0  0  0  0  0  0  0  0  0
  180.6880  182.2590  134.6810 C   0  0  0  0  0  1  0  0  0  0  0  0
  179.4920  180.5510  135.9020 N   0  0  0  0  0  0  0  0  0  0  0  0
  180.2300  181.7710  135.8320 C   0  0  0  0  0  0  0  0  0  0  0  0
  180.9760  183.5890  137.5120 C   0  0  0  0  0  2  0  0  0  0  0  0
  182.2910  183.6770  137.9590 O   0  0  0  0  0  1  0  0  0  0  0  0
  185.5900  178.6460  139.5820 C   0  0  0  0  0  2  0  0  0  0  0  0
  186.6470  178.1270  140.5420 C   0  0  0  0  0  2  0  0  0  0  0  0
  187.9730  178.8050  140.2540 C   0  0  0  0  0  2  0  0  0  0  0  0
  189.0820  178.2180  141.0750 C   0  0  0  0  0  3  0  0  0  0  0  0
  189.6300  177.0390  140.7830 C   0  0  0  0  0  3  0  0  0  0  0  0
  190.7500  176.5280  141.6310 C   0  0  0  0  0  2  0  0  0  0  0  0
  190.2430  176.1610  143.0120 C   0  0  2  0  0  3  0  0  0  0  0  0
  191.2560  176.5650  144.0200 C   0  0  2  0  0  3  0  0  0  0  0  0
  191.1190  175.2280  143.6050 O   0  0  0  0  0  0  0  0  0  0  0  0
  190.6830  176.7790  145.4250 C   0  0  0  0  0  2  0  0  0  0  0  0
  189.7700  177.9920  145.6100 C   0  0  0  0  0  2  0  0  0  0  0  0
  188.8150  177.7400  146.6790 N   0  0  0  0  0  2  0  0  0  0  0  0
  187.5010  178.0550  146.1400 C   0  0  0  0  0  2  0  0  0  0  0  0
  186.4400  177.4920  147.0550 C   0  0  0  0  0  1  0  0  0  0  0  0
  186.5500  176.9230  138.3450 C   0  0  0  0  0  2  0  0  0  0  0  0
  187.9810  177.9010  136.5370 C   0  0  0  0  0  3  0  0  0  0  0  0
  189.4430  175.5180  136.3200 C   0  0  0  0  0  3  0  0  0  0  0  0
  187.6540  176.8010  137.3450 C   0  0  0  0  0  0  0  0  0  0  0  0
  188.3820  175.6080  137.2230 C   0  0  0  0  0  3  0  0  0  0  0  0
  189.0430  177.8130  135.6300 C   0  0  0  0  0  3  0  0  0  0  0  0
  189.7770  176.6230  135.5240 C   0  0  0  0  0  0  0  0  0  0  0  0
  190.9810  176.5560  134.6440 C   0  0  0  0  0  2  0  0  0  0  0  0
  191.5550  175.2190  134.6240 N   0  0  0  0  0  0  0  0  0  0  0  0
  190.6400  174.0790  134.6020 C   0  0  0  0  0  2  0  0  0  0  0  0
  192.1940  173.0240  136.1020 O   0  0  0  0  0  0  0  0  0  0  0  0
  191.3740  172.7770  134.9870 C   0  0  0  0  0  2  0  0  0  0  0  0
  193.7870  175.9250  134.7540 O   0  0  0  0  0  0  0  0  0  0  0  0
  192.9270  175.0280  134.9950 C   0  0  0  0  0  0  0  0  0  0  0  0
  193.3340  173.7170  135.6360 C   0  0  1  0  0  3  0  0  0  0  0  0
  194.2580  174.0140  136.8200 C   0  0  0  0  0  2  0  0  0  0  0  0
  195.3230  171.8260  136.4000 N   0  0  0  0  0  0  0  0  0  0  0  0
  197.6620  172.9030  135.6180 O   0  0  0  0  0  0  0  0  0  0  0  0
  197.7500  171.7310  136.2790 O   0  0  0  0  0  0  0  0  0  0  0  0
  195.5810  173.2130  136.8630 C   0  0  1  0  0  0  0  0  0  0  0  0
  196.5790  174.9330  135.4600 O   0  0  0  0  0  0  0  0  0  0  0  0
  194.6290  171.1390  137.3510 O   0  0  0  0  0  1  0  0  0  0  0  0
  196.5350  171.0350  136.0590 C   0  0  0  0  0  2  0  0  0  0  0  0
  196.6400  173.7800  135.9580 C   0  0  0  0  0  0  0  0  0  0  0  0
  196.0920  173.2060  138.3260 C   0  0  0  0  0  2  0  0  0  0  0  0
  196.3790  174.5620  138.9180 C   0  0  0  0  0  0  0  0  0  0  0  0
  195.5230  175.1440  139.6420 O   0  0  0  0  0  0  0  0  0  0  0  0
  198.7000  174.8460  139.3980 C   0  0  0  0  0  2  0  0  0  0  0  0
  197.6570  175.1540  138.6970 N   0  0  0  0  0  0  0  0  0  0  0  0
  1 35  1  0  0  0  0
  1 21  1  0  0  0  0
  3  1  1  0  0  0  0
  3  2  1  0  0  0  0
  4  2  1  0  0  0  0
  5  4  1  0  0  0  0
  5  7  1  0  0  0  0
  5  2  1  0  0  0  0
  6  3  1  0  0  0  0
  6  4  1  0  0  0  0
  7  8  1  0  0  0  0
  9 10  1  0  0  0  0
  9  7  1  0  0  0  0
 10 11  1  0  0  0  0
 11 15  1  0  0  0  0
 12 19  1  0  0  0  0
 12 14  1  0  0  0  0
 13 14  2  0  0  0  0
 13 10  1  0  0  0  0
 14 15  1  0  0  0  0
 16 18  1  0  0  0  0
 17 13  1  0  0  0  0
 18 17  2  0  0  0  0
 18 12  1  0  0  0  0
 19 20  1  0  0  0  0
 21 22  1  0  0  0  0
 23 22  1  0  0  0  0
 23 24  1  0  0  0  0
 25 24  2  0  0  0  0
 25 26  1  0  0  0  0
 26 27  1  0  0  0  0
 27 29  1  0  0  0  0
 27 28  1  0  0  0  0
 28 30  1  0  0  0  0
 29 28  1  0  0  0  0
 30 31  1  0  0  0  0
 31 32  1  0  0  0  0
 33 32  1  0  0  0  0
 33 34  1  0  0  0  0
 36 38  1  0  0  0  0
 37 39  1  0  0  0  0
 38 35  1  0  0  0  0
 39 38  2  0  0  0  0
 40 36  2  0  0  0  0
 41 40  1  0  0  0  0
 41 37  2  0  0  0  0
 42 41  1  0  0  0  0
 43 42  1  0  0  0  0
 43 48  1  0  0  0  0
 44 43  1  0  0  0  0
 44 46  1  0  0  0  0
 46 45  1  0  0  0  0
 47 48  2  0  0  0  0
 48 49  1  0  0  0  0
 49 45  1  0  0  0  0
 49 50  1  0  0  0  0
 50 54  1  0  0  0  0
 51 54  1  0  0  0  0
 51 56  1  0  0  0  0
 52 58  1  0  0  0  0
 52 53  1  0  0  0  0
 54 59  1  0  0  0  0
 55 58  2  0  0  0  0
 57 53  1  0  0  0  0
 57 51  1  0  0  0  0
 58 54  1  0  0  0  0
 59 60  1  0  0  0  0
 60 61  2  0  0  0  0
 63 60  1  0  0  0  0
 63 62  2  0  0  0  0
M  END
>  <MODEL>
9

>  <REMARK>
 VINA RESULT:      -4.5      4.777     10.944
  Name = 
  24 active torsions:
  status: ('A' for Active; 'I' for Inactive)
    1  A    between atoms: C_1  and  N_27
    2  A    between atoms: C_1  and  C_48
    3  A    between atoms: C_2  and  N_14
    4  A    between atoms: C_2  and  C_57
    5  A    between atoms: C_3  and  C_4
    6  A    between atoms: C_3  and  N_26
    7  A    between atoms: C_4  and  C_34
    8  A    between atoms: N_6  and  C_12
    9  A    between atoms: N_6  and  C_17
   10  A    between atoms: N_6  and  C_45
   11  A    between atoms: C_7  and  C_56
   12  A    between atoms: C_10  and  O_47
   13  A    between atoms: C_12  and  C_31
   14  A    between atoms: C_13  and  C_25
   15  A    between atoms: C_13  and  C_61
   16  A    between atoms: C_15  and  C_39
   17  A    between atoms: C_15  and  O_47
   18  A    between atoms: N_21  and  C_32
   19  A    between atoms: C_22  and  C_29
   20  A    between atoms: C_23  and  C_29
   21  A    between atoms: C_23  and  C_45
   22  A    between atoms: C_25  and  C_48
   23  A    between atoms: N_26  and  C_43
   24  A    between atoms: C_56  and  C_59
                            x       y       z     vdW  Elec       q    Type
                         _______ _______ _______ _____ _____    ______ ____

>  <TORSDO>
F 24

$$$$
