=
 OpenBabel10222419343D

 39 42  0  0  1  0  0  0  0  0999 V2000
  188.5130  176.8270  144.4110 N   0  0  0  0  0  2  0  0  0  0  0  0
  188.5690  177.9350  142.2080 C   0  0  0  0  0  0  0  0  0  0  0  0
  188.2910  177.5560  145.6520 C   0  0  2  0  0  3  0  0  0  0  0  0
  187.4080  178.7590  142.5390 C   0  0  0  0  0  3  0  0  0  0  0  0
  185.1610  179.6040  142.2200 C   0  0  0  0  0  2  0  0  0  0  0  0
  190.5280  177.0790  146.7930 N   0  0  0  0  0  2  0  0  0  0  0  0
  186.4130  178.9800  141.6870 C   0  0  0  0  0  0  0  0  0  0  0  0
  188.7150  177.4310  140.9720 C   0  0  0  0  0  3  0  0  0  0  0  0
  184.5960  178.7260  143.3440 C   0  0  1  0  0  3  0  0  0  0  0  0
  188.5450  176.1970  147.6230 O   0  0  0  0  0  0  0  0  0  0  0  0
  191.4160  176.8220  144.5310 C   0  0  0  0  0  2  0  0  0  0  0  0
  185.1220  179.1260  144.6940 C   0  0  0  0  0  3  0  0  0  0  0  0
  185.9830  178.3680  145.3310 C   0  0  0  0  0  0  0  0  0  0  0  0
  189.1050  176.9220  146.7520 C   0  0  0  0  0  0  0  0  0  0  0  0
  189.2930  177.3710  143.3460 C   0  0  0  0  0  0  0  0  0  0  0  0
  190.6310  177.3680  143.3830 C   0  0  0  0  0  3  0  0  0  0  0  0
  185.5240  178.5580  139.5280 O   0  0  0  0  0  0  0  0  0  0  0  0
  191.2980  177.7320  145.7440 C   0  0  0  0  0  2  0  0  0  0  0  0
  187.7740  177.7810  139.8380 C   0  0  1  0  0  3  0  0  0  0  0  0
  186.4990  178.4420  140.3140 C   0  0  0  0  0  0  0  0  0  0  0  0
  186.8220  177.5940  145.9740 C   0  0  0  0  0  3  0  0  0  0  0  0
  183.1050  178.6680  143.3000 C   0  0  0  0  0  0  0  0  0  0  0  0
  182.4240  178.6900  144.3660 O   0  0  0  0  0  0  0  0  0  0  0  0
  182.4640  178.6610  142.0280 N   0  0  0  0  0  2  0  0  0  0  0  0
  181.0180  178.6000  141.8680 C   0  0  0  0  0  2  0  0  0  0  0  0
  180.1070  180.6330  142.7510 O   0  0  0  0  0  0  0  0  0  0  0  0
  180.4590  179.9780  141.7260 C   0  0  0  0  0  0  0  0  0  0  0  0
  180.3190  180.5250  140.4460 O   0  0  0  0  0  0  0  0  0  0  0  0
  180.0630  179.7110  139.3080 C   0  0  0  0  0  1  0  0  0  0  0  0
  188.4520  178.6190  138.8620 N   0  0  0  0  0  2  0  0  0  0  0  0
  189.8040  178.0840  138.7460 C   0  0  0  0  0  2  0  0  0  0  0  0
  189.1130  177.8040  136.3720 C   0  0  0  0  0  3  0  0  0  0  0  0
  189.2780  177.2570  135.0950 C   0  0  0  0  0  3  0  0  0  0  0  0
  190.3290  176.3720  134.8430 C   0  0  0  0  0  3  0  0  0  0  0  0
  191.2180  176.0290  135.8700 C   0  0  0  0  0  3  0  0  0  0  0  0
  189.9990  177.4670  137.4040 C   0  0  0  0  0  0  0  0  0  0  0  0
  191.0530  176.5670  137.1530 C   0  0  0  0  0  0  0  0  0  0  0  0
  193.3420  176.7030  137.9180 N   0  0  0  0  0  1  0  0  0  0  0  0
  192.0170  176.1780  138.2280 C   0  0  0  0  0  2  0  0  0  0  0  0
  1  3  1  0  0  0  0
  2  4  1  0  0  0  0
  2 15  1  0  0  0  0
  3 21  1  1  0  0  0
  3 14  1  0  0  0  0
  5  9  1  0  0  0  0
  7  5  1  0  0  0  0
  7  4  2  0  0  0  0
  8  2  2  0  0  0  0
  9 22  1  1  0  0  0
  9 12  1  0  0  0  0
 11 18  1  0  0  0  0
 12 13  2  0  0  0  0
 13 21  2  0  0  0  0
 14  6  1  0  0  0  0
 14 10  2  0  0  0  0
 15 16  2  0  0  0  0
 15  1  1  0  0  0  0
 16 11  1  0  0  0  0
 17 20  2  0  0  0  0
 18  6  1  0  0  0  0
 19 30  1  6  0  0  0
 19 20  1  0  0  0  0
 19  8  1  0  0  0  0
 20  7  1  0  0  0  0
 22 23  2  0  0  0  0
 24 22  1  0  0  0  0
 25 24  1  0  0  0  0
 27 25  1  0  0  0  0
 27 26  2  0  0  0  0
 28 27  1  0  0  0  0
 29 28  1  0  0  0  0
 31 30  1  0  0  0  0
 32 36  1  0  0  0  0
 33 32  2  0  0  0  0
 34 33  1  0  0  0  0
 34 35  2  0  0  0  0
 35 37  1  0  0  0  0
 36 31  1  0  0  0  0
 37 36  2  0  0  0  0
 37 39  1  0  0  0  0
 38 39  1  0  0  0  0
M  END
>  <MODEL>
1

>  <REMARK>
 VINA RESULT:      -9.0      0.000      0.000
  Name = 
  8 active torsions:
  status: ('A' for Active; 'I' for Inactive)
    1  A    between atoms: N_3  and  C_8
    2  A    between atoms: N_3  and  C_30
    3  A    between atoms: C_8  and  C_35
    4  A    between atoms: C_10  and  C_31
    5  A    between atoms: C_10  and  N_37
    6  A    between atoms: O_15  and  C_31
    7  A    between atoms: C_17  and  C_23
    8  A    between atoms: C_27  and  C_39
                            x       y       z     vdW  Elec       q    Type
                         _______ _______ _______ _____ _____    ______ ____

>  <TORSDO>
F 8

$$$$
=
 OpenBabel10222419343D

 39 42  0  0  1  0  0  0  0  0999 V2000
  184.5490  177.6920  141.9880 N   0  0  0  0  0  2  0  0  0  0  0  0
  186.9560  178.0890  142.3550 C   0  0  0  0  0  0  0  0  0  0  0  0
  183.7070  178.6090  141.2330 C   0  0  2  0  0  3  0  0  0  0  0  0
  187.1470  178.5080  140.9670 C   0  0  0  0  0  3  0  0  0  0  0  0
  188.1340  178.3820  138.7600 C   0  0  0  0  0  2  0  0  0  0  0  0
  182.0980  179.2890  143.0990 N   0  0  0  0  0  2  0  0  0  0  0  0
  188.1830  178.1180  140.2320 C   0  0  0  0  0  0  0  0  0  0  0  0
  187.8870  177.3480  142.9760 C   0  0  0  0  0  3  0  0  0  0  0  0
  186.8900  177.7100  138.1650 C   0  0  1  0  0  3  0  0  0  0  0  0
  181.3700  178.0320  141.2860 O   0  0  0  0  0  0  0  0  0  0  0  0
  183.9290  178.7450  144.6230 C   0  0  0  0  0  2  0  0  0  0  0  0
  185.6990  178.6280  138.1580 C   0  0  0  0  0  3  0  0  0  0  0  0
  184.6940  178.4320  138.9780 C   0  0  0  0  0  0  0  0  0  0  0  0
  182.3300  178.6350  141.8460 C   0  0  0  0  0  0  0  0  0  0  0  0
  185.5830  178.1570  142.8550 C   0  0  0  0  0  0  0  0  0  0  0  0
  185.3140  178.6370  144.0750 C   0  0  0  0  0  3  0  0  0  0  0  0
  190.1720  176.8280  140.1400 O   0  0  0  0  0  0  0  0  0  0  0  0
  183.1580  179.8530  143.9220 C   0  0  0  0  0  2  0  0  0  0  0  0
  189.2170  177.0130  142.3340 C   0  0  1  0  0  3  0  0  0  0  0  0
  189.2380  177.2860  140.8470 C   0  0  0  0  0  0  0  0  0  0  0  0
  183.6820  178.2150  139.7820 C   0  0  0  0  0  3  0  0  0  0  0  0
  187.1710  177.1200  136.8230 C   0  0  0  0  0  0  0  0  0  0  0  0
  186.2990  176.4260  136.2250 O   0  0  0  0  0  0  0  0  0  0  0  0
  188.4160  177.4180  136.1990 N   0  0  0  0  0  2  0  0  0  0  0  0
  188.7970  176.8920  134.8950 C   0  0  0  0  0  2  0  0  0  0  0  0
  190.9790  175.9450  134.5970 O   0  0  0  0  0  0  0  0  0  0  0  0
  189.8070  175.8030  135.0570 C   0  0  0  0  0  0  0  0  0  0  0  0
  189.4340  174.6230  135.7090 O   0  0  0  0  0  0  0  0  0  0  0  0
  189.9750  174.2650  136.9750 C   0  0  0  0  0  1  0  0  0  0  0  0
  190.2910  177.7300  143.0010 N   0  0  0  0  0  2  0  0  0  0  0  0
  189.7350  178.2010  144.2650 C   0  0  0  0  0  2  0  0  0  0  0  0
  191.5350  176.7860  145.2400 C   0  0  0  0  0  3  0  0  0  0  0  0
  192.0920  176.0480  146.2900 C   0  0  0  0  0  3  0  0  0  0  0  0
  191.4090  175.9290  147.5020 C   0  0  0  0  0  3  0  0  0  0  0  0
  190.1610  176.5450  147.6670 C   0  0  0  0  0  3  0  0  0  0  0  0
  190.2880  177.4070  145.3980 C   0  0  0  0  0  0  0  0  0  0  0  0
  189.5930  177.2780  146.6160 C   0  0  0  0  0  0  0  0  0  0  0  0
  187.9390  177.9510  148.2460 N   0  0  0  0  0  1  0  0  0  0  0  0
  188.2590  177.9210  146.8230 C   0  0  0  0  0  2  0  0  0  0  0  0
  1 15  1  0  0  0  0
  2 15  1  0  0  0  0
  2  8  2  0  0  0  0
  3 21  1  6  0  0  0
  3 14  1  0  0  0  0
  3  1  1  0  0  0  0
  4  2  1  0  0  0  0
  5  7  1  0  0  0  0
  6 18  1  0  0  0  0
  7 20  1  0  0  0  0
  7  4  2  0  0  0  0
  9 22  1  6  0  0  0
  9  5  1  0  0  0  0
 10 14  2  0  0  0  0
 12  9  1  0  0  0  0
 12 13  2  0  0  0  0
 13 21  2  0  0  0  0
 14  6  1  0  0  0  0
 15 16  2  0  0  0  0
 16 11  1  0  0  0  0
 17 20  2  0  0  0  0
 18 11  1  0  0  0  0
 19  8  1  0  0  0  0
 19 30  1  1  0  0  0
 20 19  1  0  0  0  0
 23 22  2  0  0  0  0
 24 22  1  0  0  0  0
 25 27  1  0  0  0  0
 25 24  1  0  0  0  0
 26 27  2  0  0  0  0
 27 28  1  0  0  0  0
 28 29  1  0  0  0  0
 30 31  1  0  0  0  0
 31 36  1  0  0  0  0
 32 36  2  0  0  0  0
 32 33  1  0  0  0  0
 33 34  2  0  0  0  0
 34 35  1  0  0  0  0
 36 37  1  0  0  0  0
 37 39  1  0  0  0  0
 37 35  2  0  0  0  0
 39 38  1  0  0  0  0
M  END
>  <MODEL>
2

>  <REMARK>
 VINA RESULT:      -9.0      2.559      8.270
  Name = 
  8 active torsions:
  status: ('A' for Active; 'I' for Inactive)
    1  A    between atoms: N_3  and  C_8
    2  A    between atoms: N_3  and  C_30
    3  A    between atoms: C_8  and  C_35
    4  A    between atoms: C_10  and  C_31
    5  A    between atoms: C_10  and  N_37
    6  A    between atoms: O_15  and  C_31
    7  A    between atoms: C_17  and  C_23
    8  A    between atoms: C_27  and  C_39
                            x       y       z     vdW  Elec       q    Type
                         _______ _______ _______ _____ _____    ______ ____

>  <TORSDO>
F 8

$$$$
=
 OpenBabel10222419343D

 39 42  0  0  1  0  0  0  0  0999 V2000
  183.8400  177.6080  141.4450 N   0  0  0  0  0  2  0  0  0  0  0  0
  186.0580  178.1070  142.4030 C   0  0  0  0  0  0  0  0  0  0  0  0
  183.1830  178.4840  140.4860 C   0  0  2  0  0  3  0  0  0  0  0  0
  186.5790  178.5230  141.1010 C   0  0  0  0  0  3  0  0  0  0  0  0
  188.0970  178.4220  139.2180 C   0  0  0  0  0  2  0  0  0  0  0  0
  181.1280  179.1110  141.8710 N   0  0  0  0  0  2  0  0  0  0  0  0
  187.7810  178.1710  140.6600 C   0  0  0  0  0  0  0  0  0  0  0  0
  186.8280  177.4090  143.2520 C   0  0  0  0  0  3  0  0  0  0  0  0
  187.0710  177.6950  138.3400 C   0  0  1  0  0  3  0  0  0  0  0  0
  180.9320  177.8130  139.9550 O   0  0  0  0  0  0  0  0  0  0  0  0
  182.5320  178.6530  143.8190 C   0  0  0  0  0  2  0  0  0  0  0  0
  185.8870  178.5630  138.0160 C   0  0  0  0  0  3  0  0  0  0  0  0
  184.7150  178.3320  138.5580 C   0  0  0  0  0  0  0  0  0  0  0  0
  181.6940  178.4580  140.7300 C   0  0  0  0  0  0  0  0  0  0  0  0
  184.6020  178.1220  142.5380 C   0  0  0  0  0  0  0  0  0  0  0  0
  184.0140  178.5980  143.6410 C   0  0  0  0  0  3  0  0  0  0  0  0
  189.7760  176.9620  141.0960 O   0  0  0  0  0  0  0  0  0  0  0  0
  181.9230  179.7240  142.9270 C   0  0  0  0  0  2  0  0  0  0  0  0
  188.2890  177.1240  142.9740 C   0  0  1  0  0  3  0  0  0  0  0  0
  188.6770  177.3870  141.5350 C   0  0  0  0  0  0  0  0  0  0  0  0
  183.5420  178.0790  139.0830 C   0  0  0  0  0  3  0  0  0  0  0  0
  187.7050  177.1080  137.1230 C   0  0  0  0  0  0  0  0  0  0  0  0
  187.7360  177.7500  136.0340 O   0  0  0  0  0  0  0  0  0  0  0  0
  188.3390  175.8370  137.2350 N   0  0  0  0  0  2  0  0  0  0  0  0
  188.9820  175.1680  136.1130 C   0  0  0  0  0  2  0  0  0  0  0  0
  188.7710  172.7810  136.0730 O   0  0  0  0  0  0  0  0  0  0  0  0
  189.4020  173.7900  136.5090 C   0  0  0  0  0  0  0  0  0  0  0  0
  190.4880  173.6340  137.3760 O   0  0  0  0  0  0  0  0  0  0  0  0
  191.5950  174.5270  137.3570 C   0  0  0  0  0  1  0  0  0  0  0  0
  189.1310  177.8890  143.8780 N   0  0  0  0  0  2  0  0  0  0  0  0
  189.5760  176.9500  144.9020 C   0  0  0  0  0  2  0  0  0  0  0  0
  187.7670  177.7800  146.3960 C   0  0  0  0  0  3  0  0  0  0  0  0
  187.2870  178.1850  147.6460 C   0  0  0  0  0  3  0  0  0  0  0  0
  188.1410  178.2030  148.7510 C   0  0  0  0  0  3  0  0  0  0  0  0
  189.4810  177.8180  148.6080 C   0  0  0  0  0  3  0  0  0  0  0  0
  189.1050  177.3930  146.2450 C   0  0  0  0  0  0  0  0  0  0  0  0
  189.9690  177.4210  147.3560 C   0  0  0  0  0  0  0  0  0  0  0  0
  191.5570  175.6140  147.5910 N   0  0  0  0  0  1  0  0  0  0  0  0
  191.4050  177.0200  147.2370 C   0  0  0  0  0  2  0  0  0  0  0  0
  1 15  1  0  0  0  0
  2 15  1  0  0  0  0
  2  8  2  0  0  0  0
  3 21  1  6  0  0  0
  3 14  1  0  0  0  0
  3  1  1  0  0  0  0
  4  2  1  0  0  0  0
  5  7  1  0  0  0  0
  6 18  1  0  0  0  0
  7  4  2  0  0  0  0
  7 20  1  0  0  0  0
  9 22  1  6  0  0  0
  9  5  1  0  0  0  0
 10 14  2  0  0  0  0
 12  9  1  0  0  0  0
 12 13  2  0  0  0  0
 13 21  2  0  0  0  0
 14  6  1  0  0  0  0
 15 16  2  0  0  0  0
 16 11  1  0  0  0  0
 17 20  2  0  0  0  0
 18 11  1  0  0  0  0
 19  8  1  0  0  0  0
 19 30  1  1  0  0  0
 20 19  1  0  0  0  0
 22 24  1  0  0  0  0
 23 22  2  0  0  0  0
 25 27  1  0  0  0  0
 25 24  1  0  0  0  0
 26 27  2  0  0  0  0
 27 28  1  0  0  0  0
 29 28  1  0  0  0  0
 30 31  1  0  0  0  0
 31 36  1  0  0  0  0
 32 33  1  0  0  0  0
 33 34  2  0  0  0  0
 35 34  1  0  0  0  0
 36 32  2  0  0  0  0
 36 37  1  0  0  0  0
 37 35  2  0  0  0  0
 39 37  1  0  0  0  0
 39 38  1  0  0  0  0
M  END
>  <MODEL>
3

>  <REMARK>
 VINA RESULT:      -8.8      2.623      8.743
  Name = 
  8 active torsions:
  status: ('A' for Active; 'I' for Inactive)
    1  A    between atoms: N_3  and  C_8
    2  A    between atoms: N_3  and  C_30
    3  A    between atoms: C_8  and  C_35
    4  A    between atoms: C_10  and  C_31
    5  A    between atoms: C_10  and  N_37
    6  A    between atoms: O_15  and  C_31
    7  A    between atoms: C_17  and  C_23
    8  A    between atoms: C_27  and  C_39
                            x       y       z     vdW  Elec       q    Type
                         _______ _______ _______ _____ _____    ______ ____

>  <TORSDO>
F 8

$$$$
=
 OpenBabel10222419343D

 39 42  0  0  1  0  0  0  0  0999 V2000
  188.7420  176.6400  144.4420 N   0  0  0  0  0  2  0  0  0  0  0  0
  189.1780  177.6460  142.2320 C   0  0  0  0  0  0  0  0  0  0  0  0
  188.3450  177.4290  145.6000 C   0  0  2  0  0  3  0  0  0  0  0  0
  188.0010  178.5070  142.3390 C   0  0  0  0  0  3  0  0  0  0  0  0
  185.8580  179.3810  141.6290 C   0  0  0  0  0  2  0  0  0  0  0  0
  190.3580  176.9600  147.1040 N   0  0  0  0  0  2  0  0  0  0  0  0
  187.1610  178.7090  141.3300 C   0  0  0  0  0  0  0  0  0  0  0  0
  189.5060  177.0850  141.0580 C   0  0  0  0  0  3  0  0  0  0  0  0
  185.0970  178.5660  142.6830 C   0  0  1  0  0  3  0  0  0  0  0  0
  188.2460  176.1560  147.6410 O   0  0  0  0  0  0  0  0  0  0  0  0
  191.5880  176.5840  145.0260 C   0  0  0  0  0  2  0  0  0  0  0  0
  185.4120  179.0160  144.0830 C   0  0  0  0  0  3  0  0  0  0  0  0
  186.1400  178.2710  144.8810 C   0  0  0  0  0  0  0  0  0  0  0  0
  188.9560  176.8290  146.8410 C   0  0  0  0  0  0  0  0  0  0  0  0
  189.6960  177.1200  143.4950 C   0  0  0  0  0  0  0  0  0  0  0  0
  191.0100  177.0920  143.7460 C   0  0  0  0  0  3  0  0  0  0  0  0
  186.6160  178.2080  139.0760 O   0  0  0  0  0  0  0  0  0  0  0  0
  191.3020  177.5500  146.1650 C   0  0  0  0  0  2  0  0  0  0  0  0
  188.7660  177.4020  139.7740 C   0  0  1  0  0  3  0  0  0  0  0  0
  187.4500  178.1080  140.0120 C   0  0  0  0  0  0  0  0  0  0  0  0
  186.8450  177.5110  145.6810 C   0  0  0  0  0  3  0  0  0  0  0  0
  183.6310  178.5360  142.4040 C   0  0  0  0  0  0  0  0  0  0  0  0
  182.7940  178.8490  143.2990 O   0  0  0  0  0  0  0  0  0  0  0  0
  183.1990  178.2160  141.0850 N   0  0  0  0  0  2  0  0  0  0  0  0
  181.7950  178.1510  140.7020 C   0  0  0  0  0  2  0  0  0  0  0  0
  182.1000  179.8930  139.0850 O   0  0  0  0  0  0  0  0  0  0  0  0
  181.3910  179.4170  140.0200 C   0  0  0  0  0  0  0  0  0  0  0  0
  180.2290  180.0730  140.4400 O   0  0  0  0  0  0  0  0  0  0  0  0
  179.8530  180.1260  141.8110 C   0  0  0  0  0  1  0  0  0  0  0  0
  189.6130  178.1810  138.8860 N   0  0  0  0  0  2  0  0  0  0  0  0
  189.5730  177.5010  137.5960 C   0  0  0  0  0  2  0  0  0  0  0  0
  191.9270  176.7400  137.8600 C   0  0  0  0  0  3  0  0  0  0  0  0
  192.9120  175.7460  137.8460 C   0  0  0  0  0  3  0  0  0  0  0  0
  192.5730  174.4300  137.5250 C   0  0  0  0  0  3  0  0  0  0  0  0
  191.2460  174.1030  137.2130 C   0  0  0  0  0  3  0  0  0  0  0  0
  190.5980  176.4200  137.5520 C   0  0  0  0  0  0  0  0  0  0  0  0
  190.2580  175.0960  137.2170 C   0  0  0  0  0  0  0  0  0  0  0  0
  188.7270  173.2620  136.8430 N   0  0  0  0  0  1  0  0  0  0  0  0
  188.8520  174.7140  136.8780 C   0  0  0  0  0  2  0  0  0  0  0  0
  1  3  1  0  0  0  0
  2  4  1  0  0  0  0
  2 15  1  0  0  0  0
  3 21  1  1  0  0  0
  3 14  1  0  0  0  0
  5  9  1  0  0  0  0
  7  5  1  0  0  0  0
  7  4  2  0  0  0  0
  8  2  2  0  0  0  0
  9 22  1  6  0  0  0
  9 12  1  0  0  0  0
 11 18  1  0  0  0  0
 12 13  2  0  0  0  0
 13 21  2  0  0  0  0
 14  6  1  0  0  0  0
 14 10  2  0  0  0  0
 15 16  2  0  0  0  0
 15  1  1  0  0  0  0
 16 11  1  0  0  0  0
 17 20  2  0  0  0  0
 18  6  1  0  0  0  0
 19 30  1  6  0  0  0
 19 20  1  0  0  0  0
 19  8  1  0  0  0  0
 20  7  1  0  0  0  0
 22 23  2  0  0  0  0
 24 22  1  0  0  0  0
 25 24  1  0  0  0  0
 26 27  2  0  0  0  0
 27 28  1  0  0  0  0
 27 25  1  0  0  0  0
 28 29  1  0  0  0  0
 31 30  1  0  0  0  0
 33 32  1  0  0  0  0
 34 33  2  0  0  0  0
 35 37  2  0  0  0  0
 35 34  1  0  0  0  0
 36 31  1  0  0  0  0
 36 32  2  0  0  0  0
 37 36  1  0  0  0  0
 38 39  1  0  0  0  0
 39 37  1  0  0  0  0
M  END
>  <MODEL>
4

>  <REMARK>
 VINA RESULT:      -8.8      1.437      2.004
  Name = 
  8 active torsions:
  status: ('A' for Active; 'I' for Inactive)
    1  A    between atoms: N_3  and  C_8
    2  A    between atoms: N_3  and  C_30
    3  A    between atoms: C_8  and  C_35
    4  A    between atoms: C_10  and  C_31
    5  A    between atoms: C_10  and  N_37
    6  A    between atoms: O_15  and  C_31
    7  A    between atoms: C_17  and  C_23
    8  A    between atoms: C_27  and  C_39
                            x       y       z     vdW  Elec       q    Type
                         _______ _______ _______ _____ _____    ______ ____

>  <TORSDO>
F 8

$$$$
=
 OpenBabel10222419343D

 39 42  0  0  1  0  0  0  0  0999 V2000
  185.4260  179.2760  142.4430 N   0  0  0  0  0  2  0  0  0  0  0  0
  187.2810  178.0970  141.3220 C   0  0  0  0  0  0  0  0  0  0  0  0
  184.4750  178.5970  143.3120 C   0  0  2  0  0  3  0  0  0  0  0  0
  187.5910  177.3360  142.5320 C   0  0  0  0  0  3  0  0  0  0  0  0
  189.0200  176.5820  144.3350 C   0  0  0  0  0  2  0  0  0  0  0  0
  182.3460  179.0110  141.9590 N   0  0  0  0  0  2  0  0  0  0  0  0
  188.8330  177.1320  142.9560 C   0  0  0  0  0  0  0  0  0  0  0  0
  188.2660  178.5540  140.5340 C   0  0  0  0  0  3  0  0  0  0  0  0
  188.3520  177.5190  145.3500 C   0  0  1  0  0  3  0  0  0  0  0  0
  182.6600  180.0050  144.0350 O   0  0  0  0  0  0  0  0  0  0  0  0
  183.8270  179.1560  140.0210 C   0  0  0  0  0  2  0  0  0  0  0  0
  186.9220  177.1400  145.6160 C   0  0  0  0  0  3  0  0  0  0  0  0
  185.9350  177.8780  145.1660 C   0  0  0  0  0  0  0  0  0  0  0  0
  183.1150  179.2290  143.1470 C   0  0  0  0  0  0  0  0  0  0  0  0
  185.9340  178.6640  141.2580 C   0  0  0  0  0  0  0  0  0  0  0  0
  185.2130  178.6090  140.1320 C   0  0  0  0  0  3  0  0  0  0  0  0
  191.1440  177.5250  142.5830 O   0  0  0  0  0  0  0  0  0  0  0  0
  182.8450  178.2910  140.7960 C   0  0  0  0  0  2  0  0  0  0  0  0
  189.7220  178.2100  140.7750 C   0  0  1  0  0  3  0  0  0  0  0  0
  189.9680  177.6220  142.1460 C   0  0  0  0  0  0  0  0  0  0  0  0
  184.9560  178.6340  144.7370 C   0  0  0  0  0  3  0  0  0  0  0  0
  189.1580  177.6420  146.6000 C   0  0  0  0  0  0  0  0  0  0  0  0
  188.6960  178.2410  147.6130 O   0  0  0  0  0  0  0  0  0  0  0  0
  190.4320  177.0050  146.6510 N   0  0  0  0  0  2  0  0  0  0  0  0
  191.3040  177.0640  147.8150 C   0  0  0  0  0  2  0  0  0  0  0  0
  192.4040  175.2370  146.7220 O   0  0  0  0  0  0  0  0  0  0  0  0
  192.3190  175.9700  147.7520 C   0  0  0  0  0  0  0  0  0  0  0  0
  193.1600  175.7600  148.8490 O   0  0  0  0  0  0  0  0  0  0  0  0
  193.5350  176.8210  149.7190 C   0  0  0  0  0  1  0  0  0  0  0  0
  190.2040  177.3130  139.7390 N   0  0  0  0  0  2  0  0  0  0  0  0
  189.4570  177.6540  138.5330 C   0  0  0  0  0  2  0  0  0  0  0  0
  190.0740  175.3900  137.7060 C   0  0  0  0  0  3  0  0  0  0  0  0
  189.7910  174.2100  137.0100 C   0  0  0  0  0  3  0  0  0  0  0  0
  188.5590  174.0540  136.3710 C   0  0  0  0  0  3  0  0  0  0  0  0
  187.6060  175.0810  136.4250 C   0  0  0  0  0  3  0  0  0  0  0  0
  189.1270  176.4200  137.7660 C   0  0  0  0  0  0  0  0  0  0  0  0
  187.8880  176.2680  137.1130 C   0  0  0  0  0  0  0  0  0  0  0  0
  186.9410  178.1590  135.9430 N   0  0  0  0  0  1  0  0  0  0  0  0
  186.8510  177.3450  137.1490 C   0  0  0  0  0  2  0  0  0  0  0  0
  1  3  1  0  0  0  0
  2  4  1  0  0  0  0
  3 21  1  1  0  0  0
  4  7  2  0  0  0  0
  5  9  1  0  0  0  0
  6 14  1  0  0  0  0
  7  5  1  0  0  0  0
  8 19  1  0  0  0  0
  8  2  2  0  0  0  0
  9 12  1  0  0  0  0
  9 22  1  1  0  0  0
 11 16  1  0  0  0  0
 11 18  1  0  0  0  0
 13 12  2  0  0  0  0
 14  3  1  0  0  0  0
 14 10  2  0  0  0  0
 15  2  1  0  0  0  0
 15  1  1  0  0  0  0
 16 15  2  0  0  0  0
 18  6  1  0  0  0  0
 19 30  1  6  0  0  0
 19 20  1  0  0  0  0
 20 17  2  0  0  0  0
 20  7  1  0  0  0  0
 21 13  2  0  0  0  0
 22 24  1  0  0  0  0
 22 23  2  0  0  0  0
 24 25  1  0  0  0  0
 26 27  2  0  0  0  0
 27 25  1  0  0  0  0
 27 28  1  0  0  0  0
 28 29  1  0  0  0  0
 31 30  1  0  0  0  0
 32 36  1  0  0  0  0
 33 32  2  0  0  0  0
 34 35  2  0  0  0  0
 34 33  1  0  0  0  0
 35 37  1  0  0  0  0
 36 31  1  0  0  0  0
 37 39  1  0  0  0  0
 37 36  2  0  0  0  0
 38 39  1  0  0  0  0
M  END
>  <MODEL>
5

>  <REMARK>
 VINA RESULT:      -8.8      2.309      7.247
  Name = 
  8 active torsions:
  status: ('A' for Active; 'I' for Inactive)
    1  A    between atoms: N_3  and  C_8
    2  A    between atoms: N_3  and  C_30
    3  A    between atoms: C_8  and  C_35
    4  A    between atoms: C_10  and  C_31
    5  A    between atoms: C_10  and  N_37
    6  A    between atoms: O_15  and  C_31
    7  A    between atoms: C_17  and  C_23
    8  A    between atoms: C_27  and  C_39
                            x       y       z     vdW  Elec       q    Type
                         _______ _______ _______ _____ _____    ______ ____

>  <TORSDO>
F 8

$$$$
=
 OpenBabel10222419343D

 39 42  0  0  1  0  0  0  0  0999 V2000
  187.3200  178.8080  139.7780 N   0  0  0  0  0  2  0  0  0  0  0  0
  186.4090  178.2480  142.0000 C   0  0  0  0  0  0  0  0  0  0  0  0
  187.0620  177.9980  138.5950 C   0  0  2  0  0  3  0  0  0  0  0  0
  185.1000  177.9220  141.4340 C   0  0  0  0  0  3  0  0  0  0  0  0
  182.7030  178.1530  141.1900 C   0  0  0  0  0  2  0  0  0  0  0  0
  189.4600  177.2760  138.0840 N   0  0  0  0  0  2  0  0  0  0  0  0
  183.9570  178.3040  141.9920 C   0  0  0  0  0  0  0  0  0  0  0  0
  186.5010  178.8870  143.1770 C   0  0  0  0  0  3  0  0  0  0  0  0
  182.8410  178.9360  139.8790 C   0  0  1  0  0  3  0  0  0  0  0  0
  188.3070  178.7020  136.6580 O   0  0  0  0  0  0  0  0  0  0  0  0
  189.8700  177.6020  140.4710 C   0  0  0  0  0  2  0  0  0  0  0  0
  183.4040  178.0910  138.7710 C   0  0  0  0  0  3  0  0  0  0  0  0
  184.6250  178.2840  138.3320 C   0  0  0  0  0  0  0  0  0  0  0  0
  188.2850  178.0060  137.7130 C   0  0  0  0  0  0  0  0  0  0  0  0
  187.5300  178.2220  141.0620 C   0  0  0  0  0  0  0  0  0  0  0  0
  188.7020  177.6700  141.3990 C   0  0  0  0  0  3  0  0  0  0  0  0
  182.9190  179.4820  143.7710 O   0  0  0  0  0  0  0  0  0  0  0  0
  189.6160  176.5940  139.3610 C   0  0  0  0  0  2  0  0  0  0  0  0
  185.2870  179.1910  144.0310 C   0  0  1  0  0  3  0  0  0  0  0  0
  183.9830  179.0280  143.2800 C   0  0  0  0  0  0  0  0  0  0  0  0
  185.8360  178.4990  137.8810 C   0  0  0  0  0  3  0  0  0  0  0  0
  181.5620  179.6060  139.5000 C   0  0  0  0  0  0  0  0  0  0  0  0
  180.4600  179.2210  139.9870 O   0  0  0  0  0  0  0  0  0  0  0  0
  181.6180  180.7350  138.6330 N   0  0  0  0  0  2  0  0  0  0  0  0
  180.4340  181.4600  138.1940 C   0  0  0  0  0  2  0  0  0  0  0  0
  180.4510  182.2760  135.9400 O   0  0  0  0  0  0  0  0  0  0  0  0
  180.8030  182.4560  137.1440 C   0  0  0  0  0  0  0  0  0  0  0  0
  181.5520  183.5800  137.5080 O   0  0  0  0  0  0  0  0  0  0  0  0
  181.1910  184.8890  137.0840 C   0  0  0  0  0  1  0  0  0  0  0  0
  185.2950  178.3670  145.2280 N   0  0  0  0  0  2  0  0  0  0  0  0
  186.4240  177.4560  145.0780 C   0  0  0  0  0  2  0  0  0  0  0  0
  186.9290  178.1500  147.4140 C   0  0  0  0  0  3  0  0  0  0  0  0
  187.8110  178.3330  148.4840 C   0  0  0  0  0  3  0  0  0  0  0  0
  189.1650  178.0210  148.3360 C   0  0  0  0  0  3  0  0  0  0  0  0
  189.6410  177.5280  147.1130 C   0  0  0  0  0  3  0  0  0  0  0  0
  187.3970  177.6550  146.1900 C   0  0  0  0  0  0  0  0  0  0  0  0
  188.7630  177.3520  146.0360 C   0  0  0  0  0  0  0  0  0  0  0  0
  190.7420  177.0560  144.6790 N   0  0  0  0  0  1  0  0  0  0  0  0
  189.3040  176.8260  144.7440 C   0  0  0  0  0  2  0  0  0  0  0  0
  1 15  1  0  0  0  0
  2  8  2  0  0  0  0
  3 21  1  6  0  0  0
  3  1  1  0  0  0  0
  4  7  2  0  0  0  0
  4  2  1  0  0  0  0
  5  7  1  0  0  0  0
  6 18  1  0  0  0  0
  7 20  1  0  0  0  0
  8 19  1  0  0  0  0
  9 22  1  6  0  0  0
  9  5  1  0  0  0  0
 10 14  2  0  0  0  0
 11 16  1  0  0  0  0
 12  9  1  0  0  0  0
 13 12  2  0  0  0  0
 14  6  1  0  0  0  0
 14  3  1  0  0  0  0
 15 16  2  0  0  0  0
 15  2  1  0  0  0  0
 18 11  1  0  0  0  0
 19 30  1  1  0  0  0
 20 17  2  0  0  0  0
 20 19  1  0  0  0  0
 21 13  2  0  0  0  0
 22 23  2  0  0  0  0
 24 22  1  0  0  0  0
 25 24  1  0  0  0  0
 26 27  2  0  0  0  0
 27 28  1  0  0  0  0
 27 25  1  0  0  0  0
 29 28  1  0  0  0  0
 31 30  1  0  0  0  0
 31 36  1  0  0  0  0
 32 33  1  0  0  0  0
 34 33  2  0  0  0  0
 35 34  1  0  0  0  0
 36 32  2  0  0  0  0
 37 36  1  0  0  0  0
 37 35  2  0  0  0  0
 38 39  1  0  0  0  0
 39 37  1  0  0  0  0
M  END
>  <MODEL>
6

>  <REMARK>
 VINA RESULT:      -8.6      2.440      7.044
  Name = 
  8 active torsions:
  status: ('A' for Active; 'I' for Inactive)
    1  A    between atoms: N_3  and  C_8
    2  A    between atoms: N_3  and  C_30
    3  A    between atoms: C_8  and  C_35
    4  A    between atoms: C_10  and  C_31
    5  A    between atoms: C_10  and  N_37
    6  A    between atoms: O_15  and  C_31
    7  A    between atoms: C_17  and  C_23
    8  A    between atoms: C_27  and  C_39
                            x       y       z     vdW  Elec       q    Type
                         _______ _______ _______ _____ _____    ______ ____

>  <TORSDO>
F 8

$$$$
=
 OpenBabel10222419343D

 39 42  0  0  1  0  0  0  0  0999 V2000
  183.1300  179.5780  141.7370 N   0  0  0  0  0  2  0  0  0  0  0  0
  185.1790  178.3620  141.1010 C   0  0  0  0  0  0  0  0  0  0  0  0
  182.0800  178.9790  142.5500 C   0  0  2  0  0  3  0  0  0  0  0  0
  185.3260  177.8090  142.4470 C   0  0  0  0  0  3  0  0  0  0  0  0
  186.4820  177.4190  144.5380 C   0  0  0  0  0  2  0  0  0  0  0  0
  180.1740  179.0560  140.8480 N   0  0  0  0  0  2  0  0  0  0  0  0
  186.4930  177.7470  143.0780 C   0  0  0  0  0  0  0  0  0  0  0  0
  186.2580  178.7570  140.4070 C   0  0  0  0  0  3  0  0  0  0  0  0
  185.6290  178.4540  145.2840 C   0  0  1  0  0  3  0  0  0  0  0  0
  180.1230  180.3640  142.7660 O   0  0  0  0  0  0  0  0  0  0  0  0
  181.9340  179.0030  139.1530 C   0  0  0  0  0  2  0  0  0  0  0  0
  184.1910  178.0310  145.3900 C   0  0  0  0  0  3  0  0  0  0  0  0
  183.2590  178.6330  144.6900 C   0  0  0  0  0  0  0  0  0  0  0  0
  180.7400  179.4950  142.0880 C   0  0  0  0  0  0  0  0  0  0  0  0
  183.8390  178.8300  140.7500 C   0  0  0  0  0  0  0  0  0  0  0  0
  183.3050  178.5650  139.5520 C   0  0  0  0  0  3  0  0  0  0  0  0
  188.8170  178.2200  142.9950 O   0  0  0  0  0  0  0  0  0  0  0  0
  180.8760  178.2040  139.8980 C   0  0  0  0  0  2  0  0  0  0  0  0
  187.6700  178.5430  140.9120 C   0  0  1  0  0  3  0  0  0  0  0  0
  187.7210  178.1800  142.3800 C   0  0  0  0  0  0  0  0  0  0  0  0
  182.3310  179.2550  144.0070 C   0  0  0  0  0  3  0  0  0  0  0  0
  186.2250  178.8090  146.6050 C   0  0  0  0  0  0  0  0  0  0  0  0
  185.7760  179.7800  147.2790 O   0  0  0  0  0  0  0  0  0  0  0  0
  187.2640  177.9840  147.1240 N   0  0  0  0  0  2  0  0  0  0  0  0
  187.9210  178.2410  148.3990 C   0  0  0  0  0  2  0  0  0  0  0  0
  190.2270  178.4930  149.0000 O   0  0  0  0  0  0  0  0  0  0  0  0
  189.3640  177.8650  148.3170 C   0  0  0  0  0  0  0  0  0  0  0  0
  189.7470  176.8230  147.4660 O   0  0  0  0  0  0  0  0  0  0  0  0
  190.4080  177.0700  146.2310 C   0  0  0  0  0  1  0  0  0  0  0  0
  188.3420  177.5330  140.1120 N   0  0  0  0  0  2  0  0  0  0  0  0
  189.2900  178.2550  139.2700 C   0  0  0  0  0  2  0  0  0  0  0  0
  187.9800  178.3810  137.1580 C   0  0  0  0  0  3  0  0  0  0  0  0
  187.7780  178.0640  135.8100 C   0  0  0  0  0  3  0  0  0  0  0  0
  188.6900  177.2480  135.1380 C   0  0  0  0  0  3  0  0  0  0  0  0
  189.8090  176.7420  135.8150 C   0  0  0  0  0  3  0  0  0  0  0  0
  189.0970  177.8810  137.8400 C   0  0  0  0  0  0  0  0  0  0  0  0
  190.0120  177.0480  137.1670 C   0  0  0  0  0  0  0  0  0  0  0  0
  190.9540  175.1160  138.2720 N   0  0  0  0  0  1  0  0  0  0  0  0
  191.2140  176.4900  137.8600 C   0  0  0  0  0  2  0  0  0  0  0  0
  1  3  1  0  0  0  0
  2  4  1  0  0  0  0
  3 21  1  1  0  0  0
  4  7  2  0  0  0  0
  5  9  1  0  0  0  0
  6 14  1  0  0  0  0
  7  5  1  0  0  0  0
  8 19  1  0  0  0  0
  8  2  2  0  0  0  0
  9 12  1  0  0  0  0
  9 22  1  1  0  0  0
 11 16  1  0  0  0  0
 11 18  1  0  0  0  0
 13 12  2  0  0  0  0
 14  3  1  0  0  0  0
 14 10  2  0  0  0  0
 15  2  1  0  0  0  0
 15  1  1  0  0  0  0
 16 15  2  0  0  0  0
 18  6  1  0  0  0  0
 19 30  1  6  0  0  0
 19 20  1  0  0  0  0
 20 17  2  0  0  0  0
 20  7  1  0  0  0  0
 21 13  2  0  0  0  0
 22 24  1  0  0  0  0
 22 23  2  0  0  0  0
 24 25  1  0  0  0  0
 27 25  1  0  0  0  0
 27 26  2  0  0  0  0
 28 27  1  0  0  0  0
 29 28  1  0  0  0  0
 31 30  1  0  0  0  0
 32 36  1  0  0  0  0
 33 32  2  0  0  0  0
 34 33  1  0  0  0  0
 34 35  2  0  0  0  0
 35 37  1  0  0  0  0
 36 31  1  0  0  0  0
 37 36  2  0  0  0  0
 37 39  1  0  0  0  0
 39 38  1  0  0  0  0
M  END
>  <MODEL>
7

>  <REMARK>
 VINA RESULT:      -8.4      1.944      6.670
  Name = 
  8 active torsions:
  status: ('A' for Active; 'I' for Inactive)
    1  A    between atoms: N_3  and  C_8
    2  A    between atoms: N_3  and  C_30
    3  A    between atoms: C_8  and  C_35
    4  A    between atoms: C_10  and  C_31
    5  A    between atoms: C_10  and  N_37
    6  A    between atoms: O_15  and  C_31
    7  A    between atoms: C_17  and  C_23
    8  A    between atoms: C_27  and  C_39
                            x       y       z     vdW  Elec       q    Type
                         _______ _______ _______ _____ _____    ______ ____

>  <TORSDO>
F 8

$$$$
=
 OpenBabel10222419343D

 39 42  0  0  1  0  0  0  0  0999 V2000
  189.2330  178.1320  145.1970 N   0  0  0  0  0  2  0  0  0  0  0  0
  187.4920  177.9350  143.4600 C   0  0  0  0  0  0  0  0  0  0  0  0
  190.0430  177.0020  145.6290 C   0  0  2  0  0  3  0  0  0  0  0  0
  188.3570  177.1100  142.6190 C   0  0  0  0  0  3  0  0  0  0  0  0
  189.5680  176.5680  140.5940 C   0  0  0  0  0  2  0  0  0  0  0  0
  189.2960  176.8940  148.0710 N   0  0  0  0  0  2  0  0  0  0  0  0
  188.4600  177.2790  141.3060 C   0  0  0  0  0  0  0  0  0  0  0  0
  186.6880  178.8590  142.9100 C   0  0  0  0  0  3  0  0  0  0  0  0
  190.9130  176.9850  141.2030 C   0  0  1  0  0  3  0  0  0  0  0  0
  191.4650  177.5010  147.5060 O   0  0  0  0  0  0  0  0  0  0  0  0
  187.2280  177.9370  147.2900 C   0  0  0  0  0  2  0  0  0  0  0  0
  191.3320  176.0790  142.3260 C   0  0  0  0  0  3  0  0  0  0  0  0
  191.3050  176.4930  143.5700 C   0  0  0  0  0  0  0  0  0  0  0  0
  190.3260  177.1300  147.1040 C   0  0  0  0  0  0  0  0  0  0  0  0
  187.8490  177.9890  144.8780 C   0  0  0  0  0  0  0  0  0  0  0  0
  186.9130  177.9070  145.8310 C   0  0  0  0  0  3  0  0  0  0  0  0
  187.7740  178.5310  139.4100 O   0  0  0  0  0  0  0  0  0  0  0  0
  187.9040  176.6450  147.7210 C   0  0  0  0  0  2  0  0  0  0  0  0
  186.5390  179.0130  141.4100 C   0  0  1  0  0  3  0  0  0  0  0  0
  187.6180  178.2900  140.6340 C   0  0  0  0  0  0  0  0  0  0  0  0
  191.3010  176.9220  144.8080 C   0  0  0  0  0  3  0  0  0  0  0  0
  191.9680  177.1340  140.1570 C   0  0  0  0  0  0  0  0  0  0  0  0
  193.0140  177.8080  140.3830 O   0  0  0  0  0  0  0  0  0  0  0  0
  191.8030  176.4390  138.9240 N   0  0  0  0  0  2  0  0  0  0  0  0
  192.7660  176.5170  137.8340 C   0  0  0  0  0  2  0  0  0  0  0  0
  193.1790  174.2540  137.1640 O   0  0  0  0  0  0  0  0  0  0  0  0
  193.5930  175.2740  137.7900 C   0  0  0  0  0  0  0  0  0  0  0  0
  194.8200  175.2520  138.4610 O   0  0  0  0  0  0  0  0  0  0  0  0
  195.5150  174.0350  138.7090 C   0  0  0  0  0  1  0  0  0  0  0  0
  185.2210  178.5710  140.9880 N   0  0  0  0  0  2  0  0  0  0  0  0
  184.5390  178.1300  142.2010 C   0  0  0  0  0  2  0  0  0  0  0  0
  182.4830  178.7350  140.9370 C   0  0  0  0  0  3  0  0  0  0  0  0
  181.1410  179.1240  140.8770 C   0  0  0  0  0  3  0  0  0  0  0  0
  180.4220  179.3430  142.0540 C   0  0  0  0  0  3  0  0  0  0  0  0
  181.0460  179.1760  143.2980 C   0  0  0  0  0  3  0  0  0  0  0  0
  183.1130  178.5640  142.1760 C   0  0  0  0  0  0  0  0  0  0  0  0
  182.3930  178.7950  143.3640 C   0  0  0  0  0  0  0  0  0  0  0  0
  183.9190  179.7520  144.9760 N   0  0  0  0  0  1  0  0  0  0  0  0
  183.0300  178.6280  144.7060 C   0  0  0  0  0  2  0  0  0  0  0  0
  1  3  1  0  0  0  0
  2 15  1  0  0  0  0
  3 21  1  6  0  0  0
  3 14  1  0  0  0  0
  4  2  1  0  0  0  0
  5  9  1  0  0  0  0
  5  7  1  0  0  0  0
  7  4  2  0  0  0  0
  8  2  2  0  0  0  0
  9 22  1  6  0  0  0
  9 12  1  0  0  0  0
 11 18  1  0  0  0  0
 12 13  2  0  0  0  0
 13 21  2  0  0  0  0
 14 10  2  0  0  0  0
 14  6  1  0  0  0  0
 15  1  1  0  0  0  0
 15 16  2  0  0  0  0
 16 11  1  0  0  0  0
 17 20  2  0  0  0  0
 18  6  1  0  0  0  0
 19 30  1  6  0  0  0
 19  8  1  0  0  0  0
 20  7  1  0  0  0  0
 20 19  1  0  0  0  0
 22 23  2  0  0  0  0
 24 22  1  0  0  0  0
 25 24  1  0  0  0  0
 26 27  2  0  0  0  0
 27 25  1  0  0  0  0
 27 28  1  0  0  0  0
 28 29  1  0  0  0  0
 30 31  1  0  0  0  0
 32 36  1  0  0  0  0
 33 32  2  0  0  0  0
 33 34  1  0  0  0  0
 34 35  2  0  0  0  0
 35 37  1  0  0  0  0
 36 31  1  0  0  0  0
 36 37  2  0  0  0  0
 37 39  1  0  0  0  0
 39 38  1  0  0  0  0
M  END
>  <MODEL>
8

>  <REMARK>
 VINA RESULT:      -8.2      2.984      8.439
  Name = 
  8 active torsions:
  status: ('A' for Active; 'I' for Inactive)
    1  A    between atoms: N_3  and  C_8
    2  A    between atoms: N_3  and  C_30
    3  A    between atoms: C_8  and  C_35
    4  A    between atoms: C_10  and  C_31
    5  A    between atoms: C_10  and  N_37
    6  A    between atoms: O_15  and  C_31
    7  A    between atoms: C_17  and  C_23
    8  A    between atoms: C_27  and  C_39
                            x       y       z     vdW  Elec       q    Type
                         _______ _______ _______ _____ _____    ______ ____

>  <TORSDO>
F 8

$$$$
=
 OpenBabel10222419343D

 39 42  0  0  1  0  0  0  0  0999 V2000
  188.5580  176.3520  137.4360 N   0  0  0  0  0  2  0  0  0  0  0  0
  187.0140  178.1060  138.2260 C   0  0  0  0  0  0  0  0  0  0  0  0
  190.0040  176.5290  137.4130 C   0  0  2  0  0  3  0  0  0  0  0  0
  187.8740  178.4150  139.3680 C   0  0  0  0  0  3  0  0  0  0  0  0
  188.3790  178.6620  141.7230 C   0  0  0  0  0  2  0  0  0  0  0  0
  190.3830  176.3340  134.8930 N   0  0  0  0  0  2  0  0  0  0  0  0
  187.4010  178.6260  140.5910 C   0  0  0  0  0  0  0  0  0  0  0  0
  185.6790  178.1090  138.3600 C   0  0  0  0  0  3  0  0  0  0  0  0
  189.1510  177.3380  141.7680 C   0  0  1  0  0  3  0  0  0  0  0  0
  191.1780  174.7140  136.3550 O   0  0  0  0  0  0  0  0  0  0  0  0
  188.0750  177.1100  134.6740 C   0  0  0  0  0  2  0  0  0  0  0  0
  190.4120  177.3890  140.9510 C   0  0  0  0  0  3  0  0  0  0  0  0
  190.5080  176.7310  139.8210 C   0  0  0  0  0  0  0  0  0  0  0  0
  190.5720  175.8140  136.2140 C   0  0  0  0  0  0  0  0  0  0  0  0
  187.6630  177.4160  137.1120 C   0  0  0  0  0  0  0  0  0  0  0  0
  187.4240  177.7700  135.8440 C   0  0  0  0  0  3  0  0  0  0  0  0
  185.4800  178.7260  141.9810 O   0  0  0  0  0  0  0  0  0  0  0  0
  189.5460  177.4880  134.5940 C   0  0  0  0  0  2  0  0  0  0  0  0
  184.9930  178.5450  139.6380 C   0  0  1  0  0  3  0  0  0  0  0  0
  185.9400  178.6270  140.8150 C   0  0  0  0  0  0  0  0  0  0  0  0
  190.6060  176.0500  138.7060 C   0  0  0  0  0  3  0  0  0  0  0  0
  189.3920  176.8880  143.1710 C   0  0  0  0  0  0  0  0  0  0  0  0
  190.2430  175.9890  143.4270 O   0  0  0  0  0  0  0  0  0  0  0  0
  188.6920  177.5470  144.2240 N   0  0  0  0  0  2  0  0  0  0  0  0
  188.8450  177.1860  145.6260 C   0  0  0  0  0  2  0  0  0  0  0  0
  187.6180  177.6520  147.6310 O   0  0  0  0  0  0  0  0  0  0  0  0
  187.5900  177.4950  146.3740 C   0  0  0  0  0  0  0  0  0  0  0  0
  186.3860  177.5950  145.6690 O   0  0  0  0  0  0  0  0  0  0  0  0
  185.6660  178.8190  145.5880 C   0  0  0  0  0  1  0  0  0  0  0  0
  184.3150  179.8140  139.4370 N   0  0  0  0  0  2  0  0  0  0  0  0
  182.9010  179.5570  139.6870 C   0  0  0  0  0  2  0  0  0  0  0  0
  181.7890  181.5310  138.6570 C   0  0  0  0  0  3  0  0  0  0  0  0
  181.0270  182.1320  137.6500 C   0  0  0  0  0  3  0  0  0  0  0  0
  180.5430  181.3670  136.5880 C   0  0  0  0  0  3  0  0  0  0  0  0
  180.8170  179.9930  136.5300 C   0  0  0  0  0  3  0  0  0  0  0  0
  182.0700  180.1590  138.6060 C   0  0  0  0  0  0  0  0  0  0  0  0
  181.5720  179.3840  137.5410 C   0  0  0  0  0  0  0  0  0  0  0  0
  182.1930  177.5590  136.0810 N   0  0  0  0  0  1  0  0  0  0  0  0
  181.8460  177.9160  137.4520 C   0  0  0  0  0  2  0  0  0  0  0  0
  2  8  2  0  0  0  0
  2  4  1  0  0  0  0
  3  1  1  0  0  0  0
  3 21  1  1  0  0  0
  4  7  2  0  0  0  0
  5  9  1  0  0  0  0
  6 14  1  0  0  0  0
  7 20  1  0  0  0  0
  7  5  1  0  0  0  0
  8 19  1  0  0  0  0
  9 22  1  1  0  0  0
 11 16  1  0  0  0  0
 12  9  1  0  0  0  0
 13 12  2  0  0  0  0
 14 10  2  0  0  0  0
 14  3  1  0  0  0  0
 15  1  1  0  0  0  0
 15  2  1  0  0  0  0
 16 15  2  0  0  0  0
 18 11  1  0  0  0  0
 18  6  1  0  0  0  0
 19 30  1  6  0  0  0
 19 20  1  0  0  0  0
 20 17  2  0  0  0  0
 21 13  2  0  0  0  0
 22 23  2  0  0  0  0
 22 24  1  0  0  0  0
 24 25  1  0  0  0  0
 25 27  1  0  0  0  0
 27 26  2  0  0  0  0
 28 27  1  0  0  0  0
 29 28  1  0  0  0  0
 30 31  1  0  0  0  0
 33 32  2  0  0  0  0
 34 33  1  0  0  0  0
 35 34  2  0  0  0  0
 35 37  1  0  0  0  0
 36 32  1  0  0  0  0
 36 31  1  0  0  0  0
 37 36  2  0  0  0  0
 38 39  1  0  0  0  0
 39 37  1  0  0  0  0
M  END
>  <MODEL>
9

>  <REMARK>
 VINA RESULT:      -8.0      2.623      8.111
  Name = 
  8 active torsions:
  status: ('A' for Active; 'I' for Inactive)
    1  A    between atoms: N_3  and  C_8
    2  A    between atoms: N_3  and  C_30
    3  A    between atoms: C_8  and  C_35
    4  A    between atoms: C_10  and  C_31
    5  A    between atoms: C_10  and  N_37
    6  A    between atoms: O_15  and  C_31
    7  A    between atoms: C_17  and  C_23
    8  A    between atoms: C_27  and  C_39
                            x       y       z     vdW  Elec       q    Type
                         _______ _______ _______ _____ _____    ______ ____

>  <TORSDO>
F 8

$$$$
