=
 OpenBabel10222420493D

 68 75  0  0  1  0  0  0  0  0999 V2000
  183.1730  180.5160  139.7280 O   0  0  0  0  0  0  0  0  0  0  0  0
  182.6340  178.4020  138.9000 N   0  0  0  0  0  0  0  0  0  0  0  0
  182.5530  179.8440  138.8580 C   0  0  0  0  0  0  0  0  0  0  0  0
  182.4580  173.9470  137.8320 C   0  0  0  0  0  3  0  0  0  0  0  0
  181.9140  177.5580  137.9410 C   0  0  2  0  0  3  0  0  0  0  0  0
  180.9700  175.8580  139.6350 O   0  0  0  0  0  1  0  0  0  0  0  0
  183.2210  173.2890  136.8540 C   0  0  0  0  0  3  0  0  0  0  0  0
  181.7010  176.1820  138.4980 C   0  0  0  0  0  0  0  0  0  0  0  0
  182.9370  176.0180  136.7100 C   0  0  0  0  0  0  0  0  0  0  0  0
  183.8200  174.0290  135.8140 C   0  0  0  0  0  0  0  0  0  0  0  0
  182.7450  177.2950  136.7590 N   0  0  0  0  0  0  0  0  0  0  0  0
  183.6770  175.3880  135.7630 N   0  0  0  0  0  0  0  0  0  0  0  0
  182.3340  175.3280  137.7240 C   0  0  0  0  0  0  0  0  0  0  0  0
  184.6580  173.3180  134.8040 C   0  0  0  0  0  2  0  0  0  0  0  0
  186.0600  171.2610  134.8440 C   0  0  0  0  0  1  0  0  0  0  0  0
  185.8580  172.6360  135.4560 C   0  0  1  0  0  3  0  0  0  0  0  0
  187.1290  174.7920  135.4010 N   0  0  0  0  0  0  0  0  0  0  0  0
  188.4290  175.0970  135.2400 C   0  0  0  0  0  0  0  0  0  0  0  0
  188.3930  172.9510  135.1150 C   0  0  0  0  0  3  0  0  0  0  0  0
  189.2110  174.0160  135.0460 N   0  0  0  0  0  0  0  0  0  0  0  0
  188.9280  176.4300  135.3420 N   0  0  0  0  0  1  0  0  0  0  0  0
  187.1120  173.4450  135.3110 C   0  0  0  0  0  0  0  0  0  0  0  0
  190.4740  173.6540  137.4210 O   0  0  0  0  0  1  0  0  0  0  0  0
  191.2060  172.5910  135.3740 C   0  0  0  0  0  2  0  0  0  0  0  0
  190.6700  173.9620  134.9420 C   0  0  2  0  0  3  0  0  0  0  0  0
  191.3130  173.7660  136.3090 C   0  0  1  0  0  0  0  0  0  0  0  0
  192.7220  174.2860  136.5190 C   0  0  0  0  0  2  0  0  0  0  0  0
  193.5590  173.2340  136.9260 O   0  0  0  0  0  0  0  0  0  0  0  0
  195.4550  173.9610  135.8420 F   0  0  0  0  0  0  0  0  0  0  0  0
  195.6460  172.8930  137.8380 F   0  0  0  0  0  0  0  0  0  0  0  0
  194.7810  174.9620  137.7360 F   0  0  0  0  0  0  0  0  0  0  0  0
  194.8620  173.7500  137.0790 C   0  0  0  0  0  0  0  0  0  0  0  0
  179.4030  180.9630  135.3430 C   0  0  0  0  0  3  0  0  0  0  0  0
  180.9300  182.3030  136.6580 C   0  0  0  0  0  0  0  0  0  0  0  0
  180.5620  183.5550  136.0010 C   0  0  0  0  0  3  0  0  0  0  0  0
  179.6260  183.5050  135.0400 C   0  0  0  0  0  3  0  0  0  0  0  0
  180.8800  180.0030  137.0650 N   0  0  0  0  0  0  0  0  0  0  0  0
  178.9320  182.2120  134.6160 C   0  0  0  0  0  3  0  0  0  0  0  0
  181.8010  182.0400  137.6150 C   0  0  1  0  0  3  0  0  0  0  0  0
  181.7460  180.5770  137.8490 C   0  0  0  0  0  0  0  0  0  0  0  0
  180.3310  181.0580  136.2900 C   0  0  0  0  0  0  0  0  0  0  0  0
  182.6950  183.0360  138.2760 C   0  0  0  0  0  2  0  0  0  0  0  0
  182.3970  184.3180  137.8070 O   0  0  0  0  0  1  0  0  0  0  0  0
  183.2900  177.7580  140.0370 C   0  0  0  0  0  2  0  0  0  0  0  0
  182.5750  178.1020  141.3330 C   0  0  0  0  0  2  0  0  0  0  0  0
  183.4180  179.0860  142.1220 C   0  0  0  0  0  2  0  0  0  0  0  0
  183.6830  178.5310  143.5120 C   0  0  0  0  0  2  0  0  0  0  0  0
  185.0290  178.9890  145.5440 C   0  0  1  0  0  3  0  0  0  0  0  0
  185.3830  176.9610  146.7600 O   0  0  0  0  0  1  0  0  0  0  0  0
  186.0840  177.9790  143.6960 C   0  0  0  0  0  0  0  0  0  0  0  0
  185.3950  180.2520  146.0070 O   0  0  0  0  0  1  0  0  0  0  0  0
  185.0440  178.9800  144.0150 C   0  0  1  0  0  3  0  0  0  0  0  0
  186.4800  177.7310  142.5250 O   0  0  0  0  0  0  0  0  0  0  0  0
  186.6400  177.3650  144.8410 N   0  0  0  0  0  0  0  0  0  0  0  0
  186.0470  177.9500  146.0320 C   0  0  1  0  0  3  0  0  0  0  0  0
  187.9620  176.7530  144.8340 C   0  0  0  0  0  2  0  0  0  0  0  0
  188.7070  177.0780  146.1140 C   0  0  0  0  0  2  0  0  0  0  0  0
  189.7660  178.0270  145.8260 N   0  0  0  0  0  2  0  0  0  0  0  0
  190.6850  177.3640  144.9170 C   0  0  0  0  0  2  0  0  0  0  0  0
  191.2390  179.4510  143.7360 C   0  0  0  0  0  1  0  0  0  0  0  0
  190.6610  178.0570  143.5630 C   0  0  1  0  0  3  0  0  0  0  0  0
  191.4550  177.2730  142.5120 C   0  0  1  0  0  3  0  0  0  0  0  0
  192.1650  176.2310  143.1190 O   0  0  0  0  0  1  0  0  0  0  0  0
  190.5210  176.6830  141.4640 C   0  0  2  0  0  3  0  0  0  0  0  0
  190.4830  177.5960  140.2520 C   0  0  2  0  0  3  0  0  0  0  0  0
  189.3380  177.6050  141.2410 C   0  0  0  0  0  2  0  0  0  0  0  0
  191.0790  176.9690  137.9910 N   0  0  0  0  0  1  0  0  0  0  0  0
  190.0930  176.7800  139.0380 C   0  0  0  0  0  2  0  0  0  0  0  0
  2 44  1  0  0  0  0
  3  2  1  0  0  0  0
  3  1  2  0  0  0  0
  5  8  1  0  0  0  0
  5  2  1  1  0  0  0
  7  4  2  0  0  0  0
  8  6  1  0  0  0  0
  9 11  2  0  0  0  0
  9 13  1  0  0  0  0
 10  7  1  0  0  0  0
 11  5  1  0  0  0  0
 12 10  2  0  0  0  0
 12  9  1  0  0  0  0
 13  4  1  0  0  0  0
 13  8  2  0  0  0  0
 14 16  1  0  0  0  0
 14 10  1  0  0  0  0
 16 15  1  6  0  0  0
 18 21  1  0  0  0  0
 18 17  2  0  0  0  0
 19 22  2  0  0  0  0
 20 19  1  0  0  0  0
 20 18  1  0  0  0  0
 22 17  1  0  0  0  0
 22 16  1  0  0  0  0
 24 26  1  0  0  0  0
 25 20  1  1  0  0  0
 25 24  1  0  0  0  0
 25 26  1  0  0  0  0
 26 27  1  0  0  0  0
 26 23  1  1  0  0  0
 27 28  1  0  0  0  0
 28 32  1  0  0  0  0
 29 32  1  0  0  0  0
 32 31  1  0  0  0  0
 32 30  1  0  0  0  0
 33 41  1  0  0  0  0
 34 39  1  0  0  0  0
 35 34  1  0  0  0  0
 36 35  2  0  0  0  0
 37 40  2  0  0  0  0
 38 36  1  0  0  0  0
 38 33  2  0  0  0  0
 39 40  1  0  0  0  0
 39 42  1  6  0  0  0
 40  3  1  0  0  0  0
 41 34  2  0  0  0  0
 41 37  1  0  0  0  0
 43 42  1  0  0  0  0
 44 45  1  0  0  0  0
 45 46  1  0  0  0  0
 46 47  1  0  0  0  0
 48 51  1  1  0  0  0
 48 55  1  0  0  0  0
 50 52  1  0  0  0  0
 50 54  1  0  0  0  0
 52 47  1  6  0  0  0
 52 48  1  0  0  0  0
 53 50  2  0  0  0  0
 54 55  1  0  0  0  0
 55 49  1  6  0  0  0
 56 54  1  0  0  0  0
 56 57  1  0  0  0  0
 58 57  1  0  0  0  0
 59 58  1  0  0  0  0
 61 60  1  1  0  0  0
 61 59  1  0  0  0  0
 62 63  1  1  0  0  0
 62 61  1  0  0  0  0
 64 62  1  1  0  0  0
 65 68  1  6  0  0  0
 65 66  1  0  0  0  0
 65 64  1  0  0  0  0
 66 64  1  0  0  0  0
 67 68  1  0  0  0  0
M  END
>  <MODEL>
1

>  <REMARK>
 VINA RESULT:      -5.6      0.000      0.000
  Name = 
  23 active torsions:
  status: ('A' for Active; 'I' for Inactive)
    1  A    between atoms: N_3  and  C_9
    2  A    between atoms: N_3  and  C_58
    3  A    between atoms: C_8  and  C_10
    4  A    between atoms: C_8  and  C_57
    5  A    between atoms: C_9  and  C_57
    6  A    between atoms: C_11  and  C_54
    7  A    between atoms: C_13  and  N_38
    8  A    between atoms: C_14  and  C_30
    9  A    between atoms: C_14  and  C_43
   10  A    between atoms: C_15  and  C_52
   11  A    between atoms: C_15  and  C_56
   12  A    between atoms: C_18  and  C_47
   13  A    between atoms: C_22  and  C_24
   14  A    between atoms: C_22  and  C_30
   15  A    between atoms: C_24  and  N_38
   16  A    between atoms: O_26  and  C_31
   17  A    between atoms: O_26  and  C_62
   18  A    between atoms: C_31  and  C_61
   19  A    between atoms: N_32  and  C_60
   20  A    between atoms: C_35  and  C_58
   21  A    between atoms: C_35  and  N_65
   22  A    between atoms: C_40  and  C_64
   23  A    between atoms: C_53  and  C_56
                            x       y       z     vdW  Elec       q    Type
                         _______ _______ _______ _____ _____    ______ ____

>  <TORSDO>
F 23

$$$$
=
 OpenBabel10222420493D

 68 75  0  0  1  0  0  0  0  0999 V2000
  184.4180  180.2610  144.0180 O   0  0  0  0  0  0  0  0  0  0  0  0
  185.7150  178.7030  142.8650 N   0  0  0  0  0  0  0  0  0  0  0  0
  184.4800  179.4210  143.0790 C   0  0  0  0  0  0  0  0  0  0  0  0
  188.8360  177.5400  139.7130 C   0  0  0  0  0  3  0  0  0  0  0  0
  185.8500  177.6900  141.8130 C   0  0  2  0  0  3  0  0  0  0  0  0
  188.1390  176.7510  142.5430 O   0  0  0  0  0  1  0  0  0  0  0  0
  188.8960  177.9930  138.3850 C   0  0  0  0  0  3  0  0  0  0  0  0
  187.2900  177.3260  141.6040 C   0  0  0  0  0  0  0  0  0  0  0  0
  186.5230  178.1910  139.7560 C   0  0  0  0  0  0  0  0  0  0  0  0
  187.7460  178.5320  137.7740 C   0  0  0  0  0  0  0  0  0  0  0  0
  185.4730  178.2470  140.5080 N   0  0  0  0  0  0  0  0  0  0  0  0
  186.5750  178.6330  138.4750 N   0  0  0  0  0  0  0  0  0  0  0  0
  187.6170  177.6530  140.3730 C   0  0  0  0  0  0  0  0  0  0  0  0
  187.8370  179.0430  136.3760 C   0  0  0  0  0  2  0  0  0  0  0  0
  189.0830  177.0780  135.4900 C   0  0  0  0  0  1  0  0  0  0  0  0
  187.8130  177.9020  135.3620 C   0  0  1  0  0  3  0  0  0  0  0  0
  186.6830  175.7990  136.1150 N   0  0  0  0  0  0  0  0  0  0  0  0
  185.4070  175.3740  136.0910 C   0  0  0  0  0  0  0  0  0  0  0  0
  185.3080  177.3230  135.1890 C   0  0  0  0  0  3  0  0  0  0  0  0
  184.5610  176.2560  135.5240 N   0  0  0  0  0  0  0  0  0  0  0  0
  184.9930  174.1420  136.6800 N   0  0  0  0  0  1  0  0  0  0  0  0
  186.6150  177.0180  135.5380 C   0  0  0  0  0  0  0  0  0  0  0  0
  183.2610  176.8500  137.8320 O   0  0  0  0  0  1  0  0  0  0  0  0
  182.4530  177.5440  135.6580 C   0  0  0  0  0  2  0  0  0  0  0  0
  183.1030  176.1750  135.4240 C   0  0  2  0  0  3  0  0  0  0  0  0
  182.4390  176.5110  136.7530 C   0  0  1  0  0  0  0  0  0  0  0  0
  181.0770  175.9130  137.0460 C   0  0  0  0  0  2  0  0  0  0  0  0
  181.2290  174.7260  137.7800 O   0  0  0  0  0  0  0  0  0  0  0  0
  179.2150  175.3660  138.6930 F   0  0  0  0  0  0  0  0  0  0  0  0
  181.1270  175.6510  139.8870 F   0  0  0  0  0  0  0  0  0  0  0  0
  180.3160  173.5910  139.5150 F   0  0  0  0  0  0  0  0  0  0  0  0
  180.4740  174.8470  138.9630 C   0  0  0  0  0  0  0  0  0  0  0  0
  181.3590  179.0990  139.3780 C   0  0  0  0  0  3  0  0  0  0  0  0
  181.1550  178.6010  141.7380 C   0  0  0  0  0  0  0  0  0  0  0  0
  179.7590  178.1830  141.6370 C   0  0  0  0  0  3  0  0  0  0  0  0
  179.1840  178.2170  140.4240 C   0  0  0  0  0  3  0  0  0  0  0  0
  183.2090  179.4110  140.9750 N   0  0  0  0  0  0  0  0  0  0  0  0
  179.9190  178.6610  139.1620 C   0  0  0  0  0  3  0  0  0  0  0  0
  181.9720  178.6780  142.7730 C   0  0  1  0  0  3  0  0  0  0  0  0
  183.2640  179.1940  142.2570 C   0  0  0  0  0  0  0  0  0  0  0  0
  181.8900  179.0470  140.5960 C   0  0  0  0  0  0  0  0  0  0  0  0
  181.6200  178.3530  144.1870 C   0  0  0  0  0  2  0  0  0  0  0  0
  180.2920  178.7080  144.4320 O   0  0  0  0  0  1  0  0  0  0  0  0
  186.8000  178.8450  143.8360 C   0  0  0  0  0  2  0  0  0  0  0  0
  186.5750  177.9290  145.0270 C   0  0  0  0  0  2  0  0  0  0  0  0
  187.6760  178.1570  146.0460 C   0  0  0  0  0  2  0  0  0  0  0  0
  188.6770  177.0150  145.9780 C   0  0  0  0  0  2  0  0  0  0  0  0
  191.0790  176.4290  146.1710 C   0  0  1  0  0  3  0  0  0  0  0  0
  191.6670  174.8350  144.4880 O   0  0  0  0  0  1  0  0  0  0  0  0
  190.4100  177.8900  144.4500 C   0  0  0  0  0  0  0  0  0  0  0  0
  191.9330  176.8340  147.1970 O   0  0  0  0  0  1  0  0  0  0  0  0
  190.0920  177.5530  145.8530 C   0  0  1  0  0  3  0  0  0  0  0  0
  189.8780  178.8450  143.8230 O   0  0  0  0  0  0  0  0  0  0  0  0
  191.4190  177.0730  143.8920 N   0  0  0  0  0  0  0  0  0  0  0  0
  191.8970  176.1470  144.9050 C   0  0  1  0  0  3  0  0  0  0  0  0
  192.2320  177.4990  142.7610 C   0  0  0  0  0  2  0  0  0  0  0  0
  191.4690  177.3320  141.4610 C   0  0  0  0  0  2  0  0  0  0  0  0
  192.3080  177.7510  140.3540 N   0  0  0  0  0  2  0  0  0  0  0  0
  192.2550  176.6860  139.3660 C   0  0  0  0  0  2  0  0  0  0  0  0
  194.5310  175.7560  139.2640 C   0  0  0  0  0  1  0  0  0  0  0  0
  193.5440  176.6690  138.5580 C   0  0  1  0  0  3  0  0  0  0  0  0
  193.3040  176.1910  137.1220 C   0  0  1  0  0  3  0  0  0  0  0  0
  194.4590  176.3690  136.3520 O   0  0  0  0  0  1  0  0  0  0  0  0
  192.9280  174.7140  137.1030 C   0  0  2  0  0  3  0  0  0  0  0  0
  192.4690  174.3290  135.7080 C   0  0  2  0  0  3  0  0  0  0  0  0
  191.4500  174.5560  136.8040 C   0  0  0  0  0  2  0  0  0  0  0  0
  191.4220  172.2190  135.1550 N   0  0  0  0  0  1  0  0  0  0  0  0
  192.6800  172.8420  135.5190 C   0  0  0  0  0  2  0  0  0  0  0  0
  2  3  1  0  0  0  0
  2 44  1  0  0  0  0
  3  1  2  0  0  0  0
  4 13  1  0  0  0  0
  5  2  1  1  0  0  0
  7  4  2  0  0  0  0
  8  5  1  0  0  0  0
  8  6  1  0  0  0  0
  9 13  1  0  0  0  0
  9 11  2  0  0  0  0
 10  7  1  0  0  0  0
 10 12  2  0  0  0  0
 11  5  1  0  0  0  0
 12  9  1  0  0  0  0
 13  8  2  0  0  0  0
 14 10  1  0  0  0  0
 16 15  1  1  0  0  0
 16 22  1  0  0  0  0
 16 14  1  0  0  0  0
 18 17  2  0  0  0  0
 18 21  1  0  0  0  0
 19 20  1  0  0  0  0
 19 22  2  0  0  0  0
 20 18  1  0  0  0  0
 22 17  1  0  0  0  0
 24 26  1  0  0  0  0
 25 20  1  1  0  0  0
 25 24  1  0  0  0  0
 25 26  1  0  0  0  0
 26 27  1  0  0  0  0
 26 23  1  1  0  0  0
 27 28  1  0  0  0  0
 28 32  1  0  0  0  0
 29 32  1  0  0  0  0
 32 31  1  0  0  0  0
 32 30  1  0  0  0  0
 33 41  1  0  0  0  0
 34 39  1  0  0  0  0
 35 34  1  0  0  0  0
 36 35  2  0  0  0  0
 37 40  2  0  0  0  0
 38 33  2  0  0  0  0
 38 36  1  0  0  0  0
 39 42  1  1  0  0  0
 40 39  1  0  0  0  0
 40  3  1  0  0  0  0
 41 37  1  0  0  0  0
 41 34  2  0  0  0  0
 42 43  1  0  0  0  0
 44 45  1  0  0  0  0
 45 46  1  0  0  0  0
 47 46  1  0  0  0  0
 48 51  1  1  0  0  0
 50 52  1  0  0  0  0
 52 47  1  6  0  0  0
 52 48  1  0  0  0  0
 53 50  2  0  0  0  0
 54 50  1  0  0  0  0
 54 55  1  0  0  0  0
 55 49  1  6  0  0  0
 55 48  1  0  0  0  0
 56 54  1  0  0  0  0
 57 56  1  0  0  0  0
 58 57  1  0  0  0  0
 59 58  1  0  0  0  0
 61 60  1  1  0  0  0
 61 59  1  0  0  0  0
 62 63  1  6  0  0  0
 62 61  1  0  0  0  0
 64 62  1  6  0  0  0
 65 68  1  1  0  0  0
 65 66  1  0  0  0  0
 65 64  1  0  0  0  0
 66 64  1  0  0  0  0
 67 68  1  0  0  0  0
M  END
>  <MODEL>
2

>  <REMARK>
 VINA RESULT:      -5.4      4.174      7.208
  Name = 
  23 active torsions:
  status: ('A' for Active; 'I' for Inactive)
    1  A    between atoms: N_3  and  C_9
    2  A    between atoms: N_3  and  C_58
    3  A    between atoms: C_8  and  C_10
    4  A    between atoms: C_8  and  C_57
    5  A    between atoms: C_9  and  C_57
    6  A    between atoms: C_11  and  C_54
    7  A    between atoms: C_13  and  N_38
    8  A    between atoms: C_14  and  C_30
    9  A    between atoms: C_14  and  C_43
   10  A    between atoms: C_15  and  C_52
   11  A    between atoms: C_15  and  C_56
   12  A    between atoms: C_18  and  C_47
   13  A    between atoms: C_22  and  C_24
   14  A    between atoms: C_22  and  C_30
   15  A    between atoms: C_24  and  N_38
   16  A    between atoms: O_26  and  C_31
   17  A    between atoms: O_26  and  C_62
   18  A    between atoms: C_31  and  C_61
   19  A    between atoms: N_32  and  C_60
   20  A    between atoms: C_35  and  C_58
   21  A    between atoms: C_35  and  N_65
   22  A    between atoms: C_40  and  C_64
   23  A    between atoms: C_53  and  C_56
                            x       y       z     vdW  Elec       q    Type
                         _______ _______ _______ _____ _____    ______ ____

>  <TORSDO>
F 23

$$$$
=
 OpenBabel10222420493D

 68 75  0  0  1  0  0  0  0  0999 V2000
  183.0590  180.1560  139.3030 O   0  0  0  0  0  0  0  0  0  0  0  0
  181.6090  178.3990  138.8000 N   0  0  0  0  0  0  0  0  0  0  0  0
  182.0170  179.7810  138.6980 C   0  0  0  0  0  0  0  0  0  0  0  0
  179.2090  174.4920  138.7280 C   0  0  0  0  0  3  0  0  0  0  0  0
  180.3920  177.9010  138.1510 C   0  0  2  0  0  3  0  0  0  0  0  0
  179.1880  177.0830  140.2800 O   0  0  0  0  0  1  0  0  0  0  0  0
  179.3530  173.4370  137.8130 C   0  0  0  0  0  3  0  0  0  0  0  0
  179.7110  176.8760  139.0080 C   0  0  0  0  0  0  0  0  0  0  0  0
  180.3060  175.9250  137.1400 C   0  0  0  0  0  0  0  0  0  0  0  0
  179.9720  173.6660  136.5680 C   0  0  0  0  0  0  0  0  0  0  0  0
  180.7270  177.1310  136.9460 N   0  0  0  0  0  0  0  0  0  0  0  0
  180.4500  174.9090  136.2520 N   0  0  0  0  0  0  0  0  0  0  0  0
  179.7010  175.7370  138.3510 C   0  0  0  0  0  0  0  0  0  0  0  0
  180.1500  172.5250  135.6230 C   0  0  0  0  0  2  0  0  0  0  0  0
  181.2620  170.3150  135.3450 C   0  0  0  0  0  1  0  0  0  0  0  0
  181.3740  171.6890  135.9830 C   0  0  1  0  0  3  0  0  0  0  0  0
  182.7690  173.6800  135.3840 N   0  0  0  0  0  0  0  0  0  0  0  0
  184.0560  173.8350  135.0260 C   0  0  0  0  0  0  0  0  0  0  0  0
  183.8620  171.7130  135.3110 C   0  0  0  0  0  3  0  0  0  0  0  0
  184.7330  172.6720  134.9520 N   0  0  0  0  0  0  0  0  0  0  0  0
  184.6510  175.1150  134.8200 N   0  0  0  0  0  1  0  0  0  0  0  0
  182.6510  172.3450  135.5510 C   0  0  0  0  0  0  0  0  0  0  0  0
  186.3250  173.2750  137.0680 O   0  0  0  0  0  1  0  0  0  0  0  0
  186.7400  171.3840  135.6140 C   0  0  0  0  0  2  0  0  0  0  0  0
  186.1610  172.4710  134.7000 C   0  0  2  0  0  3  0  0  0  0  0  0
  186.9940  172.8360  135.9220 C   0  0  1  0  0  0  0  0  0  0  0  0
  188.4250  173.2910  135.7050 C   0  0  0  0  0  2  0  0  0  0  0  0
  189.1310  173.2260  136.9170 O   0  0  0  0  0  0  0  0  0  0  0  0
  191.1080  173.9950  137.8100 F   0  0  0  0  0  0  0  0  0  0  0  0
  189.4730  175.4770  137.2670 F   0  0  0  0  0  0  0  0  0  0  0  0
  190.6080  174.3970  135.6590 F   0  0  0  0  0  0  0  0  0  0  0  0
  190.0740  174.2730  136.9270 C   0  0  0  0  0  0  0  0  0  0  0  0
  179.6460  183.8050  137.3850 C   0  0  0  0  0  3  0  0  0  0  0  0
  180.1670  181.7560  136.2080 C   0  0  0  0  0  0  0  0  0  0  0  0
  179.5030  182.1720  134.9750 C   0  0  0  0  0  3  0  0  0  0  0  0
  178.9310  183.3860  134.9530 C   0  0  0  0  0  3  0  0  0  0  0  0
  180.8880  181.9470  138.4220 N   0  0  0  0  0  0  0  0  0  0  0  0
  178.9510  184.3410  136.1440 C   0  0  0  0  0  3  0  0  0  0  0  0
  180.8020  180.6430  136.5260 C   0  0  0  0  0  0  0  0  0  0  0  0
  181.2460  180.7940  137.9340 C   0  0  0  0  0  0  0  0  0  0  0  0
  180.2020  182.5980  137.3630 C   0  0  2  0  0  3  0  0  0  0  0  0
  180.9770  179.4550  135.6390 C   0  0  0  0  0  2  0  0  0  0  0  0
  181.9850  179.7110  134.7070 O   0  0  0  0  0  1  0  0  0  0  0  0
  182.3140  177.5140  139.7260 C   0  0  0  0  0  2  0  0  0  0  0  0
  182.5500  178.2080  141.0560 C   0  0  0  0  0  2  0  0  0  0  0  0
  183.9230  177.8320  141.5800 C   0  0  0  0  0  2  0  0  0  0  0  0
  184.9680  178.7600  140.9810 C   0  0  0  0  0  2  0  0  0  0  0  0
  185.1220  179.5320  143.3320 C   0  0  1  0  0  3  0  0  0  0  0  0
  184.5750  177.7370  144.8150 O   0  0  0  0  0  1  0  0  0  0  0  0
  186.8560  178.1920  142.4690 C   0  0  0  0  0  0  0  0  0  0  0  0
  185.3360  180.8470  143.7430 O   0  0  0  0  0  1  0  0  0  0  0  0
  185.9180  179.2580  142.0560 C   0  0  1  0  0  3  0  0  0  0  0  0
  187.7660  177.7360  141.7260 O   0  0  0  0  0  0  0  0  0  0  0  0
  186.6750  177.7730  143.8060 N   0  0  0  0  0  0  0  0  0  0  0  0
  185.6230  178.5690  144.4170 C   0  0  1  0  0  3  0  0  0  0  0  0
  187.7350  177.1380  144.5760 C   0  0  0  0  0  2  0  0  0  0  0  0
  187.7130  177.6200  146.0140 C   0  0  0  0  0  2  0  0  0  0  0  0
  189.0530  177.5490  146.5660 N   0  0  0  0  0  2  0  0  0  0  0  0
  189.7580  176.5230  145.8170 C   0  0  0  0  0  2  0  0  0  0  0  0
  192.0260  176.3940  146.7650 C   0  0  0  0  0  1  0  0  0  0  0  0
  191.2060  176.9410  145.6090 C   0  0  1  0  0  3  0  0  0  0  0  0
  191.7550  176.4290  144.2730 C   0  0  1  0  0  3  0  0  0  0  0  0
  191.6630  175.0340  144.2120 O   0  0  0  0  0  1  0  0  0  0  0  0
  190.9700  177.0220  143.1080 C   0  0  2  0  0  3  0  0  0  0  0  0
  191.9390  177.5650  142.0740 C   0  0  2  0  0  3  0  0  0  0  0  0
  191.2260  178.5140  143.0130 C   0  0  0  0  0  2  0  0  0  0  0  0
  191.7980  176.5270  139.8920 N   0  0  0  0  0  1  0  0  0  0  0  0
  191.2520  177.5820  140.7250 C   0  0  0  0  0  2  0  0  0  0  0  0
  2 44  1  0  0  0  0
  3  2  1  0  0  0  0
  3  1  2  0  0  0  0
  5  2  1  1  0  0  0
  5  8  1  0  0  0  0
  7  4  2  0  0  0  0
  8  6  1  0  0  0  0
  9 13  1  0  0  0  0
 10  7  1  0  0  0  0
 11  9  2  0  0  0  0
 11  5  1  0  0  0  0
 12 10  2  0  0  0  0
 12  9  1  0  0  0  0
 13  4  1  0  0  0  0
 13  8  2  0  0  0  0
 14 16  1  0  0  0  0
 14 10  1  0  0  0  0
 16 15  1  6  0  0  0
 17 22  1  0  0  0  0
 18 17  2  0  0  0  0
 19 22  2  0  0  0  0
 20 18  1  0  0  0  0
 20 19  1  0  0  0  0
 21 18  1  0  0  0  0
 22 16  1  0  0  0  0
 24 26  1  0  0  0  0
 25 20  1  1  0  0  0
 25 24  1  0  0  0  0
 25 26  1  0  0  0  0
 26 23  1  1  0  0  0
 27 26  1  0  0  0  0
 27 28  1  0  0  0  0
 28 32  1  0  0  0  0
 31 32  1  0  0  0  0
 32 30  1  0  0  0  0
 32 29  1  0  0  0  0
 34 39  2  0  0  0  0
 34 41  1  0  0  0  0
 35 34  1  0  0  0  0
 36 35  2  0  0  0  0
 36 38  1  0  0  0  0
 38 33  2  0  0  0  0
 39 40  1  0  0  0  0
 40 37  2  0  0  0  0
 40  3  1  0  0  0  0
 41 33  1  1  0  0  0
 41 37  1  0  0  0  0
 42 39  1  0  0  0  0
 43 42  1  0  0  0  0
 44 45  1  0  0  0  0
 45 46  1  0  0  0  0
 47 46  1  0  0  0  0
 48 51  1  1  0  0  0
 48 55  1  0  0  0  0
 50 54  1  0  0  0  0
 52 47  1  6  0  0  0
 52 50  1  0  0  0  0
 52 48  1  0  0  0  0
 53 50  2  0  0  0  0
 54 55  1  0  0  0  0
 54 56  1  0  0  0  0
 55 49  1  6  0  0  0
 56 57  1  0  0  0  0
 57 58  1  0  0  0  0
 59 58  1  0  0  0  0
 61 59  1  0  0  0  0
 61 60  1  1  0  0  0
 62 63  1  1  0  0  0
 62 61  1  0  0  0  0
 64 62  1  1  0  0  0
 65 68  1  6  0  0  0
 65 66  1  0  0  0  0
 65 64  1  0  0  0  0
 66 64  1  0  0  0  0
 67 68  1  0  0  0  0
M  END
>  <MODEL>
3

>  <REMARK>
 VINA RESULT:      -5.3      2.158      3.229
  Name = 
  23 active torsions:
  status: ('A' for Active; 'I' for Inactive)
    1  A    between atoms: N_3  and  C_9
    2  A    between atoms: N_3  and  C_58
    3  A    between atoms: C_8  and  C_10
    4  A    between atoms: C_8  and  C_57
    5  A    between atoms: C_9  and  C_57
    6  A    between atoms: C_11  and  C_54
    7  A    between atoms: C_13  and  N_38
    8  A    between atoms: C_14  and  C_30
    9  A    between atoms: C_14  and  C_43
   10  A    between atoms: C_15  and  C_52
   11  A    between atoms: C_15  and  C_56
   12  A    between atoms: C_18  and  C_47
   13  A    between atoms: C_22  and  C_24
   14  A    between atoms: C_22  and  C_30
   15  A    between atoms: C_24  and  N_38
   16  A    between atoms: O_26  and  C_31
   17  A    between atoms: O_26  and  C_62
   18  A    between atoms: C_31  and  C_61
   19  A    between atoms: N_32  and  C_60
   20  A    between atoms: C_35  and  C_58
   21  A    between atoms: C_35  and  N_65
   22  A    between atoms: C_40  and  C_64
   23  A    between atoms: C_53  and  C_56
                            x       y       z     vdW  Elec       q    Type
                         _______ _______ _______ _____ _____    ______ ____

>  <TORSDO>
F 23

$$$$
=
 OpenBabel10222420493D

 68 75  0  0  1  0  0  0  0  0999 V2000
  187.0640  176.5900  146.2390 O   0  0  0  0  0  0  0  0  0  0  0  0
  188.0630  177.4320  144.3060 N   0  0  0  0  0  0  0  0  0  0  0  0
  188.1320  176.9270  145.6580 C   0  0  0  0  0  0  0  0  0  0  0  0
  189.1630  178.4760  139.9790 C   0  0  0  0  0  3  0  0  0  0  0  0
  189.2590  177.8730  143.5820 C   0  0  2  0  0  3  0  0  0  0  0  0
  188.2190  179.9410  142.4450 O   0  0  0  0  0  1  0  0  0  0  0  0
  189.6900  177.6030  139.0140 C   0  0  0  0  0  3  0  0  0  0  0  0
  188.8860  178.7220  142.4030 C   0  0  0  0  0  0  0  0  0  0  0  0
  189.9050  176.9390  141.6720 C   0  0  0  0  0  0  0  0  0  0  0  0
  190.3250  176.4110  139.4170 C   0  0  0  0  0  0  0  0  0  0  0  0
  189.9290  176.7300  142.9470 N   0  0  0  0  0  0  0  0  0  0  0  0
  190.4140  176.0910  140.7440 N   0  0  0  0  0  0  0  0  0  0  0  0
  189.2940  178.1080  141.3140 C   0  0  0  0  0  0  0  0  0  0  0  0
  190.8450  175.4760  138.3770 C   0  0  0  0  0  2  0  0  0  0  0  0
  191.9760  175.7550  136.1750 C   0  0  0  0  0  1  0  0  0  0  0  0
  190.7270  176.0770  136.9790 C   0  0  1  0  0  3  0  0  0  0  0  0
  189.3030  174.2680  135.9940 N   0  0  0  0  0  0  0  0  0  0  0  0
  188.1150  174.2640  135.3640 C   0  0  0  0  0  0  0  0  0  0  0  0
  188.4530  176.3430  135.7940 C   0  0  0  0  0  3  0  0  0  0  0  0
  187.5890  175.4950  135.2100 N   0  0  0  0  0  0  0  0  0  0  0  0
  187.4540  173.0620  134.9700 N   0  0  0  0  0  1  0  0  0  0  0  0
  189.5140  175.5760  136.2520 C   0  0  0  0  0  0  0  0  0  0  0  0
  186.0130  176.8490  136.9580 O   0  0  0  0  0  1  0  0  0  0  0  0
  186.1070  177.3790  134.5980 C   0  0  0  0  0  2  0  0  0  0  0  0
  186.2760  175.8570  134.6720 C   0  0  2  0  0  3  0  0  0  0  0  0
  185.4430  176.6050  135.7050 C   0  0  1  0  0  0  0  0  0  0  0  0
  183.9320  176.5200  135.6060 C   0  0  0  0  0  2  0  0  0  0  0  0
  183.5320  175.1740  135.6240 O   0  0  0  0  0  0  0  0  0  0  0  0
  182.2180  173.7740  136.8930 F   0  0  0  0  0  0  0  0  0  0  0  0
  181.2520  175.4800  135.7450 F   0  0  0  0  0  0  0  0  0  0  0  0
  182.5450  175.9010  137.5300 F   0  0  0  0  0  0  0  0  0  0  0  0
  182.3850  175.0740  136.4370 C   0  0  0  0  0  0  0  0  0  0  0  0
  192.5990  175.6800  147.0800 C   0  0  0  0  0  3  0  0  0  0  0  0
  190.9590  177.2070  147.9940 C   0  0  0  0  0  0  0  0  0  0  0  0
  191.7990  177.6000  149.1230 C   0  0  0  0  0  3  0  0  0  0  0  0
  193.0180  177.0460  149.2170 C   0  0  0  0  0  3  0  0  0  0  0  0
  190.3900  176.0400  146.0520 N   0  0  0  0  0  0  0  0  0  0  0  0
  193.5590  176.0400  148.2030 C   0  0  0  0  0  2  0  0  0  0  0  0
  189.7380  177.5700  147.6440 C   0  0  0  0  0  0  0  0  0  0  0  0
  189.4070  176.8140  146.4110 C   0  0  0  0  0  0  0  0  0  0  0  0
  191.4020  176.2550  147.0240 C   0  0  0  0  0  0  0  0  0  0  0  0
  188.8640  178.5200  148.3930 C   0  0  0  0  0  2  0  0  0  0  0  0
  187.6520  177.8970  148.7020 O   0  0  0  0  0  1  0  0  0  0  0  0
  186.7530  177.6920  143.7090 C   0  0  0  0  0  2  0  0  0  0  0  0
  185.7190  177.9720  144.7860 C   0  0  0  0  0  2  0  0  0  0  0  0
  184.8330  179.1200  144.3410 C   0  0  0  0  0  2  0  0  0  0  0  0
  183.5430  178.5690  143.7530 C   0  0  0  0  0  2  0  0  0  0  0  0
  183.9390  178.6290  141.3050 C   0  0  1  0  0  3  0  0  0  0  0  0
  183.0630  176.6490  140.2900 O   0  0  0  0  0  1  0  0  0  0  0  0
  181.7730  179.0860  142.1090 C   0  0  0  0  0  0  0  0  0  0  0  0
  184.6960  179.5850  140.6290 O   0  0  0  0  0  1  0  0  0  0  0  0
  183.1930  179.2920  142.4640 C   0  0  1  0  0  3  0  0  0  0  0  0
  180.8110  179.5690  142.7660 O   0  0  0  0  0  0  0  0  0  0  0  0
  181.5940  178.3430  140.9210 N   0  0  0  0  0  0  0  0  0  0  0  0
  182.8950  178.0340  140.3520 C   0  0  1  0  0  3  0  0  0  0  0  0
  180.3810  178.4310  140.1200 C   0  0  0  0  0  2  0  0  0  0  0  0
  180.3120  177.2860  139.1280 C   0  0  0  0  0  2  0  0  0  0  0  0
  180.1900  177.8200  137.7840 N   0  0  0  0  0  2  0  0  0  0  0  0
  181.0640  178.9780  137.7150 C   0  0  0  0  0  2  0  0  0  0  0  0
  180.3840  179.1520  135.3560 C   0  0  0  0  0  1  0  0  0  0  0  0
  180.5650  179.9370  136.6440 C   0  0  1  0  0  3  0  0  0  0  0  0
  179.2490  180.6070  137.0540 C   0  0  1  0  0  3  0  0  0  0  0  0
  179.0290  180.4450  138.4270 O   0  0  0  0  0  1  0  0  0  0  0  0
  179.2860  182.0980  136.7390 C   0  0  2  0  0  3  0  0  0  0  0  0
  180.7240  182.5820  136.7620 C   0  0  2  0  0  3  0  0  0  0  0  0
  179.8100  182.8710  137.9330 C   0  0  0  0  0  2  0  0  0  0  0  0
  181.5450  184.8540  136.6230 N   0  0  0  0  0  1  0  0  0  0  0  0
  180.8370  183.8180  135.8960 C   0  0  0  0  0  2  0  0  0  0  0  0
  2  3  1  0  0  0  0
  3  1  2  0  0  0  0
  3 40  1  0  0  0  0
  4 13  1  0  0  0  0
  5  2  1  6  0  0  0
  7 10  1  0  0  0  0
  7  4  2  0  0  0  0
  8  6  1  0  0  0  0
  8  5  1  0  0  0  0
  9 11  2  0  0  0  0
 10 12  2  0  0  0  0
 11  5  1  0  0  0  0
 12  9  1  0  0  0  0
 13  9  1  0  0  0  0
 13  8  2  0  0  0  0
 14 10  1  0  0  0  0
 16 15  1  6  0  0  0
 16 14  1  0  0  0  0
 17 22  1  0  0  0  0
 18 17  2  0  0  0  0
 19 22  2  0  0  0  0
 20 18  1  0  0  0  0
 20 19  1  0  0  0  0
 21 18  1  0  0  0  0
 22 16  1  0  0  0  0
 24 26  1  0  0  0  0
 25 24  1  6  0  0  0
 25 20  1  0  0  0  0
 25 26  1  0  0  0  0
 26 23  1  1  0  0  0
 27 28  1  0  0  0  0
 27 26  1  0  0  0  0
 28 32  1  0  0  0  0
 30 32  1  0  0  0  0
 32 29  1  0  0  0  0
 32 31  1  0  0  0  0
 33 38  1  0  0  0  0
 34 35  1  0  0  0  0
 35 36  2  0  0  0  0
 37 40  2  0  0  0  0
 37 41  1  0  0  0  0
 38 36  1  0  0  0  0
 39 34  2  0  0  0  0
 39 42  1  0  0  0  0
 40 39  1  0  0  0  0
 41 33  2  0  0  0  0
 41 34  1  0  0  0  0
 42 43  1  0  0  0  0
 44  2  1  0  0  0  0
 44 45  1  0  0  0  0
 46 45  1  0  0  0  0
 47 46  1  0  0  0  0
 48 51  1  6  0  0  0
 48 52  1  0  0  0  0
 50 52  1  0  0  0  0
 50 53  2  0  0  0  0
 52 47  1  1  0  0  0
 54 50  1  0  0  0  0
 55 49  1  1  0  0  0
 55 54  1  0  0  0  0
 55 48  1  0  0  0  0
 56 54  1  0  0  0  0
 57 56  1  0  0  0  0
 58 57  1  0  0  0  0
 59 58  1  0  0  0  0
 61 60  1  6  0  0  0
 61 62  1  0  0  0  0
 61 59  1  0  0  0  0
 62 63  1  1  0  0  0
 64 65  1  0  0  0  0
 64 62  1  1  0  0  0
 64 66  1  0  0  0  0
 65 68  1  6  0  0  0
 65 66  1  0  0  0  0
 68 67  1  0  0  0  0
M  END
>  <MODEL>
4

>  <REMARK>
 VINA RESULT:      -4.7      3.635     10.426
  Name = 
  23 active torsions:
  status: ('A' for Active; 'I' for Inactive)
    1  A    between atoms: N_3  and  C_9
    2  A    between atoms: N_3  and  C_58
    3  A    between atoms: C_8  and  C_10
    4  A    between atoms: C_8  and  C_57
    5  A    between atoms: C_9  and  C_57
    6  A    between atoms: C_11  and  C_54
    7  A    between atoms: C_13  and  N_38
    8  A    between atoms: C_14  and  C_30
    9  A    between atoms: C_14  and  C_43
   10  A    between atoms: C_15  and  C_52
   11  A    between atoms: C_15  and  C_56
   12  A    between atoms: C_18  and  C_47
   13  A    between atoms: C_22  and  C_24
   14  A    between atoms: C_22  and  C_30
   15  A    between atoms: C_24  and  N_38
   16  A    between atoms: O_26  and  C_31
   17  A    between atoms: O_26  and  C_62
   18  A    between atoms: C_31  and  C_61
   19  A    between atoms: N_32  and  C_60
   20  A    between atoms: C_35  and  C_58
   21  A    between atoms: C_35  and  N_65
   22  A    between atoms: C_40  and  C_64
   23  A    between atoms: C_53  and  C_56
                            x       y       z     vdW  Elec       q    Type
                         _______ _______ _______ _____ _____    ______ ____

>  <TORSDO>
F 23

$$$$
=
 OpenBabel10222420493D

 68 75  0  0  1  0  0  0  0  0999 V2000
  184.0240  177.5680  141.9370 O   0  0  0  0  0  0  0  0  0  0  0  0
  184.4510  178.8570  140.0400 N   0  0  0  0  0  0  0  0  0  0  0  0
  183.7350  177.8110  140.7340 C   0  0  0  0  0  0  0  0  0  0  0  0
  181.1740  177.9670  136.9590 C   0  0  0  0  0  3  0  0  0  0  0  0
  184.1900  179.1720  138.6320 C   0  0  2  0  0  3  0  0  0  0  0  0
  181.8240  180.1520  138.9390 O   0  0  0  0  0  1  0  0  0  0  0  0
  181.1430  176.8930  136.0550 C   0  0  0  0  0  3  0  0  0  0  0  0
  182.7160  179.2520  138.3670 C   0  0  0  0  0  0  0  0  0  0  0  0
  183.5450  177.6300  137.1680 C   0  0  0  0  0  0  0  0  0  0  0  0
  182.3360  176.2180  135.7250 C   0  0  0  0  0  0  0  0  0  0  0  0
  184.6060  178.0580  137.7690 N   0  0  0  0  0  0  0  0  0  0  0  0
  183.5210  176.5920  136.2970 N   0  0  0  0  0  0  0  0  0  0  0  0
  182.4080  178.3130  137.5000 C   0  0  0  0  0  0  0  0  0  0  0  0
  182.2790  175.0560  134.7910 C   0  0  0  0  0  2  0  0  0  0  0  0
  181.6200  172.6620  134.9800 C   0  0  0  0  0  1  0  0  0  0  0  0
  182.5440  173.7410  135.5200 C   0  0  1  0  0  3  0  0  0  0  0  0
  184.3200  172.0430  135.0410 N   0  0  0  0  0  0  0  0  0  0  0  0
  185.6640  172.0910  135.0140 C   0  0  0  0  0  0  0  0  0  0  0  0
  185.0970  174.0950  135.5470 C   0  0  0  0  0  3  0  0  0  0  0  0
  186.1610  173.3010  135.3330 N   0  0  0  0  0  0  0  0  0  0  0  0
  186.4670  170.9820  134.6130 N   0  0  0  0  0  1  0  0  0  0  0  0
  183.9710  173.3010  135.3860 C   0  0  0  0  0  0  0  0  0  0  0  0
  186.9340  174.6720  137.5450 O   0  0  0  0  0  1  0  0  0  0  0  0
  188.3730  173.0820  136.4220 C   0  0  0  0  0  2  0  0  0  0  0  0
  187.5570  173.7430  135.3030 C   0  0  2  0  0  3  0  0  0  0  0  0
  187.9200  174.5110  136.5680 C   0  0  1  0  0  0  0  0  0  0  0  0
  189.0290  175.5410  136.4870 C   0  0  0  0  0  2  0  0  0  0  0  0
  188.4970  176.8260  136.6830 O   0  0  0  0  0  0  0  0  0  0  0  0
  189.8230  176.7650  138.5640 F   0  0  0  0  0  0  0  0  0  0  0  0
  188.7970  178.7060  137.9790 F   0  0  0  0  0  0  0  0  0  0  0  0
  190.4910  177.9010  136.7460 F   0  0  0  0  0  0  0  0  0  0  0  0
  189.3900  177.5460  137.5010 C   0  0  0  0  0  0  0  0  0  0  0  0
  181.4300  174.3920  138.1780 C   0  0  0  0  0  3  0  0  0  0  0  0
  180.6380  176.2620  139.4950 C   0  0  0  0  0  0  0  0  0  0  0  0
  179.2280  175.9880  139.2290 C   0  0  0  0  0  3  0  0  0  0  0  0
  178.9320  174.9290  138.4590 C   0  0  0  0  0  3  0  0  0  0  0  0
  182.9480  175.9430  139.3430 N   0  0  0  0  0  0  0  0  0  0  0  0
  179.9930  174.0070  137.8620 C   0  0  0  0  0  3  0  0  0  0  0  0
  181.2270  177.2120  140.1980 C   0  0  1  0  0  3  0  0  0  0  0  0
  182.6880  176.9830  140.0820 C   0  0  0  0  0  0  0  0  0  0  0  0
  181.6780  175.4470  138.9480 C   0  0  0  0  0  0  0  0  0  0  0  0
  180.5330  178.3220  140.9150 C   0  0  0  0  0  2  0  0  0  0  0  0
  179.4810  177.8040  141.6740 O   0  0  0  0  0  1  0  0  0  0  0  0
  185.5950  179.4920  140.6940 C   0  0  0  0  0  2  0  0  0  0  0  0
  186.3000  178.5080  141.6130 C   0  0  0  0  0  2  0  0  0  0  0  0
  187.5070  177.9330  140.8970 C   0  0  0  0  0  2  0  0  0  0  0  0
  188.7800  178.4620  141.5390 C   0  0  0  0  0  2  0  0  0  0  0  0
  191.1870  177.9630  141.8660 C   0  0  1  0  0  3  0  0  0  0  0  0
  191.9020  178.7660  144.0020 O   0  0  0  0  0  1  0  0  0  0  0  0
  189.5970  176.6310  142.9820 C   0  0  0  0  0  0  0  0  0  0  0  0
  192.0460  177.4390  140.9010 O   0  0  0  0  0  1  0  0  0  0  0  0
  189.7970  177.3460  141.7040 C   0  0  1  0  0  3  0  0  0  0  0  0
  188.5980  175.9010  143.2250 O   0  0  0  0  0  0  0  0  0  0  0  0
  190.6680  176.7940  143.8890 N   0  0  0  0  0  0  0  0  0  0  0  0
  191.7040  177.5980  143.2640 C   0  0  1  0  0  3  0  0  0  0  0  0
  190.9420  175.8390  144.9540 C   0  0  0  0  0  2  0  0  0  0  0  0
  192.0650  176.3370  145.8430 C   0  0  0  0  0  2  0  0  0  0  0  0
  191.5010  176.9780  147.0160 N   0  0  0  0  0  2  0  0  0  0  0  0
  190.2000  176.3700  147.2390 C   0  0  0  0  0  2  0  0  0  0  0  0
  189.8580  178.6640  148.0610 C   0  0  0  0  0  1  0  0  0  0  0  0
  189.3890  177.2260  148.1990 C   0  0  1  0  0  3  0  0  0  0  0  0
  187.8860  177.1230  147.9170 C   0  0  1  0  0  3  0  0  0  0  0  0
  187.1700  177.0610  149.1180 O   0  0  0  0  0  1  0  0  0  0  0  0
  187.4050  178.3320  147.1240 C   0  0  2  0  0  3  0  0  0  0  0  0
  186.3070  177.9020  146.1680 C   0  0  2  0  0  3  0  0  0  0  0  0
  187.7080  178.1430  145.6500 C   0  0  0  0  0  2  0  0  0  0  0  0
  184.0510  178.7780  146.1170 N   0  0  0  0  0  1  0  0  0  0  0  0
  185.4400  179.1020  145.8500 C   0  0  0  0  0  2  0  0  0  0  0  0
  2 44  1  0  0  0  0
  2  3  1  0  0  0  0
  3  1  2  0  0  0  0
  4 13  1  0  0  0  0
  5  2  1  1  0  0  0
  7  4  2  0  0  0  0
  8  5  1  0  0  0  0
  8  6  1  0  0  0  0
  9 13  1  0  0  0  0
  9 11  2  0  0  0  0
 10  7  1  0  0  0  0
 10 12  2  0  0  0  0
 11  5  1  0  0  0  0
 12  9  1  0  0  0  0
 13  8  2  0  0  0  0
 14 16  1  0  0  0  0
 14 10  1  0  0  0  0
 16 15  1  6  0  0  0
 17 22  1  0  0  0  0
 18 17  2  0  0  0  0
 18 20  1  0  0  0  0
 20 19  1  0  0  0  0
 21 18  1  0  0  0  0
 22 16  1  0  0  0  0
 22 19  2  0  0  0  0
 24 26  1  0  0  0  0
 25 20  1  1  0  0  0
 25 24  1  0  0  0  0
 25 26  1  0  0  0  0
 26 23  1  1  0  0  0
 27 26  1  0  0  0  0
 27 28  1  0  0  0  0
 28 32  1  0  0  0  0
 31 32  1  0  0  0  0
 32 30  1  0  0  0  0
 32 29  1  0  0  0  0
 33 41  1  0  0  0  0
 34 39  1  0  0  0  0
 35 34  1  0  0  0  0
 36 35  2  0  0  0  0
 37 40  2  0  0  0  0
 38 33  2  0  0  0  0
 38 36  1  0  0  0  0
 39 42  1  6  0  0  0
 40 39  1  0  0  0  0
 40  3  1  0  0  0  0
 41 37  1  0  0  0  0
 41 34  2  0  0  0  0
 42 43  1  0  0  0  0
 44 45  1  0  0  0  0
 46 47  1  0  0  0  0
 46 45  1  0  0  0  0
 48 51  1  6  0  0  0
 48 55  1  0  0  0  0
 50 53  2  0  0  0  0
 50 54  1  0  0  0  0
 52 47  1  1  0  0  0
 52 48  1  0  0  0  0
 52 50  1  0  0  0  0
 54 56  1  0  0  0  0
 55 54  1  0  0  0  0
 55 49  1  1  0  0  0
 56 57  1  0  0  0  0
 57 58  1  0  0  0  0
 58 59  1  0  0  0  0
 59 61  1  0  0  0  0
 61 60  1  6  0  0  0
 62 61  1  0  0  0  0
 62 63  1  1  0  0  0
 64 62  1  1  0  0  0
 65 68  1  6  0  0  0
 65 64  1  0  0  0  0
 66 65  1  0  0  0  0
 66 64  1  0  0  0  0
 68 67  1  0  0  0  0
M  END
>  <MODEL>
5

>  <REMARK>
 VINA RESULT:      -4.6      3.094      5.398
  Name = 
  23 active torsions:
  status: ('A' for Active; 'I' for Inactive)
    1  A    between atoms: N_3  and  C_9
    2  A    between atoms: N_3  and  C_58
    3  A    between atoms: C_8  and  C_10
    4  A    between atoms: C_8  and  C_57
    5  A    between atoms: C_9  and  C_57
    6  A    between atoms: C_11  and  C_54
    7  A    between atoms: C_13  and  N_38
    8  A    between atoms: C_14  and  C_30
    9  A    between atoms: C_14  and  C_43
   10  A    between atoms: C_15  and  C_52
   11  A    between atoms: C_15  and  C_56
   12  A    between atoms: C_18  and  C_47
   13  A    between atoms: C_22  and  C_24
   14  A    between atoms: C_22  and  C_30
   15  A    between atoms: C_24  and  N_38
   16  A    between atoms: O_26  and  C_31
   17  A    between atoms: O_26  and  C_62
   18  A    between atoms: C_31  and  C_61
   19  A    between atoms: N_32  and  C_60
   20  A    between atoms: C_35  and  C_58
   21  A    between atoms: C_35  and  N_65
   22  A    between atoms: C_40  and  C_64
   23  A    between atoms: C_53  and  C_56
                            x       y       z     vdW  Elec       q    Type
                         _______ _______ _______ _____ _____    ______ ____

>  <TORSDO>
F 23

$$$$
=
 OpenBabel10222420493D

 68 75  0  0  1  0  0  0  0  0999 V2000
  186.8850  176.0860  146.6800 O   0  0  0  0  0  0  0  0  0  0  0  0
  187.6350  177.2120  144.7800 N   0  0  0  0  0  0  0  0  0  0  0  0
  187.8500  176.6430  146.0910 C   0  0  0  0  0  0  0  0  0  0  0  0
  188.6070  178.2070  140.4110 C   0  0  0  0  0  3  0  0  0  0  0  0
  188.7030  177.9030  144.0510 C   0  0  2  0  0  3  0  0  0  0  0  0
  187.2050  179.5360  142.7320 O   0  0  0  0  0  1  0  0  0  0  0  0
  189.3860  177.4390  139.5300 C   0  0  0  0  0  3  0  0  0  0  0  0
  188.1710  178.5380  142.8010 C   0  0  0  0  0  0  0  0  0  0  0  0
  189.6530  177.0440  142.2360 C   0  0  0  0  0  0  0  0  0  0  0  0
  190.2940  176.4900  140.0400 C   0  0  0  0  0  0  0  0  0  0  0  0
  189.6770  176.9380  143.5240 N   0  0  0  0  0  0  0  0  0  0  0  0
  190.4070  176.2980  141.3900 N   0  0  0  0  0  0  0  0  0  0  0  0
  188.7720  177.9800  141.7730 C   0  0  0  0  0  0  0  0  0  0  0  0
  191.0870  175.6570  139.0890 C   0  0  0  0  0  2  0  0  0  0  0  0
  192.3110  176.3670  137.0390 C   0  0  0  0  0  1  0  0  0  0  0  0
  190.9370  176.1550  137.6540 C   0  0  1  0  0  3  0  0  0  0  0  0
  190.5550  173.9450  136.5400 N   0  0  0  0  0  0  0  0  0  0  0  0
  189.5570  173.4470  135.7880 C   0  0  0  0  0  0  0  0  0  0  0  0
  188.9060  175.4470  136.2330 C   0  0  0  0  0  3  0  0  0  0  0  0
  188.5630  174.3300  135.5680 N   0  0  0  0  0  0  0  0  0  0  0  0
  189.5320  172.0940  135.3370 N   0  0  0  0  0  1  0  0  0  0  0  0
  190.1450  175.2030  136.8070 C   0  0  0  0  0  0  0  0  0  0  0  0
  186.6990  173.0980  137.1100 O   0  0  0  0  0  1  0  0  0  0  0  0
  186.1520  174.8820  135.5680 C   0  0  0  0  0  2  0  0  0  0  0  0
  187.2860  174.1030  134.8910 C   0  0  2  0  0  3  0  0  0  0  0  0
  186.2910  173.4030  135.8080 C   0  0  1  0  0  0  0  0  0  0  0  0
  185.2090  172.5510  135.1740 C   0  0  0  0  0  2  0  0  0  0  0  0
  183.9560  172.9110  135.6960 O   0  0  0  0  0  0  0  0  0  0  0  0
  181.9810  171.8560  136.2290 F   0  0  0  0  0  0  0  0  0  0  0  0
  183.8080  171.5430  137.5440 F   0  0  0  0  0  0  0  0  0  0  0  0
  183.7310  170.6670  135.4780 F   0  0  0  0  0  0  0  0  0  0  0  0
  183.3650  171.7560  136.2450 C   0  0  0  0  0  0  0  0  0  0  0  0
  192.5070  176.0560  147.3210 C   0  0  0  0  0  3  0  0  0  0  0  0
  190.6950  177.3080  148.3250 C   0  0  0  0  0  0  0  0  0  0  0  0
  191.5120  177.8060  149.4290 C   0  0  0  0  0  3  0  0  0  0  0  0
  192.8030  177.4390  149.4660 C   0  0  0  0  0  3  0  0  0  0  0  0
  190.2290  176.0970  146.3820 N   0  0  0  0  0  0  0  0  0  0  0  0
  193.4460  176.5390  148.4140 C   0  0  0  0  0  2  0  0  0  0  0  0
  189.4220  177.4910  148.0270 C   0  0  0  0  0  0  0  0  0  0  0  0
  189.1580  176.7110  146.7930 C   0  0  0  0  0  0  0  0  0  0  0  0
  191.2360  176.4460  147.3200 C   0  0  0  0  0  0  0  0  0  0  0  0
  188.4460  178.2890  148.8270 C   0  0  0  0  0  2  0  0  0  0  0  0
  187.8480  179.2520  148.0110 O   0  0  0  0  0  1  0  0  0  0  0  0
  186.2760  177.2730  144.2440 C   0  0  0  0  0  2  0  0  0  0  0  0
  185.3650  178.0480  145.1810 C   0  0  0  0  0  2  0  0  0  0  0  0
  184.6290  179.1140  144.3920 C   0  0  0  0  0  2  0  0  0  0  0  0
  183.2450  178.6060  144.0180 C   0  0  0  0  0  2  0  0  0  0  0  0
  183.6310  178.6730  141.5690 C   0  0  1  0  0  3  0  0  0  0  0  0
  183.1000  176.5510  140.6030 O   0  0  0  0  0  1  0  0  0  0  0  0
  181.4170  178.7820  142.3660 C   0  0  0  0  0  0  0  0  0  0  0  0
  184.2200  179.7250  140.8690 O   0  0  0  0  0  1  0  0  0  0  0  0
  182.7820  179.2300  142.7130 C   0  0  1  0  0  3  0  0  0  0  0  0
  180.3870  179.1130  143.0120 O   0  0  0  0  0  0  0  0  0  0  0  0
  181.3680  177.9920  141.1950 N   0  0  0  0  0  0  0  0  0  0  0  0
  182.7030  177.8890  140.6320 C   0  0  1  0  0  3  0  0  0  0  0  0
  180.1590  177.8570  140.3950 C   0  0  0  0  0  2  0  0  0  0  0  0
  180.0650  176.4660  139.7990 C   0  0  0  0  0  2  0  0  0  0  0  0
  179.4980  176.5500  138.4660 N   0  0  0  0  0  2  0  0  0  0  0  0
  179.8130  177.8770  137.9620 C   0  0  0  0  0  2  0  0  0  0  0  0
  179.7800  178.1680  135.5190 C   0  0  0  0  0  1  0  0  0  0  0  0
  180.6490  177.7620  136.6970 C   0  0  1  0  0  3  0  0  0  0  0  0
  181.9030  178.6410  136.7660 C   0  0  1  0  0  3  0  0  0  0  0  0
  181.5810  179.9060  137.2710 O   0  0  0  0  0  1  0  0  0  0  0  0
  182.9530  178.0070  137.6700 C   0  0  2  0  0  3  0  0  0  0  0  0
  184.2270  177.7780  136.8770 C   0  0  2  0  0  3  0  0  0  0  0  0
  183.3000  176.6180  137.1720 C   0  0  0  0  0  2  0  0  0  0  0  0
  186.5960  178.1900  137.1520 N   0  0  0  0  0  1  0  0  0  0  0  0
  185.3980  177.7410  137.8360 C   0  0  0  0  0  2  0  0  0  0  0  0
  2  3  1  0  0  0  0
  3  1  2  0  0  0  0
  3 40  1  0  0  0  0
  4 13  1  0  0  0  0
  5  2  1  6  0  0  0
  6  8  1  0  0  0  0
  7 10  1  0  0  0  0
  7  4  2  0  0  0  0
  8  5  1  0  0  0  0
  9 11  2  0  0  0  0
 10 12  2  0  0  0  0
 11  5  1  0  0  0  0
 12  9  1  0  0  0  0
 13  9  1  0  0  0  0
 13  8  2  0  0  0  0
 14 10  1  0  0  0  0
 16 15  1  6  0  0  0
 16 14  1  0  0  0  0
 17 22  1  0  0  0  0
 18 17  2  0  0  0  0
 19 22  2  0  0  0  0
 20 18  1  0  0  0  0
 20 19  1  0  0  0  0
 21 18  1  0  0  0  0
 22 16  1  0  0  0  0
 24 26  1  0  0  0  0
 25 20  1  1  0  0  0
 25 24  1  0  0  0  0
 25 26  1  0  0  0  0
 26 23  1  1  0  0  0
 27 28  1  0  0  0  0
 27 26  1  0  0  0  0
 28 32  1  0  0  0  0
 29 32  1  0  0  0  0
 31 32  1  0  0  0  0
 32 30  1  0  0  0  0
 33 38  1  0  0  0  0
 34 35  1  0  0  0  0
 35 36  2  0  0  0  0
 37 40  2  0  0  0  0
 37 41  1  0  0  0  0
 38 36  1  0  0  0  0
 39 34  2  0  0  0  0
 39 42  1  0  0  0  0
 40 39  1  0  0  0  0
 41 33  2  0  0  0  0
 41 34  1  0  0  0  0
 43 42  1  0  0  0  0
 44  2  1  0  0  0  0
 44 45  1  0  0  0  0
 46 45  1  0  0  0  0
 47 46  1  0  0  0  0
 48 51  1  6  0  0  0
 48 52  1  0  0  0  0
 50 52  1  0  0  0  0
 50 53  2  0  0  0  0
 52 47  1  1  0  0  0
 54 50  1  0  0  0  0
 55 49  1  1  0  0  0
 55 54  1  0  0  0  0
 55 48  1  0  0  0  0
 56 54  1  0  0  0  0
 57 56  1  0  0  0  0
 58 57  1  0  0  0  0
 59 58  1  0  0  0  0
 61 60  1  6  0  0  0
 61 62  1  0  0  0  0
 61 59  1  0  0  0  0
 62 63  1  1  0  0  0
 64 62  1  6  0  0  0
 65 66  1  0  0  0  0
 65 64  1  0  0  0  0
 65 68  1  1  0  0  0
 66 64  1  0  0  0  0
 67 68  1  0  0  0  0
M  END
>  <MODEL>
6

>  <REMARK>
 VINA RESULT:      -4.2      3.609      9.862
  Name = 
  23 active torsions:
  status: ('A' for Active; 'I' for Inactive)
    1  A    between atoms: N_3  and  C_9
    2  A    between atoms: N_3  and  C_58
    3  A    between atoms: C_8  and  C_10
    4  A    between atoms: C_8  and  C_57
    5  A    between atoms: C_9  and  C_57
    6  A    between atoms: C_11  and  C_54
    7  A    between atoms: C_13  and  N_38
    8  A    between atoms: C_14  and  C_30
    9  A    between atoms: C_14  and  C_43
   10  A    between atoms: C_15  and  C_52
   11  A    between atoms: C_15  and  C_56
   12  A    between atoms: C_18  and  C_47
   13  A    between atoms: C_22  and  C_24
   14  A    between atoms: C_22  and  C_30
   15  A    between atoms: C_24  and  N_38
   16  A    between atoms: O_26  and  C_31
   17  A    between atoms: O_26  and  C_62
   18  A    between atoms: C_31  and  C_61
   19  A    between atoms: N_32  and  C_60
   20  A    between atoms: C_35  and  C_58
   21  A    between atoms: C_35  and  N_65
   22  A    between atoms: C_40  and  C_64
   23  A    between atoms: C_53  and  C_56
                            x       y       z     vdW  Elec       q    Type
                         _______ _______ _______ _____ _____    ______ ____

>  <TORSDO>
F 23

$$$$
=
 OpenBabel10222420493D

 68 75  0  0  1  0  0  0  0  0999 V2000
  186.6310  178.9340  142.6060 O   0  0  0  0  0  0  0  0  0  0  0  0
  188.4110  177.7050  141.7340 N   0  0  0  0  0  0  0  0  0  0  0  0
  187.6520  178.2320  142.8440 C   0  0  0  0  0  0  0  0  0  0  0  0
  192.8130  177.9320  140.4690 C   0  0  0  0  0  3  0  0  0  0  0  0
  189.6270  176.9090  141.9350 C   0  0  2  0  0  3  0  0  0  0  0  0
  191.1300  178.8100  142.8180 O   0  0  0  0  0  1  0  0  0  0  0  0
  193.3910  177.3410  139.3340 C   0  0  0  0  0  3  0  0  0  0  0  0
  190.8450  177.7830  141.9240 C   0  0  0  0  0  0  0  0  0  0  0  0
  190.9910  176.3780  140.2650 C   0  0  0  0  0  0  0  0  0  0  0  0
  192.7430  176.2640  138.6970 C   0  0  0  0  0  0  0  0  0  0  0  0
  189.8620  176.0260  140.7850 N   0  0  0  0  0  0  0  0  0  0  0  0
  191.5440  175.8030  139.1670 N   0  0  0  0  0  0  0  0  0  0  0  0
  191.6000  177.4160  140.9130 C   0  0  0  0  0  0  0  0  0  0  0  0
  193.3520  175.6720  137.4700 C   0  0  0  0  0  2  0  0  0  0  0  0
  193.4480  176.3550  135.0770 C   0  0  0  0  0  1  0  0  0  0  0  0
  192.5250  175.9900  136.2270 C   0  0  1  0  0  3  0  0  0  0  0  0
  192.1310  173.6170  135.5340 N   0  0  0  0  0  0  0  0  0  0  0  0
  191.0230  172.9040  135.2580 C   0  0  0  0  0  0  0  0  0  0  0  0
  190.2620  174.8550  135.7430 C   0  0  0  0  0  3  0  0  0  0  0  0
  189.8880  173.6230  135.3540 N   0  0  0  0  0  0  0  0  0  0  0  0
  191.0570  171.5080  134.9680 N   0  0  0  0  0  1  0  0  0  0  0  0
  191.6460  174.8420  135.8270 C   0  0  0  0  0  0  0  0  0  0  0  0
  188.7760  172.8330  137.7010 O   0  0  0  0  0  1  0  0  0  0  0  0
  187.5420  174.0540  136.0140 C   0  0  0  0  0  2  0  0  0  0  0  0
  188.5070  173.1550  135.2310 C   0  0  2  0  0  3  0  0  0  0  0  0
  187.9490  172.7200  136.5800 C   0  0  1  0  0  0  0  0  0  0  0  0
  186.8500  171.6750  136.5980 C   0  0  0  0  0  2  0  0  0  0  0  0
  185.6690  172.2390  137.1070 O   0  0  0  0  0  0  0  0  0  0  0  0
  183.5110  172.7640  136.5030 F   0  0  0  0  0  0  0  0  0  0  0  0
  184.3460  170.7120  136.0010 F   0  0  0  0  0  0  0  0  0  0  0  0
  185.1010  172.5370  134.9340 F   0  0  0  0  0  0  0  0  0  0  0  0
  184.6520  172.0580  136.1490 C   0  0  0  0  0  0  0  0  0  0  0  0
  190.1060  177.1180  146.8780 C   0  0  0  0  0  3  0  0  0  0  0  0
  187.8740  177.9780  146.5060 C   0  0  0  0  0  0  0  0  0  0  0  0
  187.5420  178.0270  147.9280 C   0  0  0  0  0  3  0  0  0  0  0  0
  188.4820  177.6350  148.8020 C   0  0  0  0  0  3  0  0  0  0  0  0
  189.1990  177.5540  144.6300 N   0  0  0  0  0  0  0  0  0  0  0  0
  189.8680  177.1540  148.3800 C   0  0  0  0  0  2  0  0  0  0  0  0
  187.1710  178.2890  145.4330 C   0  0  0  0  0  0  0  0  0  0  0  0
  188.0370  178.0090  144.2610 C   0  0  0  0  0  0  0  0  0  0  0  0
  189.1480  177.5180  146.0480 C   0  0  0  0  0  0  0  0  0  0  0  0
  185.7590  178.7750  145.4270 C   0  0  0  0  0  2  0  0  0  0  0  0
  185.6070  179.7840  146.3810 O   0  0  0  0  0  1  0  0  0  0  0  0
  188.0770  178.1300  140.3750 C   0  0  0  0  0  2  0  0  0  0  0  0
  186.5810  178.0250  140.1340 C   0  0  0  0  0  2  0  0  0  0  0  0
  186.1090  179.2540  139.3810 C   0  0  0  0  0  2  0  0  0  0  0  0
  184.6080  179.1680  139.1530 C   0  0  0  0  0  2  0  0  0  0  0  0
  182.6570  177.6380  139.1210 C   0  0  1  0  0  3  0  0  0  0  0  0
  181.2530  178.1490  137.2530 O   0  0  0  0  0  1  0  0  0  0  0  0
  184.4150  177.2560  137.6010 C   0  0  0  0  0  0  0  0  0  0  0  0
  182.3270  176.7210  140.1190 O   0  0  0  0  0  1  0  0  0  0  0  0
  184.1770  177.7210  138.9840 C   0  0  1  0  0  3  0  0  0  0  0  0
  185.5620  177.0830  137.1090 O   0  0  0  0  0  0  0  0  0  0  0  0
  183.2250  176.9620  136.8970 N   0  0  0  0  0  0  0  0  0  0  0  0
  182.0870  177.1600  137.7790 C   0  0  1  0  0  3  0  0  0  0  0  0
  183.1960  176.0530  135.7590 C   0  0  0  0  0  2  0  0  0  0  0  0
  181.8150  176.0260  135.1330 C   0  0  0  0  0  2  0  0  0  0  0  0
  181.4840  174.6640  134.7570 N   0  0  0  0  0  2  0  0  0  0  0  0
  180.0740  174.4790  135.0610 C   0  0  0  0  0  2  0  0  0  0  0  0
  179.0490  175.9680  136.7320 C   0  0  0  0  0  1  0  0  0  0  0  0
  179.8380  174.6820  136.5500 C   0  0  1  0  0  3  0  0  0  0  0  0
  179.0840  173.4990  137.1680 C   0  0  1  0  0  3  0  0  0  0  0  0
  179.2820  172.3440  136.4030 O   0  0  0  0  0  1  0  0  0  0  0  0
  179.5740  173.2340  138.5870 C   0  0  2  0  0  3  0  0  0  0  0  0
  178.9920  174.2780  139.5230 C   0  0  2  0  0  3  0  0  0  0  0  0
  180.4310  174.3890  139.0670 C   0  0  0  0  0  2  0  0  0  0  0  0
  179.2540  174.7560  141.8810 N   0  0  0  0  0  1  0  0  0  0  0  0
  178.9520  173.7080  140.9250 C   0  0  0  0  0  2  0  0  0  0  0  0
  1  3  2  0  0  0  0
  2  3  1  0  0  0  0
  3 40  1  0  0  0  0
  4 13  1  0  0  0  0
  5  2  1  6  0  0  0
  7  4  2  0  0  0  0
  8  5  1  0  0  0  0
  8  6  1  0  0  0  0
  9 11  2  0  0  0  0
  9 13  1  0  0  0  0
 10 12  2  0  0  0  0
 10  7  1  0  0  0  0
 11  5  1  0  0  0  0
 12  9  1  0  0  0  0
 13  8  2  0  0  0  0
 14 10  1  0  0  0  0
 16 15  1  6  0  0  0
 16 14  1  0  0  0  0
 17 22  1  0  0  0  0
 18 20  1  0  0  0  0
 18 17  2  0  0  0  0
 19 22  2  0  0  0  0
 20 19  1  0  0  0  0
 21 18  1  0  0  0  0
 22 16  1  0  0  0  0
 24 26  1  0  0  0  0
 25 20  1  1  0  0  0
 25 24  1  0  0  0  0
 25 26  1  0  0  0  0
 26 27  1  0  0  0  0
 26 23  1  1  0  0  0
 27 28  1  0  0  0  0
 30 32  1  0  0  0  0
 31 32  1  0  0  0  0
 32 29  1  0  0  0  0
 32 28  1  0  0  0  0
 33 38  1  0  0  0  0
 34 35  1  0  0  0  0
 35 36  2  0  0  0  0
 37 41  1  0  0  0  0
 38 36  1  0  0  0  0
 39 34  2  0  0  0  0
 40 37  2  0  0  0  0
 40 39  1  0  0  0  0
 41 34  1  0  0  0  0
 41 33  2  0  0  0  0
 42 39  1  0  0  0  0
 42 43  1  0  0  0  0
 44  2  1  0  0  0  0
 45 44  1  0  0  0  0
 46 45  1  0  0  0  0
 47 46  1  0  0  0  0
 48 51  1  1  0  0  0
 50 52  1  0  0  0  0
 52 48  1  0  0  0  0
 52 47  1  6  0  0  0
 53 50  2  0  0  0  0
 54 50  1  0  0  0  0
 54 55  1  0  0  0  0
 55 49  1  6  0  0  0
 55 48  1  0  0  0  0
 56 54  1  0  0  0  0
 57 56  1  0  0  0  0
 58 59  1  0  0  0  0
 58 57  1  0  0  0  0
 59 61  1  0  0  0  0
 61 60  1  6  0  0  0
 61 62  1  0  0  0  0
 62 63  1  6  0  0  0
 64 62  1  6  0  0  0
 64 66  1  0  0  0  0
 64 65  1  0  0  0  0
 65 68  1  1  0  0  0
 66 65  1  0  0  0  0
 68 67  1  0  0  0  0
M  END
>  <MODEL>
7

>  <REMARK>
 VINA RESULT:      -4.2      3.573      9.955
  Name = 
  23 active torsions:
  status: ('A' for Active; 'I' for Inactive)
    1  A    between atoms: N_3  and  C_9
    2  A    between atoms: N_3  and  C_58
    3  A    between atoms: C_8  and  C_10
    4  A    between atoms: C_8  and  C_57
    5  A    between atoms: C_9  and  C_57
    6  A    between atoms: C_11  and  C_54
    7  A    between atoms: C_13  and  N_38
    8  A    between atoms: C_14  and  C_30
    9  A    between atoms: C_14  and  C_43
   10  A    between atoms: C_15  and  C_52
   11  A    between atoms: C_15  and  C_56
   12  A    between atoms: C_18  and  C_47
   13  A    between atoms: C_22  and  C_24
   14  A    between atoms: C_22  and  C_30
   15  A    between atoms: C_24  and  N_38
   16  A    between atoms: O_26  and  C_31
   17  A    between atoms: O_26  and  C_62
   18  A    between atoms: C_31  and  C_61
   19  A    between atoms: N_32  and  C_60
   20  A    between atoms: C_35  and  C_58
   21  A    between atoms: C_35  and  N_65
   22  A    between atoms: C_40  and  C_64
   23  A    between atoms: C_53  and  C_56
                            x       y       z     vdW  Elec       q    Type
                         _______ _______ _______ _____ _____    ______ ____

>  <TORSDO>
F 23

$$$$
=
 OpenBabel10222420493D

 68 75  0  0  1  0  0  0  0  0999 V2000
  184.7840  179.6570  143.5450 O   0  0  0  0  0  0  0  0  0  0  0  0
  185.7770  178.6280  141.7020 N   0  0  0  0  0  0  0  0  0  0  0  0
  185.7250  178.9370  143.1130 C   0  0  0  0  0  0  0  0  0  0  0  0
  188.8340  179.0690  138.3130 C   0  0  0  0  0  3  0  0  0  0  0  0
  186.8590  177.8250  141.1250 C   0  0  2  0  0  3  0  0  0  0  0  0
  188.7190  179.6050  141.2830 O   0  0  0  0  0  1  0  0  0  0  0  0
  188.6800  178.6420  136.9840 C   0  0  0  0  0  3  0  0  0  0  0  0
  187.9370  178.7050  140.5660 C   0  0  0  0  0  0  0  0  0  0  0  0
  187.0880  177.5370  138.9330 C   0  0  0  0  0  0  0  0  0  0  0  0
  187.7250  177.6530  136.6710 C   0  0  0  0  0  0  0  0  0  0  0  0
  186.3900  177.1070  139.9320 N   0  0  0  0  0  0  0  0  0  0  0  0
  186.9330  177.1220  137.6520 N   0  0  0  0  0  0  0  0  0  0  0  0
  188.0130  178.4850  139.2720 C   0  0  0  0  0  0  0  0  0  0  0  0
  187.5480  177.2380  135.2480 C   0  0  0  0  0  2  0  0  0  0  0  0
  189.7760  178.1400  134.5950 C   0  0  0  0  0  1  0  0  0  0  0  0
  188.8870  176.9070  134.5940 C   0  0  1  0  0  3  0  0  0  0  0  0
  189.0470  174.5460  135.4120 N   0  0  0  0  0  0  0  0  0  0  0  0
  190.0010  173.8530  136.0590 C   0  0  0  0  0  0  0  0  0  0  0  0
  190.8600  175.8120  135.8400 C   0  0  0  0  0  3  0  0  0  0  0  0
  191.0920  174.5890  136.3480 N   0  0  0  0  0  0  0  0  0  0  0  0
  189.8860  172.4590  136.3380 N   0  0  0  0  0  1  0  0  0  0  0  0
  189.5880  175.7770  135.2860 C   0  0  0  0  0  0  0  0  0  0  0  0
  193.2770  175.9110  135.4290 O   0  0  0  0  0  1  0  0  0  0  0  0
  193.0160  175.2670  137.7480 C   0  0  0  0  0  2  0  0  0  0  0  0
  192.3520  174.1420  136.9440 C   0  0  2  0  0  3  0  0  0  0  0  0
  193.5350  174.9180  136.3790 C   0  0  1  0  0  0  0  0  0  0  0  0
  194.8940  174.2450  136.3660 C   0  0  0  0  0  2  0  0  0  0  0  0
  195.7560  174.9020  137.2580 O   0  0  0  0  0  0  0  0  0  0  0  0
  197.2960  174.2390  138.8350 F   0  0  0  0  0  0  0  0  0  0  0  0
  195.8820  172.7040  137.9360 F   0  0  0  0  0  0  0  0  0  0  0  0
  195.1080  174.2780  139.3380 F   0  0  0  0  0  0  0  0  0  0  0  0
  196.0200  174.0280  138.3310 C   0  0  0  0  0  0  0  0  0  0  0  0
  189.8590  177.3780  145.1170 C   0  0  0  0  0  3  0  0  0  0  0  0
  187.6840  177.8950  146.0450 C   0  0  0  0  0  0  0  0  0  0  0  0
  188.0720  177.5590  147.4130 C   0  0  0  0  0  3  0  0  0  0  0  0
  189.3330  177.1490  147.6220 C   0  0  0  0  0  3  0  0  0  0  0  0
  187.9670  178.1500  143.7400 N   0  0  0  0  0  0  0  0  0  0  0  0
  190.3680  177.0270  146.5060 C   0  0  0  0  0  2  0  0  0  0  0  0
  186.5390  178.3160  145.5390 C   0  0  0  0  0  0  0  0  0  0  0  0
  186.7510  178.4670  144.0780 C   0  0  0  0  0  0  0  0  0  0  0  0
  188.6030  177.7820  144.9550 C   0  0  0  0  0  0  0  0  0  0  0  0
  185.2770  178.5350  146.3040 C   0  0  0  0  0  2  0  0  0  0  0  0
  184.5310  177.3540  146.3270 O   0  0  0  0  0  1  0  0  0  0  0  0
  184.8400  179.2880  140.7930 C   0  0  0  0  0  2  0  0  0  0  0  0
  183.8810  178.2770  140.1870 C   0  0  0  0  0  2  0  0  0  0  0  0
  182.8210  177.9200  141.2120 C   0  0  0  0  0  2  0  0  0  0  0  0
  182.0690  179.1750  141.6270 C   0  0  0  0  0  2  0  0  0  0  0  0
  180.7030  179.5920  139.6000 C   0  0  1  0  0  3  0  0  0  0  0  0
  181.2640  178.0080  137.8990 O   0  0  0  0  0  1  0  0  0  0  0  0
  180.1300  177.7820  140.9940 C   0  0  0  0  0  0  0  0  0  0  0  0
  179.8490  180.6780  139.4070 O   0  0  0  0  0  1  0  0  0  0  0  0
  180.6580  179.1610  141.0670 C   0  0  1  0  0  3  0  0  0  0  0  0
  179.8480  177.0870  142.0080 O   0  0  0  0  0  0  0  0  0  0  0  0
  179.9100  177.3350  139.6720 N   0  0  0  0  0  0  0  0  0  0  0  0
  180.2290  178.4090  138.7460 C   0  0  1  0  0  3  0  0  0  0  0  0
  178.9700  176.2690  139.3540 C   0  0  0  0  0  2  0  0  0  0  0  0
  179.6870  174.9370  139.2510 C   0  0  0  0  0  2  0  0  0  0  0  0
  179.6390  174.4700  137.8780 N   0  0  0  0  0  2  0  0  0  0  0  0
  180.9440  174.7440  137.2990 C   0  0  0  0  0  2  0  0  0  0  0  0
  180.2800  173.8240  135.1140 C   0  0  0  0  0  1  0  0  0  0  0  0
  181.2750  173.6900  136.2540 C   0  0  1  0  0  3  0  0  0  0  0  0
  182.7090  173.8410  135.7340 C   0  0  1  0  0  3  0  0  0  0  0  0
  183.1980  175.1200  136.0230 O   0  0  0  0  0  1  0  0  0  0  0  0
  183.6260  172.8110  136.3820 C   0  0  2  0  0  3  0  0  0  0  0  0
  184.0700  171.8040  135.3360 C   0  0  2  0  0  3  0  0  0  0  0  0
  182.9870  171.4360  136.3270 C   0  0  0  0  0  2  0  0  0  0  0  0
  185.8200  170.2260  134.7840 N   0  0  0  0  0  1  0  0  0  0  0  0
  185.3830  171.1910  135.7750 C   0  0  0  0  0  2  0  0  0  0  0  0
  2  3  1  0  0  0  0
  3  1  2  0  0  0  0
  3 40  1  0  0  0  0
  4 13  1  0  0  0  0
  5  2  1  6  0  0  0
  7  4  2  0  0  0  0
  8  5  1  0  0  0  0
  8  6  1  0  0  0  0
  9 13  1  0  0  0  0
  9 11  2  0  0  0  0
 10  7  1  0  0  0  0
 10 12  2  0  0  0  0
 11  5  1  0  0  0  0
 12  9  1  0  0  0  0
 13  8  2  0  0  0  0
 14 10  1  0  0  0  0
 16 15  1  1  0  0  0
 16 14  1  0  0  0  0
 16 22  1  0  0  0  0
 17 18  2  0  0  0  0
 18 21  1  0  0  0  0
 18 20  1  0  0  0  0
 19 20  1  0  0  0  0
 22 17  1  0  0  0  0
 22 19  2  0  0  0  0
 25 20  1  6  0  0  0
 25 24  1  0  0  0  0
 26 23  1  6  0  0  0
 26 25  1  0  0  0  0
 26 24  1  0  0  0  0
 27 26  1  0  0  0  0
 27 28  1  0  0  0  0
 28 32  1  0  0  0  0
 30 32  1  0  0  0  0
 32 29  1  0  0  0  0
 32 31  1  0  0  0  0
 33 38  1  0  0  0  0
 34 35  1  0  0  0  0
 35 36  2  0  0  0  0
 37 40  2  0  0  0  0
 37 41  1  0  0  0  0
 38 36  1  0  0  0  0
 39 34  2  0  0  0  0
 39 42  1  0  0  0  0
 40 39  1  0  0  0  0
 41 33  2  0  0  0  0
 41 34  1  0  0  0  0
 42 43  1  0  0  0  0
 44  2  1  0  0  0  0
 45 44  1  0  0  0  0
 45 46  1  0  0  0  0
 46 47  1  0  0  0  0
 48 51  1  1  0  0  0
 48 52  1  0  0  0  0
 50 52  1  0  0  0  0
 50 53  2  0  0  0  0
 52 47  1  6  0  0  0
 54 50  1  0  0  0  0
 55 49  1  6  0  0  0
 55 48  1  0  0  0  0
 55 54  1  0  0  0  0
 56 54  1  0  0  0  0
 57 56  1  0  0  0  0
 58 57  1  0  0  0  0
 59 58  1  0  0  0  0
 61 60  1  6  0  0  0
 61 59  1  0  0  0  0
 62 63  1  1  0  0  0
 62 61  1  0  0  0  0
 64 62  1  6  0  0  0
 65 68  1  1  0  0  0
 65 66  1  0  0  0  0
 65 64  1  0  0  0  0
 66 64  1  0  0  0  0
 67 68  1  0  0  0  0
M  END
>  <MODEL>
8

>  <REMARK>
 VINA RESULT:      -3.9      2.722      8.359
  Name = 
  23 active torsions:
  status: ('A' for Active; 'I' for Inactive)
    1  A    between atoms: N_3  and  C_9
    2  A    between atoms: N_3  and  C_58
    3  A    between atoms: C_8  and  C_10
    4  A    between atoms: C_8  and  C_57
    5  A    between atoms: C_9  and  C_57
    6  A    between atoms: C_11  and  C_54
    7  A    between atoms: C_13  and  N_38
    8  A    between atoms: C_14  and  C_30
    9  A    between atoms: C_14  and  C_43
   10  A    between atoms: C_15  and  C_52
   11  A    between atoms: C_15  and  C_56
   12  A    between atoms: C_18  and  C_47
   13  A    between atoms: C_22  and  C_24
   14  A    between atoms: C_22  and  C_30
   15  A    between atoms: C_24  and  N_38
   16  A    between atoms: O_26  and  C_31
   17  A    between atoms: O_26  and  C_62
   18  A    between atoms: C_31  and  C_61
   19  A    between atoms: N_32  and  C_60
   20  A    between atoms: C_35  and  C_58
   21  A    between atoms: C_35  and  N_65
   22  A    between atoms: C_40  and  C_64
   23  A    between atoms: C_53  and  C_56
                            x       y       z     vdW  Elec       q    Type
                         _______ _______ _______ _____ _____    ______ ____

>  <TORSDO>
F 23

$$$$
=
 OpenBabel10222420493D

 68 75  0  0  1  0  0  0  0  0999 V2000
  185.1200  179.0170  141.6680 O   0  0  0  0  0  0  0  0  0  0  0  0
  185.9040  178.4150  139.5550 N   0  0  0  0  0  0  0  0  0  0  0  0
  184.8670  178.8970  140.4380 C   0  0  0  0  0  0  0  0  0  0  0  0
  186.0670  174.9320  136.5770 C   0  0  0  0  0  3  0  0  0  0  0  0
  185.6720  178.2200  138.1200 C   0  0  2  0  0  3  0  0  0  0  0  0
  183.9920  176.2730  138.3140 O   0  0  0  0  0  1  0  0  0  0  0  0
  187.1670  174.5500  135.7930 C   0  0  0  0  0  3  0  0  0  0  0  0
  185.1750  176.8320  137.8440 C   0  0  0  0  0  0  0  0  0  0  0  0
  187.0850  177.0940  136.8280 C   0  0  0  0  0  0  0  0  0  0  0  0
  188.2030  175.4720  135.5400 C   0  0  0  0  0  0  0  0  0  0  0  0
  186.9410  178.2530  137.3820 N   0  0  0  0  0  0  0  0  0  0  0  0
  188.1520  176.7310  136.0720 N   0  0  0  0  0  0  0  0  0  0  0  0
  186.0590  176.2280  137.0810 C   0  0  0  0  0  0  0  0  0  0  0  0
  189.3820  175.0380  134.7350 C   0  0  0  0  0  2  0  0  0  0  0  0
  190.3320  176.7180  136.3090 C   0  0  0  0  0  1  0  0  0  0  0  0
  190.6470  175.7820  135.1540 C   0  0  1  0  0  3  0  0  0  0  0  0
  191.7690  173.5440  135.1830 N   0  0  0  0  0  0  0  0  0  0  0  0
  192.9170  173.0900  135.7170 C   0  0  0  0  0  0  0  0  0  0  0  0
  192.8820  175.1650  136.2810 C   0  0  0  0  0  3  0  0  0  0  0  0
  193.5970  174.0320  136.3990 N   0  0  0  0  0  0  0  0  0  0  0  0
  193.3920  171.7610  135.5090 N   0  0  0  0  0  1  0  0  0  0  0  0
  191.7480  174.8430  135.5490 C   0  0  0  0  0  0  0  0  0  0  0  0
  195.5790  173.4050  134.6520 O   0  0  0  0  0  1  0  0  0  0  0  0
  195.8790  174.9870  136.4590 C   0  0  0  0  0  2  0  0  0  0  0  0
  194.9220  173.9250  137.0140 C   0  0  2  0  0  3  0  0  0  0  0  0
  195.9820  173.5640  135.9810 C   0  0  1  0  0  0  0  0  0  0  0  0
  197.2180  172.8210  136.4520 C   0  0  0  0  0  2  0  0  0  0  0  0
  197.9050  172.2970  135.3450 O   0  0  0  0  0  0  0  0  0  0  0  0
  199.0150  170.9720  136.8650 F   0  0  0  0  0  0  0  0  0  0  0  0
  199.0980  170.4520  134.6550 F   0  0  0  0  0  0  0  0  0  0  0  0
  197.1900  170.1980  135.8110 F   0  0  0  0  0  0  0  0  0  0  0  0
  198.3140  170.9880  135.6680 C   0  0  0  0  0  0  0  0  0  0  0  0
  181.0650  181.1090  138.3910 C   0  0  0  0  0  3  0  0  0  0  0  0
  181.2920  179.0150  139.5840 C   0  0  0  0  0  0  0  0  0  0  0  0
  179.8760  178.6750  139.4690 C   0  0  0  0  0  3  0  0  0  0  0  0
  179.0780  179.5360  138.8180 C   0  0  0  0  0  3  0  0  0  0  0  0
  183.2110  180.3190  139.3080 N   0  0  0  0  0  0  0  0  0  0  0  0
  179.5820  180.8360  138.1960 C   0  0  0  0  0  3  0  0  0  0  0  0
  182.3000  178.3820  140.1570 C   0  0  1  0  0  3  0  0  0  0  0  0
  183.5000  179.2330  139.9660 C   0  0  0  0  0  0  0  0  0  0  0  0
  181.8200  180.2270  139.0400 C   0  0  0  0  0  0  0  0  0  0  0  0
  182.2090  177.0880  140.8950 C   0  0  0  0  0  2  0  0  0  0  0  0
  181.5480  176.1440  140.1060 O   0  0  0  0  0  1  0  0  0  0  0  0
  187.1580  177.9240  140.1280 C   0  0  0  0  0  2  0  0  0  0  0  0
  188.2950  178.0700  139.1320 C   0  0  0  0  0  2  0  0  0  0  0  0
  189.6010  177.6960  139.8070 C   0  0  0  0  0  2  0  0  0  0  0  0
  189.3950  177.6290  141.3120 C   0  0  0  0  0  2  0  0  0  0  0  0
  191.7140  177.5910  142.1900 C   0  0  1  0  0  3  0  0  0  0  0  0
  191.8810  179.0010  144.1140 O   0  0  0  0  0  1  0  0  0  0  0  0
  190.0580  176.3600  143.3250 C   0  0  0  0  0  0  0  0  0  0  0  0
  192.8040  176.9750  141.5750 O   0  0  0  0  0  1  0  0  0  0  0  0
  190.4560  176.7540  141.9570 C   0  0  1  0  0  3  0  0  0  0  0  0
  189.1050  175.5750  143.5770 O   0  0  0  0  0  0  0  0  0  0  0  0
  190.8920  176.9020  144.3290 N   0  0  0  0  0  0  0  0  0  0  0  0
  191.9560  177.6680  143.7030 C   0  0  1  0  0  3  0  0  0  0  0  0
  191.0240  176.2960  145.6470 C   0  0  0  0  0  2  0  0  0  0  0  0
  190.4490  177.2070  146.7140 C   0  0  0  0  0  2  0  0  0  0  0  0
  189.1360  177.6650  146.3000 N   0  0  0  0  0  2  0  0  0  0  0  0
  188.5880  178.4200  147.4140 C   0  0  0  0  0  2  0  0  0  0  0  0
  187.0450  177.8390  149.2420 C   0  0  0  0  0  1  0  0  0  0  0  0
  187.1850  177.9240  147.7320 C   0  0  1  0  0  3  0  0  0  0  0  0
  186.1120  178.8470  147.1440 C   0  0  1  0  0  3  0  0  0  0  0  0
  186.4490  180.1870  147.3700 O   0  0  0  0  0  1  0  0  0  0  0  0
  185.9770  178.6250  145.6430 C   0  0  2  0  0  3  0  0  0  0  0  0
  184.5920  178.0820  145.3380 C   0  0  2  0  0  3  0  0  0  0  0  0
  185.7840  177.1490  145.3500 C   0  0  0  0  0  2  0  0  0  0  0  0
  183.2150  179.4560  143.8960 N   0  0  0  0  0  1  0  0  0  0  0  0
  184.2390  178.4270  143.9060 C   0  0  0  0  0  2  0  0  0  0  0  0
  2 44  1  0  0  0  0
  2  3  1  0  0  0  0
  3  1  2  0  0  0  0
  4 13  1  0  0  0  0
  5  2  1  1  0  0  0
  7  4  2  0  0  0  0
  8  5  1  0  0  0  0
  8  6  1  0  0  0  0
  9 13  1  0  0  0  0
  9 11  2  0  0  0  0
 10  7  1  0  0  0  0
 10 12  2  0  0  0  0
 11  5  1  0  0  0  0
 12  9  1  0  0  0  0
 13  8  2  0  0  0  0
 14 16  1  0  0  0  0
 14 10  1  0  0  0  0
 16 22  1  0  0  0  0
 16 15  1  1  0  0  0
 17 22  1  0  0  0  0
 17 18  2  0  0  0  0
 18 20  1  0  0  0  0
 19 20  1  0  0  0  0
 21 18  1  0  0  0  0
 22 19  2  0  0  0  0
 24 25  1  0  0  0  0
 25 20  1  6  0  0  0
 26 23  1  6  0  0  0
 26 27  1  0  0  0  0
 26 24  1  0  0  0  0
 26 25  1  0  0  0  0
 28 32  1  0  0  0  0
 28 27  1  0  0  0  0
 30 32  1  0  0  0  0
 32 31  1  0  0  0  0
 32 29  1  0  0  0  0
 33 41  1  0  0  0  0
 34 39  1  0  0  0  0
 35 34  1  0  0  0  0
 36 35  2  0  0  0  0
 37 40  2  0  0  0  0
 38 33  2  0  0  0  0
 38 36  1  0  0  0  0
 39 42  1  1  0  0  0
 40 39  1  0  0  0  0
 40  3  1  0  0  0  0
 41 37  1  0  0  0  0
 41 34  2  0  0  0  0
 43 42  1  0  0  0  0
 45 46  1  0  0  0  0
 45 44  1  0  0  0  0
 46 47  1  0  0  0  0
 48 51  1  6  0  0  0
 48 55  1  0  0  0  0
 50 53  2  0  0  0  0
 50 54  1  0  0  0  0
 52 47  1  1  0  0  0
 52 48  1  0  0  0  0
 52 50  1  0  0  0  0
 54 56  1  0  0  0  0
 55 49  1  1  0  0  0
 55 54  1  0  0  0  0
 56 57  1  0  0  0  0
 58 57  1  0  0  0  0
 58 59  1  0  0  0  0
 59 61  1  0  0  0  0
 61 60  1  1  0  0  0
 62 63  1  6  0  0  0
 62 61  1  0  0  0  0
 64 62  1  1  0  0  0
 65 68  1  6  0  0  0
 65 66  1  0  0  0  0
 65 64  1  0  0  0  0
 66 64  1  0  0  0  0
 67 68  1  0  0  0  0
M  END
>  <MODEL>
9

>  <REMARK>
 VINA RESULT:      -3.8      2.666      5.402
  Name = 
  23 active torsions:
  status: ('A' for Active; 'I' for Inactive)
    1  A    between atoms: N_3  and  C_9
    2  A    between atoms: N_3  and  C_58
    3  A    between atoms: C_8  and  C_10
    4  A    between atoms: C_8  and  C_57
    5  A    between atoms: C_9  and  C_57
    6  A    between atoms: C_11  and  C_54
    7  A    between atoms: C_13  and  N_38
    8  A    between atoms: C_14  and  C_30
    9  A    between atoms: C_14  and  C_43
   10  A    between atoms: C_15  and  C_52
   11  A    between atoms: C_15  and  C_56
   12  A    between atoms: C_18  and  C_47
   13  A    between atoms: C_22  and  C_24
   14  A    between atoms: C_22  and  C_30
   15  A    between atoms: C_24  and  N_38
   16  A    between atoms: O_26  and  C_31
   17  A    between atoms: O_26  and  C_62
   18  A    between atoms: C_31  and  C_61
   19  A    between atoms: N_32  and  C_60
   20  A    between atoms: C_35  and  C_58
   21  A    between atoms: C_35  and  N_65
   22  A    between atoms: C_40  and  C_64
   23  A    between atoms: C_53  and  C_56
                            x       y       z     vdW  Elec       q    Type
                         _______ _______ _______ _____ _____    ______ ____

>  <TORSDO>
F 23

$$$$
