=
 OpenBabel10222417503D

 53 59  0  0  1  0  0  0  0  0999 V2000
  185.1160  178.7170  139.8050 C   0  0  2  0  0  3  0  0  0  0  0  0
  186.4680  178.5310  139.1640 C   0  0  0  0  0  0  0  0  0  0  0  0
  188.9390  178.0920  137.9690 C   0  0  0  0  0  3  0  0  0  0  0  0
  187.5660  178.1630  139.9530 C   0  0  0  0  0  3  0  0  0  0  0  0
  186.6230  178.6450  137.8130 N   0  0  0  0  0  0  0  0  0  0  0  0
  188.8150  177.9500  139.3570 C   0  0  0  0  0  0  0  0  0  0  0  0
  187.8220  178.4400  137.2070 C   0  0  0  0  0  3  0  0  0  0  0  0
  191.3000  177.4440  139.6570 C   0  0  1  0  0  3  0  0  0  0  0  0
  191.4020  177.3150  141.9310 C   0  0  0  0  0  3  0  0  0  0  0  0
  189.9540  177.5620  141.5920 C   0  0  0  0  0  3  0  0  0  0  0  0
  189.9540  177.6010  140.1600 N   0  0  0  0  0  0  0  0  0  0  0  0
  192.1850  177.4080  140.7560 O   0  0  0  0  0  0  0  0  0  0  0  0
  191.4030  176.1990  138.9120 N   0  0  0  0  0  2  0  0  0  0  0  0
  192.4180  176.3980  137.8840 C   0  0  0  0  0  2  0  0  0  0  0  0
  195.3980  175.2850  137.0570 N   0  0  0  0  0  0  0  0  0  0  0  0
  196.5790  174.4990  137.3650 C   0  0  0  0  0  1  0  0  0  0  0  0
  194.5240  175.1610  138.1540 N   0  0  0  0  0  2  0  0  0  0  0  0
  194.7770  174.6790  135.9530 N   0  0  0  0  0  2  0  0  0  0  0  0
  193.3560  174.8930  136.1330 C   0  0  0  0  0  2  0  0  0  0  0  0
  193.1830  175.1060  137.6040 C   0  0  2  0  0  3  0  0  0  0  0  0
  184.1520  179.5200  138.9320 C   0  0  0  0  0  2  0  0  0  0  0  0
  183.2040  177.2140  138.6510 C   0  0  0  0  0  2  0  0  0  0  0  0
  182.9010  178.7190  138.6010 C   0  0  1  0  0  3  0  0  0  0  0  0
  182.3050  176.5900  139.7180 C   0  0  1  0  0  3  0  0  0  0  0  0
  180.7450  177.6920  141.2000 O   0  0  0  0  0  0  0  0  0  0  0  0
  181.5720  177.7570  140.2530 C   0  0  0  0  0  0  0  0  0  0  0  0
  181.8910  178.9710  139.6100 N   0  0  0  0  0  2  0  0  0  0  0  0
  181.3450  175.6140  139.0600 C   0  0  0  0  0  2  0  0  0  0  0  0
  181.7400  175.3940  137.6770 N   0  0  0  0  0  2  0  0  0  0  0  0
  181.8050  173.9580  137.4650 C   0  0  1  0  0  3  0  0  0  0  0  0
  180.6300  173.5250  136.8460 O   0  0  0  0  0  1  0  0  0  0  0  0
  183.3630  174.7450  135.6490 C   0  0  0  0  0  2  0  0  0  0  0  0
  183.0270  173.6040  136.6160 C   0  0  1  0  0  3  0  0  0  0  0  0
  185.6430  175.7530  135.9300 C   0  0  0  0  0  1  0  0  0  0  0  0
  185.4640  173.3530  135.2170 C   0  0  0  0  0  2  0  0  0  0  0  0
  184.8200  174.7400  135.1580 C   0  0  1  0  0  3  0  0  0  0  0  0
  184.2330  173.2250  137.4700 C   0  0  0  0  0  2  0  0  0  0  0  0
  185.3680  172.6790  136.5970 C   0  0  2  0  0  3  0  0  0  0  0  0
  187.7490  172.6740  136.4240 O   0  0  0  0  0  1  0  0  0  0  0  0
  186.6940  172.7940  137.3270 C   0  0  0  0  0  2  0  0  0  0  0  0
  185.2540  179.3770  141.0950 N   0  0  0  0  0  2  0  0  0  0  0  0
  186.2130  178.1900  142.8940 C   0  0  0  0  0  2  0  0  0  0  0  0
  185.1230  178.9730  143.5740 C   0  0  1  0  0  0  0  0  0  0  0  0
  183.7880  178.9420  142.8840 C   0  0  0  0  0  2  0  0  0  0  0  0
  184.9500  178.3960  142.1210 C   0  0  1  0  0  0  0  0  0  0  0  0
  184.8400  178.0980  144.7730 C   0  0  0  0  0  2  0  0  0  0  0  0
  185.0600  178.8880  146.0520 C   0  0  0  0  0  2  0  0  0  0  0  0
  186.0710  178.1820  146.9360 C   0  0  0  0  0  2  0  0  0  0  0  0
  187.0500  177.5720  146.1440 O   0  0  0  0  0  0  0  0  0  0  0  0
  188.4570  177.5750  147.0930 P   0  0  0  0  0  0  0  0  0  0  0  0
  188.6470  176.2020  147.7010 O   0  0  0  0  0  1  0  0  0  0  0  0
  189.7990  177.9500  146.1310 O   0  0  0  0  0  0  0  0  0  0  0  0
  188.3170  178.7150  148.3350 O   0  0  0  0  0  1  0  0  0  0  0  0
  1 21  1  6  0  0  0
  1 41  1  0  0  0  0
  2  1  1  0  0  0  0
  2  4  1  0  0  0  0
  3  6  1  0  0  0  0
  5  2  2  0  0  0  0
  6  4  2  0  0  0  0
  6 11  1  0  0  0  0
  7  5  1  0  0  0  0
  7  3  2  0  0  0  0
  8 13  1  1  0  0  0
  8 11  1  0  0  0  0
  8 12  1  0  0  0  0
 10  9  2  0  0  0  0
 11 10  1  0  0  0  0
 12  9  1  0  0  0  0
 14 13  1  0  0  0  0
 15 16  1  0  0  0  0
 15 17  1  0  0  0  0
 18 19  1  0  0  0  0
 18 15  1  0  0  0  0
 19 20  1  0  0  0  0
 20 14  1  6  0  0  0
 20 17  1  0  0  0  0
 22 24  1  0  0  0  0
 23 22  1  0  0  0  0
 23 21  1  1  0  0  0
 23 27  1  0  0  0  0
 24 28  1  6  0  0  0
 24 26  1  0  0  0  0
 26 25  2  0  0  0  0
 27 26  1  0  0  0  0
 29 28  1  0  0  0  0
 30 31  1  6  0  0  0
 30 29  1  0  0  0  0
 32 33  1  0  0  0  0
 33 30  1  1  0  0  0
 33 37  1  0  0  0  0
 35 38  1  0  0  0  0
 36 35  1  0  0  0  0
 36 32  1  0  0  0  0
 36 34  1  1  0  0  0
 38 40  1  1  0  0  0
 38 37  1  0  0  0  0
 39 40  1  0  0  0  0
 42 43  1  0  0  0  0
 43 46  1  1  0  0  0
 44 43  1  0  0  0  0
 45 41  1  6  0  0  0
 45 44  1  0  0  0  0
 45 42  1  0  0  0  0
 45 43  1  0  0  0  0
 46 47  1  0  0  0  0
 47 48  1  0  0  0  0
 49 48  1  0  0  0  0
 49 50  1  0  0  0  0
 50 51  1  0  0  0  0
 50 53  1  0  0  0  0
 52 50  2  0  0  0  0
M  END
>  <MODEL>
1

>  <REMARK>
 VINA RESULT:      -7.4      0.000      0.000
  Name = 
  19 active torsions:
  status: ('A' for Active; 'I' for Inactive)
    1  A    between atoms: C_1  and  C_19
    2  A    between atoms: C_2  and  C_40
    3  A    between atoms: C_2  and  C_45
    4  A    between atoms: C_7  and  C_11
    5  A    between atoms: C_8  and  N_16
    6  A    between atoms: C_11  and  N_48
    7  A    between atoms: O_15  and  P_21
    8  A    between atoms: O_15  and  C_22
    9  A    between atoms: N_16  and  C_53
   10  A    between atoms: C_17  and  C_52
   11  A    between atoms: C_19  and  N_25
   12  A    between atoms: C_19  and  C_52
   13  A    between atoms: C_22  and  C_45
   14  A    between atoms: N_25  and  C_47
   15  A    between atoms: N_29  and  C_30
   16  A    between atoms: C_32  and  C_49
   17  A    between atoms: C_35  and  C_44
   18  A    between atoms: C_46  and  C_53
   19  A    between atoms: N_48  and  C_49
                            x       y       z     vdW  Elec       q    Type
                         _______ _______ _______ _____ _____    ______ ____

>  <TORSDO>
F 19

$$$$
=
 OpenBabel10222417503D

 53 59  0  0  1  0  0  0  0  0999 V2000
  184.3790  178.7170  143.4810 C   0  0  2  0  0  3  0  0  0  0  0  0
  182.9110  178.8160  143.1540 C   0  0  0  0  0  0  0  0  0  0  0  0
  180.1970  178.8970  142.5580 C   0  0  0  0  0  3  0  0  0  0  0  0
  182.4890  178.7350  141.8190 C   0  0  0  0  0  3  0  0  0  0  0  0
  181.9780  178.9080  144.1450 N   0  0  0  0  0  0  0  0  0  0  0  0
  181.1250  178.7860  141.5130 C   0  0  0  0  0  0  0  0  0  0  0  0
  180.6460  178.9540  143.8780 C   0  0  0  0  0  3  0  0  0  0  0  0
  180.3340  177.5220  139.4400 C   0  0  1  0  0  3  0  0  0  0  0  0
  179.7850  179.2790  138.0950 C   0  0  0  0  0  3  0  0  0  0  0  0
  180.3320  179.8810  139.3650 C   0  0  0  0  0  3  0  0  0  0  0  0
  180.6830  178.7340  140.1470 N   0  0  0  0  0  0  0  0  0  0  0  0
  179.6630  177.8790  138.2500 O   0  0  0  0  0  0  0  0  0  0  0  0
  181.5410  176.7810  139.1110 N   0  0  0  0  0  2  0  0  0  0  0  0
  181.1250  175.5800  138.3970 C   0  0  0  0  0  2  0  0  0  0  0  0
  184.2510  175.8700  137.4240 N   0  0  0  0  0  0  0  0  0  0  0  0
  185.4970  175.2630  136.9910 C   0  0  0  0  0  1  0  0  0  0  0  0
  183.3430  174.8200  137.6600 N   0  0  0  0  0  2  0  0  0  0  0  0
  183.7600  176.6170  136.3390 N   0  0  0  0  0  2  0  0  0  0  0  0
  182.3170  176.5390  136.4290 C   0  0  0  0  0  2  0  0  0  0  0  0
  182.0460  175.2940  137.2130 C   0  0  2  0  0  3  0  0  0  0  0  0
  185.1640  177.9080  142.4490 C   0  0  0  0  0  2  0  0  0  0  0  0
  187.4760  178.0060  141.4790 C   0  0  0  0  0  2  0  0  0  0  0  0
  186.1660  178.7770  141.7040 C   0  0  1  0  0  3  0  0  0  0  0  0
  187.7090  177.9060  139.9720 C   0  0  1  0  0  3  0  0  0  0  0  0
  186.2840  178.6760  138.1780 O   0  0  0  0  0  0  0  0  0  0  0  0
  186.5170  178.5760  139.4110 C   0  0  0  0  0  0  0  0  0  0  0  0
  185.6420  179.0920  140.3890 N   0  0  0  0  0  2  0  0  0  0  0  0
  188.9700  178.6700  139.6070 C   0  0  0  0  0  2  0  0  0  0  0  0
  189.7670  177.8850  138.6770 N   0  0  0  0  0  2  0  0  0  0  0  0
  191.0230  177.5680  139.3360 C   0  0  1  0  0  3  0  0  0  0  0  0
  190.8030  177.4170  140.7080 O   0  0  0  0  0  1  0  0  0  0  0  0
  190.5900  175.5500  137.8930 C   0  0  0  0  0  2  0  0  0  0  0  0
  191.6270  176.2960  138.7410 C   0  0  1  0  0  3  0  0  0  0  0  0
  191.1960  175.2480  135.4770 C   0  0  0  0  0  1  0  0  0  0  0  0
  192.6080  174.1280  137.2240 C   0  0  0  0  0  2  0  0  0  0  0  0
  191.2010  174.6020  136.8490 C   0  0  1  0  0  3  0  0  0  0  0  0
  192.8970  176.5790  137.9440 C   0  0  0  0  0  2  0  0  0  0  0  0
  193.5880  175.2730  137.5380 C   0  0  2  0  0  3  0  0  0  0  0  0
  194.7780  176.8720  136.2240 O   0  0  0  0  0  1  0  0  0  0  0  0
  194.5090  175.5110  136.3550 C   0  0  0  0  0  2  0  0  0  0  0  0
  184.5650  178.1200  144.7960 N   0  0  0  0  0  2  0  0  0  0  0  0
  185.4200  178.9380  146.8370 C   0  0  0  0  0  2  0  0  0  0  0  0
  186.3870  177.8340  146.5060 C   0  0  1  0  0  0  0  0  0  0  0  0
  186.8820  177.8210  145.0870 C   0  0  0  0  0  2  0  0  0  0  0  0
  185.7390  178.7340  145.3910 C   0  0  1  0  0  0  0  0  0  0  0  0
  187.6270  178.3040  147.2310 C   0  0  0  0  0  2  0  0  0  0  0  0
  188.3210  177.1220  147.8860 C   0  0  0  0  0  2  0  0  0  0  0  0
  189.5990  176.7880  147.1400 C   0  0  0  0  0  2  0  0  0  0  0  0
  189.9040  177.8110  146.2370 O   0  0  0  0  0  0  0  0  0  0  0  0
  190.9490  177.1070  145.1000 P   0  0  0  0  0  0  0  0  0  0  0  0
  190.1270  176.4110  144.0360 O   0  0  0  0  0  0  0  0  0  0  0  0
  191.9010  178.3050  144.3750 O   0  0  0  0  0  1  0  0  0  0  0  0
  191.9500  175.9720  145.8570 O   0  0  0  0  0  1  0  0  0  0  0  0
  1 21  1  6  0  0  0
  1 41  1  0  0  0  0
  2  1  1  0  0  0  0
  2  5  1  0  0  0  0
  3  7  1  0  0  0  0
  4  2  2  0  0  0  0
  6  4  1  0  0  0  0
  6  3  2  0  0  0  0
  7  5  2  0  0  0  0
  8 13  1  6  0  0  0
  8 11  1  0  0  0  0
  9 12  1  0  0  0  0
  9 10  2  0  0  0  0
 10 11  1  0  0  0  0
 11  6  1  0  0  0  0
 12  8  1  0  0  0  0
 14 13  1  0  0  0  0
 15 17  1  0  0  0  0
 16 15  1  0  0  0  0
 18 19  1  0  0  0  0
 18 15  1  0  0  0  0
 19 20  1  0  0  0  0
 20 17  1  0  0  0  0
 20 14  1  1  0  0  0
 22 23  1  0  0  0  0
 23 21  1  6  0  0  0
 24 28  1  1  0  0  0
 24 22  1  0  0  0  0
 25 26  2  0  0  0  0
 26 24  1  0  0  0  0
 26 27  1  0  0  0  0
 27 23  1  0  0  0  0
 29 30  1  0  0  0  0
 29 28  1  0  0  0  0
 30 31  1  1  0  0  0
 32 33  1  0  0  0  0
 33 30  1  6  0  0  0
 35 38  1  0  0  0  0
 36 34  1  6  0  0  0
 36 35  1  0  0  0  0
 36 32  1  0  0  0  0
 37 33  1  0  0  0  0
 38 40  1  6  0  0  0
 38 37  1  0  0  0  0
 39 40  1  0  0  0  0
 43 42  1  0  0  0  0
 43 46  1  1  0  0  0
 44 45  1  0  0  0  0
 44 43  1  0  0  0  0
 45 41  1  6  0  0  0
 45 43  1  0  0  0  0
 45 42  1  0  0  0  0
 46 47  1  0  0  0  0
 48 47  1  0  0  0  0
 49 48  1  0  0  0  0
 50 53  1  0  0  0  0
 50 49  1  0  0  0  0
 51 50  2  0  0  0  0
 52 50  1  0  0  0  0
M  END
>  <MODEL>
2

>  <REMARK>
 VINA RESULT:      -7.3      2.587      7.893
  Name = 
  19 active torsions:
  status: ('A' for Active; 'I' for Inactive)
    1  A    between atoms: C_1  and  C_19
    2  A    between atoms: C_2  and  C_40
    3  A    between atoms: C_2  and  C_45
    4  A    between atoms: C_7  and  C_11
    5  A    between atoms: C_8  and  N_16
    6  A    between atoms: C_11  and  N_48
    7  A    between atoms: O_15  and  P_21
    8  A    between atoms: O_15  and  C_22
    9  A    between atoms: N_16  and  C_53
   10  A    between atoms: C_17  and  C_52
   11  A    between atoms: C_19  and  N_25
   12  A    between atoms: C_19  and  C_52
   13  A    between atoms: C_22  and  C_45
   14  A    between atoms: N_25  and  C_47
   15  A    between atoms: N_29  and  C_30
   16  A    between atoms: C_32  and  C_49
   17  A    between atoms: C_35  and  C_44
   18  A    between atoms: C_46  and  C_53
   19  A    between atoms: N_48  and  C_49
                            x       y       z     vdW  Elec       q    Type
                         _______ _______ _______ _____ _____    ______ ____

>  <TORSDO>
F 19

$$$$
=
 OpenBabel10222417503D

 53 59  0  0  1  0  0  0  0  0999 V2000
  184.8040  178.2900  139.0770 C   0  0  2  0  0  3  0  0  0  0  0  0
  183.5830  177.8400  138.3150 C   0  0  0  0  0  0  0  0  0  0  0  0
  181.2820  177.0050  136.9980 C   0  0  0  0  0  3  0  0  0  0  0  0
  183.3520  176.4710  138.1180 C   0  0  0  0  0  3  0  0  0  0  0  0
  182.6580  178.7440  137.8770 N   0  0  0  0  0  0  0  0  0  0  0  0
  182.2000  176.0460  137.4470 C   0  0  0  0  0  0  0  0  0  0  0  0
  181.5290  178.3590  137.2270 C   0  0  0  0  0  3  0  0  0  0  0  0
  183.0070  173.6580  137.0400 C   0  0  1  0  0  3  0  0  0  0  0  0
  181.0190  172.5470  137.1560 C   0  0  0  0  0  3  0  0  0  0  0  0
  180.6910  174.0090  137.3270 C   0  0  0  0  0  3  0  0  0  0  0  0
  181.9680  174.6480  137.2140 N   0  0  0  0  0  0  0  0  0  0  0  0
  182.4230  172.3770  137.1440 O   0  0  0  0  0  0  0  0  0  0  0  0
  183.6120  173.8080  135.7260 N   0  0  0  0  0  2  0  0  0  0  0  0
  184.6050  172.7500  135.5880 C   0  0  0  0  0  2  0  0  0  0  0  0
  187.6180  173.3650  136.7510 N   0  0  0  0  0  0  0  0  0  0  0  0
  189.0510  173.1400  136.7140 C   0  0  0  0  0  1  0  0  0  0  0  0
  187.0490  172.5500  135.7530 N   0  0  0  0  0  2  0  0  0  0  0  0
  187.4020  174.7020  136.3770 N   0  0  0  0  0  2  0  0  0  0  0  0
  186.1370  174.7140  135.6710 C   0  0  0  0  0  2  0  0  0  0  0  0
  185.9610  173.3140  135.1710 C   0  0  2  0  0  3  0  0  0  0  0  0
  184.4630  179.1900  140.2640 C   0  0  0  0  0  2  0  0  0  0  0  0
  185.3200  179.2960  142.6200 C   0  0  0  0  0  2  0  0  0  0  0  0
  184.5760  178.4400  141.5830 C   0  0  1  0  0  3  0  0  0  0  0  0
  184.3750  179.5320  143.7980 C   0  0  1  0  0  3  0  0  0  0  0  0
  182.0730  178.8370  144.0400 O   0  0  0  0  0  0  0  0  0  0  0  0
  183.1380  178.8470  143.3680 C   0  0  0  0  0  0  0  0  0  0  0  0
  183.2480  178.2070  142.1160 N   0  0  0  0  0  2  0  0  0  0  0  0
  184.9460  178.8690  145.0400 C   0  0  0  0  0  2  0  0  0  0  0  0
  186.3930  179.0170  145.0540 N   0  0  0  0  0  2  0  0  0  0  0  0
  186.9320  177.9590  145.8920 C   0  0  1  0  0  3  0  0  0  0  0  0
  185.9180  177.0480  146.2000 O   0  0  0  0  0  1  0  0  0  0  0  0
  187.6440  176.7250  143.8150 C   0  0  0  0  0  2  0  0  0  0  0  0
  188.0910  177.2590  145.1810 C   0  0  1  0  0  3  0  0  0  0  0  0
  188.8820  177.6550  141.8420 C   0  0  0  0  0  1  0  0  0  0  0  0
  190.1430  176.2720  143.5150 C   0  0  0  0  0  2  0  0  0  0  0  0
  188.7970  176.5030  142.8230 C   0  0  1  0  0  3  0  0  0  0  0  0
  189.3160  178.1590  145.0520 C   0  0  0  0  0  2  0  0  0  0  0  0
  190.5190  177.3690  144.5270 C   0  0  2  0  0  3  0  0  0  0  0  0
  191.1060  179.6300  144.0350 O   0  0  0  0  0  1  0  0  0  0  0  0
  191.5420  178.3110  143.9180 C   0  0  0  0  0  2  0  0  0  0  0  0
  185.7200  178.9960  138.1920 N   0  0  0  0  0  2  0  0  0  0  0  0
  187.2680  178.6790  136.4400 C   0  0  0  0  0  2  0  0  0  0  0  0
  188.1090  178.4180  137.6600 C   0  0  1  0  0  0  0  0  0  0  0  0
  187.4840  177.5180  138.6880 C   0  0  0  0  0  2  0  0  0  0  0  0
  186.5940  178.0040  137.5910 C   0  0  1  0  0  0  0  0  0  0  0  0
  189.1700  177.5030  137.0930 C   0  0  0  0  0  2  0  0  0  0  0  0
  190.3140  177.3650  138.0820 C   0  0  0  0  0  2  0  0  0  0  0  0
  191.4200  176.5110  137.4860 C   0  0  0  0  0  2  0  0  0  0  0  0
  192.5560  176.5730  138.2980 O   0  0  0  0  0  0  0  0  0  0  0  0
  193.7340  175.6580  137.4880 P   0  0  0  0  0  0  0  0  0  0  0  0
  194.7750  175.1960  138.4850 O   0  0  0  0  0  1  0  0  0  0  0  0
  193.0160  174.3070  136.7630 O   0  0  0  0  0  1  0  0  0  0  0  0
  194.4860  176.6010  136.3010 O   0  0  0  0  0  0  0  0  0  0  0  0
  1 21  1  1  0  0  0
  2  1  1  0  0  0  0
  3  7  2  0  0  0  0
  3  6  1  0  0  0  0
  4  2  1  0  0  0  0
  5  2  2  0  0  0  0
  6  4  2  0  0  0  0
  7  5  1  0  0  0  0
  8 13  1  6  0  0  0
  8 12  1  0  0  0  0
  8 11  1  0  0  0  0
  9 10  2  0  0  0  0
 11 10  1  0  0  0  0
 11  6  1  0  0  0  0
 12  9  1  0  0  0  0
 14 13  1  0  0  0  0
 16 15  1  0  0  0  0
 17 15  1  0  0  0  0
 18 15  1  0  0  0  0
 19 18  1  0  0  0  0
 20 14  1  1  0  0  0
 20 19  1  0  0  0  0
 20 17  1  0  0  0  0
 22 24  1  0  0  0  0
 23 21  1  6  0  0  0
 23 27  1  0  0  0  0
 23 22  1  0  0  0  0
 24 28  1  1  0  0  0
 26 24  1  0  0  0  0
 26 25  2  0  0  0  0
 27 26  1  0  0  0  0
 28 29  1  0  0  0  0
 29 30  1  0  0  0  0
 30 31  1  6  0  0  0
 32 33  1  0  0  0  0
 33 30  1  6  0  0  0
 35 38  1  0  0  0  0
 36 34  1  6  0  0  0
 36 35  1  0  0  0  0
 36 32  1  0  0  0  0
 37 33  1  0  0  0  0
 38 40  1  6  0  0  0
 38 37  1  0  0  0  0
 40 39  1  0  0  0  0
 41  1  1  0  0  0  0
 42 45  1  0  0  0  0
 42 43  1  0  0  0  0
 43 46  1  6  0  0  0
 43 44  1  0  0  0  0
 45 43  1  0  0  0  0
 45 41  1  1  0  0  0
 45 44  1  0  0  0  0
 46 47  1  0  0  0  0
 48 47  1  0  0  0  0
 48 49  1  0  0  0  0
 50 49  1  0  0  0  0
 50 51  1  0  0  0  0
 52 50  1  0  0  0  0
 53 50  2  0  0  0  0
M  END
>  <MODEL>
3

>  <REMARK>
 VINA RESULT:      -7.2      3.216      8.387
  Name = 
  19 active torsions:
  status: ('A' for Active; 'I' for Inactive)
    1  A    between atoms: C_1  and  C_19
    2  A    between atoms: C_2  and  C_40
    3  A    between atoms: C_2  and  C_45
    4  A    between atoms: C_7  and  C_11
    5  A    between atoms: C_8  and  N_16
    6  A    between atoms: C_11  and  N_48
    7  A    between atoms: O_15  and  P_21
    8  A    between atoms: O_15  and  C_22
    9  A    between atoms: N_16  and  C_53
   10  A    between atoms: C_17  and  C_52
   11  A    between atoms: C_19  and  N_25
   12  A    between atoms: C_19  and  C_52
   13  A    between atoms: C_22  and  C_45
   14  A    between atoms: N_25  and  C_47
   15  A    between atoms: N_29  and  C_30
   16  A    between atoms: C_32  and  C_49
   17  A    between atoms: C_35  and  C_44
   18  A    between atoms: C_46  and  C_53
   19  A    between atoms: N_48  and  C_49
                            x       y       z     vdW  Elec       q    Type
                         _______ _______ _______ _____ _____    ______ ____

>  <TORSDO>
F 19

$$$$
=
 OpenBabel10222417503D

 53 59  0  0  1  0  0  0  0  0999 V2000
  188.1510  177.8430  140.9160 C   0  0  2  0  0  3  0  0  0  0  0  0
  188.6300  177.8440  139.4860 C   0  0  0  0  0  0  0  0  0  0  0  0
  189.4160  177.8470  136.8200 C   0  0  0  0  0  3  0  0  0  0  0  0
  188.8250  176.6280  138.8170 C   0  0  0  0  0  3  0  0  0  0  0  0
  188.8050  179.0160  138.8080 N   0  0  0  0  0  0  0  0  0  0  0  0
  189.2310  176.6240  137.4780 C   0  0  0  0  0  0  0  0  0  0  0  0
  189.1930  179.0420  137.5060 C   0  0  0  0  0  3  0  0  0  0  0  0
  190.5260  174.4550  137.1020 C   0  0  1  0  0  3  0  0  0  0  0  0
  189.1750  173.4540  135.5630 C   0  0  0  0  0  3  0  0  0  0  0  0
  188.5560  174.7990  135.8490 C   0  0  0  0  0  3  0  0  0  0  0  0
  189.4620  175.3830  136.7920 N   0  0  0  0  0  0  0  0  0  0  0  0
  190.2570  173.2350  136.4470 O   0  0  0  0  0  0  0  0  0  0  0  0
  191.7950  174.9880  136.6320 N   0  0  0  0  0  2  0  0  0  0  0  0
  192.8360  174.4290  137.4850 C   0  0  0  0  0  2  0  0  0  0  0  0
  194.9350  176.2340  135.7120 N   0  0  0  0  0  0  0  0  0  0  0  0
  195.4790  177.5270  135.3380 C   0  0  0  0  0  1  0  0  0  0  0  0
  193.9250  176.4740  136.6640 N   0  0  0  0  0  2  0  0  0  0  0  0
  195.9630  175.5270  136.3580 N   0  0  0  0  0  2  0  0  0  0  0  0
  195.3100  174.7070  137.3570 C   0  0  0  0  0  2  0  0  0  0  0  0
  194.0100  175.3950  137.6310 C   0  0  2  0  0  3  0  0  0  0  0  0
  186.9280  178.7330  141.1320 C   0  0  0  0  0  2  0  0  0  0  0  0
  184.5230  178.0680  141.4020 C   0  0  0  0  0  2  0  0  0  0  0  0
  185.7020  178.1770  140.4220 C   0  0  1  0  0  3  0  0  0  0  0  0
  183.3920  178.9500  140.8750 C   0  0  1  0  0  3  0  0  0  0  0  0
  183.3900  180.3910  138.9350 O   0  0  0  0  0  0  0  0  0  0  0  0
  183.9830  179.5490  139.6600 C   0  0  0  0  0  0  0  0  0  0  0  0
  185.2910  179.1010  139.3830 N   0  0  0  0  0  2  0  0  0  0  0  0
  182.2010  178.0790  140.5150 C   0  0  0  0  0  2  0  0  0  0  0  0
  182.6660  176.8150  139.9670 N   0  0  0  0  0  2  0  0  0  0  0  0
  181.6360  176.3240  139.0670 C   0  0  1  0  0  3  0  0  0  0  0  0
  180.7530  177.3630  138.7580 O   0  0  0  0  0  1  0  0  0  0  0  0
  183.7970  175.7220  137.9220 C   0  0  0  0  0  2  0  0  0  0  0  0
  182.2690  175.7570  137.7960 C   0  0  1  0  0  3  0  0  0  0  0  0
  184.8370  173.4480  137.7340 C   0  0  0  0  0  1  0  0  0  0  0  0
  183.6420  174.3960  135.7410 C   0  0  0  0  0  2  0  0  0  0  0  0
  184.4790  174.7140  136.9830 C   0  0  1  0  0  3  0  0  0  0  0  0
  181.7100  174.3840  137.4360 C   0  0  0  0  0  2  0  0  0  0  0  0
  182.2070  173.9380  136.0570 C   0  0  2  0  0  3  0  0  0  0  0  0
  181.8240  171.8560  137.1630 O   0  0  0  0  0  1  0  0  0  0  0  0
  182.0990  172.4290  135.9220 C   0  0  0  0  0  2  0  0  0  0  0  0
  189.2190  178.2770  141.8070 N   0  0  0  0  0  2  0  0  0  0  0  0
  191.4370  177.7320  142.3960 C   0  0  0  0  0  2  0  0  0  0  0  0
  190.6420  177.0240  143.4590 C   0  0  1  0  0  0  0  0  0  0  0  0
  189.4620  176.2380  142.9590 C   0  0  0  0  0  2  0  0  0  0  0  0
  190.1230  177.1540  141.9800 C   0  0  1  0  0  0  0  0  0  0  0  0
  191.5860  175.9050  143.8330 C   0  0  0  0  0  2  0  0  0  0  0  0
  191.7560  175.8560  145.3420 C   0  0  0  0  0  2  0  0  0  0  0  0
  191.2730  177.1530  145.9650 C   0  0  0  0  0  2  0  0  0  0  0  0
  190.9120  176.9330  147.2980 O   0  0  0  0  0  0  0  0  0  0  0  0
  189.3060  177.4700  147.4200 P   0  0  0  0  0  0  0  0  0  0  0  0
  189.2260  178.5550  148.4730 O   0  0  0  0  0  1  0  0  0  0  0  0
  188.7930  178.0950  145.9330 O   0  0  0  0  0  0  0  0  0  0  0  0
  188.2990  176.1870  147.8710 O   0  0  0  0  0  1  0  0  0  0  0  0
  1 21  1  6  0  0  0
  1 41  1  0  0  0  0
  2  1  1  0  0  0  0
  3  6  1  0  0  0  0
  3  7  2  0  0  0  0
  4  2  1  0  0  0  0
  5  2  2  0  0  0  0
  6  4  2  0  0  0  0
  7  5  1  0  0  0  0
  8 13  1  6  0  0  0
  9 10  2  0  0  0  0
  9 12  1  0  0  0  0
 10 11  1  0  0  0  0
 11  8  1  0  0  0  0
 11  6  1  0  0  0  0
 12  8  1  0  0  0  0
 13 14  1  0  0  0  0
 15 18  1  0  0  0  0
 15 17  1  0  0  0  0
 16 15  1  0  0  0  0
 17 20  1  0  0  0  0
 18 19  1  0  0  0  0
 19 20  1  0  0  0  0
 20 14  1  6  0  0  0
 23 21  1  1  0  0  0
 23 22  1  0  0  0  0
 24 28  1  6  0  0  0
 24 22  1  0  0  0  0
 25 26  2  0  0  0  0
 26 24  1  0  0  0  0
 27 26  1  0  0  0  0
 27 23  1  0  0  0  0
 29 28  1  0  0  0  0
 30 31  1  6  0  0  0
 30 29  1  0  0  0  0
 33 32  1  0  0  0  0
 33 30  1  1  0  0  0
 35 38  1  0  0  0  0
 35 36  1  0  0  0  0
 36 34  1  1  0  0  0
 36 32  1  0  0  0  0
 37 33  1  0  0  0  0
 38 40  1  1  0  0  0
 38 37  1  0  0  0  0
 40 39  1  0  0  0  0
 42 43  1  0  0  0  0
 43 46  1  6  0  0  0
 44 43  1  0  0  0  0
 45 41  1  1  0  0  0
 45 42  1  0  0  0  0
 45 44  1  0  0  0  0
 45 43  1  0  0  0  0
 46 47  1  0  0  0  0
 47 48  1  0  0  0  0
 48 49  1  0  0  0  0
 49 50  1  0  0  0  0
 50 53  1  0  0  0  0
 50 51  1  0  0  0  0
 52 50  2  0  0  0  0
M  END
>  <MODEL>
4

>  <REMARK>
 VINA RESULT:      -7.1      2.080      3.893
  Name = 
  19 active torsions:
  status: ('A' for Active; 'I' for Inactive)
    1  A    between atoms: C_1  and  C_19
    2  A    between atoms: C_2  and  C_40
    3  A    between atoms: C_2  and  C_45
    4  A    between atoms: C_7  and  C_11
    5  A    between atoms: C_8  and  N_16
    6  A    between atoms: C_11  and  N_48
    7  A    between atoms: O_15  and  P_21
    8  A    between atoms: O_15  and  C_22
    9  A    between atoms: N_16  and  C_53
   10  A    between atoms: C_17  and  C_52
   11  A    between atoms: C_19  and  N_25
   12  A    between atoms: C_19  and  C_52
   13  A    between atoms: C_22  and  C_45
   14  A    between atoms: N_25  and  C_47
   15  A    between atoms: N_29  and  C_30
   16  A    between atoms: C_32  and  C_49
   17  A    between atoms: C_35  and  C_44
   18  A    between atoms: C_46  and  C_53
   19  A    between atoms: N_48  and  C_49
                            x       y       z     vdW  Elec       q    Type
                         _______ _______ _______ _____ _____    ______ ____

>  <TORSDO>
F 19

$$$$
=
 OpenBabel10222417503D

 53 59  0  0  1  0  0  0  0  0999 V2000
  184.2280  179.1520  138.7340 C   0  0  2  0  0  3  0  0  0  0  0  0
  182.7500  178.9240  138.5450 C   0  0  0  0  0  0  0  0  0  0  0  0
  180.0130  178.5050  138.2960 C   0  0  0  0  0  3  0  0  0  0  0  0
  182.2490  177.6170  138.4870 C   0  0  0  0  0  3  0  0  0  0  0  0
  181.8810  179.9760  138.5030 N   0  0  0  0  0  0  0  0  0  0  0  0
  180.8730  177.4000  138.3520 C   0  0  0  0  0  0  0  0  0  0  0  0
  180.5400  179.7950  138.3770 C   0  0  0  0  0  3  0  0  0  0  0  0
  181.1560  174.8760  138.0840 C   0  0  1  0  0  3  0  0  0  0  0  0
  179.0140  174.1980  138.4720 C   0  0  0  0  0  3  0  0  0  0  0  0
  178.9940  175.7050  138.5440 C   0  0  0  0  0  3  0  0  0  0  0  0
  180.3520  176.0640  138.2630 N   0  0  0  0  0  0  0  0  0  0  0  0
  180.3500  173.7490  138.3510 O   0  0  0  0  0  0  0  0  0  0  0  0
  181.6390  174.8130  136.7140 N   0  0  0  0  0  2  0  0  0  0  0  0
  183.0730  174.5570  136.7770 C   0  0  0  0  0  2  0  0  0  0  0  0
  181.9610  171.4990  136.3110 N   0  0  0  0  0  0  0  0  0  0  0  0
  181.5050  170.4470  135.4210 C   0  0  0  0  0  1  0  0  0  0  0  0
  182.2570  172.6170  135.5080 N   0  0  0  0  0  2  0  0  0  0  0  0
  183.1670  171.0590  136.8830 N   0  0  0  0  0  2  0  0  0  0  0  0
  183.9680  172.2500  137.0760 C   0  0  0  0  0  2  0  0  0  0  0  0
  183.4310  173.2400  136.0910 C   0  0  2  0  0  3  0  0  0  0  0  0
  185.0460  177.8670  138.6100 C   0  0  0  0  0  2  0  0  0  0  0  0
  187.5510  177.7580  138.7150 C   0  0  0  0  0  2  0  0  0  0  0  0
  186.3360  178.0990  137.8370 C   0  0  1  0  0  3  0  0  0  0  0  0
  188.3250  176.6340  138.0260 C   0  0  1  0  0  3  0  0  0  0  0  0
  187.7690  175.4520  135.9930 O   0  0  0  0  0  0  0  0  0  0  0  0
  187.5060  176.3580  136.8280 C   0  0  0  0  0  0  0  0  0  0  0  0
  186.3820  177.1990  136.7010 N   0  0  0  0  0  2  0  0  0  0  0  0
  189.7000  177.1430  137.6270 C   0  0  0  0  0  2  0  0  0  0  0  0
  190.2470  177.9670  138.6930 N   0  0  0  0  0  2  0  0  0  0  0  0
  190.8750  177.0770  139.6550 C   0  0  1  0  0  3  0  0  0  0  0  0
  192.2330  176.9460  139.3510 O   0  0  0  0  0  1  0  0  0  0  0  0
  189.2000  177.6680  141.4410 C   0  0  0  0  0  2  0  0  0  0  0  0
  190.6880  177.6150  141.0740 C   0  0  1  0  0  3  0  0  0  0  0  0
  188.5330  176.2800  143.4210 C   0  0  0  0  0  1  0  0  0  0  0  0
  190.1070  178.2040  143.7720 C   0  0  0  0  0  2  0  0  0  0  0  0
  188.9290  177.6670  142.9540 C   0  0  1  0  0  3  0  0  0  0  0  0
  191.4860  176.8190  142.1030 C   0  0  0  0  0  2  0  0  0  0  0  0
  191.4430  177.5020  143.4730 C   0  0  2  0  0  3  0  0  0  0  0  0
  191.9620  175.2360  144.0200 O   0  0  0  0  0  1  0  0  0  0  0  0
  191.7650  176.5030  144.5690 C   0  0  0  0  0  2  0  0  0  0  0  0
  184.4850  179.7560  140.0340 N   0  0  0  0  0  2  0  0  0  0  0  0
  185.9790  179.0010  141.6960 C   0  0  0  0  0  2  0  0  0  0  0  0
  184.7010  179.1750  142.4710 C   0  0  1  0  0  0  0  0  0  0  0  0
  183.4740  178.6020  141.8180 C   0  0  0  0  0  2  0  0  0  0  0  0
  184.7080  178.6770  140.9790 C   0  0  1  0  0  0  0  0  0  0  0  0
  184.9060  178.1890  143.5980 C   0  0  0  0  0  2  0  0  0  0  0  0
  185.3400  178.9250  144.8540 C   0  0  0  0  0  2  0  0  0  0  0  0
  186.3330  178.0830  145.6360 C   0  0  0  0  0  2  0  0  0  0  0  0
  186.5810  178.6740  146.8780 O   0  0  0  0  0  0  0  0  0  0  0  0
  187.9060  177.8290  147.5180 P   0  0  0  0  0  0  0  0  0  0  0  0
  187.7490  176.3550  147.2100 O   0  0  0  0  0  1  0  0  0  0  0  0
  189.3420  178.3950  146.8210 O   0  0  0  0  0  0  0  0  0  0  0  0
  187.9730  178.0390  149.1960 O   0  0  0  0  0  1  0  0  0  0  0  0
  1 21  1  1  0  0  0
  1 41  1  0  0  0  0
  2  1  1  0  0  0  0
  3  6  2  0  0  0  0
  3  7  1  0  0  0  0
  4  2  2  0  0  0  0
  5  2  1  0  0  0  0
  6  4  1  0  0  0  0
  7  5  2  0  0  0  0
  8 13  1  6  0  0  0
  8 11  1  0  0  0  0
  8 12  1  0  0  0  0
  9 10  2  0  0  0  0
 11  6  1  0  0  0  0
 11 10  1  0  0  0  0
 12  9  1  0  0  0  0
 13 14  1  0  0  0  0
 15 18  1  0  0  0  0
 16 15  1  0  0  0  0
 17 20  1  0  0  0  0
 17 15  1  0  0  0  0
 18 19  1  0  0  0  0
 20 14  1  1  0  0  0
 20 19  1  0  0  0  0
 23 21  1  1  0  0  0
 23 22  1  0  0  0  0
 24 28  1  6  0  0  0
 24 22  1  0  0  0  0
 25 26  2  0  0  0  0
 26 24  1  0  0  0  0
 27 26  1  0  0  0  0
 27 23  1  0  0  0  0
 28 29  1  0  0  0  0
 29 30  1  0  0  0  0
 30 31  1  6  0  0  0
 32 36  1  0  0  0  0
 33 30  1  6  0  0  0
 33 32  1  0  0  0  0
 33 37  1  0  0  0  0
 36 34  1  1  0  0  0
 36 35  1  0  0  0  0
 37 38  1  0  0  0  0
 38 35  1  0  0  0  0
 38 40  1  1  0  0  0
 39 40  1  0  0  0  0
 42 43  1  0  0  0  0
 43 46  1  1  0  0  0
 44 43  1  0  0  0  0
 45 41  1  6  0  0  0
 45 42  1  0  0  0  0
 45 44  1  0  0  0  0
 45 43  1  0  0  0  0
 46 47  1  0  0  0  0
 47 48  1  0  0  0  0
 48 49  1  0  0  0  0
 49 50  1  0  0  0  0
 50 53  1  0  0  0  0
 51 50  1  0  0  0  0
 52 50  2  0  0  0  0
M  END
>  <MODEL>
5

>  <REMARK>
 VINA RESULT:      -6.9      2.396      8.200
  Name = 
  19 active torsions:
  status: ('A' for Active; 'I' for Inactive)
    1  A    between atoms: C_1  and  C_19
    2  A    between atoms: C_2  and  C_40
    3  A    between atoms: C_2  and  C_45
    4  A    between atoms: C_7  and  C_11
    5  A    between atoms: C_8  and  N_16
    6  A    between atoms: C_11  and  N_48
    7  A    between atoms: O_15  and  P_21
    8  A    between atoms: O_15  and  C_22
    9  A    between atoms: N_16  and  C_53
   10  A    between atoms: C_17  and  C_52
   11  A    between atoms: C_19  and  N_25
   12  A    between atoms: C_19  and  C_52
   13  A    between atoms: C_22  and  C_45
   14  A    between atoms: N_25  and  C_47
   15  A    between atoms: N_29  and  C_30
   16  A    between atoms: C_32  and  C_49
   17  A    between atoms: C_35  and  C_44
   18  A    between atoms: C_46  and  C_53
   19  A    between atoms: N_48  and  C_49
                            x       y       z     vdW  Elec       q    Type
                         _______ _______ _______ _____ _____    ______ ____

>  <TORSDO>
F 19

$$$$
=
 OpenBabel10222417503D

 53 59  0  0  1  0  0  0  0  0999 V2000
  183.8580  179.1580  138.9050 C   0  0  2  0  0  3  0  0  0  0  0  0
  182.3750  178.9000  138.9970 C   0  0  0  0  0  0  0  0  0  0  0  0
  179.6530  178.4080  139.2660 C   0  0  0  0  0  3  0  0  0  0  0  0
  181.8870  177.5940  138.8490 C   0  0  0  0  0  3  0  0  0  0  0  0
  181.5070  179.9090  139.2980 N   0  0  0  0  0  0  0  0  0  0  0  0
  180.5160  177.3430  138.9730 C   0  0  0  0  0  0  0  0  0  0  0  0
  180.1720  179.6930  139.4290 C   0  0  0  0  0  3  0  0  0  0  0  0
  180.3560  175.1320  137.7050 C   0  0  1  0  0  3  0  0  0  0  0  0
  179.0920  173.9290  139.1720 C   0  0  0  0  0  3  0  0  0  0  0  0
  179.2290  175.3070  139.7710 C   0  0  0  0  0  3  0  0  0  0  0  0
  180.0000  176.0140  138.7940 N   0  0  0  0  0  0  0  0  0  0  0  0
  179.9090  173.8320  138.0210 O   0  0  0  0  0  0  0  0  0  0  0  0
  179.7120  175.5810  136.4800 N   0  0  0  0  0  2  0  0  0  0  0  0
  180.7480  176.1790  135.6470 C   0  0  0  0  0  2  0  0  0  0  0  0
  180.5310  179.4510  135.8720 N   0  0  0  0  0  0  0  0  0  0  0  0
  180.8440  180.7720  135.3580 C   0  0  0  0  0  1  0  0  0  0  0  0
  181.1380  178.5200  135.0080 N   0  0  0  0  0  2  0  0  0  0  0  0
  179.1400  179.2860  135.7580 N   0  0  0  0  0  2  0  0  0  0  0  0
  178.9310  177.8780  135.4940 C   0  0  0  0  0  2  0  0  0  0  0  0
  180.2190  177.4020  134.9000 C   0  0  2  0  0  3  0  0  0  0  0  0
  184.6640  177.8910  138.6230 C   0  0  0  0  0  2  0  0  0  0  0  0
  187.1700  177.8720  138.4850 C   0  0  0  0  0  2  0  0  0  0  0  0
  185.8650  178.1810  137.7340 C   0  0  1  0  0  3  0  0  0  0  0  0
  187.9130  176.7870  137.7070 C   0  0  1  0  0  3  0  0  0  0  0  0
  187.2050  175.6140  135.7160 O   0  0  0  0  0  0  0  0  0  0  0  0
  186.9930  176.4980  136.5870 C   0  0  0  0  0  0  0  0  0  0  0  0
  185.8330  177.2990  136.5830 N   0  0  0  0  0  2  0  0  0  0  0  0
  189.2240  177.3510  137.1870 C   0  0  0  0  0  2  0  0  0  0  0  0
  189.9600  177.9690  138.2790 N   0  0  0  0  0  2  0  0  0  0  0  0
  190.4270  176.9030  139.1490 C   0  0  1  0  0  3  0  0  0  0  0  0
  191.6410  176.4050  138.6660 O   0  0  0  0  0  1  0  0  0  0  0  0
  189.2320  177.8680  141.1450 C   0  0  0  0  0  2  0  0  0  0  0  0
  190.5850  177.4190  140.5800 C   0  0  1  0  0  3  0  0  0  0  0  0
  188.4680  176.6460  143.1980 C   0  0  0  0  0  1  0  0  0  0  0  0
  190.5480  178.0450  143.3310 C   0  0  0  0  0  2  0  0  0  0  0  0
  189.1710  177.8860  142.6800 C   0  0  1  0  0  3  0  0  0  0  0  0
  191.2550  176.3950  141.4910 C   0  0  0  0  0  2  0  0  0  0  0  0
  191.5850  177.0120  142.8540 C   0  0  2  0  0  3  0  0  0  0  0  0
  191.6090  176.4590  145.1760 O   0  0  0  0  0  1  0  0  0  0  0  0
  191.7540  175.9230  143.8980 C   0  0  0  0  0  2  0  0  0  0  0  0
  184.3430  179.7660  140.1370 N   0  0  0  0  0  2  0  0  0  0  0  0
  186.0170  179.0460  141.6350 C   0  0  0  0  0  2  0  0  0  0  0  0
  184.8190  179.1780  142.5350 C   0  0  1  0  0  0  0  0  0  0  0  0
  183.5500  178.5720  142.0040 C   0  0  0  0  0  2  0  0  0  0  0  0
  184.6900  178.6890  141.0460 C   0  0  1  0  0  0  0  0  0  0  0  0
  185.1650  178.1930  143.6280 C   0  0  0  0  0  2  0  0  0  0  0  0
  184.7490  178.7520  144.9770 C   0  0  0  0  0  2  0  0  0  0  0  0
  185.9450  178.8080  145.9110 C   0  0  0  0  0  2  0  0  0  0  0  0
  186.5060  177.5340  146.0410 O   0  0  0  0  0  0  0  0  0  0  0  0
  187.8070  177.7250  147.1130 P   0  0  0  0  0  0  0  0  0  0  0  0
  188.1270  176.3880  147.7470 O   0  0  0  0  0  1  0  0  0  0  0  0
  189.1670  178.2850  146.2740 O   0  0  0  0  0  0  0  0  0  0  0  0
  187.4000  178.8300  148.3280 O   0  0  0  0  0  1  0  0  0  0  0  0
  1 21  1  1  0  0  0
  1  2  1  0  0  0  0
  1 41  1  0  0  0  0
  2  5  1  0  0  0  0
  3  7  1  0  0  0  0
  4  6  1  0  0  0  0
  4  2  2  0  0  0  0
  5  7  2  0  0  0  0
  6  3  2  0  0  0  0
  8 13  1  6  0  0  0
  8 12  1  0  0  0  0
  8 11  1  0  0  0  0
  9 10  2  0  0  0  0
 11  6  1  0  0  0  0
 11 10  1  0  0  0  0
 12  9  1  0  0  0  0
 14 13  1  0  0  0  0
 16 15  1  0  0  0  0
 17 15  1  0  0  0  0
 18 15  1  0  0  0  0
 19 18  1  0  0  0  0
 20 17  1  0  0  0  0
 20 19  1  0  0  0  0
 20 14  1  1  0  0  0
 23 22  1  0  0  0  0
 23 21  1  1  0  0  0
 24 28  1  6  0  0  0
 24 22  1  0  0  0  0
 25 26  2  0  0  0  0
 26 24  1  0  0  0  0
 27 26  1  0  0  0  0
 27 23  1  0  0  0  0
 28 29  1  0  0  0  0
 29 30  1  0  0  0  0
 30 31  1  6  0  0  0
 32 36  1  0  0  0  0
 33 30  1  6  0  0  0
 33 32  1  0  0  0  0
 33 37  1  0  0  0  0
 36 34  1  1  0  0  0
 36 35  1  0  0  0  0
 37 38  1  0  0  0  0
 38 35  1  0  0  0  0
 38 40  1  1  0  0  0
 40 39  1  0  0  0  0
 42 43  1  0  0  0  0
 43 46  1  1  0  0  0
 44 43  1  0  0  0  0
 45 41  1  6  0  0  0
 45 42  1  0  0  0  0
 45 44  1  0  0  0  0
 45 43  1  0  0  0  0
 46 47  1  0  0  0  0
 47 48  1  0  0  0  0
 48 49  1  0  0  0  0
 49 50  1  0  0  0  0
 50 51  1  0  0  0  0
 50 53  1  0  0  0  0
 52 50  2  0  0  0  0
M  END
>  <MODEL>
6

>  <REMARK>
 VINA RESULT:      -6.9      2.721      8.742
  Name = 
  19 active torsions:
  status: ('A' for Active; 'I' for Inactive)
    1  A    between atoms: C_1  and  C_19
    2  A    between atoms: C_2  and  C_40
    3  A    between atoms: C_2  and  C_45
    4  A    between atoms: C_7  and  C_11
    5  A    between atoms: C_8  and  N_16
    6  A    between atoms: C_11  and  N_48
    7  A    between atoms: O_15  and  P_21
    8  A    between atoms: O_15  and  C_22
    9  A    between atoms: N_16  and  C_53
   10  A    between atoms: C_17  and  C_52
   11  A    between atoms: C_19  and  N_25
   12  A    between atoms: C_19  and  C_52
   13  A    between atoms: C_22  and  C_45
   14  A    between atoms: N_25  and  C_47
   15  A    between atoms: N_29  and  C_30
   16  A    between atoms: C_32  and  C_49
   17  A    between atoms: C_35  and  C_44
   18  A    between atoms: C_46  and  C_53
   19  A    between atoms: N_48  and  C_49
                            x       y       z     vdW  Elec       q    Type
                         _______ _______ _______ _____ _____    ______ ____

>  <TORSDO>
F 19

$$$$
=
 OpenBabel10222417503D

 53 59  0  0  1  0  0  0  0  0999 V2000
  184.3400  179.1170  138.5200 C   0  0  2  0  0  3  0  0  0  0  0  0
  182.9130  178.8770  138.0940 C   0  0  0  0  0  0  0  0  0  0  0  0
  180.2560  178.4450  137.4040 C   0  0  0  0  0  3  0  0  0  0  0  0
  182.3950  177.5750  138.1060 C   0  0  0  0  0  3  0  0  0  0  0  0
  182.0960  179.9200  137.7670 N   0  0  0  0  0  0  0  0  0  0  0  0
  181.0600  177.3510  137.7500 C   0  0  0  0  0  0  0  0  0  0  0  0
  180.7950  179.7320  137.4220 C   0  0  0  0  0  3  0  0  0  0  0  0
  179.2870  175.6170  138.3610 C   0  0  1  0  0  3  0  0  0  0  0  0
  180.0370  173.8440  137.1400 C   0  0  0  0  0  3  0  0  0  0  0  0
  181.0340  174.9530  136.9190 C   0  0  0  0  0  3  0  0  0  0  0  0
  180.5250  176.0180  137.7320 N   0  0  0  0  0  0  0  0  0  0  0  0
  178.9360  174.3380  137.8800 O   0  0  0  0  0  0  0  0  0  0  0  0
  179.4670  175.5590  139.8030 N   0  0  0  0  0  2  0  0  0  0  0  0
  178.9470  176.8070  140.3500 C   0  0  0  0  0  2  0  0  0  0  0  0
  179.1640  178.7410  142.9980 N   0  0  0  0  0  0  0  0  0  0  0  0
  179.5840  178.9540  144.3710 C   0  0  0  0  0  1  0  0  0  0  0  0
  179.5360  177.4280  142.6530 N   0  0  0  0  0  2  0  0  0  0  0  0
  179.9170  179.6170  142.1980 N   0  0  0  0  0  2  0  0  0  0  0  0
  180.1160  178.9270  140.9400 C   0  0  0  0  0  2  0  0  0  0  0  0
  179.9670  177.4750  141.2690 C   0  0  2  0  0  3  0  0  0  0  0  0
  185.1980  177.8550  138.4570 C   0  0  0  0  0  2  0  0  0  0  0  0
  187.6940  178.0900  138.3510 C   0  0  0  0  0  2  0  0  0  0  0  0
  186.3940  178.0390  137.5340 C   0  0  1  0  0  3  0  0  0  0  0  0
  188.5810  176.9330  137.8930 C   0  0  1  0  0  3  0  0  0  0  0  0
  188.0830  175.2070  136.2760 O   0  0  0  0  0  0  0  0  0  0  0  0
  187.7420  176.2570  136.8810 C   0  0  0  0  0  0  0  0  0  0  0  0
  186.5020  176.8900  136.6560 N   0  0  0  0  0  2  0  0  0  0  0  0
  189.8420  177.4880  137.2540 C   0  0  0  0  0  2  0  0  0  0  0  0
  190.8930  177.5960  138.2540 N   0  0  0  0  0  2  0  0  0  0  0  0
  190.6440  176.5780  139.2600 C   0  0  1  0  0  3  0  0  0  0  0  0
  191.6280  175.5880  139.1740 O   0  0  0  0  0  1  0  0  0  0  0  0
  189.1930  177.5390  141.0800 C   0  0  0  0  0  2  0  0  0  0  0  0
  190.6270  177.2040  140.6550 C   0  0  1  0  0  3  0  0  0  0  0  0
  188.3920  176.3840  143.1580 C   0  0  0  0  0  1  0  0  0  0  0  0
  190.2960  178.0090  143.3390 C   0  0  0  0  0  2  0  0  0  0  0  0
  189.0020  177.6550  142.6010 C   0  0  1  0  0  3  0  0  0  0  0  0
  191.3230  176.3260  141.6900 C   0  0  0  0  0  2  0  0  0  0  0  0
  191.4710  177.0670  143.0230 C   0  0  2  0  0  3  0  0  0  0  0  0
  191.9040  176.7580  145.3500 O   0  0  0  0  0  1  0  0  0  0  0  0
  191.6660  176.0770  144.1570 C   0  0  0  0  0  2  0  0  0  0  0  0
  184.3800  179.6530  139.8740 N   0  0  0  0  0  2  0  0  0  0  0  0
  186.0250  179.0530  141.4540 C   0  0  0  0  0  2  0  0  0  0  0  0
  184.7630  178.9980  142.2710 C   0  0  1  0  0  0  0  0  0  0  0  0
  183.6120  178.2790  141.6230 C   0  0  0  0  0  2  0  0  0  0  0  0
  184.7920  178.5760  140.7560 C   0  0  1  0  0  0  0  0  0  0  0  0
  185.1500  178.0020  143.3400 C   0  0  0  0  0  2  0  0  0  0  0  0
  185.0560  178.6520  144.7090 C   0  0  0  0  0  2  0  0  0  0  0  0
  186.4000  178.5870  145.4120 C   0  0  0  0  0  2  0  0  0  0  0  0
  186.3880  177.5640  146.3650 O   0  0  0  0  0  0  0  0  0  0  0  0
  187.8420  177.7360  147.2240 P   0  0  0  0  0  0  0  0  0  0  0  0
  188.2250  176.3990  147.8220 O   0  0  0  0  0  1  0  0  0  0  0  0
  189.0700  178.2540  146.1800 O   0  0  0  0  0  0  0  0  0  0  0  0
  187.6480  178.8640  148.4700 O   0  0  0  0  0  1  0  0  0  0  0  0
  1 21  1  1  0  0  0
  1 41  1  0  0  0  0
  2  4  1  0  0  0  0
  2  1  1  0  0  0  0
  3  7  2  0  0  0  0
  3  6  1  0  0  0  0
  5  2  2  0  0  0  0
  6  4  2  0  0  0  0
  7  5  1  0  0  0  0
  8 13  1  1  0  0  0
  9 12  1  0  0  0  0
 10  9  2  0  0  0  0
 10 11  1  0  0  0  0
 11  6  1  0  0  0  0
 11  8  1  0  0  0  0
 12  8  1  0  0  0  0
 13 14  1  0  0  0  0
 15 16  1  0  0  0  0
 17 15  1  0  0  0  0
 18 15  1  0  0  0  0
 19 20  1  0  0  0  0
 19 18  1  0  0  0  0
 20 14  1  6  0  0  0
 20 17  1  0  0  0  0
 23 22  1  0  0  0  0
 23 21  1  1  0  0  0
 24 28  1  6  0  0  0
 24 22  1  0  0  0  0
 25 26  2  0  0  0  0
 26 24  1  0  0  0  0
 27 26  1  0  0  0  0
 27 23  1  0  0  0  0
 28 29  1  0  0  0  0
 29 30  1  0  0  0  0
 30 31  1  1  0  0  0
 32 36  1  0  0  0  0
 33 30  1  6  0  0  0
 33 32  1  0  0  0  0
 33 37  1  0  0  0  0
 36 34  1  1  0  0  0
 36 35  1  0  0  0  0
 37 38  1  0  0  0  0
 38 35  1  0  0  0  0
 38 40  1  1  0  0  0
 40 39  1  0  0  0  0
 42 43  1  0  0  0  0
 43 46  1  1  0  0  0
 44 43  1  0  0  0  0
 45 41  1  6  0  0  0
 45 42  1  0  0  0  0
 45 44  1  0  0  0  0
 45 43  1  0  0  0  0
 46 47  1  0  0  0  0
 47 48  1  0  0  0  0
 48 49  1  0  0  0  0
 49 50  1  0  0  0  0
 50 51  1  0  0  0  0
 50 53  1  0  0  0  0
 52 50  2  0  0  0  0
M  END
>  <MODEL>
7

>  <REMARK>
 VINA RESULT:      -6.8      2.580      9.064
  Name = 
  19 active torsions:
  status: ('A' for Active; 'I' for Inactive)
    1  A    between atoms: C_1  and  C_19
    2  A    between atoms: C_2  and  C_40
    3  A    between atoms: C_2  and  C_45
    4  A    between atoms: C_7  and  C_11
    5  A    between atoms: C_8  and  N_16
    6  A    between atoms: C_11  and  N_48
    7  A    between atoms: O_15  and  P_21
    8  A    between atoms: O_15  and  C_22
    9  A    between atoms: N_16  and  C_53
   10  A    between atoms: C_17  and  C_52
   11  A    between atoms: C_19  and  N_25
   12  A    between atoms: C_19  and  C_52
   13  A    between atoms: C_22  and  C_45
   14  A    between atoms: N_25  and  C_47
   15  A    between atoms: N_29  and  C_30
   16  A    between atoms: C_32  and  C_49
   17  A    between atoms: C_35  and  C_44
   18  A    between atoms: C_46  and  C_53
   19  A    between atoms: N_48  and  C_49
                            x       y       z     vdW  Elec       q    Type
                         _______ _______ _______ _____ _____    ______ ____

>  <TORSDO>
F 19

$$$$
=
 OpenBabel10222417503D

 53 59  0  0  1  0  0  0  0  0999 V2000
  184.5830  178.3670  138.7820 C   0  0  2  0  0  3  0  0  0  0  0  0
  185.9950  178.2680  138.2620 C   0  0  0  0  0  0  0  0  0  0  0  0
  188.5830  177.9870  137.2870 C   0  0  0  0  0  3  0  0  0  0  0  0
  187.0370  177.9410  139.1400 C   0  0  0  0  0  3  0  0  0  0  0  0
  186.2630  178.4180  136.9320 N   0  0  0  0  0  0  0  0  0  0  0  0
  188.3430  177.8090  138.6560 C   0  0  0  0  0  0  0  0  0  0  0  0
  187.5200  178.2900  136.4340 C   0  0  0  0  0  3  0  0  0  0  0  0
  190.8220  177.4850  139.1820 C   0  0  1  0  0  3  0  0  0  0  0  0
  190.7110  177.2260  141.4450 C   0  0  0  0  0  3  0  0  0  0  0  0
  189.2870  177.3760  140.9720 C   0  0  0  0  0  3  0  0  0  0  0  0
  189.4240  177.5030  139.5520 N   0  0  0  0  0  0  0  0  0  0  0  0
  191.5940  177.4540  140.3630 O   0  0  0  0  0  0  0  0  0  0  0  0
  191.1040  176.3010  138.3870 N   0  0  0  0  0  2  0  0  0  0  0  0
  192.5400  176.2860  138.1360 C   0  0  0  0  0  2  0  0  0  0  0  0
  194.0390  173.5410  137.1240 N   0  0  0  0  0  0  0  0  0  0  0  0
  193.9880  172.2460  136.4710 C   0  0  0  0  0  1  0  0  0  0  0  0
  192.7330  174.0680  137.0960 N   0  0  0  0  0  2  0  0  0  0  0  0
  194.8460  174.3720  136.3280 N   0  0  0  0  0  2  0  0  0  0  0  0
  194.2980  175.7040  136.4680 C   0  0  0  0  0  2  0  0  0  0  0  0
  192.8730  175.4950  136.8730 C   0  0  2  0  0  3  0  0  0  0  0  0
  184.4650  179.2700  140.0080 C   0  0  0  0  0  2  0  0  0  0  0  0
  185.2230  179.1550  142.3980 C   0  0  0  0  0  2  0  0  0  0  0  0
  184.4100  178.4590  141.2950 C   0  0  1  0  0  3  0  0  0  0  0  0
  184.2720  179.4780  143.5480 C   0  0  1  0  0  3  0  0  0  0  0  0
  181.8840  179.1200  143.6710 O   0  0  0  0  0  0  0  0  0  0  0  0
  182.9680  179.0010  143.0410 C   0  0  0  0  0  0  0  0  0  0  0  0
  183.0400  178.4020  141.7660 N   0  0  0  0  0  2  0  0  0  0  0  0
  184.6850  178.6900  144.7800 C   0  0  0  0  0  2  0  0  0  0  0  0
  185.7670  179.3810  145.4640 N   0  0  0  0  0  2  0  0  0  0  0  0
  186.0890  178.6140  146.6560 C   0  0  1  0  0  3  0  0  0  0  0  0
  184.9710  177.8750  147.0500 O   0  0  0  0  0  1  0  0  0  0  0  0
  187.7800  177.8620  144.9470 C   0  0  0  0  0  2  0  0  0  0  0  0
  187.2800  177.6930  146.3870 C   0  0  1  0  0  3  0  0  0  0  0  0
  190.1580  178.6270  144.7200 C   0  0  0  0  0  1  0  0  0  0  0  0
  189.7050  176.3910  145.7670 C   0  0  0  0  0  2  0  0  0  0  0  0
  189.2380  177.4230  144.7360 C   0  0  1  0  0  3  0  0  0  0  0  0
  188.4070  177.8990  147.3940 C   0  0  0  0  0  2  0  0  0  0  0  0
  189.4900  176.8280  147.2270 C   0  0  2  0  0  3  0  0  0  0  0  0
  191.7890  176.3400  147.6440 O   0  0  0  0  0  1  0  0  0  0  0  0
  190.7990  177.3050  147.8270 C   0  0  0  0  0  2  0  0  0  0  0  0
  184.0720  177.0440  139.1130 N   0  0  0  0  0  2  0  0  0  0  0  0
  183.1640  176.4950  137.0060 C   0  0  0  0  0  2  0  0  0  0  0  0
  182.6120  175.4060  137.8850 C   0  0  1  0  0  0  0  0  0  0  0  0
  182.0330  175.8700  139.1920 C   0  0  0  0  0  2  0  0  0  0  0  0
  182.8130  176.8750  138.4090 C   0  0  1  0  0  0  0  0  0  0  0  0
  181.3530  175.0360  137.1360 C   0  0  0  0  0  2  0  0  0  0  0  0
  181.5550  173.7220  136.4020 C   0  0  0  0  0  2  0  0  0  0  0  0
  182.5700  172.8640  137.1360 C   0  0  0  0  0  2  0  0  0  0  0  0
  183.2700  172.0700  136.2220 O   0  0  0  0  0  0  0  0  0  0  0  0
  184.8870  172.5710  136.3430 P   0  0  0  0  0  0  0  0  0  0  0  0
  185.7830  171.4930  135.7690 O   0  0  0  0  0  1  0  0  0  0  0  0
  185.1120  174.0050  135.4720 O   0  0  0  0  0  0  0  0  0  0  0  0
  185.2970  172.8250  137.9640 O   0  0  0  0  0  1  0  0  0  0  0  0
  1 41  1  0  0  0  0
  1 21  1  1  0  0  0
  2  1  1  0  0  0  0
  2  4  1  0  0  0  0
  3  6  1  0  0  0  0
  5  2  2  0  0  0  0
  6  4  2  0  0  0  0
  6 11  1  0  0  0  0
  7  5  1  0  0  0  0
  7  3  2  0  0  0  0
  8 13  1  6  0  0  0
  8 11  1  0  0  0  0
  8 12  1  0  0  0  0
 10  9  2  0  0  0  0
 11 10  1  0  0  0  0
 12  9  1  0  0  0  0
 14 13  1  0  0  0  0
 16 15  1  0  0  0  0
 17 15  1  0  0  0  0
 18 19  1  0  0  0  0
 18 15  1  0  0  0  0
 19 20  1  0  0  0  0
 20 17  1  0  0  0  0
 20 14  1  1  0  0  0
 22 24  1  0  0  0  0
 23 21  1  6  0  0  0
 23 27  1  0  0  0  0
 23 22  1  0  0  0  0
 24 28  1  1  0  0  0
 26 24  1  0  0  0  0
 26 25  2  0  0  0  0
 27 26  1  0  0  0  0
 28 29  1  0  0  0  0
 29 30  1  0  0  0  0
 30 31  1  6  0  0  0
 32 33  1  0  0  0  0
 33 30  1  1  0  0  0
 33 37  1  0  0  0  0
 35 38  1  0  0  0  0
 36 34  1  1  0  0  0
 36 32  1  0  0  0  0
 36 35  1  0  0  0  0
 38 37  1  0  0  0  0
 38 40  1  6  0  0  0
 39 40  1  0  0  0  0
 42 43  1  0  0  0  0
 42 45  1  0  0  0  0
 43 46  1  6  0  0  0
 43 45  1  0  0  0  0
 43 44  1  0  0  0  0
 45 41  1  1  0  0  0
 45 44  1  0  0  0  0
 47 46  1  0  0  0  0
 47 48  1  0  0  0  0
 49 50  1  0  0  0  0
 49 48  1  0  0  0  0
 50 53  1  0  0  0  0
 51 50  1  0  0  0  0
 52 50  2  0  0  0  0
M  END
>  <MODEL>
8

>  <REMARK>
 VINA RESULT:      -6.8      2.678      7.533
  Name = 
  19 active torsions:
  status: ('A' for Active; 'I' for Inactive)
    1  A    between atoms: C_1  and  C_19
    2  A    between atoms: C_2  and  C_40
    3  A    between atoms: C_2  and  C_45
    4  A    between atoms: C_7  and  C_11
    5  A    between atoms: C_8  and  N_16
    6  A    between atoms: C_11  and  N_48
    7  A    between atoms: O_15  and  P_21
    8  A    between atoms: O_15  and  C_22
    9  A    between atoms: N_16  and  C_53
   10  A    between atoms: C_17  and  C_52
   11  A    between atoms: C_19  and  N_25
   12  A    between atoms: C_19  and  C_52
   13  A    between atoms: C_22  and  C_45
   14  A    between atoms: N_25  and  C_47
   15  A    between atoms: N_29  and  C_30
   16  A    between atoms: C_32  and  C_49
   17  A    between atoms: C_35  and  C_44
   18  A    between atoms: C_46  and  C_53
   19  A    between atoms: N_48  and  C_49
                            x       y       z     vdW  Elec       q    Type
                         _______ _______ _______ _____ _____    ______ ____

>  <TORSDO>
F 19

$$$$
=
 OpenBabel10222417503D

 53 59  0  0  1  0  0  0  0  0999 V2000
  188.0210  178.1010  140.6580 C   0  0  2  0  0  3  0  0  0  0  0  0
  188.4400  177.9790  139.2140 C   0  0  0  0  0  0  0  0  0  0  0  0
  189.1140  177.7470  136.5270 C   0  0  0  0  0  3  0  0  0  0  0  0
  188.6870  176.7130  138.6660 C   0  0  0  0  0  3  0  0  0  0  0  0
  188.5090  179.0810  138.4110 N   0  0  0  0  0  0  0  0  0  0  0  0
  189.0370  176.5920  137.3160 C   0  0  0  0  0  0  0  0  0  0  0  0
  188.8410  178.9920  137.0970 C   0  0  0  0  0  3  0  0  0  0  0  0
  190.4860  174.5050  137.0600 C   0  0  1  0  0  3  0  0  0  0  0  0
  189.1070  173.2250  135.7740 C   0  0  0  0  0  3  0  0  0  0  0  0
  188.3950  174.5400  135.9680 C   0  0  0  0  0  3  0  0  0  0  0  0
  189.3200  175.3020  136.7510 N   0  0  0  0  0  0  0  0  0  0  0  0
  190.2750  173.1990  136.5710 O   0  0  0  0  0  0  0  0  0  0  0  0
  191.6580  175.0800  136.4170 N   0  0  0  0  0  2  0  0  0  0  0  0
  192.7780  174.1890  136.6950 C   0  0  0  0  0  2  0  0  0  0  0  0
  195.5220  174.0510  138.5000 N   0  0  0  0  0  0  0  0  0  0  0  0
  196.9700  174.0120  138.5880 C   0  0  0  0  0  1  0  0  0  0  0  0
  195.1950  174.1010  137.1310 N   0  0  0  0  0  2  0  0  0  0  0  0
  195.1080  175.2640  139.0760 N   0  0  0  0  0  2  0  0  0  0  0  0
  193.9280  175.6670  138.3400 C   0  0  0  0  0  2  0  0  0  0  0  0
  194.0450  174.9790  137.0160 C   0  0  2  0  0  3  0  0  0  0  0  0
  186.7810  178.9740  140.8440 C   0  0  0  0  0  2  0  0  0  0  0  0
  184.4280  178.2200  141.2800 C   0  0  0  0  0  2  0  0  0  0  0  0
  185.5470  178.3270  140.2320 C   0  0  1  0  0  3  0  0  0  0  0  0
  183.2310  179.0220  140.7700 C   0  0  1  0  0  3  0  0  0  0  0  0
  183.0600  180.3530  138.7590 O   0  0  0  0  0  0  0  0  0  0  0  0
  183.7290  179.5790  139.4940 C   0  0  0  0  0  0  0  0  0  0  0  0
  185.0400  179.1730  139.1710 N   0  0  0  0  0  2  0  0  0  0  0  0
  182.0640  178.0810  140.5220 C   0  0  0  0  0  2  0  0  0  0  0  0
  182.5430  176.8620  139.8880 N   0  0  0  0  0  2  0  0  0  0  0  0
  181.6060  176.5240  138.8300 C   0  0  1  0  0  3  0  0  0  0  0  0
  180.8980  177.6670  138.4520 O   0  0  0  0  0  1  0  0  0  0  0  0
  183.0180  177.0340  136.8080 C   0  0  0  0  0  2  0  0  0  0  0  0
  182.3510  175.9280  137.6350 C   0  0  1  0  0  3  0  0  0  0  0  0
  185.5140  176.8710  136.6140 C   0  0  0  0  0  1  0  0  0  0  0  0
  184.1040  175.0560  135.6030 C   0  0  0  0  0  2  0  0  0  0  0  0
  184.1930  176.5460  135.9450 C   0  0  1  0  0  3  0  0  0  0  0  0
  183.3600  174.8640  138.0560 C   0  0  0  0  0  2  0  0  0  0  0  0
  183.9360  174.1450  136.8320 C   0  0  2  0  0  3  0  0  0  0  0  0
  185.3740  172.2630  136.5300 O   0  0  0  0  0  1  0  0  0  0  0  0
  185.2610  173.4910  137.1810 C   0  0  0  0  0  2  0  0  0  0  0  0
  189.1120  178.6440  141.4560 N   0  0  0  0  0  2  0  0  0  0  0  0
  190.5410  178.1980  143.2790 C   0  0  0  0  0  2  0  0  0  0  0  0
  189.2130  177.7050  143.7860 C   0  0  1  0  0  0  0  0  0  0  0  0
  188.4370  176.8510  142.8230 C   0  0  0  0  0  2  0  0  0  0  0  0
  189.6300  177.5650  142.2770 C   0  0  1  0  0  0  0  0  0  0  0  0
  189.6530  176.6650  144.7920 C   0  0  0  0  0  2  0  0  0  0  0  0
  189.1750  177.0560  146.1800 C   0  0  0  0  0  2  0  0  0  0  0  0
  188.0250  178.0410  146.0790 C   0  0  0  0  0  2  0  0  0  0  0  0
  187.2310  177.9620  147.2270 O   0  0  0  0  0  0  0  0  0  0  0  0
  185.9110  178.9870  146.9280 P   0  0  0  0  0  0  0  0  0  0  0  0
  185.8880  179.3480  145.4590 O   0  0  0  0  0  0  0  0  0  0  0  0
  184.4680  178.1990  147.3330 O   0  0  0  0  0  1  0  0  0  0  0  0
  186.0570  180.4020  147.8440 O   0  0  0  0  0  1  0  0  0  0  0  0
  1 21  1  6  0  0  0
  1 41  1  0  0  0  0
  2  1  1  0  0  0  0
  3  7  2  0  0  0  0
  3  6  1  0  0  0  0
  4  2  1  0  0  0  0
  5  2  2  0  0  0  0
  6  4  2  0  0  0  0
  7  5  1  0  0  0  0
  8 13  1  6  0  0  0
  9 10  2  0  0  0  0
  9 12  1  0  0  0  0
 10 11  1  0  0  0  0
 11  8  1  0  0  0  0
 11  6  1  0  0  0  0
 12  8  1  0  0  0  0
 13 14  1  0  0  0  0
 15 16  1  0  0  0  0
 15 18  1  0  0  0  0
 17 15  1  0  0  0  0
 19 18  1  0  0  0  0
 20 14  1  1  0  0  0
 20 17  1  0  0  0  0
 20 19  1  0  0  0  0
 23 21  1  1  0  0  0
 23 22  1  0  0  0  0
 24 28  1  6  0  0  0
 24 22  1  0  0  0  0
 25 26  2  0  0  0  0
 26 24  1  0  0  0  0
 27 26  1  0  0  0  0
 27 23  1  0  0  0  0
 29 28  1  0  0  0  0
 30 31  1  6  0  0  0
 30 29  1  0  0  0  0
 32 33  1  0  0  0  0
 33 37  1  0  0  0  0
 33 30  1  1  0  0  0
 35 36  1  0  0  0  0
 35 38  1  0  0  0  0
 36 34  1  1  0  0  0
 36 32  1  0  0  0  0
 38 40  1  1  0  0  0
 38 37  1  0  0  0  0
 39 40  1  0  0  0  0
 42 43  1  0  0  0  0
 43 46  1  1  0  0  0
 44 43  1  0  0  0  0
 45 41  1  6  0  0  0
 45 44  1  0  0  0  0
 45 42  1  0  0  0  0
 45 43  1  0  0  0  0
 46 47  1  0  0  0  0
 48 47  1  0  0  0  0
 48 49  1  0  0  0  0
 50 49  1  0  0  0  0
 50 52  1  0  0  0  0
 50 53  1  0  0  0  0
 51 50  2  0  0  0  0
M  END
>  <MODEL>
9

>  <REMARK>
 VINA RESULT:      -6.7      2.069      3.447
  Name = 
  19 active torsions:
  status: ('A' for Active; 'I' for Inactive)
    1  A    between atoms: C_1  and  C_19
    2  A    between atoms: C_2  and  C_40
    3  A    between atoms: C_2  and  C_45
    4  A    between atoms: C_7  and  C_11
    5  A    between atoms: C_8  and  N_16
    6  A    between atoms: C_11  and  N_48
    7  A    between atoms: O_15  and  P_21
    8  A    between atoms: O_15  and  C_22
    9  A    between atoms: N_16  and  C_53
   10  A    between atoms: C_17  and  C_52
   11  A    between atoms: C_19  and  N_25
   12  A    between atoms: C_19  and  C_52
   13  A    between atoms: C_22  and  C_45
   14  A    between atoms: N_25  and  C_47
   15  A    between atoms: N_29  and  C_30
   16  A    between atoms: C_32  and  C_49
   17  A    between atoms: C_35  and  C_44
   18  A    between atoms: C_46  and  C_53
   19  A    between atoms: N_48  and  C_49
                            x       y       z     vdW  Elec       q    Type
                         _______ _______ _______ _____ _____    ______ ____

>  <TORSDO>
F 19

$$$$
