=
 OpenBabel10222418223D

 34 37  0  0  1  0  0  0  0  0999 V2000
  192.9730  177.0630  139.2270 C   0  0  0  0  0  3  0  0  0  0  0  0
  190.1490  176.5040  138.3820 C   0  0  0  0  0  0  0  0  0  0  0  0
  192.5280  174.0880  136.9250 C   0  0  0  0  0  1  0  0  0  0  0  0
  193.0820  175.8630  138.4400 N   0  0  0  0  0  0  0  0  0  0  0  0
  190.8610  175.8700  137.5020 N   0  0  0  0  0  0  0  0  0  0  0  0
  190.6120  176.6310  139.8050 C   0  0  2  0  0  3  0  0  0  0  0  0
  189.5620  177.1980  140.7430 C   0  0  0  0  0  0  0  0  0  0  0  0
  188.1710  177.7670  138.8000 C   0  0  0  0  0  3  0  0  0  0  0  0
  191.8550  177.4540  139.8360 C   0  0  0  0  0  3  0  0  0  0  0  0
  188.9440  177.1480  137.9640 N   0  0  0  0  0  0  0  0  0  0  0  0
  192.1560  175.2850  137.7240 C   0  0  0  0  0  0  0  0  0  0  0  0
  188.4590  177.8120  140.2490 C   0  0  0  0  0  0  0  0  0  0  0  0
  190.1400  178.1830  143.0210 C   0  0  0  0  0  2  0  0  0  0  0  0
  189.9530  175.8160  142.8610 C   0  0  0  0  0  2  0  0  0  0  0  0
  190.3010  176.2070  144.2790 C   0  0  0  0  0  2  0  0  0  0  0  0
  189.7750  177.0710  142.1680 N   0  0  0  0  0  0  0  0  0  0  0  0
  190.5940  177.6400  144.2980 N   0  0  0  0  0  0  0  0  0  0  0  0
  189.7630  178.2390  145.3310 C   0  0  0  0  0  2  0  0  0  0  0  0
  188.3350  177.7380  148.1320 C   0  0  0  0  0  2  0  0  0  0  0  0
  189.2380  177.1610  146.2700 C   0  0  0  0  0  3  0  0  0  0  0  0
  189.7440  177.4020  147.6810 C   0  0  0  0  0  2  0  0  0  0  0  0
  187.8320  177.5090  146.7190 C   0  0  0  0  0  2  0  0  0  0  0  0
  187.5540  178.4880  141.1360 N   0  0  0  0  0  2  0  0  0  0  0  0
  186.1640  178.7630  140.9160 C   0  0  0  0  0  0  0  0  0  0  0  0
  185.5920  178.4370  139.8430 O   0  0  0  0  0  0  0  0  0  0  0  0
  185.3940  179.4820  141.9650 C   0  0  0  0  0  2  0  0  0  0  0  0
  184.7900  178.4800  142.9320 C   0  0  0  0  0  2  0  0  0  0  0  0
  184.0580  179.1990  144.0570 C   0  0  2  0  0  3  0  0  0  0  0  0
  184.2070  178.7580  146.3860 O   0  0  0  0  0  0  0  0  0  0  0  0
  184.7950  179.0470  145.3540 C   0  0  0  0  0  3  0  0  0  0  0  0
  182.6380  178.6650  144.1990 C   0  0  0  0  0  2  0  0  0  0  0  0
  181.6820  179.3750  143.2510 C   0  0  0  0  0  2  0  0  0  0  0  0
  181.2530  179.0170  141.1160 C   0  0  0  0  0  1  0  0  0  0  0  0
  181.0960  178.4530  142.3820 O   0  0  0  0  0  0  0  0  0  0  0  0
  1  9  2  0  0  0  0
  2  6  1  0  0  0  0
  3 11  1  0  0  0  0
  4  1  1  0  0  0  0
  5 11  1  0  0  0  0
  5  2  2  0  0  0  0
  6  9  1  6  0  0  0
  6  7  1  0  0  0  0
  7 16  1  0  0  0  0
  8 12  1  0  0  0  0
 10  2  1  0  0  0  0
 10  8  2  0  0  0  0
 11  4  2  0  0  0  0
 12  7  2  0  0  0  0
 12 23  1  0  0  0  0
 13 17  1  0  0  0  0
 14 15  1  0  0  0  0
 15 17  1  0  0  0  0
 16 14  1  0  0  0  0
 16 13  1  0  0  0  0
 17 18  1  0  0  0  0
 18 20  1  0  0  0  0
 20 22  1  0  0  0  0
 20 21  1  0  0  0  0
 21 19  1  0  0  0  0
 22 19  1  0  0  0  0
 24 23  1  0  0  0  0
 24 26  1  0  0  0  0
 25 24  2  0  0  0  0
 26 27  1  0  0  0  0
 28 27  1  6  0  0  0
 28 31  1  0  0  0  0
 28 30  1  0  0  0  0
 30 29  2  0  0  0  0
 32 31  1  0  0  0  0
 33 34  1  0  0  0  0
 34 32  1  0  0  0  0
M  END
>  <MODEL>
1

>  <REMARK>
 VINA RESULT:      -7.9      0.000      0.000
  Name = 
  11 active torsions:
  status: ('A' for Active; 'I' for Inactive)
    1  A    between atoms: N_2  and  C_34
    2  A    between atoms: C_6  and  C_33
    3  A    between atoms: C_9  and  C_23
    4  A    between atoms: C_13  and  C_27
    5  A    between atoms: C_13  and  C_29
    6  A    between atoms: O_15  and  C_29
    7  A    between atoms: N_18  and  C_21
    8  A    between atoms: C_19  and  C_27
    9  A    between atoms: C_19  and  C_33
   10  A    between atoms: C_23  and  N_32
   11  A    between atoms: C_27  and  C_28
                            x       y       z     vdW  Elec       q    Type
                         _______ _______ _______ _____ _____    ______ ____

>  <TORSDO>
F 11

$$$$
=
 OpenBabel10222418223D

 34 37  0  0  1  0  0  0  0  0999 V2000
  192.0690  174.3130  136.6710 C   0  0  0  0  0  3  0  0  0  0  0  0
  192.8710  176.6310  138.3990 C   0  0  0  0  0  0  0  0  0  0  0  0
  195.2390  176.0980  135.6190 C   0  0  0  0  0  1  0  0  0  0  0  0
  193.2340  174.8430  136.0140 N   0  0  0  0  0  0  0  0  0  0  0  0
  193.9630  176.3320  137.7640 N   0  0  0  0  0  0  0  0  0  0  0  0
  191.5280  176.4690  137.7460 C   0  0  2  0  0  3  0  0  0  0  0  0
  190.3840  177.0750  138.5380 C   0  0  0  0  0  0  0  0  0  0  0  0
  191.9060  177.3960  140.4390 C   0  0  0  0  0  3  0  0  0  0  0  0
  191.2890  175.0200  137.4870 C   0  0  0  0  0  3  0  0  0  0  0  0
  192.9550  177.0500  139.7620 N   0  0  0  0  0  0  0  0  0  0  0  0
  194.0460  175.7710  136.4430 C   0  0  0  0  0  0  0  0  0  0  0  0
  190.5570  177.4230  139.8370 C   0  0  0  0  0  0  0  0  0  0  0  0
  188.1680  176.1880  137.6460 C   0  0  0  0  0  2  0  0  0  0  0  0
  188.7570  178.4290  137.1010 C   0  0  0  0  0  2  0  0  0  0  0  0
  187.4200  178.0870  136.4840 C   0  0  0  0  0  2  0  0  0  0  0  0
  189.1130  177.2620  137.8740 N   0  0  0  0  0  0  0  0  0  0  0  0
  187.1820  176.6560  136.6760 N   0  0  0  0  0  0  0  0  0  0  0  0
  185.8750  176.5140  137.3010 C   0  0  0  0  0  2  0  0  0  0  0  0
  182.7620  176.4510  136.6430 C   0  0  0  0  0  2  0  0  0  0  0  0
  184.7970  177.0910  136.3940 C   0  0  0  0  0  3  0  0  0  0  0  0
  183.9430  175.9760  135.8180 C   0  0  0  0  0  2  0  0  0  0  0  0
  183.6190  177.5580  137.2260 C   0  0  0  0  0  2  0  0  0  0  0  0
  189.4310  177.8410  140.6260 N   0  0  0  0  0  2  0  0  0  0  0  0
  188.9610  177.2580  141.8480 C   0  0  0  0  0  0  0  0  0  0  0  0
  189.5160  176.2450  142.3490 O   0  0  0  0  0  0  0  0  0  0  0  0
  187.7690  177.8420  142.5160 C   0  0  0  0  0  2  0  0  0  0  0  0
  187.3750  176.9800  143.7020 C   0  0  0  0  0  2  0  0  0  0  0  0
  187.5370  177.7550  145.0030 C   0  0  2  0  0  3  0  0  0  0  0  0
  189.8470  177.8670  145.5420 O   0  0  0  0  0  0  0  0  0  0  0  0
  188.7720  177.3180  145.7320 C   0  0  0  0  0  3  0  0  0  0  0  0
  186.3130  177.5700  145.8930 C   0  0  0  0  0  2  0  0  0  0  0  0
  185.7250  178.9100  146.3090 C   0  0  0  0  0  2  0  0  0  0  0  0
  183.9830  178.9210  144.9530 C   0  0  0  0  0  1  0  0  0  0  0  0
  184.3300  178.8440  146.3020 O   0  0  0  0  0  0  0  0  0  0  0  0
  1  9  2  0  0  0  0
  2 10  1  0  0  0  0
  3 11  1  0  0  0  0
  4 11  2  0  0  0  0
  4  1  1  0  0  0  0
  5  2  2  0  0  0  0
  6  9  1  1  0  0  0
  6  2  1  0  0  0  0
  6  7  1  0  0  0  0
  7 12  2  0  0  0  0
 10  8  2  0  0  0  0
 11  5  1  0  0  0  0
 12  8  1  0  0  0  0
 12 23  1  0  0  0  0
 13 16  1  0  0  0  0
 14 16  1  0  0  0  0
 15 17  1  0  0  0  0
 15 14  1  0  0  0  0
 16  7  1  0  0  0  0
 17 18  1  0  0  0  0
 17 13  1  0  0  0  0
 19 22  1  0  0  0  0
 20 22  1  0  0  0  0
 20 18  1  0  0  0  0
 21 20  1  0  0  0  0
 21 19  1  0  0  0  0
 23 24  1  0  0  0  0
 24 25  2  0  0  0  0
 24 26  1  0  0  0  0
 26 27  1  0  0  0  0
 28 27  1  6  0  0  0
 28 30  1  0  0  0  0
 28 31  1  0  0  0  0
 29 30  2  0  0  0  0
 31 32  1  0  0  0  0
 33 34  1  0  0  0  0
 34 32  1  0  0  0  0
M  END
>  <MODEL>
2

>  <REMARK>
 VINA RESULT:      -7.3      2.707      6.012
  Name = 
  11 active torsions:
  status: ('A' for Active; 'I' for Inactive)
    1  A    between atoms: N_2  and  C_34
    2  A    between atoms: C_6  and  C_33
    3  A    between atoms: C_9  and  C_23
    4  A    between atoms: C_13  and  C_27
    5  A    between atoms: C_13  and  C_29
    6  A    between atoms: O_15  and  C_29
    7  A    between atoms: N_18  and  C_21
    8  A    between atoms: C_19  and  C_27
    9  A    between atoms: C_19  and  C_33
   10  A    between atoms: C_23  and  N_32
   11  A    between atoms: C_27  and  C_28
                            x       y       z     vdW  Elec       q    Type
                         _______ _______ _______ _____ _____    ______ ____

>  <TORSDO>
F 11

$$$$
=
 OpenBabel10222418223D

 34 37  0  0  1  0  0  0  0  0999 V2000
  192.0960  174.3960  136.6900 C   0  0  0  0  0  3  0  0  0  0  0  0
  192.6900  176.7770  138.4170 C   0  0  0  0  0  0  0  0  0  0  0  0
  194.8430  176.6730  135.4210 C   0  0  0  0  0  1  0  0  0  0  0  0
  193.1000  175.1130  135.9510 N   0  0  0  0  0  0  0  0  0  0  0  0
  193.7510  176.6650  137.6780 N   0  0  0  0  0  0  0  0  0  0  0  0
  191.3330  176.4200  137.8800 C   0  0  2  0  0  3  0  0  0  0  0  0
  190.1880  176.8260  138.7900 C   0  0  0  0  0  0  0  0  0  0  0  0
  191.8130  177.3440  140.5590 C   0  0  0  0  0  3  0  0  0  0  0  0
  191.2960  174.9570  137.5960 C   0  0  0  0  0  3  0  0  0  0  0  0
  192.8350  177.1790  139.7800 N   0  0  0  0  0  0  0  0  0  0  0  0
  193.7960  176.1480  136.3370 C   0  0  0  0  0  0  0  0  0  0  0  0
  190.4250  177.1710  140.0790 C   0  0  0  0  0  0  0  0  0  0  0  0
  188.2950  175.7210  137.4900 C   0  0  0  0  0  2  0  0  0  0  0  0
  188.0140  177.9980  138.1230 C   0  0  0  0  0  2  0  0  0  0  0  0
  186.7960  177.5250  137.3630 C   0  0  0  0  0  2  0  0  0  0  0  0
  188.8470  176.8250  138.2480 N   0  0  0  0  0  0  0  0  0  0  0  0
  187.0820  176.1930  136.8280 N   0  0  0  0  0  0  0  0  0  0  0  0
  186.0020  175.3140  137.2520 C   0  0  0  0  0  2  0  0  0  0  0  0
  185.0200  172.4060  136.4110 C   0  0  0  0  0  2  0  0  0  0  0  0
  186.4320  173.8600  137.1250 C   0  0  0  0  0  3  0  0  0  0  0  0
  185.4040  172.9490  137.7740 C   0  0  0  0  0  2  0  0  0  0  0  0
  186.0400  173.3230  135.7620 C   0  0  0  0  0  2  0  0  0  0  0  0
  189.3270  177.3940  140.9790 N   0  0  0  0  0  2  0  0  0  0  0  0
  189.0270  176.6740  142.1810 C   0  0  0  0  0  0  0  0  0  0  0  0
  189.7330  175.7020  142.5580 O   0  0  0  0  0  0  0  0  0  0  0  0
  187.8340  177.0610  142.9780 C   0  0  0  0  0  2  0  0  0  0  0  0
  188.1000  176.8060  144.4510 C   0  0  0  0  0  2  0  0  0  0  0  0
  187.4570  177.8920  145.3040 C   0  0  2  0  0  3  0  0  0  0  0  0
  188.8330  178.0440  147.2340 O   0  0  0  0  0  0  0  0  0  0  0  0
  187.7680  177.6830  146.7560 C   0  0  0  0  0  3  0  0  0  0  0  0
  185.9480  177.9170  145.0930 C   0  0  0  0  0  2  0  0  0  0  0  0
  185.2550  178.7650  146.1490 C   0  0  0  0  0  2  0  0  0  0  0  0
  183.9840  179.2960  144.4250 C   0  0  0  0  0  1  0  0  0  0  0  0
  183.9260  178.9930  145.7850 O   0  0  0  0  0  0  0  0  0  0  0  0
  1  9  2  0  0  0  0
  2 10  1  0  0  0  0
  3 11  1  0  0  0  0
  4 11  2  0  0  0  0
  4  1  1  0  0  0  0
  5  2  2  0  0  0  0
  6  9  1  1  0  0  0
  6  2  1  0  0  0  0
  6  7  1  0  0  0  0
  7 12  2  0  0  0  0
 10  8  2  0  0  0  0
 11  5  1  0  0  0  0
 12  8  1  0  0  0  0
 12 23  1  0  0  0  0
 13 16  1  0  0  0  0
 14 16  1  0  0  0  0
 15 14  1  0  0  0  0
 16  7  1  0  0  0  0
 17 18  1  0  0  0  0
 17 15  1  0  0  0  0
 17 13  1  0  0  0  0
 19 21  1  0  0  0  0
 20 18  1  0  0  0  0
 20 21  1  0  0  0  0
 22 19  1  0  0  0  0
 22 20  1  0  0  0  0
 23 24  1  0  0  0  0
 24 25  2  0  0  0  0
 24 26  1  0  0  0  0
 26 27  1  0  0  0  0
 28 27  1  6  0  0  0
 28 30  1  0  0  0  0
 30 29  2  0  0  0  0
 31 28  1  0  0  0  0
 31 32  1  0  0  0  0
 33 34  1  0  0  0  0
 34 32  1  0  0  0  0
M  END
>  <MODEL>
3

>  <REMARK>
 VINA RESULT:      -7.3      2.826      5.895
  Name = 
  11 active torsions:
  status: ('A' for Active; 'I' for Inactive)
    1  A    between atoms: N_2  and  C_34
    2  A    between atoms: C_6  and  C_33
    3  A    between atoms: C_9  and  C_23
    4  A    between atoms: C_13  and  C_27
    5  A    between atoms: C_13  and  C_29
    6  A    between atoms: O_15  and  C_29
    7  A    between atoms: N_18  and  C_21
    8  A    between atoms: C_19  and  C_27
    9  A    between atoms: C_19  and  C_33
   10  A    between atoms: C_23  and  N_32
   11  A    between atoms: C_27  and  C_28
                            x       y       z     vdW  Elec       q    Type
                         _______ _______ _______ _____ _____    ______ ____

>  <TORSDO>
F 11

$$$$
=
 OpenBabel10222418223D

 34 37  0  0  1  0  0  0  0  0999 V2000
  191.5550  174.6250  136.6010 C   0  0  0  0  0  3  0  0  0  0  0  0
  192.5380  176.7620  138.4640 C   0  0  0  0  0  0  0  0  0  0  0  0
  194.7550  176.3510  135.5430 C   0  0  0  0  0  1  0  0  0  0  0  0
  192.7130  175.1550  135.9330 N   0  0  0  0  0  0  0  0  0  0  0  0
  193.5860  176.4680  137.7580 N   0  0  0  0  0  0  0  0  0  0  0  0
  191.1620  176.7100  137.8640 C   0  0  2  0  0  3  0  0  0  0  0  0
  190.0830  177.3000  138.7540 C   0  0  0  0  0  0  0  0  0  0  0  0
  191.7000  177.4030  140.6010 C   0  0  0  0  0  3  0  0  0  0  0  0
  190.8450  175.2980  137.5060 C   0  0  0  0  0  3  0  0  0  0  0  0
  192.7010  177.0680  139.8500 N   0  0  0  0  0  0  0  0  0  0  0  0
  193.5850  176.0110  136.3940 C   0  0  0  0  0  0  0  0  0  0  0  0
  190.3280  177.5350  140.0660 C   0  0  0  0  0  0  0  0  0  0  0  0
  187.7030  176.6420  138.1250 C   0  0  0  0  0  2  0  0  0  0  0  0
  188.5260  178.7170  137.3000 C   0  0  0  0  0  2  0  0  0  0  0  0
  187.1090  178.5030  136.8220 C   0  0  0  0  0  2  0  0  0  0  0  0
  188.7940  177.5930  138.1670 N   0  0  0  0  0  0  0  0  0  0  0  0
  186.7060  177.1440  137.1840 N   0  0  0  0  0  0  0  0  0  0  0  0
  185.4500  177.2430  137.9130 C   0  0  0  0  0  2  0  0  0  0  0  0
  183.9300  178.9700  140.1120 C   0  0  0  0  0  2  0  0  0  0  0  0
  185.2820  178.6480  138.4740 C   0  0  0  0  0  3  0  0  0  0  0  0
  183.8080  178.9910  138.6010 C   0  0  0  0  0  2  0  0  0  0  0  0
  185.4000  178.6170  139.9850 C   0  0  0  0  0  2  0  0  0  0  0  0
  189.2580  177.9380  140.9370 N   0  0  0  0  0  2  0  0  0  0  0  0
  188.7880  177.2570  142.1080 C   0  0  0  0  0  0  0  0  0  0  0  0
  189.2880  176.1630  142.4780 O   0  0  0  0  0  0  0  0  0  0  0  0
  187.6590  177.8410  142.8790 C   0  0  0  0  0  2  0  0  0  0  0  0
  187.0250  176.7690  143.7470 C   0  0  0  0  0  2  0  0  0  0  0  0
  186.9150  177.2460  145.1890 C   0  0  2  0  0  3  0  0  0  0  0  0
  185.8270  179.3170  145.5960 O   0  0  0  0  0  0  0  0  0  0  0  0
  185.7120  178.1220  145.3700 C   0  0  0  0  0  3  0  0  0  0  0  0
  188.1740  177.9990  145.6020 C   0  0  0  0  0  2  0  0  0  0  0  0
  189.1480  177.0890  146.3370 C   0  0  0  0  0  2  0  0  0  0  0  0
  188.9250  178.0200  148.3260 C   0  0  0  0  0  1  0  0  0  0  0  0
  188.6840  176.8360  147.6300 O   0  0  0  0  0  0  0  0  0  0  0  0
  1  9  2  0  0  0  0
  2 10  1  0  0  0  0
  3 11  1  0  0  0  0
  4 11  2  0  0  0  0
  4  1  1  0  0  0  0
  5  2  2  0  0  0  0
  6  9  1  1  0  0  0
  6  2  1  0  0  0  0
  6  7  1  0  0  0  0
  7 12  2  0  0  0  0
 10  8  2  0  0  0  0
 11  5  1  0  0  0  0
 12  8  1  0  0  0  0
 12 23  1  0  0  0  0
 13 16  1  0  0  0  0
 14 16  1  0  0  0  0
 15 17  1  0  0  0  0
 15 14  1  0  0  0  0
 16  7  1  0  0  0  0
 17 18  1  0  0  0  0
 17 13  1  0  0  0  0
 18 20  1  0  0  0  0
 20 21  1  0  0  0  0
 20 22  1  0  0  0  0
 21 19  1  0  0  0  0
 22 19  1  0  0  0  0
 23 24  1  0  0  0  0
 24 25  2  0  0  0  0
 24 26  1  0  0  0  0
 26 27  1  0  0  0  0
 28 27  1  6  0  0  0
 28 30  1  0  0  0  0
 28 31  1  0  0  0  0
 30 29  2  0  0  0  0
 31 32  1  0  0  0  0
 32 34  1  0  0  0  0
 34 33  1  0  0  0  0
M  END
>  <MODEL>
4

>  <REMARK>
 VINA RESULT:      -7.2      2.284      5.754
  Name = 
  11 active torsions:
  status: ('A' for Active; 'I' for Inactive)
    1  A    between atoms: N_2  and  C_34
    2  A    between atoms: C_6  and  C_33
    3  A    between atoms: C_9  and  C_23
    4  A    between atoms: C_13  and  C_27
    5  A    between atoms: C_13  and  C_29
    6  A    between atoms: O_15  and  C_29
    7  A    between atoms: N_18  and  C_21
    8  A    between atoms: C_19  and  C_27
    9  A    between atoms: C_19  and  C_33
   10  A    between atoms: C_23  and  N_32
   11  A    between atoms: C_27  and  C_28
                            x       y       z     vdW  Elec       q    Type
                         _______ _______ _______ _____ _____    ______ ____

>  <TORSDO>
F 11

$$$$
=
 OpenBabel10222418223D

 34 37  0  0  1  0  0  0  0  0999 V2000
  188.2910  178.0360  135.0980 C   0  0  0  0  0  3  0  0  0  0  0  0
  187.1670  177.6590  137.8550 C   0  0  0  0  0  0  0  0  0  0  0  0
  184.7510  176.6980  135.2370 C   0  0  0  0  0  1  0  0  0  0  0  0
  186.9950  177.4580  134.8640 N   0  0  0  0  0  0  0  0  0  0  0  0
  186.1140  177.6800  137.0970 N   0  0  0  0  0  0  0  0  0  0  0  0
  188.4610  177.0720  137.3650 C   0  0  2  0  0  3  0  0  0  0  0  0
  189.5140  176.9210  138.4470 C   0  0  0  0  0  0  0  0  0  0  0  0
  188.1110  178.2510  139.9620 C   0  0  0  0  0  3  0  0  0  0  0  0
  188.9700  177.9030  136.2360 C   0  0  0  0  0  3  0  0  0  0  0  0
  187.1050  178.2690  139.1450 N   0  0  0  0  0  0  0  0  0  0  0  0
  186.0460  177.2340  135.7320 C   0  0  0  0  0  0  0  0  0  0  0  0
  189.3750  177.5590  139.6350 C   0  0  0  0  0  0  0  0  0  0  0  0
  191.9970  176.6150  137.9630 C   0  0  0  0  0  2  0  0  0  0  0  0
  190.5960  174.7010  137.7770 C   0  0  0  0  0  2  0  0  0  0  0  0
  192.0230  174.3240  137.4520 C   0  0  0  0  0  2  0  0  0  0  0  0
  190.6650  176.0890  138.1730 N   0  0  0  0  0  0  0  0  0  0  0  0
  192.8160  175.5520  137.3890 N   0  0  0  0  0  0  0  0  0  0  0  0
  193.9590  175.3750  138.2720 C   0  0  0  0  0  2  0  0  0  0  0  0
  196.8120  174.0110  137.9130 C   0  0  0  0  0  2  0  0  0  0  0  0
  194.6650  174.0640  137.9570 C   0  0  0  0  0  3  0  0  0  0  0  0
  195.7240  174.2790  136.8910 C   0  0  0  0  0  2  0  0  0  0  0  0
  195.7540  173.8060  138.9800 C   0  0  0  0  0  2  0  0  0  0  0  0
  190.4490  177.5460  140.5890 N   0  0  0  0  0  2  0  0  0  0  0  0
  190.4610  176.9140  141.8760 C   0  0  0  0  0  0  0  0  0  0  0  0
  189.4520  176.3030  142.3170 O   0  0  0  0  0  0  0  0  0  0  0  0
  191.6790  177.0180  142.7210 C   0  0  0  0  0  2  0  0  0  0  0  0
  191.6270  178.2970  143.5370 C   0  0  0  0  0  2  0  0  0  0  0  0
  191.2270  177.9960  144.9760 C   0  0  2  0  0  3  0  0  0  0  0  0
  192.1580  176.3510  146.4130 O   0  0  0  0  0  0  0  0  0  0  0  0
  191.6030  176.5940  145.3510 C   0  0  0  0  0  3  0  0  0  0  0  0
  189.7290  178.2030  145.1700 C   0  0  0  0  0  2  0  0  0  0  0  0
  189.1170  177.0770  145.9920 C   0  0  0  0  0  2  0  0  0  0  0  0
  187.1510  177.7950  145.2930 C   0  0  0  0  0  1  0  0  0  0  0  0
  187.8510  177.4510  146.4480 O   0  0  0  0  0  0  0  0  0  0  0  0
  1  9  2  0  0  0  0
  2 10  1  0  0  0  0
  3 11  1  0  0  0  0
  4  1  1  0  0  0  0
  4 11  2  0  0  0  0
  5  2  2  0  0  0  0
  6  9  1  6  0  0  0
  6  2  1  0  0  0  0
  6  7  1  0  0  0  0
  7 12  2  0  0  0  0
 10  8  2  0  0  0  0
 11  5  1  0  0  0  0
 12  8  1  0  0  0  0
 12 23  1  0  0  0  0
 13 16  1  0  0  0  0
 14 16  1  0  0  0  0
 15 14  1  0  0  0  0
 16  7  1  0  0  0  0
 17 15  1  0  0  0  0
 17 13  1  0  0  0  0
 17 18  1  0  0  0  0
 19 22  1  0  0  0  0
 20 18  1  0  0  0  0
 20 22  1  0  0  0  0
 21 19  1  0  0  0  0
 21 20  1  0  0  0  0
 23 24  1  0  0  0  0
 24 25  2  0  0  0  0
 24 26  1  0  0  0  0
 26 27  1  0  0  0  0
 28 27  1  6  0  0  0
 28 31  1  0  0  0  0
 28 30  1  0  0  0  0
 30 29  2  0  0  0  0
 31 32  1  0  0  0  0
 32 34  1  0  0  0  0
 33 34  1  0  0  0  0
M  END
>  <MODEL>
5

>  <REMARK>
 VINA RESULT:      -6.9      3.074      7.097
  Name = 
  11 active torsions:
  status: ('A' for Active; 'I' for Inactive)
    1  A    between atoms: N_2  and  C_34
    2  A    between atoms: C_6  and  C_33
    3  A    between atoms: C_9  and  C_23
    4  A    between atoms: C_13  and  C_27
    5  A    between atoms: C_13  and  C_29
    6  A    between atoms: O_15  and  C_29
    7  A    between atoms: N_18  and  C_21
    8  A    between atoms: C_19  and  C_27
    9  A    between atoms: C_19  and  C_33
   10  A    between atoms: C_23  and  N_32
   11  A    between atoms: C_27  and  C_28
                            x       y       z     vdW  Elec       q    Type
                         _______ _______ _______ _____ _____    ______ ____

>  <TORSDO>
F 11

$$$$
=
 OpenBabel10222418223D

 34 37  0  0  1  0  0  0  0  0999 V2000
  192.9630  173.6760  136.3950 C   0  0  0  0  0  3  0  0  0  0  0  0
  193.1720  176.3160  137.8070 C   0  0  0  0  0  0  0  0  0  0  0  0
  195.7030  175.9720  135.1430 C   0  0  0  0  0  1  0  0  0  0  0  0
  194.0080  174.3630  135.6840 N   0  0  0  0  0  0  0  0  0  0  0  0
  194.3260  176.1890  137.2270 N   0  0  0  0  0  0  0  0  0  0  0  0
  191.9230  175.7780  137.1690 C   0  0  2  0  0  3  0  0  0  0  0  0
  190.6450  176.2110  137.8630 C   0  0  0  0  0  0  0  0  0  0  0  0
  191.9860  177.1020  139.7180 C   0  0  0  0  0  3  0  0  0  0  0  0
  192.0170  174.2910  137.1030 C   0  0  0  0  0  3  0  0  0  0  0  0
  193.1100  176.9140  139.1020 N   0  0  0  0  0  0  0  0  0  0  0  0
  194.5800  175.4960  135.9930 C   0  0  0  0  0  0  0  0  0  0  0  0
  190.6870  176.7510  139.1060 C   0  0  0  0  0  0  0  0  0  0  0  0
  188.6390  174.7860  137.1990 C   0  0  0  0  0  2  0  0  0  0  0  0
  188.8850  176.9030  136.1390 C   0  0  0  0  0  2  0  0  0  0  0  0
  187.6480  176.2100  135.6160 C   0  0  0  0  0  2  0  0  0  0  0  0
  189.3900  176.0240  137.1690 N   0  0  0  0  0  0  0  0  0  0  0  0
  187.6340  174.8440  136.1420 N   0  0  0  0  0  0  0  0  0  0  0  0
  186.3410  174.6380  136.7770 C   0  0  0  0  0  2  0  0  0  0  0  0
  184.6490  171.9650  136.4220 C   0  0  0  0  0  2  0  0  0  0  0  0
  186.2110  173.1930  137.2400 C   0  0  0  0  0  3  0  0  0  0  0  0
  184.7720  172.8900  137.6180 C   0  0  0  0  0  2  0  0  0  0  0  0
  186.0830  172.2780  136.0380 C   0  0  0  0  0  2  0  0  0  0  0  0
  189.4680  177.0070  139.8220 N   0  0  0  0  0  2  0  0  0  0  0  0
  188.6380  178.1730  139.7380 C   0  0  0  0  0  0  0  0  0  0  0  0
  188.9460  179.1470  139.0020 O   0  0  0  0  0  0  0  0  0  0  0  0
  187.4080  178.2460  140.5690 C   0  0  0  0  0  2  0  0  0  0  0  0
  187.7860  178.2740  142.0390 C   0  0  0  0  0  2  0  0  0  0  0  0
  186.6470  177.7330  142.8930 C   0  0  2  0  0  3  0  0  0  0  0  0
  184.3270  178.2400  142.8210 O   0  0  0  0  0  0  0  0  0  0  0  0
  185.4720  178.6650  142.8680 C   0  0  0  0  0  3  0  0  0  0  0  0
  187.1100  177.5180  144.3290 C   0  0  0  0  0  2  0  0  0  0  0  0
  188.5620  177.0650  144.3810 C   0  0  0  0  0  2  0  0  0  0  0  0
  188.9660  177.4390  146.5170 C   0  0  0  0  0  1  0  0  0  0  0  0
  189.2910  177.8900  145.2380 O   0  0  0  0  0  0  0  0  0  0  0  0
  1  9  2  0  0  0  0
  2 10  1  0  0  0  0
  3 11  1  0  0  0  0
  4 11  2  0  0  0  0
  4  1  1  0  0  0  0
  5  2  2  0  0  0  0
  6  9  1  1  0  0  0
  6  2  1  0  0  0  0
  6  7  1  0  0  0  0
  7 12  2  0  0  0  0
 10  8  2  0  0  0  0
 11  5  1  0  0  0  0
 12  8  1  0  0  0  0
 12 23  1  0  0  0  0
 14 16  1  0  0  0  0
 15 14  1  0  0  0  0
 15 17  1  0  0  0  0
 16 13  1  0  0  0  0
 16  7  1  0  0  0  0
 17 18  1  0  0  0  0
 17 13  1  0  0  0  0
 18 20  1  0  0  0  0
 19 21  1  0  0  0  0
 20 21  1  0  0  0  0
 22 19  1  0  0  0  0
 22 20  1  0  0  0  0
 24 23  1  0  0  0  0
 24 26  1  0  0  0  0
 25 24  2  0  0  0  0
 26 27  1  0  0  0  0
 28 27  1  6  0  0  0
 28 31  1  0  0  0  0
 29 30  2  0  0  0  0
 30 28  1  0  0  0  0
 31 32  1  0  0  0  0
 32 34  1  0  0  0  0
 34 33  1  0  0  0  0
M  END
>  <MODEL>
6

>  <REMARK>
 VINA RESULT:      -6.8      3.118      6.508
  Name = 
  11 active torsions:
  status: ('A' for Active; 'I' for Inactive)
    1  A    between atoms: N_2  and  C_34
    2  A    between atoms: C_6  and  C_33
    3  A    between atoms: C_9  and  C_23
    4  A    between atoms: C_13  and  C_27
    5  A    between atoms: C_13  and  C_29
    6  A    between atoms: O_15  and  C_29
    7  A    between atoms: N_18  and  C_21
    8  A    between atoms: C_19  and  C_27
    9  A    between atoms: C_19  and  C_33
   10  A    between atoms: C_23  and  N_32
   11  A    between atoms: C_27  and  C_28
                            x       y       z     vdW  Elec       q    Type
                         _______ _______ _______ _____ _____    ______ ____

>  <TORSDO>
F 11

$$$$
=
 OpenBabel10222418223D

 34 37  0  0  1  0  0  0  0  0999 V2000
  191.9580  174.1280  136.5920 C   0  0  0  0  0  3  0  0  0  0  0  0
  192.9100  176.4660  138.2130 C   0  0  0  0  0  0  0  0  0  0  0  0
  195.2510  175.6350  135.4840 C   0  0  0  0  0  1  0  0  0  0  0  0
  193.1610  174.5420  135.9210 N   0  0  0  0  0  0  0  0  0  0  0  0
  193.9820  176.0620  137.6040 N   0  0  0  0  0  0  0  0  0  0  0  0
  191.5620  176.3660  137.5560 C   0  0  2  0  0  3  0  0  0  0  0  0
  190.4590  177.0880  138.3070 C   0  0  0  0  0  0  0  0  0  0  0  0
  191.9890  177.3960  140.2050 C   0  0  0  0  0  3  0  0  0  0  0  0
  191.2240  174.9260  137.3660 C   0  0  0  0  0  3  0  0  0  0  0  0
  193.0150  176.9450  139.5550 N   0  0  0  0  0  0  0  0  0  0  0  0
  194.0330  175.4320  136.3120 C   0  0  0  0  0  0  0  0  0  0  0  0
  190.6480  177.4870  139.5890 C   0  0  0  0  0  0  0  0  0  0  0  0
  188.0070  176.5560  137.8610 C   0  0  0  0  0  2  0  0  0  0  0  0
  189.0680  178.1370  136.4330 C   0  0  0  0  0  2  0  0  0  0  0  0
  187.6290  177.9530  136.0120 C   0  0  0  0  0  2  0  0  0  0  0  0
  189.2080  177.3300  137.6230 N   0  0  0  0  0  0  0  0  0  0  0  0
  187.0660  176.8440  136.7820 N   0  0  0  0  0  0  0  0  0  0  0  0
  185.8430  177.3250  137.4070 C   0  0  0  0  0  2  0  0  0  0  0  0
  182.7010  177.4460  136.9100 C   0  0  0  0  0  2  0  0  0  0  0  0
  184.6480  176.5360  136.8900 C   0  0  0  0  0  3  0  0  0  0  0  0
  183.5030  176.6050  137.8850 C   0  0  0  0  0  2  0  0  0  0  0  0
  183.8500  177.3860  135.9200 C   0  0  0  0  0  2  0  0  0  0  0  0
  189.5500  178.0210  140.3460 N   0  0  0  0  0  2  0  0  0  0  0  0
  189.0020  177.5040  141.5660 C   0  0  0  0  0  0  0  0  0  0  0  0
  189.4500  176.4530  142.0940 O   0  0  0  0  0  0  0  0  0  0  0  0
  187.8550  178.2070  142.1990 C   0  0  0  0  0  2  0  0  0  0  0  0
  186.8950  178.6850  141.1250 C   0  0  0  0  0  2  0  0  0  0  0  0
  185.4690  178.2630  141.4580 C   0  0  2  0  0  3  0  0  0  0  0  0
  184.6440  179.7460  139.7960 O   0  0  0  0  0  0  0  0  0  0  0  0
  184.4800  179.2400  140.8970 C   0  0  0  0  0  3  0  0  0  0  0  0
  185.2850  178.1440  142.9670 C   0  0  0  0  0  2  0  0  0  0  0  0
  184.4710  179.3060  143.5180 C   0  0  0  0  0  2  0  0  0  0  0  0
  184.6790  178.9140  145.6800 C   0  0  0  0  0  1  0  0  0  0  0  0
  183.7490  178.8950  144.6410 O   0  0  0  0  0  0  0  0  0  0  0  0
  1  9  2  0  0  0  0
  2 10  1  0  0  0  0
  3 11  1  0  0  0  0
  4 11  2  0  0  0  0
  4  1  1  0  0  0  0
  5  2  2  0  0  0  0
  6  9  1  1  0  0  0
  6  2  1  0  0  0  0
  6  7  1  0  0  0  0
  7 12  2  0  0  0  0
 10  8  2  0  0  0  0
 11  5  1  0  0  0  0
 12  8  1  0  0  0  0
 12 23  1  0  0  0  0
 14 16  1  0  0  0  0
 15 14  1  0  0  0  0
 15 17  1  0  0  0  0
 16 13  1  0  0  0  0
 16  7  1  0  0  0  0
 17 18  1  0  0  0  0
 17 13  1  0  0  0  0
 19 21  1  0  0  0  0
 20 18  1  0  0  0  0
 20 21  1  0  0  0  0
 22 20  1  0  0  0  0
 22 19  1  0  0  0  0
 23 24  1  0  0  0  0
 24 25  2  0  0  0  0
 24 26  1  0  0  0  0
 27 28  1  0  0  0  0
 27 26  1  0  0  0  0
 28 30  1  1  0  0  0
 28 31  1  0  0  0  0
 29 30  2  0  0  0  0
 31 32  1  0  0  0  0
 32 34  1  0  0  0  0
 34 33  1  0  0  0  0
M  END
>  <MODEL>
7

>  <REMARK>
 VINA RESULT:      -6.5      2.458      5.894
  Name = 
  11 active torsions:
  status: ('A' for Active; 'I' for Inactive)
    1  A    between atoms: N_2  and  C_34
    2  A    between atoms: C_6  and  C_33
    3  A    between atoms: C_9  and  C_23
    4  A    between atoms: C_13  and  C_27
    5  A    between atoms: C_13  and  C_29
    6  A    between atoms: O_15  and  C_29
    7  A    between atoms: N_18  and  C_21
    8  A    between atoms: C_19  and  C_27
    9  A    between atoms: C_19  and  C_33
   10  A    between atoms: C_23  and  N_32
   11  A    between atoms: C_27  and  C_28
                            x       y       z     vdW  Elec       q    Type
                         _______ _______ _______ _____ _____    ______ ____

>  <TORSDO>
F 11

$$$$
=
 OpenBabel10222418223D

 34 37  0  0  1  0  0  0  0  0999 V2000
  193.4150  176.6780  137.6550 C   0  0  0  0  0  3  0  0  0  0  0  0
  191.3630  174.5380  137.1930 C   0  0  0  0  0  0  0  0  0  0  0  0
  194.6950  173.1230  137.9100 C   0  0  0  0  0  1  0  0  0  0  0  0
  194.1380  175.4560  137.8840 N   0  0  0  0  0  0  0  0  0  0  0  0
  192.4910  173.9210  137.0200 N   0  0  0  0  0  0  0  0  0  0  0  0
  191.2370  175.6500  138.1960 C   0  0  2  0  0  3  0  0  0  0  0  0
  189.8070  176.1020  138.4310 C   0  0  0  0  0  0  0  0  0  0  0  0
  189.0900  174.7500  136.5100 C   0  0  0  0  0  3  0  0  0  0  0  0
  192.0920  176.7910  137.7610 C   0  0  0  0  0  3  0  0  0  0  0  0
  190.2520  174.1960  136.3640 N   0  0  0  0  0  0  0  0  0  0  0  0
  193.7340  174.2320  137.6720 C   0  0  0  0  0  0  0  0  0  0  0  0
  188.8220  175.7420  137.5730 C   0  0  0  0  0  0  0  0  0  0  0  0
  189.4110  176.4040  140.9310 C   0  0  0  0  0  2  0  0  0  0  0  0
  189.0470  178.2880  139.5230 C   0  0  0  0  0  2  0  0  0  0  0  0
  188.7590  178.6600  140.9590 C   0  0  0  0  0  2  0  0  0  0  0  0
  189.5310  176.9280  139.5860 N   0  0  0  0  0  0  0  0  0  0  0  0
  188.8070  177.4390  141.7650 N   0  0  0  0  0  0  0  0  0  0  0  0
  189.7250  177.6830  142.8670 C   0  0  0  0  0  2  0  0  0  0  0  0
  187.8370  177.8220  145.4260 C   0  0  0  0  0  2  0  0  0  0  0  0
  189.2710  176.9200  144.1030 C   0  0  0  0  0  3  0  0  0  0  0  0
  189.3510  177.8110  145.3300 C   0  0  0  0  0  2  0  0  0  0  0  0
  187.7570  176.9400  144.1930 C   0  0  0  0  0  2  0  0  0  0  0  0
  187.5070  176.3050  137.7090 N   0  0  0  0  0  2  0  0  0  0  0  0
  186.9270  177.3580  136.9270 C   0  0  0  0  0  0  0  0  0  0  0  0
  187.5770  177.9340  136.0160 O   0  0  0  0  0  0  0  0  0  0  0  0
  185.5410  177.8020  137.2280 C   0  0  0  0  0  2  0  0  0  0  0  0
  185.4510  178.2490  138.6760 C   0  0  0  0  0  2  0  0  0  0  0  0
  184.0220  178.1210  139.1860 C   0  0  2  0  0  3  0  0  0  0  0  0
  182.4170  179.6570  138.3440 O   0  0  0  0  0  0  0  0  0  0  0  0
  183.0450  178.6230  138.1650 C   0  0  0  0  0  3  0  0  0  0  0  0
  183.8490  178.8860  140.4930 C   0  0  0  0  0  2  0  0  0  0  0  0
  184.9630  178.5600  141.4770 C   0  0  0  0  0  2  0  0  0  0  0  0
  184.9020  179.4510  143.4950 C   0  0  0  0  0  1  0  0  0  0  0  0
  185.3240  179.7050  142.1900 O   0  0  0  0  0  0  0  0  0  0  0  0
  1  9  2  0  0  0  0
  1  4  1  0  0  0  0
  2  6  1  0  0  0  0
  5  2  2  0  0  0  0
  5 11  1  0  0  0  0
  6  9  1  6  0  0  0
  6  7  1  0  0  0  0
  7 16  1  0  0  0  0
  8 12  1  0  0  0  0
 10  8  2  0  0  0  0
 10  2  1  0  0  0  0
 11  4  2  0  0  0  0
 11  3  1  0  0  0  0
 12 23  1  0  0  0  0
 12  7  2  0  0  0  0
 13 17  1  0  0  0  0
 14 16  1  0  0  0  0
 14 15  1  0  0  0  0
 15 17  1  0  0  0  0
 16 13  1  0  0  0  0
 17 18  1  0  0  0  0
 18 20  1  0  0  0  0
 20 22  1  0  0  0  0
 20 21  1  0  0  0  0
 21 19  1  0  0  0  0
 22 19  1  0  0  0  0
 24 26  1  0  0  0  0
 24 23  1  0  0  0  0
 25 24  2  0  0  0  0
 26 27  1  0  0  0  0
 27 28  1  0  0  0  0
 28 30  1  6  0  0  0
 28 31  1  0  0  0  0
 30 29  2  0  0  0  0
 31 32  1  0  0  0  0
 32 34  1  0  0  0  0
 34 33  1  0  0  0  0
M  END
>  <MODEL>
8

>  <REMARK>
 VINA RESULT:      -6.4      2.087      3.800
  Name = 
  11 active torsions:
  status: ('A' for Active; 'I' for Inactive)
    1  A    between atoms: N_2  and  C_34
    2  A    between atoms: C_6  and  C_33
    3  A    between atoms: C_9  and  C_23
    4  A    between atoms: C_13  and  C_27
    5  A    between atoms: C_13  and  C_29
    6  A    between atoms: O_15  and  C_29
    7  A    between atoms: N_18  and  C_21
    8  A    between atoms: C_19  and  C_27
    9  A    between atoms: C_19  and  C_33
   10  A    between atoms: C_23  and  N_32
   11  A    between atoms: C_27  and  C_28
                            x       y       z     vdW  Elec       q    Type
                         _______ _______ _______ _____ _____    ______ ____

>  <TORSDO>
F 11

$$$$
=
 OpenBabel10222418223D

 34 37  0  0  1  0  0  0  0  0999 V2000
  189.6010  175.8360  142.9450 C   0  0  0  0  0  3  0  0  0  0  0  0
  188.3460  177.8920  144.7350 C   0  0  0  0  0  0  0  0  0  0  0  0
  192.0320  178.0530  144.8220 C   0  0  0  0  0  1  0  0  0  0  0  0
  190.7240  176.5720  143.4620 N   0  0  0  0  0  0  0  0  0  0  0  0
  189.5630  177.8050  145.1780 N   0  0  0  0  0  0  0  0  0  0  0  0
  188.0420  177.7220  143.2730 C   0  0  2  0  0  3  0  0  0  0  0  0
  186.6150  178.0790  142.8990 C   0  0  0  0  0  0  0  0  0  0  0  0
  186.0500  178.2110  145.2860 C   0  0  0  0  0  3  0  0  0  0  0  0
  188.3630  176.3210  142.8740 C   0  0  0  0  0  3  0  0  0  0  0  0
  187.2810  178.0810  145.6670 N   0  0  0  0  0  0  0  0  0  0  0  0
  190.7260  177.4840  144.3960 C   0  0  0  0  0  0  0  0  0  0  0  0
  185.6670  178.2170  143.8580 C   0  0  0  0  0  0  0  0  0  0  0  0
  187.2950  178.2560  140.4490 C   0  0  0  0  0  2  0  0  0  0  0  0
  185.0360  178.7590  141.0040 C   0  0  0  0  0  2  0  0  0  0  0  0
  185.2450  178.9220  139.5160 C   0  0  0  0  0  2  0  0  0  0  0  0
  186.2970  178.2600  141.5000 N   0  0  0  0  0  0  0  0  0  0  0  0
  186.6760  178.7930  139.2410 N   0  0  0  0  0  0  0  0  0  0  0  0
  186.8290  177.7830  138.2040 C   0  0  0  0  0  2  0  0  0  0  0  0
  189.1300  177.8850  136.0060 C   0  0  0  0  0  2  0  0  0  0  0  0
  187.2530  178.4370  136.8960 C   0  0  0  0  0  3  0  0  0  0  0  0
  188.6820  178.9410  137.0000 C   0  0  0  0  0  2  0  0  0  0  0  0
  187.7040  177.3750  135.9120 C   0  0  0  0  0  2  0  0  0  0  0  0
  184.2890  178.3930  143.4900 N   0  0  0  0  0  2  0  0  0  0  0  0
  183.2320  178.9200  144.3010 C   0  0  0  0  0  0  0  0  0  0  0  0
  183.4320  179.2690  145.4940 O   0  0  0  0  0  0  0  0  0  0  0  0
  181.8630  179.0200  143.7310 C   0  0  0  0  0  2  0  0  0  0  0  0
  181.8910  178.6220  142.2660 C   0  0  0  0  0  2  0  0  0  0  0  0
  180.6470  179.1330  141.5510 C   0  0  2  0  0  3  0  0  0  0  0  0
  179.5780  181.1880  142.0760 O   0  0  0  0  0  0  0  0  0  0  0  0
  179.8650  180.0560  142.4370 C   0  0  0  0  0  3  0  0  0  0  0  0
  179.7680  177.9690  141.1070 C   0  0  0  0  0  2  0  0  0  0  0  0
  180.1950  177.4430  139.7440 C   0  0  0  0  0  2  0  0  0  0  0  0
  181.9730  176.1640  139.4750 C   0  0  0  0  0  1  0  0  0  0  0  0
  180.6320  176.1210  139.8560 O   0  0  0  0  0  0  0  0  0  0  0  0
  1  4  1  0  0  0  0
  2  5  2  0  0  0  0
  2 10  1  0  0  0  0
  4 11  2  0  0  0  0
  6  9  1  1  0  0  0
  6  2  1  0  0  0  0
  7  6  1  0  0  0  0
  7 12  2  0  0  0  0
  8 10  2  0  0  0  0
  9  1  2  0  0  0  0
 11  3  1  0  0  0  0
 11  5  1  0  0  0  0
 12  8  1  0  0  0  0
 13 16  1  0  0  0  0
 14 16  1  0  0  0  0
 15 14  1  0  0  0  0
 16  7  1  0  0  0  0
 17 15  1  0  0  0  0
 17 13  1  0  0  0  0
 18 17  1  0  0  0  0
 19 21  1  0  0  0  0
 20 21  1  0  0  0  0
 20 18  1  0  0  0  0
 22 19  1  0  0  0  0
 22 20  1  0  0  0  0
 23 12  1  0  0  0  0
 23 24  1  0  0  0  0
 24 25  2  0  0  0  0
 26 24  1  0  0  0  0
 27 26  1  0  0  0  0
 28 31  1  1  0  0  0
 28 27  1  0  0  0  0
 28 30  1  0  0  0  0
 29 30  2  0  0  0  0
 32 34  1  0  0  0  0
 32 31  1  0  0  0  0
 33 34  1  0  0  0  0
M  END
>  <MODEL>
9

>  <REMARK>
 VINA RESULT:      -6.4      2.887      6.505
  Name = 
  11 active torsions:
  status: ('A' for Active; 'I' for Inactive)
    1  A    between atoms: N_2  and  C_34
    2  A    between atoms: C_6  and  C_33
    3  A    between atoms: C_9  and  C_23
    4  A    between atoms: C_13  and  C_27
    5  A    between atoms: C_13  and  C_29
    6  A    between atoms: O_15  and  C_29
    7  A    between atoms: N_18  and  C_21
    8  A    between atoms: C_19  and  C_27
    9  A    between atoms: C_19  and  C_33
   10  A    between atoms: C_23  and  N_32
   11  A    between atoms: C_27  and  C_28
                            x       y       z     vdW  Elec       q    Type
                         _______ _______ _______ _____ _____    ______ ____

>  <TORSDO>
F 11

$$$$
