=
 OpenBabel10222415263D

 31 34  0  0  0  0  0  0  0  0999 V2000
  186.3500  178.8720  142.7950 C   0  0  0  0  0  3  0  0  0  0  0  0
  180.3030  179.8110  142.1980 O   0  0  0  0  0  0  0  0  0  0  0  0
  182.8680  178.8610  144.3690 C   0  0  0  0  0  0  0  0  0  0  0  0
  186.0540  178.8240  141.4320 C   0  0  0  0  0  0  0  0  0  0  0  0
  181.4400  178.7190  143.9450 C   0  0  0  0  0  2  0  0  0  0  0  0
  183.9840  178.8300  143.3710 C   0  0  0  0  0  0  0  0  0  0  0  0
  185.3470  178.8770  143.7610 C   0  0  0  0  0  0  0  0  0  0  0  0
  182.2450  178.6780  141.5030 C   0  0  0  0  0  2  0  0  0  0  0  0
  184.7110  178.7860  141.0240 C   0  0  0  0  0  0  0  0  0  0  0  0
  181.2700  179.1460  142.5290 C   0  0  0  0  0  0  0  0  0  0  0  0
  183.0970  178.9870  145.6010 O   0  0  0  0  0  0  0  0  0  0  0  0
  183.6740  178.7850  141.9830 C   0  0  0  0  0  0  0  0  0  0  0  0
  184.3910  178.7070  139.5600 C   0  0  0  0  0  2  0  0  0  0  0  0
  184.3600  179.9910  139.0160 O   0  0  0  0  0  1  0  0  0  0  0  0
  187.0970  178.8240  140.4390 N   0  0  0  0  0  2  0  0  0  0  0  0
  189.1790  178.2160  139.3300 C   0  0  0  0  0  3  0  0  0  0  0  0
  190.3950  177.5260  139.2860 C   0  0  0  0  0  3  0  0  0  0  0  0
  190.7780  176.7160  140.3590 C   0  0  0  0  0  3  0  0  0  0  0  0
  188.7300  177.2860  141.5150 C   0  0  0  0  0  3  0  0  0  0  0  0
  189.9450  176.5960  141.4740 C   0  0  0  0  0  0  0  0  0  0  0  0
  190.3120  175.8110  142.5140 F   0  0  0  0  0  0  0  0  0  0  0  0
  188.3400  178.1050  140.4430 C   0  0  0  0  0  0  0  0  0  0  0  0
  185.7890  178.8950  145.1890 C   0  0  0  0  0  2  0  0  0  0  0  0
  186.0950  177.4850  145.6580 C   0  0  0  0  0  2  0  0  0  0  0  0
  187.5590  177.2450  145.5760 C   0  0  0  0  0  3  0  0  0  0  0  0
  188.3090  177.3480  146.6630 C   0  0  0  0  0  3  0  0  0  0  0  0
  190.4990  176.9890  145.4620 C   0  0  0  0  0  3  0  0  0  0  0  0
  191.7830  176.7850  145.9440 C   0  0  0  0  0  3  0  0  0  0  0  0
  191.7590  176.7980  147.2930 N   0  0  0  0  0  0  0  0  0  0  0  0
  190.5300  176.9980  147.6590 O   0  0  0  0  0  0  0  0  0  0  0  0
  189.7530  177.1160  146.6130 C   0  0  0  0  0  0  0  0  0  0  0  0
  1  7  1  0  0  0  0
  2 10  2  0  0  0  0
  3 11  2  0  0  0  0
  4  1  2  0  0  0  0
  5  3  1  0  0  0  0
  6  7  2  0  0  0  0
  6  3  1  0  0  0  0
  7 23  1  0  0  0  0
  8 12  1  0  0  0  0
  8 10  1  0  0  0  0
  9  4  1  0  0  0  0
  9 12  2  0  0  0  0
 10  5  1  0  0  0  0
 12  6  1  0  0  0  0
 13  9  1  0  0  0  0
 14 13  1  0  0  0  0
 15 22  1  0  0  0  0
 15  4  1  0  0  0  0
 16 22  1  0  0  0  0
 17 16  2  0  0  0  0
 17 18  1  0  0  0  0
 18 20  2  0  0  0  0
 20 19  1  0  0  0  0
 20 21  1  0  0  0  0
 22 19  2  0  0  0  0
 23 24  1  0  0  0  0
 25 24  1  0  0  0  0
 25 26  2  0  0  0  0
 27 28  1  0  0  0  0
 27 31  2  0  0  0  0
 28 29  2  0  0  0  0
 29 30  1  0  0  0  0
 31 26  1  0  0  0  0
 31 30  1  0  0  0  0
M  END
>  <MODEL>
1

>  <REMARK>
 VINA RESULT:      -9.9      0.000      0.000
  Name = 
  7 active torsions:
  status: ('A' for Active; 'I' for Inactive)
    1  A    between atoms: N_4  and  C_8
    2  A    between atoms: N_4  and  C_30
    3  A    between atoms: C_12  and  C_20
    4  A    between atoms: C_12  and  C_28
    5  A    between atoms: C_14  and  C_28
    6  A    between atoms: C_16  and  C_22
    7  A    between atoms: C_19  and  C_24
                            x       y       z     vdW  Elec       q    Type
                         _______ _______ _______ _____ _____    ______ ____

>  <TORSDO>
F 7

$$$$
=
 OpenBabel10222415263D

 31 34  0  0  0  0  0  0  0  0999 V2000
  187.4630  177.7990  143.9070 C   0  0  0  0  0  3  0  0  0  0  0  0
  181.3430  178.3860  144.0210 O   0  0  0  0  0  0  0  0  0  0  0  0
  184.2280  178.6830  142.0750 C   0  0  0  0  0  0  0  0  0  0  0  0
  187.0800  177.9100  145.2450 C   0  0  0  0  0  0  0  0  0  0  0  0
  182.8500  179.1730  142.3940 C   0  0  0  0  0  2  0  0  0  0  0  0
  185.2330  178.4310  143.1560 C   0  0  0  0  0  0  0  0  0  0  0  0
  186.5690  178.0490  142.8680 C   0  0  0  0  0  0  0  0  0  0  0  0
  183.4440  178.9970  144.8900 C   0  0  0  0  0  2  0  0  0  0  0  0
  185.7600  178.2780  145.5500 C   0  0  0  0  0  0  0  0  0  0  0  0
  182.4670  178.7930  143.7810 C   0  0  0  0  0  0  0  0  0  0  0  0
  184.5160  178.5120  140.8620 O   0  0  0  0  0  0  0  0  0  0  0  0
  184.8350  178.5420  144.5160 C   0  0  0  0  0  0  0  0  0  0  0  0
  185.3540  178.4240  146.9880 C   0  0  0  0  0  2  0  0  0  0  0  0
  185.6620  179.7080  147.4360 O   0  0  0  0  0  1  0  0  0  0  0  0
  188.0080  177.6440  146.3130 N   0  0  0  0  0  2  0  0  0  0  0  0
  190.0120  176.8020  147.4150 C   0  0  0  0  0  3  0  0  0  0  0  0
  191.3280  176.3310  147.3830 C   0  0  0  0  0  3  0  0  0  0  0  0
  191.9980  176.2100  146.1630 C   0  0  0  0  0  3  0  0  0  0  0  0
  190.0370  177.0350  145.0090 C   0  0  0  0  0  3  0  0  0  0  0  0
  191.3520  176.5630  144.9750 C   0  0  0  0  0  0  0  0  0  0  0  0
  191.9990  176.4490  143.7910 F   0  0  0  0  0  0  0  0  0  0  0  0
  189.3560  177.1550  146.2300 C   0  0  0  0  0  0  0  0  0  0  0  0
  187.1060  177.9300  141.4780 C   0  0  0  0  0  2  0  0  0  0  0  0
  188.5890  178.2500  141.4620 C   0  0  0  0  0  2  0  0  0  0  0  0
  189.3130  177.1960  140.7060 C   0  0  0  0  0  3  0  0  0  0  0  0
  190.1010  177.5300  139.6950 C   0  0  0  0  0  3  0  0  0  0  0  0
  192.1320  176.6230  138.5030 C   0  0  0  0  0  3  0  0  0  0  0  0
  192.3430  175.4230  137.8410 C   0  0  0  0  0  3  0  0  0  0  0  0
  191.2180  174.6810  137.8950 N   0  0  0  0  0  0  0  0  0  0  0  0
  190.3320  175.3640  138.5550 O   0  0  0  0  0  0  0  0  0  0  0  0
  190.8270  176.5140  138.9320 C   0  0  0  0  0  0  0  0  0  0  0  0
  1  4  1  0  0  0  0
  3  5  1  0  0  0  0
  3  6  1  0  0  0  0
  4  9  2  0  0  0  0
  4 15  1  0  0  0  0
  5 10  1  0  0  0  0
  6 12  2  0  0  0  0
  7  6  1  0  0  0  0
  7  1  2  0  0  0  0
  9 13  1  0  0  0  0
 10  2  2  0  0  0  0
 10  8  1  0  0  0  0
 11  3  2  0  0  0  0
 12  8  1  0  0  0  0
 12  9  1  0  0  0  0
 13 14  1  0  0  0  0
 17 16  1  0  0  0  0
 18 17  2  0  0  0  0
 19 22  1  0  0  0  0
 20 19  2  0  0  0  0
 20 18  1  0  0  0  0
 21 20  1  0  0  0  0
 22 15  1  0  0  0  0
 22 16  2  0  0  0  0
 23  7  1  0  0  0  0
 24 23  1  0  0  0  0
 25 24  1  0  0  0  0
 26 25  2  0  0  0  0
 27 31  2  0  0  0  0
 28 29  2  0  0  0  0
 28 27  1  0  0  0  0
 29 30  1  0  0  0  0
 30 31  1  0  0  0  0
 31 26  1  0  0  0  0
M  END
>  <MODEL>
2

>  <REMARK>
 VINA RESULT:      -9.7      2.401      5.670
  Name = 
  7 active torsions:
  status: ('A' for Active; 'I' for Inactive)
    1  A    between atoms: N_4  and  C_8
    2  A    between atoms: N_4  and  C_30
    3  A    between atoms: C_12  and  C_20
    4  A    between atoms: C_12  and  C_28
    5  A    between atoms: C_14  and  C_28
    6  A    between atoms: C_16  and  C_22
    7  A    between atoms: C_19  and  C_24
                            x       y       z     vdW  Elec       q    Type
                         _______ _______ _______ _____ _____    ______ ____

>  <TORSDO>
F 7

$$$$
=
 OpenBabel10222415263D

 31 34  0  0  0  0  0  0  0  0999 V2000
  187.0380  177.4590  143.3670 C   0  0  0  0  0  3  0  0  0  0  0  0
  189.6810  178.4240  148.8340 O   0  0  0  0  0  0  0  0  0  0  0  0
  189.9700  176.8360  145.7380 C   0  0  0  0  0  0  0  0  0  0  0  0
  186.0370  177.8790  144.2450 C   0  0  0  0  0  0  0  0  0  0  0  0
  190.2460  176.8200  147.2080 C   0  0  0  0  0  2  0  0  0  0  0  0
  188.6120  177.1730  145.2050 C   0  0  0  0  0  0  0  0  0  0  0  0
  188.3080  177.1110  143.8200 C   0  0  0  0  0  0  0  0  0  0  0  0
  187.8390  177.6400  147.5960 C   0  0  0  0  0  2  0  0  0  0  0  0
  186.3200  177.9560  145.6180 C   0  0  0  0  0  0  0  0  0  0  0  0
  189.2910  177.7060  147.9300 C   0  0  0  0  0  0  0  0  0  0  0  0
  190.9180  176.5340  144.9660 O   0  0  0  0  0  0  0  0  0  0  0  0
  187.5980  177.6040  146.1050 C   0  0  0  0  0  0  0  0  0  0  0  0
  185.2370  178.3810  146.5670 C   0  0  0  0  0  2  0  0  0  0  0  0
  185.4710  179.6880  146.9930 O   0  0  0  0  0  1  0  0  0  0  0  0
  184.7280  178.2420  143.7690 N   0  0  0  0  0  2  0  0  0  0  0  0
  185.2700  178.8390  141.4690 C   0  0  0  0  0  3  0  0  0  0  0  0
  184.9010  179.1090  140.1480 C   0  0  0  0  0  3  0  0  0  0  0  0
  183.5560  179.0440  139.7710 C   0  0  0  0  0  3  0  0  0  0  0  0
  182.9540  178.4430  142.0360 C   0  0  0  0  0  3  0  0  0  0  0  0
  182.5830  178.7110  140.7160 C   0  0  0  0  0  0  0  0  0  0  0  0
  181.2790  178.6500  140.3550 F   0  0  0  0  0  0  0  0  0  0  0  0
  184.3030  178.5010  142.4220 C   0  0  0  0  0  0  0  0  0  0  0  0
  189.2840  176.6440  142.7880 C   0  0  0  0  0  2  0  0  0  0  0  0
  189.6920  177.8010  141.8950 C   0  0  0  0  0  2  0  0  0  0  0  0
  189.2960  177.5060  140.4940 C   0  0  0  0  0  3  0  0  0  0  0  0
  188.5290  178.3580  139.8290 C   0  0  0  0  0  3  0  0  0  0  0  0
  187.9650  176.8440  137.8900 C   0  0  0  0  0  3  0  0  0  0  0  0
  187.5820  177.1310  136.5890 C   0  0  0  0  0  3  0  0  0  0  0  0
  187.5290  178.4680  136.4240 N   0  0  0  0  0  0  0  0  0  0  0  0
  187.8590  179.0130  137.5550 O   0  0  0  0  0  0  0  0  0  0  0  0
  188.1240  178.0940  138.4470 C   0  0  0  0  0  0  0  0  0  0  0  0
  1  7  2  0  0  0  0
  1  4  1  0  0  0  0
  3  5  1  0  0  0  0
  4  9  2  0  0  0  0
  5 10  1  0  0  0  0
  6  3  1  0  0  0  0
  6 12  2  0  0  0  0
  7  6  1  0  0  0  0
  8 10  1  0  0  0  0
  9 12  1  0  0  0  0
  9 13  1  0  0  0  0
 10  2  2  0  0  0  0
 11  3  2  0  0  0  0
 12  8  1  0  0  0  0
 13 14  1  0  0  0  0
 15  4  1  0  0  0  0
 16 22  1  0  0  0  0
 17 16  2  0  0  0  0
 18 17  1  0  0  0  0
 18 20  2  0  0  0  0
 19 22  2  0  0  0  0
 20 19  1  0  0  0  0
 21 20  1  0  0  0  0
 22 15  1  0  0  0  0
 23  7  1  0  0  0  0
 24 23  1  0  0  0  0
 25 24  1  0  0  0  0
 26 25  2  0  0  0  0
 27 31  2  0  0  0  0
 28 27  1  0  0  0  0
 29 28  2  0  0  0  0
 29 30  1  0  0  0  0
 30 31  1  0  0  0  0
 31 26  1  0  0  0  0
M  END
>  <MODEL>
3

>  <REMARK>
 VINA RESULT:      -9.6      3.075      7.394
  Name = 
  7 active torsions:
  status: ('A' for Active; 'I' for Inactive)
    1  A    between atoms: N_4  and  C_8
    2  A    between atoms: N_4  and  C_30
    3  A    between atoms: C_12  and  C_20
    4  A    between atoms: C_12  and  C_28
    5  A    between atoms: C_14  and  C_28
    6  A    between atoms: C_16  and  C_22
    7  A    between atoms: C_19  and  C_24
                            x       y       z     vdW  Elec       q    Type
                         _______ _______ _______ _____ _____    ______ ____

>  <TORSDO>
F 7

$$$$
=
 OpenBabel10222415263D

 31 34  0  0  0  0  0  0  0  0999 V2000
  186.9370  177.5400  143.4160 C   0  0  0  0  0  3  0  0  0  0  0  0
  189.7570  178.3650  148.8170 O   0  0  0  0  0  0  0  0  0  0  0  0
  189.9360  176.8420  145.6800 C   0  0  0  0  0  0  0  0  0  0  0  0
  185.9690  177.9480  144.3330 C   0  0  0  0  0  0  0  0  0  0  0  0
  190.2570  176.7920  147.1410 C   0  0  0  0  0  2  0  0  0  0  0  0
  188.5650  177.2020  145.1970 C   0  0  0  0  0  0  0  0  0  0  0  0
  188.2190  177.1720  143.8210 C   0  0  0  0  0  0  0  0  0  0  0  0
  187.8710  177.6220  147.6200 C   0  0  0  0  0  2  0  0  0  0  0  0
  186.2940  177.9930  145.6980 C   0  0  0  0  0  0  0  0  0  0  0  0
  189.3340  177.6690  147.9100 C   0  0  0  0  0  0  0  0  0  0  0  0
  190.8570  176.5490  144.8730 O   0  0  0  0  0  0  0  0  0  0  0  0
  187.5840  177.6200  146.1370 C   0  0  0  0  0  0  0  0  0  0  0  0
  185.2450  178.4060  146.6890 C   0  0  0  0  0  2  0  0  0  0  0  0
  185.5120  179.6970  147.1460 O   0  0  0  0  0  1  0  0  0  0  0  0
  184.6480  178.3320  143.9060 N   0  0  0  0  0  2  0  0  0  0  0  0
  182.7780  178.5660  142.3620 C   0  0  0  0  0  3  0  0  0  0  0  0
  182.2580  178.7510  141.0770 C   0  0  0  0  0  3  0  0  0  0  0  0
  183.1220  178.9030  139.9890 C   0  0  0  0  0  3  0  0  0  0  0  0
  185.0220  178.6840  141.4710 C   0  0  0  0  0  3  0  0  0  0  0  0
  184.5040  178.8690  140.1860 C   0  0  0  0  0  0  0  0  0  0  0  0
  185.3440  179.0140  139.1340 F   0  0  0  0  0  0  0  0  0  0  0  0
  184.1610  178.5350  142.5700 C   0  0  0  0  0  0  0  0  0  0  0  0
  189.1580  176.7200  142.7500 C   0  0  0  0  0  2  0  0  0  0  0  0
  189.5930  177.9020  141.9050 C   0  0  0  0  0  2  0  0  0  0  0  0
  189.4040  177.5780  140.4680 C   0  0  0  0  0  3  0  0  0  0  0  0
  188.5780  178.3050  139.7280 C   0  0  0  0  0  3  0  0  0  0  0  0
  188.8930  178.7370  137.2620 C   0  0  0  0  0  3  0  0  0  0  0  0
  188.4160  178.0630  136.1480 C   0  0  0  0  0  3  0  0  0  0  0  0
  187.6670  177.0140  136.5480 N   0  0  0  0  0  0  0  0  0  0  0  0
  187.6630  177.0130  137.8470 O   0  0  0  0  0  0  0  0  0  0  0  0
  188.3720  178.0090  138.3100 C   0  0  0  0  0  0  0  0  0  0  0  0
  1  7  2  0  0  0  0
  1  4  1  0  0  0  0
  3  5  1  0  0  0  0
  4  9  2  0  0  0  0
  5 10  1  0  0  0  0
  6  3  1  0  0  0  0
  6 12  2  0  0  0  0
  7  6  1  0  0  0  0
  8 10  1  0  0  0  0
  9 12  1  0  0  0  0
  9 13  1  0  0  0  0
 10  2  2  0  0  0  0
 11  3  2  0  0  0  0
 12  8  1  0  0  0  0
 13 14  1  0  0  0  0
 15  4  1  0  0  0  0
 16 22  1  0  0  0  0
 17 16  2  0  0  0  0
 18 20  2  0  0  0  0
 18 17  1  0  0  0  0
 19 22  2  0  0  0  0
 20 19  1  0  0  0  0
 21 20  1  0  0  0  0
 22 15  1  0  0  0  0
 23  7  1  0  0  0  0
 24 23  1  0  0  0  0
 25 24  1  0  0  0  0
 26 25  2  0  0  0  0
 27 31  2  0  0  0  0
 28 29  2  0  0  0  0
 28 27  1  0  0  0  0
 29 30  1  0  0  0  0
 30 31  1  0  0  0  0
 31 26  1  0  0  0  0
M  END
>  <MODEL>
4

>  <REMARK>
 VINA RESULT:      -9.5      2.839      7.372
  Name = 
  7 active torsions:
  status: ('A' for Active; 'I' for Inactive)
    1  A    between atoms: N_4  and  C_8
    2  A    between atoms: N_4  and  C_30
    3  A    between atoms: C_12  and  C_20
    4  A    between atoms: C_12  and  C_28
    5  A    between atoms: C_14  and  C_28
    6  A    between atoms: C_16  and  C_22
    7  A    between atoms: C_19  and  C_24
                            x       y       z     vdW  Elec       q    Type
                         _______ _______ _______ _____ _____    ______ ____

>  <TORSDO>
F 7

$$$$
=
 OpenBabel10222415263D

 31 34  0  0  0  0  0  0  0  0999 V2000
  187.0340  177.9870  143.6210 C   0  0  0  0  0  3  0  0  0  0  0  0
  191.7530  175.9480  146.9940 O   0  0  0  0  0  0  0  0  0  0  0  0
  188.5560  177.3490  147.0680 C   0  0  0  0  0  0  0  0  0  0  0  0
  188.1620  177.9830  142.7990 C   0  0  0  0  0  0  0  0  0  0  0  0
  189.9070  177.2260  147.6980 C   0  0  0  0  0  2  0  0  0  0  0  0
  188.4000  177.5890  145.5980 C   0  0  0  0  0  0  0  0  0  0  0  0
  187.1320  177.7940  144.9970 C   0  0  0  0  0  0  0  0  0  0  0  0
  190.9390  177.4220  145.3500 C   0  0  0  0  0  2  0  0  0  0  0  0
  189.4260  177.7740  143.3730 C   0  0  0  0  0  0  0  0  0  0  0  0
  190.9130  176.7790  146.6960 C   0  0  0  0  0  0  0  0  0  0  0  0
  187.5530  177.2650  147.8250 O   0  0  0  0  0  0  0  0  0  0  0  0
  189.5540  177.5800  144.7670 C   0  0  0  0  0  0  0  0  0  0  0  0
  190.6430  177.7950  142.4950 C   0  0  0  0  0  2  0  0  0  0  0  0
  190.8340  176.5370  141.9240 O   0  0  0  0  0  1  0  0  0  0  0  0
  188.0520  178.1780  141.3770 N   0  0  0  0  0  2  0  0  0  0  0  0
  185.7560  178.9810  141.2390 C   0  0  0  0  0  3  0  0  0  0  0  0
  184.5870  179.2490  140.5190 C   0  0  0  0  0  3  0  0  0  0  0  0
  184.5320  178.9800  139.1490 C   0  0  0  0  0  3  0  0  0  0  0  0
  186.8130  178.1750  139.2200 C   0  0  0  0  0  3  0  0  0  0  0  0
  185.6460  178.4430  138.4990 C   0  0  0  0  0  0  0  0  0  0  0  0
  185.5960  178.1790  137.1720 F   0  0  0  0  0  0  0  0  0  0  0  0
  186.8780  178.4470  140.5960 C   0  0  0  0  0  0  0  0  0  0  0  0
  185.8570  177.8540  145.7760 C   0  0  0  0  0  2  0  0  0  0  0  0
  185.0510  179.0710  145.3630 C   0  0  0  0  0  2  0  0  0  0  0  0
  183.6890  178.6440  144.9530 C   0  0  0  0  0  3  0  0  0  0  0  0
  183.0620  179.2800  143.9730 C   0  0  0  0  0  3  0  0  0  0  0  0
  181.2100  179.0370  142.2760 C   0  0  0  0  0  3  0  0  0  0  0  0
  179.9310  178.5140  142.3880 C   0  0  0  0  0  3  0  0  0  0  0  0
  179.7330  178.0880  143.6530 N   0  0  0  0  0  0  0  0  0  0  0  0
  180.8230  178.3240  144.3180 O   0  0  0  0  0  0  0  0  0  0  0  0
  181.7200  178.8820  143.5460 C   0  0  0  0  0  0  0  0  0  0  0  0
  1  7  1  0  0  0  0
  3  5  1  0  0  0  0
  3 11  2  0  0  0  0
  4  9  1  0  0  0  0
  4  1  2  0  0  0  0
  6  3  1  0  0  0  0
  7  6  2  0  0  0  0
  7 23  1  0  0  0  0
  8 10  1  0  0  0  0
  9 12  2  0  0  0  0
 10  2  2  0  0  0  0
 10  5  1  0  0  0  0
 12  8  1  0  0  0  0
 12  6  1  0  0  0  0
 13  9  1  0  0  0  0
 14 13  1  0  0  0  0
 15  4  1  0  0  0  0
 17 16  2  0  0  0  0
 18 17  1  0  0  0  0
 19 22  2  0  0  0  0
 20 18  2  0  0  0  0
 20 19  1  0  0  0  0
 21 20  1  0  0  0  0
 22 16  1  0  0  0  0
 22 15  1  0  0  0  0
 24 23  1  0  0  0  0
 25 24  1  0  0  0  0
 26 25  2  0  0  0  0
 27 28  1  0  0  0  0
 27 31  2  0  0  0  0
 28 29  2  0  0  0  0
 29 30  1  0  0  0  0
 31 26  1  0  0  0  0
 31 30  1  0  0  0  0
M  END
>  <MODEL>
5

>  <REMARK>
 VINA RESULT:      -9.4      2.645      7.232
  Name = 
  7 active torsions:
  status: ('A' for Active; 'I' for Inactive)
    1  A    between atoms: N_4  and  C_8
    2  A    between atoms: N_4  and  C_30
    3  A    between atoms: C_12  and  C_20
    4  A    between atoms: C_12  and  C_28
    5  A    between atoms: C_14  and  C_28
    6  A    between atoms: C_16  and  C_22
    7  A    between atoms: C_19  and  C_24
                            x       y       z     vdW  Elec       q    Type
                         _______ _______ _______ _____ _____    ______ ____

>  <TORSDO>
F 7

$$$$
=
 OpenBabel10222415263D

 31 34  0  0  0  0  0  0  0  0999 V2000
  187.6280  177.7670  143.8700 C   0  0  0  0  0  3  0  0  0  0  0  0
  192.0520  177.1160  148.0900 O   0  0  0  0  0  0  0  0  0  0  0  0
  191.0860  176.4340  144.8050 C   0  0  0  0  0  0  0  0  0  0  0  0
  187.0410  177.9560  145.1210 C   0  0  0  0  0  0  0  0  0  0  0  0
  191.8360  176.0060  146.0270 C   0  0  0  0  0  2  0  0  0  0  0  0
  189.6800  176.9430  144.8920 C   0  0  0  0  0  0  0  0  0  0  0  0
  188.9240  177.2720  143.7380 C   0  0  0  0  0  0  0  0  0  0  0  0
  189.8200  176.7540  147.4370 C   0  0  0  0  0  2  0  0  0  0  0  0
  187.7750  177.6450  146.2760 C   0  0  0  0  0  0  0  0  0  0  0  0
  191.2960  176.6850  147.2370 C   0  0  0  0  0  0  0  0  0  0  0  0
  191.6750  176.3300  143.6960 O   0  0  0  0  0  0  0  0  0  0  0  0
  189.0900  177.1370  146.1710 C   0  0  0  0  0  0  0  0  0  0  0  0
  187.1360  177.8220  147.6220 C   0  0  0  0  0  2  0  0  0  0  0  0
  187.4450  179.0850  148.1270 O   0  0  0  0  0  1  0  0  0  0  0  0
  185.7030  178.4730  145.2490 N   0  0  0  0  0  2  0  0  0  0  0  0
  183.3840  178.9220  144.6520 C   0  0  0  0  0  3  0  0  0  0  0  0
  182.3470  179.0040  143.7160 C   0  0  0  0  0  3  0  0  0  0  0  0
  182.5960  178.7170  142.3710 C   0  0  0  0  0  3  0  0  0  0  0  0
  184.9130  178.2630  142.8990 C   0  0  0  0  0  3  0  0  0  0  0  0
  183.8790  178.3460  141.9630 C   0  0  0  0  0  0  0  0  0  0  0  0
  184.1220  178.0650  140.6610 F   0  0  0  0  0  0  0  0  0  0  0  0
  184.6730  178.5550  144.2520 C   0  0  0  0  0  0  0  0  0  0  0  0
  189.4310  177.0800  142.3450 C   0  0  0  0  0  2  0  0  0  0  0  0
  189.1600  178.3220  141.5150 C   0  0  0  0  0  2  0  0  0  0  0  0
  188.8970  177.9270  140.1080 C   0  0  0  0  0  3  0  0  0  0  0  0
  187.7480  178.2510  139.5330 C   0  0  0  0  0  3  0  0  0  0  0  0
  187.7600  176.6600  137.5740 C   0  0  0  0  0  3  0  0  0  0  0  0
  187.2970  176.8060  136.2760 C   0  0  0  0  0  3  0  0  0  0  0  0
  186.7660  178.0370  136.1280 N   0  0  0  0  0  0  0  0  0  0  0  0
  186.8820  178.6500  137.2660 O   0  0  0  0  0  0  0  0  0  0  0  0
  187.4610  177.8760  138.1480 C   0  0  0  0  0  0  0  0  0  0  0  0
  1  4  1  0  0  0  0
  3  6  1  0  0  0  0
  3  5  1  0  0  0  0
  4 15  1  0  0  0  0
  4  9  2  0  0  0  0
  5 10  1  0  0  0  0
  6 12  2  0  0  0  0
  7  1  2  0  0  0  0
  7  6  1  0  0  0  0
  9 13  1  0  0  0  0
 10  8  1  0  0  0  0
 10  2  2  0  0  0  0
 11  3  2  0  0  0  0
 12  9  1  0  0  0  0
 12  8  1  0  0  0  0
 13 14  1  0  0  0  0
 17 16  2  0  0  0  0
 18 17  1  0  0  0  0
 19 22  2  0  0  0  0
 20 18  2  0  0  0  0
 20 19  1  0  0  0  0
 21 20  1  0  0  0  0
 22 16  1  0  0  0  0
 22 15  1  0  0  0  0
 23  7  1  0  0  0  0
 24 23  1  0  0  0  0
 25 24  1  0  0  0  0
 26 25  2  0  0  0  0
 27 31  2  0  0  0  0
 28 27  1  0  0  0  0
 29 28  2  0  0  0  0
 29 30  1  0  0  0  0
 30 31  1  0  0  0  0
 31 26  1  0  0  0  0
M  END
>  <MODEL>
6

>  <REMARK>
 VINA RESULT:      -9.4      2.882      8.160
  Name = 
  7 active torsions:
  status: ('A' for Active; 'I' for Inactive)
    1  A    between atoms: N_4  and  C_8
    2  A    between atoms: N_4  and  C_30
    3  A    between atoms: C_12  and  C_20
    4  A    between atoms: C_12  and  C_28
    5  A    between atoms: C_14  and  C_28
    6  A    between atoms: C_16  and  C_22
    7  A    between atoms: C_19  and  C_24
                            x       y       z     vdW  Elec       q    Type
                         _______ _______ _______ _____ _____    ______ ____

>  <TORSDO>
F 7

$$$$
=
 OpenBabel10222415263D

 31 34  0  0  0  0  0  0  0  0999 V2000
  186.5790  177.8780  143.4790 C   0  0  0  0  0  3  0  0  0  0  0  0
  189.9860  178.2160  148.5870 O   0  0  0  0  0  0  0  0  0  0  0  0
  189.7700  176.9200  145.3510 C   0  0  0  0  0  0  0  0  0  0  0  0
  185.7300  178.2500  144.5230 C   0  0  0  0  0  0  0  0  0  0  0  0
  190.2420  176.7540  146.7610 C   0  0  0  0  0  2  0  0  0  0  0  0
  188.3710  177.3580  145.0450 C   0  0  0  0  0  0  0  0  0  0  0  0
  187.8800  177.4400  143.7170 C   0  0  0  0  0  0  0  0  0  0  0  0
  187.9560  177.6240  147.5530 C   0  0  0  0  0  2  0  0  0  0  0  0
  186.2000  178.1850  145.8440 C   0  0  0  0  0  0  0  0  0  0  0  0
  189.4410  177.6020  147.6850 C   0  0  0  0  0  0  0  0  0  0  0  0
  190.5880  176.6570  144.4300 O   0  0  0  0  0  0  0  0  0  0  0  0
  187.5130  177.7390  146.1130 C   0  0  0  0  0  0  0  0  0  0  0  0
  185.2790  178.5590  146.9680 C   0  0  0  0  0  2  0  0  0  0  0  0
  185.6810  179.7750  147.5200 O   0  0  0  0  0  1  0  0  0  0  0  0
  184.3880  178.7070  144.2680 N   0  0  0  0  0  2  0  0  0  0  0  0
  182.2620  178.9250  143.0980 C   0  0  0  0  0  3  0  0  0  0  0  0
  181.4820  178.8530  141.9400 C   0  0  0  0  0  3  0  0  0  0  0  0
  182.0650  178.4810  140.7260 C   0  0  0  0  0  3  0  0  0  0  0  0
  184.2070  178.2530  141.8290 C   0  0  0  0  0  3  0  0  0  0  0  0
  183.4290  178.1810  140.6700 C   0  0  0  0  0  0  0  0  0  0  0  0
  183.9970  177.8190  139.4960 F   0  0  0  0  0  0  0  0  0  0  0  0
  183.6290  178.6300  143.0520 C   0  0  0  0  0  0  0  0  0  0  0  0
  188.6820  177.0370  142.5210 C   0  0  0  0  0  2  0  0  0  0  0  0
  188.4070  177.9820  141.3670 C   0  0  0  0  0  2  0  0  0  0  0  0
  189.4270  177.7750  140.3070 C   0  0  0  0  0  3  0  0  0  0  0  0
  190.5360  177.1010  140.5770 C   0  0  0  0  0  3  0  0  0  0  0  0
  191.3230  176.3810  138.2900 C   0  0  0  0  0  3  0  0  0  0  0  0
  192.5880  176.3630  137.7230 C   0  0  0  0  0  3  0  0  0  0  0  0
  193.4840  176.8280  138.6180 N   0  0  0  0  0  0  0  0  0  0  0  0
  192.8330  177.1270  139.7000 O   0  0  0  0  0  0  0  0  0  0  0  0
  191.5570  176.8800  139.5530 C   0  0  0  0  0  0  0  0  0  0  0  0
  1  7  2  0  0  0  0
  1  4  1  0  0  0  0
  3  5  1  0  0  0  0
  4  9  2  0  0  0  0
  5 10  1  0  0  0  0
  6  3  1  0  0  0  0
  6 12  2  0  0  0  0
  7  6  1  0  0  0  0
  8 10  1  0  0  0  0
  9 12  1  0  0  0  0
  9 13  1  0  0  0  0
 10  2  2  0  0  0  0
 11  3  2  0  0  0  0
 12  8  1  0  0  0  0
 13 14  1  0  0  0  0
 15  4  1  0  0  0  0
 17 16  2  0  0  0  0
 18 17  1  0  0  0  0
 19 22  2  0  0  0  0
 20 18  2  0  0  0  0
 20 19  1  0  0  0  0
 21 20  1  0  0  0  0
 22 16  1  0  0  0  0
 22 15  1  0  0  0  0
 23  7  1  0  0  0  0
 24 23  1  0  0  0  0
 25 26  2  0  0  0  0
 25 24  1  0  0  0  0
 27 31  2  0  0  0  0
 28 27  1  0  0  0  0
 28 29  2  0  0  0  0
 29 30  1  0  0  0  0
 31 30  1  0  0  0  0
 31 26  1  0  0  0  0
M  END
>  <MODEL>
7

>  <REMARK>
 VINA RESULT:      -9.3      3.192      7.138
  Name = 
  7 active torsions:
  status: ('A' for Active; 'I' for Inactive)
    1  A    between atoms: N_4  and  C_8
    2  A    between atoms: N_4  and  C_30
    3  A    between atoms: C_12  and  C_20
    4  A    between atoms: C_12  and  C_28
    5  A    between atoms: C_14  and  C_28
    6  A    between atoms: C_16  and  C_22
    7  A    between atoms: C_19  and  C_24
                            x       y       z     vdW  Elec       q    Type
                         _______ _______ _______ _____ _____    ______ ____

>  <TORSDO>
F 7

$$$$
=
 OpenBabel10222415263D

 31 34  0  0  0  0  0  0  0  0999 V2000
  187.7790  177.8960  143.0990 C   0  0  0  0  0  3  0  0  0  0  0  0
  181.8030  178.2810  141.7030 O   0  0  0  0  0  0  0  0  0  0  0  0
  185.0620  178.8480  140.5850 C   0  0  0  0  0  0  0  0  0  0  0  0
  187.0680  177.8690  144.2990 C   0  0  0  0  0  0  0  0  0  0  0  0
  183.6240  179.2620  140.5830 C   0  0  0  0  0  2  0  0  0  0  0  0
  185.7780  178.5260  141.8610 C   0  0  0  0  0  0  0  0  0  0  0  0
  187.1610  178.2150  141.8910 C   0  0  0  0  0  0  0  0  0  0  0  0
  183.5830  178.8720  143.1250 C   0  0  0  0  0  2  0  0  0  0  0  0
  185.6960  178.1660  144.2900 C   0  0  0  0  0  0  0  0  0  0  0  0
  182.9270  178.7420  141.7920 C   0  0  0  0  0  0  0  0  0  0  0  0
  185.6530  178.8000  139.4750 O   0  0  0  0  0  0  0  0  0  0  0  0
  185.0460  178.4970  143.0800 C   0  0  0  0  0  0  0  0  0  0  0  0
  184.9360  178.1640  145.5840 C   0  0  0  0  0  2  0  0  0  0  0  0
  185.1400  179.3710  146.2520 O   0  0  0  0  0  1  0  0  0  0  0  0
  187.7130  177.5340  145.5430 N   0  0  0  0  0  2  0  0  0  0  0  0
  189.5410  177.0880  147.0910 C   0  0  0  0  0  3  0  0  0  0  0  0
  190.8660  176.7340  147.3610 C   0  0  0  0  0  3  0  0  0  0  0  0
  191.7410  176.4470  146.3100 C   0  0  0  0  0  3  0  0  0  0  0  0
  189.9650  176.8700  144.7210 C   0  0  0  0  0  3  0  0  0  0  0  0
  191.2900  176.5150  144.9890 C   0  0  0  0  0  0  0  0  0  0  0  0
  192.1350  176.2390  143.9680 F   0  0  0  0  0  0  0  0  0  0  0  0
  189.0790  177.1560  145.7720 C   0  0  0  0  0  0  0  0  0  0  0  0
  188.0340  178.2440  140.6780 C   0  0  0  0  0  2  0  0  0  0  0  0
  189.4310  177.7690  141.0290 C   0  0  0  0  0  2  0  0  0  0  0  0
  190.1670  177.4380  139.7820 C   0  0  0  0  0  3  0  0  0  0  0  0
  191.4260  177.0260  139.8450 C   0  0  0  0  0  3  0  0  0  0  0  0
  191.6310  176.1810  137.4770 C   0  0  0  0  0  3  0  0  0  0  0  0
  192.7340  176.0410  136.6490 C   0  0  0  0  0  3  0  0  0  0  0  0
  193.8390  176.4500  137.3060 N   0  0  0  0  0  0  0  0  0  0  0  0
  193.4680  176.8320  138.4900 O   0  0  0  0  0  0  0  0  0  0  0  0
  192.1760  176.6920  138.6340 C   0  0  0  0  0  0  0  0  0  0  0  0
  1  4  1  0  0  0  0
  2 10  2  0  0  0  0
  3  6  1  0  0  0  0
  4 15  1  0  0  0  0
  5  3  1  0  0  0  0
  5 10  1  0  0  0  0
  6  7  1  0  0  0  0
  6 12  2  0  0  0  0
  7  1  2  0  0  0  0
  9  4  2  0  0  0  0
  9 13  1  0  0  0  0
 10  8  1  0  0  0  0
 11  3  2  0  0  0  0
 12  8  1  0  0  0  0
 12  9  1  0  0  0  0
 13 14  1  0  0  0  0
 15 22  1  0  0  0  0
 16 17  1  0  0  0  0
 18 17  2  0  0  0  0
 19 20  2  0  0  0  0
 19 22  1  0  0  0  0
 20 18  1  0  0  0  0
 21 20  1  0  0  0  0
 22 16  2  0  0  0  0
 23 24  1  0  0  0  0
 23  7  1  0  0  0  0
 25 26  2  0  0  0  0
 25 24  1  0  0  0  0
 27 31  2  0  0  0  0
 28 29  2  0  0  0  0
 28 27  1  0  0  0  0
 29 30  1  0  0  0  0
 30 31  1  0  0  0  0
 31 26  1  0  0  0  0
M  END
>  <MODEL>
8

>  <REMARK>
 VINA RESULT:      -9.0      2.775      5.828
  Name = 
  7 active torsions:
  status: ('A' for Active; 'I' for Inactive)
    1  A    between atoms: N_4  and  C_8
    2  A    between atoms: N_4  and  C_30
    3  A    between atoms: C_12  and  C_20
    4  A    between atoms: C_12  and  C_28
    5  A    between atoms: C_14  and  C_28
    6  A    between atoms: C_16  and  C_22
    7  A    between atoms: C_19  and  C_24
                            x       y       z     vdW  Elec       q    Type
                         _______ _______ _______ _____ _____    ______ ____

>  <TORSDO>
F 7

$$$$
=
 OpenBabel10222415263D

 31 34  0  0  0  0  0  0  0  0999 V2000
  187.1240  177.4380  143.0210 C   0  0  0  0  0  3  0  0  0  0  0  0
  188.1030  177.3910  149.0910 O   0  0  0  0  0  0  0  0  0  0  0  0
  186.0350  178.5290  146.5180 C   0  0  0  0  0  0  0  0  0  0  0  0
  188.4640  177.1040  143.2250 C   0  0  0  0  0  0  0  0  0  0  0  0
  186.6430  178.7690  147.8640 C   0  0  0  0  0  2  0  0  0  0  0  0
  186.8630  178.0570  145.3630 C   0  0  0  0  0  0  0  0  0  0  0  0
  186.3220  177.9050  144.0600 C   0  0  0  0  0  0  0  0  0  0  0  0
  188.8770  177.9050  146.9290 C   0  0  0  0  0  2  0  0  0  0  0  0
  189.0160  177.2380  144.5080 C   0  0  0  0  0  0  0  0  0  0  0  0
  187.8770  177.9540  148.0340 C   0  0  0  0  0  0  0  0  0  0  0  0
  184.8040  178.7590  146.3880 O   0  0  0  0  0  0  0  0  0  0  0  0
  188.2260  177.7150  145.5790 C   0  0  0  0  0  0  0  0  0  0  0  0
  190.4630  176.9050  144.7230 C   0  0  0  0  0  2  0  0  0  0  0  0
  191.2400  178.0500  144.5490 O   0  0  0  0  0  1  0  0  0  0  0  0
  189.2850  176.6160  142.1470 N   0  0  0  0  0  2  0  0  0  0  0  0
  188.5130  178.1050  140.3790 C   0  0  0  0  0  3  0  0  0  0  0  0
  188.6090  178.6390  139.0900 C   0  0  0  0  0  3  0  0  0  0  0  0
  189.6240  178.2110  138.2300 C   0  0  0  0  0  3  0  0  0  0  0  0
  190.4430  176.7150  139.9470 C   0  0  0  0  0  3  0  0  0  0  0  0
  190.5410  177.2480  138.6590 C   0  0  0  0  0  0  0  0  0  0  0  0
  191.5250  176.8300  137.8280 F   0  0  0  0  0  0  0  0  0  0  0  0
  189.4290  177.1440  140.8190 C   0  0  0  0  0  0  0  0  0  0  0  0
  184.9130  178.2630  143.7120 C   0  0  0  0  0  2  0  0  0  0  0  0
  184.8380  178.7510  142.2770 C   0  0  0  0  0  2  0  0  0  0  0  0
  183.4620  178.5450  141.7570 C   0  0  0  0  0  3  0  0  0  0  0  0
  182.4170  178.7960  142.5320 C   0  0  0  0  0  3  0  0  0  0  0  0
  180.6690  178.5950  140.7230 C   0  0  0  0  0  3  0  0  0  0  0  0
  179.3010  178.3830  140.7940 C   0  0  0  0  0  3  0  0  0  0  0  0
  178.9330  178.2770  142.0880 N   0  0  0  0  0  0  0  0  0  0  0  0
  180.0030  178.4150  142.8090 O   0  0  0  0  0  0  0  0  0  0  0  0
  181.0490  178.6040  142.0470 C   0  0  0  0  0  0  0  0  0  0  0  0
  1  4  2  0  0  0  0
  1  7  1  0  0  0  0
  3  5  1  0  0  0  0
  4  9  1  0  0  0  0
  5 10  1  0  0  0  0
  6 12  1  0  0  0  0
  6  3  1  0  0  0  0
  7  6  2  0  0  0  0
  8 10  1  0  0  0  0
  9 13  1  0  0  0  0
  9 12  2  0  0  0  0
 10  2  2  0  0  0  0
 11  3  2  0  0  0  0
 12  8  1  0  0  0  0
 14 13  1  0  0  0  0
 15  4  1  0  0  0  0
 16 22  1  0  0  0  0
 17 16  2  0  0  0  0
 18 20  2  0  0  0  0
 18 17  1  0  0  0  0
 19 22  2  0  0  0  0
 20 19  1  0  0  0  0
 21 20  1  0  0  0  0
 22 15  1  0  0  0  0
 23  7  1  0  0  0  0
 24 23  1  0  0  0  0
 25 24  1  0  0  0  0
 25 26  2  0  0  0  0
 27 28  1  0  0  0  0
 27 31  2  0  0  0  0
 28 29  2  0  0  0  0
 29 30  1  0  0  0  0
 31 26  1  0  0  0  0
 31 30  1  0  0  0  0
M  END
>  <MODEL>
9

>  <REMARK>
 VINA RESULT:      -9.0      2.373      6.906
  Name = 
  7 active torsions:
  status: ('A' for Active; 'I' for Inactive)
    1  A    between atoms: N_4  and  C_8
    2  A    between atoms: N_4  and  C_30
    3  A    between atoms: C_12  and  C_20
    4  A    between atoms: C_12  and  C_28
    5  A    between atoms: C_14  and  C_28
    6  A    between atoms: C_16  and  C_22
    7  A    between atoms: C_19  and  C_24
                            x       y       z     vdW  Elec       q    Type
                         _______ _______ _______ _____ _____    ______ ____

>  <TORSDO>
F 7

$$$$
