=
 OpenBabel10222421263D

 40 43  0  0  1  0  0  0  0  0999 V2000
  183.8130  179.1140  145.8650 N   0  0  0  0  0  2  0  0  0  0  0  0
  184.1540  178.5940  142.3030 C   0  0  0  0  0  0  0  0  0  0  0  0
  185.5930  178.4120  142.2900 C   0  0  0  0  0  0  0  0  0  0  0  0
  184.9260  178.7930  140.1840 C   0  0  0  0  0  0  0  0  0  0  0  0
  186.3250  178.2110  143.3790 C   0  0  0  0  0  3  0  0  0  0  0  0
  183.3490  178.5980  143.5570 C   0  0  0  0  0  2  0  0  0  0  0  0
  183.7440  178.7940  141.0600 C   0  0  0  0  0  0  0  0  0  0  0  0
  186.0150  178.5630  140.9170 C   0  0  0  0  0  0  0  0  0  0  0  0
  184.2770  178.7050  144.7450 C   0  0  0  0  0  0  0  0  0  0  0  0
  185.6380  178.0410  144.7150 C   0  0  0  0  0  2  0  0  0  0  0  0
  187.2890  178.5350  140.4540 F   0  0  0  0  0  0  0  0  0  0  0  0
  182.3370  179.0710  140.6270 C   0  0  0  0  0  2  0  0  0  0  0  0
  181.5590  177.7810  140.3440 C   0  0  2  0  0  3  0  0  0  0  0  0
  181.5980  175.4080  138.6180 O   0  0  0  0  0  0  0  0  0  0  0  0
  181.9880  176.7060  136.7000 C   0  0  0  0  0  3  0  0  0  0  0  0
  181.0520  177.7510  138.8870 C   0  0  1  0  0  3  0  0  0  0  0  0
  181.4210  179.0610  138.1690 C   0  0  0  0  0  2  0  0  0  0  0  0
  181.0710  178.9900  136.6860 C   0  0  0  0  0  2  0  0  0  0  0  0
  181.5760  176.5560  138.1060 C   0  0  0  0  0  0  0  0  0  0  0  0
  181.7880  177.8480  136.0420 C   0  0  0  0  0  3  0  0  0  0  0  0
  180.4040  177.6760  141.3310 C   0  0  0  0  0  2  0  0  0  0  0  0
  180.1310  178.9910  141.9020 N   0  0  0  0  0  2  0  0  0  0  0  0
  179.1450  180.0720  143.7530 O   0  0  0  0  0  1  0  0  0  0  0  0
  179.6780  177.8470  143.9090 O   0  0  0  0  0  1  0  0  0  0  0  0
  179.2390  178.8660  143.0570 C   0  0  0  0  0  3  0  0  0  0  0  0
  184.9010  179.0360  138.7110 C   0  0  0  0  0  2  0  0  0  0  0  0
  185.0790  177.7560  137.9600 C   0  0  0  0  0  3  0  0  0  0  0  0
  186.1140  177.5330  137.1520 C   0  0  0  0  0  0  0  0  0  0  0  0
  186.2200  176.3050  136.5090 O   0  0  0  0  0  1  0  0  0  0  0  0
  187.1700  178.5700  136.9220 C   0  0  0  0  0  2  0  0  0  0  0  0
  188.5270  177.9110  136.7550 C   0  0  0  0  0  2  0  0  0  0  0  0
  189.4010  178.2850  137.9260 C   0  0  0  0  0  2  0  0  0  0  0  0
  189.6460  177.0540  138.7800 C   0  0  0  0  0  2  0  0  0  0  0  0
  190.6490  177.3740  139.8700 C   0  0  0  0  0  2  0  0  0  0  0  0
  190.2090  176.7840  141.2090 C   0  0  0  0  0  2  0  0  0  0  0  0
  190.6870  177.6310  142.3830 C   0  0  0  0  0  2  0  0  0  0  0  0
  189.6930  177.5650  144.6250 C   0  0  2  0  0  3  0  0  0  0  0  0
  189.9940  177.1180  146.0380 C   0  0  0  0  0  1  0  0  0  0  0  0
  189.2520  176.4540  143.8800 O   0  0  0  0  0  0  0  0  0  0  0  0
  190.5850  176.8540  143.6810 C   0  0  1  0  0  3  0  0  0  0  0  0
  2  6  1  0  0  0  0
  3  2  1  0  0  0  0
  3  5  2  0  0  0  0
  4  8  2  0  0  0  0
  4  7  1  0  0  0  0
  5 10  1  0  0  0  0
  6  9  1  0  0  0  0
  7  2  2  0  0  0  0
  8  3  1  0  0  0  0
  9  1  2  0  0  0  0
 10  9  1  0  0  0  0
 11  8  1  0  0  0  0
 12  7  1  0  0  0  0
 13 12  1  1  0  0  0
 13 21  1  0  0  0  0
 15 19  1  0  0  0  0
 16 13  1  1  0  0  0
 17 16  1  0  0  0  0
 18 17  1  0  0  0  0
 19 14  2  0  0  0  0
 19 16  1  0  0  0  0
 20 18  1  0  0  0  0
 20 15  2  0  0  0  0
 21 22  1  0  0  0  0
 22 25  1  0  0  0  0
 25 23  1  0  0  0  0
 25 24  1  0  0  0  0
 26  4  1  0  0  0  0
 27 26  1  0  0  0  0
 28 27  2  0  0  0  0
 29 28  1  0  0  0  0
 30 28  1  0  0  0  0
 31 30  1  0  0  0  0
 31 32  1  0  0  0  0
 32 33  1  0  0  0  0
 33 34  1  0  0  0  0
 34 35  1  0  0  0  0
 35 36  1  0  0  0  0
 37 38  1  1  0  0  0
 39 37  1  0  0  0  0
 40 36  1  6  0  0  0
 40 39  1  0  0  0  0
 40 37  1  0  0  0  0
M  END
>  <MODEL>
1

>  <REMARK>
 VINA RESULT:      -6.7      0.000      0.000
  Name = 
  16 active torsions:
  status: ('A' for Active; 'I' for Inactive)
    1  A    between atoms: C_3  and  C_12
    2  A    between atoms: C_3  and  C_34
    3  A    between atoms: C_4  and  C_14
    4  A    between atoms: C_4  and  C_17
    5  A    between atoms: C_5  and  C_20
    6  A    between atoms: C_7  and  C_23
    7  A    between atoms: C_10  and  C_20
    8  A    between atoms: C_11  and  C_19
    9  A    between atoms: C_11  and  C_22
   10  A    between atoms: C_11  and  C_31
   11  A    between atoms: C_12  and  C_14
   12  A    between atoms: C_22  and  N_35
   13  A    between atoms: C_23  and  C_38
   14  A    between atoms: C_24  and  C_31
   15  A    between atoms: C_34  and  C_38
   16  A    between atoms: N_35  and  C_40
                            x       y       z     vdW  Elec       q    Type
                         _______ _______ _______ _____ _____    ______ ____

>  <TORSDO>
F 16

$$$$
=
 OpenBabel10222421263D

 40 43  0  0  1  0  0  0  0  0999 V2000
  185.9940  179.6210  147.9120 N   0  0  0  0  0  2  0  0  0  0  0  0
  187.4870  177.5090  145.3860 C   0  0  0  0  0  0  0  0  0  0  0  0
  188.7450  177.2800  146.0710 C   0  0  0  0  0  0  0  0  0  0  0  0
  189.0070  176.6790  143.9270 C   0  0  0  0  0  0  0  0  0  0  0  0
  188.9580  177.5730  147.3480 C   0  0  0  0  0  3  0  0  0  0  0  0
  186.3020  178.1220  146.0500 C   0  0  0  0  0  2  0  0  0  0  0  0
  187.6210  177.1310  144.1240 C   0  0  0  0  0  0  0  0  0  0  0  0
  189.6650  176.7660  145.0830 C   0  0  0  0  0  0  0  0  0  0  0  0
  186.7280  178.7250  147.3690 C   0  0  0  0  0  0  0  0  0  0  0  0
  187.8090  178.0650  148.1990 C   0  0  0  0  0  2  0  0  0  0  0  0
  190.9760  176.4740  145.2710 F   0  0  0  0  0  0  0  0  0  0  0  0
  186.5770  177.2370  143.0550 C   0  0  0  0  0  2  0  0  0  0  0  0
  186.5270  178.6400  142.4380 C   0  0  2  0  0  3  0  0  0  0  0  0
  185.0610  180.4240  144.2490 O   0  0  0  0  0  0  0  0  0  0  0  0
  183.0270  179.3320  143.8140 C   0  0  0  0  0  3  0  0  0  0  0  0
  185.0690  179.0970  142.2240 C   0  0  1  0  0  3  0  0  0  0  0  0
  184.2270  177.9400  141.6580 C   0  0  0  0  0  2  0  0  0  0  0  0
  182.7520  178.3190  141.5880 C   0  0  0  0  0  2  0  0  0  0  0  0
  184.4310  179.6420  143.4930 C   0  0  0  0  0  0  0  0  0  0  0  0
  182.2490  178.6860  142.9460 C   0  0  0  0  0  3  0  0  0  0  0  0
  187.2990  178.6280  141.1250 C   0  0  0  0  0  2  0  0  0  0  0  0
  186.3670  178.7670  140.0110 N   0  0  0  0  0  2  0  0  0  0  0  0
  188.3190  178.6390  138.6920 O   0  0  0  0  0  1  0  0  0  0  0  0
  186.2730  178.7280  137.6580 O   0  0  0  0  0  1  0  0  0  0  0  0
  186.9760  178.2670  138.7770 C   0  0  0  0  0  3  0  0  0  0  0  0
  189.5800  176.2180  142.6290 C   0  0  0  0  0  2  0  0  0  0  0  0
  190.8200  176.9850  142.2940 C   0  0  0  0  0  3  0  0  0  0  0  0
  191.2860  177.0930  141.0510 C   0  0  0  0  0  0  0  0  0  0  0  0
  192.4310  177.8470  140.8210 O   0  0  0  0  0  1  0  0  0  0  0  0
  190.6060  176.4280  139.8940 C   0  0  0  0  0  2  0  0  0  0  0  0
  191.4280  176.6010  138.6310 C   0  0  0  0  0  2  0  0  0  0  0  0
  190.9360  175.6280  137.5880 C   0  0  0  0  0  2  0  0  0  0  0  0
  192.1060  175.1770  136.7340 C   0  0  0  0  0  2  0  0  0  0  0  0
  193.3780  175.8570  137.2000 C   0  0  0  0  0  2  0  0  0  0  0  0
  194.1140  176.5040  136.0280 C   0  0  0  0  0  2  0  0  0  0  0  0
  195.0440  175.5170  135.3320 C   0  0  0  0  0  2  0  0  0  0  0  0
  197.4870  175.3090  135.2480 C   0  0  2  0  0  3  0  0  0  0  0  0
  198.6360  174.5960  135.9230 C   0  0  0  0  0  1  0  0  0  0  0  0
  197.1350  176.4360  136.0150 O   0  0  0  0  0  0  0  0  0  0  0  0
  196.3070  175.3070  136.1420 C   0  0  1  0  0  3  0  0  0  0  0  0
  2  6  1  0  0  0  0
  2  3  1  0  0  0  0
  3  5  2  0  0  0  0
  4  7  1  0  0  0  0
  4  8  2  0  0  0  0
  5 10  1  0  0  0  0
  6  9  1  0  0  0  0
  7  2  2  0  0  0  0
  8 11  1  0  0  0  0
  8  3  1  0  0  0  0
  9  1  2  0  0  0  0
  9 10  1  0  0  0  0
 12  7  1  0  0  0  0
 13 21  1  6  0  0  0
 13 12  1  0  0  0  0
 16 13  1  1  0  0  0
 16 19  1  0  0  0  0
 17 16  1  0  0  0  0
 18 17  1  0  0  0  0
 18 20  1  0  0  0  0
 19 15  1  0  0  0  0
 19 14  2  0  0  0  0
 20 15  2  0  0  0  0
 22 21  1  0  0  0  0
 23 25  1  0  0  0  0
 24 25  1  0  0  0  0
 25 22  1  0  0  0  0
 26  4  1  0  0  0  0
 27 26  1  0  0  0  0
 28 27  2  0  0  0  0
 29 28  1  0  0  0  0
 30 28  1  0  0  0  0
 31 30  1  0  0  0  0
 32 31  1  0  0  0  0
 33 34  1  0  0  0  0
 33 32  1  0  0  0  0
 35 34  1  0  0  0  0
 36 35  1  0  0  0  0
 37 38  1  1  0  0  0
 37 39  1  0  0  0  0
 37 40  1  0  0  0  0
 39 40  1  0  0  0  0
 40 36  1  6  0  0  0
M  END
>  <MODEL>
2

>  <REMARK>
 VINA RESULT:      -6.7      4.069      6.947
  Name = 
  16 active torsions:
  status: ('A' for Active; 'I' for Inactive)
    1  A    between atoms: C_3  and  C_12
    2  A    between atoms: C_3  and  C_34
    3  A    between atoms: C_4  and  C_14
    4  A    between atoms: C_4  and  C_17
    5  A    between atoms: C_5  and  C_20
    6  A    between atoms: C_7  and  C_23
    7  A    between atoms: C_10  and  C_20
    8  A    between atoms: C_11  and  C_19
    9  A    between atoms: C_11  and  C_22
   10  A    between atoms: C_11  and  C_31
   11  A    between atoms: C_12  and  C_14
   12  A    between atoms: C_22  and  N_35
   13  A    between atoms: C_23  and  C_38
   14  A    between atoms: C_24  and  C_31
   15  A    between atoms: C_34  and  C_38
   16  A    between atoms: N_35  and  C_40
                            x       y       z     vdW  Elec       q    Type
                         _______ _______ _______ _____ _____    ______ ____

>  <TORSDO>
F 16

$$$$
=
 OpenBabel10222421263D

 40 43  0  0  1  0  0  0  0  0999 V2000
  185.3100  179.0010  147.2070 N   0  0  0  0  0  2  0  0  0  0  0  0
  186.1470  178.3080  143.7580 C   0  0  0  0  0  0  0  0  0  0  0  0
  187.4530  177.7270  144.0090 C   0  0  0  0  0  0  0  0  0  0  0  0
  187.3240  178.2230  141.8260 C   0  0  0  0  0  0  0  0  0  0  0  0
  187.8820  177.3590  145.2100 C   0  0  0  0  0  3  0  0  0  0  0  0
  185.1570  178.5730  144.8400 C   0  0  0  0  0  2  0  0  0  0  0  0
  186.0490  178.5800  142.4670 C   0  0  0  0  0  0  0  0  0  0  0  0
  188.1480  177.7160  142.7430 C   0  0  0  0  0  0  0  0  0  0  0  0
  185.8400  178.4480  146.1820 C   0  0  0  0  0  0  0  0  0  0  0  0
  186.9400  177.4270  146.3900 C   0  0  0  0  0  2  0  0  0  0  0  0
  189.4260  177.3170  142.5250 F   0  0  0  0  0  0  0  0  0  0  0  0
  184.8830  179.2300  141.7870 C   0  0  0  0  0  2  0  0  0  0  0  0
  183.7590  178.2290  141.4920 C   0  0  2  0  0  3  0  0  0  0  0  0
  184.6090  179.7030  139.1010 O   0  0  0  0  0  0  0  0  0  0  0  0
  183.2680  178.3750  137.7040 C   0  0  0  0  0  3  0  0  0  0  0  0
  183.9310  177.6010  140.0940 C   0  0  1  0  0  3  0  0  0  0  0  0
  182.8230  176.5640  139.8370 C   0  0  0  0  0  2  0  0  0  0  0  0
  182.8790  176.0470  138.4040 C   0  0  0  0  0  2  0  0  0  0  0  0
  183.9510  178.6390  138.9810 C   0  0  0  0  0  0  0  0  0  0  0  0
  182.7360  177.1810  137.4410 C   0  0  0  0  0  3  0  0  0  0  0  0
  182.4200  178.9450  141.6150 C   0  0  0  0  0  2  0  0  0  0  0  0
  182.0210  178.9930  143.0180 N   0  0  0  0  0  2  0  0  0  0  0  0
  179.9110  178.3490  142.1800 O   0  0  0  0  0  1  0  0  0  0  0  0
  180.1960  180.4810  142.9770 O   0  0  0  0  0  1  0  0  0  0  0  0
  180.5680  179.1400  143.1250 C   0  0  0  0  0  3  0  0  0  0  0  0
  187.6420  178.4210  140.3810 C   0  0  0  0  0  2  0  0  0  0  0  0
  188.7140  177.4770  139.9390 C   0  0  0  0  0  3  0  0  0  0  0  0
  189.4070  177.6500  138.8150 C   0  0  0  0  0  0  0  0  0  0  0  0
  190.4070  176.7400  138.4890 O   0  0  0  0  0  1  0  0  0  0  0  0
  189.1420  178.8030  137.8970 C   0  0  0  0  0  2  0  0  0  0  0  0
  188.5240  178.3110  136.6010 C   0  0  0  0  0  2  0  0  0  0  0  0
  187.0210  178.3440  136.7300 C   0  0  0  0  0  2  0  0  0  0  0  0
  186.4450  177.0500  136.1880 C   0  0  0  0  0  2  0  0  0  0  0  0
  186.5600  175.9570  137.2300 C   0  0  0  0  0  2  0  0  0  0  0  0
  186.4400  174.5740  136.5900 C   0  0  0  0  0  2  0  0  0  0  0  0
  184.9900  174.2150  136.2900 C   0  0  0  0  0  2  0  0  0  0  0  0
  184.2580  171.9280  135.7870 C   0  0  2  0  0  3  0  0  0  0  0  0
  183.4280  170.8000  136.3570 C   0  0  0  0  0  1  0  0  0  0  0  0
  185.5370  171.8960  136.3740 O   0  0  0  0  0  0  0  0  0  0  0  0
  184.6420  172.8590  136.8710 C   0  0  1  0  0  3  0  0  0  0  0  0
  2  3  1  0  0  0  0
  2  6  1  0  0  0  0
  3  5  2  0  0  0  0
  4  7  1  0  0  0  0
  4  8  2  0  0  0  0
  5 10  1  0  0  0  0
  6  9  1  0  0  0  0
  7  2  2  0  0  0  0
  8  3  1  0  0  0  0
  9 10  1  0  0  0  0
  9  1  2  0  0  0  0
 11  8  1  0  0  0  0
 12  7  1  0  0  0  0
 13 21  1  6  0  0  0
 13 12  1  0  0  0  0
 15 19  1  0  0  0  0
 16 13  1  1  0  0  0
 17 16  1  0  0  0  0
 18 17  1  0  0  0  0
 19 14  2  0  0  0  0
 19 16  1  0  0  0  0
 20 15  2  0  0  0  0
 20 18  1  0  0  0  0
 21 22  1  0  0  0  0
 22 25  1  0  0  0  0
 23 25  1  0  0  0  0
 24 25  1  0  0  0  0
 26  4  1  0  0  0  0
 27 26  1  0  0  0  0
 28 27  2  0  0  0  0
 29 28  1  0  0  0  0
 30 28  1  0  0  0  0
 31 32  1  0  0  0  0
 31 30  1  0  0  0  0
 33 32  1  0  0  0  0
 33 34  1  0  0  0  0
 35 34  1  0  0  0  0
 36 35  1  0  0  0  0
 37 38  1  1  0  0  0
 37 39  1  0  0  0  0
 37 40  1  0  0  0  0
 39 40  1  0  0  0  0
 40 36  1  6  0  0  0
M  END
>  <MODEL>
3

>  <REMARK>
 VINA RESULT:      -6.5      2.480      4.850
  Name = 
  16 active torsions:
  status: ('A' for Active; 'I' for Inactive)
    1  A    between atoms: C_3  and  C_12
    2  A    between atoms: C_3  and  C_34
    3  A    between atoms: C_4  and  C_14
    4  A    between atoms: C_4  and  C_17
    5  A    between atoms: C_5  and  C_20
    6  A    between atoms: C_7  and  C_23
    7  A    between atoms: C_10  and  C_20
    8  A    between atoms: C_11  and  C_19
    9  A    between atoms: C_11  and  C_22
   10  A    between atoms: C_11  and  C_31
   11  A    between atoms: C_12  and  C_14
   12  A    between atoms: C_22  and  N_35
   13  A    between atoms: C_23  and  C_38
   14  A    between atoms: C_24  and  C_31
   15  A    between atoms: C_34  and  C_38
   16  A    between atoms: N_35  and  C_40
                            x       y       z     vdW  Elec       q    Type
                         _______ _______ _______ _____ _____    ______ ____

>  <TORSDO>
F 16

$$$$
=
 OpenBabel10222421263D

 40 43  0  0  1  0  0  0  0  0999 V2000
  187.5110  177.7860  147.6530 N   0  0  0  0  0  2  0  0  0  0  0  0
  188.5890  177.3000  144.2360 C   0  0  0  0  0  0  0  0  0  0  0  0
  190.0140  177.4140  144.4840 C   0  0  0  0  0  0  0  0  0  0  0  0
  189.6790  177.6240  142.2780 C   0  0  0  0  0  0  0  0  0  0  0  0
  190.5610  177.3810  145.6940 C   0  0  0  0  0  3  0  0  0  0  0  0
  187.5850  177.1560  145.3280 C   0  0  0  0  0  2  0  0  0  0  0  0
  188.3810  177.3950  142.9320 C   0  0  0  0  0  0  0  0  0  0  0  0
  190.6400  177.6300  143.2010 C   0  0  0  0  0  0  0  0  0  0  0  0
  188.2430  177.4660  146.6530 C   0  0  0  0  0  0  0  0  0  0  0  0
  189.6910  177.0920  146.8960 C   0  0  0  0  0  2  0  0  0  0  0  0
  191.9570  177.8560  142.9700 F   0  0  0  0  0  0  0  0  0  0  0  0
  187.0500  177.3740  142.2470 C   0  0  0  0  0  2  0  0  0  0  0  0
  186.2250  178.6300  142.5530 C   0  0  2  0  0  3  0  0  0  0  0  0
  183.7180  177.6590  141.3770 O   0  0  0  0  0  0  0  0  0  0  0  0
  182.4310  178.7560  143.0080 C   0  0  0  0  0  3  0  0  0  0  0  0
  184.9600  178.2760  143.3620 C   0  0  1  0  0  3  0  0  0  0  0  0
  184.7720  179.2740  144.5180 C   0  0  0  0  0  2  0  0  0  0  0  0
  183.4450  179.0400  145.2330 C   0  0  0  0  0  2  0  0  0  0  0  0
  183.7070  178.2230  142.5010 C   0  0  0  0  0  0  0  0  0  0  0  0
  182.3110  179.1700  144.2690 C   0  0  0  0  0  3  0  0  0  0  0  0
  185.8670  179.3150  141.2410 C   0  0  0  0  0  2  0  0  0  0  0  0
  186.5150  178.6170  140.1350 N   0  0  0  0  0  2  0  0  0  0  0  0
  186.4590  178.7860  137.7820 O   0  0  0  0  0  1  0  0  0  0  0  0
  184.7910  179.7650  139.0150 O   0  0  0  0  0  1  0  0  0  0  0  0
  185.6780  178.6860  138.9350 C   0  0  0  0  0  3  0  0  0  0  0  0
  189.8740  177.8370  140.8130 C   0  0  0  0  0  2  0  0  0  0  0  0
  190.6160  176.6910  140.2050 C   0  0  0  0  0  3  0  0  0  0  0  0
  190.4010  176.2730  138.9590 C   0  0  0  0  0  0  0  0  0  0  0  0
  191.1540  175.2160  138.4590 O   0  0  0  0  0  1  0  0  0  0  0  0
  189.3740  176.9170  138.0790 C   0  0  0  0  0  2  0  0  0  0  0  0
  189.5510  176.4610  136.6430 C   0  0  0  0  0  2  0  0  0  0  0  0
  188.2480  175.8850  136.1460 C   0  0  0  0  0  2  0  0  0  0  0  0
  188.1220  174.4510  136.6250 C   0  0  0  0  0  2  0  0  0  0  0  0
  187.2710  173.6570  135.6550 C   0  0  0  0  0  2  0  0  0  0  0  0
  186.2500  172.7960  136.4000 C   0  0  0  0  0  2  0  0  0  0  0  0
  185.5250  173.5890  137.4800 C   0  0  0  0  0  2  0  0  0  0  0  0
  183.4930  174.8570  138.0150 C   0  0  2  0  0  3  0  0  0  0  0  0
  182.0550  175.0230  137.5790 C   0  0  0  0  0  1  0  0  0  0  0  0
  184.3180  175.6220  137.1690 O   0  0  0  0  0  0  0  0  0  0  0  0
  184.2760  174.2390  136.9210 C   0  0  1  0  0  3  0  0  0  0  0  0
  2  3  1  0  0  0  0
  2  6  1  0  0  0  0
  3  5  2  0  0  0  0
  4  7  1  0  0  0  0
  4  8  2  0  0  0  0
  5 10  1  0  0  0  0
  6  9  1  0  0  0  0
  7  2  2  0  0  0  0
  8  3  1  0  0  0  0
  9 10  1  0  0  0  0
  9  1  2  0  0  0  0
 11  8  1  0  0  0  0
 12 13  1  0  0  0  0
 12  7  1  0  0  0  0
 13 21  1  6  0  0  0
 14 19  2  0  0  0  0
 15 20  2  0  0  0  0
 16 13  1  6  0  0  0
 16 17  1  0  0  0  0
 17 18  1  0  0  0  0
 19 15  1  0  0  0  0
 19 16  1  0  0  0  0
 20 18  1  0  0  0  0
 22 21  1  0  0  0  0
 23 25  1  0  0  0  0
 25 24  1  0  0  0  0
 25 22  1  0  0  0  0
 26  4  1  0  0  0  0
 27 26  1  0  0  0  0
 28 27  2  0  0  0  0
 29 28  1  0  0  0  0
 30 28  1  0  0  0  0
 31 30  1  0  0  0  0
 32 33  1  0  0  0  0
 32 31  1  0  0  0  0
 34 35  1  0  0  0  0
 34 33  1  0  0  0  0
 35 36  1  0  0  0  0
 37 38  1  6  0  0  0
 39 37  1  0  0  0  0
 40 39  1  0  0  0  0
 40 36  1  1  0  0  0
 40 37  1  0  0  0  0
M  END
>  <MODEL>
4

>  <REMARK>
 VINA RESULT:      -6.5      2.846      6.404
  Name = 
  16 active torsions:
  status: ('A' for Active; 'I' for Inactive)
    1  A    between atoms: C_3  and  C_12
    2  A    between atoms: C_3  and  C_34
    3  A    between atoms: C_4  and  C_14
    4  A    between atoms: C_4  and  C_17
    5  A    between atoms: C_5  and  C_20
    6  A    between atoms: C_7  and  C_23
    7  A    between atoms: C_10  and  C_20
    8  A    between atoms: C_11  and  C_19
    9  A    between atoms: C_11  and  C_22
   10  A    between atoms: C_11  and  C_31
   11  A    between atoms: C_12  and  C_14
   12  A    between atoms: C_22  and  N_35
   13  A    between atoms: C_23  and  C_38
   14  A    between atoms: C_24  and  C_31
   15  A    between atoms: C_34  and  C_38
   16  A    between atoms: N_35  and  C_40
                            x       y       z     vdW  Elec       q    Type
                         _______ _______ _______ _____ _____    ______ ____

>  <TORSDO>
F 16

$$$$
=
 OpenBabel10222421263D

 40 43  0  0  1  0  0  0  0  0999 V2000
  184.3030  178.9790  146.2270 N   0  0  0  0  0  2  0  0  0  0  0  0
  184.1890  178.5730  142.6360 C   0  0  0  0  0  0  0  0  0  0  0  0
  185.6080  178.3460  142.4400 C   0  0  0  0  0  0  0  0  0  0  0  0
  184.7040  178.8210  140.4450 C   0  0  0  0  0  0  0  0  0  0  0  0
  186.4600  178.0860  143.4250 C   0  0  0  0  0  3  0  0  0  0  0  0
  183.5430  178.5570  143.9780 C   0  0  0  0  0  2  0  0  0  0  0  0
  183.6380  178.8270  141.4590 C   0  0  0  0  0  0  0  0  0  0  0  0
  185.8650  178.5320  141.0310 C   0  0  0  0  0  0  0  0  0  0  0  0
  184.6130  178.5950  145.0460 C   0  0  0  0  0  0  0  0  0  0  0  0
  185.9360  177.8910  144.8290 C   0  0  0  0  0  2  0  0  0  0  0  0
  187.0720  178.4800  140.4140 F   0  0  0  0  0  0  0  0  0  0  0  0
  182.1990  179.1620  141.2110 C   0  0  0  0  0  2  0  0  0  0  0  0
  181.4950  178.0880  140.3750 C   0  0  2  0  0  3  0  0  0  0  0  0
  181.2760  176.8950  137.7030 O   0  0  0  0  0  0  0  0  0  0  0  0
  181.2670  179.0050  136.6710 C   0  0  0  0  0  3  0  0  0  0  0  0
  180.7270  178.7200  139.1960 C   0  0  1  0  0  3  0  0  0  0  0  0
  180.9220  180.2470  139.1940 C   0  0  0  0  0  2  0  0  0  0  0  0
  180.3040  180.8750  137.9490 C   0  0  0  0  0  2  0  0  0  0  0  0
  181.1280  178.1350  137.8510 C   0  0  0  0  0  0  0  0  0  0  0  0
  180.9180  180.2910  136.7180 C   0  0  0  0  0  3  0  0  0  0  0  0
  180.5600  177.2950  141.2800 C   0  0  0  0  0  2  0  0  0  0  0  0
  179.3510  176.9450  140.5420 N   0  0  0  0  0  2  0  0  0  0  0  0
  178.9730  175.0410  141.8850 O   0  0  0  0  0  1  0  0  0  0  0  0
  180.2090  174.8300  139.9640 O   0  0  0  0  0  1  0  0  0  0  0  0
  179.1410  175.4960  140.5750 C   0  0  0  0  0  3  0  0  0  0  0  0
  184.5070  179.1150  138.9950 C   0  0  0  0  0  2  0  0  0  0  0  0
  184.6230  177.8660  138.1800 C   0  0  0  0  0  3  0  0  0  0  0  0
  185.6710  177.6100  137.4000 C   0  0  0  0  0  0  0  0  0  0  0  0
  185.7140  176.4120  136.6940 O   0  0  0  0  0  1  0  0  0  0  0  0
  186.8090  178.5750  137.2680 C   0  0  0  0  0  2  0  0  0  0  0  0
  187.7390  178.1420  136.1490 C   0  0  0  0  0  2  0  0  0  0  0  0
  189.1620  178.1890  136.6480 C   0  0  0  0  0  2  0  0  0  0  0  0
  189.1570  178.3410  138.1580 C   0  0  0  0  0  2  0  0  0  0  0  0
  190.3330  177.5950  138.7550 C   0  0  0  0  0  2  0  0  0  0  0  0
  189.8870  176.7090  139.9170 C   0  0  0  0  0  2  0  0  0  0  0  0
  189.9150  177.4620  141.2430 C   0  0  0  0  0  2  0  0  0  0  0  0
  190.2310  176.6280  143.5290 C   0  0  2  0  0  3  0  0  0  0  0  0
  191.2890  176.4870  144.6000 C   0  0  0  0  0  1  0  0  0  0  0  0
  190.3610  175.5630  142.6160 O   0  0  0  0  0  0  0  0  0  0  0  0
  190.8800  176.8060  142.2100 C   0  0  1  0  0  3  0  0  0  0  0  0
  2  6  1  0  0  0  0
  3  2  1  0  0  0  0
  3  5  2  0  0  0  0
  4  8  2  0  0  0  0
  4  7  1  0  0  0  0
  5 10  1  0  0  0  0
  6  9  1  0  0  0  0
  7  2  2  0  0  0  0
  8  3  1  0  0  0  0
  9  1  2  0  0  0  0
 10  9  1  0  0  0  0
 11  8  1  0  0  0  0
 12  7  1  0  0  0  0
 13 12  1  1  0  0  0
 13 21  1  0  0  0  0
 14 19  2  0  0  0  0
 15 20  2  0  0  0  0
 15 19  1  0  0  0  0
 16 13  1  1  0  0  0
 17 16  1  0  0  0  0
 18 17  1  0  0  0  0
 19 16  1  0  0  0  0
 20 18  1  0  0  0  0
 22 25  1  0  0  0  0
 22 21  1  0  0  0  0
 24 25  1  0  0  0  0
 25 23  1  0  0  0  0
 26  4  1  0  0  0  0
 27 26  1  0  0  0  0
 28 27  2  0  0  0  0
 29 28  1  0  0  0  0
 30 28  1  0  0  0  0
 31 32  1  0  0  0  0
 31 30  1  0  0  0  0
 32 33  1  0  0  0  0
 33 34  1  0  0  0  0
 34 35  1  0  0  0  0
 35 36  1  0  0  0  0
 37 38  1  1  0  0  0
 39 37  1  0  0  0  0
 40 36  1  6  0  0  0
 40 39  1  0  0  0  0
 40 37  1  0  0  0  0
M  END
>  <MODEL>
5

>  <REMARK>
 VINA RESULT:      -6.4      1.475      1.819
  Name = 
  16 active torsions:
  status: ('A' for Active; 'I' for Inactive)
    1  A    between atoms: C_3  and  C_12
    2  A    between atoms: C_3  and  C_34
    3  A    between atoms: C_4  and  C_14
    4  A    between atoms: C_4  and  C_17
    5  A    between atoms: C_5  and  C_20
    6  A    between atoms: C_7  and  C_23
    7  A    between atoms: C_10  and  C_20
    8  A    between atoms: C_11  and  C_19
    9  A    between atoms: C_11  and  C_22
   10  A    between atoms: C_11  and  C_31
   11  A    between atoms: C_12  and  C_14
   12  A    between atoms: C_22  and  N_35
   13  A    between atoms: C_23  and  C_38
   14  A    between atoms: C_24  and  C_31
   15  A    between atoms: C_34  and  C_38
   16  A    between atoms: N_35  and  C_40
                            x       y       z     vdW  Elec       q    Type
                         _______ _______ _______ _____ _____    ______ ____

>  <TORSDO>
F 16

$$$$
=
 OpenBabel10222421263D

 40 43  0  0  1  0  0  0  0  0999 V2000
  191.7000  176.1460  143.6400 N   0  0  0  0  0  2  0  0  0  0  0  0
  188.4200  177.0950  142.4520 C   0  0  0  0  0  0  0  0  0  0  0  0
  188.8410  177.5960  141.1570 C   0  0  0  0  0  0  0  0  0  0  0  0
  186.7590  178.3340  141.5390 C   0  0  0  0  0  0  0  0  0  0  0  0
  190.0440  177.3850  140.6360 C   0  0  0  0  0  2  0  0  0  0  0  0
  189.3130  176.3050  143.3450 C   0  0  0  0  0  2  0  0  0  0  0  0
  187.1800  177.5030  142.6770 C   0  0  2  0  0  3  0  0  0  0  0  0
  187.7440  178.3820  140.6420 C   0  0  0  0  0  0  0  0  0  0  0  0
  190.7350  176.4030  142.8400 C   0  0  0  0  0  0  0  0  0  0  0  0
  191.0160  176.4770  141.3540 C   0  0  0  0  0  2  0  0  0  0  0  0
  187.7280  179.0900  139.4860 F   0  0  0  0  0  0  0  0  0  0  0  0
  186.3780  177.2480  143.9160 C   0  0  0  0  0  2  0  0  0  0  0  0
  186.6360  178.3050  144.9950 C   0  0  2  0  0  3  0  0  0  0  0  0
  185.7390  178.8100  147.7430 O   0  0  0  0  0  0  0  0  0  0  0  0
  187.9250  178.6110  148.5820 C   0  0  0  0  0  3  0  0  0  0  0  0
  187.2670  177.6690  146.2510 C   0  0  1  0  0  3  0  0  0  0  0  0
  188.7950  177.5800  146.0900 C   0  0  0  0  0  2  0  0  0  0  0  0
  189.4540  177.1020  147.3800 C   0  0  0  0  0  2  0  0  0  0  0  0
  186.9140  178.4150  147.5290 C   0  0  0  0  0  0  0  0  0  0  0  0
  189.1220  178.0310  148.5020 C   0  0  0  0  0  3  0  0  0  0  0  0
  185.3210  178.9980  145.3290 C   0  0  0  0  0  2  0  0  0  0  0  0
  184.2180  178.2730  144.7070 N   0  0  0  0  0  2  0  0  0  0  0  0
  182.1400  178.5930  143.6350 O   0  0  0  0  0  1  0  0  0  0  0  0
  183.5190  180.3960  143.9670 O   0  0  0  0  0  1  0  0  0  0  0  0
  183.0830  179.1720  144.4870 C   0  0  0  0  0  3  0  0  0  0  0  0
  185.4430  179.0290  141.4270 C   0  0  0  0  0  2  0  0  0  0  0  0
  184.3520  178.0530  141.1210 C   0  0  0  0  0  3  0  0  0  0  0  0
  183.8760  177.8680  139.8910 C   0  0  0  0  0  0  0  0  0  0  0  0
  182.8780  176.9200  139.6860 O   0  0  0  0  0  1  0  0  0  0  0  0
  184.3910  178.6490  138.7210 C   0  0  0  0  0  2  0  0  0  0  0  0
  184.5790  177.7380  137.5220 C   0  0  0  0  0  2  0  0  0  0  0  0
  186.0450  177.6860  137.1710 C   0  0  0  0  0  2  0  0  0  0  0  0
  186.4860  176.2370  137.0800 C   0  0  0  0  0  2  0  0  0  0  0  0
  187.9060  176.0970  137.5920 C   0  0  0  0  0  2  0  0  0  0  0  0
  188.9050  176.7020  136.6060 C   0  0  0  0  0  2  0  0  0  0  0  0
  190.2380  177.0140  137.2760 C   0  0  0  0  0  2  0  0  0  0  0  0
  192.5610  176.2830  137.5790 C   0  0  2  0  0  3  0  0  0  0  0  0
  193.6870  175.5890  136.8460 C   0  0  0  0  0  1  0  0  0  0  0  0
  191.6880  175.3100  138.1020 O   0  0  0  0  0  0  0  0  0  0  0  0
  191.2720  175.9610  136.9270 C   0  0  1  0  0  3  0  0  0  0  0  0
  2  7  1  0  0  0  0
  2  6  1  0  0  0  0
  3  2  2  0  0  0  0
  4  7  1  0  0  0  0
  5  3  1  0  0  0  0
  5 10  1  0  0  0  0
  7 12  1  1  0  0  0
  8  3  1  0  0  0  0
  8  4  2  0  0  0  0
  9  6  1  0  0  0  0
  9  1  2  0  0  0  0
 10  9  1  0  0  0  0
 11  8  1  0  0  0  0
 13 12  1  6  0  0  0
 13 21  1  0  0  0  0
 16 13  1  6  0  0  0
 16 19  1  0  0  0  0
 17 16  1  0  0  0  0
 17 18  1  0  0  0  0
 18 20  1  0  0  0  0
 19 14  2  0  0  0  0
 19 15  1  0  0  0  0
 20 15  2  0  0  0  0
 22 21  1  0  0  0  0
 23 25  1  0  0  0  0
 24 25  1  0  0  0  0
 25 22  1  0  0  0  0
 26  4  1  0  0  0  0
 27 26  1  0  0  0  0
 28 27  2  0  0  0  0
 29 28  1  0  0  0  0
 30 28  1  0  0  0  0
 31 30  1  0  0  0  0
 32 31  1  0  0  0  0
 33 32  1  0  0  0  0
 33 34  1  0  0  0  0
 35 36  1  0  0  0  0
 35 34  1  0  0  0  0
 37 38  1  6  0  0  0
 37 39  1  0  0  0  0
 40 36  1  1  0  0  0
 40 37  1  0  0  0  0
 40 39  1  0  0  0  0
M  END
>  <MODEL>
6

>  <REMARK>
 VINA RESULT:      -6.4      2.705      6.937
  Name = 
  16 active torsions:
  status: ('A' for Active; 'I' for Inactive)
    1  A    between atoms: C_3  and  C_12
    2  A    between atoms: C_3  and  C_34
    3  A    between atoms: C_4  and  C_14
    4  A    between atoms: C_4  and  C_17
    5  A    between atoms: C_5  and  C_20
    6  A    between atoms: C_7  and  C_23
    7  A    between atoms: C_10  and  C_20
    8  A    between atoms: C_11  and  C_19
    9  A    between atoms: C_11  and  C_22
   10  A    between atoms: C_11  and  C_31
   11  A    between atoms: C_12  and  C_14
   12  A    between atoms: C_22  and  N_35
   13  A    between atoms: C_23  and  C_38
   14  A    between atoms: C_24  and  C_31
   15  A    between atoms: C_34  and  C_38
   16  A    between atoms: N_35  and  C_40
                            x       y       z     vdW  Elec       q    Type
                         _______ _______ _______ _____ _____    ______ ____

>  <TORSDO>
F 16

$$$$
=
 OpenBabel10222421263D

 40 43  0  0  1  0  0  0  0  0999 V2000
  187.6120  177.8720  148.5330 N   0  0  0  0  0  2  0  0  0  0  0  0
  188.3080  177.3640  145.0220 C   0  0  0  0  0  0  0  0  0  0  0  0
  189.7540  177.4270  145.1190 C   0  0  0  0  0  0  0  0  0  0  0  0
  189.1960  177.6580  142.9600 C   0  0  0  0  0  0  0  0  0  0  0  0
  190.4230  177.3690  146.2640 C   0  0  0  0  0  3  0  0  0  0  0  0
  187.4190  177.2500  146.2120 C   0  0  0  0  0  2  0  0  0  0  0  0
  187.9670  177.4720  143.7470 C   0  0  0  0  0  0  0  0  0  0  0  0
  190.2490  177.6260  143.7770 C   0  0  0  0  0  0  0  0  0  0  0  0
  188.2230  177.5310  147.4620 C   0  0  0  0  0  0  0  0  0  0  0  0
  189.6740  177.1060  147.5500 C   0  0  0  0  0  2  0  0  0  0  0  0
  191.5410  177.8070  143.4090 F   0  0  0  0  0  0  0  0  0  0  0  0
  186.5710  177.5010  143.2050 C   0  0  0  0  0  2  0  0  0  0  0  0
  186.2020  178.8770  142.6410 C   0  0  2  0  0  3  0  0  0  0  0  0
  185.7390  179.7520  145.4030 O   0  0  0  0  0  0  0  0  0  0  0  0
  183.5560  178.8860  145.4000 C   0  0  0  0  0  3  0  0  0  0  0  0
  184.8410  179.3520  143.1910 C   0  0  1  0  0  3  0  0  0  0  0  0
  183.7030  178.5040  142.5970 C   0  0  0  0  0  2  0  0  0  0  0  0
  182.3670  178.8490  143.2450 C   0  0  0  0  0  2  0  0  0  0  0  0
  184.7790  179.3280  144.7100 C   0  0  0  0  0  0  0  0  0  0  0  0
  182.4380  178.6280  144.7210 C   0  0  0  0  0  3  0  0  0  0  0  0
  186.1850  178.7980  141.1200 C   0  0  0  0  0  2  0  0  0  0  0  0
  185.2140  179.7520  140.5940 N   0  0  0  0  0  2  0  0  0  0  0  0
  185.7690  178.9360  138.4500 O   0  0  0  0  0  1  0  0  0  0  0  0
  183.9380  180.2960  138.6910 O   0  0  0  0  0  1  0  0  0  0  0  0
  184.7170  179.3010  139.2920 C   0  0  0  0  0  3  0  0  0  0  0  0
  189.2440  177.8700  141.4830 C   0  0  0  0  0  2  0  0  0  0  0  0
  190.0030  176.7700  140.8130 C   0  0  0  0  0  3  0  0  0  0  0  0
  190.1860  176.7210  139.4950 C   0  0  0  0  0  0  0  0  0  0  0  0
  190.9280  175.6770  138.9520 O   0  0  0  0  0  1  0  0  0  0  0  0
  189.6190  177.7640  138.5820 C   0  0  0  0  0  2  0  0  0  0  0  0
  189.4210  177.1920  137.1900 C   0  0  0  0  0  2  0  0  0  0  0  0
  188.3110  176.1710  137.2320 C   0  0  0  0  0  2  0  0  0  0  0  0
  187.5840  176.1670  135.9000 C   0  0  0  0  0  2  0  0  0  0  0  0
  187.2050  177.5830  135.5160 C   0  0  0  0  0  2  0  0  0  0  0  0
  185.8810  177.6080  134.7530 C   0  0  0  0  0  2  0  0  0  0  0  0
  185.0480  176.3630  135.0300 C   0  0  0  0  0  2  0  0  0  0  0  0
  183.4460  175.4200  136.6330 C   0  0  2  0  0  3  0  0  0  0  0  0
  182.0490  175.6310  137.1700 C   0  0  0  0  0  1  0  0  0  0  0  0
  184.3290  176.2890  137.3030 O   0  0  0  0  0  0  0  0  0  0  0  0
  183.9330  176.6710  136.0090 C   0  0  1  0  0  3  0  0  0  0  0  0
  2  3  1  0  0  0  0
  2  6  1  0  0  0  0
  3  5  2  0  0  0  0
  4  7  1  0  0  0  0
  4  8  2  0  0  0  0
  5 10  1  0  0  0  0
  6  9  1  0  0  0  0
  7  2  2  0  0  0  0
  8  3  1  0  0  0  0
  9 10  1  0  0  0  0
  9  1  2  0  0  0  0
 11  8  1  0  0  0  0
 12  7  1  0  0  0  0
 13 21  1  6  0  0  0
 13 12  1  0  0  0  0
 16 13  1  1  0  0  0
 16 19  1  0  0  0  0
 17 16  1  0  0  0  0
 17 18  1  0  0  0  0
 18 20  1  0  0  0  0
 19 15  1  0  0  0  0
 19 14  2  0  0  0  0
 20 15  2  0  0  0  0
 22 21  1  0  0  0  0
 23 25  1  0  0  0  0
 24 25  1  0  0  0  0
 25 22  1  0  0  0  0
 26  4  1  0  0  0  0
 27 26  1  0  0  0  0
 28 27  2  0  0  0  0
 29 28  1  0  0  0  0
 30 28  1  0  0  0  0
 31 32  1  0  0  0  0
 31 30  1  0  0  0  0
 33 32  1  0  0  0  0
 34 33  1  0  0  0  0
 35 36  1  0  0  0  0
 35 34  1  0  0  0  0
 37 38  1  1  0  0  0
 37 39  1  0  0  0  0
 40 36  1  6  0  0  0
 40 37  1  0  0  0  0
 40 39  1  0  0  0  0
M  END
>  <MODEL>
7

>  <REMARK>
 VINA RESULT:      -6.4      2.796      6.566
  Name = 
  16 active torsions:
  status: ('A' for Active; 'I' for Inactive)
    1  A    between atoms: C_3  and  C_12
    2  A    between atoms: C_3  and  C_34
    3  A    between atoms: C_4  and  C_14
    4  A    between atoms: C_4  and  C_17
    5  A    between atoms: C_5  and  C_20
    6  A    between atoms: C_7  and  C_23
    7  A    between atoms: C_10  and  C_20
    8  A    between atoms: C_11  and  C_19
    9  A    between atoms: C_11  and  C_22
   10  A    between atoms: C_11  and  C_31
   11  A    between atoms: C_12  and  C_14
   12  A    between atoms: C_22  and  N_35
   13  A    between atoms: C_23  and  C_38
   14  A    between atoms: C_24  and  C_31
   15  A    between atoms: C_34  and  C_38
   16  A    between atoms: N_35  and  C_40
                            x       y       z     vdW  Elec       q    Type
                         _______ _______ _______ _____ _____    ______ ____

>  <TORSDO>
F 16

$$$$
=
 OpenBabel10222421263D

 40 43  0  0  1  0  0  0  0  0999 V2000
  186.1130  178.1980  146.7690 N   0  0  0  0  0  2  0  0  0  0  0  0
  185.4420  178.8750  143.2810 C   0  0  0  0  0  0  0  0  0  0  0  0
  184.0070  178.6670  143.3350 C   0  0  0  0  0  0  0  0  0  0  0  0
  184.6280  178.6380  141.1810 C   0  0  0  0  0  0  0  0  0  0  0  0
  183.3130  178.5820  144.4640 C   0  0  0  0  0  3  0  0  0  0  0  0
  186.2910  178.9920  144.5000 C   0  0  0  0  0  2  0  0  0  0  0  0
  185.8170  178.8870  142.0120 C   0  0  0  0  0  0  0  0  0  0  0  0
  183.5610  178.5130  141.9710 C   0  0  0  0  0  0  0  0  0  0  0  0
  185.4940  178.5510  145.7060 C   0  0  0  0  0  0  0  0  0  0  0  0
  184.0060  178.8280  145.7840 C   0  0  0  0  0  2  0  0  0  0  0  0
  182.3000  178.2350  141.5580 F   0  0  0  0  0  0  0  0  0  0  0  0
  187.2200  179.0290  141.5060 C   0  0  0  0  0  2  0  0  0  0  0  0
  187.9000  177.6690  141.3080 C   0  0  2  0  0  3  0  0  0  0  0  0
  187.8770  175.5580  143.3460 O   0  0  0  0  0  0  0  0  0  0  0  0
  188.9870  176.9290  144.8970 C   0  0  0  0  0  3  0  0  0  0  0  0
  189.0140  177.4510  142.3520 C   0  0  1  0  0  3  0  0  0  0  0  0
  189.5470  178.8060  142.8500 C   0  0  0  0  0  2  0  0  0  0  0  0
  190.5350  178.6180  143.9960 C   0  0  0  0  0  2  0  0  0  0  0  0
  188.5600  176.5990  143.5270 C   0  0  0  0  0  0  0  0  0  0  0  0
  189.8810  177.8920  145.1260 C   0  0  0  0  0  3  0  0  0  0  0  0
  188.4510  177.5980  139.8900 C   0  0  0  0  0  2  0  0  0  0  0  0
  187.7130  178.5210  139.0340 N   0  0  0  0  0  2  0  0  0  0  0  0
  189.0250  179.6230  137.4100 O   0  0  0  0  0  1  0  0  0  0  0  0
  187.2200  178.3790  136.7350 O   0  0  0  0  0  1  0  0  0  0  0  0
  188.2540  178.4890  137.6720 C   0  0  0  0  0  3  0  0  0  0  0  0
  184.6310  178.5230  139.6930 C   0  0  0  0  0  2  0  0  0  0  0  0
  183.7840  179.5900  139.0770 C   0  0  0  0  0  3  0  0  0  0  0  0
  182.6390  179.3260  138.4480 C   0  0  0  0  0  0  0  0  0  0  0  0
  181.8960  180.3790  137.9250 O   0  0  0  0  0  1  0  0  0  0  0  0
  182.1290  177.9270  138.2950 C   0  0  0  0  0  2  0  0  0  0  0  0
  182.4060  177.4170  136.8930 C   0  0  0  0  0  2  0  0  0  0  0  0
  183.5900  176.4830  136.9350 C   0  0  0  0  0  2  0  0  0  0  0  0
  183.3540  175.4250  137.9980 C   0  0  0  0  0  2  0  0  0  0  0  0
  184.1670  174.1860  137.6810 C   0  0  0  0  0  2  0  0  0  0  0  0
  183.9700  173.7590  136.2260 C   0  0  0  0  0  2  0  0  0  0  0  0
  185.2630  173.2370  135.6120 C   0  0  0  0  0  2  0  0  0  0  0  0
  187.5460  173.7340  136.3620 C   0  0  2  0  0  3  0  0  0  0  0  0
  188.3930  174.8640  136.9020 C   0  0  0  0  0  1  0  0  0  0  0  0
  187.4750  173.8470  134.9600 O   0  0  0  0  0  0  0  0  0  0  0  0
  186.3530  174.2880  135.6840 C   0  0  1  0  0  3  0  0  0  0  0  0
  2  3  1  0  0  0  0
  2  6  1  0  0  0  0
  3  5  2  0  0  0  0
  4  8  2  0  0  0  0
  4  7  1  0  0  0  0
  5 10  1  0  0  0  0
  6  9  1  0  0  0  0
  7  2  2  0  0  0  0
  8  3  1  0  0  0  0
  9 10  1  0  0  0  0
  9  1  2  0  0  0  0
 11  8  1  0  0  0  0
 12  7  1  0  0  0  0
 13 21  1  6  0  0  0
 13 12  1  0  0  0  0
 14 19  2  0  0  0  0
 15 20  2  0  0  0  0
 16 13  1  6  0  0  0
 16 17  1  0  0  0  0
 16 19  1  0  0  0  0
 17 18  1  0  0  0  0
 18 20  1  0  0  0  0
 19 15  1  0  0  0  0
 22 21  1  0  0  0  0
 23 25  1  0  0  0  0
 24 25  1  0  0  0  0
 25 22  1  0  0  0  0
 26  4  1  0  0  0  0
 27 26  1  0  0  0  0
 28 27  2  0  0  0  0
 29 28  1  0  0  0  0
 30 28  1  0  0  0  0
 31 32  1  0  0  0  0
 31 30  1  0  0  0  0
 32 33  1  0  0  0  0
 34 33  1  0  0  0  0
 35 34  1  0  0  0  0
 36 35  1  0  0  0  0
 37 38  1  1  0  0  0
 39 40  1  0  0  0  0
 39 37  1  0  0  0  0
 40 36  1  6  0  0  0
 40 37  1  0  0  0  0
M  END
>  <MODEL>
8

>  <REMARK>
 VINA RESULT:      -6.3      2.769      7.307
  Name = 
  16 active torsions:
  status: ('A' for Active; 'I' for Inactive)
    1  A    between atoms: C_3  and  C_12
    2  A    between atoms: C_3  and  C_34
    3  A    between atoms: C_4  and  C_14
    4  A    between atoms: C_4  and  C_17
    5  A    between atoms: C_5  and  C_20
    6  A    between atoms: C_7  and  C_23
    7  A    between atoms: C_10  and  C_20
    8  A    between atoms: C_11  and  C_19
    9  A    between atoms: C_11  and  C_22
   10  A    between atoms: C_11  and  C_31
   11  A    between atoms: C_12  and  C_14
   12  A    between atoms: C_22  and  N_35
   13  A    between atoms: C_23  and  C_38
   14  A    between atoms: C_24  and  C_31
   15  A    between atoms: C_34  and  C_38
   16  A    between atoms: N_35  and  C_40
                            x       y       z     vdW  Elec       q    Type
                         _______ _______ _______ _____ _____    ______ ____

>  <TORSDO>
F 16

$$$$
=
 OpenBabel10222421263D

 40 43  0  0  1  0  0  0  0  0999 V2000
  187.8550  178.0780  148.4230 N   0  0  0  0  0  2  0  0  0  0  0  0
  188.3330  177.4170  144.9010 C   0  0  0  0  0  0  0  0  0  0  0  0
  189.7830  177.4770  144.9060 C   0  0  0  0  0  0  0  0  0  0  0  0
  189.0940  177.6180  142.7780 C   0  0  0  0  0  0  0  0  0  0  0  0
  190.5210  177.4660  146.0100 C   0  0  0  0  0  3  0  0  0  0  0  0
  187.5200  177.3580  146.1470 C   0  0  0  0  0  2  0  0  0  0  0  0
  187.9160  177.4720  143.6460 C   0  0  0  0  0  0  0  0  0  0  0  0
  190.1950  177.6170  143.5290 C   0  0  0  0  0  0  0  0  0  0  0  0
  188.3990  177.6890  147.3320 C   0  0  0  0  0  0  0  0  0  0  0  0
  189.8520  177.2610  147.3500 C   0  0  0  0  0  2  0  0  0  0  0  0
  191.4630  177.7760  143.0760 F   0  0  0  0  0  0  0  0  0  0  0  0
  186.4890  177.4830  143.1890 C   0  0  0  0  0  2  0  0  0  0  0  0
  186.1010  178.8220  142.5520 C   0  0  2  0  0  3  0  0  0  0  0  0
  185.7120  179.7540  145.3070 O   0  0  0  0  0  0  0  0  0  0  0  0
  183.5110  178.9370  145.3620 C   0  0  0  0  0  3  0  0  0  0  0  0
  184.7620  179.3360  143.1200 C   0  0  1  0  0  3  0  0  0  0  0  0
  183.5930  178.5040  142.5630 C   0  0  0  0  0  2  0  0  0  0  0  0
  182.2780  178.8900  143.2310 C   0  0  0  0  0  2  0  0  0  0  0  0
  184.7300  179.3390  144.6410 C   0  0  0  0  0  0  0  0  0  0  0  0
  182.3740  178.6920  144.7090 C   0  0  0  0  0  3  0  0  0  0  0  0
  186.0270  178.6450  141.0410 C   0  0  0  0  0  2  0  0  0  0  0  0
  185.2790  179.7540  140.4570 N   0  0  0  0  0  2  0  0  0  0  0  0
  185.2980  178.9990  138.2210 O   0  0  0  0  0  1  0  0  0  0  0  0
  183.5150  180.2300  138.9720 O   0  0  0  0  0  1  0  0  0  0  0  0
  184.4850  179.2830  139.3190 C   0  0  0  0  0  3  0  0  0  0  0  0
  189.0510  177.7670  141.2930 C   0  0  0  0  0  2  0  0  0  0  0  0
  189.9330  176.7560  140.6330 C   0  0  0  0  0  3  0  0  0  0  0  0
  190.1190  176.7140  139.3150 C   0  0  0  0  0  0  0  0  0  0  0  0
  190.9770  175.7580  138.7820 O   0  0  0  0  0  1  0  0  0  0  0  0
  189.4320  177.6730  138.3920 C   0  0  0  0  0  2  0  0  0  0  0  0
  188.0760  177.1280  137.9830 C   0  0  0  0  0  2  0  0  0  0  0  0
  187.9850  177.1200  136.4770 C   0  0  0  0  0  2  0  0  0  0  0  0
  189.2390  177.7470  135.8970 C   0  0  0  0  0  2  0  0  0  0  0  0
  189.7080  176.9490  134.6970 C   0  0  0  0  0  2  0  0  0  0  0  0
  189.9470  175.4870  135.0720 C   0  0  0  0  0  2  0  0  0  0  0  0
  191.4330  175.1720  135.1950 C   0  0  0  0  0  2  0  0  0  0  0  0
  192.8030  173.4660  136.3050 C   0  0  2  0  0  3  0  0  0  0  0  0
  193.3470  172.0700  136.1000 C   0  0  0  0  0  1  0  0  0  0  0  0
  191.4750  173.3760  136.7630 O   0  0  0  0  0  0  0  0  0  0  0  0
  191.6500  173.6870  135.4030 C   0  0  1  0  0  3  0  0  0  0  0  0
  2  3  1  0  0  0  0
  2  6  1  0  0  0  0
  3  5  2  0  0  0  0
  4  8  2  0  0  0  0
  4  7  1  0  0  0  0
  5 10  1  0  0  0  0
  6  9  1  0  0  0  0
  7  2  2  0  0  0  0
  8  3  1  0  0  0  0
  9 10  1  0  0  0  0
  9  1  2  0  0  0  0
 11  8  1  0  0  0  0
 12  7  1  0  0  0  0
 13 21  1  6  0  0  0
 13 12  1  0  0  0  0
 16 13  1  1  0  0  0
 16 19  1  0  0  0  0
 17 16  1  0  0  0  0
 17 18  1  0  0  0  0
 18 20  1  0  0  0  0
 19 14  2  0  0  0  0
 19 15  1  0  0  0  0
 20 15  2  0  0  0  0
 22 21  1  0  0  0  0
 23 25  1  0  0  0  0
 24 25  1  0  0  0  0
 25 22  1  0  0  0  0
 26  4  1  0  0  0  0
 27 26  1  0  0  0  0
 28 27  2  0  0  0  0
 29 28  1  0  0  0  0
 30 28  1  0  0  0  0
 31 30  1  0  0  0  0
 32 31  1  0  0  0  0
 33 32  1  0  0  0  0
 34 35  1  0  0  0  0
 34 33  1  0  0  0  0
 35 36  1  0  0  0  0
 37 38  1  6  0  0  0
 37 39  1  0  0  0  0
 40 36  1  1  0  0  0
 40 37  1  0  0  0  0
 40 39  1  0  0  0  0
M  END
>  <MODEL>
9

>  <REMARK>
 VINA RESULT:      -6.3      3.111      6.291
  Name = 
  16 active torsions:
  status: ('A' for Active; 'I' for Inactive)
    1  A    between atoms: C_3  and  C_12
    2  A    between atoms: C_3  and  C_34
    3  A    between atoms: C_4  and  C_14
    4  A    between atoms: C_4  and  C_17
    5  A    between atoms: C_5  and  C_20
    6  A    between atoms: C_7  and  C_23
    7  A    between atoms: C_10  and  C_20
    8  A    between atoms: C_11  and  C_19
    9  A    between atoms: C_11  and  C_22
   10  A    between atoms: C_11  and  C_31
   11  A    between atoms: C_12  and  C_14
   12  A    between atoms: C_22  and  N_35
   13  A    between atoms: C_23  and  C_38
   14  A    between atoms: C_24  and  C_31
   15  A    between atoms: C_34  and  C_38
   16  A    between atoms: N_35  and  C_40
                            x       y       z     vdW  Elec       q    Type
                         _______ _______ _______ _____ _____    ______ ____

>  <TORSDO>
F 16

$$$$
