=
 OpenBabel10222419463D

 33 36  0  0  1  0  0  0  0  0999 V2000
  185.6340  178.3250  144.0270 N   0  0  0  0  0  0  0  0  0  0  0  0
  184.6950  178.9580  146.0720 O   0  0  0  0  0  0  0  0  0  0  0  0
  184.6010  178.9340  144.8160 C   0  0  0  0  0  0  0  0  0  0  0  0
  186.7380  178.5820  141.8720 C   0  0  0  0  0  2  0  0  0  0  0  0
  187.9580  177.8520  142.4350 C   0  0  2  0  0  3  0  0  0  0  0  0
  185.4710  178.1360  142.5900 C   0  0  0  0  0  2  0  0  0  0  0  0
  186.7870  177.7060  144.6760 C   0  0  0  0  0  2  0  0  0  0  0  0
  188.0740  178.1010  143.9500 C   0  0  1  0  0  3  0  0  0  0  0  0
  190.6740  176.8350  146.4260 C   0  0  0  0  0  0  0  0  0  0  0  0
  191.2330  176.7750  147.6860 C   0  0  0  0  0  3  0  0  0  0  0  0
  189.5570  177.5400  145.9350 C   0  0  0  0  0  0  0  0  0  0  0  0
  189.2490  177.3810  144.5590 C   0  0  0  0  0  0  0  0  0  0  0  0
  192.3080  175.9510  147.6460 N   0  0  0  0  0  2  0  0  0  0  0  0
  191.1520  175.8580  144.2710 C   0  0  0  0  0  3  0  0  0  0  0  0
  192.4400  175.4890  146.3800 C   0  0  0  0  0  3  0  0  0  0  0  0
  190.0480  176.5430  143.7430 C   0  0  0  0  0  3  0  0  0  0  0  0
  191.4320  176.0320  145.6200 C   0  0  0  0  0  0  0  0  0  0  0  0
  188.7150  178.4200  146.7800 C   0  0  0  0  0  3  0  0  0  0  0  0
  188.0750  178.0180  147.8720 C   0  0  0  0  0  2  0  0  0  0  0  0
  183.4050  179.5630  144.1710 C   0  0  0  0  0  2  0  0  0  0  0  0
  182.2210  178.5990  144.1420 C   0  0  0  0  0  2  0  0  0  0  0  0
  179.9060  178.1010  143.1130 C   0  0  2  0  0  3  0  0  0  0  0  0
  179.5980  180.3520  142.3770 C   0  0  0  0  0  2  0  0  0  0  0  0
  181.1750  178.9310  143.0710 C   0  0  1  0  0  3  0  0  0  0  0  0
  180.8320  180.2900  143.0490 O   0  0  0  0  0  0  0  0  0  0  0  0
  178.9310  178.9890  142.4030 C   0  0  0  0  0  2  0  0  0  0  0  0
  179.4620  177.9110  144.4240 O   0  0  0  0  0  1  0  0  0  0  0  0
  189.2110  178.3400  141.7130 C   0  0  0  0  0  2  0  0  0  0  0  0
  189.1970  177.9260  140.2510 C   0  0  0  0  0  2  0  0  0  0  0  0
  190.1150  176.7390  140.0200 C   0  0  0  0  0  2  0  0  0  0  0  0
  188.9560  176.2270  138.0000 O   0  0  0  0  0  1  0  0  0  0  0  0
  191.0370  175.2550  138.3420 N   0  0  0  0  0  1  0  0  0  0  0  0
  190.2260  176.4430  138.5360 C   0  0  2  0  0  3  0  0  0  0  0  0
  1  7  1  0  0  0  0
  1  3  1  0  0  0  0
  3  2  2  0  0  0  0
  4  5  1  0  0  0  0
  4  6  1  0  0  0  0
  5 28  1  6  0  0  0
  5  8  1  0  0  0  0
  6  1  1  0  0  0  0
  8 12  1  1  0  0  0
  8  7  1  0  0  0  0
  9 10  2  0  0  0  0
 11  9  1  0  0  0  0
 11 18  1  0  0  0  0
 12 11  2  0  0  0  0
 13 10  1  0  0  0  0
 14 17  1  0  0  0  0
 15 13  1  0  0  0  0
 16 14  2  0  0  0  0
 16 12  1  0  0  0  0
 17 15  2  0  0  0  0
 17  9  1  0  0  0  0
 18 19  2  0  0  0  0
 20  3  1  0  0  0  0
 21 20  1  0  0  0  0
 22 27  1  1  0  0  0
 23 26  1  0  0  0  0
 23 25  1  0  0  0  0
 24 22  1  0  0  0  0
 24 21  1  1  0  0  0
 25 24  1  0  0  0  0
 26 22  1  0  0  0  0
 29 28  1  0  0  0  0
 30 29  1  0  0  0  0
 32 33  1  0  0  0  0
 33 31  1  1  0  0  0
 33 30  1  0  0  0  0
M  END
>  <MODEL>
1

>  <REMARK>
 VINA RESULT:      -8.8      0.000      0.000
  Name = 
  9 active torsions:
  status: ('A' for Active; 'I' for Inactive)
    1  A    between atoms: C_7  and  C_8
    2  A    between atoms: C_7  and  C_24
    3  A    between atoms: C_9  and  C_24
    4  A    between atoms: C_10  and  C_11
    5  A    between atoms: C_14  and  C_33
    6  A    between atoms: C_17  and  C_27
    7  A    between atoms: C_20  and  C_32
    8  A    between atoms: C_31  and  C_32
    9  A    between atoms: C_31  and  C_33
                            x       y       z     vdW  Elec       q    Type
                         _______ _______ _______ _____ _____    ______ ____

>  <TORSDO>
F 9

$$$$
=
 OpenBabel10222419463D

 33 36  0  0  1  0  0  0  0  0999 V2000
  186.1800  178.6290  140.6190 N   0  0  0  0  0  0  0  0  0  0  0  0
  188.1470  177.6950  139.7680 O   0  0  0  0  0  0  0  0  0  0  0  0
  186.9950  178.1500  139.5380 C   0  0  0  0  0  0  0  0  0  0  0  0
  183.8410  178.7530  141.2850 C   0  0  0  0  0  2  0  0  0  0  0  0
  184.2850  178.8460  142.7460 C   0  0  2  0  0  3  0  0  0  0  0  0
  184.9170  179.3130  140.3630 C   0  0  0  0  0  2  0  0  0  0  0  0
  186.6910  178.6170  141.9870 C   0  0  0  0  0  2  0  0  0  0  0  0
  185.6160  178.0990  142.9450 C   0  0  1  0  0  3  0  0  0  0  0  0
  187.6110  177.5300  146.1370 C   0  0  0  0  0  0  0  0  0  0  0  0
  188.6190  176.9210  146.8550 C   0  0  0  0  0  3  0  0  0  0  0  0
  187.2120  177.3970  144.7930 C   0  0  0  0  0  0  0  0  0  0  0  0
  186.1110  178.1830  144.3650 C   0  0  0  0  0  0  0  0  0  0  0  0
  188.5930  177.3890  148.1260 N   0  0  0  0  0  2  0  0  0  0  0  0
  185.8910  179.1590  146.6070 C   0  0  0  0  0  3  0  0  0  0  0  0
  187.5830  178.2860  148.2260 C   0  0  0  0  0  3  0  0  0  0  0  0
  185.4640  179.0550  145.2750 C   0  0  0  0  0  3  0  0  0  0  0  0
  186.9710  178.3780  146.9990 C   0  0  0  0  0  0  0  0  0  0  0  0
  187.8820  176.4870  143.8330 C   0  0  0  0  0  3  0  0  0  0  0  0
  189.1490  176.6020  143.4540 C   0  0  0  0  0  2  0  0  0  0  0  0
  186.4950  178.1660  138.1280 C   0  0  0  0  0  2  0  0  0  0  0  0
  187.6190  178.4920  137.1460 C   0  0  0  0  0  2  0  0  0  0  0  0
  189.5000  177.1130  136.0390 C   0  0  2  0  0  3  0  0  0  0  0  0
  188.2050  175.1050  136.0240 C   0  0  0  0  0  2  0  0  0  0  0  0
  188.0110  177.3200  136.2370 C   0  0  1  0  0  3  0  0  0  0  0  0
  187.4280  176.1080  136.6320 O   0  0  0  0  0  0  0  0  0  0  0  0
  189.5620  175.6690  135.6420 C   0  0  0  0  0  2  0  0  0  0  0  0
  190.2040  177.2760  137.2350 O   0  0  0  0  0  1  0  0  0  0  0  0
  183.1980  178.2540  143.6380 C   0  0  0  0  0  2  0  0  0  0  0  0
  182.0670  179.2460  143.8550 C   0  0  0  0  0  2  0  0  0  0  0  0
  180.7220  178.5420  143.8270 C   0  0  0  0  0  2  0  0  0  0  0  0
  180.2460  178.5840  141.4910 O   0  0  0  0  0  1  0  0  0  0  0  0
  179.9980  180.5560  142.6920 N   0  0  0  0  0  1  0  0  0  0  0  0
  179.8540  179.1120  142.7210 C   0  0  2  0  0  3  0  0  0  0  0  0
  1  7  1  0  0  0  0
  3  2  2  0  0  0  0
  3  1  1  0  0  0  0
  4  5  1  0  0  0  0
  5  8  1  0  0  0  0
  5 28  1  1  0  0  0
  6  1  1  0  0  0  0
  6  4  1  0  0  0  0
  7  8  1  0  0  0  0
  8 12  1  1  0  0  0
  9 10  2  0  0  0  0
  9 17  1  0  0  0  0
 10 13  1  0  0  0  0
 11  9  1  0  0  0  0
 12 11  2  0  0  0  0
 12 16  1  0  0  0  0
 13 15  1  0  0  0  0
 14 17  1  0  0  0  0
 16 14  2  0  0  0  0
 17 15  2  0  0  0  0
 18 11  1  0  0  0  0
 19 18  2  0  0  0  0
 20  3  1  0  0  0  0
 21 20  1  0  0  0  0
 22 24  1  0  0  0  0
 22 27  1  1  0  0  0
 23 25  1  0  0  0  0
 24 25  1  0  0  0  0
 24 21  1  1  0  0  0
 26 23  1  0  0  0  0
 26 22  1  0  0  0  0
 28 29  1  0  0  0  0
 30 29  1  0  0  0  0
 32 33  1  0  0  0  0
 33 31  1  6  0  0  0
 33 30  1  0  0  0  0
M  END
>  <MODEL>
2

>  <REMARK>
 VINA RESULT:      -8.7      2.601      7.627
  Name = 
  9 active torsions:
  status: ('A' for Active; 'I' for Inactive)
    1  A    between atoms: C_7  and  C_8
    2  A    between atoms: C_7  and  C_24
    3  A    between atoms: C_9  and  C_24
    4  A    between atoms: C_10  and  C_11
    5  A    between atoms: C_14  and  C_33
    6  A    between atoms: C_17  and  C_27
    7  A    between atoms: C_20  and  C_32
    8  A    between atoms: C_31  and  C_32
    9  A    between atoms: C_31  and  C_33
                            x       y       z     vdW  Elec       q    Type
                         _______ _______ _______ _____ _____    ______ ____

>  <TORSDO>
F 9

$$$$
=
 OpenBabel10222419463D

 33 36  0  0  1  0  0  0  0  0999 V2000
  185.9570  178.6920  140.3880 N   0  0  0  0  0  0  0  0  0  0  0  0
  187.9420  177.8250  139.5050 O   0  0  0  0  0  0  0  0  0  0  0  0
  186.7740  178.2490  139.2930 C   0  0  0  0  0  0  0  0  0  0  0  0
  183.6230  178.7390  141.0800 C   0  0  0  0  0  2  0  0  0  0  0  0
  184.0800  178.8300  142.5370 C   0  0  2  0  0  3  0  0  0  0  0  0
  184.6720  179.3410  140.1530 C   0  0  0  0  0  2  0  0  0  0  0  0
  186.4830  178.6790  141.7490 C   0  0  0  0  0  2  0  0  0  0  0  0
  185.4350  178.1200  142.7130 C   0  0  1  0  0  3  0  0  0  0  0  0
  187.4530  177.5410  145.8890 C   0  0  0  0  0  0  0  0  0  0  0  0
  188.4630  176.9260  146.5990 C   0  0  0  0  0  3  0  0  0  0  0  0
  187.0420  177.4080  144.5480 C   0  0  0  0  0  0  0  0  0  0  0  0
  185.9420  178.2020  144.1290 C   0  0  0  0  0  0  0  0  0  0  0  0
  188.4510  177.3960  147.8690 N   0  0  0  0  0  2  0  0  0  0  0  0
  185.7500  179.1830  146.3710 C   0  0  0  0  0  3  0  0  0  0  0  0
  187.4480  178.3000  147.9760 C   0  0  0  0  0  3  0  0  0  0  0  0
  185.3100  179.0800  145.0430 C   0  0  0  0  0  3  0  0  0  0  0  0
  186.8270  178.3950  146.7540 C   0  0  0  0  0  0  0  0  0  0  0  0
  187.6970  176.4930  143.5840 C   0  0  0  0  0  3  0  0  0  0  0  0
  188.9940  176.5060  143.3030 C   0  0  0  0  0  2  0  0  0  0  0  0
  186.2590  178.2660  137.8880 C   0  0  0  0  0  2  0  0  0  0  0  0
  186.3380  176.8800  137.2530 C   0  0  0  0  0  2  0  0  0  0  0  0
  185.0030  174.7450  136.6820 C   0  0  2  0  0  3  0  0  0  0  0  0
  183.0920  175.4420  137.9340 C   0  0  0  0  0  2  0  0  0  0  0  0
  184.9710  176.2240  137.0160 C   0  0  1  0  0  3  0  0  0  0  0  0
  184.0780  176.4350  138.0750 O   0  0  0  0  0  0  0  0  0  0  0  0
  183.6240  174.3090  137.0750 C   0  0  0  0  0  2  0  0  0  0  0  0
  185.9280  174.0600  137.4740 O   0  0  0  0  0  1  0  0  0  0  0  0
  183.0210  178.1960  143.4340 C   0  0  0  0  0  2  0  0  0  0  0  0
  181.9420  179.2020  143.8010 C   0  0  0  0  0  2  0  0  0  0  0  0
  180.5740  178.5430  143.8090 C   0  0  0  0  0  2  0  0  0  0  0  0
  179.9700  178.3090  141.5150 O   0  0  0  0  0  1  0  0  0  0  0  0
  180.0820  180.4520  142.4010 N   0  0  0  0  0  1  0  0  0  0  0  0
  179.7330  179.0670  142.6610 C   0  0  2  0  0  3  0  0  0  0  0  0
  1  7  1  0  0  0  0
  3  2  2  0  0  0  0
  3  1  1  0  0  0  0
  4  5  1  0  0  0  0
  5  8  1  0  0  0  0
  5 28  1  1  0  0  0
  6  1  1  0  0  0  0
  6  4  1  0  0  0  0
  7  8  1  0  0  0  0
  8 12  1  1  0  0  0
  9 10  2  0  0  0  0
  9 17  1  0  0  0  0
 10 13  1  0  0  0  0
 11  9  1  0  0  0  0
 12 11  2  0  0  0  0
 12 16  1  0  0  0  0
 13 15  1  0  0  0  0
 14 17  1  0  0  0  0
 16 14  2  0  0  0  0
 17 15  2  0  0  0  0
 18 11  1  0  0  0  0
 19 18  2  0  0  0  0
 20  3  1  0  0  0  0
 21 20  1  0  0  0  0
 22 24  1  0  0  0  0
 22 26  1  0  0  0  0
 22 27  1  1  0  0  0
 23 25  1  0  0  0  0
 24 21  1  1  0  0  0
 24 25  1  0  0  0  0
 26 23  1  0  0  0  0
 28 29  1  0  0  0  0
 29 30  1  0  0  0  0
 32 33  1  0  0  0  0
 33 31  1  6  0  0  0
 33 30  1  0  0  0  0
M  END
>  <MODEL>
3

>  <REMARK>
 VINA RESULT:      -8.5      3.217      6.832
  Name = 
  9 active torsions:
  status: ('A' for Active; 'I' for Inactive)
    1  A    between atoms: C_7  and  C_8
    2  A    between atoms: C_7  and  C_24
    3  A    between atoms: C_9  and  C_24
    4  A    between atoms: C_10  and  C_11
    5  A    between atoms: C_14  and  C_33
    6  A    between atoms: C_17  and  C_27
    7  A    between atoms: C_20  and  C_32
    8  A    between atoms: C_31  and  C_32
    9  A    between atoms: C_31  and  C_33
                            x       y       z     vdW  Elec       q    Type
                         _______ _______ _______ _____ _____    ______ ____

>  <TORSDO>
F 9

$$$$
=
 OpenBabel10222419463D

 33 36  0  0  1  0  0  0  0  0999 V2000
  189.2310  177.2120  140.4020 N   0  0  0  0  0  0  0  0  0  0  0  0
  187.8400  177.8270  138.6270 O   0  0  0  0  0  0  0  0  0  0  0  0
  188.9870  177.4730  139.0120 C   0  0  0  0  0  0  0  0  0  0  0  0
  191.0040  177.4150  142.0600 C   0  0  0  0  0  2  0  0  0  0  0  0
  189.9410  177.4440  143.1600 C   0  0  2  0  0  3  0  0  0  0  0  0
  190.4980  176.6410  140.8490 C   0  0  0  0  0  2  0  0  0  0  0  0
  188.1480  177.3280  141.3740 C   0  0  0  0  0  2  0  0  0  0  0  0
  188.6380  178.0640  142.6230 C   0  0  1  0  0  3  0  0  0  0  0  0
  185.3430  178.7100  144.4160 C   0  0  0  0  0  0  0  0  0  0  0  0
  184.0640  179.2250  144.4740 C   0  0  0  0  0  3  0  0  0  0  0  0
  186.3070  178.7240  143.3890 C   0  0  0  0  0  0  0  0  0  0  0  0
  187.5490  178.0930  143.6630 C   0  0  0  0  0  0  0  0  0  0  0  0
  183.5380  178.9510  145.6920 N   0  0  0  0  0  2  0  0  0  0  0  0
  186.7880  177.4920  145.9180 C   0  0  0  0  0  3  0  0  0  0  0  0
  184.4640  178.2690  146.4080 C   0  0  0  0  0  3  0  0  0  0  0  0
  187.7750  177.4840  144.9220 C   0  0  0  0  0  3  0  0  0  0  0  0
  185.5830  178.1170  145.6240 C   0  0  0  0  0  0  0  0  0  0  0  0
  186.0800  179.3580  142.0690 C   0  0  0  0  0  3  0  0  0  0  0  0
  185.0930  179.0330  141.2430 C   0  0  0  0  0  2  0  0  0  0  0  0
  190.0800  177.3480  137.9980 C   0  0  0  0  0  2  0  0  0  0  0  0
  190.0520  175.9810  137.3200 C   0  0  0  0  0  2  0  0  0  0  0  0
  188.1760  175.0000  135.8420 C   0  0  2  0  0  3  0  0  0  0  0  0
  187.9150  177.0220  134.5970 C   0  0  0  0  0  2  0  0  0  0  0  0
  189.3340  175.9720  135.9640 C   0  0  1  0  0  3  0  0  0  0  0  0
  188.9060  177.2470  135.5690 O   0  0  0  0  0  0  0  0  0  0  0  0
  187.3770  175.6080  134.7290 C   0  0  0  0  0  2  0  0  0  0  0  0
  187.3910  174.9900  136.9980 O   0  0  0  0  0  1  0  0  0  0  0  0
  190.4690  178.2470  144.3450 C   0  0  0  0  0  2  0  0  0  0  0  0
  191.3330  177.3840  145.2500 C   0  0  0  0  0  2  0  0  0  0  0  0
  190.5960  177.0460  146.5340 C   0  0  0  0  0  2  0  0  0  0  0  0
  192.2640  177.1370  148.2340 O   0  0  0  0  0  1  0  0  0  0  0  0
  192.3790  175.4140  146.6820 N   0  0  0  0  0  1  0  0  0  0  0  0
  191.4980  176.2600  147.4660 C   0  0  2  0  0  3  0  0  0  0  0  0
  1  6  1  0  0  0  0
  1  7  1  0  0  0  0
  2  3  2  0  0  0  0
  3  1  1  0  0  0  0
  4  5  1  0  0  0  0
  5 28  1  1  0  0  0
  6  4  1  0  0  0  0
  7  8  1  0  0  0  0
  8  5  1  0  0  0  0
  8 12  1  1  0  0  0
  9 10  2  0  0  0  0
  9 17  1  0  0  0  0
 10 13  1  0  0  0  0
 11 12  2  0  0  0  0
 11  9  1  0  0  0  0
 12 16  1  0  0  0  0
 13 15  1  0  0  0  0
 16 14  2  0  0  0  0
 17 14  1  0  0  0  0
 17 15  2  0  0  0  0
 18 11  1  0  0  0  0
 19 18  2  0  0  0  0
 20  3  1  0  0  0  0
 21 20  1  0  0  0  0
 22 24  1  0  0  0  0
 22 27  1  1  0  0  0
 23 26  1  0  0  0  0
 23 25  1  0  0  0  0
 24 21  1  1  0  0  0
 25 24  1  0  0  0  0
 26 22  1  0  0  0  0
 28 29  1  0  0  0  0
 29 30  1  0  0  0  0
 30 33  1  0  0  0  0
 33 32  1  6  0  0  0
 33 31  1  0  0  0  0
M  END
>  <MODEL>
4

>  <REMARK>
 VINA RESULT:      -8.3      3.458      7.803
  Name = 
  9 active torsions:
  status: ('A' for Active; 'I' for Inactive)
    1  A    between atoms: C_7  and  C_8
    2  A    between atoms: C_7  and  C_24
    3  A    between atoms: C_9  and  C_24
    4  A    between atoms: C_10  and  C_11
    5  A    between atoms: C_14  and  C_33
    6  A    between atoms: C_17  and  C_27
    7  A    between atoms: C_20  and  C_32
    8  A    between atoms: C_31  and  C_32
    9  A    between atoms: C_31  and  C_33
                            x       y       z     vdW  Elec       q    Type
                         _______ _______ _______ _____ _____    ______ ____

>  <TORSDO>
F 9

$$$$
=
 OpenBabel10222419463D

 33 36  0  0  1  0  0  0  0  0999 V2000
  187.9200  177.9890  141.0330 N   0  0  0  0  0  0  0  0  0  0  0  0
  189.8800  176.7560  140.7100 O   0  0  0  0  0  0  0  0  0  0  0  0
  188.8750  177.3170  140.1970 C   0  0  0  0  0  0  0  0  0  0  0  0
  185.5310  178.4470  141.1490 C   0  0  0  0  0  2  0  0  0  0  0  0
  185.6620  178.6300  142.6620 C   0  0  2  0  0  3  0  0  0  0  0  0
  186.8430  178.7860  140.4540 C   0  0  0  0  0  2  0  0  0  0  0  0
  188.1210  178.0510  142.4770 C   0  0  0  0  0  2  0  0  0  0  0  0
  186.8080  177.7570  143.2050 C   0  0  1  0  0  3  0  0  0  0  0  0
  188.2940  177.6870  146.7090 C   0  0  0  0  0  0  0  0  0  0  0  0
  189.3040  177.3930  147.6020 C   0  0  0  0  0  3  0  0  0  0  0  0
  188.1990  177.5030  145.3160 C   0  0  0  0  0  0  0  0  0  0  0  0
  186.9950  177.9200  144.6900 C   0  0  0  0  0  0  0  0  0  0  0  0
  188.9090  177.7640  148.8430 N   0  0  0  0  0  2  0  0  0  0  0  0
  186.0900  178.6620  146.8480 C   0  0  0  0  0  3  0  0  0  0  0  0
  187.6640  178.2880  148.7520 C   0  0  0  0  0  3  0  0  0  0  0  0
  185.9560  178.4950  145.4620 C   0  0  0  0  0  3  0  0  0  0  0  0
  187.2780  178.2440  147.4340 C   0  0  0  0  0  0  0  0  0  0  0  0
  189.2810  176.9020  144.4990 C   0  0  0  0  0  3  0  0  0  0  0  0
  190.5770  177.0710  144.7340 C   0  0  0  0  0  2  0  0  0  0  0  0
  188.6930  177.2530  138.7130 C   0  0  0  0  0  2  0  0  0  0  0  0
  189.9770  177.6380  137.9810 C   0  0  0  0  0  2  0  0  0  0  0  0
  192.1610  176.3850  137.4100 C   0  0  2  0  0  3  0  0  0  0  0  0
  191.0600  174.2730  137.2250 C   0  0  0  0  0  2  0  0  0  0  0  0
  190.6540  176.4680  137.2550 C   0  0  1  0  0  3  0  0  0  0  0  0
  190.0910  175.2280  137.5810 O   0  0  0  0  0  0  0  0  0  0  0  0
  192.4220  174.9370  137.1240 C   0  0  0  0  0  2  0  0  0  0  0  0
  192.5580  176.6580  138.7220 O   0  0  0  0  0  1  0  0  0  0  0  0
  184.3410  178.2570  143.3280 C   0  0  0  0  0  2  0  0  0  0  0  0
  183.1590  178.6320  142.4480 C   0  0  0  0  0  2  0  0  0  0  0  0
  181.9890  179.1020  143.2930 C   0  0  0  0  0  2  0  0  0  0  0  0
  181.1410  179.4280  141.0880 O   0  0  0  0  0  1  0  0  0  0  0  0
  180.0640  180.5030  142.8420 N   0  0  0  0  0  1  0  0  0  0  0  0
  180.7610  179.3000  142.4240 C   0  0  2  0  0  3  0  0  0  0  0  0
  1  7  1  0  0  0  0
  3  2  2  0  0  0  0
  3  1  1  0  0  0  0
  4  5  1  0  0  0  0
  5  8  1  0  0  0  0
  5 28  1  1  0  0  0
  6  1  1  0  0  0  0
  6  4  1  0  0  0  0
  7  8  1  0  0  0  0
  8 12  1  1  0  0  0
  9 17  1  0  0  0  0
  9 10  2  0  0  0  0
 10 13  1  0  0  0  0
 11  9  1  0  0  0  0
 12 11  2  0  0  0  0
 12 16  1  0  0  0  0
 14 17  1  0  0  0  0
 15 13  1  0  0  0  0
 16 14  2  0  0  0  0
 17 15  2  0  0  0  0
 18 19  2  0  0  0  0
 18 11  1  0  0  0  0
 20  3  1  0  0  0  0
 21 20  1  0  0  0  0
 22 27  1  1  0  0  0
 23 25  1  0  0  0  0
 24 22  1  0  0  0  0
 24 25  1  0  0  0  0
 24 21  1  1  0  0  0
 26 23  1  0  0  0  0
 26 22  1  0  0  0  0
 29 30  1  0  0  0  0
 29 28  1  0  0  0  0
 33 31  1  6  0  0  0
 33 32  1  0  0  0  0
 33 30  1  0  0  0  0
M  END
>  <MODEL>
5

>  <REMARK>
 VINA RESULT:      -8.1      2.253      7.946
  Name = 
  9 active torsions:
  status: ('A' for Active; 'I' for Inactive)
    1  A    between atoms: C_7  and  C_8
    2  A    between atoms: C_7  and  C_24
    3  A    between atoms: C_9  and  C_24
    4  A    between atoms: C_10  and  C_11
    5  A    between atoms: C_14  and  C_33
    6  A    between atoms: C_17  and  C_27
    7  A    between atoms: C_20  and  C_32
    8  A    between atoms: C_31  and  C_32
    9  A    between atoms: C_31  and  C_33
                            x       y       z     vdW  Elec       q    Type
                         _______ _______ _______ _____ _____    ______ ____

>  <TORSDO>
F 9

$$$$
=
 OpenBabel10222419463D

 33 36  0  0  1  0  0  0  0  0999 V2000
  183.6660  178.3180  140.6190 N   0  0  0  0  0  0  0  0  0  0  0  0
  181.6230  178.9230  141.5800 O   0  0  0  0  0  0  0  0  0  0  0  0
  182.3050  178.7650  140.5320 C   0  0  0  0  0  0  0  0  0  0  0  0
  185.8040  178.6020  139.4880 C   0  0  0  0  0  2  0  0  0  0  0  0
  186.5160  178.1970  140.7800 C   0  0  2  0  0  3  0  0  0  0  0  0
  184.4210  177.9670  139.4200 C   0  0  0  0  0  2  0  0  0  0  0  0
  184.2600  178.0150  141.9180 C   0  0  0  0  0  2  0  0  0  0  0  0
  185.6700  178.6030  142.0010 C   0  0  1  0  0  3  0  0  0  0  0  0
  186.4650  178.2560  145.7080 C   0  0  0  0  0  0  0  0  0  0  0  0
  186.2250  178.5280  147.0390 C   0  0  0  0  0  3  0  0  0  0  0  0
  185.8010  178.6720  144.5380 C   0  0  0  0  0  0  0  0  0  0  0  0
  186.3170  178.2030  143.3020 C   0  0  0  0  0  0  0  0  0  0  0  0
  187.1540  177.8870  147.7890 N   0  0  0  0  0  2  0  0  0  0  0  0
  188.0850  176.9630  144.4690 C   0  0  0  0  0  3  0  0  0  0  0  0
  187.9800  177.2120  146.9530 C   0  0  0  0  0  3  0  0  0  0  0  0
  187.4510  177.3550  143.2810 C   0  0  0  0  0  3  0  0  0  0  0  0
  187.5580  177.4360  145.6650 C   0  0  0  0  0  0  0  0  0  0  0  0
  184.6140  179.5600  144.5490 C   0  0  0  0  0  3  0  0  0  0  0  0
  183.4030  179.1860  144.9460 C   0  0  0  0  0  2  0  0  0  0  0  0
  181.6740  179.0690  139.2100 C   0  0  0  0  0  2  0  0  0  0  0  0
  182.2140  180.3710  138.6240 C   0  0  0  0  0  2  0  0  0  0  0  0
  180.8310  182.1690  137.3920 C   0  0  2  0  0  3  0  0  0  0  0  0
  179.1300  182.2030  139.0690 C   0  0  0  0  0  2  0  0  0  0  0  0
  181.2350  181.5490  138.7150 C   0  0  1  0  0  3  0  0  0  0  0  0
  180.0820  181.2400  139.4480 O   0  0  0  0  0  0  0  0  0  0  0  0
  179.5290  182.8240  137.7420 C   0  0  0  0  0  2  0  0  0  0  0  0
  180.5910  181.1940  136.4200 O   0  0  0  0  0  1  0  0  0  0  0  0
  187.8850  178.8690  140.8290 C   0  0  0  0  0  2  0  0  0  0  0  0
  188.7420  178.4530  139.6440 C   0  0  0  0  0  2  0  0  0  0  0  0
  189.4360  177.1310  139.9220 C   0  0  0  0  0  2  0  0  0  0  0  0
  191.7160  177.5090  140.5070 O   0  0  0  0  0  1  0  0  0  0  0  0
  190.4640  176.0900  141.8520 N   0  0  0  0  0  1  0  0  0  0  0  0
  190.4460  177.2940  141.0420 C   0  0  2  0  0  3  0  0  0  0  0  0
  1  7  1  0  0  0  0
  3  1  1  0  0  0  0
  3  2  2  0  0  0  0
  4  5  1  0  0  0  0
  5 28  1  1  0  0  0
  5  8  1  0  0  0  0
  6  4  1  0  0  0  0
  6  1  1  0  0  0  0
  7  8  1  0  0  0  0
  8 12  1  1  0  0  0
  9 10  2  0  0  0  0
 10 13  1  0  0  0  0
 11 18  1  0  0  0  0
 11  9  1  0  0  0  0
 12 11  2  0  0  0  0
 14 17  1  0  0  0  0
 15 13  1  0  0  0  0
 16 12  1  0  0  0  0
 16 14  2  0  0  0  0
 17  9  1  0  0  0  0
 17 15  2  0  0  0  0
 18 19  2  0  0  0  0
 20  3  1  0  0  0  0
 21 20  1  0  0  0  0
 22 27  1  6  0  0  0
 22 26  1  0  0  0  0
 22 24  1  0  0  0  0
 23 25  1  0  0  0  0
 24 21  1  6  0  0  0
 24 25  1  0  0  0  0
 26 23  1  0  0  0  0
 29 30  1  0  0  0  0
 29 28  1  0  0  0  0
 30 33  1  0  0  0  0
 33 31  1  6  0  0  0
 33 32  1  0  0  0  0
M  END
>  <MODEL>
6

>  <REMARK>
 VINA RESULT:      -8.0      3.020      4.457
  Name = 
  9 active torsions:
  status: ('A' for Active; 'I' for Inactive)
    1  A    between atoms: C_7  and  C_8
    2  A    between atoms: C_7  and  C_24
    3  A    between atoms: C_9  and  C_24
    4  A    between atoms: C_10  and  C_11
    5  A    between atoms: C_14  and  C_33
    6  A    between atoms: C_17  and  C_27
    7  A    between atoms: C_20  and  C_32
    8  A    between atoms: C_31  and  C_32
    9  A    between atoms: C_31  and  C_33
                            x       y       z     vdW  Elec       q    Type
                         _______ _______ _______ _____ _____    ______ ____

>  <TORSDO>
F 9

$$$$
=
 OpenBabel10222419463D

 33 36  0  0  1  0  0  0  0  0999 V2000
  189.5470  177.2170  142.0760 N   0  0  0  0  0  0  0  0  0  0  0  0
  191.0940  176.6210  143.7250 O   0  0  0  0  0  0  0  0  0  0  0  0
  190.0550  177.2650  143.4180 C   0  0  0  0  0  0  0  0  0  0  0  0
  188.4000  178.6310  140.4590 C   0  0  0  0  0  2  0  0  0  0  0  0
  188.9730  177.7680  139.3330 C   0  0  2  0  0  3  0  0  0  0  0  0
  188.2600  177.8140  141.7370 C   0  0  0  0  0  2  0  0  0  0  0  0
  190.2140  176.4000  141.0660 C   0  0  0  0  0  2  0  0  0  0  0  0
  190.3310  177.1780  139.7540 C   0  0  1  0  0  3  0  0  0  0  0  0
  192.7900  175.5190  137.3680 C   0  0  0  0  0  0  0  0  0  0  0  0
  194.0530  175.3470  136.8400 C   0  0  0  0  0  3  0  0  0  0  0  0
  192.3120  176.3720  138.3820 C   0  0  0  0  0  0  0  0  0  0  0  0
  190.9270  176.2990  138.6870 C   0  0  0  0  0  0  0  0  0  0  0  0
  193.9960  174.3990  135.8750 N   0  0  0  0  0  0  0  0  0  0  0  0
  190.6070  174.5620  136.9820 C   0  0  0  0  0  2  0  0  0  0  0  0
  192.7160  173.9660  135.7820 C   0  0  0  0  0  3  0  0  0  0  0  0
  190.0920  175.3950  137.9850 C   0  0  0  0  0  3  0  0  0  0  0  0
  191.9650  174.6540  136.7040 C   0  0  0  0  0  0  0  0  0  0  0  0
  193.1770  177.3210  139.1220 C   0  0  0  0  0  3  0  0  0  0  0  0
  193.8610  177.0110  140.2180 C   0  0  0  0  0  2  0  0  0  0  0  0
  189.3800  178.0860  144.4720 C   0  0  0  0  0  2  0  0  0  0  0  0
  188.7080  177.2000  145.5180 C   0  0  0  0  0  2  0  0  0  0  0  0
  186.8190  177.8210  147.1650 C   0  0  2  0  0  3  0  0  0  0  0  0
  185.5710  178.9980  145.5020 C   0  0  0  0  0  2  0  0  0  0  0  0
  187.2210  177.5110  145.7360 C   0  0  1  0  0  3  0  0  0  0  0  0
  186.7520  178.5300  144.8970 O   0  0  0  0  0  0  0  0  0  0  0  0
  185.5570  178.6050  146.9690 C   0  0  0  0  0  2  0  0  0  0  0  0
  187.7590  178.6420  147.7960 O   0  0  0  0  0  1  0  0  0  0  0  0
  189.1250  178.6220  138.0770 C   0  0  0  0  0  2  0  0  0  0  0  0
  187.8450  178.6210  137.2570 C   0  0  0  0  0  2  0  0  0  0  0  0
  187.1630  177.2670  137.3270 C   0  0  0  0  0  2  0  0  0  0  0  0
  184.9800  177.5000  136.3960 O   0  0  0  0  0  1  0  0  0  0  0  0
  185.4680  178.6690  138.3420 N   0  0  0  0  0  1  0  0  0  0  0  0
  185.6810  177.4390  137.6010 C   0  0  2  0  0  3  0  0  0  0  0  0
  1  3  1  0  0  0  0
  3  2  2  0  0  0  0
  3 20  1  0  0  0  0
  4  6  1  0  0  0  0
  5 28  1  6  0  0  0
  5  8  1  0  0  0  0
  5  4  1  0  0  0  0
  6  1  1  0  0  0  0
  7  1  1  0  0  0  0
  8 12  1  6  0  0  0
  8  7  1  0  0  0  0
  9 11  2  0  0  0  0
 10  9  1  0  0  0  0
 11 12  1  0  0  0  0
 11 18  1  0  0  0  0
 13 10  2  0  0  0  0
 14 16  1  0  0  0  0
 15 13  1  0  0  0  0
 15 17  2  0  0  0  0
 16 12  2  0  0  0  0
 17 14  1  0  0  0  0
 17  9  1  0  0  0  0
 18 19  2  0  0  0  0
 20 21  1  0  0  0  0
 22 27  1  6  0  0  0
 23 26  1  0  0  0  0
 24 21  1  1  0  0  0
 24 22  1  0  0  0  0
 25 23  1  0  0  0  0
 25 24  1  0  0  0  0
 26 22  1  0  0  0  0
 29 30  1  0  0  0  0
 29 28  1  0  0  0  0
 30 33  1  0  0  0  0
 33 31  1  6  0  0  0
 33 32  1  0  0  0  0
M  END
>  <MODEL>
7

>  <REMARK>
 VINA RESULT:      -7.9      3.714      7.089
  Name = 
  9 active torsions:
  status: ('A' for Active; 'I' for Inactive)
    1  A    between atoms: C_7  and  C_8
    2  A    between atoms: C_7  and  C_24
    3  A    between atoms: C_9  and  C_24
    4  A    between atoms: C_10  and  C_11
    5  A    between atoms: C_14  and  C_33
    6  A    between atoms: C_17  and  C_27
    7  A    between atoms: C_20  and  C_32
    8  A    between atoms: C_31  and  C_32
    9  A    between atoms: C_31  and  C_33
                            x       y       z     vdW  Elec       q    Type
                         _______ _______ _______ _____ _____    ______ ____

>  <TORSDO>
F 9

$$$$
=
 OpenBabel10222419463D

 33 36  0  0  1  0  0  0  0  0999 V2000
  187.1260  178.4420  141.5840 N   0  0  0  0  0  0  0  0  0  0  0  0
  185.6960  179.0300  139.8300 O   0  0  0  0  0  0  0  0  0  0  0  0
  185.8420  178.8220  141.0640 C   0  0  0  0  0  0  0  0  0  0  0  0
  188.1000  177.0660  143.3410 C   0  0  0  0  0  2  0  0  0  0  0  0
  189.3860  176.9670  142.5190 C   0  0  2  0  0  3  0  0  0  0  0  0
  187.3610  178.3600  143.0210 C   0  0  0  0  0  2  0  0  0  0  0  0
  188.2750  178.3230  140.6910 C   0  0  0  0  0  2  0  0  0  0  0  0
  189.0640  177.0540  141.0160 C   0  0  1  0  0  3  0  0  0  0  0  0
  191.4570  176.3810  138.1330 C   0  0  1  0  0  3  0  0  0  0  0  0
  191.7470  175.8990  136.8730 C   0  0  0  0  0  3  0  0  0  0  0  0
  190.2550  176.4090  138.8660 C   0  0  0  0  0  0  0  0  0  0  0  0
  190.3030  176.9860  140.1620 C   0  0  0  0  0  0  0  0  0  0  0  0
  193.0610  176.1060  136.6190 N   0  0  0  0  0  0  0  0  0  0  0  0
  192.6990  177.4550  139.9030 C   0  0  0  0  0  3  0  0  0  0  0  0
  193.6100  176.7120  137.6990 C   0  0  0  0  0  3  0  0  0  0  0  0
  191.5230  177.5020  140.6650 C   0  0  0  0  0  3  0  0  0  0  0  0
  192.6230  176.8850  138.6390 C   0  0  0  0  0  0  0  0  0  0  0  0
  188.9740  175.8720  138.3480 C   0  0  0  0  0  3  0  0  0  0  0  0
  188.2040  176.4950  137.4650 C   0  0  0  0  0  2  0  0  0  0  0  0
  184.6550  178.9620  141.9640 C   0  0  0  0  0  2  0  0  0  0  0  0
  183.4410  178.2300  141.3960 C   0  0  0  0  0  2  0  0  0  0  0  0
  180.9320  178.5140  140.8540 C   0  0  2  0  0  3  0  0  0  0  0  0
  180.3460  178.9130  143.1350 C   0  0  0  0  0  2  0  0  0  0  0  0
  182.0980  178.8820  141.7510 C   0  0  1  0  0  3  0  0  0  0  0  0
  181.7320  178.6750  143.0880 O   0  0  0  0  0  0  0  0  0  0  0  0
  179.7580  178.7980  141.7400 C   0  0  0  0  0  2  0  0  0  0  0  0
  180.9350  177.1510  140.5430 O   0  0  0  0  0  1  0  0  0  0  0  0
  190.0880  175.6510  142.8430 C   0  0  0  0  0  2  0  0  0  0  0  0
  191.3560  175.8900  143.6460 C   0  0  0  0  0  2  0  0  0  0  0  0
  191.3280  177.2600  144.3000 C   0  0  0  0  0  2  0  0  0  0  0  0
  192.0490  175.9200  146.1350 O   0  0  0  0  0  1  0  0  0  0  0  0
  190.0930  177.1460  146.3810 N   0  0  0  0  0  1  0  0  0  0  0  0
  191.4260  177.1240  145.8080 C   0  0  2  0  0  3  0  0  0  0  0  0
  1  6  1  0  0  0  0
  2  3  2  0  0  0  0
  3  1  1  0  0  0  0
  3 20  1  0  0  0  0
  5 28  1  6  0  0  0
  5  4  1  0  0  0  0
  6  4  1  0  0  0  0
  7  8  1  0  0  0  0
  7  1  1  0  0  0  0
  8 12  1  6  0  0  0
  8  5  1  0  0  0  0
  9 10  1  1  0  0  0
  9 17  1  0  0  0  0
  9 11  1  0  0  0  0
 11 12  2  0  0  0  0
 12 16  1  0  0  0  0
 13 10  2  0  0  0  0
 13 15  1  0  0  0  0
 14 16  2  0  0  0  0
 15 17  2  0  0  0  0
 17 14  1  0  0  0  0
 18 11  1  0  0  0  0
 19 18  2  0  0  0  0
 21 20  1  0  0  0  0
 22 27  1  1  0  0  0
 22 26  1  0  0  0  0
 22 24  1  0  0  0  0
 24 21  1  6  0  0  0
 24 25  1  0  0  0  0
 25 23  1  0  0  0  0
 26 23  1  0  0  0  0
 28 29  1  0  0  0  0
 29 30  1  0  0  0  0
 30 33  1  0  0  0  0
 33 31  1  6  0  0  0
 33 32  1  0  0  0  0
M  END
>  <MODEL>
8

>  <REMARK>
 VINA RESULT:      -7.9      2.474      5.882
  Name = 
  9 active torsions:
  status: ('A' for Active; 'I' for Inactive)
    1  A    between atoms: C_7  and  C_8
    2  A    between atoms: C_7  and  C_24
    3  A    between atoms: C_9  and  C_24
    4  A    between atoms: C_10  and  C_11
    5  A    between atoms: C_14  and  C_33
    6  A    between atoms: C_17  and  C_27
    7  A    between atoms: C_20  and  C_32
    8  A    between atoms: C_31  and  C_32
    9  A    between atoms: C_31  and  C_33
                            x       y       z     vdW  Elec       q    Type
                         _______ _______ _______ _____ _____    ______ ____

>  <TORSDO>
F 9

$$$$
=
 OpenBabel10222419463D

 33 36  0  0  1  0  0  0  0  0999 V2000
  187.0410  178.4000  139.6730 N   0  0  0  0  0  0  0  0  0  0  0  0
  189.2830  177.7420  139.6010 O   0  0  0  0  0  0  0  0  0  0  0  0
  188.2160  177.9680  138.9700 C   0  0  0  0  0  0  0  0  0  0  0  0
  184.6180  178.1810  139.5770 C   0  0  0  0  0  2  0  0  0  0  0  0
  184.5530  178.4890  141.0740 C   0  0  2  0  0  3  0  0  0  0  0  0
  185.8470  178.8280  138.9520 C   0  0  0  0  0  2  0  0  0  0  0  0
  187.0830  178.6060  141.1180 C   0  0  0  0  0  2  0  0  0  0  0  0
  185.8370  178.0050  141.7720 C   0  0  1  0  0  3  0  0  0  0  0  0
  186.6360  177.9510  145.4930 C   0  0  0  0  0  0  0  0  0  0  0  0
  187.3270  177.4730  146.5880 C   0  0  0  0  0  3  0  0  0  0  0  0
  186.7030  177.6120  144.1280 C   0  0  0  0  0  0  0  0  0  0  0  0
  185.8340  178.3080  143.2470 C   0  0  0  0  0  0  0  0  0  0  0  0
  186.8960  178.1250  147.6940 N   0  0  0  0  0  2  0  0  0  0  0  0
  184.9160  179.6040  145.1190 C   0  0  0  0  0  3  0  0  0  0  0  0
  185.9410  179.0100  147.3190 C   0  0  0  0  0  3  0  0  0  0  0  0
  184.9520  179.2950  143.7510 C   0  0  0  0  0  3  0  0  0  0  0  0
  185.7760  178.9080  145.9580 C   0  0  0  0  0  0  0  0  0  0  0  0
  187.6220  176.5810  143.5900 C   0  0  0  0  0  3  0  0  0  0  0  0
  188.9460  176.6830  143.5970 C   0  0  0  0  0  2  0  0  0  0  0  0
  188.1980  177.7630  137.4880 C   0  0  0  0  0  2  0  0  0  0  0  0
  188.7070  176.3720  137.1160 C   0  0  0  0  0  2  0  0  0  0  0  0
  191.1100  175.4580  137.3550 C   0  0  2  0  0  3  0  0  0  0  0  0
  191.5590  175.6450  135.0170 C   0  0  0  0  0  2  0  0  0  0  0  0
  190.1510  176.3560  136.5970 C   0  0  1  0  0  3  0  0  0  0  0  0
  190.2330  176.0620  135.2290 O   0  0  0  0  0  0  0  0  0  0  0  0
  192.1790  175.2140  136.3340 C   0  0  0  0  0  2  0  0  0  0  0  0
  190.5180  174.2350  137.6810 O   0  0  0  0  0  1  0  0  0  0  0  0
  183.3270  177.8070  141.6730 C   0  0  0  0  0  2  0  0  0  0  0  0
  182.0870  178.6730  141.5170 C   0  0  0  0  0  2  0  0  0  0  0  0
  181.4930  179.0090  142.8740 C   0  0  0  0  0  2  0  0  0  0  0  0
  179.4960  178.6840  141.6130 O   0  0  0  0  0  1  0  0  0  0  0  0
  179.8450  180.7610  142.5900 N   0  0  0  0  0  1  0  0  0  0  0  0
  180.0160  179.3270  142.7360 C   0  0  2  0  0  3  0  0  0  0  0  0
  1  7  1  0  0  0  0
  3  2  2  0  0  0  0
  3  1  1  0  0  0  0
  4  5  1  0  0  0  0
  5 28  1  1  0  0  0
  5  8  1  0  0  0  0
  6  4  1  0  0  0  0
  6  1  1  0  0  0  0
  7  8  1  0  0  0  0
  8 12  1  1  0  0  0
  9 17  1  0  0  0  0
  9 10  2  0  0  0  0
 10 13  1  0  0  0  0
 11  9  1  0  0  0  0
 12 16  1  0  0  0  0
 12 11  2  0  0  0  0
 14 17  1  0  0  0  0
 15 13  1  0  0  0  0
 16 14  2  0  0  0  0
 17 15  2  0  0  0  0
 18 19  2  0  0  0  0
 18 11  1  0  0  0  0
 20  3  1  0  0  0  0
 21 20  1  0  0  0  0
 22 27  1  6  0  0  0
 23 25  1  0  0  0  0
 23 26  1  0  0  0  0
 24 21  1  1  0  0  0
 24 22  1  0  0  0  0
 25 24  1  0  0  0  0
 26 22  1  0  0  0  0
 29 28  1  0  0  0  0
 29 30  1  0  0  0  0
 32 33  1  0  0  0  0
 33 31  1  6  0  0  0
 33 30  1  0  0  0  0
M  END
>  <MODEL>
9

>  <REMARK>
 VINA RESULT:      -7.8      2.791      8.443
  Name = 
  9 active torsions:
  status: ('A' for Active; 'I' for Inactive)
    1  A    between atoms: C_7  and  C_8
    2  A    between atoms: C_7  and  C_24
    3  A    between atoms: C_9  and  C_24
    4  A    between atoms: C_10  and  C_11
    5  A    between atoms: C_14  and  C_33
    6  A    between atoms: C_17  and  C_27
    7  A    between atoms: C_20  and  C_32
    8  A    between atoms: C_31  and  C_32
    9  A    between atoms: C_31  and  C_33
                            x       y       z     vdW  Elec       q    Type
                         _______ _______ _______ _____ _____    ______ ____

>  <TORSDO>
F 9

$$$$
