=
 OpenBabel10222417243D

 57 57  0  0  1  0  0  0  0  0999 V2000
  184.0130  176.8930  138.0880 C   0  0  1  0  0  3  0  0  0  0  0  0
  184.4040  175.3980  136.2670 O   0  0  0  0  0  0  0  0  0  0  0  0
  181.9000  175.7650  138.9770 C   0  0  0  0  0  0  0  0  0  0  0  0
  181.9450  176.3450  140.0950 O   0  0  0  0  0  0  0  0  0  0  0  0
  183.0000  175.8760  138.0570 N   0  0  0  0  0  0  0  0  0  0  0  0
  184.7650  176.6710  136.7720 C   0  0  1  0  0  0  0  0  0  0  0  0
  183.2440  174.9700  136.9530 C   0  0  2  0  0  3  0  0  0  0  0  0
  184.4470  177.6360  135.8100 O   0  0  0  0  0  1  0  0  0  0  0  0
  183.4420  173.5430  137.4730 C   0  0  2  0  0  3  0  0  0  0  0  0
  184.7790  173.3470  137.8280 O   0  0  0  0  0  1  0  0  0  0  0  0
  182.9890  172.5080  136.4350 C   0  0  2  0  0  3  0  0  0  0  0  0
  180.5880  171.5400  136.8100 C   0  0  0  0  0  1  0  0  0  0  0  0
  181.0350  173.4330  135.4940 O   0  0  0  0  0  0  0  0  0  0  0  0
  181.5030  172.5490  136.1950 C   0  0  0  0  0  0  0  0  0  0  0  0
  183.4920  171.0850  136.7400 C   0  0  0  0  0  2  0  0  0  0  0  0
  184.5440  170.5870  135.7640 C   0  0  0  0  0  1  0  0  0  0  0  0
  186.2610  176.7100  137.0620 C   0  0  0  0  0  2  0  0  0  0  0  0
  187.1230  178.0580  136.1000 P   0  0  0  0  0  2  0  0  0  0  0  0
  188.7830  177.2240  136.1680 C   0  0  0  0  0  2  0  0  0  0  0  0
  188.6590  175.9630  136.7580 O   0  0  0  0  0  0  0  0  0  0  0  0
  189.9640  175.5920  137.0800 C   0  0  2  0  0  3  0  0  0  0  0  0
  191.3570  173.7150  137.5050 O   0  0  0  0  0  1  0  0  0  0  0  0
  190.0360  174.0890  137.2670 C   0  0  0  0  0  2  0  0  0  0  0  0
  190.3880  176.2910  138.3560 C   0  0  0  0  0  2  0  0  0  0  0  0
  189.3540  176.2170  139.2930 O   0  0  0  0  0  0  0  0  0  0  0  0
  190.9640  177.9540  140.8130 O   0  0  0  0  0  1  0  0  0  0  0  0
  189.4130  177.6630  140.1870 P   0  0  1  0  0  0  0  0  0  0  0  0
  189.0350  178.8070  139.2710 O   0  0  0  0  0  0  0  0  0  0  0  0
  188.1970  177.5790  141.5390 C   0  0  0  0  0  2  0  0  0  0  0  0
  188.8020  176.9230  142.7740 C   0  0  1  0  0  3  0  0  0  0  0  0
  190.1890  174.9550  142.7730 O   0  0  0  0  0  1  0  0  0  0  0  0
  190.1680  176.3190  142.4700 C   0  0  0  0  0  2  0  0  0  0  0  0
  188.8970  177.9340  143.9070 C   0  0  0  0  0  2  0  0  0  0  0  0
  189.9180  177.4950  144.8980 C   0  0  0  0  0  0  0  0  0  0  0  0
  191.1280  177.8080  144.7150 O   0  0  0  0  0  0  0  0  0  0  0  0
  189.5360  176.7170  145.9910 O   0  0  0  0  0  0  0  0  0  0  0  0
  188.2910  176.7940  147.9290 O   0  0  0  0  0  1  0  0  0  0  0  0
  189.4440  177.2670  147.2980 C   0  0  0  0  0  2  0  0  0  0  0  0
  180.6740  175.0020  138.5960 C   0  0  0  0  0  2  0  0  0  0  0  0
  178.9650  176.2540  137.2760 C   0  0  0  0  0  1  0  0  0  0  0  0
  179.4520  175.9040  138.6760 C   0  0  0  0  0  2  0  0  0  0  0  0
  183.4200  178.2940  138.3450 C   0  0  2  0  0  3  0  0  0  0  0  0
  183.4810  178.6680  139.7180 O   0  0  0  0  0  0  0  0  0  0  0  0
  185.7580  179.0400  139.7510 O   0  0  0  0  0  0  0  0  0  0  0  0
  184.6890  178.8360  140.3940 C   0  0  0  0  0  0  0  0  0  0  0  0
  184.6970  178.7610  141.7860 O   0  0  0  0  0  0  0  0  0  0  0  0
  183.5020  178.6490  142.5410 C   0  0  0  0  0  2  0  0  0  0  0  0
  183.7940  178.9010  144.0110 C   0  0  0  0  0  2  0  0  0  0  0  0
  185.1010  178.2410  144.4290 C   0  0  0  0  0  2  0  0  0  0  0  0
  185.1600  178.4140  146.6310 C   0  0  0  0  0  1  0  0  0  0  0  0
  185.7030  178.9580  145.4660 O   0  0  0  0  0  0  0  0  0  0  0  0
  182.0250  178.4740  137.7440 C   0  0  0  0  0  2  0  0  0  0  0  0
  181.5780  179.8540  137.8620 N   0  0  0  0  0  2  0  0  0  0  0  0
  180.6190  180.4270  136.9700 C   0  0  0  0  0  0  0  0  0  0  0  0
  180.0630  179.7230  136.0830 O   0  0  0  0  0  0  0  0  0  0  0  0
  180.2660  181.8680  137.0830 C   0  0  0  0  0  2  0  0  0  0  0  0
  180.3700  182.5340  135.7320 C   0  0  0  0  0  1  0  0  0  0  0  0
  1 42  1  6  0  0  0
  2  6  1  0  0  0  0
  2  7  1  0  0  0  0
  3  4  2  0  0  0  0
  5  1  1  0  0  0  0
  5  3  1  0  0  0  0
  6  8  1  6  0  0  0
  6 17  1  0  0  0  0
  6  1  1  0  0  0  0
  7  9  1  1  0  0  0
  7  5  1  0  0  0  0
  9 10  1  6  0  0  0
 11 15  1  1  0  0  0
 11  9  1  0  0  0  0
 13 14  2  0  0  0  0
 14 11  1  0  0  0  0
 14 12  1  0  0  0  0
 16 15  1  0  0  0  0
 18 19  1  0  0  0  0
 18 17  1  0  0  0  0
 19 20  1  0  0  0  0
 20 21  1  0  0  0  0
 21 23  1  1  0  0  0
 21 24  1  0  0  0  0
 23 22  1  0  0  0  0
 24 25  1  0  0  0  0
 25 27  1  0  0  0  0
 27 28  2  6  0  0  0
 27 26  1  0  0  0  0
 27 29  1  0  0  0  0
 30 29  1  6  0  0  0
 30 33  1  0  0  0  0
 32 31  1  0  0  0  0
 32 30  1  0  0  0  0
 33 34  1  0  0  0  0
 34 36  1  0  0  0  0
 35 34  2  0  0  0  0
 36 38  1  0  0  0  0
 38 37  1  0  0  0  0
 39 41  1  0  0  0  0
 39  3  1  0  0  0  0
 40 41  1  0  0  0  0
 42 52  1  1  0  0  0
 42 43  1  0  0  0  0
 43 45  1  0  0  0  0
 44 45  2  0  0  0  0
 45 46  1  0  0  0  0
 46 47  1  0  0  0  0
 47 48  1  0  0  0  0
 48 49  1  0  0  0  0
 49 51  1  0  0  0  0
 51 50  1  0  0  0  0
 52 53  1  0  0  0  0
 54 56  1  0  0  0  0
 54 53  1  0  0  0  0
 55 54  2  0  0  0  0
 57 56  1  0  0  0  0
M  END
>  <MODEL>
1

>  <REMARK>
 VINA RESULT:      -5.1      0.000      0.000
  Name = 
  33 active torsions:
  status: ('A' for Active; 'I' for Inactive)
    1  A    between atoms: C_2  and  C_19
    2  A    between atoms: C_2  and  C_38
    3  A    between atoms: C_2  and  O_44
    4  A    between atoms: C_4  and  C_14
    5  A    between atoms: C_5  and  O_10
    6  A    between atoms: C_5  and  C_26
    7  A    between atoms: C_6  and  P_8
    8  A    between atoms: C_6  and  C_27
    9  A    between atoms: P_8  and  O_13
   10  A    between atoms: C_9  and  C_31
   11  A    between atoms: O_10  and  C_17
   12  A    between atoms: O_13  and  C_19
   13  A    between atoms: C_14  and  C_35
   14  A    between atoms: C_14  and  O_36
   15  A    between atoms: O_16  and  C_28
   16  A    between atoms: O_16  and  C_30
   17  A    between atoms: C_17  and  O_36
   18  A    between atoms: C_18  and  C_23
   19  A    between atoms: C_20  and  C_56
   20  A    between atoms: C_23  and  C_43
   21  A    between atoms: C_23  and  C_46
   22  A    between atoms: C_26  and  C_39
   23  A    between atoms: C_27  and  C_42
   24  A    between atoms: C_27  and  C_50
   25  A    between atoms: N_29  and  C_35
   26  A    between atoms: C_30  and  C_42
   27  A    between atoms: C_37  and  C_54
   28  A    between atoms: C_39  and  O_45
   29  A    between atoms: C_40  and  O_44
   30  A    between atoms: C_40  and  P_49
   31  A    between atoms: C_41  and  C_46
   32  A    between atoms: P_49  and  C_54
   33  A    between atoms: C_51  and  C_56
                            x       y       z     vdW  Elec       q    Type
                         _______ _______ _______ _____ _____    ______ ____

>  <TORSDO>
F 33

$$$$
=
 OpenBabel10222417243D

 57 57  0  0  1  0  0  0  0  0999 V2000
  188.2140  177.3830  140.9720 C   0  0  1  0  0  3  0  0  0  0  0  0
  186.5390  178.8840  140.1690 O   0  0  0  0  0  0  0  0  0  0  0  0
  187.5130  177.4090  143.4280 C   0  0  0  0  0  0  0  0  0  0  0  0
  188.1630  176.3700  143.7240 O   0  0  0  0  0  0  0  0  0  0  0  0
  187.3740  177.8110  142.0540 N   0  0  0  0  0  0  0  0  0  0  0  0
  187.7720  178.2860  139.8150 C   0  0  1  0  0  0  0  0  0  0  0  0
  186.3570  178.7190  141.5620 C   0  0  2  0  0  3  0  0  0  0  0  0
  188.6990  179.3020  139.5520 O   0  0  0  0  0  1  0  0  0  0  0  0
  184.9620  178.1520  141.8420 C   0  0  2  0  0  3  0  0  0  0  0  0
  184.5280  177.3940  140.7520 O   0  0  0  0  0  1  0  0  0  0  0  0
  183.9660  179.2730  142.1680 C   0  0  2  0  0  3  0  0  0  0  0  0
  183.1970  178.4720  144.5360 C   0  0  0  0  0  1  0  0  0  0  0  0
  184.2350  180.5400  144.1380 O   0  0  0  0  0  0  0  0  0  0  0  0
  183.8210  179.5000  143.6490 C   0  0  0  0  0  0  0  0  0  0  0  0
  182.6050  179.0950  141.4680 C   0  0  0  0  0  2  0  0  0  0  0  0
  181.4480  178.8880  142.4300 C   0  0  0  0  0  1  0  0  0  0  0  0
  187.5930  177.4200  138.5730 C   0  0  0  0  0  2  0  0  0  0  0  0
  187.5280  178.4440  137.0130 P   0  0  0  0  0  2  0  0  0  0  0  0
  186.0530  177.5430  136.3290 C   0  0  0  0  0  2  0  0  0  0  0  0
  186.4330  176.7800  135.2210 O   0  0  0  0  0  0  0  0  0  0  0  0
  186.6940  175.5110  135.7360 C   0  0  2  0  0  3  0  0  0  0  0  0
  187.3670  173.3310  135.0700 O   0  0  0  0  0  1  0  0  0  0  0  0
  187.4070  174.6730  134.6930 C   0  0  0  0  0  2  0  0  0  0  0  0
  185.3900  174.8460  136.1280 C   0  0  0  0  0  2  0  0  0  0  0  0
  184.4260  175.0970  135.1470 O   0  0  0  0  0  0  0  0  0  0  0  0
  183.0360  172.7110  134.6020 O   0  0  0  0  0  0  0  0  0  0  0  0
  183.0830  174.1280  135.5360 P   0  0  1  0  0  0  0  0  0  0  0  0
  183.1780  173.7450  136.9970 O   0  0  0  0  0  1  0  0  0  0  0  0
  181.5600  175.0930  135.2890 C   0  0  0  0  0  2  0  0  0  0  0  0
  181.8020  176.5710  135.5680 C   0  0  1  0  0  3  0  0  0  0  0  0
  179.4020  176.5140  135.3910 O   0  0  0  0  0  1  0  0  0  0  0  0
  180.5010  177.3650  135.5330 C   0  0  0  0  0  2  0  0  0  0  0  0
  182.5000  176.7390  136.9100 C   0  0  0  0  0  2  0  0  0  0  0  0
  181.7930  177.7630  137.7290 C   0  0  0  0  0  0  0  0  0  0  0  0
  181.9940  178.9870  137.4890 O   0  0  0  0  0  0  0  0  0  0  0  0
  180.9510  177.3640  138.7660 O   0  0  0  0  0  0  0  0  0  0  0  0
  180.1680  175.9760  140.4310 O   0  0  0  0  0  1  0  0  0  0  0  0
  181.1910  176.1720  139.5000 C   0  0  0  0  0  2  0  0  0  0  0  0
  186.9290  178.2440  144.5200 C   0  0  0  0  0  2  0  0  0  0  0  0
  186.0390  178.2260  146.8520 C   0  0  0  0  0  1  0  0  0  0  0  0
  186.5740  177.3690  145.7130 C   0  0  0  0  0  2  0  0  0  0  0  0
  189.7080  177.3950  141.3580 C   0  0  2  0  0  3  0  0  0  0  0  0
  190.0470  178.5000  142.1900 O   0  0  0  0  0  0  0  0  0  0  0  0
  191.2120  179.3840  143.9740 O   0  0  0  0  0  0  0  0  0  0  0  0
  191.0140  178.4130  143.1910 C   0  0  0  0  0  0  0  0  0  0  0  0
  191.7640  177.2430  143.3020 O   0  0  0  0  0  0  0  0  0  0  0  0
  191.2970  176.1140  144.0220 C   0  0  0  0  0  2  0  0  0  0  0  0
  192.0750  175.9700  145.3180 C   0  0  0  0  0  2  0  0  0  0  0  0
  191.4610  176.8210  146.4220 C   0  0  0  0  0  2  0  0  0  0  0  0
  189.6090  176.8160  147.6280 C   0  0  0  0  0  1  0  0  0  0  0  0
  190.7110  176.0280  147.2950 O   0  0  0  0  0  0  0  0  0  0  0  0
  190.6390  177.2530  140.1530 C   0  0  0  0  0  2  0  0  0  0  0  0
  190.4190  175.9880  139.4670 N   0  0  0  0  0  2  0  0  0  0  0  0
  191.0390  175.6780  138.2160 C   0  0  0  0  0  0  0  0  0  0  0  0
  191.8700  176.4710  137.6950 O   0  0  0  0  0  0  0  0  0  0  0  0
  190.7070  174.4070  137.5170 C   0  0  0  0  0  2  0  0  0  0  0  0
  191.3130  174.4030  136.1350 C   0  0  0  0  0  1  0  0  0  0  0  0
  1 42  1  1  0  0  0
  1  5  1  0  0  0  0
  2  7  1  0  0  0  0
  3  4  2  0  0  0  0
  3 39  1  0  0  0  0
  5  3  1  0  0  0  0
  6  8  1  6  0  0  0
  6  2  1  0  0  0  0
  6  1  1  0  0  0  0
  7  9  1  6  0  0  0
  7  5  1  0  0  0  0
  9 10  1  6  0  0  0
  9 11  1  0  0  0  0
 11 15  1  1  0  0  0
 11 14  1  0  0  0  0
 14 13  2  0  0  0  0
 14 12  1  0  0  0  0
 15 16  1  0  0  0  0
 17  6  1  0  0  0  0
 18 17  1  0  0  0  0
 19 18  1  0  0  0  0
 20 21  1  0  0  0  0
 20 19  1  0  0  0  0
 21 23  1  6  0  0  0
 21 24  1  0  0  0  0
 23 22  1  0  0  0  0
 25 27  1  0  0  0  0
 25 24  1  0  0  0  0
 27 26  2  6  0  0  0
 27 28  1  0  0  0  0
 29 27  1  0  0  0  0
 30 29  1  1  0  0  0
 30 33  1  0  0  0  0
 31 32  1  0  0  0  0
 32 30  1  0  0  0  0
 33 34  1  0  0  0  0
 34 36  1  0  0  0  0
 35 34  2  0  0  0  0
 36 38  1  0  0  0  0
 38 37  1  0  0  0  0
 39 41  1  0  0  0  0
 41 40  1  0  0  0  0
 42 52  1  6  0  0  0
 42 43  1  0  0  0  0
 43 45  1  0  0  0  0
 45 46  1  0  0  0  0
 45 44  2  0  0  0  0
 46 47  1  0  0  0  0
 47 48  1  0  0  0  0
 48 49  1  0  0  0  0
 49 51  1  0  0  0  0
 51 50  1  0  0  0  0
 53 52  1  0  0  0  0
 54 53  1  0  0  0  0
 55 54  2  0  0  0  0
 56 54  1  0  0  0  0
 57 56  1  0  0  0  0
M  END
>  <MODEL>
2

>  <REMARK>
 VINA RESULT:      -4.4      2.617      8.700
  Name = 
  33 active torsions:
  status: ('A' for Active; 'I' for Inactive)
    1  A    between atoms: C_2  and  C_19
    2  A    between atoms: C_2  and  C_38
    3  A    between atoms: C_2  and  O_44
    4  A    between atoms: C_4  and  C_14
    5  A    between atoms: C_5  and  O_10
    6  A    between atoms: C_5  and  C_26
    7  A    between atoms: C_6  and  P_8
    8  A    between atoms: C_6  and  C_27
    9  A    between atoms: P_8  and  O_13
   10  A    between atoms: C_9  and  C_31
   11  A    between atoms: O_10  and  C_17
   12  A    between atoms: O_13  and  C_19
   13  A    between atoms: C_14  and  C_35
   14  A    between atoms: C_14  and  O_36
   15  A    between atoms: O_16  and  C_28
   16  A    between atoms: O_16  and  C_30
   17  A    between atoms: C_17  and  O_36
   18  A    between atoms: C_18  and  C_23
   19  A    between atoms: C_20  and  C_56
   20  A    between atoms: C_23  and  C_43
   21  A    between atoms: C_23  and  C_46
   22  A    between atoms: C_26  and  C_39
   23  A    between atoms: C_27  and  C_42
   24  A    between atoms: C_27  and  C_50
   25  A    between atoms: N_29  and  C_35
   26  A    between atoms: C_30  and  C_42
   27  A    between atoms: C_37  and  C_54
   28  A    between atoms: C_39  and  O_45
   29  A    between atoms: C_40  and  O_44
   30  A    between atoms: C_40  and  P_49
   31  A    between atoms: C_41  and  C_46
   32  A    between atoms: P_49  and  C_54
   33  A    between atoms: C_51  and  C_56
                            x       y       z     vdW  Elec       q    Type
                         _______ _______ _______ _____ _____    ______ ____

>  <TORSDO>
F 33

$$$$
=
 OpenBabel10222417243D

 57 57  0  0  1  0  0  0  0  0999 V2000
  188.0240  177.3360  140.7370 C   0  0  1  0  0  3  0  0  0  0  0  0
  186.4270  178.7680  139.6870 O   0  0  0  0  0  0  0  0  0  0  0  0
  186.9860  177.3580  143.0710 C   0  0  0  0  0  0  0  0  0  0  0  0
  187.6240  176.3460  143.4690 O   0  0  0  0  0  0  0  0  0  0  0  0
  187.0260  177.7430  141.6850 N   0  0  0  0  0  0  0  0  0  0  0  0
  187.7180  178.2110  139.5170 C   0  0  1  0  0  0  0  0  0  0  0  0
  186.0580  178.6090  141.0440 C   0  0  2  0  0  3  0  0  0  0  0  0
  188.6370  179.2570  139.3710 O   0  0  0  0  0  1  0  0  0  0  0  0
  184.6580  177.9960  141.1350 C   0  0  2  0  0  3  0  0  0  0  0  0
  184.4490  177.1250  140.0620 O   0  0  0  0  0  1  0  0  0  0  0  0
  183.5790  179.0860  141.1790 C   0  0  2  0  0  3  0  0  0  0  0  0
  183.1490  179.4270  143.7360 C   0  0  0  0  0  1  0  0  0  0  0  0
  181.5720  178.4960  142.2680 O   0  0  0  0  0  0  0  0  0  0  0  0
  182.6930  178.9670  142.3910 C   0  0  0  0  0  0  0  0  0  0  0  0
  182.7710  179.1900  139.8730 C   0  0  0  0  0  2  0  0  0  0  0  0
  183.0570  180.4530  139.0780 C   0  0  0  0  0  1  0  0  0  0  0  0
  187.7430  177.3290  138.2750 C   0  0  0  0  0  2  0  0  0  0  0  0
  187.6600  178.3340  136.7030 P   0  0  0  0  0  2  0  0  0  0  0  0
  186.0280  177.6160  136.1770 C   0  0  0  0  0  2  0  0  0  0  0  0
  186.2160  176.7430  135.1020 O   0  0  0  0  0  0  0  0  0  0  0  0
  186.1110  175.4680  135.6560 C   0  0  2  0  0  3  0  0  0  0  0  0
  187.7960  174.1710  134.5950 O   0  0  0  0  0  1  0  0  0  0  0  0
  186.4260  174.4260  134.6010 C   0  0  0  0  0  2  0  0  0  0  0  0
  184.7070  175.2590  136.1850 C   0  0  0  0  0  2  0  0  0  0  0  0
  183.7830  175.5500  135.1780 O   0  0  0  0  0  0  0  0  0  0  0  0
  181.4470  174.1560  135.9010 O   0  0  0  0  0  0  0  0  0  0  0  0
  182.2630  175.6440  135.9360 P   0  0  1  0  0  0  0  0  0  0  0  0
  182.4720  176.0500  137.3790 O   0  0  0  0  0  1  0  0  0  0  0  0
  181.2640  176.9260  135.1150 C   0  0  0  0  0  2  0  0  0  0  0  0
  180.4010  177.6720  136.1250 C   0  0  1  0  0  3  0  0  0  0  0  0
  178.9450  176.1830  137.3320 O   0  0  0  0  0  1  0  0  0  0  0  0
  180.1760  176.8430  137.3840 C   0  0  0  0  0  2  0  0  0  0  0  0
  181.0400  179.0110  136.4660 C   0  0  0  0  0  2  0  0  0  0  0  0
  180.2720  180.1180  135.8310 C   0  0  0  0  0  0  0  0  0  0  0  0
  180.4130  180.3340  134.5940 O   0  0  0  0  0  0  0  0  0  0  0  0
  179.4400  180.9220  136.6090 O   0  0  0  0  0  0  0  0  0  0  0  0
  180.9820  182.6340  136.5890 O   0  0  0  0  0  1  0  0  0  0  0  0
  179.9430  182.0480  137.3150 C   0  0  0  0  0  2  0  0  0  0  0  0
  186.2270  178.1820  144.0590 C   0  0  0  0  0  2  0  0  0  0  0  0
  185.5960  178.4170  146.4620 C   0  0  0  0  0  1  0  0  0  0  0  0
  186.2820  177.5300  145.4330 C   0  0  0  0  0  2  0  0  0  0  0  0
  189.4480  177.4050  141.3270 C   0  0  2  0  0  3  0  0  0  0  0  0
  189.5950  178.4580  142.2740 O   0  0  0  0  0  0  0  0  0  0  0  0
  191.6120  178.7440  143.3570 O   0  0  0  0  0  0  0  0  0  0  0  0
  190.4140  178.3440  143.3970 C   0  0  0  0  0  0  0  0  0  0  0  0
  189.8920  177.7710  144.5550 O   0  0  0  0  0  0  0  0  0  0  0  0
  190.2250  178.2490  145.8490 C   0  0  0  0  0  2  0  0  0  0  0  0
  189.7950  177.2390  146.8990 C   0  0  0  0  0  2  0  0  0  0  0  0
  190.9690  176.8310  147.7780 C   0  0  0  0  0  2  0  0  0  0  0  0
  192.3600  175.5120  146.6780 C   0  0  0  0  0  1  0  0  0  0  0  0
  191.2910  175.4870  147.5760 O   0  0  0  0  0  0  0  0  0  0  0  0
  190.5400  177.4140  140.2560 C   0  0  0  0  0  2  0  0  0  0  0  0
  190.6870  176.1010  139.6460 N   0  0  0  0  0  2  0  0  0  0  0  0
  191.1530  175.9270  138.3050 C   0  0  0  0  0  0  0  0  0  0  0  0
  191.5300  176.9180  137.6210 O   0  0  0  0  0  0  0  0  0  0  0  0
  191.1980  174.5670  137.7040 C   0  0  0  0  0  2  0  0  0  0  0  0
  192.3300  174.4780  136.7090 C   0  0  0  0  0  1  0  0  0  0  0  0
  1 42  1  1  0  0  0
  1  5  1  0  0  0  0
  2  7  1  0  0  0  0
  3  4  2  0  0  0  0
  3 39  1  0  0  0  0
  5  3  1  0  0  0  0
  6  8  1  6  0  0  0
  6  2  1  0  0  0  0
  6  1  1  0  0  0  0
  7  9  1  6  0  0  0
  7  5  1  0  0  0  0
  9 10  1  6  0  0  0
  9 11  1  0  0  0  0
 11 15  1  6  0  0  0
 11 14  1  0  0  0  0
 13 14  2  0  0  0  0
 14 12  1  0  0  0  0
 16 15  1  0  0  0  0
 17  6  1  0  0  0  0
 18 17  1  0  0  0  0
 19 18  1  0  0  0  0
 20 21  1  0  0  0  0
 20 19  1  0  0  0  0
 21 23  1  6  0  0  0
 21 24  1  0  0  0  0
 22 23  1  0  0  0  0
 25 27  1  0  0  0  0
 25 24  1  0  0  0  0
 27 26  2  6  0  0  0
 27 28  1  0  0  0  0
 29 27  1  0  0  0  0
 30 29  1  6  0  0  0
 30 33  1  0  0  0  0
 30 32  1  0  0  0  0
 31 32  1  0  0  0  0
 34 33  1  0  0  0  0
 34 36  1  0  0  0  0
 35 34  2  0  0  0  0
 36 38  1  0  0  0  0
 37 38  1  0  0  0  0
 39 41  1  0  0  0  0
 41 40  1  0  0  0  0
 42 52  1  6  0  0  0
 42 43  1  0  0  0  0
 43 45  1  0  0  0  0
 44 45  2  0  0  0  0
 45 46  1  0  0  0  0
 46 47  1  0  0  0  0
 47 48  1  0  0  0  0
 48 49  1  0  0  0  0
 50 51  1  0  0  0  0
 51 49  1  0  0  0  0
 53 52  1  0  0  0  0
 54 53  1  0  0  0  0
 55 54  2  0  0  0  0
 56 54  1  0  0  0  0
 57 56  1  0  0  0  0
M  END
>  <MODEL>
3

>  <REMARK>
 VINA RESULT:      -4.3      2.571      8.905
  Name = 
  33 active torsions:
  status: ('A' for Active; 'I' for Inactive)
    1  A    between atoms: C_2  and  C_19
    2  A    between atoms: C_2  and  C_38
    3  A    between atoms: C_2  and  O_44
    4  A    between atoms: C_4  and  C_14
    5  A    between atoms: C_5  and  O_10
    6  A    between atoms: C_5  and  C_26
    7  A    between atoms: C_6  and  P_8
    8  A    between atoms: C_6  and  C_27
    9  A    between atoms: P_8  and  O_13
   10  A    between atoms: C_9  and  C_31
   11  A    between atoms: O_10  and  C_17
   12  A    between atoms: O_13  and  C_19
   13  A    between atoms: C_14  and  C_35
   14  A    between atoms: C_14  and  O_36
   15  A    between atoms: O_16  and  C_28
   16  A    between atoms: O_16  and  C_30
   17  A    between atoms: C_17  and  O_36
   18  A    between atoms: C_18  and  C_23
   19  A    between atoms: C_20  and  C_56
   20  A    between atoms: C_23  and  C_43
   21  A    between atoms: C_23  and  C_46
   22  A    between atoms: C_26  and  C_39
   23  A    between atoms: C_27  and  C_42
   24  A    between atoms: C_27  and  C_50
   25  A    between atoms: N_29  and  C_35
   26  A    between atoms: C_30  and  C_42
   27  A    between atoms: C_37  and  C_54
   28  A    between atoms: C_39  and  O_45
   29  A    between atoms: C_40  and  O_44
   30  A    between atoms: C_40  and  P_49
   31  A    between atoms: C_41  and  C_46
   32  A    between atoms: P_49  and  C_54
   33  A    between atoms: C_51  and  C_56
                            x       y       z     vdW  Elec       q    Type
                         _______ _______ _______ _____ _____    ______ ____

>  <TORSDO>
F 33

$$$$
=
 OpenBabel10222417243D

 57 57  0  0  1  0  0  0  0  0999 V2000
  183.6460  177.8040  138.7210 C   0  0  1  0  0  3  0  0  0  0  0  0
  185.8600  178.5940  138.2990 O   0  0  0  0  0  0  0  0  0  0  0  0
  183.3450  176.5180  136.5340 C   0  0  0  0  0  0  0  0  0  0  0  0
  182.3580  175.8520  136.9500 O   0  0  0  0  0  0  0  0  0  0  0  0
  184.1020  177.3370  137.4430 N   0  0  0  0  0  0  0  0  0  0  0  0
  184.7330  178.8020  139.1310 C   0  0  1  0  0  0  0  0  0  0  0  0
  185.4470  177.8150  137.1930 C   0  0  2  0  0  3  0  0  0  0  0  0
  184.3150  180.1310  138.9880 O   0  0  0  0  0  1  0  0  0  0  0  0
  186.4020  176.6340  137.0020 C   0  0  2  0  0  3  0  0  0  0  0  0
  186.1200  175.6370  137.9390 O   0  0  0  0  0  1  0  0  0  0  0  0
  187.8660  177.0850  137.0980 C   0  0  2  0  0  3  0  0  0  0  0  0
  189.1370  177.4440  134.8410 C   0  0  0  0  0  1  0  0  0  0  0  0
  189.0500  175.3870  135.9690 O   0  0  0  0  0  0  0  0  0  0  0  0
  188.7040  176.5590  135.9640 C   0  0  0  0  0  0  0  0  0  0  0  0
  188.4970  176.7980  138.4730 C   0  0  0  0  0  2  0  0  0  0  0  0
  190.0160  176.8010  138.4590 C   0  0  0  0  0  1  0  0  0  0  0  0
  185.1050  178.5360  140.5850 C   0  0  0  0  0  2  0  0  0  0  0  0
  183.9240  179.3650  141.7700 P   0  0  0  0  0  2  0  0  0  0  0  0
  184.3370  178.2280  143.1820 C   0  0  0  0  0  2  0  0  0  0  0  0
  185.6030  178.5370  143.6870 O   0  0  0  0  0  0  0  0  0  0  0  0
  185.5610  178.1340  145.0210 C   0  0  2  0  0  3  0  0  0  0  0  0
  185.4830  179.5890  146.8980 O   0  0  0  0  0  1  0  0  0  0  0  0
  184.7300  179.1160  145.8250 C   0  0  0  0  0  2  0  0  0  0  0  0
  186.9690  178.0740  145.5770 C   0  0  0  0  0  2  0  0  0  0  0  0
  187.1440  176.8740  146.2730 O   0  0  0  0  0  0  0  0  0  0  0  0
  189.1130  178.6550  147.2080 O   0  0  0  0  0  0  0  0  0  0  0  0
  188.5820  177.0430  147.1650 P   0  0  1  0  0  0  0  0  0  0  0  0
  188.3230  176.5780  148.5820 O   0  0  0  0  0  1  0  0  0  0  0  0
  189.8660  175.9790  146.4340 C   0  0  0  0  0  2  0  0  0  0  0  0
  191.1720  176.7450  146.2600 C   0  0  1  0  0  3  0  0  0  0  0  0
  192.2210  177.1930  148.3800 O   0  0  0  0  0  1  0  0  0  0  0  0
  192.2100  176.3170  147.2910 C   0  0  0  0  0  2  0  0  0  0  0  0
  191.7020  176.5530  144.8470 C   0  0  0  0  0  2  0  0  0  0  0  0
  190.5700  176.4910  143.8810 C   0  0  0  0  0  0  0  0  0  0  0  0
  190.3200  175.3980  143.2970 O   0  0  0  0  0  0  0  0  0  0  0  0
  189.8260  177.6380  143.6060 O   0  0  0  0  0  0  0  0  0  0  0  0
  188.3270  178.2060  141.9510 O   0  0  0  0  0  1  0  0  0  0  0  0
  189.6820  178.1300  142.2820 C   0  0  0  0  0  2  0  0  0  0  0  0
  183.6920  176.4850  135.0820 C   0  0  0  0  0  2  0  0  0  0  0  0
  184.9420  174.3340  135.2780 C   0  0  0  0  0  1  0  0  0  0  0  0
  183.7800  175.0450  134.5990 C   0  0  0  0  0  2  0  0  0  0  0  0
  182.1910  178.3150  138.6650 C   0  0  2  0  0  3  0  0  0  0  0  0
  182.1100  179.6950  138.3220 O   0  0  0  0  0  0  0  0  0  0  0  0
  180.8470  180.9940  139.7500 O   0  0  0  0  0  0  0  0  0  0  0  0
  180.9870  180.4720  138.6080 C   0  0  0  0  0  0  0  0  0  0  0  0
  180.0220  180.6500  137.6180 O   0  0  0  0  0  0  0  0  0  0  0  0
  179.6260  181.9380  137.1750 C   0  0  0  0  0  2  0  0  0  0  0  0
  180.7730  182.6060  136.4360 C   0  0  0  0  0  2  0  0  0  0  0  0
  180.6600  184.1230  136.5110 C   0  0  0  0  0  2  0  0  0  0  0  0
  179.4090  185.8530  137.0810 C   0  0  0  0  0  1  0  0  0  0  0  0
  179.6060  184.4980  137.3480 O   0  0  0  0  0  0  0  0  0  0  0  0
  181.3860  177.9690  139.9190 C   0  0  0  0  0  2  0  0  0  0  0  0
  180.9530  176.5790  139.8960 N   0  0  0  0  0  2  0  0  0  0  0  0
  179.6920  176.1780  139.3530 C   0  0  0  0  0  0  0  0  0  0  0  0
  178.9340  177.0190  138.7980 O   0  0  0  0  0  0  0  0  0  0  0  0
  179.2650  174.7550  139.4390 C   0  0  0  0  0  2  0  0  0  0  0  0
  180.1570  173.8950  138.5770 C   0  0  0  0  0  1  0  0  0  0  0  0
  1 42  1  6  0  0  0
  1  6  1  0  0  0  0
  2  6  1  0  0  0  0
  3  4  2  0  0  0  0
  3  5  1  0  0  0  0
  5  1  1  0  0  0  0
  6  8  1  6  0  0  0
  6 17  1  0  0  0  0
  7  9  1  1  0  0  0
  7  5  1  0  0  0  0
  7  2  1  0  0  0  0
  9 11  1  0  0  0  0
  9 10  1  1  0  0  0
 11 15  1  1  0  0  0
 12 14  1  0  0  0  0
 14 13  2  0  0  0  0
 14 11  1  0  0  0  0
 16 15  1  0  0  0  0
 17 18  1  0  0  0  0
 18 19  1  0  0  0  0
 19 20  1  0  0  0  0
 20 21  1  0  0  0  0
 21 24  1  1  0  0  0
 21 23  1  0  0  0  0
 23 22  1  0  0  0  0
 24 25  1  0  0  0  0
 25 27  1  0  0  0  0
 27 26  2  6  0  0  0
 27 28  1  0  0  0  0
 29 27  1  0  0  0  0
 30 33  1  6  0  0  0
 30 29  1  0  0  0  0
 30 32  1  0  0  0  0
 32 31  1  0  0  0  0
 34 33  1  0  0  0  0
 35 34  2  0  0  0  0
 36 34  1  0  0  0  0
 37 38  1  0  0  0  0
 38 36  1  0  0  0  0
 39  3  1  0  0  0  0
 41 39  1  0  0  0  0
 41 40  1  0  0  0  0
 42 52  1  1  0  0  0
 43 45  1  0  0  0  0
 43 42  1  0  0  0  0
 45 44  2  0  0  0  0
 46 45  1  0  0  0  0
 47 46  1  0  0  0  0
 48 49  1  0  0  0  0
 48 47  1  0  0  0  0
 49 51  1  0  0  0  0
 50 51  1  0  0  0  0
 53 52  1  0  0  0  0
 54 56  1  0  0  0  0
 54 53  1  0  0  0  0
 55 54  2  0  0  0  0
 57 56  1  0  0  0  0
M  END
>  <MODEL>
4

>  <REMARK>
 VINA RESULT:      -4.2      2.380      6.733
  Name = 
  33 active torsions:
  status: ('A' for Active; 'I' for Inactive)
    1  A    between atoms: C_2  and  C_19
    2  A    between atoms: C_2  and  C_38
    3  A    between atoms: C_2  and  O_44
    4  A    between atoms: C_4  and  C_14
    5  A    between atoms: C_5  and  O_10
    6  A    between atoms: C_5  and  C_26
    7  A    between atoms: C_6  and  P_8
    8  A    between atoms: C_6  and  C_27
    9  A    between atoms: P_8  and  O_13
   10  A    between atoms: C_9  and  C_31
   11  A    between atoms: O_10  and  C_17
   12  A    between atoms: O_13  and  C_19
   13  A    between atoms: C_14  and  C_35
   14  A    between atoms: C_14  and  O_36
   15  A    between atoms: O_16  and  C_28
   16  A    between atoms: O_16  and  C_30
   17  A    between atoms: C_17  and  O_36
   18  A    between atoms: C_18  and  C_23
   19  A    between atoms: C_20  and  C_56
   20  A    between atoms: C_23  and  C_43
   21  A    between atoms: C_23  and  C_46
   22  A    between atoms: C_26  and  C_39
   23  A    between atoms: C_27  and  C_42
   24  A    between atoms: C_27  and  C_50
   25  A    between atoms: N_29  and  C_35
   26  A    between atoms: C_30  and  C_42
   27  A    between atoms: C_37  and  C_54
   28  A    between atoms: C_39  and  O_45
   29  A    between atoms: C_40  and  O_44
   30  A    between atoms: C_40  and  P_49
   31  A    between atoms: C_41  and  C_46
   32  A    between atoms: P_49  and  C_54
   33  A    between atoms: C_51  and  C_56
                            x       y       z     vdW  Elec       q    Type
                         _______ _______ _______ _____ _____    ______ ____

>  <TORSDO>
F 33

$$$$
=
 OpenBabel10222417243D

 57 57  0  0  1  0  0  0  0  0999 V2000
  190.7210  176.9770  138.5780 C   0  0  1  0  0  3  0  0  0  0  0  0
  190.2500  175.0170  137.2970 O   0  0  0  0  0  0  0  0  0  0  0  0
  193.2320  176.5880  138.8420 C   0  0  0  0  0  0  0  0  0  0  0  0
  193.4770  177.7750  139.1890 O   0  0  0  0  0  0  0  0  0  0  0  0
  191.9260  176.2280  138.3600 N   0  0  0  0  0  0  0  0  0  0  0  0
  189.6300  176.0320  138.0660 C   0  0  1  0  0  0  0  0  0  0  0  0
  191.6360  175.0410  137.5800 C   0  0  2  0  0  3  0  0  0  0  0  0
  188.9200  175.4260  139.1110 O   0  0  0  0  0  1  0  0  0  0  0  0
  192.4330  175.0600  136.2730 C   0  0  2  0  0  3  0  0  0  0  0  0
  191.5600  175.1070  135.1820 O   0  0  0  0  0  1  0  0  0  0  0  0
  193.3690  173.8470  136.1790 C   0  0  2  0  0  3  0  0  0  0  0  0
  195.9380  173.5110  136.5370 C   0  0  0  0  0  1  0  0  0  0  0  0
  195.0260  175.1730  135.1520 O   0  0  0  0  0  0  0  0  0  0  0  0
  194.7960  174.2430  135.9100 C   0  0  0  0  0  0  0  0  0  0  0  0
  192.8670  172.7700  135.2000 C   0  0  0  0  0  2  0  0  0  0  0  0
  193.3990  171.3790  135.4980 C   0  0  0  0  0  1  0  0  0  0  0  0
  188.6720  176.8340  137.1930 C   0  0  0  0  0  2  0  0  0  0  0  0
  189.3930  177.1860  135.5070 P   0  0  0  0  0  2  0  0  0  0  0  0
  187.9520  176.4470  134.5940 C   0  0  0  0  0  2  0  0  0  0  0  0
  187.2860  175.5320  135.4140 O   0  0  0  0  0  0  0  0  0  0  0  0
  185.9340  175.7160  135.1270 C   0  0  2  0  0  3  0  0  0  0  0  0
  185.1670  177.6410  136.2920 O   0  0  0  0  0  1  0  0  0  0  0  0
  185.6250  177.1990  135.0520 C   0  0  0  0  0  2  0  0  0  0  0  0
  185.0940  175.0690  136.2090 C   0  0  0  0  0  2  0  0  0  0  0  0
  183.9810  174.4550  135.6280 O   0  0  0  0  0  0  0  0  0  0  0  0
  181.8410  176.2750  135.7960 O   0  0  0  0  0  0  0  0  0  0  0  0
  182.6300  174.9620  136.5280 P   0  0  1  0  0  0  0  0  0  0  0  0
  181.6590  173.8050  136.6260 O   0  0  0  0  0  1  0  0  0  0  0  0
  183.1650  175.4100  138.2090 C   0  0  0  0  0  2  0  0  0  0  0  0
  182.5150  176.7130  138.6570 C   0  0  1  0  0  3  0  0  0  0  0  0
  180.8740  175.4900  139.9240 O   0  0  0  0  0  1  0  0  0  0  0  0
  181.0410  176.5150  138.9880 C   0  0  0  0  0  2  0  0  0  0  0  0
  183.2650  177.2850  139.8520 C   0  0  0  0  0  2  0  0  0  0  0  0
  182.7870  178.6660  140.1400 C   0  0  0  0  0  0  0  0  0  0  0  0
  182.2160  178.9010  141.2420 O   0  0  0  0  0  0  0  0  0  0  0  0
  182.9420  179.6690  139.1840 O   0  0  0  0  0  0  0  0  0  0  0  0
  181.4020  179.8680  137.4820 O   0  0  0  0  0  1  0  0  0  0  0  0
  181.8320  180.4080  138.6960 C   0  0  0  0  0  2  0  0  0  0  0  0
  194.2970  175.5490  138.9820 C   0  0  0  0  0  2  0  0  0  0  0  0
  196.3820  175.5420  140.3530 C   0  0  0  0  0  1  0  0  0  0  0  0
  194.8600  175.5670  140.3950 C   0  0  0  0  0  2  0  0  0  0  0  0
  190.6080  177.4800  140.0320 C   0  0  2  0  0  3  0  0  0  0  0  0
  190.7310  176.4280  140.9850 O   0  0  0  0  0  0  0  0  0  0  0  0
  192.3850  177.3200  142.3240 O   0  0  0  0  0  0  0  0  0  0  0  0
  191.3440  176.6110  142.2240 C   0  0  0  0  0  0  0  0  0  0  0  0
  190.7950  175.9870  143.3440 O   0  0  0  0  0  0  0  0  0  0  0  0
  190.1250  176.7170  144.3600 C   0  0  0  0  0  2  0  0  0  0  0  0
  191.1330  177.2590  145.3580 C   0  0  0  0  0  2  0  0  0  0  0  0
  190.6080  177.1430  146.7820 C   0  0  0  0  0  2  0  0  0  0  0  0
  188.5990  176.7600  147.6210 C   0  0  0  0  0  1  0  0  0  0  0  0
  189.3270  177.6930  146.8800 O   0  0  0  0  0  0  0  0  0  0  0  0
  189.3730  178.3510  140.2700 C   0  0  0  0  0  2  0  0  0  0  0  0
  188.6110  177.8780  141.4170 N   0  0  0  0  0  2  0  0  0  0  0  0
  187.2880  178.3420  141.7010 C   0  0  0  0  0  0  0  0  0  0  0  0
  186.7000  179.1320  140.9140 O   0  0  0  0  0  0  0  0  0  0  0  0
  186.5920  177.8910  142.9360 C   0  0  0  0  0  2  0  0  0  0  0  0
  185.3630  178.7340  143.1740 C   0  0  0  0  0  1  0  0  0  0  0  0
  1 42  1  1  0  0  0
  2  7  1  0  0  0  0
  2  6  1  0  0  0  0
  3 39  1  0  0  0  0
  3  4  2  0  0  0  0
  5  1  1  0  0  0  0
  5  3  1  0  0  0  0
  6  1  1  0  0  0  0
  6  8  1  1  0  0  0
  7  9  1  6  0  0  0
  7  5  1  0  0  0  0
  9 10  1  6  0  0  0
 11 15  1  6  0  0  0
 11  9  1  0  0  0  0
 13 14  2  0  0  0  0
 14 11  1  0  0  0  0
 14 12  1  0  0  0  0
 15 16  1  0  0  0  0
 17  6  1  0  0  0  0
 18 17  1  0  0  0  0
 19 20  1  0  0  0  0
 19 18  1  0  0  0  0
 21 23  1  1  0  0  0
 21 20  1  0  0  0  0
 21 24  1  0  0  0  0
 23 22  1  0  0  0  0
 25 24  1  0  0  0  0
 25 27  1  0  0  0  0
 27 26  2  6  0  0  0
 27 28  1  0  0  0  0
 27 29  1  0  0  0  0
 30 29  1  1  0  0  0
 30 32  1  0  0  0  0
 30 33  1  0  0  0  0
 32 31  1  0  0  0  0
 33 34  1  0  0  0  0
 34 35  2  0  0  0  0
 36 34  1  0  0  0  0
 37 38  1  0  0  0  0
 38 36  1  0  0  0  0
 39 41  1  0  0  0  0
 40 41  1  0  0  0  0
 42 52  1  6  0  0  0
 42 43  1  0  0  0  0
 43 45  1  0  0  0  0
 45 44  2  0  0  0  0
 45 46  1  0  0  0  0
 46 47  1  0  0  0  0
 47 48  1  0  0  0  0
 48 49  1  0  0  0  0
 49 51  1  0  0  0  0
 51 50  1  0  0  0  0
 52 53  1  0  0  0  0
 53 54  1  0  0  0  0
 54 56  1  0  0  0  0
 55 54  2  0  0  0  0
 56 57  1  0  0  0  0
M  END
>  <MODEL>
5

>  <REMARK>
 VINA RESULT:      -3.8      2.989      9.001
  Name = 
  33 active torsions:
  status: ('A' for Active; 'I' for Inactive)
    1  A    between atoms: C_2  and  C_19
    2  A    between atoms: C_2  and  C_38
    3  A    between atoms: C_2  and  O_44
    4  A    between atoms: C_4  and  C_14
    5  A    between atoms: C_5  and  O_10
    6  A    between atoms: C_5  and  C_26
    7  A    between atoms: C_6  and  P_8
    8  A    between atoms: C_6  and  C_27
    9  A    between atoms: P_8  and  O_13
   10  A    between atoms: C_9  and  C_31
   11  A    between atoms: O_10  and  C_17
   12  A    between atoms: O_13  and  C_19
   13  A    between atoms: C_14  and  C_35
   14  A    between atoms: C_14  and  O_36
   15  A    between atoms: O_16  and  C_28
   16  A    between atoms: O_16  and  C_30
   17  A    between atoms: C_17  and  O_36
   18  A    between atoms: C_18  and  C_23
   19  A    between atoms: C_20  and  C_56
   20  A    between atoms: C_23  and  C_43
   21  A    between atoms: C_23  and  C_46
   22  A    between atoms: C_26  and  C_39
   23  A    between atoms: C_27  and  C_42
   24  A    between atoms: C_27  and  C_50
   25  A    between atoms: N_29  and  C_35
   26  A    between atoms: C_30  and  C_42
   27  A    between atoms: C_37  and  C_54
   28  A    between atoms: C_39  and  O_45
   29  A    between atoms: C_40  and  O_44
   30  A    between atoms: C_40  and  P_49
   31  A    between atoms: C_41  and  C_46
   32  A    between atoms: P_49  and  C_54
   33  A    between atoms: C_51  and  C_56
                            x       y       z     vdW  Elec       q    Type
                         _______ _______ _______ _____ _____    ______ ____

>  <TORSDO>
F 33

$$$$
=
 OpenBabel10222417243D

 57 57  0  0  1  0  0  0  0  0999 V2000
  185.0270  177.1680  138.3650 C   0  0  1  0  0  3  0  0  0  0  0  0
  185.2750  175.7040  136.4940 O   0  0  0  0  0  0  0  0  0  0  0  0
  182.7220  176.3520  139.1050 C   0  0  0  0  0  0  0  0  0  0  0  0
  182.8000  176.8720  140.2510 O   0  0  0  0  0  0  0  0  0  0  0  0
  183.8720  176.3250  138.2410 N   0  0  0  0  0  0  0  0  0  0  0  0
  185.8020  176.8840  137.0740 C   0  0  1  0  0  0  0  0  0  0  0  0
  184.0280  175.4370  137.1070 C   0  0  2  0  0  3  0  0  0  0  0  0
  185.6860  177.9250  136.1450 O   0  0  0  0  0  1  0  0  0  0  0  0
  183.9770  173.9770  137.5670 C   0  0  2  0  0  3  0  0  0  0  0  0
  185.2230  173.5910  138.0670 O   0  0  0  0  0  1  0  0  0  0  0  0
  183.5280  173.0530  136.4270 C   0  0  2  0  0  3  0  0  0  0  0  0
  181.4520  171.7690  137.3650 C   0  0  0  0  0  1  0  0  0  0  0  0
  181.3130  173.4350  135.7170 O   0  0  0  0  0  0  0  0  0  0  0  0
  182.0460  172.7900  136.4510 C   0  0  0  0  0  0  0  0  0  0  0  0
  184.3510  171.7540  136.3430 C   0  0  0  0  0  2  0  0  0  0  0  0
  184.2130  171.0300  135.0150 C   0  0  0  0  0  1  0  0  0  0  0  0
  187.2690  176.6770  137.4310 C   0  0  0  0  0  2  0  0  0  0  0  0
  188.3250  178.1250  136.9100 P   0  0  0  0  0  2  0  0  0  0  0  0
  189.8650  177.1000  136.7180 C   0  0  0  0  0  2  0  0  0  0  0  0
  190.0210  176.7210  135.3820 O   0  0  0  0  0  0  0  0  0  0  0  0
  191.0470  175.7780  135.3980 C   0  0  2  0  0  3  0  0  0  0  0  0
  189.3430  174.1660  135.0200 O   0  0  0  0  0  1  0  0  0  0  0  0
  190.6220  174.5470  134.6200 C   0  0  0  0  0  2  0  0  0  0  0  0
  191.3640  175.3980  136.8300 C   0  0  0  0  0  2  0  0  0  0  0  0
  192.4810  174.5580  136.8520 O   0  0  0  0  0  0  0  0  0  0  0  0
  194.2240  176.1860  135.3590 O   0  0  0  0  0  0  0  0  0  0  0  0
  193.8440  175.5740  136.8960 P   0  0  1  0  0  0  0  0  0  0  0  0
  193.5460  176.7340  137.8210 O   0  0  0  0  0  1  0  0  0  0  0  0
  195.2590  174.6470  137.5690 C   0  0  0  0  0  2  0  0  0  0  0  0
  196.2160  174.2340  136.4570 C   0  0  1  0  0  3  0  0  0  0  0  0
  198.5500  174.6440  136.8810 O   0  0  0  0  0  1  0  0  0  0  0  0
  197.3870  175.2020  136.3430 C   0  0  0  0  0  2  0  0  0  0  0  0
  196.7100  172.8140  136.6970 C   0  0  0  0  0  2  0  0  0  0  0  0
  195.5530  171.8790  136.7810 C   0  0  0  0  0  0  0  0  0  0  0  0
  194.7600  171.9680  137.7600 O   0  0  0  0  0  0  0  0  0  0  0  0
  195.3790  170.8990  135.8030 O   0  0  0  0  0  0  0  0  0  0  0  0
  197.4460  169.8810  135.8300 O   0  0  0  0  0  1  0  0  0  0  0  0
  196.0680  169.6580  135.8650 C   0  0  0  0  0  2  0  0  0  0  0  0
  181.4140  175.8050  138.6340 C   0  0  0  0  0  2  0  0  0  0  0  0
  179.0640  175.7910  139.4750 C   0  0  0  0  0  1  0  0  0  0  0  0
  180.2720  176.6630  139.1600 C   0  0  0  0  0  2  0  0  0  0  0  0
  184.6460  178.6340  138.6610 C   0  0  2  0  0  3  0  0  0  0  0  0
  184.7100  178.9440  140.0500 O   0  0  0  0  0  0  0  0  0  0  0  0
  185.5200  178.1070  142.0410 O   0  0  0  0  0  0  0  0  0  0  0  0
  185.7530  178.5070  140.8660 C   0  0  0  0  0  0  0  0  0  0  0  0
  187.0540  178.5310  140.3650 O   0  0  0  0  0  0  0  0  0  0  0  0
  188.0940  177.7500  140.9310 C   0  0  0  0  0  2  0  0  0  0  0  0
  189.0750  178.6480  141.6640 C   0  0  0  0  0  2  0  0  0  0  0  0
  189.6160  177.9630  142.9120 C   0  0  0  0  0  2  0  0  0  0  0  0
  191.1400  176.3920  143.2260 C   0  0  0  0  0  1  0  0  0  0  0  0
  189.8850  176.6160  142.6550 O   0  0  0  0  0  0  0  0  0  0  0  0
  183.3190  179.0480  138.0230 C   0  0  0  0  0  2  0  0  0  0  0  0
  182.6450  180.0590  138.8260 N   0  0  0  0  0  2  0  0  0  0  0  0
  181.4700  180.7380  138.3740 C   0  0  0  0  0  0  0  0  0  0  0  0
  180.9260  180.4250  137.2800 O   0  0  0  0  0  0  0  0  0  0  0  0
  180.8760  181.8250  139.1980 C   0  0  0  0  0  2  0  0  0  0  0  0
  179.3700  181.7440  139.1530 C   0  0  0  0  0  1  0  0  0  0  0  0
  1 42  1  6  0  0  0
  2  6  1  0  0  0  0
  2  7  1  0  0  0  0
  3  4  2  0  0  0  0
  5  1  1  0  0  0  0
  5  3  1  0  0  0  0
  6  8  1  6  0  0  0
  6 17  1  0  0  0  0
  6  1  1  0  0  0  0
  7  9  1  1  0  0  0
  7  5  1  0  0  0  0
  9 10  1  6  0  0  0
 11 15  1  1  0  0  0
 11 14  1  0  0  0  0
 11  9  1  0  0  0  0
 13 14  2  0  0  0  0
 14 12  1  0  0  0  0
 16 15  1  0  0  0  0
 18 17  1  0  0  0  0
 19 18  1  0  0  0  0
 20 21  1  0  0  0  0
 20 19  1  0  0  0  0
 21 23  1  6  0  0  0
 21 24  1  0  0  0  0
 23 22  1  0  0  0  0
 24 25  1  0  0  0  0
 25 27  1  0  0  0  0
 27 26  2  6  0  0  0
 27 29  1  0  0  0  0
 27 28  1  0  0  0  0
 30 32  1  1  0  0  0
 30 33  1  0  0  0  0
 30 29  1  0  0  0  0
 32 31  1  0  0  0  0
 33 34  1  0  0  0  0
 34 35  2  0  0  0  0
 36 38  1  0  0  0  0
 36 34  1  0  0  0  0
 37 38  1  0  0  0  0
 39  3  1  0  0  0  0
 39 41  1  0  0  0  0
 41 40  1  0  0  0  0
 42 52  1  1  0  0  0
 42 43  1  0  0  0  0
 43 45  1  0  0  0  0
 45 44  2  0  0  0  0
 46 45  1  0  0  0  0
 46 47  1  0  0  0  0
 47 48  1  0  0  0  0
 48 49  1  0  0  0  0
 51 49  1  0  0  0  0
 51 50  1  0  0  0  0
 52 53  1  0  0  0  0
 54 53  1  0  0  0  0
 54 56  1  0  0  0  0
 55 54  2  0  0  0  0
 57 56  1  0  0  0  0
M  END
>  <MODEL>
6

>  <REMARK>
 VINA RESULT:      -3.7      3.132      5.633
  Name = 
  33 active torsions:
  status: ('A' for Active; 'I' for Inactive)
    1  A    between atoms: C_2  and  C_19
    2  A    between atoms: C_2  and  C_38
    3  A    between atoms: C_2  and  O_44
    4  A    between atoms: C_4  and  C_14
    5  A    between atoms: C_5  and  O_10
    6  A    between atoms: C_5  and  C_26
    7  A    between atoms: C_6  and  P_8
    8  A    between atoms: C_6  and  C_27
    9  A    between atoms: P_8  and  O_13
   10  A    between atoms: C_9  and  C_31
   11  A    between atoms: O_10  and  C_17
   12  A    between atoms: O_13  and  C_19
   13  A    between atoms: C_14  and  C_35
   14  A    between atoms: C_14  and  O_36
   15  A    between atoms: O_16  and  C_28
   16  A    between atoms: O_16  and  C_30
   17  A    between atoms: C_17  and  O_36
   18  A    between atoms: C_18  and  C_23
   19  A    between atoms: C_20  and  C_56
   20  A    between atoms: C_23  and  C_43
   21  A    between atoms: C_23  and  C_46
   22  A    between atoms: C_26  and  C_39
   23  A    between atoms: C_27  and  C_42
   24  A    between atoms: C_27  and  C_50
   25  A    between atoms: N_29  and  C_35
   26  A    between atoms: C_30  and  C_42
   27  A    between atoms: C_37  and  C_54
   28  A    between atoms: C_39  and  O_45
   29  A    between atoms: C_40  and  O_44
   30  A    between atoms: C_40  and  P_49
   31  A    between atoms: C_41  and  C_46
   32  A    between atoms: P_49  and  C_54
   33  A    between atoms: C_51  and  C_56
                            x       y       z     vdW  Elec       q    Type
                         _______ _______ _______ _____ _____    ______ ____

>  <TORSDO>
F 33

$$$$
=
 OpenBabel10222417243D

 57 57  0  0  1  0  0  0  0  0999 V2000
  186.1030  177.3650  137.3320 C   0  0  1  0  0  3  0  0  0  0  0  0
  187.6810  177.4690  135.5430 O   0  0  0  0  0  0  0  0  0  0  0  0
  184.6420  175.5090  136.3610 C   0  0  0  0  0  0  0  0  0  0  0  0
  184.0710  175.2530  137.4560 O   0  0  0  0  0  0  0  0  0  0  0  0
  185.7660  176.4040  136.3200 N   0  0  0  0  0  0  0  0  0  0  0  0
  187.2170  178.1840  136.6730 C   0  0  1  0  0  0  0  0  0  0  0  0
  186.7280  176.4690  135.2380 C   0  0  2  0  0  3  0  0  0  0  0  0
  186.7700  179.4420  136.2500 O   0  0  0  0  0  1  0  0  0  0  0  0
  187.4270  175.1170  135.0710 C   0  0  2  0  0  3  0  0  0  0  0  0
  186.5050  174.0800  135.2360 O   0  0  0  0  0  1  0  0  0  0  0  0
  188.5990  174.9750  136.0530 C   0  0  2  0  0  3  0  0  0  0  0  0
  190.8190  176.3000  135.6560 C   0  0  0  0  0  1  0  0  0  0  0  0
  190.3110  174.2690  134.5940 O   0  0  0  0  0  0  0  0  0  0  0  0
  189.9350  175.1280  135.3770 C   0  0  0  0  0  0  0  0  0  0  0  0
  188.5200  173.6970  136.9080 C   0  0  0  0  0  2  0  0  0  0  0  0
  187.1830  173.5110  137.6050 C   0  0  0  0  0  1  0  0  0  0  0  0
  188.3470  178.3550  137.6810 C   0  0  0  0  0  2  0  0  0  0  0  0
  188.0870  177.3080  139.2050 P   0  0  0  0  0  2  0  0  0  0  0  0
  189.7930  176.5710  139.1490 C   0  0  0  0  0  2  0  0  0  0  0  0
  190.2530  176.3340  140.4480 O   0  0  0  0  0  0  0  0  0  0  0  0
  191.1970  177.3340  140.6780 C   0  0  2  0  0  3  0  0  0  0  0  0
  193.5640  177.4930  140.5310 O   0  0  0  0  0  1  0  0  0  0  0  0
  192.4310  177.0750  139.8350 C   0  0  0  0  0  2  0  0  0  0  0  0
  191.5700  177.3500  142.1470 C   0  0  0  0  0  2  0  0  0  0  0  0
  190.6960  178.1920  142.8390 O   0  0  0  0  0  0  0  0  0  0  0  0
  192.1000  176.7380  144.7980 O   0  0  0  0  0  0  0  0  0  0  0  0
  190.7360  177.6930  144.4650 P   0  0  1  0  0  0  0  0  0  0  0  0
  190.7790  178.9250  145.3420 O   0  0  0  0  0  1  0  0  0  0  0  0
  189.2160  176.7660  144.8430 C   0  0  0  0  0  2  0  0  0  0  0  0
  187.9830  177.6380  144.6370 C   0  0  1  0  0  3  0  0  0  0  0  0
  187.8370  176.3270  142.6230 O   0  0  0  0  0  1  0  0  0  0  0  0
  187.4660  177.5420  143.2070 C   0  0  0  0  0  2  0  0  0  0  0  0
  186.8990  177.2490  145.6320 C   0  0  0  0  0  2  0  0  0  0  0  0
  186.4550  178.4470  146.3970 C   0  0  0  0  0  0  0  0  0  0  0  0
  185.7370  179.3130  145.8220 O   0  0  0  0  0  0  0  0  0  0  0  0
  186.8630  178.6170  147.7200 O   0  0  0  0  0  0  0  0  0  0  0  0
  189.0670  178.0140  148.0150 O   0  0  0  0  0  1  0  0  0  0  0  0
  187.7480  177.7000  148.3480 C   0  0  0  0  0  2  0  0  0  0  0  0
  184.1100  174.9100  135.0990 C   0  0  0  0  0  2  0  0  0  0  0  0
  181.6950  175.4780  134.8280 C   0  0  0  0  0  1  0  0  0  0  0  0
  182.6830  174.4270  135.3130 C   0  0  0  0  0  2  0  0  0  0  0  0
  184.8620  178.1260  137.8440 C   0  0  2  0  0  3  0  0  0  0  0  0
  184.6680  177.9730  139.2470 O   0  0  0  0  0  0  0  0  0  0  0  0
  185.6220  179.4480  140.7420 O   0  0  0  0  0  0  0  0  0  0  0  0
  184.5950  179.0630  140.1150 C   0  0  0  0  0  0  0  0  0  0  0  0
  183.3710  179.7070  140.2850 O   0  0  0  0  0  0  0  0  0  0  0  0
  182.2950  179.1060  140.9880 C   0  0  0  0  0  2  0  0  0  0  0  0
  182.7680  178.6380  142.3530 C   0  0  0  0  0  2  0  0  0  0  0  0
  182.0080  179.3450  143.4670 C   0  0  0  0  0  2  0  0  0  0  0  0
  180.1330  178.1950  143.6840 C   0  0  0  0  0  1  0  0  0  0  0  0
  181.3690  178.4170  144.2940 O   0  0  0  0  0  0  0  0  0  0  0  0
  183.5990  177.8260  137.0360 C   0  0  0  0  0  2  0  0  0  0  0  0
  182.5630  178.8150  137.2950 N   0  0  0  0  0  2  0  0  0  0  0  0
  181.2580  178.4550  137.7570 C   0  0  0  0  0  0  0  0  0  0  0  0
  180.9810  177.2550  138.0310 O   0  0  0  0  0  0  0  0  0  0  0  0
  180.2120  179.5010  137.9190 C   0  0  0  0  0  2  0  0  0  0  0  0
  180.2310  180.4370  136.7350 C   0  0  0  0  0  1  0  0  0  0  0  0
  1 42  1  6  0  0  0
  2  6  1  0  0  0  0
  3  4  2  0  0  0  0
  5  3  1  0  0  0  0
  5  1  1  0  0  0  0
  6  8  1  6  0  0  0
  6  1  1  0  0  0  0
  6 17  1  0  0  0  0
  7  9  1  1  0  0  0
  7  2  1  0  0  0  0
  7  5  1  0  0  0  0
  9 10  1  1  0  0  0
  9 11  1  0  0  0  0
 11 15  1  6  0  0  0
 13 14  2  0  0  0  0
 14 12  1  0  0  0  0
 14 11  1  0  0  0  0
 15 16  1  0  0  0  0
 17 18  1  0  0  0  0
 19 18  1  0  0  0  0
 19 20  1  0  0  0  0
 20 21  1  0  0  0  0
 21 23  1  6  0  0  0
 21 24  1  0  0  0  0
 23 22  1  0  0  0  0
 24 25  1  0  0  0  0
 25 27  1  0  0  0  0
 27 26  2  1  0  0  0
 27 29  1  0  0  0  0
 27 28  1  0  0  0  0
 30 32  1  6  0  0  0
 30 29  1  0  0  0  0
 30 33  1  0  0  0  0
 31 32  1  0  0  0  0
 33 34  1  0  0  0  0
 34 36  1  0  0  0  0
 35 34  2  0  0  0  0
 36 38  1  0  0  0  0
 37 38  1  0  0  0  0
 39 41  1  0  0  0  0
 39  3  1  0  0  0  0
 40 41  1  0  0  0  0
 42 52  1  6  0  0  0
 42 43  1  0  0  0  0
 43 45  1  0  0  0  0
 45 46  1  0  0  0  0
 45 44  2  0  0  0  0
 46 47  1  0  0  0  0
 47 48  1  0  0  0  0
 48 49  1  0  0  0  0
 49 51  1  0  0  0  0
 50 51  1  0  0  0  0
 52 53  1  0  0  0  0
 53 54  1  0  0  0  0
 54 56  1  0  0  0  0
 54 55  2  0  0  0  0
 57 56  1  0  0  0  0
M  END
>  <MODEL>
7

>  <REMARK>
 VINA RESULT:      -3.4      2.242      4.243
  Name = 
  33 active torsions:
  status: ('A' for Active; 'I' for Inactive)
    1  A    between atoms: C_2  and  C_19
    2  A    between atoms: C_2  and  C_38
    3  A    between atoms: C_2  and  O_44
    4  A    between atoms: C_4  and  C_14
    5  A    between atoms: C_5  and  O_10
    6  A    between atoms: C_5  and  C_26
    7  A    between atoms: C_6  and  P_8
    8  A    between atoms: C_6  and  C_27
    9  A    between atoms: P_8  and  O_13
   10  A    between atoms: C_9  and  C_31
   11  A    between atoms: O_10  and  C_17
   12  A    between atoms: O_13  and  C_19
   13  A    between atoms: C_14  and  C_35
   14  A    between atoms: C_14  and  O_36
   15  A    between atoms: O_16  and  C_28
   16  A    between atoms: O_16  and  C_30
   17  A    between atoms: C_17  and  O_36
   18  A    between atoms: C_18  and  C_23
   19  A    between atoms: C_20  and  C_56
   20  A    between atoms: C_23  and  C_43
   21  A    between atoms: C_23  and  C_46
   22  A    between atoms: C_26  and  C_39
   23  A    between atoms: C_27  and  C_42
   24  A    between atoms: C_27  and  C_50
   25  A    between atoms: N_29  and  C_35
   26  A    between atoms: C_30  and  C_42
   27  A    between atoms: C_37  and  C_54
   28  A    between atoms: C_39  and  O_45
   29  A    between atoms: C_40  and  O_44
   30  A    between atoms: C_40  and  P_49
   31  A    between atoms: C_41  and  C_46
   32  A    between atoms: P_49  and  C_54
   33  A    between atoms: C_51  and  C_56
                            x       y       z     vdW  Elec       q    Type
                         _______ _______ _______ _____ _____    ______ ____

>  <TORSDO>
F 33

$$$$
=
 OpenBabel10222417243D

 57 57  0  0  1  0  0  0  0  0999 V2000
  186.8980  177.8010  141.7890 C   0  0  1  0  0  3  0  0  0  0  0  0
  186.3550  178.8900  139.7340 O   0  0  0  0  0  0  0  0  0  0  0  0
  184.6690  178.2150  142.9660 C   0  0  0  0  0  0  0  0  0  0  0  0
  184.8690  177.3460  143.8580 O   0  0  0  0  0  0  0  0  0  0  0  0
  185.5610  178.3200  141.8430 N   0  0  0  0  0  0  0  0  0  0  0  0
  187.4470  178.3970  140.4890 C   0  0  1  0  0  0  0  0  0  0  0  0
  185.2350  178.9770  140.5930 C   0  0  2  0  0  3  0  0  0  0  0  0
  188.3370  179.4520  140.7230 O   0  0  0  0  0  1  0  0  0  0  0  0
  184.0250  178.3030  139.9410 C   0  0  2  0  0  3  0  0  0  0  0  0
  184.4420  177.5100  138.8680 O   0  0  0  0  0  1  0  0  0  0  0  0
  182.9890  179.3410  139.4910 C   0  0  2  0  0  3  0  0  0  0  0  0
  180.6840  180.3050  140.2640 C   0  0  0  0  0  1  0  0  0  0  0  0
  181.4040  178.1220  140.7410 O   0  0  0  0  0  0  0  0  0  0  0  0
  181.6740  179.1880  140.2070 C   0  0  0  0  0  0  0  0  0  0  0  0
  182.8180  179.4010  137.9620 C   0  0  0  0  0  2  0  0  0  0  0  0
  182.2710  178.1190  137.3590 C   0  0  0  0  0  1  0  0  0  0  0  0
  188.1560  177.2910  139.7160 C   0  0  0  0  0  2  0  0  0  0  0  0
  188.1860  177.6300  137.8800 P   0  0  0  0  0  2  0  0  0  0  0  0
  188.9950  176.0090  137.4620 C   0  0  0  0  0  2  0  0  0  0  0  0
  190.0980  176.2280  136.6320 O   0  0  0  0  0  0  0  0  0  0  0  0
  191.1690  175.6360  137.3010 C   0  0  2  0  0  3  0  0  0  0  0  0
  192.1970  176.0520  139.4020 O   0  0  0  0  0  1  0  0  0  0  0  0
  191.8380  176.6570  138.1990 C   0  0  0  0  0  2  0  0  0  0  0  0
  192.1660  175.1050  136.2910 C   0  0  0  0  0  2  0  0  0  0  0  0
  192.8110  173.9840  136.8200 O   0  0  0  0  0  0  0  0  0  0  0  0
  191.8990  172.5200  134.5960 O   0  0  0  0  0  1  0  0  0  0  0  0
  193.2520  173.0150  135.4930 P   0  0  1  0  0  0  0  0  0  0  0  0
  194.1630  173.8230  134.5940 O   0  0  0  0  0  0  0  0  0  0  0  0
  194.1720  171.5630  136.0930 C   0  0  0  0  0  2  0  0  0  0  0  0
  195.1070  171.9460  137.2340 C   0  0  1  0  0  3  0  0  0  0  0  0
  196.5790  170.0800  136.8510 O   0  0  0  0  0  1  0  0  0  0  0  0
  195.8020  170.7220  137.8190 C   0  0  0  0  0  2  0  0  0  0  0  0
  196.1270  172.9670  136.7510 C   0  0  0  0  0  2  0  0  0  0  0  0
  196.9990  173.3920  137.8810 C   0  0  0  0  0  0  0  0  0  0  0  0
  198.2530  173.3900  137.7240 O   0  0  0  0  0  0  0  0  0  0  0  0
  196.4290  173.7490  139.1030 O   0  0  0  0  0  0  0  0  0  0  0  0
  196.1230  175.6810  140.3210 O   0  0  0  0  0  1  0  0  0  0  0  0
  195.6510  174.9300  139.2420 C   0  0  0  0  0  2  0  0  0  0  0  0
  183.5260  179.1650  143.1120 C   0  0  0  0  0  2  0  0  0  0  0  0
  183.0860  178.8640  145.5500 C   0  0  0  0  0  1  0  0  0  0  0  0
  182.5410  178.6410  144.1470 C   0  0  0  0  0  2  0  0  0  0  0  0
  187.6810  178.0790  143.0890 C   0  0  2  0  0  3  0  0  0  0  0  0
  188.6660  177.0860  143.3560 O   0  0  0  0  0  0  0  0  0  0  0  0
  190.3220  176.2200  142.0040 O   0  0  0  0  0  0  0  0  0  0  0  0
  189.9420  177.1280  142.7950 C   0  0  0  0  0  0  0  0  0  0  0  0
  190.7910  178.1810  143.1330 O   0  0  0  0  0  0  0  0  0  0  0  0
  191.1190  178.4810  144.4800 C   0  0  0  0  0  2  0  0  0  0  0  0
  191.7120  177.2560  145.1530 C   0  0  0  0  0  2  0  0  0  0  0  0
  190.6210  176.3900  145.7700 C   0  0  0  0  0  2  0  0  0  0  0  0
  192.2580  175.6170  147.0390 C   0  0  0  0  0  1  0  0  0  0  0  0
  190.9380  176.0690  147.0930 O   0  0  0  0  0  0  0  0  0  0  0  0
  186.7720  178.3490  144.2900 C   0  0  0  0  0  2  0  0  0  0  0  0
  187.3950  177.9060  145.5280 N   0  0  0  0  0  2  0  0  0  0  0  0
  186.8820  178.2630  146.8150 C   0  0  0  0  0  0  0  0  0  0  0  0
  185.8110  178.9220  146.9200 O   0  0  0  0  0  0  0  0  0  0  0  0
  187.6110  177.8550  148.0460 C   0  0  0  0  0  2  0  0  0  0  0  0
  188.9780  178.4950  148.0710 C   0  0  0  0  0  1  0  0  0  0  0  0
  1  5  1  0  0  0  0
  1 42  1  1  0  0  0
  2  6  1  0  0  0  0
  2  7  1  0  0  0  0
  3 39  1  0  0  0  0
  3  4  2  0  0  0  0
  5  3  1  0  0  0  0
  6  8  1  1  0  0  0
  6  1  1  0  0  0  0
  7  9  1  6  0  0  0
  7  5  1  0  0  0  0
  9 10  1  6  0  0  0
 11 15  1  6  0  0  0
 11  9  1  0  0  0  0
 11 14  1  0  0  0  0
 14 12  1  0  0  0  0
 14 13  2  0  0  0  0
 16 15  1  0  0  0  0
 17  6  1  0  0  0  0
 18 17  1  0  0  0  0
 19 18  1  0  0  0  0
 20 21  1  0  0  0  0
 20 19  1  0  0  0  0
 21 24  1  6  0  0  0
 21 23  1  0  0  0  0
 23 22  1  0  0  0  0
 24 25  1  0  0  0  0
 26 27  1  0  0  0  0
 27 28  2  6  0  0  0
 27 29  1  0  0  0  0
 27 25  1  0  0  0  0
 30 29  1  6  0  0  0
 30 32  1  0  0  0  0
 31 32  1  0  0  0  0
 33 30  1  0  0  0  0
 33 34  1  0  0  0  0
 34 36  1  0  0  0  0
 35 34  2  0  0  0  0
 36 38  1  0  0  0  0
 38 37  1  0  0  0  0
 39 41  1  0  0  0  0
 41 40  1  0  0  0  0
 42 43  1  0  0  0  0
 42 52  1  1  0  0  0
 44 45  2  0  0  0  0
 45 46  1  0  0  0  0
 45 43  1  0  0  0  0
 46 47  1  0  0  0  0
 47 48  1  0  0  0  0
 48 49  1  0  0  0  0
 49 51  1  0  0  0  0
 50 51  1  0  0  0  0
 52 53  1  0  0  0  0
 53 54  1  0  0  0  0
 54 55  2  0  0  0  0
 54 56  1  0  0  0  0
 56 57  1  0  0  0  0
M  END
>  <MODEL>
8

>  <REMARK>
 VINA RESULT:      -3.2      3.484      7.888
  Name = 
  33 active torsions:
  status: ('A' for Active; 'I' for Inactive)
    1  A    between atoms: C_2  and  C_19
    2  A    between atoms: C_2  and  C_38
    3  A    between atoms: C_2  and  O_44
    4  A    between atoms: C_4  and  C_14
    5  A    between atoms: C_5  and  O_10
    6  A    between atoms: C_5  and  C_26
    7  A    between atoms: C_6  and  P_8
    8  A    between atoms: C_6  and  C_27
    9  A    between atoms: P_8  and  O_13
   10  A    between atoms: C_9  and  C_31
   11  A    between atoms: O_10  and  C_17
   12  A    between atoms: O_13  and  C_19
   13  A    between atoms: C_14  and  C_35
   14  A    between atoms: C_14  and  O_36
   15  A    between atoms: O_16  and  C_28
   16  A    between atoms: O_16  and  C_30
   17  A    between atoms: C_17  and  O_36
   18  A    between atoms: C_18  and  C_23
   19  A    between atoms: C_20  and  C_56
   20  A    between atoms: C_23  and  C_43
   21  A    between atoms: C_23  and  C_46
   22  A    between atoms: C_26  and  C_39
   23  A    between atoms: C_27  and  C_42
   24  A    between atoms: C_27  and  C_50
   25  A    between atoms: N_29  and  C_35
   26  A    between atoms: C_30  and  C_42
   27  A    between atoms: C_37  and  C_54
   28  A    between atoms: C_39  and  O_45
   29  A    between atoms: C_40  and  O_44
   30  A    between atoms: C_40  and  P_49
   31  A    between atoms: C_41  and  C_46
   32  A    between atoms: P_49  and  C_54
   33  A    between atoms: C_51  and  C_56
                            x       y       z     vdW  Elec       q    Type
                         _______ _______ _______ _____ _____    ______ ____

>  <TORSDO>
F 33

$$$$
=
 OpenBabel10222417243D

 57 57  0  0  1  0  0  0  0  0999 V2000
  189.1250  175.1850  137.3340 C   0  0  1  0  0  3  0  0  0  0  0  0
  191.1980  176.3720  137.3520 O   0  0  0  0  0  0  0  0  0  0  0  0
  189.8490  173.3060  135.7630 C   0  0  0  0  0  0  0  0  0  0  0  0
  188.8850  172.5510  136.0660 O   0  0  0  0  0  0  0  0  0  0  0  0
  190.0870  174.5130  136.5060 N   0  0  0  0  0  0  0  0  0  0  0  0
  189.8250  176.5050  137.6740 C   0  0  1  0  0  0  0  0  0  0  0  0
  191.3430  175.2350  136.5230 C   0  0  2  0  0  3  0  0  0  0  0  0
  189.3030  177.5840  136.9510 O   0  0  0  0  0  1  0  0  0  0  0  0
  192.4610  174.3370  137.0610 C   0  0  2  0  0  3  0  0  0  0  0  0
  192.1300  173.8770  138.3380 O   0  0  0  0  0  1  0  0  0  0  0  0
  193.8060  175.0760  137.0720 C   0  0  2  0  0  3  0  0  0  0  0  0
  194.7440  176.8970  135.4450 C   0  0  0  0  0  1  0  0  0  0  0  0
  194.1650  174.7240  134.7680 O   0  0  0  0  0  0  0  0  0  0  0  0
  194.2300  175.5170  135.6960 C   0  0  0  0  0  0  0  0  0  0  0  0
  194.9160  174.3000  137.8040 C   0  0  0  0  0  2  0  0  0  0  0  0
  194.8930  172.8050  137.5380 C   0  0  0  0  0  1  0  0  0  0  0  0
  189.6640  176.7620  139.1680 C   0  0  0  0  0  2  0  0  0  0  0  0
  191.3100  176.9990  140.0170 P   0  0  0  0  0  2  0  0  0  0  0  0
  190.5680  177.0670  141.7200 C   0  0  0  0  0  2  0  0  0  0  0  0
  191.2320  176.1730  142.5650 O   0  0  0  0  0  0  0  0  0  0  0  0
  191.1790  176.7680  143.8250 C   0  0  2  0  0  3  0  0  0  0  0  0
  192.1490  174.6980  144.4720 O   0  0  0  0  0  1  0  0  0  0  0  0
  191.2800  175.7020  144.8980 C   0  0  0  0  0  2  0  0  0  0  0  0
  189.8750  177.5260  143.9720 C   0  0  0  0  0  2  0  0  0  0  0  0
  189.2070  177.0830  145.1180 O   0  0  0  0  0  0  0  0  0  0  0  0
  187.3070  175.6590  143.6070 O   0  0  0  0  0  0  0  0  0  0  0  0
  187.5670  176.9390  144.6910 P   0  0  1  0  0  0  0  0  0  0  0  0
  186.7670  176.6800  145.9500 O   0  0  0  0  0  1  0  0  0  0  0  0
  187.0010  178.5060  143.9590 C   0  0  0  0  0  2  0  0  0  0  0  0
  185.5480  178.7830  144.3240 C   0  0  1  0  0  3  0  0  0  0  0  0
  184.2960  178.7090  146.3800 O   0  0  0  0  0  1  0  0  0  0  0  0
  185.4190  179.2690  145.7630 C   0  0  0  0  0  2  0  0  0  0  0  0
  184.9520  179.7950  143.3570 C   0  0  0  0  0  2  0  0  0  0  0  0
  184.5360  179.1140  142.0990 C   0  0  0  0  0  0  0  0  0  0  0  0
  185.3630  179.0190  141.1490 O   0  0  0  0  0  0  0  0  0  0  0  0
  183.2360  178.6250  141.9700 O   0  0  0  0  0  0  0  0  0  0  0  0
  180.9600  178.9580  141.8300 O   0  0  0  0  0  1  0  0  0  0  0  0
  182.1230  179.3220  142.5130 C   0  0  0  0  0  2  0  0  0  0  0  0
  190.7110  172.9590  134.5940 C   0  0  0  0  0  2  0  0  0  0  0  0
  192.8800  171.7240  134.6370 C   0  0  0  0  0  1  0  0  0  0  0  0
  191.3730  171.6070  134.8170 C   0  0  0  0  0  2  0  0  0  0  0  0
  187.7380  175.2640  136.6640 C   0  0  2  0  0  3  0  0  0  0  0  0
  186.7890  175.9730  137.4550 O   0  0  0  0  0  0  0  0  0  0  0  0
  186.3760  177.5990  135.8720 O   0  0  0  0  0  0  0  0  0  0  0  0
  186.0360  177.0320  136.9480 C   0  0  0  0  0  0  0  0  0  0  0  0
  184.9130  177.4580  137.6550 O   0  0  0  0  0  0  0  0  0  0  0  0
  183.6320  176.8820  137.4540 C   0  0  0  0  0  2  0  0  0  0  0  0
  182.8520  176.8870  138.7570 C   0  0  0  0  0  2  0  0  0  0  0  0
  181.7200  177.9040  138.7120 C   0  0  0  0  0  2  0  0  0  0  0  0
  180.4640  176.5430  139.9190 C   0  0  0  0  0  1  0  0  0  0  0  0
  180.4800  177.2590  138.7210 O   0  0  0  0  0  0  0  0  0  0  0  0
  187.2190  173.9030  136.1970 C   0  0  0  0  0  2  0  0  0  0  0  0
  185.8940  174.0210  135.6060 N   0  0  0  0  0  2  0  0  0  0  0  0
  185.0740  172.8820  135.3310 C   0  0  0  0  0  0  0  0  0  0  0  0
  185.4460  171.7250  135.6660 O   0  0  0  0  0  0  0  0  0  0  0  0
  183.7660  173.0570  134.6440 C   0  0  0  0  0  2  0  0  0  0  0  0
  182.7090  173.4660  135.6420 C   0  0  0  0  0  1  0  0  0  0  0  0
  1 42  1  6  0  0  0
  1  6  1  0  0  0  0
  2  6  1  0  0  0  0
  3  4  2  0  0  0  0
  3  5  1  0  0  0  0
  5  7  1  0  0  0  0
  5  1  1  0  0  0  0
  6  8  1  6  0  0  0
  6 17  1  0  0  0  0
  7  9  1  1  0  0  0
  7  2  1  0  0  0  0
  9 11  1  0  0  0  0
  9 10  1  1  0  0  0
 11 15  1  6  0  0  0
 12 14  1  0  0  0  0
 13 14  2  0  0  0  0
 14 11  1  0  0  0  0
 16 15  1  0  0  0  0
 17 18  1  0  0  0  0
 18 19  1  0  0  0  0
 19 20  1  0  0  0  0
 20 21  1  0  0  0  0
 21 24  1  1  0  0  0
 21 23  1  0  0  0  0
 22 23  1  0  0  0  0
 24 25  1  0  0  0  0
 27 26  2  6  0  0  0
 27 25  1  0  0  0  0
 27 28  1  0  0  0  0
 29 30  1  0  0  0  0
 29 27  1  0  0  0  0
 30 33  1  6  0  0  0
 30 32  1  0  0  0  0
 32 31  1  0  0  0  0
 34 33  1  0  0  0  0
 35 34  2  0  0  0  0
 36 34  1  0  0  0  0
 36 38  1  0  0  0  0
 37 38  1  0  0  0  0
 39 41  1  0  0  0  0
 39  3  1  0  0  0  0
 40 41  1  0  0  0  0
 42 52  1  1  0  0  0
 42 43  1  0  0  0  0
 44 45  2  0  0  0  0
 45 43  1  0  0  0  0
 45 46  1  0  0  0  0
 47 46  1  0  0  0  0
 47 48  1  0  0  0  0
 49 51  1  0  0  0  0
 49 48  1  0  0  0  0
 51 50  1  0  0  0  0
 53 52  1  0  0  0  0
 54 53  1  0  0  0  0
 54 55  2  0  0  0  0
 56 54  1  0  0  0  0
 56 57  1  0  0  0  0
M  END
>  <MODEL>
9

>  <REMARK>
 VINA RESULT:      -2.9      2.743      8.135
  Name = 
  33 active torsions:
  status: ('A' for Active; 'I' for Inactive)
    1  A    between atoms: C_2  and  C_19
    2  A    between atoms: C_2  and  C_38
    3  A    between atoms: C_2  and  O_44
    4  A    between atoms: C_4  and  C_14
    5  A    between atoms: C_5  and  O_10
    6  A    between atoms: C_5  and  C_26
    7  A    between atoms: C_6  and  P_8
    8  A    between atoms: C_6  and  C_27
    9  A    between atoms: P_8  and  O_13
   10  A    between atoms: C_9  and  C_31
   11  A    between atoms: O_10  and  C_17
   12  A    between atoms: O_13  and  C_19
   13  A    between atoms: C_14  and  C_35
   14  A    between atoms: C_14  and  O_36
   15  A    between atoms: O_16  and  C_28
   16  A    between atoms: O_16  and  C_30
   17  A    between atoms: C_17  and  O_36
   18  A    between atoms: C_18  and  C_23
   19  A    between atoms: C_20  and  C_56
   20  A    between atoms: C_23  and  C_43
   21  A    between atoms: C_23  and  C_46
   22  A    between atoms: C_26  and  C_39
   23  A    between atoms: C_27  and  C_42
   24  A    between atoms: C_27  and  C_50
   25  A    between atoms: N_29  and  C_35
   26  A    between atoms: C_30  and  C_42
   27  A    between atoms: C_37  and  C_54
   28  A    between atoms: C_39  and  O_45
   29  A    between atoms: C_40  and  O_44
   30  A    between atoms: C_40  and  P_49
   31  A    between atoms: C_41  and  C_46
   32  A    between atoms: P_49  and  C_54
   33  A    between atoms: C_51  and  C_56
                            x       y       z     vdW  Elec       q    Type
                         _______ _______ _______ _____ _____    ______ ____

>  <TORSDO>
F 33

$$$$
