=
 OpenBabel10222417553D

 33 39  0  0  1  0  0  0  0  0999 V2000
  187.4630  178.7020  140.1750 O   0  0  0  0  0  0  0  0  0  0  0  0
  189.1250  177.5230  141.2830 N   0  0  0  0  0  2  0  0  0  0  0  0
  188.5170  178.0190  140.0910 C   0  0  0  0  0  0  0  0  0  0  0  0
  190.2730  176.7130  141.2280 N   0  0  0  0  0  0  0  0  0  0  0  0
  191.0230  176.7500  142.5120 C   0  0  1  0  0  3  0  0  0  0  0  0
  191.4300  177.6070  141.4050 C   0  0  0  0  0  2  0  0  0  0  0  0
  190.3670  177.5820  143.6160 C   0  0  2  0  0  3  0  0  0  0  0  0
  191.3620  177.8740  144.7150 C   0  0  1  0  0  3  0  0  0  0  0  0
  190.3710  176.7940  144.9060 C   0  0  2  0  0  0  0  0  0  0  0  0
  191.7260  176.6590  145.4590 N   0  0  0  0  0  2  0  0  0  0  0  0
  187.5310  178.0860  147.9150 C   0  0  0  0  0  3  0  0  0  0  0  0
  189.2990  177.2310  145.8910 C   0  0  0  0  0  0  0  0  0  0  0  0
  187.9230  177.4590  145.6010 C   0  0  0  0  0  0  0  0  0  0  0  0
  188.8780  177.8820  148.2060 C   0  0  0  0  0  3  0  0  0  0  0  0
  189.7530  177.4620  147.2000 C   0  0  0  0  0  3  0  0  0  0  0  0
  187.0580  177.8740  146.6200 C   0  0  0  0  0  3  0  0  0  0  0  0
  187.3400  177.2740  144.2940 C   0  0  0  0  0  0  0  0  0  0  0  0
  186.8670  177.1260  143.2480 N   0  0  0  0  0  0  0  0  0  0  0  0
  189.1200  177.7220  138.7480 C   0  0  2  0  0  3  0  0  0  0  0  0
  188.9640  179.6970  137.3550 N   0  0  0  0  0  2  0  0  0  0  0  0
  188.4880  178.5460  137.6640 C   0  0  0  0  0  0  0  0  0  0  0  0
  187.3030  178.0150  136.9280 C   0  0  0  0  0  1  0  0  0  0  0  0
  189.0180  176.3030  138.4400 N   0  0  0  0  0  2  0  0  0  0  0  0
  190.2830  174.4490  137.5040 C   0  0  2  0  0  0  0  0  0  0  0  0
  189.1650  173.8540  136.6740 C   0  0  0  0  0  2  0  0  0  0  0  0
  190.1560  175.9570  137.6020 C   0  0  1  0  0  3  0  0  0  0  0  0
  189.6710  175.2460  136.3570 C   0  0  1  0  0  3  0  0  0  0  0  0
  194.2200  173.1880  136.4590 C   0  0  0  0  0  3  0  0  0  0  0  0
  194.0050  174.2390  137.3460 C   0  0  0  0  0  3  0  0  0  0  0  0
  193.1090  172.5610  135.9020 C   0  0  0  0  0  3  0  0  0  0  0  0
  191.6620  174.0080  137.0980 C   0  0  0  0  0  0  0  0  0  0  0  0
  191.8560  172.9750  136.2300 N   0  0  0  0  0  0  0  0  0  0  0  0
  192.7390  174.6290  137.6480 N   0  0  0  0  0  0  0  0  0  0  0  0
  3  1  2  0  0  0  0
  3  2  1  0  0  0  0
  4  2  1  0  0  0  0
  4  6  1  0  0  0  0
  4  5  1  0  0  0  0
  5  6  1  6  0  0  0
  7  5  1  6  0  0  0
  7  8  1  0  0  0  0
  7  9  1  0  0  0  0
  8  9  1  0  0  0  0
  8 10  1  6  0  0  0
  9 10  1  0  0  0  0
  9 12  1  1  0  0  0
 11 14  1  0  0  0  0
 12 15  1  0  0  0  0
 13 12  2  0  0  0  0
 13 16  1  0  0  0  0
 15 14  2  0  0  0  0
 16 11  2  0  0  0  0
 17 13  1  0  0  0  0
 18 17  3  0  0  0  0
 19 21  1  6  0  0  0
 19  3  1  0  0  0  0
 20 21  2  0  0  0  0
 22 21  1  0  0  0  0
 23 19  1  0  0  0  0
 24 31  1  6  0  0  0
 24 26  1  0  0  0  0
 25 24  1  0  0  0  0
 26 23  1  1  0  0  0
 27 25  1  1  0  0  0
 27 24  1  0  0  0  0
 27 26  1  0  0  0  0
 28 29  1  0  0  0  0
 29 33  2  0  0  0  0
 30 32  1  0  0  0  0
 30 28  2  0  0  0  0
 31 33  1  0  0  0  0
 32 31  2  0  0  0  0
M  END
>  <MODEL>
1

>  <REMARK>
 VINA RESULT:      -8.3      0.000      0.000
  Name = 
  9 active torsions:
  status: ('A' for Active; 'I' for Inactive)
    1  A    between atoms: C_1  and  C_22
    2  A    between atoms: C_3  and  C_7
    3  A    between atoms: C_5  and  C_25
    4  A    between atoms: N_6  and  C_20
    5  A    between atoms: N_6  and  C_23
    6  A    between atoms: N_9  and  N_13
    7  A    between atoms: C_12  and  C_15
    8  A    between atoms: C_14  and  C_20
    9  A    between atoms: C_20  and  C_28
                            x       y       z     vdW  Elec       q    Type
                         _______ _______ _______ _____ _____    ______ ____

>  <TORSDO>
F 9

$$$$
=
 OpenBabel10222417553D

 33 39  0  0  1  0  0  0  0  0999 V2000
  186.6840  179.0720  140.1650 O   0  0  0  0  0  0  0  0  0  0  0  0
  188.5050  177.8340  140.8930 N   0  0  0  0  0  2  0  0  0  0  0  0
  187.5810  178.2360  139.8830 C   0  0  0  0  0  0  0  0  0  0  0  0
  189.4890  176.8650  140.6310 N   0  0  0  0  0  0  0  0  0  0  0  0
  190.3810  176.6690  141.8040 C   0  0  1  0  0  3  0  0  0  0  0  0
  190.7900  177.5480  140.7150 C   0  0  0  0  0  2  0  0  0  0  0  0
  190.0090  177.4900  143.0410 C   0  0  2  0  0  3  0  0  0  0  0  0
  191.1980  177.6200  143.9630 C   0  0  1  0  0  3  0  0  0  0  0  0
  190.1480  176.6270  144.2740 C   0  0  2  0  0  0  0  0  0  0  0  0
  191.5550  176.3330  144.5790 N   0  0  0  0  0  2  0  0  0  0  0  0
  187.9980  177.9920  147.7820 C   0  0  0  0  0  3  0  0  0  0  0  0
  189.3050  177.1020  145.4480 C   0  0  0  0  0  0  0  0  0  0  0  0
  187.9310  177.4760  145.4090 C   0  0  0  0  0  0  0  0  0  0  0  0
  189.3460  177.6440  147.8270 C   0  0  0  0  0  3  0  0  0  0  0  0
  189.9930  177.2080  146.6680 C   0  0  0  0  0  3  0  0  0  0  0  0
  187.2960  177.9060  146.5800 C   0  0  0  0  0  3  0  0  0  0  0  0
  187.1220  177.4270  144.2150 C   0  0  0  0  0  0  0  0  0  0  0  0
  186.4730  177.3950  143.2570 N   0  0  0  0  0  0  0  0  0  0  0  0
  187.6690  177.6610  138.4980 C   0  0  2  0  0  3  0  0  0  0  0  0
  188.9030  179.5500  137.6160 N   0  0  0  0  0  2  0  0  0  0  0  0
  188.7940  178.2750  137.7160 C   0  0  0  0  0  0  0  0  0  0  0  0
  189.8050  177.3950  137.0610 C   0  0  0  0  0  1  0  0  0  0  0  0
  186.4060  177.8220  137.7930 N   0  0  0  0  0  2  0  0  0  0  0  0
  184.5880  176.2970  137.2590 C   0  0  2  0  0  0  0  0  0  0  0  0
  183.8310  177.2200  136.3280 C   0  0  0  0  0  2  0  0  0  0  0  0
  186.0830  176.5410  137.1820 C   0  0  1  0  0  3  0  0  0  0  0  0
  185.2260  176.7650  135.9550 C   0  0  1  0  0  3  0  0  0  0  0  0
  183.5960  172.1590  136.9730 C   0  0  0  0  0  3  0  0  0  0  0  0
  184.8210  172.5790  137.4830 C   0  0  0  0  0  3  0  0  0  0  0  0
  182.6980  173.1310  136.5390 C   0  0  0  0  0  3  0  0  0  0  0  0
  184.2300  174.8430  137.1200 C   0  0  0  0  0  0  0  0  0  0  0  0
  183.0240  174.4470  136.6210 N   0  0  0  0  0  0  0  0  0  0  0  0
  185.1160  173.9040  137.5470 N   0  0  0  0  0  0  0  0  0  0  0  0
  3  1  2  0  0  0  0
  3  2  1  0  0  0  0
  4  6  1  0  0  0  0
  4  2  1  0  0  0  0
  4  5  1  0  0  0  0
  5  6  1  6  0  0  0
  7  5  1  6  0  0  0
  7  8  1  0  0  0  0
  7  9  1  0  0  0  0
  8  9  1  0  0  0  0
  8 10  1  6  0  0  0
  9 10  1  0  0  0  0
  9 12  1  1  0  0  0
 11 14  1  0  0  0  0
 12 15  1  0  0  0  0
 13 12  2  0  0  0  0
 13 16  1  0  0  0  0
 15 14  2  0  0  0  0
 16 11  2  0  0  0  0
 17 13  1  0  0  0  0
 18 17  3  0  0  0  0
 19 21  1  6  0  0  0
 19  3  1  0  0  0  0
 20 21  2  0  0  0  0
 22 21  1  0  0  0  0
 23 19  1  0  0  0  0
 24 31  1  1  0  0  0
 25 24  1  0  0  0  0
 26 24  1  0  0  0  0
 26 23  1  1  0  0  0
 27 25  1  1  0  0  0
 27 26  1  0  0  0  0
 27 24  1  0  0  0  0
 28 29  1  0  0  0  0
 29 33  2  0  0  0  0
 30 32  1  0  0  0  0
 30 28  2  0  0  0  0
 31 33  1  0  0  0  0
 32 31  2  0  0  0  0
M  END
>  <MODEL>
2

>  <REMARK>
 VINA RESULT:      -8.2      2.693      4.433
  Name = 
  9 active torsions:
  status: ('A' for Active; 'I' for Inactive)
    1  A    between atoms: C_1  and  C_22
    2  A    between atoms: C_3  and  C_7
    3  A    between atoms: C_5  and  C_25
    4  A    between atoms: N_6  and  C_20
    5  A    between atoms: N_6  and  C_23
    6  A    between atoms: N_9  and  N_13
    7  A    between atoms: C_12  and  C_15
    8  A    between atoms: C_14  and  C_20
    9  A    between atoms: C_20  and  C_28
                            x       y       z     vdW  Elec       q    Type
                         _______ _______ _______ _____ _____    ______ ____

>  <TORSDO>
F 9

$$$$
=
 OpenBabel10222417553D

 33 39  0  0  1  0  0  0  0  0999 V2000
  189.1770  178.9400  138.8670 O   0  0  0  0  0  0  0  0  0  0  0  0
  189.8430  177.6420  140.6700 N   0  0  0  0  0  2  0  0  0  0  0  0
  189.5480  177.8120  139.2840 C   0  0  0  0  0  0  0  0  0  0  0  0
  190.2100  176.3860  141.1830 N   0  0  0  0  0  0  0  0  0  0  0  0
  189.6550  176.1750  142.5460 C   0  0  1  0  0  3  0  0  0  0  0  0
  191.0270  176.6400  142.3810 C   0  0  0  0  0  2  0  0  0  0  0  0
  188.7660  177.3090  143.0620 C   0  0  2  0  0  3  0  0  0  0  0  0
  189.3660  177.9240  144.3050 C   0  0  1  0  0  3  0  0  0  0  0  0
  188.2560  176.9570  144.4400 C   0  0  2  0  0  0  0  0  0  0  0  0
  189.3260  176.9960  145.4460 N   0  0  0  0  0  2  0  0  0  0  0  0
  184.5050  178.9790  145.2340 C   0  0  0  0  0  3  0  0  0  0  0  0
  186.9720  177.6800  144.8180 C   0  0  0  0  0  0  0  0  0  0  0  0
  186.5640  178.0530  146.1300 C   0  0  0  0  0  0  0  0  0  0  0  0
  184.8870  178.6040  143.9480 C   0  0  0  0  0  3  0  0  0  0  0  0
  186.1080  177.9560  143.7450 C   0  0  0  0  0  3  0  0  0  0  0  0
  185.3400  178.7060  146.3180 C   0  0  0  0  0  3  0  0  0  0  0  0
  187.3530  177.8080  147.3130 C   0  0  0  0  0  0  0  0  0  0  0  0
  187.9810  177.6120  148.2660 N   0  0  0  0  0  0  0  0  0  0  0  0
  189.6680  176.6570  138.3320 C   0  0  2  0  0  3  0  0  0  0  0  0
  192.0870  176.7410  138.4410 N   0  0  0  0  0  2  0  0  0  0  0  0
  191.0370  176.5870  137.7190 C   0  0  0  0  0  0  0  0  0  0  0  0
  191.1790  176.3200  136.2580 C   0  0  0  0  0  1  0  0  0  0  0  0
  188.6460  176.7330  137.2990 N   0  0  0  0  0  2  0  0  0  0  0  0
  186.4090  177.6870  137.2830 C   0  0  2  0  0  0  0  0  0  0  0  0
  185.9970  177.1850  135.9150 C   0  0  0  0  0  2  0  0  0  0  0  0
  187.3530  176.7160  137.9660 C   0  0  1  0  0  3  0  0  0  0  0  0
  186.2990  176.1900  137.0160 C   0  0  1  0  0  3  0  0  0  0  0  0
  183.2060  178.9620  139.7930 C   0  0  0  0  0  3  0  0  0  0  0  0
  184.5350  179.1180  140.1750 C   0  0  0  0  0  3  0  0  0  0  0  0
  182.9420  178.3590  138.5660 C   0  0  0  0  0  3  0  0  0  0  0  0
  185.2640  178.1010  138.1650 C   0  0  0  0  0  0  0  0  0  0  0  0
  183.9670  177.9430  137.7750 N   0  0  0  0  0  0  0  0  0  0  0  0
  185.5350  178.6880  139.3610 N   0  0  0  0  0  0  0  0  0  0  0  0
  1  3  2  0  0  0  0
  2  4  1  0  0  0  0
  3  2  1  0  0  0  0
  4  6  1  0  0  0  0
  4  5  1  0  0  0  0
  5  6  1  1  0  0  0
  7  5  1  1  0  0  0
  7  8  1  0  0  0  0
  7  9  1  0  0  0  0
  8  9  1  0  0  0  0
  8 10  1  1  0  0  0
  9 12  1  1  0  0  0
  9 10  1  0  0  0  0
 11 16  1  0  0  0  0
 12 13  1  0  0  0  0
 13 16  2  0  0  0  0
 13 17  1  0  0  0  0
 14 11  2  0  0  0  0
 15 14  1  0  0  0  0
 15 12  2  0  0  0  0
 17 18  3  0  0  0  0
 19 23  1  6  0  0  0
 19  3  1  0  0  0  0
 21 19  1  0  0  0  0
 21 20  2  0  0  0  0
 22 21  1  0  0  0  0
 24 26  1  0  0  0  0
 24 31  1  1  0  0  0
 25 24  1  0  0  0  0
 26 23  1  6  0  0  0
 27 25  1  6  0  0  0
 27 24  1  0  0  0  0
 27 26  1  0  0  0  0
 28 29  1  0  0  0  0
 30 28  2  0  0  0  0
 31 33  1  0  0  0  0
 32 31  2  0  0  0  0
 32 30  1  0  0  0  0
 33 29  2  0  0  0  0
M  END
>  <MODEL>
3

>  <REMARK>
 VINA RESULT:      -8.2      2.507      5.299
  Name = 
  9 active torsions:
  status: ('A' for Active; 'I' for Inactive)
    1  A    between atoms: C_1  and  C_22
    2  A    between atoms: C_3  and  C_7
    3  A    between atoms: C_5  and  C_25
    4  A    between atoms: N_6  and  C_20
    5  A    between atoms: N_6  and  C_23
    6  A    between atoms: N_9  and  N_13
    7  A    between atoms: C_12  and  C_15
    8  A    between atoms: C_14  and  C_20
    9  A    between atoms: C_20  and  C_28
                            x       y       z     vdW  Elec       q    Type
                         _______ _______ _______ _____ _____    ______ ____

>  <TORSDO>
F 9

$$$$
=
 OpenBabel10222417553D

 33 39  0  0  1  0  0  0  0  0999 V2000
  189.0420  178.8970  138.8870 O   0  0  0  0  0  0  0  0  0  0  0  0
  189.7470  177.6080  140.6820 N   0  0  0  0  0  2  0  0  0  0  0  0
  189.4310  177.7740  139.3000 C   0  0  0  0  0  0  0  0  0  0  0  0
  190.1350  176.3570  141.1920 N   0  0  0  0  0  0  0  0  0  0  0  0
  189.6150  176.1490  142.5700 C   0  0  1  0  0  3  0  0  0  0  0  0
  190.9800  176.6220  142.3680 C   0  0  0  0  0  2  0  0  0  0  0  0
  188.7330  177.2800  143.1020 C   0  0  2  0  0  3  0  0  0  0  0  0
  189.3650  177.9110  144.3210 C   0  0  1  0  0  3  0  0  0  0  0  0
  188.2680  176.9360  144.4980 C   0  0  2  0  0  0  0  0  0  0  0  0
  189.3680  176.9930  145.4700 N   0  0  0  0  0  2  0  0  0  0  0  0
  184.5270  178.9370  145.3880 C   0  0  0  0  0  3  0  0  0  0  0  0
  186.9900  177.6510  144.9080 C   0  0  0  0  0  0  0  0  0  0  0  0
  186.6120  178.0210  146.2320 C   0  0  0  0  0  0  0  0  0  0  0  0
  184.8790  178.5660  144.0920 C   0  0  0  0  0  3  0  0  0  0  0  0
  186.0980  177.9250  143.8580 C   0  0  0  0  0  3  0  0  0  0  0  0
  185.3900  178.6660  146.4500 C   0  0  0  0  0  3  0  0  0  0  0  0
  187.4320  177.7790  147.3940 C   0  0  0  0  0  0  0  0  0  0  0  0
  188.0880  177.5790  148.3270 N   0  0  0  0  0  0  0  0  0  0  0  0
  189.5500  176.6180  138.3480 C   0  0  2  0  0  3  0  0  0  0  0  0
  191.1370  174.7900  138.2450 N   0  0  0  0  0  2  0  0  0  0  0  0
  190.9420  176.0560  138.3340 C   0  0  0  0  0  0  0  0  0  0  0  0
  192.1120  176.9790  138.4080 C   0  0  0  0  0  1  0  0  0  0  0  0
  189.1420  177.0110  137.0080 N   0  0  0  0  0  2  0  0  0  0  0  0
  186.8200  176.3240  137.2410 C   0  0  2  0  0  0  0  0  0  0  0  0
  186.1900  177.6020  136.7290 C   0  0  0  0  0  2  0  0  0  0  0  0
  188.1460  176.0500  136.5570 C   0  0  1  0  0  3  0  0  0  0  0  0
  187.0510  176.7710  135.8010 C   0  0  1  0  0  3  0  0  0  0  0  0
  184.2770  172.9020  137.3010 C   0  0  0  0  0  3  0  0  0  0  0  0
  185.6630  172.7770  137.2990 C   0  0  0  0  0  3  0  0  0  0  0  0
  183.7330  174.1830  137.2670 C   0  0  0  0  0  3  0  0  0  0  0  0
  185.9050  175.1310  137.2310 C   0  0  0  0  0  0  0  0  0  0  0  0
  184.5480  175.2700  137.2350 N   0  0  0  0  0  0  0  0  0  0  0  0
  186.4490  173.8850  137.2640 N   0  0  0  0  0  0  0  0  0  0  0  0
  1  3  2  0  0  0  0
  2  4  1  0  0  0  0
  3  2  1  0  0  0  0
  4  6  1  0  0  0  0
  4  5  1  0  0  0  0
  5  6  1  1  0  0  0
  7  5  1  1  0  0  0
  7  8  1  0  0  0  0
  7  9  1  0  0  0  0
  8  9  1  0  0  0  0
  8 10  1  1  0  0  0
  9 12  1  1  0  0  0
  9 10  1  0  0  0  0
 11 16  1  0  0  0  0
 12 13  1  0  0  0  0
 13 16  2  0  0  0  0
 13 17  1  0  0  0  0
 14 11  2  0  0  0  0
 15 14  1  0  0  0  0
 15 12  2  0  0  0  0
 17 18  3  0  0  0  0
 19 23  1  6  0  0  0
 19  3  1  0  0  0  0
 20 21  2  0  0  0  0
 21 19  1  0  0  0  0
 21 22  1  0  0  0  0
 24 31  1  1  0  0  0
 25 24  1  0  0  0  0
 26 23  1  1  0  0  0
 26 24  1  0  0  0  0
 27 26  1  0  0  0  0
 27 25  1  1  0  0  0
 27 24  1  0  0  0  0
 29 28  1  0  0  0  0
 30 28  2  0  0  0  0
 31 32  2  0  0  0  0
 31 33  1  0  0  0  0
 32 30  1  0  0  0  0
 33 29  2  0  0  0  0
M  END
>  <MODEL>
4

>  <REMARK>
 VINA RESULT:      -8.0      2.478      4.528
  Name = 
  9 active torsions:
  status: ('A' for Active; 'I' for Inactive)
    1  A    between atoms: C_1  and  C_22
    2  A    between atoms: C_3  and  C_7
    3  A    between atoms: C_5  and  C_25
    4  A    between atoms: N_6  and  C_20
    5  A    between atoms: N_6  and  C_23
    6  A    between atoms: N_9  and  N_13
    7  A    between atoms: C_12  and  C_15
    8  A    between atoms: C_14  and  C_20
    9  A    between atoms: C_20  and  C_28
                            x       y       z     vdW  Elec       q    Type
                         _______ _______ _______ _____ _____    ______ ____

>  <TORSDO>
F 9

$$$$
=
 OpenBabel10222417553D

 33 39  0  0  1  0  0  0  0  0999 V2000
  187.1390  178.5880  139.6650 O   0  0  0  0  0  0  0  0  0  0  0  0
  188.6940  177.3690  140.8800 N   0  0  0  0  0  2  0  0  0  0  0  0
  188.2130  177.9340  139.6600 C   0  0  0  0  0  0  0  0  0  0  0  0
  189.8630  176.5880  140.9060 N   0  0  0  0  0  0  0  0  0  0  0  0
  190.4980  176.6100  142.2510 C   0  0  1  0  0  3  0  0  0  0  0  0
  190.9770  177.5040  141.2030 C   0  0  0  0  0  2  0  0  0  0  0  0
  189.7290  177.3980  143.3130 C   0  0  2  0  0  3  0  0  0  0  0  0
  190.6220  178.4400  143.9440 C   0  0  1  0  0  3  0  0  0  0  0  0
  190.3690  177.1740  144.6630 C   0  0  2  0  0  0  0  0  0  0  0  0
  191.6810  177.8280  144.7610 N   0  0  0  0  0  2  0  0  0  0  0  0
  187.4570  177.8630  147.7990 C   0  0  0  0  0  3  0  0  0  0  0  0
  189.4260  177.4110  145.8320 C   0  0  0  0  0  0  0  0  0  0  0  0
  189.7520  177.3200  147.2160 C   0  0  0  0  0  0  0  0  0  0  0  0
  187.1240  177.9380  146.4480 C   0  0  0  0  0  3  0  0  0  0  0  0
  188.1010  177.7100  145.4760 C   0  0  0  0  0  3  0  0  0  0  0  0
  188.7630  177.5570  148.1790 C   0  0  0  0  0  3  0  0  0  0  0  0
  191.0710  177.0040  147.7090 C   0  0  0  0  0  0  0  0  0  0  0  0
  192.1310  176.7490  148.0980 N   0  0  0  0  0  0  0  0  0  0  0  0
  188.9760  177.7420  138.3800 C   0  0  2  0  0  3  0  0  0  0  0  0
  189.0500  179.8670  137.2200 N   0  0  0  0  0  2  0  0  0  0  0  0
  188.5210  178.7020  137.3180 C   0  0  0  0  0  0  0  0  0  0  0  0
  187.4560  178.2910  136.3590 C   0  0  0  0  0  1  0  0  0  0  0  0
  188.8610  176.3690  137.9140 N   0  0  0  0  0  2  0  0  0  0  0  0
  190.1580  174.5140  137.0220 C   0  0  2  0  0  0  0  0  0  0  0  0
  189.2460  174.1840  135.8600 C   0  0  0  0  0  2  0  0  0  0  0  0
  190.1430  175.9990  137.3320 C   0  0  1  0  0  3  0  0  0  0  0  0
  189.9370  175.5310  135.9080 C   0  0  1  0  0  3  0  0  0  0  0  0
  194.1020  172.9620  136.5570 C   0  0  0  0  0  3  0  0  0  0  0  0
  193.0250  172.4320  135.8510 C   0  0  0  0  0  3  0  0  0  0  0  0
  193.8580  174.0100  137.4390 C   0  0  0  0  0  3  0  0  0  0  0  0
  191.5510  173.9620  136.8970 C   0  0  0  0  0  0  0  0  0  0  0  0
  192.5970  174.4930  137.5930 N   0  0  0  0  0  0  0  0  0  0  0  0
  191.7760  172.9370  136.0320 N   0  0  0  0  0  0  0  0  0  0  0  0
  2  4  1  0  0  0  0
  3  1  2  0  0  0  0
  3  2  1  0  0  0  0
  4  6  1  0  0  0  0
  4  5  1  0  0  0  0
  5  6  1  6  0  0  0
  7  5  1  6  0  0  0
  7  8  1  0  0  0  0
  7  9  1  0  0  0  0
  8  9  1  0  0  0  0
  8 10  1  6  0  0  0
  9 10  1  0  0  0  0
  9 12  1  1  0  0  0
 11 16  1  0  0  0  0
 12 13  1  0  0  0  0
 13 17  1  0  0  0  0
 13 16  2  0  0  0  0
 14 11  2  0  0  0  0
 15 12  2  0  0  0  0
 15 14  1  0  0  0  0
 17 18  3  0  0  0  0
 19 21  1  6  0  0  0
 19  3  1  0  0  0  0
 20 21  2  0  0  0  0
 22 21  1  0  0  0  0
 23 19  1  0  0  0  0
 24 31  1  1  0  0  0
 24 26  1  0  0  0  0
 25 24  1  0  0  0  0
 26 23  1  1  0  0  0
 27 25  1  1  0  0  0
 27 24  1  0  0  0  0
 27 26  1  0  0  0  0
 28 30  2  0  0  0  0
 29 33  2  0  0  0  0
 29 28  1  0  0  0  0
 30 32  1  0  0  0  0
 31 32  2  0  0  0  0
 33 31  1  0  0  0  0
M  END
>  <MODEL>
5

>  <REMARK>
 VINA RESULT:      -7.9      0.787      1.998
  Name = 
  9 active torsions:
  status: ('A' for Active; 'I' for Inactive)
    1  A    between atoms: C_1  and  C_22
    2  A    between atoms: C_3  and  C_7
    3  A    between atoms: C_5  and  C_25
    4  A    between atoms: N_6  and  C_20
    5  A    between atoms: N_6  and  C_23
    6  A    between atoms: N_9  and  N_13
    7  A    between atoms: C_12  and  C_15
    8  A    between atoms: C_14  and  C_20
    9  A    between atoms: C_20  and  C_28
                            x       y       z     vdW  Elec       q    Type
                         _______ _______ _______ _____ _____    ______ ____

>  <TORSDO>
F 9

$$$$
=
 OpenBabel10222417553D

 33 39  0  0  1  0  0  0  0  0999 V2000
  188.3050  175.3160  143.2190 O   0  0  0  0  0  0  0  0  0  0  0  0
  188.9700  176.7590  141.5290 N   0  0  0  0  0  2  0  0  0  0  0  0
  188.9700  176.3330  142.8920 C   0  0  0  0  0  0  0  0  0  0  0  0
  189.6580  177.9190  141.1330 N   0  0  0  0  0  0  0  0  0  0  0  0
  189.4110  178.2310  139.7000 C   0  0  1  0  0  3  0  0  0  0  0  0
  190.6160  177.5090  140.0920 C   0  0  0  0  0  2  0  0  0  0  0  0
  188.4320  177.2900  138.9950 C   0  0  2  0  0  3  0  0  0  0  0  0
  189.0000  176.8330  137.6720 C   0  0  1  0  0  3  0  0  0  0  0  0
  187.9900  177.9130  137.6910 C   0  0  2  0  0  0  0  0  0  0  0  0
  189.0770  177.9360  136.7020 N   0  0  0  0  0  2  0  0  0  0  0  0
  184.3310  176.2340  136.0840 C   0  0  0  0  0  3  0  0  0  0  0  0
  186.6540  177.3910  137.1880 C   0  0  0  0  0  0  0  0  0  0  0  0
  185.3670  177.7170  137.7060 C   0  0  0  0  0  0  0  0  0  0  0  0
  185.5850  175.8960  135.5810 C   0  0  0  0  0  3  0  0  0  0  0  0
  186.7350  176.4670  136.1330 C   0  0  0  0  0  3  0  0  0  0  0  0
  184.2240  177.1400  137.1400 C   0  0  0  0  0  3  0  0  0  0  0  0
  185.1540  178.6360  138.7970 C   0  0  0  0  0  0  0  0  0  0  0  0
  184.9780  179.3770  139.6700 N   0  0  0  0  0  0  0  0  0  0  0  0
  189.7460  177.0960  143.9280 C   0  0  2  0  0  3  0  0  0  0  0  0
  191.7450  175.9260  143.2190 N   0  0  0  0  0  2  0  0  0  0  0  0
  191.0910  176.4770  144.1760 C   0  0  0  0  0  0  0  0  0  0  0  0
  191.6810  176.5170  145.5460 C   0  0  0  0  0  1  0  0  0  0  0  0
  188.9890  177.1950  145.1670 N   0  0  0  0  0  2  0  0  0  0  0  0
  186.6010  177.5070  145.5030 C   0  0  2  0  0  0  0  0  0  0  0  0
  186.6220  177.5330  147.0170 C   0  0  0  0  0  2  0  0  0  0  0  0
  187.8720  178.0950  144.9230 C   0  0  1  0  0  3  0  0  0  0  0  0
  187.3430  178.6150  146.2420 C   0  0  1  0  0  3  0  0  0  0  0  0
  183.0680  179.0710  143.6980 C   0  0  0  0  0  3  0  0  0  0  0  0
  184.1420  178.6290  142.9300 C   0  0  0  0  0  3  0  0  0  0  0  0
  183.1800  179.0040  145.0840 C   0  0  0  0  0  3  0  0  0  0  0  0
  185.3580  178.0900  144.8890 C   0  0  0  0  0  0  0  0  0  0  0  0
  184.3130  178.5160  145.6540 N   0  0  0  0  0  0  0  0  0  0  0  0
  185.2610  178.1500  143.5340 N   0  0  0  0  0  0  0  0  0  0  0  0
  2  3  1  0  0  0  0
  3  1  2  0  0  0  0
  4  2  1  0  0  0  0
  5  6  1  6  0  0  0
  5  4  1  0  0  0  0
  6  4  1  0  0  0  0
  7  5  1  1  0  0  0
  8 10  1  1  0  0  0
  8  9  1  0  0  0  0
  8  7  1  0  0  0  0
  9 12  1  6  0  0  0
  9  7  1  0  0  0  0
 10  9  1  0  0  0  0
 11 16  1  0  0  0  0
 12 13  1  0  0  0  0
 13 17  1  0  0  0  0
 14 11  2  0  0  0  0
 14 15  1  0  0  0  0
 15 12  2  0  0  0  0
 16 13  2  0  0  0  0
 17 18  3  0  0  0  0
 19  3  1  6  0  0  0
 19 21  1  0  0  0  0
 19 23  1  0  0  0  0
 20 21  2  0  0  0  0
 21 22  1  0  0  0  0
 24 31  1  6  0  0  0
 24 27  1  0  0  0  0
 24 25  1  0  0  0  0
 26 23  1  1  0  0  0
 26 24  1  0  0  0  0
 26 27  1  0  0  0  0
 27 25  1  1  0  0  0
 28 30  2  0  0  0  0
 29 33  2  0  0  0  0
 29 28  1  0  0  0  0
 30 32  1  0  0  0  0
 31 32  2  0  0  0  0
 33 31  1  0  0  0  0
M  END
>  <MODEL>
6

>  <REMARK>
 VINA RESULT:      -7.7      2.936      9.038
  Name = 
  9 active torsions:
  status: ('A' for Active; 'I' for Inactive)
    1  A    between atoms: C_1  and  C_22
    2  A    between atoms: C_3  and  C_7
    3  A    between atoms: C_5  and  C_25
    4  A    between atoms: N_6  and  C_20
    5  A    between atoms: N_6  and  C_23
    6  A    between atoms: N_9  and  N_13
    7  A    between atoms: C_12  and  C_15
    8  A    between atoms: C_14  and  C_20
    9  A    between atoms: C_20  and  C_28
                            x       y       z     vdW  Elec       q    Type
                         _______ _______ _______ _____ _____    ______ ____

>  <TORSDO>
F 9

$$$$
=
 OpenBabel10222417553D

 33 39  0  0  1  0  0  0  0  0999 V2000
  186.6630  178.6020  139.3850 O   0  0  0  0  0  0  0  0  0  0  0  0
  188.5320  177.6050  140.3300 N   0  0  0  0  0  2  0  0  0  0  0  0
  187.6780  177.8780  139.2190 C   0  0  0  0  0  0  0  0  0  0  0  0
  189.6470  176.7590  140.1970 N   0  0  0  0  0  0  0  0  0  0  0  0
  190.4570  176.7320  141.4430 C   0  0  1  0  0  3  0  0  0  0  0  0
  190.8410  177.6080  140.3420 C   0  0  0  0  0  2  0  0  0  0  0  0
  189.8850  177.5530  142.6010 C   0  0  2  0  0  3  0  0  0  0  0  0
  190.9770  177.9120  143.5820 C   0  0  1  0  0  3  0  0  0  0  0  0
  190.0670  176.7900  143.8930 C   0  0  2  0  0  0  0  0  0  0  0  0
  191.4780  176.7300  144.2970 N   0  0  0  0  0  2  0  0  0  0  0  0
  187.0560  177.9340  146.7940 C   0  0  0  0  0  3  0  0  0  0  0  0
  189.0860  177.1940  144.9830 C   0  0  0  0  0  0  0  0  0  0  0  0
  189.3550  177.2660  146.3800 C   0  0  0  0  0  0  0  0  0  0  0  0
  186.7790  177.8500  145.4310 C   0  0  0  0  0  3  0  0  0  0  0  0
  187.7850  177.4790  144.5370 C   0  0  0  0  0  3  0  0  0  0  0  0
  188.3370  177.6440  147.2640 C   0  0  0  0  0  3  0  0  0  0  0  0
  190.6430  176.9800  146.9630 C   0  0  0  0  0  0  0  0  0  0  0  0
  191.6800  176.7520  147.4250 N   0  0  0  0  0  0  0  0  0  0  0  0
  187.9810  177.3000  137.8660 C   0  0  2  0  0  3  0  0  0  0  0  0
  188.9990  179.4380  137.3540 N   0  0  0  0  0  2  0  0  0  0  0  0
  188.9040  178.1870  137.0810 C   0  0  0  0  0  0  0  0  0  0  0  0
  189.7310  177.6060  135.9840 C   0  0  0  0  0  1  0  0  0  0  0  0
  186.7540  177.0530  137.1250 N   0  0  0  0  0  2  0  0  0  0  0  0
  186.1110  175.0530  135.8990 C   0  0  2  0  0  0  0  0  0  0  0  0
  187.3430  174.9620  135.0230 C   0  0  0  0  0  2  0  0  0  0  0  0
  186.4430  175.6370  137.2590 C   0  0  1  0  0  3  0  0  0  0  0  0
  187.4830  174.8190  136.5240 C   0  0  1  0  0  3  0  0  0  0  0  0
  183.9540  171.3820  136.1330 C   0  0  0  0  0  3  0  0  0  0  0  0
  184.6340  171.7530  134.9760 C   0  0  0  0  0  3  0  0  0  0  0  0
  183.9820  172.2530  137.2180 C   0  0  0  0  0  3  0  0  0  0  0  0
  185.3190  173.7790  135.9930 C   0  0  0  0  0  0  0  0  0  0  0  0
  184.6610  173.4280  137.1340 N   0  0  0  0  0  0  0  0  0  0  0  0
  185.3000  172.9370  134.9250 N   0  0  0  0  0  0  0  0  0  0  0  0
  3  1  2  0  0  0  0
  3  2  1  0  0  0  0
  4  2  1  0  0  0  0
  4  6  1  0  0  0  0
  4  5  1  0  0  0  0
  5  6  1  6  0  0  0
  7  5  1  6  0  0  0
  7  8  1  0  0  0  0
  7  9  1  0  0  0  0
  8  9  1  0  0  0  0
  8 10  1  6  0  0  0
  9 10  1  0  0  0  0
  9 12  1  1  0  0  0
 11 16  1  0  0  0  0
 12 13  1  0  0  0  0
 13 17  1  0  0  0  0
 13 16  2  0  0  0  0
 14 11  2  0  0  0  0
 15 12  2  0  0  0  0
 15 14  1  0  0  0  0
 17 18  3  0  0  0  0
 19 21  1  6  0  0  0
 19  3  1  0  0  0  0
 21 20  2  0  0  0  0
 22 21  1  0  0  0  0
 23 19  1  0  0  0  0
 24 31  1  6  0  0  0
 24 27  1  0  0  0  0
 24 26  1  0  0  0  0
 25 24  1  0  0  0  0
 26 23  1  6  0  0  0
 27 25  1  6  0  0  0
 27 26  1  0  0  0  0
 28 30  2  0  0  0  0
 29 28  1  0  0  0  0
 31 32  2  0  0  0  0
 32 30  1  0  0  0  0
 33 29  2  0  0  0  0
 33 31  1  0  0  0  0
M  END
>  <MODEL>
7

>  <REMARK>
 VINA RESULT:      -7.7      2.707      4.335
  Name = 
  9 active torsions:
  status: ('A' for Active; 'I' for Inactive)
    1  A    between atoms: C_1  and  C_22
    2  A    between atoms: C_3  and  C_7
    3  A    between atoms: C_5  and  C_25
    4  A    between atoms: N_6  and  C_20
    5  A    between atoms: N_6  and  C_23
    6  A    between atoms: N_9  and  N_13
    7  A    between atoms: C_12  and  C_15
    8  A    between atoms: C_14  and  C_20
    9  A    between atoms: C_20  and  C_28
                            x       y       z     vdW  Elec       q    Type
                         _______ _______ _______ _____ _____    ______ ____

>  <TORSDO>
F 9

$$$$
=
 OpenBabel10222417553D

 33 39  0  0  1  0  0  0  0  0999 V2000
  183.3180  177.3290  140.3390 O   0  0  0  0  0  0  0  0  0  0  0  0
  183.3460  178.4400  142.3740 N   0  0  0  0  0  2  0  0  0  0  0  0
  182.7860  178.1910  141.0860 C   0  0  0  0  0  0  0  0  0  0  0  0
  182.8130  179.4300  143.2170 N   0  0  0  0  0  0  0  0  0  0  0  0
  183.4170  179.3690  144.5750 C   0  0  1  0  0  3  0  0  0  0  0  0
  182.1320  178.7280  144.3180 C   0  0  0  0  0  2  0  0  0  0  0  0
  184.5130  178.3140  144.7440 C   0  0  2  0  0  3  0  0  0  0  0  0
  184.8140  178.0980  146.2090 C   0  0  1  0  0  3  0  0  0  0  0  0
  185.7180  178.9470  145.4030 C   0  0  2  0  0  0  0  0  0  0  0  0
  185.4600  179.2740  146.8120 N   0  0  0  0  0  2  0  0  0  0  0  0
  189.4470  176.7940  144.9030 C   0  0  0  0  0  3  0  0  0  0  0  0
  187.0200  178.2130  145.1250 C   0  0  0  0  0  0  0  0  0  0  0  0
  187.5610  177.8990  143.8440 C   0  0  0  0  0  0  0  0  0  0  0  0
  188.9190  177.0800  146.1600 C   0  0  0  0  0  3  0  0  0  0  0  0
  187.7140  177.7800  146.2670 C   0  0  0  0  0  3  0  0  0  0  0  0
  188.7710  177.2030  143.7530 C   0  0  0  0  0  3  0  0  0  0  0  0
  186.9350  178.2730  142.5990 C   0  0  0  0  0  0  0  0  0  0  0  0
  186.4380  178.5750  141.5980 N   0  0  0  0  0  0  0  0  0  0  0  0
  181.5800  178.9550  140.6190 C   0  0  2  0  0  3  0  0  0  0  0  0
  180.0490  177.0890  140.8220 N   0  0  0  0  0  2  0  0  0  0  0  0
  180.3060  178.3180  141.0920 C   0  0  0  0  0  0  0  0  0  0  0  0
  179.3350  179.1150  141.8970 C   0  0  0  0  0  1  0  0  0  0  0  0
  181.5830  179.0840  139.1690 N   0  0  0  0  0  2  0  0  0  0  0  0
  180.9760  180.5850  137.3540 C   0  0  2  0  0  0  0  0  0  0  0  0
  179.7700  179.8130  136.8620 C   0  0  0  0  0  2  0  0  0  0  0  0
  181.1510  180.4380  138.8540 C   0  0  1  0  0  3  0  0  0  0  0  0
  179.7610  180.4010  138.2570 C   0  0  1  0  0  3  0  0  0  0  0  0
  181.0030  184.6430  136.0450 C   0  0  0  0  0  3  0  0  0  0  0  0
  180.5700  183.6140  135.2130 C   0  0  0  0  0  3  0  0  0  0  0  0
  181.4470  184.3120  137.3220 C   0  0  0  0  0  3  0  0  0  0  0  0
  181.0230  182.0190  136.9020 C   0  0  0  0  0  0  0  0  0  0  0  0
  181.4470  183.0160  137.7300 N   0  0  0  0  0  0  0  0  0  0  0  0
  180.5870  182.3280  135.6520 N   0  0  0  0  0  0  0  0  0  0  0  0
  1  3  2  0  0  0  0
  2  4  1  0  0  0  0
  3  2  1  0  0  0  0
  4  6  1  0  0  0  0
  4  5  1  0  0  0  0
  5  6  1  1  0  0  0
  7  5  1  1  0  0  0
  7  9  1  0  0  0  0
  7  8  1  0  0  0  0
  8 10  1  1  0  0  0
  9 12  1  6  0  0  0
  9  8  1  0  0  0  0
  9 10  1  0  0  0  0
 11 14  1  0  0  0  0
 12 15  1  0  0  0  0
 13 12  2  0  0  0  0
 14 15  2  0  0  0  0
 16 13  1  0  0  0  0
 16 11  2  0  0  0  0
 17 13  1  0  0  0  0
 18 17  3  0  0  0  0
 19 23  1  6  0  0  0
 19  3  1  0  0  0  0
 19 21  1  0  0  0  0
 20 21  2  0  0  0  0
 21 22  1  0  0  0  0
 24 31  1  6  0  0  0
 24 27  1  0  0  0  0
 24 26  1  0  0  0  0
 25 24  1  0  0  0  0
 26 23  1  6  0  0  0
 27 25  1  6  0  0  0
 27 26  1  0  0  0  0
 28 30  2  0  0  0  0
 29 33  2  0  0  0  0
 29 28  1  0  0  0  0
 30 32  1  0  0  0  0
 31 32  2  0  0  0  0
 33 31  1  0  0  0  0
M  END
>  <MODEL>
8

>  <REMARK>
 VINA RESULT:      -7.7      5.857      9.305
  Name = 
  9 active torsions:
  status: ('A' for Active; 'I' for Inactive)
    1  A    between atoms: C_1  and  C_22
    2  A    between atoms: C_3  and  C_7
    3  A    between atoms: C_5  and  C_25
    4  A    between atoms: N_6  and  C_20
    5  A    between atoms: N_6  and  C_23
    6  A    between atoms: N_9  and  N_13
    7  A    between atoms: C_12  and  C_15
    8  A    between atoms: C_14  and  C_20
    9  A    between atoms: C_20  and  C_28
                            x       y       z     vdW  Elec       q    Type
                         _______ _______ _______ _____ _____    ______ ____

>  <TORSDO>
F 9

$$$$
=
 OpenBabel10222417553D

 33 39  0  0  1  0  0  0  0  0999 V2000
  189.6970  178.5250  139.0480 O   0  0  0  0  0  0  0  0  0  0  0  0
  190.0540  177.4230  141.0580 N   0  0  0  0  0  2  0  0  0  0  0  0
  190.1850  177.5270  139.6400 C   0  0  0  0  0  0  0  0  0  0  0  0
  190.5410  176.2990  141.7490 N   0  0  0  0  0  0  0  0  0  0  0  0
  190.0170  176.2520  143.1400 C   0  0  1  0  0  3  0  0  0  0  0  0
  191.3380  176.8090  142.8770 C   0  0  0  0  0  2  0  0  0  0  0  0
  189.0300  177.3660  143.4950 C   0  0  2  0  0  3  0  0  0  0  0  0
  189.3880  177.9810  144.8280 C   0  0  1  0  0  3  0  0  0  0  0  0
  188.2890  176.9940  144.7580 C   0  0  2  0  0  0  0  0  0  0  0  0
  189.1630  177.0440  145.9380 N   0  0  0  0  0  2  0  0  0  0  0  0
  184.4960  178.9680  145.4720 C   0  0  0  0  0  3  0  0  0  0  0  0
  186.9460  177.6920  144.9050 C   0  0  0  0  0  0  0  0  0  0  0  0
  186.1750  178.2770  143.8590 C   0  0  0  0  0  0  0  0  0  0  0  0
  185.2490  178.4140  146.5050 C   0  0  0  0  0  3  0  0  0  0  0  0
  186.4650  177.7860  146.2210 C   0  0  0  0  0  3  0  0  0  0  0  0
  184.9570  178.8980  144.1580 C   0  0  0  0  0  3  0  0  0  0  0  0
  186.5690  178.2610  142.4710 C   0  0  0  0  0  0  0  0  0  0  0  0
  186.8810  178.2530  141.3560 N   0  0  0  0  0  0  0  0  0  0  0  0
  190.8880  176.4540  138.8590 C   0  0  2  0  0  3  0  0  0  0  0  0
  193.0070  177.2790  139.6930 N   0  0  0  0  0  2  0  0  0  0  0  0
  192.3560  176.7390  138.7270 C   0  0  0  0  0  0  0  0  0  0  0  0
  193.0690  176.3770  137.4680 C   0  0  0  0  0  1  0  0  0  0  0  0
  190.2770  176.2890  137.5480 N   0  0  0  0  0  2  0  0  0  0  0  0
  189.0240  174.7000  136.1980 C   0  0  2  0  0  0  0  0  0  0  0  0
  190.1890  174.1800  135.3840 C   0  0  0  0  0  2  0  0  0  0  0  0
  189.4590  175.0860  137.5990 C   0  0  1  0  0  3  0  0  0  0  0  0
  190.1680  173.9590  136.8810 C   0  0  1  0  0  3  0  0  0  0  0  0
  185.5260  172.2620  136.1880 C   0  0  0  0  0  3  0  0  0  0  0  0
  185.7610  173.1910  137.1980 C   0  0  0  0  0  3  0  0  0  0  0  0
  186.4760  172.1340  135.1790 C   0  0  0  0  0  3  0  0  0  0  0  0
  187.8130  173.8090  136.1910 C   0  0  0  0  0  0  0  0  0  0  0  0
  187.5950  172.9050  135.1940 N   0  0  0  0  0  0  0  0  0  0  0  0
  186.8920  173.9440  137.1830 N   0  0  0  0  0  0  0  0  0  0  0  0
  1  3  2  0  0  0  0
  2  4  1  0  0  0  0
  3  2  1  0  0  0  0
  4  6  1  0  0  0  0
  4  5  1  0  0  0  0
  5  6  1  1  0  0  0
  7  5  1  1  0  0  0
  7  9  1  0  0  0  0
  7  8  1  0  0  0  0
  8 10  1  1  0  0  0
  9  8  1  0  0  0  0
  9 12  1  1  0  0  0
  9 10  1  0  0  0  0
 11 14  1  0  0  0  0
 12 15  1  0  0  0  0
 13 16  1  0  0  0  0
 13 12  2  0  0  0  0
 15 14  2  0  0  0  0
 16 11  2  0  0  0  0
 17 13  1  0  0  0  0
 18 17  3  0  0  0  0
 19 23  1  6  0  0  0
 19  3  1  0  0  0  0
 21 19  1  0  0  0  0
 21 20  2  0  0  0  0
 22 21  1  0  0  0  0
 24 31  1  6  0  0  0
 24 27  1  0  0  0  0
 24 26  1  0  0  0  0
 25 24  1  0  0  0  0
 26 23  1  6  0  0  0
 27 25  1  6  0  0  0
 27 26  1  0  0  0  0
 28 29  1  0  0  0  0
 30 32  1  0  0  0  0
 30 28  2  0  0  0  0
 31 33  1  0  0  0  0
 32 31  2  0  0  0  0
 33 29  2  0  0  0  0
M  END
>  <MODEL>
9

>  <REMARK>
 VINA RESULT:      -7.6      2.222      3.780
  Name = 
  9 active torsions:
  status: ('A' for Active; 'I' for Inactive)
    1  A    between atoms: C_1  and  C_22
    2  A    between atoms: C_3  and  C_7
    3  A    between atoms: C_5  and  C_25
    4  A    between atoms: N_6  and  C_20
    5  A    between atoms: N_6  and  C_23
    6  A    between atoms: N_9  and  N_13
    7  A    between atoms: C_12  and  C_15
    8  A    between atoms: C_14  and  C_20
    9  A    between atoms: C_20  and  C_28
                            x       y       z     vdW  Elec       q    Type
                         _______ _______ _______ _____ _____    ______ ____

>  <TORSDO>
F 9

$$$$
