=
 OpenBabel10222415523D

 29 32  0  0  1  0  0  0  0  0999 V2000
  186.8000  177.8320  145.7700 C   0  0  0  0  0  0  0  0  0  0  0  0
  183.9050  179.2860  142.5600 O   0  0  0  0  0  1  0  0  0  0  0  0
  184.7480  178.6420  145.6440 C   0  0  0  0  0  0  0  0  0  0  0  0
  189.1200  177.2430  146.3270 C   0  0  0  0  0  3  0  0  0  0  0  0
  190.7170  177.7180  144.5310 C   0  0  0  0  0  3  0  0  0  0  0  0
  183.5400  179.2490  145.2030 N   0  0  0  0  0  1  0  0  0  0  0  0
  188.0350  177.5040  145.3670 C   0  0  0  0  0  0  0  0  0  0  0  0
  188.3530  177.3980  143.8800 C   0  0  2  0  0  3  0  0  0  0  0  0
  189.7700  177.8130  143.5900 C   0  0  0  0  0  3  0  0  0  0  0  0
  185.8600  178.8710  141.1440 C   0  0  0  0  0  0  0  0  0  0  0  0
  186.2540  177.9760  147.1140 C   0  0  0  0  0  3  0  0  0  0  0  0
  187.4220  178.2710  141.3220 S   0  0  0  0  0  0  0  0  0  0  0  0
  186.0550  178.4380  143.4280 C   0  0  0  0  0  0  0  0  0  0  0  0
  185.0470  178.4430  147.0290 N   0  0  0  0  0  0  0  0  0  0  0  0
  190.3940  177.3070  145.9220 C   0  0  0  0  0  0  0  0  0  0  0  0
  185.2240  178.8900  142.3870 C   0  0  0  0  0  0  0  0  0  0  0  0
  187.3310  178.0760  142.9910 C   0  0  0  0  0  0  0  0  0  0  0  0
  185.7670  178.2910  144.8690 C   0  0  0  0  0  0  0  0  0  0  0  0
  185.2950  179.2410  139.8830 N   0  0  0  0  0  2  0  0  0  0  0  0
  184.8560  178.2870  138.8730 C   0  0  1  0  0  3  0  0  0  0  0  0
  182.9170  179.6970  139.1040 O   0  0  0  0  0  1  0  0  0  0  0  0
  183.3800  178.5050  138.5430 C   0  0  0  0  0  2  0  0  0  0  0  0
  185.7220  178.4260  137.6320 C   0  0  0  0  0  2  0  0  0  0  0  0
  186.8440  177.4400  137.6670 C   0  0  0  0  0  3  0  0  0  0  0  0
  188.1200  177.8130  137.6340 C   0  0  0  0  0  3  0  0  0  0  0  0
  188.4960  179.1860  137.5630 N   0  0  0  0  0  1  0  0  0  0  0  0
  191.4320  177.0600  146.8720 N   0  0  0  0  0  2  0  0  0  0  0  0
  192.1320  175.7880  146.9530 C   0  0  0  0  0  2  0  0  0  0  0  0
  192.8300  175.6820  148.2920 C   0  0  0  0  0  1  0  0  0  0  0  0
  1 11  1  0  0  0  0
  3 14  1  0  0  0  0
  5 15  1  0  0  0  0
  6  3  1  0  0  0  0
  7  1  2  0  0  0  0
  7  4  1  0  0  0  0
  8  9  1  1  0  0  0
  8  7  1  0  0  0  0
  9  5  2  0  0  0  0
 10 12  1  0  0  0  0
 10 16  2  0  0  0  0
 12 17  1  0  0  0  0
 13 18  1  0  0  0  0
 14 11  2  0  0  0  0
 15  4  2  0  0  0  0
 15 27  1  0  0  0  0
 16  2  1  0  0  0  0
 16 13  1  0  0  0  0
 17 13  2  0  0  0  0
 17  8  1  0  0  0  0
 18  3  2  0  0  0  0
 18  1  1  0  0  0  0
 19 10  1  0  0  0  0
 20 23  1  6  0  0  0
 20 19  1  0  0  0  0
 22 20  1  0  0  0  0
 22 21  1  0  0  0  0
 23 24  1  0  0  0  0
 25 24  2  0  0  0  0
 26 25  1  0  0  0  0
 27 28  1  0  0  0  0
 28 29  1  0  0  0  0
M  END
>  <MODEL>
1

>  <REMARK>
 VINA RESULT:      -9.2      0.000      0.000
  Name = 
  7 active torsions:
  status: ('A' for Active; 'I' for Inactive)
    1  A    between atoms: C_1  and  C_15
    2  A    between atoms: N_5  and  C_17
    3  A    between atoms: N_5  and  CA_23
    4  A    between atoms: C_9  and  N_13
    5  A    between atoms: N_13  and  C_25
    6  A    between atoms: C_15  and  CA_23
    7  A    between atoms: CA_23  and  C_27
                            x       y       z     vdW  Elec       q    Type
                         _______ _______ _______ _____ _____    ______ ____

>  <TORSDO>
F 7

$$$$
=
 OpenBabel10222415523D

 29 32  0  0  1  0  0  0  0  0999 V2000
  186.9050  177.8330  145.6450 C   0  0  0  0  0  0  0  0  0  0  0  0
  183.6830  179.3590  142.8020 O   0  0  0  0  0  1  0  0  0  0  0  0
  184.8450  178.6220  145.7590 C   0  0  0  0  0  0  0  0  0  0  0  0
  189.2760  177.2550  145.9400 C   0  0  0  0  0  3  0  0  0  0  0  0
  190.6750  177.8100  144.0080 C   0  0  0  0  0  3  0  0  0  0  0  0
  183.5920  179.2290  145.4650 N   0  0  0  0  0  1  0  0  0  0  0  0
  188.0950  177.5350  145.1060 C   0  0  0  0  0  0  0  0  0  0  0  0
  188.2590  177.4820  143.5920 C   0  0  2  0  0  3  0  0  0  0  0  0
  189.6350  177.9240  143.1730 C   0  0  0  0  0  3  0  0  0  0  0  0
  185.4850  179.0150  141.1790 C   0  0  0  0  0  0  0  0  0  0  0  0
  186.5000  177.9250  147.0420 C   0  0  0  0  0  3  0  0  0  0  0  0
  187.0620  178.4290  141.1740 S   0  0  0  0  0  0  0  0  0  0  0  0
  185.9180  178.5080  143.4150 C   0  0  0  0  0  0  0  0  0  0  0  0
  185.2860  178.3800  147.0980 N   0  0  0  0  0  0  0  0  0  0  0  0
  190.5000  177.3480  145.4090 C   0  0  0  0  0  0  0  0  0  0  0  0
  184.9800  178.9850  142.4810 C   0  0  0  0  0  0  0  0  0  0  0  0
  187.1450  178.1780  142.8370 C   0  0  0  0  0  0  0  0  0  0  0  0
  185.7810  178.3100  144.8710 C   0  0  0  0  0  0  0  0  0  0  0  0
  184.7890  179.4210  139.9960 N   0  0  0  0  0  2  0  0  0  0  0  0
  184.0560  178.5110  139.1270 C   0  0  1  0  0  3  0  0  0  0  0  0
  186.0600  178.7870  137.8210 O   0  0  0  0  0  1  0  0  0  0  0  0
  184.9840  177.9300  138.0610 C   0  0  0  0  0  2  0  0  0  0  0  0
  183.4230  177.4090  139.9620 C   0  0  0  0  0  2  0  0  0  0  0  0
  181.9590  177.6600  140.1310 C   0  0  0  0  0  3  0  0  0  0  0  0
  181.0390  176.7700  139.7710 C   0  0  0  0  0  3  0  0  0  0  0  0
  181.3980  175.5140  139.1990 N   0  0  0  0  0  1  0  0  0  0  0  0
  191.6330  177.0820  146.2380 N   0  0  0  0  0  2  0  0  0  0  0  0
  191.5080  176.6340  147.6150 C   0  0  0  0  0  2  0  0  0  0  0  0
  192.6330  175.6740  147.9370 C   0  0  0  0  0  1  0  0  0  0  0  0
  1 11  1  0  0  0  0
  3 14  1  0  0  0  0
  5 15  1  0  0  0  0
  6  3  1  0  0  0  0
  7  1  2  0  0  0  0
  7  4  1  0  0  0  0
  8  9  1  1  0  0  0
  8  7  1  0  0  0  0
  9  5  2  0  0  0  0
 10 16  2  0  0  0  0
 11 14  2  0  0  0  0
 12 10  1  0  0  0  0
 12 17  1  0  0  0  0
 13 18  1  0  0  0  0
 15  4  2  0  0  0  0
 15 27  1  0  0  0  0
 16  2  1  0  0  0  0
 16 13  1  0  0  0  0
 17 13  2  0  0  0  0
 17  8  1  0  0  0  0
 18  1  1  0  0  0  0
 18  3  2  0  0  0  0
 19 10  1  0  0  0  0
 20 22  1  6  0  0  0
 20 23  1  0  0  0  0
 20 19  1  0  0  0  0
 21 22  1  0  0  0  0
 23 24  1  0  0  0  0
 25 24  2  0  0  0  0
 26 25  1  0  0  0  0
 27 28  1  0  0  0  0
 28 29  1  0  0  0  0
M  END
>  <MODEL>
2

>  <REMARK>
 VINA RESULT:      -9.0      1.513      2.524
  Name = 
  7 active torsions:
  status: ('A' for Active; 'I' for Inactive)
    1  A    between atoms: C_1  and  C_15
    2  A    between atoms: N_5  and  C_17
    3  A    between atoms: N_5  and  CA_23
    4  A    between atoms: C_9  and  N_13
    5  A    between atoms: N_13  and  C_25
    6  A    between atoms: C_15  and  CA_23
    7  A    between atoms: CA_23  and  C_27
                            x       y       z     vdW  Elec       q    Type
                         _______ _______ _______ _____ _____    ______ ____

>  <TORSDO>
F 7

$$$$
=
 OpenBabel10222415523D

 29 32  0  0  1  0  0  0  0  0999 V2000
  187.5000  177.5570  144.9970 C   0  0  0  0  0  0  0  0  0  0  0  0
  185.8900  178.7550  140.9020 O   0  0  0  0  0  1  0  0  0  0  0  0
  185.6510  178.4050  144.1360 C   0  0  0  0  0  0  0  0  0  0  0  0
  189.4770  176.9660  146.3320 C   0  0  0  0  0  3  0  0  0  0  0  0
  191.5940  177.2140  145.1250 C   0  0  0  0  0  3  0  0  0  0  0  0
  184.6880  178.9960  143.2720 N   0  0  0  0  0  1  0  0  0  0  0  0
  188.7780  177.1580  145.0510 C   0  0  0  0  0  0  0  0  0  0  0  0
  189.5530  176.8930  143.7660 C   0  0  2  0  0  3  0  0  0  0  0  0
  191.0090  177.2380  143.9210 C   0  0  0  0  0  3  0  0  0  0  0  0
  188.1700  178.1460  140.2470 C   0  0  0  0  0  0  0  0  0  0  0  0
  186.5590  177.8510  146.0700 C   0  0  0  0  0  3  0  0  0  0  0  0
  189.5520  177.5260  140.9780 S   0  0  0  0  0  0  0  0  0  0  0  0
  187.5900  177.9420  142.4970 C   0  0  0  0  0  0  0  0  0  0  0  0
  185.4730  178.3400  145.5540 N   0  0  0  0  0  0  0  0  0  0  0  0
  190.8140  176.9550  146.3640 C   0  0  0  0  0  0  0  0  0  0  0  0
  187.1680  178.3080  141.2060 C   0  0  0  0  0  0  0  0  0  0  0  0
  188.9150  177.5040  142.5360 C   0  0  0  0  0  0  0  0  0  0  0  0
  186.8430  177.9500  143.7710 C   0  0  0  0  0  0  0  0  0  0  0  0
  188.0660  178.4010  138.8420 N   0  0  0  0  0  2  0  0  0  0  0  0
  187.3750  177.5280  137.9020 C   0  0  1  0  0  3  0  0  0  0  0  0
  187.3850  179.6320  136.7300 O   0  0  0  0  0  1  0  0  0  0  0  0
  186.8840  178.3280  136.6970 C   0  0  0  0  0  2  0  0  0  0  0  0
  188.3050  176.4050  137.4740 C   0  0  0  0  0  2  0  0  0  0  0  0
  189.6510  176.9500  137.1190 C   0  0  0  0  0  3  0  0  0  0  0  0
  190.7800  176.3520  137.4870 C   0  0  0  0  0  3  0  0  0  0  0  0
  190.7730  175.1460  138.2470 N   0  0  0  0  0  1  0  0  0  0  0  0
  191.4740  176.7780  147.6180 N   0  0  0  0  0  2  0  0  0  0  0  0
  192.4500  175.7260  147.8490 C   0  0  0  0  0  2  0  0  0  0  0  0
  193.2790  176.0650  149.0690 C   0  0  0  0  0  1  0  0  0  0  0  0
  1  7  2  0  0  0  0
  1 11  1  0  0  0  0
  2 16  1  0  0  0  0
  3 14  1  0  0  0  0
  4 15  2  0  0  0  0
  5 15  1  0  0  0  0
  6  3  1  0  0  0  0
  7  4  1  0  0  0  0
  8  9  1  1  0  0  0
  8  7  1  0  0  0  0
  9  5  2  0  0  0  0
 10 12  1  0  0  0  0
 10 16  2  0  0  0  0
 12 17  1  0  0  0  0
 13 17  2  0  0  0  0
 13 18  1  0  0  0  0
 14 11  2  0  0  0  0
 15 27  1  0  0  0  0
 16 13  1  0  0  0  0
 17  8  1  0  0  0  0
 18  3  2  0  0  0  0
 18  1  1  0  0  0  0
 19 10  1  0  0  0  0
 20 22  1  6  0  0  0
 20 19  1  0  0  0  0
 22 21  1  0  0  0  0
 23 20  1  0  0  0  0
 24 23  1  0  0  0  0
 24 25  2  0  0  0  0
 25 26  1  0  0  0  0
 27 28  1  0  0  0  0
 28 29  1  0  0  0  0
M  END
>  <MODEL>
3

>  <REMARK>
 VINA RESULT:      -8.6      1.909      2.381
  Name = 
  7 active torsions:
  status: ('A' for Active; 'I' for Inactive)
    1  A    between atoms: C_1  and  C_15
    2  A    between atoms: N_5  and  C_17
    3  A    between atoms: N_5  and  CA_23
    4  A    between atoms: C_9  and  N_13
    5  A    between atoms: N_13  and  C_25
    6  A    between atoms: C_15  and  CA_23
    7  A    between atoms: CA_23  and  C_27
                            x       y       z     vdW  Elec       q    Type
                         _______ _______ _______ _____ _____    ______ ____

>  <TORSDO>
F 7

$$$$
=
 OpenBabel10222415523D

 29 32  0  0  1  0  0  0  0  0999 V2000
  186.9440  177.8890  143.3420 C   0  0  0  0  0  0  0  0  0  0  0  0
  187.1760  178.6650  138.8540 O   0  0  0  0  0  1  0  0  0  0  0  0
  185.7220  178.8430  141.7680 C   0  0  0  0  0  0  0  0  0  0  0  0
  188.1570  177.2410  145.3780 C   0  0  0  0  0  3  0  0  0  0  0  0
  190.5740  177.0100  145.0560 C   0  0  0  0  0  3  0  0  0  0  0  0
  185.2640  179.4240  140.5530 N   0  0  0  0  0  1  0  0  0  0  0  0
  188.0180  177.3310  143.9160 C   0  0  0  0  0  0  0  0  0  0  0  0
  189.1430  176.7710  143.0530 C   0  0  2  0  0  3  0  0  0  0  0  0
  190.4810  176.9320  143.7230 C   0  0  0  0  0  3  0  0  0  0  0  0
  189.3840  177.6560  139.1770 C   0  0  0  0  0  0  0  0  0  0  0  0
  185.7490  178.4690  143.9430 C   0  0  0  0  0  3  0  0  0  0  0  0
  190.2690  176.9700  140.4330 S   0  0  0  0  0  0  0  0  0  0  0  0
  188.0020  177.8760  141.0430 C   0  0  0  0  0  0  0  0  0  0  0  0
  185.0340  179.0180  143.0100 N   0  0  0  0  0  0  0  0  0  0  0  0
  189.3660  177.0510  145.9200 C   0  0  0  0  0  0  0  0  0  0  0  0
  188.1520  178.0980  139.6620 C   0  0  0  0  0  0  0  0  0  0  0  0
  189.1180  177.2710  141.6240 C   0  0  0  0  0  0  0  0  0  0  0  0
  186.8600  178.1790  141.9280 C   0  0  0  0  0  0  0  0  0  0  0  0
  189.8460  177.7090  137.8230 N   0  0  0  0  0  2  0  0  0  0  0  0
  189.7540  176.5970  136.8860 C   0  0  1  0  0  3  0  0  0  0  0  0
  187.5070  176.9850  136.1100 O   0  0  0  0  0  1  0  0  0  0  0  0
  188.8460  176.9650  135.7130 C   0  0  0  0  0  2  0  0  0  0  0  0
  191.1460  176.2210  136.4060 C   0  0  0  0  0  2  0  0  0  0  0  0
  191.7990  175.2930  137.3780 C   0  0  0  0  0  3  0  0  0  0  0  0
  192.9590  175.5760  137.9620 C   0  0  0  0  0  3  0  0  0  0  0  0
  193.6530  176.7920  137.6950 N   0  0  0  0  0  1  0  0  0  0  0  0
  189.4810  176.9760  147.3420 N   0  0  0  0  0  2  0  0  0  0  0  0
  189.2810  178.1280  148.2050 C   0  0  0  0  0  2  0  0  0  0  0  0
  187.9300  178.0260  148.8790 C   0  0  0  0  0  1  0  0  0  0  0  0
  1  7  2  0  0  0  0
  1 11  1  0  0  0  0
  2 16  1  0  0  0  0
  3 18  2  0  0  0  0
  3 14  1  0  0  0  0
  4 15  2  0  0  0  0
  5 15  1  0  0  0  0
  6  3  1  0  0  0  0
  7  4  1  0  0  0  0
  8  9  1  1  0  0  0
  8  7  1  0  0  0  0
  9  5  2  0  0  0  0
 10 16  2  0  0  0  0
 10 12  1  0  0  0  0
 12 17  1  0  0  0  0
 13 17  2  0  0  0  0
 13 18  1  0  0  0  0
 14 11  2  0  0  0  0
 15 27  1  0  0  0  0
 16 13  1  0  0  0  0
 17  8  1  0  0  0  0
 18  1  1  0  0  0  0
 19 10  1  0  0  0  0
 20 22  1  6  0  0  0
 20 19  1  0  0  0  0
 22 21  1  0  0  0  0
 23 20  1  0  0  0  0
 23 24  1  0  0  0  0
 24 25  2  0  0  0  0
 26 25  1  0  0  0  0
 27 28  1  0  0  0  0
 28 29  1  0  0  0  0
M  END
>  <MODEL>
4

>  <REMARK>
 VINA RESULT:      -8.5      2.758      4.103
  Name = 
  7 active torsions:
  status: ('A' for Active; 'I' for Inactive)
    1  A    between atoms: C_1  and  C_15
    2  A    between atoms: N_5  and  C_17
    3  A    between atoms: N_5  and  CA_23
    4  A    between atoms: C_9  and  N_13
    5  A    between atoms: N_13  and  C_25
    6  A    between atoms: C_15  and  CA_23
    7  A    between atoms: CA_23  and  C_27
                            x       y       z     vdW  Elec       q    Type
                         _______ _______ _______ _____ _____    ______ ____

>  <TORSDO>
F 7

$$$$
=
 OpenBabel10222415523D

 29 32  0  0  1  0  0  0  0  0999 V2000
  186.9390  177.8870  143.4000 C   0  0  0  0  0  0  0  0  0  0  0  0
  187.2250  178.6650  138.9150 O   0  0  0  0  0  1  0  0  0  0  0  0
  185.7260  178.8240  141.8080 C   0  0  0  0  0  0  0  0  0  0  0  0
  188.1310  177.2560  145.4540 C   0  0  0  0  0  3  0  0  0  0  0  0
  190.5560  177.0600  145.1670 C   0  0  0  0  0  3  0  0  0  0  0  0
  185.2780  179.3980  140.5860 N   0  0  0  0  0  1  0  0  0  0  0  0
  188.0120  177.3440  143.9890 C   0  0  0  0  0  0  0  0  0  0  0  0
  189.1570  176.8000  143.1440 C   0  0  2  0  0  3  0  0  0  0  0  0
  190.4830  176.9810  143.8330 C   0  0  0  0  0  3  0  0  0  0  0  0
  189.4430  177.6890  139.2710 C   0  0  0  0  0  0  0  0  0  0  0  0
  185.7270  178.4500  143.9830 C   0  0  0  0  0  3  0  0  0  0  0  0
  190.3190  177.0150  140.5400 S   0  0  0  0  0  0  0  0  0  0  0  0
  188.0300  177.8890  141.1170 C   0  0  0  0  0  0  0  0  0  0  0  0
  185.0180  178.9880  143.0400 N   0  0  0  0  0  0  0  0  0  0  0  0
  189.3340  177.0830  146.0130 C   0  0  0  0  0  0  0  0  0  0  0  0
  188.1970  178.1130  139.7380 C   0  0  0  0  0  0  0  0  0  0  0  0
  189.1460  177.3000  141.7140 C   0  0  0  0  0  0  0  0  0  0  0  0
  186.8710  178.1760  141.9850 C   0  0  0  0  0  0  0  0  0  0  0  0
  189.9230  177.7480  137.9240 N   0  0  0  0  0  2  0  0  0  0  0  0
  189.9530  176.6080  137.0170 C   0  0  1  0  0  3  0  0  0  0  0  0
  191.0220  174.6610  137.9480 O   0  0  0  0  0  1  0  0  0  0  0  0
  191.2480  175.8180  137.1990 C   0  0  0  0  0  2  0  0  0  0  0  0
  188.7360  175.7300  137.2630 C   0  0  0  0  0  2  0  0  0  0  0  0
  188.1470  175.2820  135.9650 C   0  0  0  0  0  3  0  0  0  0  0  0
  187.1100  175.8960  135.4040 C   0  0  0  0  0  3  0  0  0  0  0  0
  186.4940  177.0280  136.0140 N   0  0  0  0  0  1  0  0  0  0  0  0
  189.4300  177.0110  147.4360 N   0  0  0  0  0  2  0  0  0  0  0  0
  189.2210  178.1640  148.2950 C   0  0  0  0  0  2  0  0  0  0  0  0
  187.8560  178.0710  148.9440 C   0  0  0  0  0  1  0  0  0  0  0  0
  1 11  1  0  0  0  0
  1  7  2  0  0  0  0
  2 16  1  0  0  0  0
  3 18  2  0  0  0  0
  3 14  1  0  0  0  0
  4 15  2  0  0  0  0
  5 15  1  0  0  0  0
  6  3  1  0  0  0  0
  7  4  1  0  0  0  0
  8  9  1  1  0  0  0
  8  7  1  0  0  0  0
  9  5  2  0  0  0  0
 10 16  2  0  0  0  0
 10 12  1  0  0  0  0
 12 17  1  0  0  0  0
 13 17  2  0  0  0  0
 13 18  1  0  0  0  0
 14 11  2  0  0  0  0
 15 27  1  0  0  0  0
 16 13  1  0  0  0  0
 17  8  1  0  0  0  0
 18  1  1  0  0  0  0
 19 10  1  0  0  0  0
 20 22  1  1  0  0  0
 20 23  1  0  0  0  0
 20 19  1  0  0  0  0
 22 21  1  0  0  0  0
 24 23  1  0  0  0  0
 25 24  2  0  0  0  0
 25 26  1  0  0  0  0
 27 28  1  0  0  0  0
 28 29  1  0  0  0  0
M  END
>  <MODEL>
5

>  <REMARK>
 VINA RESULT:      -8.3      2.782      4.133
  Name = 
  7 active torsions:
  status: ('A' for Active; 'I' for Inactive)
    1  A    between atoms: C_1  and  C_15
    2  A    between atoms: N_5  and  C_17
    3  A    between atoms: N_5  and  CA_23
    4  A    between atoms: C_9  and  N_13
    5  A    between atoms: N_13  and  C_25
    6  A    between atoms: C_15  and  CA_23
    7  A    between atoms: CA_23  and  C_27
                            x       y       z     vdW  Elec       q    Type
                         _______ _______ _______ _____ _____    ______ ____

>  <TORSDO>
F 7

$$$$
=
 OpenBabel10222415523D

 29 32  0  0  1  0  0  0  0  0999 V2000
  186.5230  178.2860  145.5520 C   0  0  0  0  0  0  0  0  0  0  0  0
  190.5390  176.5620  144.2480 O   0  0  0  0  0  1  0  0  0  0  0  0
  188.3410  177.4510  146.4890 C   0  0  0  0  0  0  0  0  0  0  0  0
  184.2520  178.9360  144.8750 C   0  0  0  0  0  3  0  0  0  0  0  0
  183.7000  178.3360  142.5650 C   0  0  0  0  0  3  0  0  0  0  0  0
  189.5840  176.8010  146.7280 N   0  0  0  0  0  1  0  0  0  0  0  0
  185.6520  178.5920  144.5810 C   0  0  0  0  0  0  0  0  0  0  0  0
  186.0970  178.5850  143.1230 C   0  0  2  0  0  3  0  0  0  0  0  0
  184.9780  178.1610  142.2100 C   0  0  0  0  0  3  0  0  0  0  0  0
  189.5310  176.8830  142.0390 C   0  0  0  0  0  0  0  0  0  0  0  0
  186.3450  178.2420  146.9980 C   0  0  0  0  0  3  0  0  0  0  0  0
  188.1070  177.5080  141.3980 S   0  0  0  0  0  0  0  0  0  0  0  0
  188.2770  177.4930  143.9090 C   0  0  0  0  0  0  0  0  0  0  0  0
  187.4210  177.7600  147.5390 N   0  0  0  0  0  0  0  0  0  0  0  0
  183.3300  178.8520  143.9090 C   0  0  0  0  0  0  0  0  0  0  0  0
  189.4870  176.9550  143.4320 C   0  0  0  0  0  0  0  0  0  0  0  0
  187.3890  177.8310  142.8870 C   0  0  0  0  0  0  0  0  0  0  0  0
  187.8410  177.7490  145.2960 C   0  0  0  0  0  0  0  0  0  0  0  0
  190.6180  176.4110  141.2360 N   0  0  0  0  0  2  0  0  0  0  0  0
  191.2130  177.1660  140.1410 C   0  0  1  0  0  3  0  0  0  0  0  0
  193.5100  177.1410  139.4200 O   0  0  0  0  0  1  0  0  0  0  0  0
  192.6640  177.5170  140.4660 C   0  0  0  0  0  2  0  0  0  0  0  0
  191.1170  176.3590  138.8570 C   0  0  0  0  0  2  0  0  0  0  0  0
  189.8770  176.7220  138.1050 C   0  0  0  0  0  3  0  0  0  0  0  0
  189.2160  175.8430  137.3580 C   0  0  0  0  0  3  0  0  0  0  0  0
  189.6540  174.4920  137.2290 N   0  0  0  0  0  1  0  0  0  0  0  0
  181.9750  179.1810  144.2180 N   0  0  0  0  0  2  0  0  0  0  0  0
  180.8760  178.9180  143.3020 C   0  0  0  0  0  2  0  0  0  0  0  0
  179.7570  178.2220  144.0440 C   0  0  0  0  0  1  0  0  0  0  0  0
  1 11  1  0  0  0  0
  3  6  1  0  0  0  0
  3 14  1  0  0  0  0
  5 15  1  0  0  0  0
  7  4  1  0  0  0  0
  7  1  2  0  0  0  0
  8  9  1  6  0  0  0
  8  7  1  0  0  0  0
  9  5  2  0  0  0  0
 10 16  2  0  0  0  0
 11 14  2  0  0  0  0
 12 10  1  0  0  0  0
 12 17  1  0  0  0  0
 13 18  1  0  0  0  0
 15 27  1  0  0  0  0
 15  4  2  0  0  0  0
 16 13  1  0  0  0  0
 16  2  1  0  0  0  0
 17  8  1  0  0  0  0
 17 13  2  0  0  0  0
 18  1  1  0  0  0  0
 18  3  2  0  0  0  0
 19 10  1  0  0  0  0
 20 23  1  6  0  0  0
 20 22  1  0  0  0  0
 20 19  1  0  0  0  0
 21 22  1  0  0  0  0
 24 23  1  0  0  0  0
 25 24  2  0  0  0  0
 26 25  1  0  0  0  0
 28 29  1  0  0  0  0
 28 27  1  0  0  0  0
M  END
>  <MODEL>
6

>  <REMARK>
 VINA RESULT:      -8.2      3.433      6.333
  Name = 
  7 active torsions:
  status: ('A' for Active; 'I' for Inactive)
    1  A    between atoms: C_1  and  C_15
    2  A    between atoms: N_5  and  C_17
    3  A    between atoms: N_5  and  CA_23
    4  A    between atoms: C_9  and  N_13
    5  A    between atoms: N_13  and  C_25
    6  A    between atoms: C_15  and  CA_23
    7  A    between atoms: CA_23  and  C_27
                            x       y       z     vdW  Elec       q    Type
                         _______ _______ _______ _____ _____    ______ ____

>  <TORSDO>
F 7

$$$$
=
 OpenBabel10222415523D

 29 32  0  0  1  0  0  0  0  0999 V2000
  185.9850  178.2570  144.8630 C   0  0  0  0  0  0  0  0  0  0  0  0
  189.9070  177.2880  142.7480 O   0  0  0  0  0  1  0  0  0  0  0  0
  187.9820  177.4630  145.3750 C   0  0  0  0  0  0  0  0  0  0  0  0
  183.5940  178.7700  144.6200 C   0  0  0  0  0  3  0  0  0  0  0  0
  182.7730  178.5810  142.3200 C   0  0  0  0  0  3  0  0  0  0  0  0
  189.2960  176.9220  145.3200 N   0  0  0  0  0  1  0  0  0  0  0  0
  184.9630  178.6500  144.0920 C   0  0  0  0  0  0  0  0  0  0  0  0
  185.1950  178.9820  142.6220 C   0  0  2  0  0  3  0  0  0  0  0  0
  183.9990  178.6240  141.7830 C   0  0  0  0  0  3  0  0  0  0  0  0
  188.5730  177.9250  140.7960 C   0  0  0  0  0  0  0  0  0  0  0  0
  186.0180  177.9080  146.2780 C   0  0  0  0  0  3  0  0  0  0  0  0
  187.0240  178.5000  140.4790 S   0  0  0  0  0  0  0  0  0  0  0  0
  187.5500  178.0080  142.8900 C   0  0  0  0  0  0  0  0  0  0  0  0
  187.1970  177.4520  146.5710 N   0  0  0  0  0  0  0  0  0  0  0  0
  182.5550  178.7750  143.7770 C   0  0  0  0  0  0  0  0  0  0  0  0
  188.7210  177.7140  142.1680 C   0  0  0  0  0  0  0  0  0  0  0  0
  186.5000  178.4390  142.0770 C   0  0  0  0  0  0  0  0  0  0  0  0
  187.2940  177.9330  144.3420 C   0  0  0  0  0  0  0  0  0  0  0  0
  189.5710  177.7460  139.7850 N   0  0  0  0  0  2  0  0  0  0  0  0
  189.3330  177.0840  138.5100 C   0  0  1  0  0  3  0  0  0  0  0  0
  189.0550  179.3800  137.8380 O   0  0  0  0  0  1  0  0  0  0  0  0
  189.3620  178.1000  137.3700 C   0  0  0  0  0  2  0  0  0  0  0  0
  190.3720  175.9940  138.3010 C   0  0  0  0  0  2  0  0  0  0  0  0
  191.7290  176.4890  138.6830 C   0  0  0  0  0  3  0  0  0  0  0  0
  192.7700  176.4190  137.8580 C   0  0  0  0  0  3  0  0  0  0  0  0
  192.6500  175.8640  136.5510 N   0  0  0  0  0  1  0  0  0  0  0  0
  181.2340  178.8820  144.3100 N   0  0  0  0  0  2  0  0  0  0  0  0
  180.0440  178.6790  143.5010 C   0  0  0  0  0  2  0  0  0  0  0  0
  179.4640  180.0210  143.1100 C   0  0  0  0  0  1  0  0  0  0  0  0
  1 11  1  0  0  0  0
  3 14  1  0  0  0  0
  5 15  1  0  0  0  0
  6  3  1  0  0  0  0
  7  4  1  0  0  0  0
  7  1  2  0  0  0  0
  8  9  1  6  0  0  0
  8  7  1  0  0  0  0
  9  5  2  0  0  0  0
 10 16  2  0  0  0  0
 11 14  2  0  0  0  0
 12 10  1  0  0  0  0
 12 17  1  0  0  0  0
 13 18  1  0  0  0  0
 15 27  1  0  0  0  0
 15  4  2  0  0  0  0
 16  2  1  0  0  0  0
 16 13  1  0  0  0  0
 17  8  1  0  0  0  0
 17 13  2  0  0  0  0
 18  1  1  0  0  0  0
 18  3  2  0  0  0  0
 19 10  1  0  0  0  0
 20 22  1  6  0  0  0
 20 19  1  0  0  0  0
 22 21  1  0  0  0  0
 23 20  1  0  0  0  0
 23 24  1  0  0  0  0
 25 24  2  0  0  0  0
 26 25  1  0  0  0  0
 28 27  1  0  0  0  0
 29 28  1  0  0  0  0
M  END
>  <MODEL>
7

>  <REMARK>
 VINA RESULT:      -7.8      3.133      6.146
  Name = 
  7 active torsions:
  status: ('A' for Active; 'I' for Inactive)
    1  A    between atoms: C_1  and  C_15
    2  A    between atoms: N_5  and  C_17
    3  A    between atoms: N_5  and  CA_23
    4  A    between atoms: C_9  and  N_13
    5  A    between atoms: N_13  and  C_25
    6  A    between atoms: C_15  and  CA_23
    7  A    between atoms: CA_23  and  C_27
                            x       y       z     vdW  Elec       q    Type
                         _______ _______ _______ _____ _____    ______ ____

>  <TORSDO>
F 7

$$$$
=
 OpenBabel10222415523D

 29 32  0  0  1  0  0  0  0  0999 V2000
  187.7080  177.6250  144.8360 C   0  0  0  0  0  0  0  0  0  0  0  0
  183.4290  178.9980  145.6090 O   0  0  0  0  0  1  0  0  0  0  0  0
  186.4320  178.1530  146.5610 C   0  0  0  0  0  0  0  0  0  0  0  0
  189.4930  177.3050  143.1780 C   0  0  0  0  0  3  0  0  0  0  0  0
  188.9470  178.1850  140.9580 C   0  0  0  0  0  3  0  0  0  0  0  0
  185.3800  178.6310  147.3910 N   0  0  0  0  0  1  0  0  0  0  0  0
  188.0860  177.5150  143.5560 C   0  0  0  0  0  0  0  0  0  0  0  0
  187.0510  177.6120  142.4400 C   0  0  2  0  0  3  0  0  0  0  0  0
  187.6330  178.2470  141.2060 C   0  0  0  0  0  3  0  0  0  0  0  0
  183.3910  179.0100  143.1610 C   0  0  0  0  0  0  0  0  0  0  0  0
  188.4940  177.5480  146.0610 C   0  0  0  0  0  3  0  0  0  0  0  0
  184.4300  178.6160  141.8970 S   0  0  0  0  0  0  0  0  0  0  0  0
  185.3690  178.3680  144.2190 C   0  0  0  0  0  0  0  0  0  0  0  0
  187.7340  177.8500  147.0680 N   0  0  0  0  0  0  0  0  0  0  0  0
  189.8950  177.5870  141.9330 C   0  0  0  0  0  0  0  0  0  0  0  0
  184.0420  178.8090  144.3790 C   0  0  0  0  0  0  0  0  0  0  0  0
  185.7420  178.2340  142.8810 C   0  0  0  0  0  0  0  0  0  0  0  0
  186.3800  178.0300  145.2400 C   0  0  0  0  0  0  0  0  0  0  0  0
  182.0370  179.4310  142.9680 N   0  0  0  0  0  2  0  0  0  0  0  0
  181.0610  178.7010  142.1700 C   0  0  1  0  0  3  0  0  0  0  0  0
  180.0390  178.5070  144.3430 O   0  0  0  0  0  1  0  0  0  0  0  0
  179.7780  178.4830  142.9710 C   0  0  0  0  0  2  0  0  0  0  0  0
  180.7830  179.4620  140.8840 C   0  0  0  0  0  2  0  0  0  0  0  0
  180.5080  178.5100  139.7650 C   0  0  0  0  0  3  0  0  0  0  0  0
  181.3470  178.3480  138.7470 C   0  0  0  0  0  3  0  0  0  0  0  0
  182.5690  179.0780  138.6630 N   0  0  0  0  0  1  0  0  0  0  0  0
  191.2670  177.3860  141.5900 N   0  0  0  0  0  2  0  0  0  0  0  0
  191.7580  177.5010  140.2260 C   0  0  0  0  0  2  0  0  0  0  0  0
  193.2320  177.1580  140.1900 C   0  0  0  0  0  1  0  0  0  0  0  0
  1 18  1  0  0  0  0
  1 11  1  0  0  0  0
  3 14  1  0  0  0  0
  3  6  1  0  0  0  0
  4  7  1  0  0  0  0
  5  9  2  0  0  0  0
  5 15  1  0  0  0  0
  7  1  2  0  0  0  0
  8  9  1  6  0  0  0
  8 17  1  0  0  0  0
  8  7  1  0  0  0  0
 10 16  2  0  0  0  0
 11 14  2  0  0  0  0
 12 17  1  0  0  0  0
 12 10  1  0  0  0  0
 13 16  1  0  0  0  0
 13 18  1  0  0  0  0
 15  4  2  0  0  0  0
 16  2  1  0  0  0  0
 17 13  2  0  0  0  0
 18  3  2  0  0  0  0
 19 10  1  0  0  0  0
 20 23  1  6  0  0  0
 20 19  1  0  0  0  0
 20 22  1  0  0  0  0
 22 21  1  0  0  0  0
 24 23  1  0  0  0  0
 25 24  2  0  0  0  0
 26 25  1  0  0  0  0
 27 15  1  0  0  0  0
 28 27  1  0  0  0  0
 29 28  1  0  0  0  0
M  END
>  <MODEL>
8

>  <REMARK>
 VINA RESULT:      -7.8      2.847      4.363
  Name = 
  7 active torsions:
  status: ('A' for Active; 'I' for Inactive)
    1  A    between atoms: C_1  and  C_15
    2  A    between atoms: N_5  and  C_17
    3  A    between atoms: N_5  and  CA_23
    4  A    between atoms: C_9  and  N_13
    5  A    between atoms: N_13  and  C_25
    6  A    between atoms: C_15  and  CA_23
    7  A    between atoms: CA_23  and  C_27
                            x       y       z     vdW  Elec       q    Type
                         _______ _______ _______ _____ _____    ______ ____

>  <TORSDO>
F 7

$$$$
=
 OpenBabel10222415523D

 29 32  0  0  1  0  0  0  0  0999 V2000
  186.5330  178.2080  145.3570 C   0  0  0  0  0  0  0  0  0  0  0  0
  190.5290  176.6830  143.7730 O   0  0  0  0  0  1  0  0  0  0  0  0
  188.4140  177.3710  146.1590 C   0  0  0  0  0  0  0  0  0  0  0  0
  184.2170  178.8310  144.8240 C   0  0  0  0  0  3  0  0  0  0  0  0
  183.5750  178.3560  142.5080 C   0  0  0  0  0  3  0  0  0  0  0  0
  189.6830  176.7440  146.3030 N   0  0  0  0  0  1  0  0  0  0  0  0
  185.6110  178.5460  144.4470 C   0  0  0  0  0  0  0  0  0  0  0  0
  185.9880  178.6400  142.9730 C   0  0  2  0  0  3  0  0  0  0  0  0
  184.8400  178.2390  142.0860 C   0  0  0  0  0  3  0  0  0  0  0  0
  189.4120  177.1070  141.6350 C   0  0  0  0  0  0  0  0  0  0  0  0
  186.4240  178.0720  146.8040 C   0  0  0  0  0  3  0  0  0  0  0  0
  187.9440  177.7270  141.0980 S   0  0  0  0  0  0  0  0  0  0  0  0
  188.2300  177.5670  143.5920 C   0  0  0  0  0  0  0  0  0  0  0  0
  187.5350  177.5890  147.2670 N   0  0  0  0  0  0  0  0  0  0  0  0
  183.2540  178.7780  143.8960 C   0  0  0  0  0  0  0  0  0  0  0  0
  189.4300  177.0930  143.0310 C   0  0  0  0  0  0  0  0  0  0  0  0
  187.2870  177.9390  142.6330 C   0  0  0  0  0  0  0  0  0  0  0  0
  187.8520  177.7260  145.0110 C   0  0  0  0  0  0  0  0  0  0  0  0
  190.4730  176.7150  140.7570 N   0  0  0  0  0  2  0  0  0  0  0  0
  190.6810  177.2750  139.4280 C   0  0  1  0  0  3  0  0  0  0  0  0
  191.4190  175.2390  138.3740 O   0  0  0  0  0  1  0  0  0  0  0  0
  191.8110  176.5370  138.7120 C   0  0  0  0  0  2  0  0  0  0  0  0
  189.3870  177.2000  138.6350 C   0  0  0  0  0  2  0  0  0  0  0  0
  189.4780  178.0470  137.4080 C   0  0  0  0  0  3  0  0  0  0  0  0
  188.4330  178.7110  136.9230 C   0  0  0  0  0  3  0  0  0  0  0  0
  187.1540  178.6540  137.5510 N   0  0  0  0  0  1  0  0  0  0  0  0
  181.9060  179.0490  144.2850 N   0  0  0  0  0  2  0  0  0  0  0  0
  180.8070  179.0730  143.3340 C   0  0  0  0  0  2  0  0  0  0  0  0
  179.5160  178.7290  144.0460 C   0  0  0  0  0  1  0  0  0  0  0  0
  1 11  1  0  0  0  0
  3  6  1  0  0  0  0
  3 14  1  0  0  0  0
  5 15  1  0  0  0  0
  7  4  1  0  0  0  0
  7  1  2  0  0  0  0
  8  9  1  6  0  0  0
  8  7  1  0  0  0  0
  9  5  2  0  0  0  0
 10 16  2  0  0  0  0
 11 14  2  0  0  0  0
 12 10  1  0  0  0  0
 12 17  1  0  0  0  0
 13 18  1  0  0  0  0
 15 27  1  0  0  0  0
 15  4  2  0  0  0  0
 16 13  1  0  0  0  0
 16  2  1  0  0  0  0
 17  8  1  0  0  0  0
 17 13  2  0  0  0  0
 18  1  1  0  0  0  0
 18  3  2  0  0  0  0
 19 10  1  0  0  0  0
 20 23  1  6  0  0  0
 20 19  1  0  0  0  0
 21 22  1  0  0  0  0
 22 20  1  0  0  0  0
 24 23  1  0  0  0  0
 25 24  2  0  0  0  0
 25 26  1  0  0  0  0
 28 29  1  0  0  0  0
 28 27  1  0  0  0  0
M  END
>  <MODEL>
9

>  <REMARK>
 VINA RESULT:      -7.7      3.107      6.086
  Name = 
  7 active torsions:
  status: ('A' for Active; 'I' for Inactive)
    1  A    between atoms: C_1  and  C_15
    2  A    between atoms: N_5  and  C_17
    3  A    between atoms: N_5  and  CA_23
    4  A    between atoms: C_9  and  N_13
    5  A    between atoms: N_13  and  C_25
    6  A    between atoms: C_15  and  CA_23
    7  A    between atoms: CA_23  and  C_27
                            x       y       z     vdW  Elec       q    Type
                         _______ _______ _______ _____ _____    ______ ____

>  <TORSDO>
F 7

$$$$
